data_PCOD9271297
_publ_section_title
;
Structure prediction by ZEFSAII (Michael W. Deem and Ramdas Pophale) SiO2 
 PCOD9271297
Probable space group: C 2/C
;
_chemical_formula_sum "Si O2"
_cell_formula_units_Z 60
_cell_length_a 21.033359
_cell_length_b 19.711912
_cell_length_c 8.697813
_cell_angle_alpha 90.000000
_cell_angle_beta 137.386161
_cell_angle_gamma 90.000000
_cell_volume 2441.577963
_symmetry_space_group_name_H-M "C 2/C"
_symmetry_group_IT_number 15
_symmetry_cell_setting 'monoclinic'
loop_
_space_group_symop_operation_xyz
x,y,z
-x,y,1/2-z
-x,-y,-z
x,-y,1/2+z
1/2+x,1/2+y,z
1/2-x,1/2+y,1/2-z
1/2-x,1/2-y,-z
1/2+x,1/2-y,1/2+z
loop_
_atom_site_type_symbol
_atom_site_label
_atom_site_fract_x
_atom_site_fract_y
_atom_site_fract_z
Si Si1 0.920099 0.130604 0.831758
Si Si2 0.256702 0.911517 0.036219
Si Si3 0.223287 0.392082 0.096279
Si Si4 0.000000 0.692741 0.750000
Si Si5 0.072982 0.004023 0.265695
Si Si6 0.826815 0.764270 0.967562
Si Si7 0.893527 0.800338 0.760651
Si Si8 0.669695 0.118953 0.168003
O O1 0.837527 0.104596 0.797148
O O2 0.888089 0.203538 0.712362
O O3 0.910725 0.076652 0.674009
O O4 0.023083 0.144417 0.078885
O O5 0.309326 0.919513 0.294762
O O6 0.169806 0.963252 0.891299
O O7 0.204090 0.837805 0.951808
O O8 0.306063 0.915439 0.956119
O O9 0.198512 0.312712 0.049050
O O10 0.187992 0.418221 0.865532
O O11 0.072906 0.742250 0.794060
O O12 0.936644 0.645508 0.529214
O O13 0.000000 0.037247 0.250000
O O14 0.000000 0.000000 0.000000
O O15 0.882696 0.769266 0.909197
O O16 0.739319 0.815820 0.796444
#
# Coordination Sequence:
#
# PCOD9271297 Si02
#       8
#     8   8   8   4   8   8   8   8
#     4  11  21  36  60  92 133 176 217 265 323 389
#     4  11  24  41  61  90 135 179 219 264 322 399
#     4  11  22  40  61  87 128 177 217 262 331 389
#     4  12  22  36  64  94 128 172 226 280 336 400
#     4  12  25  40  62  95 137 182 221 261 312 396
#     4  10  20  36  58  87 129 173 214 270 329 391
#     4  11  20  32  56  90 132 176 215 265 323 393
#     4  10  23  40  60  89 126 167 218 281 329 383
#
# _framework density 24.574271
#
# number of rings (size 3 to 8) (size 9 to 14) (size 15 to 20)
#    0.000    1.067    1.333    7.600    4.667    2.133 
#    0.000    2.000    0.000    0.000    0.000    3.733 
#    8.000    0.000    0.000    0.000    0.000    0.000 
#
# Total GULP energy -167605.690757 kJ/mol
# GULP energy per Si atom -5586.856359 kJ/mol
# Density = 2.451834 g / cm^3
# Si number density = 24.574271 Si / 1000 Ang^3
#
#
#
# Elastic Constant Matrix: (Units=GPa)
#
#
# Indices 1 2 3 4 5 6 
#
# 1 112.1571 24.2394 24.6417 0.0000 -45.9112 0.0000
# 2 24.2394 64.5572 11.3293 0.0000 -1.7660 0.0000
# 3 24.6417 11.3293 100.4570 0.0000 -22.2140 0.0000
# 4 0.0000 0.0000 0.0000 25.9175 0.0000 3.1496
# 5 -45.9112 -1.7660 -22.2140 0.0000 45.5419 0.0000
# 6 0.0000 0.0000 0.0000 3.1496 0.0000 33.2926
#
#
#
# Elastic Compliance Matrix: (Units=1/GPa)
#
#
# Indices 1 2 3 4 5 6 
#
# 1 0.017233 -0.006046 0.000274 0.000000 0.017271 0.000000
# 2 -0.006046 0.017927 -0.001942 0.000000 -0.006347 0.000000
# 3 0.000274 -0.001942 0.011378 0.000000 0.005751 0.000000
# 4 0.000000 0.000000 0.000000 0.039033 0.000000 -0.003693
# 5 0.017271 -0.006347 0.005751 0.000000 0.041928 0.000000
# 6 0.000000 0.000000 0.000000 -0.003693 0.000000 0.030386
#
#
# Mechanical properties :
#
#
# Convention : Reuss Voigt Hill
#
# Bulk Modulus (GPa) = 32.14457 44.17690 38.16074
# Shear Modulus (GPa) = 27.22075 35.41446 31.31761
#
# Velocity S-wave (km/s) = 3.33181 3.80033 3.57376
# Velocity P-wave (km/s) = 5.28302 6.10513 5.70889
#
# Compressibility (1/GPa) = 0.03110945
#
# Stress axis : x y z
#
# Youngs Moduli (GPa) = 58.02971 55.78030 87.88885
#
# Poissons Ratio (x) = 0.33725 -0.02408
# Poissons Ratio (y) = 0.35085 0.17071
# Poissons Ratio (z) = -0.01590 0.10834
#
# Static dielectric constant tensor:
#      x y z
#    x 1.977780 0.000000 0.005230 
#    y 0.000000 2.263390 0.000000 
#    z 0.005230 0.000000 1.981470 
# 
# From -- ./inp_files/58782.got.cif
#   From: 2010.05.17/outbox.cif.g08.bks.cpg/sg15_30_cif.got.tgz:58782.got - 2010.06.03 18:47:42.
