data_PCOD9271644
_publ_section_title
;
Structure prediction by ZEFSAII (Michael W. Deem and Ramdas Pophale) SiO2 
 PCOD9271644
Probable space group: C 2/C
;
_chemical_formula_sum "Si O2"
_cell_formula_units_Z 52
_cell_length_a 21.107253
_cell_length_b 17.268946
_cell_length_c 8.881532
_cell_angle_alpha 90.000000
_cell_angle_beta 57.452357
_cell_angle_gamma 90.000000
_cell_volume 2728.879439
_symmetry_space_group_name_H-M "C 2/C"
_symmetry_group_IT_number 15
_symmetry_cell_setting 'monoclinic'
loop_
_space_group_symop_operation_xyz
x,y,z
-x,y,1/2-z
-x,-y,-z
x,-y,1/2+z
1/2+x,1/2+y,z
1/2-x,1/2+y,1/2-z
1/2-x,1/2-y,-z
1/2+x,1/2-y,1/2+z
loop_
_atom_site_type_symbol
_atom_site_label
_atom_site_fract_x
_atom_site_fract_y
_atom_site_fract_z
Si Si1 0.589615 0.658963 0.408545
Si Si2 0.601094 0.754168 0.867175
Si Si3 0.153318 0.692888 0.007957
Si Si4 0.500000 0.740091 0.250000
Si Si5 0.153711 0.030973 0.140364
Si Si6 0.500000 0.549413 0.750000
Si Si7 0.500000 0.182280 0.250000
Si Si8 0.199857 0.107318 0.774936
O O1 0.629242 0.726819 0.456346
O O2 0.544794 0.691272 0.319401
O O3 0.651806 0.600189 0.263011
O O4 0.536233 0.604877 0.578067
O O5 0.663153 0.793807 0.676714
O O6 0.531191 0.764360 0.843272
O O7 0.631427 0.668407 0.852701
O O8 0.565953 0.783166 0.069828
O O9 0.223635 0.654668 0.840511
O O10 0.076071 0.641770 0.098711
O O11 0.067573 0.004128 0.222794
O O12 0.194045 0.955155 0.150883
O O13 0.190141 0.062409 0.942512
#
# Coordination Sequence:
#
# PCOD9271644 Si02
#       8
#     8   8   8   4   8   4   4   8
#     4  12  21  36  59  88 126 162 213 243 297 361
#     4  10  20  36  60  90 121 158 198 254 301 363
#     4  10  22  42  63  86 124 168 204 257 301 372
#     4  12  17  32  59  98 121 143 202 264 299 358
#     4  12  26  37  57  90 127 174 199 251 299 385
#     4  12  24  40  60  88 136 176 204 230 312 382
#     4   8  19  36  61  86 105 157 204 252 301 352
#     4  12  25  41  59  88 132 168 205 246 317 362
#
# _framework density 19.055441999999999
#
# number of rings (size 3 to 8) (size 9 to 14) (size 15 to 20)
#    0.923    0.000    4.615    4.615    0.000    0.615 
#    0.000    0.000    0.000    0.923    0.000    0.000 
#    0.000    0.000    0.000    0.000    0.000    0.000 
#
# Total GULP energy -144762.945199 kJ/mol
# GULP energy per Si atom -5567.805585 kJ/mol
# Density = 1.901207 g / cm^3
# Si number density = 19.055442 Si / 1000 Ang^3
#
#
#
# Elastic Constant Matrix: (Units=GPa)
#
#
# Indices 1 2 3 4 5 6 
#
# 1 58.7580 28.0697 45.9262 0.0000 -13.5768 0.0000
# 2 28.0697 44.9754 49.6401 0.0000 -13.5722 0.0000
# 3 45.9262 49.6401 146.0159 0.0000 1.8770 0.0000
# 4 0.0000 0.0000 0.0000 27.4518 0.0000 -15.0748
# 5 -13.5768 -13.5722 1.8770 0.0000 24.2311 0.0000
# 6 0.0000 0.0000 0.0000 -15.0748 0.0000 11.3353
#
#
#
# Elastic Compliance Matrix: (Units=1/GPa)
#
#
# Indices 1 2 3 4 5 6 
#
# 1 0.028446 -0.005960 -0.007090 0.000000 0.013149 0.000000
# 2 -0.005960 0.051862 -0.016103 0.000000 0.026957 0.000000
# 3 -0.007090 -0.016103 0.014735 0.000000 -0.014134 0.000000
# 4 0.000000 0.000000 0.000000 0.135065 0.000000 0.179623
# 5 0.013149 0.026957 -0.014134 0.000000 0.064831 0.000000
# 6 0.000000 0.000000 0.000000 0.179623 0.000000 0.327101
#
#
# Mechanical properties :
#
#
# Convention : Reuss Voigt Hill
#
# Bulk Modulus (GPa) = 27.22086 55.22457 41.22272
# Shear Modulus (GPa) = 7.21925 21.01120 14.11523
#
# Velocity S-wave (km/s) = 1.94853 3.32420 2.72462
# Velocity P-wave (km/s) = 4.40210 6.61647 5.61944
#
# Compressibility (1/GPa) = 0.03673653
#
# Stress axis : x y z
#
# Youngs Moduli (GPa) = 35.15412 19.28179 67.86696
#
# Poissons Ratio (x) = 0.11493 0.48117
# Poissons Ratio (y) = 0.20953 1.09287
# Poissons Ratio (z) = 0.24924 0.31050
#
# Static dielectric constant tensor:
#      x y z
#    x 1.706550 0.000000 -0.028750 
#    y 0.000000 1.647980 0.000000 
#    z -0.028750 0.000000 1.756570 
# 
# From -- ./inp_files/61461.got.cif
#   From: 2010.05.17/outbox.cif.g08.bks.cpg/sg15_31_cif.got.tgz:61461.got - 2010.06.03 18:47:42.
