data_PCOD9271890
_publ_section_title
;
Structure prediction by ZEFSAII (Michael W. Deem and Ramdas Pophale) SiO2 
 PCOD9271890
Probable space group: C 2/C
;
_chemical_formula_sum "Si O2"
_cell_formula_units_Z 60
_cell_length_a 16.844322
_cell_length_b 9.473549
_cell_length_c 27.405155
_cell_angle_alpha 90.000000
_cell_angle_beta 136.671712
_cell_angle_gamma 90.000000
_cell_volume 3000.786035
_symmetry_space_group_name_H-M "C 2/C"
_symmetry_group_IT_number 15
_symmetry_cell_setting 'monoclinic'
loop_
_space_group_symop_operation_xyz
x,y,z
-x,y,1/2-z
-x,-y,-z
x,-y,1/2+z
1/2+x,1/2+y,z
1/2-x,1/2+y,1/2-z
1/2-x,1/2-y,-z
1/2+x,1/2-y,1/2+z
loop_
_atom_site_type_symbol
_atom_site_label
_atom_site_fract_x
_atom_site_fract_y
_atom_site_fract_z
Si Si1 0.454391 0.548932 0.627409
Si Si2 0.768023 0.223272 0.697917
Si Si3 0.112852 0.102732 0.549330
Si Si4 0.000000 0.875222 0.250000
Si Si5 0.052629 0.654140 0.530214
Si Si6 0.688790 0.528350 0.688675
Si Si7 0.375185 0.820862 0.548308
Si Si8 0.257561 0.912731 0.019903
O O1 0.461424 0.531313 0.687610
O O2 0.560950 0.478684 0.647862
O O3 0.457867 0.716870 0.616083
O O4 0.337696 0.484605 0.556606
O O5 0.885740 0.203964 0.718954
O O6 0.657877 0.178327 0.615027
O O7 0.758968 0.386286 0.709676
O O8 0.770621 0.125172 0.747816
O O9 0.168235 0.107378 0.627965
O O10 0.210450 0.063930 0.553735
O O11 0.056074 0.247528 0.506174
O O12 0.000000 0.000000 0.500000
O O13 0.095371 0.696006 0.495202
O O14 0.000000 0.500000 0.500000
O O15 0.250000 0.750000 0.500000
O O16 0.368767 0.985443 0.560991
O O17 0.250000 0.750000 0.000000
#
# Coordination Sequence:
#
# PCOD9271890 Si02
#       8
#     8   8   8   4   8   8   8   8
#     4  10  20  41  61  88 123 169 210 256 310 393
#     4  11  25  44  66  95 131 173 216 274 327 396
#     4  12  21  41  67  92 125 172 213 263 328 386
#     4  10  24  40  68  88 128 172 220 250 326 396
#     4  12  24  39  68 101 130 165 223 274 322 386
#     4  11  24  42  67  93 129 168 218 265 329 393
#     4  10  20  36  62  89 122 162 213 254 310 375
#     4  11  22  36  60  95 129 159 207 269 320 364
#
# _framework density 19.994761
#
# number of rings (size 3 to 8) (size 9 to 14) (size 15 to 20)
#    0.000    1.067    4.000    3.200    3.733    0.000 
#    2.400    0.000    0.000    0.800    0.000    0.000 
#    0.000    0.000    0.000    0.000    0.000    0.000 
#
# Total GULP energy -167325.627739 kJ/mol
# GULP energy per Si atom -5577.520925 kJ/mol
# Density = 1.994925 g / cm^3
# Si number density = 19.994761 Si / 1000 Ang^3
#
#
#
# Elastic Constant Matrix: (Units=GPa)
#
#
# Indices 1 2 3 4 5 6 
#
# 1 76.2617 3.6978 27.1903 0.0000 -15.7350 0.0000
# 2 3.6978 93.3738 24.0409 0.0000 3.1802 0.0000
# 3 27.1903 24.0409 119.4348 0.0000 -26.1729 0.0000
# 4 0.0000 0.0000 0.0000 19.5241 0.0000 5.0059
# 5 -15.7350 3.1802 -26.1729 0.0000 32.0804 0.0000
# 6 0.0000 0.0000 0.0000 5.0059 0.0000 15.4955
#
#
#
# Elastic Compliance Matrix: (Units=1/GPa)
#
#
# Indices 1 2 3 4 5 6 
#
# 1 0.015055 -0.000239 -0.002138 0.000000 0.005663 0.000000
# 2 -0.000239 0.011655 -0.003130 0.000000 -0.003826 0.000000
# 3 -0.002138 -0.003130 0.011359 0.000000 0.008528 0.000000
# 4 0.000000 0.000000 0.000000 0.055844 0.000000 -0.018041
# 5 0.005663 -0.003826 0.008528 0.000000 0.041287 0.000000
# 6 0.000000 0.000000 0.000000 -0.018041 0.000000 0.070363
#
#
# Mechanical properties :
#
#
# Convention : Reuss Voigt Hill
#
# Bulk Modulus (GPa) = 36.96193 44.32536 40.64365
# Shear Modulus (GPa) = 22.16348 29.02940 25.59644
#
# Velocity S-wave (km/s) = 3.33297 3.81445 3.58181
# Velocity P-wave (km/s) = 5.77387 6.45110 6.12185
#
# Compressibility (1/GPa) = 0.02705486
#
# Stress axis : x y z
#
# Youngs Moduli (GPa) = 66.42201 85.79740 88.03911
#
# Poissons Ratio (x) = 0.02047 0.18826
# Poissons Ratio (y) = 0.01585 0.27559
# Poissons Ratio (z) = 0.14203 0.26857
#
# Static dielectric constant tensor:
#      x y z
#    x 1.908000 0.000000 0.189760 
#    y 0.000000 1.853430 0.000000 
#    z 0.189760 0.000000 1.959930 
# 
# From -- ./inp_files/298403.got.cif
#   From: 2010.05.17/outbox.cif.g08.bks.cpg/sg15_150_cif.got.tgz:298403.got - 2010.06.03 18:47:42.
