data_PCOD9271301
_publ_section_title
;
Structure prediction by ZEFSAII (Michael W. Deem and Ramdas Pophale) SiO2 
 PCOD9271301
Probable space group: C 2/C
;
_chemical_formula_sum "Si O2"
_cell_formula_units_Z 36
_cell_length_a 10.154777
_cell_length_b 15.959687
_cell_length_c 11.344822
_cell_angle_alpha 90.000000
_cell_angle_beta 131.867343
_cell_angle_gamma 90.000000
_cell_volume 1369.207207
_symmetry_space_group_name_H-M "C 2/C"
_symmetry_group_IT_number 15
_symmetry_cell_setting 'monoclinic'
loop_
_space_group_symop_operation_xyz
x,y,z
-x,y,1/2-z
-x,-y,-z
x,-y,1/2+z
1/2+x,1/2+y,z
1/2-x,1/2+y,1/2-z
1/2-x,1/2-y,-z
1/2+x,1/2-y,1/2+z
loop_
_atom_site_type_symbol
_atom_site_label
_atom_site_fract_x
_atom_site_fract_y
_atom_site_fract_z
Si Si1 0.620710 0.767223 0.546516
Si Si2 0.649333 0.635828 0.156133
Si Si3 0.500000 0.133442 0.750000
Si Si4 0.311966 0.156535 0.013021
Si Si5 0.191314 0.471396 0.170158
O O1 0.537038 0.674179 0.498498
O O2 0.795864 0.786873 0.725322
O O3 0.610661 0.812232 0.413068
O O4 0.493703 0.823924 0.555089
O O5 0.674523 0.549011 0.238258
O O6 0.779570 0.620045 0.122554
O O7 0.368585 0.074134 0.745782
O O8 0.222006 0.096388 0.865371
O O9 0.250000 0.250000 0.000000
O O10 0.000000 0.500000 0.000000
#
# Coordination Sequence:
#
# PCOD9271301 Si02
#       5
#     8   8   4   8   8
#     4  10  22  36  58  90 123 159 196 247 312 359
#     4  11  21  37  61  95 118 159 204 257 300 363
#     4  10  20  36  58  88 118 156 200 254 292 360
#     4   9  19  35  58  90 125 156 201 254 304 355
#     4  11  19  33  61  93 116 152 214 256 289 349
#
# _framework density 26.292587999999999
#
# number of rings (size 3 to 8) (size 9 to 14) (size 15 to 20)
#    0.000    1.778    4.444    2.000    0.000    0.889 
#    0.000    0.000    0.000   12.000   23.111    4.667 
#    0.000    0.000    0.000    0.000    0.000    0.000 
#
# Total GULP energy -100507.856518 kJ/mol
# GULP energy per Si atom -5583.769807 kJ/mol
# Density = 2.623275 g / cm^3
# Si number density = 26.292588 Si / 1000 Ang^3
#
#
#
# Elastic Constant Matrix: (Units=GPa)
#
#
# Indices 1 2 3 4 5 6 
#
# 1 86.5317 28.5388 61.3975 0.0000 -34.2728 0.0000
# 2 28.5388 169.9105 66.3365 0.0000 -1.3651 0.0000
# 3 61.3975 66.3365 118.2313 0.0000 -27.1356 0.0000
# 4 0.0000 0.0000 0.0000 51.4383 0.0000 -14.6593
# 5 -34.2728 -1.3651 -27.1356 0.0000 46.3525 0.0000
# 6 0.0000 0.0000 0.0000 -14.6593 0.0000 33.7235
#
#
#
# Elastic Compliance Matrix: (Units=1/GPa)
#
#
# Indices 1 2 3 4 5 6 
#
# 1 0.022478 -0.000187 -0.008958 0.000000 0.011370 0.000000
# 2 -0.000187 0.007820 -0.004932 0.000000 -0.002795 0.000000
# 3 -0.008958 -0.004932 0.016547 0.000000 0.002918 0.000000
# 4 0.000000 0.000000 0.000000 0.022190 0.000000 0.009646
# 5 0.011370 -0.002795 0.002918 0.000000 0.031607 0.000000
# 6 0.000000 0.000000 0.000000 0.009646 0.000000 0.033846
#
#
# Mechanical properties :
#
#
# Convention : Reuss Voigt Hill
#
# Bulk Modulus (GPa) = 53.50341 76.35770 64.93055
# Shear Modulus (GPa) = 29.60834 40.86290 35.23562
#
# Velocity S-wave (km/s) = 3.35940 3.94656 3.66476
# Velocity P-wave (km/s) = 5.95322 7.06199 6.53118
#
# Compressibility (1/GPa) = 0.01869040
#
# Stress axis : x y z
#
# Youngs Moduli (GPa) = 44.48860 127.87785 60.43331
#
# Poissons Ratio (x) = 0.02385 0.54139
# Poissons Ratio (y) = 0.00830 0.29807
# Poissons Ratio (z) = 0.39855 0.63072
#
# Static dielectric constant tensor:
#      x y z
#    x 2.237750 0.000000 0.015400 
#    y 0.000000 2.262050 0.000000 
#    z 0.015400 0.000000 2.093900 
# 
# From -- ./inp_files/86952.got.cif
#   From: 2010.05.17/outbox.cif.g08.bks.cpg/sg15_44_cif.got.tgz:86952.got - 2010.06.03 18:47:42.
