data_PCOD9271108
_publ_section_title
;
Structure prediction by ZEFSAII (Michael W. Deem and Ramdas Pophale) SiO2 
 PCOD9271108
Probable space group: C 2/C
;
_chemical_formula_sum "Si O2"
_cell_formula_units_Z 48
_cell_length_a 8.708240
_cell_length_b 24.696324
_cell_length_c 7.620565
_cell_angle_alpha 90.000000
_cell_angle_beta 99.178170
_cell_angle_gamma 90.000000
_cell_volume 1617.907732
_symmetry_space_group_name_H-M "C 2/C"
_symmetry_group_IT_number 15
_symmetry_cell_setting 'monoclinic'
loop_
_space_group_symop_operation_xyz
x,y,z
-x,y,1/2-z
-x,-y,-z
x,-y,1/2+z
1/2+x,1/2+y,z
1/2-x,1/2+y,1/2-z
1/2-x,1/2-y,-z
1/2+x,1/2-y,1/2+z
loop_
_atom_site_type_symbol
_atom_site_label
_atom_site_fract_x
_atom_site_fract_y
_atom_site_fract_z
Si Si1 0.749168 0.078227 0.156784
Si Si2 0.668759 0.465365 0.208533
Si Si3 0.323698 0.327118 0.195939
Si Si4 0.949037 0.438334 0.440726
Si Si5 0.022888 0.271447 0.996043
Si Si6 0.792190 0.812547 0.602489
O O1 0.569119 0.092125 0.085277
O O2 0.830937 0.133960 0.222026
O O3 0.818999 0.057509 0.983896
O O4 0.758351 0.026098 0.281307
O O5 0.500000 0.473919 0.250000
O O6 0.765441 0.430498 0.371998
O O7 0.500000 0.357240 0.250000
O O8 0.142440 0.317609 0.085708
O O9 0.280801 0.329507 0.395469
O O10 0.391107 0.277551 0.087859
O O11 0.000000 0.430634 0.250000
O O12 0.000000 0.500000 0.500000
O O13 0.876373 0.294854 0.860933
O O14 0.909264 0.237138 0.110575
#
# Coordination Sequence:
#
# PCOD9271108 Si02
#       6
#     8   8   8   8   8   8
#     4  10  21  38  61  87 118 159 202 242 299 360
#     4  10  20  36  57  84 118 155 200 253 295 343
#     4   9  18  34  57  84 116 153 190 238 296 356
#     4   8  16  31  52  74 104 143 186 233 281 336
#     4   9  19  35  56  85 119 149 193 249 292 352
#     4  10  20  36  61  87 115 159 201 242 302 365
#
# _framework density 29.667946000000001
#
# number of rings (size 3 to 8) (size 9 to 14) (size 15 to 20)
#    0.000    2.667    0.000    1.000    0.000    6.000 
#    0.000    6.667    0.000   58.000    0.000    0.000 
#    0.000    0.000    0.000    0.000    0.000    0.000 
#
# Total GULP energy -133667.145161 kJ/mol
# GULP energy per Si atom -5569.464382 kJ/mol
# Density = 2.960042 g / cm^3
# Si number density = 29.667946 Si / 1000 Ang^3
#
#
#
# Elastic Constant Matrix: (Units=GPa)
#
#
# Indices 1 2 3 4 5 6 
#
# 1 205.8070 -1.7962 38.8080 0.0000 18.9953 0.0000
# 2 -1.7962 125.4933 -13.3335 0.0000 6.5255 0.0000
# 3 38.8080 -13.3335 54.3957 0.0000 -7.3539 0.0000
# 4 0.0000 0.0000 0.0000 24.6054 0.0000 -3.3288
# 5 18.9953 6.5255 -7.3539 0.0000 54.7612 0.0000
# 6 0.0000 0.0000 0.0000 -3.3288 0.0000 8.4238
#
#
#
# Elastic Compliance Matrix: (Units=1/GPa)
#
#
# Indices 1 2 3 4 5 6 
#
# 1 0.005990 -0.000275 -0.004703 0.000000 -0.002677 0.000000
# 2 -0.000275 0.008222 0.002131 0.000000 -0.000598 0.000000
# 3 -0.004703 0.002131 0.022863 0.000000 0.004448 0.000000
# 4 0.000000 0.000000 0.000000 0.042937 0.000000 0.016967
# 5 -0.002677 -0.000598 0.004448 0.000000 0.019858 0.000000
# 6 0.000000 0.000000 0.000000 0.016967 0.000000 0.125416
#
#
# Mechanical properties :
#
#
# Convention : Reuss Voigt Hill
#
# Bulk Modulus (GPa) = 31.86669 48.11693 39.99181
# Shear Modulus (GPa) = 20.70900 41.69259 31.20079
#
# Velocity S-wave (km/s) = 2.64488 3.75281 3.24646
# Velocity P-wave (km/s) = 4.48237 5.91877 5.24993
#
# Compressibility (1/GPa) = 0.03138073
#
# Stress axis : x y z
#
# Youngs Moduli (GPa) = 166.93368 121.62337 43.73940
#
# Poissons Ratio (x) = 0.03342 0.20571
# Poissons Ratio (y) = 0.04587 -0.09319
# Poissons Ratio (z) = 0.78509 -0.25912
#
# Static dielectric constant tensor:
#      x y z
#    x 2.466510 0.000000 0.142280 
#    y 0.000000 2.695550 0.000000 
#    z 0.142280 0.000000 2.329810 
# 
# From -- ./inp_files/80280.got.cif
#   From: 2010.05.17/outbox.cif.g08.bks.cpg/sg15_41_cif.got.tgz:80280.got - 2010.06.03 18:47:42.
