data_PCOD9271194
_publ_section_title
;
Structure prediction by ZEFSAII (Michael W. Deem and Ramdas Pophale) SiO2 
 PCOD9271194
Probable space group: C 2/C
;
_chemical_formula_sum "Si O2"
_cell_formula_units_Z 64
_cell_length_a 8.889338
_cell_length_b 13.783214
_cell_length_c 27.922281
_cell_angle_alpha 90.000000
_cell_angle_beta 112.191073
_cell_angle_gamma 90.000000
_cell_volume 3167.734004
_symmetry_space_group_name_H-M "C 2/C"
_symmetry_group_IT_number 15
_symmetry_cell_setting 'monoclinic'
loop_
_space_group_symop_operation_xyz
x,y,z
-x,y,1/2-z
-x,-y,-z
x,-y,1/2+z
1/2+x,1/2+y,z
1/2-x,1/2+y,1/2-z
1/2-x,1/2-y,-z
1/2+x,1/2-y,1/2+z
loop_
_atom_site_type_symbol
_atom_site_label
_atom_site_fract_x
_atom_site_fract_y
_atom_site_fract_z
Si Si1 0.534258 0.286517 0.571277
Si Si2 0.327031 0.100050 0.709557
Si Si3 0.359077 0.740177 0.560792
Si Si4 0.933793 0.902991 0.468352
Si Si5 0.484927 0.098725 0.360813
Si Si6 0.685263 0.588419 0.162377
Si Si7 0.912999 0.396071 0.113140
Si Si8 0.829169 0.718199 0.258468
O O1 0.717556 0.247113 0.583225
O O2 0.448511 0.322304 0.512341
O O3 0.547621 0.376904 0.609480
O O4 0.453465 0.196738 0.586987
O O5 0.500000 0.059272 0.750000
O O6 0.376572 0.136160 0.662860
O O7 0.252972 0.183558 0.733239
O O8 0.191563 0.017297 0.686275
O O9 0.250000 0.750000 0.500000
O O10 0.464670 0.644214 0.563437
O O11 0.476964 0.829400 0.590059
O O12 0.756644 0.930961 0.429349
O O13 0.000000 0.000000 0.500000
O O14 0.649474 0.089296 0.349144
O O15 0.363125 0.150343 0.309099
O O16 0.460382 0.986254 0.372559
O O17 0.708997 0.665418 0.207320
O O18 0.000000 0.732525 0.250000
#
# Coordination Sequence:
#
# PCOD9271194 Si02
#       8
#     8   8   8   8   8   8   8   8
#     4  10  21  37  57  82 111 144 186 231 272 324
#     4  11  21  36  59  86 112 146 183 227 279 327
#     4   9  18  35  55  76 105 146 185 217 264 334
#     4  11  21  37  58  82 111 148 185 225 278 335
#     4   9  18  34  56  78 106 148 187 218 270 337
#     4   9  18  35  57  79 109 149 185 217 271 339
#     4  11  21  36  57  84 112 142 183 235 280 321
#     4  10  20  36  58  81 109 147 187 224 266 331
#
# _framework density 20.203717999999999
#
# number of rings (size 3 to 8) (size 9 to 14) (size 15 to 20)
#    0.000    2.000    0.000    6.750    0.000    0.000 
#    0.000   10.000    0.000    0.000    0.000    0.000 
#    0.000    0.000    0.000    0.000    0.000    0.000 
#
# Total GULP energy -178337.836150 kJ/mol
# GULP energy per Si atom -5573.057380 kJ/mol
# Density = 2.015773 g / cm^3
# Si number density = 20.203718 Si / 1000 Ang^3
#
#
#
# Elastic Constant Matrix: (Units=GPa)
#
#
# Indices 1 2 3 4 5 6 
#
# 1 19.2522 19.8178 13.5179 0.0000 -0.8436 0.0000
# 2 19.8178 97.6247 24.6515 0.0000 -21.4802 0.0000
# 3 13.5179 24.6515 99.1511 0.0000 -1.2005 0.0000
# 4 0.0000 0.0000 0.0000 48.7880 0.0000 -6.0943
# 5 -0.8436 -21.4802 -1.2005 0.0000 21.5690 0.0000
# 6 0.0000 0.0000 0.0000 -6.0943 0.0000 21.0840
#
#
#
# Elastic Compliance Matrix: (Units=1/GPa)
#
#
# Indices 1 2 3 4 5 6 
#
# 1 0.072146 -0.016116 -0.005993 0.000000 -0.013562 0.000000
# 2 -0.016116 0.017748 -0.002010 0.000000 0.016933 0.000000
# 3 -0.005993 -0.002010 0.011383 0.000000 -0.001603 0.000000
# 4 0.000000 0.000000 0.000000 0.021265 0.000000 0.006147
# 5 -0.013562 0.016933 -0.001603 0.000000 0.062606 0.000000
# 6 0.000000 0.000000 0.000000 0.006147 0.000000 0.049206
#
#
# Mechanical properties :
#
#
# Convention : Reuss Voigt Hill
#
# Bulk Modulus (GPa) = 18.85464 36.88915 27.87190
# Shear Modulus (GPa) = 16.65149 28.82426 22.73787
#
# Velocity S-wave (km/s) = 2.87397 3.78124 3.35838
# Velocity P-wave (km/s) = 4.51281 6.11244 5.37249
#
# Compressibility (1/GPa) = 0.05303734
#
# Stress axis : x y z
#
# Youngs Moduli (GPa) = 13.86080 56.34348 87.84892
#
# Poissons Ratio (x) = 0.90804 0.52652
# Poissons Ratio (y) = 0.22338 0.17661
# Poissons Ratio (z) = 0.08307 0.11327
#
# Static dielectric constant tensor:
#      x y z
#    x 1.735180 0.000000 0.008480 
#    y 0.000000 1.769900 0.000000 
#    z 0.008480 0.000000 1.749750 
# 
# From -- ./inp_files/288840.got.cif
#   From: 2010.05.17/outbox.cif.g08.bks.cpg/sg15_145_cif.got.tgz:288840.got - 2010.06.03 18:47:42.
