data_PCOD9271010
_publ_section_title
;
Structure prediction by ZEFSAII (Michael W. Deem and Ramdas Pophale) SiO2 
 PCOD9271010
Probable space group: C 2/C
;
_chemical_formula_sum "Si O2"
_cell_formula_units_Z 48
_cell_length_a 13.590154
_cell_length_b 26.279560
_cell_length_c 10.680160
_cell_angle_alpha 90.000000
_cell_angle_beta 39.522476
_cell_angle_gamma 90.000000
_cell_volume 2427.377593
_symmetry_space_group_name_H-M "C 2/C"
_symmetry_group_IT_number 15
_symmetry_cell_setting 'monoclinic'
loop_
_space_group_symop_operation_xyz
x,y,z
-x,y,1/2-z
-x,-y,-z
x,-y,1/2+z
1/2+x,1/2+y,z
1/2-x,1/2+y,1/2-z
1/2-x,1/2-y,-z
1/2+x,1/2-y,1/2+z
loop_
_atom_site_type_symbol
_atom_site_label
_atom_site_fract_x
_atom_site_fract_y
_atom_site_fract_z
Si Si1 0.252476 0.899519 0.175677
Si Si2 0.000000 0.064629 0.250000
Si Si3 0.500000 0.943546 0.750000
Si Si4 0.086242 0.095759 0.436361
Si Si5 0.250046 0.494186 0.140223
Si Si6 0.218571 0.309312 0.662961
Si Si7 0.147270 0.703043 0.945076
O O1 0.291205 0.844410 0.195162
O O2 0.069960 0.899337 0.328562
O O3 0.277807 0.947023 0.241749
O O4 0.371451 0.909715 0.945775
O O5 0.963110 0.096883 0.161473
O O6 0.853929 0.028623 0.425966
O O7 0.407214 0.980071 0.748774
O O8 0.153723 0.039582 0.391257
O O9 0.206734 0.139211 0.357433
O O10 0.227587 0.306149 0.502754
O O11 0.306551 0.260311 0.633000
O O12 0.036702 0.303063 0.867468
#
# Coordination Sequence:
#
# PCOD9271010 Si02
#       7
#     8   4   4   8   8   8   8
#     4  11  22  35  55  81 115 151 187 227 277 337
#     4  10  22  40  58  78 112 152 196 236 280 336
#     4  12  22  34  54  84 120 148 184 230 284 344
#     4  11  22  38  59  83 113 152 192 235 283 336
#     4  11  22  37  57  83 114 151 189 233 284 337
#     4  10  21  36  59  85 115 147 184 232 287 340
#     4  10  20  36  56  86 116 145 182 230 285 340
#
# _framework density 19.774426999999999
#
# number of rings (size 3 to 8) (size 9 to 14) (size 15 to 20)
#    0.000    1.333    0.000    8.500    0.000    4.667 
#    0.000    0.000    0.000   10.000    0.000    0.000 
#    0.000    0.000    0.000    0.000    0.000    0.000 
#
# Total GULP energy -134062.255721 kJ/mol
# GULP energy per Si atom -5585.927322 kJ/mol
# Density = 1.972942 g / cm^3
# Si number density = 19.774427 Si / 1000 Ang^3
#
#
#
# Elastic Constant Matrix: (Units=GPa)
#
#
# Indices 1 2 3 4 5 6 
#
# 1 69.0023 28.1091 38.3414 0.0000 -14.8193 0.0000
# 2 28.1091 146.4363 45.4903 0.0000 -4.4671 0.0000
# 3 38.3414 45.4903 83.5890 0.0000 -3.9460 0.0000
# 4 0.0000 0.0000 0.0000 33.3644 0.0000 -14.8972
# 5 -14.8193 -4.4671 -3.9460 0.0000 19.7622 0.0000
# 6 0.0000 0.0000 0.0000 -14.8972 0.0000 23.2858
#
#
#
# Elastic Compliance Matrix: (Units=1/GPa)
#
#
# Indices 1 2 3 4 5 6 
#
# 1 0.023528 -0.001105 -0.009459 0.000000 0.015505 0.000000
# 2 -0.001105 0.008289 -0.003992 0.000000 0.000248 0.000000
# 3 -0.009459 -0.003992 0.018269 0.000000 -0.004348 0.000000
# 4 0.000000 0.000000 0.000000 0.041957 0.000000 0.026842
# 5 0.015505 0.000248 -0.004348 0.000000 0.061416 0.000000
# 6 0.000000 0.000000 0.000000 0.026842 0.000000 0.060117
#
#
# Mechanical properties :
#
#
# Convention : Reuss Voigt Hill
#
# Bulk Modulus (GPa) = 47.67800 58.10104 52.88952
# Shear Modulus (GPa) = 20.02558 27.75493 23.89025
#
# Velocity S-wave (km/s) = 3.18575 3.75050 3.47960
# Velocity P-wave (km/s) = 6.13965 6.94267 6.55347
#
# Compressibility (1/GPa) = 0.02097403
#
# Stress axis : x y z
#
# Youngs Moduli (GPa) = 42.50232 120.64490 54.73624
#
# Poissons Ratio (x) = 0.13331 0.51774
# Poissons Ratio (y) = 0.04696 0.21853
# Poissons Ratio (z) = 0.40202 0.48165
#
# Static dielectric constant tensor:
#      x y z
#    x 1.703740 0.000000 0.013750 
#    y 0.000000 1.716880 0.000000 
#    z 0.013750 0.000000 1.726510 
# 
# From -- ./inp_files/101270.got.cif
#   From: 2010.05.17/outbox.cif.g08.bks.cpg/sg15_51_cif.got.tgz:101270.got - 2010.06.03 18:47:42.
