data_PCOD9271367
_publ_section_title
;
Structure prediction by ZEFSAII (Michael W. Deem and Ramdas Pophale) SiO2 
 PCOD9271367
Probable space group: C 2/C
;
_chemical_formula_sum "Si O2"
_cell_formula_units_Z 60
_cell_length_a 9.464201
_cell_length_b 31.493043
_cell_length_c 11.846769
_cell_angle_alpha 90.000000
_cell_angle_beta 91.234388
_cell_angle_gamma 90.000000
_cell_volume 3530.186949
_symmetry_space_group_name_H-M "C 2/C"
_symmetry_group_IT_number 15
_symmetry_cell_setting 'monoclinic'
loop_
_space_group_symop_operation_xyz
x,y,z
-x,y,1/2-z
-x,-y,-z
x,-y,1/2+z
1/2+x,1/2+y,z
1/2-x,1/2+y,1/2-z
1/2-x,1/2-y,-z
1/2+x,1/2-y,1/2+z
loop_
_atom_site_type_symbol
_atom_site_label
_atom_site_fract_x
_atom_site_fract_y
_atom_site_fract_z
Si Si1 0.940099 0.594307 0.445981
Si Si2 0.288560 0.145423 0.986675
Si Si3 0.000000 0.537745 0.250000
Si Si4 0.832776 0.888686 0.251216
Si Si5 0.491469 0.784928 0.381716
Si Si6 0.031135 0.185252 0.119135
Si Si7 0.253373 0.667684 0.966131
Si Si8 0.624522 0.954729 0.330976
O O1 0.099004 0.612726 0.457408
O O2 0.918781 0.568231 0.332743
O O3 0.836277 0.633668 0.463310
O O4 0.909019 0.561538 0.545949
O O5 0.224510 0.124945 0.871932
O O6 0.380866 0.185612 0.945774
O O7 0.164785 0.160525 0.068563
O O8 0.104311 0.505020 0.316343
O O9 0.787554 0.854943 0.347055
O O10 0.766454 0.933575 0.288291
O O11 0.000000 0.890566 0.250000
O O12 0.500000 0.798063 0.250000
O O13 0.445392 0.736073 0.384313
O O14 0.646339 0.793662 0.437818
O O15 0.000000 0.174038 0.250000
O O16 0.894827 0.177565 0.037164
O O17 0.500000 0.935646 0.250000
#
# Coordination Sequence:
#
# PCOD9271367 Si02
#       8
#     8   8   4   8   8   8   8   8
#     4  10  21  34  61  84 107 142 188 229 266 331
#     4  11  20  36  58  81 109 145 190 230 275 326
#     4  10  20  36  60  80 112 142 180 216 280 336
#     4  11  19  34  60  85 105 136 182 235 281 316
#     4  10  20  36  59  82 109 144 194 240 279 317
#     4  11  24  37  51  78 121 157 179 227 286 336
#     4  10  21  36  58  81 111 143 190 231 275 325
#     4   9  19  34  59  84 105 135 177 231 271 323
#
# _framework density 16.996267
#
# number of rings (size 3 to 8) (size 9 to 14) (size 15 to 20)
#    0.400    1.333    4.000    1.200    1.867    0.000 
#    0.000    0.000    2.933    2.400    0.000    0.000 
#    0.000    0.000    0.000    0.000    0.000    0.000 
#
# Total GULP energy -167224.024170 kJ/mol
# GULP energy per Si atom -5574.134139 kJ/mol
# Density = 1.695758 g / cm^3
# Si number density = 16.996267 Si / 1000 Ang^3
#
#
#
# Elastic Constant Matrix: (Units=GPa)
#
#
# Indices 1 2 3 4 5 6 
#
# 1 99.8422 24.1837 15.8477 0.0000 -12.0244 0.0000
# 2 24.1837 61.2473 27.2937 0.0000 -14.3086 0.0000
# 3 15.8477 27.2937 61.1358 0.0000 -19.2528 0.0000
# 4 0.0000 0.0000 0.0000 16.2519 0.0000 2.5949
# 5 -12.0244 -14.3086 -19.2528 0.0000 28.1598 0.0000
# 6 0.0000 0.0000 0.0000 2.5949 0.0000 6.1205
#
#
#
# Elastic Compliance Matrix: (Units=1/GPa)
#
#
# Indices 1 2 3 4 5 6 
#
# 1 0.011289 -0.003627 -0.000471 0.000000 0.002656 0.000000
# 2 -0.003627 0.022181 -0.007520 0.000000 0.004580 0.000000
# 3 -0.000471 -0.007520 0.023665 0.000000 0.012158 0.000000
# 4 0.000000 0.000000 0.000000 0.065999 0.000000 -0.027982
# 5 0.002656 0.004580 0.012158 0.000000 0.047285 0.000000
# 6 0.000000 0.000000 0.000000 -0.027982 0.000000 0.175250
#
#
# Mechanical properties :
#
#
# Convention : Reuss Voigt Hill
#
# Bulk Modulus (GPa) = 29.49938 39.65284 34.57611
# Shear Modulus (GPa) = 13.15085 20.43310 16.79197
#
# Velocity S-wave (km/s) = 2.78465 3.47105 3.14663
# Velocity P-wave (km/s) = 5.26622 6.28055 5.79562
#
# Compressibility (1/GPa) = 0.03389902
#
# Stress axis : x y z
#
# Youngs Moduli (GPa) = 88.58225 45.08439 42.25683
#
# Poissons Ratio (x) = 0.16354 0.01989
# Poissons Ratio (y) = 0.32132 0.31776
# Poissons Ratio (z) = 0.04169 0.33902
#
# Static dielectric constant tensor:
#      x y z
#    x 1.470190 0.000000 0.138350 
#    y 0.000000 1.559610 0.000000 
#    z 0.138350 0.000000 1.347450 
# 
# From -- ./inp_files/82216.got.cif
#   From: 2010.05.17/outbox.cif.g08.bks.cpg/sg15_42_cif.got.tgz:82216.got - 2010.06.03 18:47:42.
