data_PCOD9271098
_publ_section_title
;
Structure prediction by ZEFSAII (Michael W. Deem and Ramdas Pophale) SiO2 
 PCOD9271098
Probable space group: C 2/C
;
_chemical_formula_sum "Si O2"
_cell_formula_units_Z 60
_cell_length_a 20.203352
_cell_length_b 30.820548
_cell_length_c 14.131703
_cell_angle_alpha 90.000000
_cell_angle_beta 161.445398
_cell_angle_gamma 90.000000
_cell_volume 2800.075384
_symmetry_space_group_name_H-M "C 2/C"
_symmetry_group_IT_number 15
_symmetry_cell_setting 'monoclinic'
loop_
_space_group_symop_operation_xyz
x,y,z
-x,y,1/2-z
-x,-y,-z
x,-y,1/2+z
1/2+x,1/2+y,z
1/2-x,1/2+y,1/2-z
1/2-x,1/2-y,-z
1/2+x,1/2-y,1/2+z
loop_
_atom_site_type_symbol
_atom_site_label
_atom_site_fract_x
_atom_site_fract_y
_atom_site_fract_z
Si Si1 0.169096 0.113850 0.793078
Si Si2 0.574527 0.298910 0.088957
Si Si3 0.466980 0.800155 0.478928
Si Si4 0.445590 0.958917 0.360390
Si Si5 0.377758 0.537137 0.389554
Si Si6 0.547621 0.111007 0.156348
Si Si7 0.000000 0.993446 0.750000
Si Si8 0.304046 0.699926 0.055164
O O1 0.112624 0.164746 0.719142
O O2 0.978628 0.083588 0.507873
O O3 0.344903 0.110275 0.949782
O O4 0.267719 0.096532 0.024304
O O5 0.769595 0.298390 0.281834
O O6 0.547396 0.249118 0.083780
O O7 0.379670 0.315121 0.760307
O O8 0.600774 0.839725 0.698905
O O9 0.389568 0.815323 0.269640
O O10 0.631574 0.961284 0.536707
O O11 0.491699 0.917633 0.489911
O O12 0.500000 0.000000 0.500000
O O13 0.205408 0.964375 0.004534
O O14 0.500000 0.500000 0.500000
O O15 0.426334 0.523197 0.563484
O O16 0.500000 0.695886 0.250000
O O17 0.250000 0.750000 0.000000
#
# Coordination Sequence:
#
# PCOD9271098 Si02
#       8
#     8   8   8   8   8   8   4   8
#     4  10  20  36  57  83 119 160 203 253 305 366
#     4   9  18  32  53  78 110 153 197 249 304 361
#     4   9  18  33  51  79 109 151 200 248 305 359
#     4  10  21  40  62  89 119 155 203 244 305 366
#     4  11  23  40  64  92 125 159 204 254 307 367
#     4  10  21  37  56  83 119 162 206 249 306 369
#     4  10  22  42  66  92 122 164 200 256 308 368
#     4   8  14  28  48  69  97 137 185 236 291 347
#
# _framework density 21.427994999999999
#
# number of rings (size 3 to 8) (size 9 to 14) (size 15 to 20)
#    0.000    2.400    0.000    3.200    0.000    3.200 
#    8.400    0.000    0.000    0.000    0.000    0.000 
#    0.000    0.000    0.000    0.000    0.000    0.000 
#
# Total GULP energy -167140.409753 kJ/mol
# GULP energy per Si atom -5571.346992 kJ/mol
# Density = 2.137922 g / cm^3
# Si number density = 21.427995 Si / 1000 Ang^3
#
#
#
# Elastic Constant Matrix: (Units=GPa)
#
#
# Indices 1 2 3 4 5 6 
#
# 1 36.1797 12.6351 15.3263 -0.0002 -0.2745 -0.0001
# 2 12.6351 100.0319 27.1335 0.0000 10.5798 0.0000
# 3 15.3263 27.1335 98.6466 0.0004 16.8629 0.0000
# 4 -0.0002 0.0000 0.0004 31.0127 0.0000 -4.0549
# 5 -0.2745 10.5798 16.8629 0.0000 18.0640 -0.0001
# 6 -0.0001 0.0000 0.0000 -4.0549 -0.0001 33.9951
#
#
#
# Elastic Compliance Matrix: (Units=1/GPa)
#
#
# Indices 1 2 3 4 5 6 
#
# 1 0.031022 -0.003284 -0.005147 0.000000 0.007200 0.000000
# 2 -0.003284 0.011429 -0.001762 0.000000 -0.005099 0.000000
# 3 -0.005147 -0.001762 0.013396 0.000000 -0.011552 0.000000
# 4 0.000000 0.000000 0.000000 0.032756 0.000000 0.003907
# 5 0.007200 -0.005099 -0.011552 0.000000 0.069238 0.000000
# 6 0.000000 0.000000 0.000000 0.003907 0.000000 0.029882
#
#
# Mechanical properties :
#
#
# Convention : Reuss Voigt Hill
#
# Bulk Modulus (GPa) = 28.19976 38.33865 33.26920
# Shear Modulus (GPa) = 22.73470 28.59858 25.66664
#
# Velocity S-wave (km/s) = 3.26080 3.65723 3.46469
# Velocity P-wave (km/s) = 5.23125 5.98034 5.61829
#
# Compressibility (1/GPa) = 0.03546130
#
# Stress axis : x y z
#
# Youngs Moduli (GPa) = 32.23559 87.49877 74.64825
#
# Poissons Ratio (x) = 0.28732 0.38423
# Poissons Ratio (y) = 0.10585 0.13151
# Poissons Ratio (z) = 0.16592 0.15415
#
# Static dielectric constant tensor:
#      x y z
#    x 1.836690 0.000000 0.011360 
#    y 0.000000 1.749140 0.000000 
#    z 0.011360 0.000000 1.839860 
# 
# From -- ./inp_files/169982.got.cif
#   From: 2010.05.17/outbox.cif.g08.bks.cpg/sg15_85_cif.got.tgz:169982.got - 2010.06.03 18:47:42.
