data_PCOD9271341
_publ_section_title
;
Structure prediction by ZEFSAII (Michael W. Deem and Ramdas Pophale) SiO2 
 PCOD9271341
Probable space group: C 2/C
;
_chemical_formula_sum "Si O2"
_cell_formula_units_Z 32
_cell_length_a 22.177438
_cell_length_b 9.609474
_cell_length_c 5.559780
_cell_angle_alpha 90.000000
_cell_angle_beta 82.888422
_cell_angle_gamma 90.000000
_cell_volume 1175.749021
_symmetry_space_group_name_H-M "C 2/C"
_symmetry_group_IT_number 15
_symmetry_cell_setting 'monoclinic'
loop_
_space_group_symop_operation_xyz
x,y,z
-x,y,1/2-z
-x,-y,-z
x,-y,1/2+z
1/2+x,1/2+y,z
1/2-x,1/2+y,1/2-z
1/2-x,1/2-y,-z
1/2+x,1/2-y,1/2+z
loop_
_atom_site_type_symbol
_atom_site_label
_atom_site_fract_x
_atom_site_fract_y
_atom_site_fract_z
Si Si1 0.475499 0.343328 0.011640
Si Si2 0.115914 0.452496 0.260218
Si Si3 0.154544 0.826450 0.607483
Si Si4 0.267787 0.860914 0.789666
O O1 0.500000 0.276700 0.750000
O O2 0.403379 0.368823 0.018520
O O3 0.500000 0.279228 0.250000
O O4 0.500000 0.500000 0.000000
O O5 0.086812 0.524707 0.509017
O O6 0.126850 0.289546 0.304298
O O7 0.182334 0.523256 0.175247
O O8 0.203765 0.921233 0.719405
O O9 0.196081 0.734449 0.415019
O O10 0.250000 0.750000 0.000000
#
# Coordination Sequence:
#
# PCOD9271341 Si02
#       4
#     8   8   8   8
#     4  10  24  47  66  95 126 179 227 274 327 383
#     4  10  20  36  58  92 131 163 208 254 330 393
#     4  10  22  40  64  94 137 168 220 277 326 398
#     4  10  20  38  63 101 133 173 207 274 344 395
#
# _framework density 27.216695999999999
#
# number of rings (size 3 to 8) (size 9 to 14) (size 15 to 20)
#    0.000    2.000    2.500    0.000    3.500    0.000 
#   27.000    0.000    0.000   18.000    0.000    0.000 
#    0.000    0.000    0.000    0.000    0.000    0.000 
#
# Total GULP energy -89388.633656 kJ/mol
# GULP energy per Si atom -5586.789603 kJ/mol
# Density = 2.715475 g / cm^3
# Si number density = 27.216696 Si / 1000 Ang^3
#
#
#
# Elastic Constant Matrix: (Units=GPa)
#
#
# Indices 1 2 3 4 5 6 
#
# 1 194.5083 18.0011 35.7447 0.0000 33.4427 0.0000
# 2 18.0011 45.9806 -2.0219 0.0000 11.7733 0.0000
# 3 35.7447 -2.0219 182.1493 0.0000 16.7203 0.0000
# 4 0.0000 0.0000 0.0000 38.8063 0.0000 7.6284
# 5 33.4427 11.7733 16.7203 0.0000 39.8542 0.0000
# 6 0.0000 0.0000 0.0000 7.6284 0.0000 31.6764
#
#
#
# Elastic Compliance Matrix: (Units=1/GPa)
#
#
# Indices 1 2 3 4 5 6 
#
# 1 0.006179 -0.001315 -0.000818 0.000000 -0.004453 0.000000
# 2 -0.001315 0.023962 0.001115 0.000000 -0.006443 0.000000
# 3 -0.000818 0.001115 0.005856 0.000000 -0.002099 0.000000
# 4 0.000000 0.000000 0.000000 0.027050 0.000000 -0.006514
# 5 -0.004453 -0.006443 -0.002099 0.000000 0.031612 0.000000
# 6 0.000000 0.000000 0.000000 -0.006514 0.000000 0.033138
#
#
# Mechanical properties :
#
#
# Convention : Reuss Voigt Hill
#
# Bulk Modulus (GPa) = 29.44547 58.45402 43.94974
# Shear Modulus (GPa) = 35.42277 46.79499 41.10888
#
# Velocity S-wave (km/s) = 3.61156 4.15100 3.89064
# Velocity P-wave (km/s) = 5.31352 6.67071 6.03042
#
# Compressibility (1/GPa) = 0.03396108
#
# Stress axis : x y z
#
# Youngs Moduli (GPa) = 161.84158 41.73301 170.77379
#
# Poissons Ratio (x) = 0.05487 0.13975
# Poissons Ratio (y) = 0.21278 -0.19049
# Poissons Ratio (z) = 0.13244 -0.04655
#
# Static dielectric constant tensor:
#      x y z
#    x 2.260490 0.000000 0.191340 
#    y 0.000000 2.112610 0.000000 
#    z 0.191340 0.000000 2.371150 
# 
# From -- ./inp_files/12414.got.cif
#   From: 2010.05.17/outbox.cif.g08.bks.cpg/sg15_7_cif.got.tgz:12414.got - 2010.06.03 18:47:42.
