data_PCOD9271844
_publ_section_title
;
Structure prediction by ZEFSAII (Michael W. Deem and Ramdas Pophale) SiO2 
 PCOD9271844
Probable space group: C 2/C
;
_chemical_formula_sum "Si O2"
_cell_formula_units_Z 44
_cell_length_a 9.408188
_cell_length_b 21.951300
_cell_length_c 14.964078
_cell_angle_alpha 90.000000
_cell_angle_beta 38.152976
_cell_angle_gamma 90.000000
_cell_volume 1909.142038
_symmetry_space_group_name_H-M "C 2/C"
_symmetry_group_IT_number 15
_symmetry_cell_setting 'monoclinic'
loop_
_space_group_symop_operation_xyz
x,y,z
-x,y,1/2-z
-x,-y,-z
x,-y,1/2+z
1/2+x,1/2+y,z
1/2-x,1/2+y,1/2-z
1/2-x,1/2-y,-z
1/2+x,1/2-y,1/2+z
loop_
_atom_site_type_symbol
_atom_site_label
_atom_site_fract_x
_atom_site_fract_y
_atom_site_fract_z
Si Si1 0.250000 0.250000 0.500000
Si Si2 0.975314 0.129236 0.654904
Si Si3 0.112581 0.190556 0.096385
Si Si4 0.484409 0.916334 0.414216
Si Si5 0.621751 0.170305 0.277718
Si Si6 0.093047 0.552739 0.069095
O O1 0.437487 0.304894 0.416969
O O2 0.450817 0.199144 0.435085
O O3 0.713903 0.113960 0.760644
O O4 0.000000 0.128938 0.750000
O O5 0.154550 0.078415 0.532960
O O6 0.000000 0.195497 0.250000
O O7 0.885108 0.185335 0.148638
O O8 0.250000 0.250000 0.000000
O O9 0.275031 0.131153 0.013154
O O10 0.543209 0.934084 0.488402
O O11 0.430431 0.982010 0.398669
O O12 0.500000 0.200155 0.250000
O O13 0.587492 0.098311 0.295604
#
# Coordination Sequence:
#
# PCOD9271844 Si02
#       6
#     4   8   8   8   8   8
#     4  10  20  36  62  82 124 172 222 260 316 418
#     4   9  18  32  56  90 116 157 217 267 324 387
#     4  12  27  45  70 104 144 183 231 291 352 415
#     4  10  20  39  65  95 128 174 225 291 339 411
#     4  11  24  41  65  96 136 180 228 279 353 416
#     4   9  20  37  66  94 126 173 231 282 339 414
#
# _framework density 23.047003
#
# number of rings (size 3 to 8) (size 9 to 14) (size 15 to 20)
#    0.000    1.818    1.818    1.636    5.091    0.727 
#    0.000    1.818    0.000    0.000    0.000    0.000 
#    0.000    0.000    0.000    0.000    0.000    0.000 
#
# Total GULP energy -122532.430421 kJ/mol
# GULP energy per Si atom -5569.655928 kJ/mol
# Density = 2.299455 g / cm^3
# Si number density = 23.047003 Si / 1000 Ang^3
#
#
#
# Elastic Constant Matrix: (Units=GPa)
#
#
# Indices 1 2 3 4 5 6 
#
# 1 57.3682 38.9343 52.2754 0.0000 -26.3769 -0.0001
# 2 38.9343 244.7845 105.7601 0.0001 -38.7003 -0.0002
# 3 52.2754 105.7601 155.7426 0.0018 -53.9069 -0.0009
# 4 0.0000 0.0001 0.0018 35.5017 -0.0001 -1.9503
# 5 -26.3769 -38.7003 -53.9069 -0.0001 42.5859 0.0004
# 6 -0.0001 -0.0002 -0.0009 -1.9503 0.0004 15.5127
#
#
#
# Elastic Compliance Matrix: (Units=1/GPa)
#
#
# Indices 1 2 3 4 5 6 
#
# 1 0.027091 -0.000425 -0.005571 0.000000 0.009341 0.000000
# 2 -0.000425 0.005794 -0.003667 0.000000 0.000360 0.000000
# 3 -0.005571 -0.003667 0.015010 -0.000001 0.012216 0.000000
# 4 0.000000 0.000000 -0.000001 0.028364 0.000000 0.003566
# 5 0.009341 0.000360 0.012216 0.000000 0.045059 0.000000
# 6 0.000000 0.000000 0.000000 0.003566 0.000000 0.064912
#
#
# Mechanical properties :
#
#
# Convention : Reuss Voigt Hill
#
# Bulk Modulus (GPa) = 35.00478 94.64832 64.82655
# Shear Modulus (GPa) = 23.24718 36.11510 29.68114
#
# Velocity S-wave (km/s) = 3.17943 3.96285 3.59256
# Velocity P-wave (km/s) = 5.35721 7.88008 6.73778
#
# Compressibility (1/GPa) = 0.02856753
#
# Stress axis : x y z
#
# Youngs Moduli (GPa) = 36.91204 172.58397 66.62312
#
# Poissons Ratio (x) = 0.07336 0.37119
# Poissons Ratio (y) = 0.01569 0.24434
# Poissons Ratio (z) = 0.20565 0.63295
#
# Static dielectric constant tensor:
#      x y z
#    x 1.995470 0.000000 0.093510 
#    y 0.000000 1.869970 0.000000 
#    z 0.093510 0.000000 1.902000 
# 
# From -- ./inp_files/240178.got.cif
#   From: 2010.05.17/outbox.cif.g08.bks.cpg/sg15_121_cif.got.tgz:240178.got - 2010.06.03 18:47:42.
