data_PCOD9271143
_publ_section_title
;
Structure prediction by ZEFSAII (Michael W. Deem and Ramdas Pophale) SiO2 
 PCOD9271143
Probable space group: C 2/C
;
_chemical_formula_sum "Si O2"
_cell_formula_units_Z 64
_cell_length_a 25.335095
_cell_length_b 11.965658
_cell_length_c 9.032645
_cell_angle_alpha 90.000000
_cell_angle_beta 71.939809
_cell_angle_gamma 90.000000
_cell_volume 2603.345951
_symmetry_space_group_name_H-M "C 2/C"
_symmetry_group_IT_number 15
_symmetry_cell_setting 'monoclinic'
loop_
_space_group_symop_operation_xyz
x,y,z
-x,y,1/2-z
-x,-y,-z
x,-y,1/2+z
1/2+x,1/2+y,z
1/2-x,1/2+y,1/2-z
1/2-x,1/2-y,-z
1/2+x,1/2-y,1/2+z
loop_
_atom_site_type_symbol
_atom_site_label
_atom_site_fract_x
_atom_site_fract_y
_atom_site_fract_z
Si Si1 0.395725 0.257681 0.703145
Si Si2 0.725383 0.955280 0.521691
Si Si3 0.941789 0.074841 0.374258
Si Si4 0.957811 0.477351 0.402335
Si Si5 0.855620 0.469491 0.150961
Si Si6 0.115032 0.094624 0.780098
Si Si7 0.938678 0.267157 0.848744
Si Si8 0.703729 0.423246 0.771802
O O1 0.424983 0.305688 0.821340
O O2 0.389102 0.125848 0.707589
O O3 0.428784 0.278845 0.522415
O O4 0.338494 0.325873 0.735702
O O5 0.683976 0.982940 0.690643
O O6 0.752288 0.056427 0.400618
O O7 0.684475 0.905449 0.432485
O O8 0.773456 0.900595 0.581578
O O9 0.932644 0.077538 0.555599
O O10 0.000000 0.047381 0.250000
O O11 0.898917 0.986015 0.344165
O O12 0.898592 0.447399 0.531016
O O13 0.940638 0.598602 0.349045
O O14 0.000000 0.418495 0.250000
O O15 0.000000 0.500000 0.500000
O O16 0.107645 0.217594 0.720736
O O17 0.171322 0.043959 0.799637
O O18 0.000000 0.229376 0.750000
#
# Coordination Sequence:
#
# PCOD9271143 Si02
#       8
#     8   8   8   8   8   8   8   8
#     4  10  21  38  57  85 122 149 201 250 293 359
#     4  10  21  39  61  80 113 152 199 243 301 360
#     4  11  21  34  56  86 123 166 195 236 294 354
#     4  10  21  40  65  89 120 156 196 245 300 353
#     4  10  22  40  60  86 114 151 194 249 297 353
#     4  11  20  35  58  85 125 159 199 240 287 360
#     4  10  20  36  57  87 122 159 199 242 292 356
#     4  10  20  36  58  86 113 157 194 240 304 350
#
# _framework density 24.583746999999999
#
# number of rings (size 3 to 8) (size 9 to 14) (size 15 to 20)
#    0.000    1.750    0.000    6.000    0.000    1.000 
#    0.000   18.750    0.000    0.000    0.000    0.000 
#    0.000    0.000    0.000    0.000    0.000    0.000 
#
# Total GULP energy -178577.210336 kJ/mol
# GULP energy per Si atom -5580.537823 kJ/mol
# Density = 2.452779 g / cm^3
# Si number density = 24.583747 Si / 1000 Ang^3
#
#
#
# Elastic Constant Matrix: (Units=GPa)
#
#
# Indices 1 2 3 4 5 6 
#
# 1 79.2162 6.9853 9.5490 0.0000 -8.3736 0.0000
# 2 6.9853 58.1384 10.9419 0.0000 -3.2984 0.0000
# 3 9.5490 10.9419 135.4837 0.0000 -20.3544 0.0000
# 4 0.0000 0.0000 0.0000 26.1817 0.0000 -1.7241
# 5 -8.3736 -3.2984 -20.3544 0.0000 52.4054 0.0000
# 6 0.0000 0.0000 0.0000 -1.7241 0.0000 7.1789
#
#
#
# Elastic Compliance Matrix: (Units=1/GPa)
#
#
# Indices 1 2 3 4 5 6 
#
# 1 0.012997 -0.001359 -0.000539 0.000000 0.001782 0.000000
# 2 -0.001359 0.017625 -0.001268 0.000000 0.000400 0.000000
# 3 -0.000539 -0.001268 0.007961 0.000000 0.002926 0.000000
# 4 0.000000 0.000000 0.000000 0.038808 0.000000 0.009320
# 5 0.001782 0.000400 0.002926 0.000000 0.020528 0.000000
# 6 0.000000 0.000000 0.000000 0.009320 0.000000 0.141536
#
#
# Mechanical properties :
#
#
# Convention : Reuss Voigt Hill
#
# Bulk Modulus (GPa) = 31.00566 36.42119 33.71343
# Shear Modulus (GPa) = 19.49038 33.51068 26.50053
#
# Velocity S-wave (km/s) = 2.81875 3.69606 3.28681
# Velocity P-wave (km/s) = 4.82011 5.74993 5.30543
#
# Compressibility (1/GPa) = 0.03225217
#
# Stress axis : x y z
#
# Youngs Moduli (GPa) = 76.94198 56.73801 125.61383
#
# Poissons Ratio (x) = 0.07711 0.06765
# Poissons Ratio (y) = 0.10457 0.15922
# Poissons Ratio (z) = 0.04144 0.07192
#
# Static dielectric constant tensor:
#      x y z
#    x 2.084620 0.000000 -0.009430 
#    y 0.000000 1.993420 0.000000 
#    z -0.009430 0.000000 1.959040 
# 
# From -- ./inp_files/66184.got.cif
#   From: 2010.05.17/outbox.cif.g08.bks.cpg/sg15_34_cif.got.tgz:66184.got - 2010.06.03 18:47:42.
