data_PCOD9271577
_publ_section_title
;
Structure prediction by ZEFSAII (Michael W. Deem and Ramdas Pophale) SiO2 
 PCOD9271577
Probable space group: C 2/C
;
_chemical_formula_sum "Si O2"
_cell_formula_units_Z 56
_cell_length_a 16.008247
_cell_length_b 11.964037
_cell_length_c 13.693951
_cell_angle_alpha 90.000000
_cell_angle_beta 73.649211
_cell_angle_gamma 90.000000
_cell_volume 2516.637561
_symmetry_space_group_name_H-M "C 2/C"
_symmetry_group_IT_number 15
_symmetry_cell_setting 'monoclinic'
loop_
_space_group_symop_operation_xyz
x,y,z
-x,y,1/2-z
-x,-y,-z
x,-y,1/2+z
1/2+x,1/2+y,z
1/2-x,1/2+y,1/2-z
1/2-x,1/2-y,-z
1/2+x,1/2-y,1/2+z
loop_
_atom_site_type_symbol
_atom_site_label
_atom_site_fract_x
_atom_site_fract_y
_atom_site_fract_z
Si Si1 0.402210 0.392326 0.241022
Si Si2 0.439122 0.922722 0.904611
Si Si3 0.625616 0.997355 0.873518
Si Si4 0.655215 0.702894 0.557340
Si Si5 0.809389 0.421414 0.349545
Si Si6 0.337960 0.589009 0.132691
Si Si7 0.279255 0.217015 0.173024
O O1 0.500000 0.377329 0.250000
O O2 0.343552 0.389203 0.358457
O O3 0.393718 0.507876 0.183747
O O4 0.357884 0.295928 0.187808
O O5 0.540910 0.936064 0.856862
O O6 0.399502 0.806781 0.881831
O O7 0.393559 0.030632 0.873469
O O8 0.411134 0.928116 0.027533
O O9 0.685343 0.894969 0.888386
O O10 0.673454 0.064112 0.772564
O O11 0.750000 0.750000 0.500000
O O12 0.615442 0.654233 0.470295
O O13 0.731544 0.507209 0.397444
O O14 0.779633 0.295963 0.374599
O O15 0.280155 0.672331 0.217773
#
# Coordination Sequence:
#
# PCOD9271577 Si02
#       7
#     8   8   8   8   8   8   8
#     4  11  24  41  63  92 129 165 205 263 321 369
#     4  11  22  37  61  90 117 164 205 261 306 372
#     4  10  22  37  58  88 127 153 207 263 314 366
#     4  12  21  39  68  93 117 166 220 248 309 384
#     4  10  20  36  60  86 119 157 208 255 311 365
#     4  10  22  37  61  94 119 165 208 261 304 374
#     4  10  20  37  60  87 123 164 203 256 308 372
#
# _framework density 22.251913999999999
#
# number of rings (size 3 to 8) (size 9 to 14) (size 15 to 20)
#    0.000    1.429    2.857    3.000    4.000    1.143 
#    0.000    5.714    0.000    0.000    0.000    0.000 
#    0.000    0.000    0.000    0.000    0.000    0.000 
#
# Total GULP energy -156443.716697 kJ/mol
# GULP energy per Si atom -5587.275596 kJ/mol
# Density = 2.220127 g / cm^3
# Si number density = 22.251914 Si / 1000 Ang^3
#
#
#
# Elastic Constant Matrix: (Units=GPa)
#
#
# Indices 1 2 3 4 5 6 
#
# 1 56.9482 23.8048 2.3951 0.0000 -0.5390 0.0000
# 2 23.8048 87.4264 11.6474 0.0000 0.4682 0.0000
# 3 2.3951 11.6474 58.1453 0.0000 0.5732 0.0000
# 4 0.0000 0.0000 0.0000 21.6184 0.0000 7.4429
# 5 -0.5390 0.4682 0.5732 0.0000 19.7795 0.0000
# 6 0.0000 0.0000 0.0000 7.4429 0.0000 30.2436
#
#
#
# Elastic Compliance Matrix: (Units=1/GPa)
#
#
# Indices 1 2 3 4 5 6 
#
# 1 0.019828 -0.005438 0.000266 0.000000 0.000661 0.000000
# 2 -0.005438 0.013244 -0.002425 0.000000 -0.000391 0.000000
# 3 0.000266 -0.002425 0.017678 0.000000 -0.000448 0.000000
# 4 0.000000 0.000000 0.000000 0.050539 0.000000 -0.012438
# 5 0.000661 -0.000391 -0.000448 0.000000 0.050598 0.000000
# 6 0.000000 0.000000 0.000000 -0.012438 0.000000 0.036126
#
#
# Mechanical properties :
#
#
# Convention : Reuss Voigt Hill
#
# Bulk Modulus (GPa) = 28.12492 30.91271 29.51881
# Shear Modulus (GPa) = 23.24960 25.30649 24.27805
#
# Velocity S-wave (km/s) = 3.23590 3.37601 3.30669
# Velocity P-wave (km/s) = 5.16025 5.39619 5.27954
#
# Compressibility (1/GPa) = 0.03555566
#
# Stress axis : x y z
#
# Youngs Moduli (GPa) = 50.43384 75.50583 56.56898
#
# Poissons Ratio (x) = 0.41059 -0.01505
# Poissons Ratio (y) = 0.27425 0.13719
# Poissons Ratio (z) = -0.01342 0.18311
#
# Static dielectric constant tensor:
#      x y z
#    x 1.838820 0.000000 0.029960 
#    y 0.000000 1.821990 0.000000 
#    z 0.029960 0.000000 1.846600 
# 
# From -- ./inp_files/160841.got.cif
#   From: 2010.05.17/outbox.cif.g08.bks.cpg/sg15_81_cif.got.tgz:160841.got - 2010.06.03 18:47:42.
