data_PCOD9271754
_publ_section_title
;
Structure prediction by ZEFSAII (Michael W. Deem and Ramdas Pophale) SiO2 
 PCOD9271754
Probable space group: C 2/C
;
_chemical_formula_sum "Si O2"
_cell_formula_units_Z 24
_cell_length_a 9.587166
_cell_length_b 16.785361
_cell_length_c 8.013190
_cell_angle_alpha 90.000000
_cell_angle_beta 142.668191
_cell_angle_gamma 90.000000
_cell_volume 782.000448
_symmetry_space_group_name_H-M "C 2/C"
_symmetry_group_IT_number 15
_symmetry_cell_setting 'monoclinic'
loop_
_space_group_symop_operation_xyz
x,y,z
-x,y,1/2-z
-x,-y,-z
x,-y,1/2+z
1/2+x,1/2+y,z
1/2-x,1/2+y,1/2-z
1/2-x,1/2-y,-z
1/2+x,1/2-y,1/2+z
loop_
_atom_site_type_symbol
_atom_site_label
_atom_site_fract_x
_atom_site_fract_y
_atom_site_fract_z
Si Si1 0.390617 0.583501 0.466978
Si Si2 0.884800 0.434655 0.325249
Si Si3 0.362400 0.243045 0.822454
O O1 0.500000 0.565918 0.750000
O O2 0.142139 0.539424 0.182060
O O3 0.595581 0.564132 0.531487
O O4 0.346786 0.678250 0.422231
O O5 0.871798 0.346623 0.401945
O O6 0.000000 0.424031 0.250000
O O7 0.119097 0.246911 0.498929
#
# Coordination Sequence:
#
# PCOD9271754 Si02
#       3
#     8   8   8
#     4  10  22  38  61  93 122 156 205 258 306 361
#     4  10  20  38  58  86 127 162 197 248 314 367
#     4  10  20  36  61  88 122 160 198 249 307 363
#
# _framework density 30.690518999999998
#
# number of rings (size 3 to 8) (size 9 to 14) (size 15 to 20)
#    0.000    2.000    3.333    0.000    0.000    6.667 
#    0.000    0.000    0.000   18.000    0.000    0.000 
#    0.000    0.000    0.000    0.000    0.000    0.000 
#
# Total GULP energy -66966.525085 kJ/mol
# GULP energy per Si atom -5580.543757 kJ/mol
# Density = 3.062067 g / cm^3
# Si number density = 30.690519 Si / 1000 Ang^3
#
#
#
# Elastic Constant Matrix: (Units=GPa)
#
#
# Indices 1 2 3 4 5 6 
#
# 1 158.8315 57.1911 81.7680 0.0001 8.5097 0.0000
# 2 57.1911 348.0411 169.0121 0.0000 -2.3819 0.0000
# 3 81.7680 169.0121 311.9193 0.0002 6.9106 -0.0001
# 4 0.0001 0.0000 0.0002 15.0144 0.0001 175.1928
# 5 8.5097 -2.3819 6.9106 0.0001 71.5051 0.0000
# 6 0.0000 0.0000 -0.0001 175.1928 0.0000 -260.2463
#
#
#
# Elastic Compliance Matrix: (Units=1/GPa)
#
#
# Indices 1 2 3 4 5 6 
#
# 1 0.007350 -0.000387 -0.001701 0.000000 -0.000723 0.000000
# 2 -0.000387 0.003928 -0.002035 0.000000 0.000374 0.000000
# 3 -0.001701 -0.002035 0.004762 0.000000 -0.000326 0.000000
# 4 0.000000 0.000000 0.000000 0.007522 0.000000 0.005063
# 5 -0.000723 0.000374 -0.000326 0.000000 0.014115 0.000000
# 6 0.000000 0.000000 0.000000 0.005063 0.000000 -0.000434
#
#
# Mechanical properties :
#
#
# Convention : Reuss Voigt Hill
#
# Bulk Modulus (GPa) = 128.31334 159.41492 143.86413
# Shear Modulus (GPa) = 103.98213 -0.69066 51.64573
#
# Velocity S-wave (km/s) = 5.82704 -0.47490 4.10663
# Velocity P-wave (km/s) = 9.33660 7.19408 8.33447
#
# Compressibility (1/GPa) = 0.00779342
#
# Stress axis : x y z
#
# Youngs Moduli (GPa) = 136.05969 254.61184 210.00333
#
# Poissons Ratio (x) = 0.09842 0.35726
# Poissons Ratio (y) = 0.05259 0.42737
# Poissons Ratio (z) = 0.23147 0.51815
#
# Static dielectric constant tensor:
#      x y z
#    x 2.228960 0.000000 0.077780 
#    y 0.000000 2.638420 0.000000 
#    z 0.077780 0.000000 2.394890 
# 
# From -- ./inp_files/3217.got.cif
#   From: 2010.05.17/outbox.cif.g08.bks.cpg/sg15_2_cif.got.tgz:3217.got - 2010.06.03 18:47:42.
