data_PCOD9271319
_publ_section_title
;
Structure prediction by ZEFSAII (Michael W. Deem and Ramdas Pophale) SiO2 
 PCOD9271319
Probable space group: C 2/C
;
_chemical_formula_sum "Si O2"
_cell_formula_units_Z 52
_cell_length_a 13.894221
_cell_length_b 16.855789
_cell_length_c 12.350008
_cell_angle_alpha 90.000000
_cell_angle_beta 66.396445
_cell_angle_gamma 90.000000
_cell_volume 2650.367950
_symmetry_space_group_name_H-M "C 2/C"
_symmetry_group_IT_number 15
_symmetry_cell_setting 'monoclinic'
loop_
_space_group_symop_operation_xyz
x,y,z
-x,y,1/2-z
-x,-y,-z
x,-y,1/2+z
1/2+x,1/2+y,z
1/2-x,1/2+y,1/2-z
1/2-x,1/2-y,-z
1/2+x,1/2-y,1/2+z
loop_
_atom_site_type_symbol
_atom_site_label
_atom_site_fract_x
_atom_site_fract_y
_atom_site_fract_z
Si Si1 0.471472 0.308413 0.534481
Si Si2 0.319427 0.406717 0.489967
Si Si3 0.500000 0.554086 0.750000
Si Si4 0.630158 0.445249 0.387307
Si Si5 0.415421 0.863079 0.980558
Si Si6 0.639517 0.095642 0.756238
Si Si7 0.000000 0.541245 0.250000
Si Si8 0.500000 0.231801 0.750000
O O1 0.360113 0.351484 0.568753
O O2 0.558815 0.371525 0.457337
O O3 0.455387 0.227172 0.474060
O O4 0.496361 0.283346 0.644603
O O5 0.405657 0.399260 0.354044
O O6 0.336262 0.495297 0.531334
O O7 0.204400 0.378785 0.505939
O O8 0.438272 0.512683 0.677736
O O9 0.736770 0.410772 0.289934
O O10 0.488578 0.907159 0.862177
O O11 0.415515 0.898232 0.101863
O O12 0.599697 0.172352 0.709131
O O13 0.598374 0.017298 0.716041
#
# Coordination Sequence:
#
# PCOD9271319 Si02
#       8
#     8   8   4   8   8   8   4   4
#     4  10  23  40  60  92 127 164 210 258 322 376
#     4  11  22  39  64  92 127 169 213 258 316 379
#     4  10  20  36  58  90 124 162 204 258 312 366
#     4  11  22  39  64  93 123 170 212 257 319 380
#     4  11  22  41  63  93 127 166 208 267 317 370
#     4  10  21  42  66  87 124 166 208 255 328 369
#     4  11  22  41  66  94 120 160 220 263 300 387
#     4   9  22  43  62  84 126 164 200 271 306 377
#
# _framework density 19.619917000000001
#
# number of rings (size 3 to 8) (size 9 to 14) (size 15 to 20)
#    0.000    1.538    3.077    2.769    0.000    5.538 
#    5.538    0.000    0.000    0.000    0.000    0.000 
#    0.000    0.000    0.000    0.000    0.000    0.000 
#
# Total GULP energy -144892.276292 kJ/mol
# GULP energy per Si atom -5572.779857 kJ/mol
# Density = 1.957526 g / cm^3
# Si number density = 19.619917 Si / 1000 Ang^3
#
#
#
# Elastic Constant Matrix: (Units=GPa)
#
#
# Indices 1 2 3 4 5 6 
#
# 1 92.9744 20.7682 20.9362 0.0000 16.4427 0.0000
# 2 20.7682 102.6964 39.1545 0.0000 14.1703 0.0000
# 3 20.9362 39.1545 73.1375 0.0000 12.7309 0.0000
# 4 0.0000 0.0000 0.0000 176.9285 0.0000 89.8311
# 5 16.4427 14.1703 12.7309 0.0000 31.3663 0.0000
# 6 0.0000 0.0000 0.0000 89.8311 0.0000 55.6327
#
#
#
# Elastic Compliance Matrix: (Units=1/GPa)
#
#
# Indices 1 2 3 4 5 6 
#
# 1 0.012367 -0.000980 -0.002113 0.000000 -0.005182 0.000000
# 2 -0.000980 0.012597 -0.005985 0.000000 -0.002748 0.000000
# 3 -0.002113 -0.005985 0.018097 0.000000 -0.003534 0.000000
# 4 0.000000 0.000000 0.000000 0.031371 0.000000 -0.050655
# 5 -0.005182 -0.002748 -0.003534 0.000000 0.037274 0.000000
# 6 0.000000 0.000000 0.000000 -0.050655 0.000000 0.099769
#
#
# Mechanical properties :
#
#
# Convention : Reuss Voigt Hill
#
# Bulk Modulus (GPa) = 40.15420 47.83623 43.99522
# Shear Modulus (GPa) = 21.01442 65.31545 43.16493
#
# Velocity S-wave (km/s) = 3.27628 5.77604 4.69556
# Velocity P-wave (km/s) = 5.90106 8.30168 7.20210
#
# Compressibility (1/GPa) = 0.02490399
#
# Stress axis : x y z
#
# Youngs Moduli (GPa) = 80.86038 79.38657 55.25811
#
# Poissons Ratio (x) = 0.07781 0.11678
# Poissons Ratio (y) = 0.07925 0.33071
# Poissons Ratio (z) = 0.17089 0.47511
#
# Static dielectric constant tensor:
#      x y z
#    x 1.721330 0.000000 0.003610 
#    y 0.000000 1.704080 0.000000 
#    z 0.003610 0.000000 1.713240 
# 
# From -- ./inp_files/96986.got.cif
#   From: 2010.05.17/outbox.cif.g08.bks.cpg/sg15_49_cif.got.tgz:96986.got - 2010.06.03 18:47:42.
