data_PCOD9271596
_publ_section_title
;
Structure prediction by ZEFSAII (Michael W. Deem and Ramdas Pophale) SiO2 
 PCOD9271596
Probable space group: C 2/C
;
_chemical_formula_sum "Si O2"
_cell_formula_units_Z 40
_cell_length_a 13.969892
_cell_length_b 10.998196
_cell_length_c 10.636747
_cell_angle_alpha 90.000000
_cell_angle_beta 76.697179
_cell_angle_gamma 90.000000
_cell_volume 1590.416783
_symmetry_space_group_name_H-M "C 2/C"
_symmetry_group_IT_number 15
_symmetry_cell_setting 'monoclinic'
loop_
_space_group_symop_operation_xyz
x,y,z
-x,y,1/2-z
-x,-y,-z
x,-y,1/2+z
1/2+x,1/2+y,z
1/2-x,1/2+y,1/2-z
1/2-x,1/2-y,-z
1/2+x,1/2-y,1/2+z
loop_
_atom_site_type_symbol
_atom_site_label
_atom_site_fract_x
_atom_site_fract_y
_atom_site_fract_z
Si Si1 0.282839 0.482737 0.492342
Si Si2 0.356717 0.853619 0.165488
Si Si3 0.953544 0.797994 0.430107
Si Si4 0.671774 0.709954 0.890996
Si Si5 0.865458 0.407317 0.767648
O O1 0.202112 0.427458 0.424374
O O2 0.381458 0.410927 0.432386
O O3 0.298107 0.628145 0.498389
O O4 0.241436 0.437214 0.640212
O O5 0.266676 0.798822 0.272548
O O6 0.405680 0.957669 0.235059
O O7 0.429347 0.760414 0.074699
O O8 0.918169 0.689208 0.345326
O O9 0.064793 0.846792 0.386449
O O10 0.637109 0.846188 0.869382
#
# Coordination Sequence:
#
# PCOD9271596 Si02
#       5
#     8   8   8   8   8
#     4  10  20  37  60  91 119 156 199 250 295 353
#     4  10  21  38  59  90 123 156 200 247 291 357
#     4  11  20  39  62  90 120 158 203 241 304 356
#     4  11  21  35  63  90 116 163 199 241 301 359
#     4  10  20  36  60  87 121 164 191 243 300 362
#
# _framework density 25.150641
#
# number of rings (size 3 to 8) (size 9 to 14) (size 15 to 20)
#    0.000    1.600    4.000    2.400    0.000    1.600 
#    0.000    0.000    0.000    0.000    0.000    0.000 
#    0.000    0.000    0.000    0.000    0.000    0.000 
#
# Total GULP energy -111373.115605 kJ/mol
# GULP energy per Si atom -5568.655780 kJ/mol
# Density = 2.509340 g / cm^3
# Si number density = 25.150641 Si / 1000 Ang^3
#
#
#
# Elastic Constant Matrix: (Units=GPa)
#
#
# Indices 1 2 3 4 5 6 
#
# 1 95.7362 -9.4467 29.8953 0.0000 -8.7532 0.0000
# 2 -9.4467 53.1457 19.4715 0.0000 -16.1795 0.0000
# 3 29.8953 19.4715 75.3970 0.0000 -21.0533 0.0000
# 4 0.0000 0.0000 0.0000 43.4255 0.0000 19.6005
# 5 -8.7532 -16.1795 -21.0533 0.0000 21.2208 0.0000
# 6 0.0000 0.0000 0.0000 19.6005 0.0000 1.0965
#
#
#
# Elastic Compliance Matrix: (Units=1/GPa)
#
#
# Indices 1 2 3 4 5 6 
#
# 1 0.013094 0.005629 -0.005448 0.000000 0.004287 0.000000
# 2 0.005629 0.027053 -0.003888 0.000000 0.019091 0.000000
# 3 -0.005448 -0.003888 0.020709 0.000000 0.015334 0.000000
# 4 0.000000 0.000000 0.000000 -0.003258 0.000000 0.058237
# 5 0.004287 0.019091 0.015334 0.000000 0.078661 0.000000
# 6 0.000000 0.000000 0.000000 0.058237 0.000000 -0.129025
#
#
# Mechanical properties :
#
#
# Convention : Reuss Voigt Hill
#
# Bulk Modulus (GPa) = 18.71172 33.79103 26.25137
# Shear Modulus (GPa) = 154.02041 25.43914 89.72977
#
# Velocity S-wave (km/s) = 7.83403 3.18381 5.97950
# Velocity P-wave (km/s) = 9.44910 5.19424 7.62449
#
# Compressibility (1/GPa) = 0.05344245
#
# Stress axis : x y z
#
# Youngs Moduli (GPa) = 76.36990 36.96427 48.28742
#
# Poissons Ratio (x) = -0.20807 0.26309
# Poissons Ratio (y) = -0.42988 0.18772
# Poissons Ratio (z) = 0.41610 0.14370
#
# Static dielectric constant tensor:
#      x y z
#    x 2.068860 0.000000 0.068290 
#    y 0.000000 2.023110 0.000000 
#    z 0.068290 0.000000 2.095150 
# 
# From -- ./inp_files/94887.got.cif
#   From: 2010.05.17/outbox.cif.g08.bks.cpg/sg15_48_cif.got.tgz:94887.got - 2010.06.03 18:47:42.
