data_PCOD9271587
_publ_section_title
;
Structure prediction by ZEFSAII (Michael W. Deem and Ramdas Pophale) SiO2 
 PCOD9271587
Probable space group: C 2/C
;
_chemical_formula_sum "Si O2"
_cell_formula_units_Z 64
_cell_length_a 17.635836
_cell_length_b 7.317551
_cell_length_c 30.251773
_cell_angle_alpha 90.000000
_cell_angle_beta 139.546311
_cell_angle_gamma 90.000000
_cell_volume 2533.061401
_symmetry_space_group_name_H-M "C 2/C"
_symmetry_group_IT_number 15
_symmetry_cell_setting 'monoclinic'
loop_
_space_group_symop_operation_xyz
x,y,z
-x,y,1/2-z
-x,-y,-z
x,-y,1/2+z
1/2+x,1/2+y,z
1/2-x,1/2+y,1/2-z
1/2-x,1/2-y,-z
1/2+x,1/2-y,1/2+z
loop_
_atom_site_type_symbol
_atom_site_label
_atom_site_fract_x
_atom_site_fract_y
_atom_site_fract_z
Si Si1 0.623693 0.006241 0.496760
Si Si2 0.617302 0.885138 0.894049
Si Si3 0.331039 0.376983 0.472358
Si Si4 0.134057 0.516459 0.238544
Si Si5 0.631873 0.855588 0.093257
Si Si6 0.486473 0.537283 0.619794
Si Si7 0.694414 0.554062 0.765278
Si Si8 0.846747 0.070859 0.881646
O O1 0.707281 0.830188 0.536577
O O2 0.491431 0.934210 0.445396
O O3 0.634800 0.087146 0.453914
O O4 0.641900 0.140433 0.545250
O O5 0.504372 0.996731 0.827016
O O6 0.588971 0.669525 0.882006
O O7 0.729169 0.975875 0.922075
O O8 0.407262 0.430426 0.549298
O O9 0.386897 0.367371 0.447838
O O10 0.201673 0.460483 0.224129
O O11 0.152074 0.736040 0.250973
O O12 0.209220 0.410950 0.309144
O O13 0.737669 0.979237 0.159117
O O14 0.637134 0.648795 0.112494
O O15 0.583681 0.446601 0.695452
O O16 0.573366 0.644888 0.623220
#
# Coordination Sequence:
#
# PCOD9271587 Si02
#       8
#     8   8   8   8   8   8   8   8
#     4  11  23  35  57  86 119 157 195 240 300 363
#     4  11  23  39  58  85 123 159 193 241 311 376
#     4  12  24  38  57  85 123 162 198 244 298 369
#     4   9  19  35  58  86 114 150 192 242 299 353
#     4  10  20  36  60  87 117 150 196 257 298 342
#     4  10  21  37  61  88 116 153 205 253 303 355
#     4   9  18  34  58  87 113 144 194 253 299 338
#     4  10  21  38  61  87 115 149 205 257 295 353
#
# _framework density 25.265871000000001
#
# number of rings (size 3 to 8) (size 9 to 14) (size 15 to 20)
#    0.000    1.750    2.500    1.875    3.500    1.500 
#    0.000    0.000    0.000    3.750    0.000    0.000 
#    0.000    0.000    0.000    0.000    0.000    0.000 
#
# Total GULP energy -178828.877770 kJ/mol
# GULP energy per Si atom -5588.402430 kJ/mol
# Density = 2.520836 g / cm^3
# Si number density = 25.265871 Si / 1000 Ang^3
#
#
#
# Elastic Constant Matrix: (Units=GPa)
#
#
# Indices 1 2 3 4 5 6 
#
# 1 50.0021 5.6023 22.9033 0.0001 6.7943 0.0000
# 2 5.6023 56.1198 15.1682 0.0002 15.0037 0.0001
# 3 22.9033 15.1682 125.4255 0.0000 7.9776 0.0000
# 4 0.0001 0.0002 0.0000 23.9238 0.0000 -1.5688
# 5 6.7943 15.0037 7.9776 0.0000 31.9437 0.0001
# 6 0.0000 0.0001 0.0000 -1.5688 0.0001 31.1727
#
#
#
# Elastic Compliance Matrix: (Units=1/GPa)
#
#
# Indices 1 2 3 4 5 6 
#
# 1 0.022267 -0.000208 -0.003806 0.000000 -0.003688 0.000000
# 2 -0.000208 0.020828 -0.001891 0.000000 -0.009266 0.000000
# 3 -0.003806 -0.001891 0.008931 0.000000 -0.000532 0.000000
# 4 0.000000 0.000000 0.000000 0.041938 0.000000 0.002111
# 5 -0.003688 -0.009266 -0.000532 0.000000 0.036575 0.000000
# 6 0.000000 0.000000 0.000000 0.002111 0.000000 0.032186
#
#
# Mechanical properties :
#
#
# Convention : Reuss Voigt Hill
#
# Bulk Modulus (GPa) = 24.86691 35.43279 30.14985
# Shear Modulus (GPa) = 26.60414 29.93294 28.26854
#
# Velocity S-wave (km/s) = 3.24847 3.44571 3.34854
# Velocity P-wave (km/s) = 4.89219 5.46671 5.18741
#
# Compressibility (1/GPa) = 0.04021409
#
# Stress axis : x y z
#
# Youngs Moduli (GPa) = 44.90939 48.01133 111.97561
#
# Poissons Ratio (x) = 0.00999 0.42622
# Poissons Ratio (y) = 0.00935 0.21180
# Poissons Ratio (z) = 0.17094 0.09081
#
# Static dielectric constant tensor:
#      x y z
#    x 1.946810 0.000000 0.068430 
#    y 0.000000 2.051530 0.000000 
#    z 0.068430 0.000000 2.105850 
# 
# From -- ./inp_files/315761.got.cif
#   From: 2010.05.17/outbox.cif.g08.bks.cpg/sg15_158_cif.got.tgz:315761.got - 2010.06.03 18:47:42.
