data_PCOD9271518
_publ_section_title
;
Structure prediction by ZEFSAII (Michael W. Deem and Ramdas Pophale) SiO2 
 PCOD9271518
Probable space group: C 2/C
;
_chemical_formula_sum "Si O2"
_cell_formula_units_Z 48
_cell_length_a 16.033137
_cell_length_b 17.363677
_cell_length_c 12.343377
_cell_angle_alpha 90.000000
_cell_angle_beta 147.134781
_cell_angle_gamma 90.000000
_cell_volume 1864.771999
_symmetry_space_group_name_H-M "C 2/C"
_symmetry_group_IT_number 15
_symmetry_cell_setting 'monoclinic'
loop_
_space_group_symop_operation_xyz
x,y,z
-x,y,1/2-z
-x,-y,-z
x,-y,1/2+z
1/2+x,1/2+y,z
1/2-x,1/2+y,1/2-z
1/2-x,1/2-y,-z
1/2+x,1/2-y,1/2+z
loop_
_atom_site_type_symbol
_atom_site_label
_atom_site_fract_x
_atom_site_fract_y
_atom_site_fract_z
Si Si1 0.796287 0.095560 0.832847
Si Si2 0.458342 0.353277 0.054647
Si Si3 0.700381 0.053633 0.323758
Si Si4 0.999166 0.693760 0.024234
Si Si5 0.500000 0.346934 0.750000
Si Si6 0.768250 0.322081 0.891083
Si Si7 0.000000 0.557145 0.750000
O O1 0.658033 0.157372 0.692517
O O2 0.735558 0.008398 0.767758
O O3 0.885652 0.111145 0.819197
O O4 0.911099 0.103921 0.061003
O O5 0.358120 0.402866 0.028110
O O6 0.477274 0.261575 0.087663
O O7 0.344360 0.353148 0.825503
O O8 0.615012 0.998600 0.313282
O O9 0.584132 0.121377 0.167768
O O10 0.108725 0.727223 0.047176
O O11 0.641877 0.302155 0.846116
O O12 0.884488 0.386518 0.060832
#
# Coordination Sequence:
#
# PCOD9271518 Si02
#       7
#     8   8   8   8   4   8   4
#     4  11  20  38  64  97 126 174 219 271 321 384
#     4  10  24  40  63  96 134 169 220 272 327 384
#     4  11  23  41  68  94 128 173 223 277 318 389
#     4  11  22  42  65  95 130 178 223 266 325 395
#     4  10  20  36  59  97 140 152 210 268 328 384
#     4  10  20  38  63  90 136 170 208 264 321 388
#     4  12  22  42  67 101 132 168 222 266 330 392
#
# _framework density 25.740413
#
# number of rings (size 3 to 8) (size 9 to 14) (size 15 to 20)
#    0.000    1.333    3.333    3.000    2.333    0.000 
#    0.000   22.500    0.000    1.000    0.000    0.000 
#    0.000    0.000    0.000    0.000    0.000    0.000 
#
# Total GULP energy -134093.832560 kJ/mol
# GULP energy per Si atom -5587.243023 kJ/mol
# Density = 2.568183 g / cm^3
# Si number density = 25.740413 Si / 1000 Ang^3
#
#
#
# Elastic Constant Matrix: (Units=GPa)
#
#
# Indices 1 2 3 4 5 6 
#
# 1 98.8489 23.0135 43.9696 0.0000 32.2787 0.0000
# 2 23.0135 149.1261 35.2517 0.0000 24.5117 0.0000
# 3 43.9696 35.2517 88.3632 0.0000 30.4092 0.0000
# 4 0.0000 0.0000 0.0000 36.0933 0.0000 59.8524
# 5 32.2787 24.5117 30.4092 0.0000 44.3007 0.0000
# 6 0.0000 0.0000 0.0000 59.8524 0.0000 -38.1703
#
#
#
# Elastic Compliance Matrix: (Units=1/GPa)
#
#
# Indices 1 2 3 4 5 6 
#
# 1 0.014647 0.000090 -0.004758 0.000000 -0.007455 0.000000
# 2 0.000090 0.007661 -0.002121 0.000000 -0.002849 0.000000
# 3 -0.004758 -0.002121 0.016934 0.000000 -0.006983 0.000000
# 4 0.000000 0.000000 0.000000 0.007696 0.000000 0.012067
# 5 -0.007455 -0.002849 -0.006983 0.000000 0.034375 0.000000
# 6 0.000000 0.000000 0.000000 0.012067 0.000000 -0.007277
#
#
# Mechanical properties :
#
#
# Convention : Reuss Voigt Hill
#
# Bulk Modulus (GPa) = 38.96555 60.08973 49.52764
# Shear Modulus (GPa) = 51.99176 24.05164 38.02170
#
# Velocity S-wave (km/s) = 4.49915 3.06010 3.84750
# Velocity P-wave (km/s) = 6.49312 5.99006 6.24665
#
# Compressibility (1/GPa) = 0.02566369
#
# Stress axis : x y z
#
# Youngs Moduli (GPa) = 68.27504 130.52356 59.05257
#
# Poissons Ratio (x) = -0.01174 0.28099
# Poissons Ratio (y) = -0.00614 0.12524
# Poissons Ratio (z) = 0.32488 0.27682
#
# Static dielectric constant tensor:
#      x y z
#    x 2.214470 0.000000 -0.003450 
#    y 0.000000 2.037670 0.000000 
#    z -0.003450 0.000000 2.021760 
# 
# From -- ./inp_files/48425.got.cif
#   From: 2010.05.17/outbox.cif.g08.bks.cpg/sg15_25_cif.got.tgz:48425.got - 2010.06.03 18:47:42.
