data_PCOD9271497
_publ_section_title
;
Structure prediction by ZEFSAII (Michael W. Deem and Ramdas Pophale) SiO2 
 PCOD9271497
Probable space group: C 2/C
;
_chemical_formula_sum "Si O2"
_cell_formula_units_Z 36
_cell_length_a 15.119229
_cell_length_b 22.102732
_cell_length_c 15.234476
_cell_angle_alpha 90.000000
_cell_angle_beta 160.933800
_cell_angle_gamma 90.000000
_cell_volume 1663.028182
_symmetry_space_group_name_H-M "C 2/C"
_symmetry_group_IT_number 15
_symmetry_cell_setting 'monoclinic'
loop_
_space_group_symop_operation_xyz
x,y,z
-x,y,1/2-z
-x,-y,-z
x,-y,1/2+z
1/2+x,1/2+y,z
1/2-x,1/2+y,1/2-z
1/2-x,1/2-y,-z
1/2+x,1/2-y,1/2+z
loop_
_atom_site_type_symbol
_atom_site_label
_atom_site_fract_x
_atom_site_fract_y
_atom_site_fract_z
Si Si1 0.945710 0.286670 0.302462
Si Si2 0.433316 0.130486 0.437472
Si Si3 0.000000 0.897813 0.250000
Si Si4 0.378512 0.791614 0.538645
Si Si5 0.040108 0.939397 0.093496
O O1 0.000000 0.291327 0.250000
O O2 0.134529 0.233007 0.518193
O O3 0.042327 0.347485 0.440450
O O4 0.556365 0.186210 0.498065
O O5 0.644400 0.076879 0.617621
O O6 0.145325 0.111302 0.128382
O O7 0.752906 0.851627 0.040656
O O8 0.961146 0.935774 0.123413
O O9 0.660259 0.762119 0.832867
O O10 0.000000 0.000000 0.000000
#
# Coordination Sequence:
#
# PCOD9271497 Si02
#       5
#     8   8   4   8   8
#     4  10  20  36  59  91 129 165 200 248 307 372
#     4  11  22  40  62  90 125 162 208 257 307 376
#     4  10  24  42  64  92 128 168 202 266 312 374
#     4  11  21  35  60  96 130 159 190 234 311 399
#     4  11  25  45  63  86 120 163 216 269 312 357
#
# _framework density 21.647257
#
# number of rings (size 3 to 8) (size 9 to 14) (size 15 to 20)
#    0.000    1.333    0.000    6.667    0.000    7.111 
#    4.000    0.000    0.000    0.000    0.000    0.000 
#    0.000    0.000    0.000    0.000    0.000    0.000 
#
# Total GULP energy -100510.035788 kJ/mol
# GULP energy per Si atom -5583.890877 kJ/mol
# Density = 2.159799 g / cm^3
# Si number density = 21.647257 Si / 1000 Ang^3
#
#
#
# Elastic Constant Matrix: (Units=GPa)
#
#
# Indices 1 2 3 4 5 6 
#
# 1 92.1027 56.2065 30.1967 0.0024 -27.7050 0.0003
# 2 56.2065 69.5233 9.9953 0.0009 -19.0154 0.0004
# 3 30.1967 9.9953 103.6109 0.0070 -15.3156 0.0022
# 4 0.0024 0.0009 0.0070 30.3884 0.0016 -28.5041
# 5 -27.7050 -19.0154 -15.3156 0.0016 34.2965 0.0005
# 6 0.0003 0.0004 0.0022 -28.5041 0.0005 29.4595
#
#
#
# Elastic Compliance Matrix: (Units=1/GPa)
#
#
# Indices 1 2 3 4 5 6 
#
# 1 0.025958 -0.017862 -0.004504 -0.000009 0.009055 -0.000009
# 2 -0.017862 0.029253 0.002836 -0.000007 0.003056 -0.000007
# 3 -0.004504 0.002836 0.011119 -0.000035 0.002899 -0.000035
# 4 -0.000009 -0.000007 -0.000035 0.356020 -0.000049 0.344473
# 5 0.009055 0.003056 0.002899 -0.000049 0.039461 -0.000049
# 6 -0.000009 -0.000007 -0.000035 0.344473 -0.000049 0.367246
#
#
# Mechanical properties :
#
#
# Convention : Reuss Voigt Hill
#
# Bulk Modulus (GPa) = 36.67131 50.89264 43.78198
# Shear Modulus (GPa) = 5.69991 30.08480 17.89235
#
# Velocity S-wave (km/s) = 1.62444 3.73201 2.87808
# Velocity P-wave (km/s) = 4.52720 6.49088 5.59585
#
# Compressibility (1/GPa) = 0.02726927
#
# Stress axis : x y z
#
# Youngs Moduli (GPa) = 38.52346 34.18507 89.93510
#
# Poissons Ratio (x) = 0.61062 0.40505
# Poissons Ratio (y) = 0.68811 -0.25501
# Poissons Ratio (z) = 0.17350 -0.09693
#
# Static dielectric constant tensor:
#      x y z
#    x 1.934390 0.000000 -0.054170 
#    y 0.000000 1.778930 0.000000 
#    z -0.054170 0.000000 1.801830 
# 
# From -- ./inp_files/10245.got.cif
#   From: 2010.05.17/outbox.cif.g08.bks.cpg/sg15_6_cif.got.tgz:10245.got - 2010.06.03 18:47:42.
