data_PCOD9271817
_publ_section_title
;
Structure prediction by ZEFSAII (Michael W. Deem and Ramdas Pophale) SiO2 
 PCOD9271817
Probable space group: C 2/C
;
_chemical_formula_sum "Si O2"
_cell_formula_units_Z 60
_cell_length_a 26.746465
_cell_length_b 8.389064
_cell_length_c 19.795884
_cell_angle_alpha 90.000000
_cell_angle_beta 141.569329
_cell_angle_gamma 90.000000
_cell_volume 2760.850527
_symmetry_space_group_name_H-M "C 2/C"
_symmetry_group_IT_number 15
_symmetry_cell_setting 'monoclinic'
loop_
_space_group_symop_operation_xyz
x,y,z
-x,y,1/2-z
-x,-y,-z
x,-y,1/2+z
1/2+x,1/2+y,z
1/2-x,1/2+y,1/2-z
1/2-x,1/2-y,-z
1/2+x,1/2-y,1/2+z
loop_
_atom_site_type_symbol
_atom_site_label
_atom_site_fract_x
_atom_site_fract_y
_atom_site_fract_z
Si Si1 0.602645 0.493428 0.201310
Si Si2 0.332582 0.793605 0.497394
Si Si3 0.229261 0.506314 0.186052
Si Si4 0.437969 0.523042 0.565022
Si Si5 0.270430 0.637954 0.859671
Si Si6 0.127367 0.658629 0.791024
Si Si7 0.656563 0.818091 0.833831
Si Si8 0.500000 0.702932 0.250000
O O1 0.676127 0.469162 0.228087
O O2 0.509644 0.462207 0.087322
O O3 0.607935 0.681382 0.226922
O O4 0.621670 0.358044 0.279443
O O5 0.320761 0.918826 0.425114
O O6 0.411175 0.691515 0.565956
O O7 0.337910 0.850284 0.580083
O O8 0.249221 0.691782 0.406726
O O9 0.213521 0.452440 0.245423
O O10 0.217483 0.690990 0.161189
O O11 0.355386 0.446272 0.453839
O O12 0.470778 0.410417 0.659011
O O13 0.224577 0.657878 0.883090
O O14 0.109608 0.472239 0.755225
O O15 0.076314 0.695876 0.804269
#
# Coordination Sequence:
#
# PCOD9271817 Si02
#       8
#     8   8   8   8   8   8   8   4
#     4   9  22  41  60  93 132 164 205 255 323 368
#     4  10  20  36  61  96 120 160 213 255 315 370
#     4  10  23  42  64  90 122 165 217 262 302 374
#     4  11  21  40  63  92 129 164 200 262 313 375
#     4  11  23  40  68  88 121 168 218 258 310 362
#     4  10  21  40  63  92 124 166 205 256 311 375
#     4  10  20  37  62  92 129 163 205 259 313 381
#     4  10  24  38  62  96 134 158 206 248 328 382
#
# _framework density 21.732431999999999
#
# number of rings (size 3 to 8) (size 9 to 14) (size 15 to 20)
#    0.000    1.867    1.333    2.400    3.733    3.200 
#    2.400    1.333    0.000    4.800    0.000    0.000 
#    0.000    0.000    0.000    0.000    0.000    0.000 
#
# Total GULP energy -167046.047989 kJ/mol
# GULP energy per Si atom -5568.201600 kJ/mol
# Density = 2.168297 g / cm^3
# Si number density = 21.732432 Si / 1000 Ang^3
#
#
#
# Elastic Constant Matrix: (Units=GPa)
#
#
# Indices 1 2 3 4 5 6 
#
# 1 82.1820 16.0358 26.2109 0.0000 0.5704 0.0000
# 2 16.0358 98.2845 12.8465 0.0000 -5.1900 0.0000
# 3 26.2109 12.8465 48.2990 0.0000 -6.6885 0.0000
# 4 0.0000 0.0000 0.0000 16.9357 0.0000 4.8780
# 5 0.5704 -5.1900 -6.6885 0.0000 33.8320 0.0000
# 6 0.0000 0.0000 0.0000 4.8780 0.0000 19.9893
#
#
#
# Elastic Compliance Matrix: (Units=1/GPa)
#
#
# Indices 1 2 3 4 5 6 
#
# 1 0.015045 -0.001512 -0.008050 0.000000 -0.002077 0.000000
# 2 -0.001512 0.010732 -0.001853 0.000000 0.001306 0.000000
# 3 -0.008050 -0.001853 0.026264 0.000000 0.005044 0.000000
# 4 0.000000 0.000000 0.000000 0.063511 0.000000 -0.015499
# 5 -0.002077 0.001306 0.005044 0.000000 0.030790 0.000000
# 6 0.000000 0.000000 0.000000 -0.015499 0.000000 0.053809
#
#
# Mechanical properties :
#
#
# Convention : Reuss Voigt Hill
#
# Bulk Modulus (GPa) = 34.23367 37.66130 35.94749
# Shear Modulus (GPa) = 21.48505 25.72955 23.60730
#
# Velocity S-wave (km/s) = 3.14764 3.44455 3.29944
# Velocity P-wave (km/s) = 5.38486 5.76082 5.57601
#
# Compressibility (1/GPa) = 0.02921100
#
# Stress axis : x y z
#
# Youngs Moduli (GPa) = 66.46699 93.17551 38.07437
#
# Poissons Ratio (x) = 0.14090 0.30650
# Poissons Ratio (y) = 0.10051 0.07056
# Poissons Ratio (z) = 0.53507 0.17267
#
# Static dielectric constant tensor:
#      x y z
#    x 1.834820 0.000000 -0.008120 
#    y 0.000000 1.825920 0.000000 
#    z -0.008120 0.000000 1.796340 
# 
# From -- ./inp_files/257205.got.cif
#   From: 2010.05.17/outbox.cif.g08.bks.cpg/sg15_129_cif.got.tgz:257205.got - 2010.06.03 18:47:42.
