data_PCOD9271166
_publ_section_title
;
Structure prediction by ZEFSAII (Michael W. Deem and Ramdas Pophale) SiO2 
 PCOD9271166
Probable space group: C 2/C
;
_chemical_formula_sum "Si O2"
_cell_formula_units_Z 56
_cell_length_a 26.474937
_cell_length_b 12.394042
_cell_length_c 14.176811
_cell_angle_alpha 90.000000
_cell_angle_beta 38.563420
_cell_angle_gamma 90.000000
_cell_volume 2899.877628
_symmetry_space_group_name_H-M "C 2/C"
_symmetry_group_IT_number 15
_symmetry_cell_setting 'monoclinic'
loop_
_space_group_symop_operation_xyz
x,y,z
-x,y,1/2-z
-x,-y,-z
x,-y,1/2+z
1/2+x,1/2+y,z
1/2-x,1/2+y,1/2-z
1/2-x,1/2-y,-z
1/2+x,1/2-y,1/2+z
loop_
_atom_site_type_symbol
_atom_site_label
_atom_site_fract_x
_atom_site_fract_y
_atom_site_fract_z
Si Si1 0.234407 0.908106 0.997531
Si Si2 0.991228 0.130331 0.998648
Si Si3 0.839288 0.245156 0.751333
Si Si4 0.675255 0.353554 0.420060
Si Si5 0.711064 0.860990 0.095116
Si Si6 0.564415 0.757709 0.234292
Si Si7 0.086909 0.068613 0.568836
O O1 0.312508 0.861237 0.828467
O O2 0.247341 0.031975 0.005908
O O3 0.222070 0.836740 0.107750
O O4 0.155052 0.896355 0.045744
O O5 0.933113 0.142746 0.992272
O O6 0.073338 0.194791 0.854052
O O7 0.965139 0.183759 0.135816
O O8 0.000000 0.000000 0.000000
O O9 0.828423 0.233614 0.655909
O O10 0.765254 0.368313 0.329255
O O11 0.621831 0.316238 0.586269
O O12 0.630070 0.463525 0.459253
O O13 0.617927 0.851830 0.202438
O O14 0.750000 0.750000 0.000000
O O15 0.500000 0.795641 0.250000
O O16 0.000000 0.048512 0.750000
#
# Coordination Sequence:
#
# PCOD9271166 Si02
#       7
#     8   8   8   8   8   8   8
#     4  10  24  42  59  88 130 164 198 254 312 378
#     4  12  22  34  61  95 122 157 204 260 316 352
#     4  11  22  39  61  86 129 162 195 247 332 363
#     4  10  20  36  57  93 121 157 200 259 307 363
#     4   9  22  39  62  86 123 162 211 248 299 371
#     4  11  21  38  61  88 121 158 209 258 301 356
#     4  11  20  35  62  92 124 156 205 258 305 364
#
# _framework density 19.311160000000001
#
# number of rings (size 3 to 8) (size 9 to 14) (size 15 to 20)
#    0.000    1.429    4.286    1.286    6.000    0.000 
#    7.714    0.714    6.286    0.000    0.000    0.000 
#    0.000    0.000    0.000    0.000    0.000    0.000 
#
# Total GULP energy -155876.369765 kJ/mol
# GULP energy per Si atom -5567.013206 kJ/mol
# Density = 1.926721 g / cm^3
# Si number density = 19.311160 Si / 1000 Ang^3
#
#
#
# Elastic Constant Matrix: (Units=GPa)
#
#
# Indices 1 2 3 4 5 6 
#
# 1 125.7778 24.0280 32.5786 0.0000 -22.3363 0.0000
# 2 24.0280 64.9237 23.3833 0.0000 -3.2060 0.0000
# 3 32.5786 23.3833 81.5717 0.0000 9.9330 0.0000
# 4 0.0000 0.0000 0.0000 23.0739 0.0000 -7.1972
# 5 -22.3363 -3.2060 9.9330 0.0000 32.5031 0.0000
# 6 0.0000 0.0000 0.0000 -7.1972 0.0000 25.0157
#
#
#
# Elastic Compliance Matrix: (Units=1/GPa)
#
#
# Indices 1 2 3 4 5 6 
#
# 1 0.011231 -0.001890 -0.005049 0.000000 0.009074 0.000000
# 2 -0.001890 0.017847 -0.004588 0.000000 0.001864 0.000000
# 3 -0.005049 -0.004588 0.016689 0.000000 -0.009022 0.000000
# 4 0.000000 0.000000 0.000000 0.047612 0.000000 0.013698
# 5 0.009074 0.001864 -0.009022 0.000000 0.039943 0.000000
# 6 0.000000 0.000000 0.000000 0.013698 0.000000 0.043916
#
#
# Mechanical properties :
#
#
# Convention : Reuss Voigt Hill
#
# Bulk Modulus (GPa) = 44.02668 48.02810 46.02739
# Shear Modulus (GPa) = 24.05443 28.93743 26.49593
#
# Velocity S-wave (km/s) = 3.53317 3.87522 3.70814
# Velocity P-wave (km/s) = 6.28430 6.70431 6.49770
#
# Compressibility (1/GPa) = 0.02271350
#
# Stress axis : x y z
#
# Youngs Moduli (GPa) = 89.04167 56.03299 59.91865
#
# Poissons Ratio (x) = 0.10590 0.30250
# Poissons Ratio (y) = 0.16829 0.27491
# Poissons Ratio (z) = 0.44953 0.25708
#
# Static dielectric constant tensor:
#      x y z
#    x 1.686810 0.000000 -0.042850 
#    y 0.000000 1.576360 0.000000 
#    z -0.042850 0.000000 1.721130 
# 
# From -- ./inp_files/177552.got.cif
#   From: 2010.05.17/outbox.cif.g08.bks.cpg/sg15_89_cif.got.tgz:177552.got - 2010.06.03 18:47:42.
