data_PCOD9271128
_publ_section_title
;
Structure prediction by ZEFSAII (Michael W. Deem and Ramdas Pophale) SiO2 
 PCOD9271128
Probable space group: C 2/C
;
_chemical_formula_sum "Si O2"
_cell_formula_units_Z 52
_cell_length_a 26.157566
_cell_length_b 14.447810
_cell_length_c 8.188282
_cell_angle_alpha 90.000000
_cell_angle_beta 42.303502
_cell_angle_gamma 90.000000
_cell_volume 2082.785053
_symmetry_space_group_name_H-M "C 2/C"
_symmetry_group_IT_number 15
_symmetry_cell_setting 'monoclinic'
loop_
_space_group_symop_operation_xyz
x,y,z
-x,y,1/2-z
-x,-y,-z
x,-y,1/2+z
1/2+x,1/2+y,z
1/2-x,1/2+y,1/2-z
1/2-x,1/2-y,-z
1/2+x,1/2-y,1/2+z
loop_
_atom_site_type_symbol
_atom_site_label
_atom_site_fract_x
_atom_site_fract_y
_atom_site_fract_z
Si Si1 0.914386 0.987704 0.773830
Si Si2 0.210701 0.629469 0.303389
Si Si3 0.500000 0.344189 0.750000
Si Si4 0.927436 0.447163 0.974172
Si Si5 0.435733 0.786756 0.170800
Si Si6 0.682540 0.937089 0.537751
Si Si7 0.147907 0.862596 0.848576
O O1 0.928600 0.909944 0.880948
O O2 0.855452 0.942483 0.785815
O O3 0.890991 0.083724 0.908959
O O4 0.000000 0.000000 0.500000
O O5 0.129586 0.673107 0.551019
O O6 0.221985 0.523728 0.350503
O O7 0.223190 0.626995 0.077196
O O8 0.274672 0.678191 0.261330
O O9 0.498981 0.273556 0.901470
O O10 0.871677 0.398683 0.975771
O O11 0.000000 0.506221 0.750000
O O12 0.965530 0.372437 0.000115
O O13 0.874246 0.510857 0.205908
O O14 0.397185 0.718335 0.132420
#
# Coordination Sequence:
#
# PCOD9271128 Si02
#       7
#     8   8   4   8   8   8   8
#     4  11  21  40  65  92 118 154 215 262 312 366
#     4  10  20  40  60  88 125 162 208 247 307 369
#     4  10  22  40  60  88 122 164 202 256 314 364
#     4  10  20  36  57  86 115 156 197 249 303 354
#     4  10  24  37  59  88 127 162 199 255 314 372
#     4   9  20  37  60  84 116 158 206 247 285 365
#     4  11  22  39  63  89 120 164 201 257 311 371
#
# _framework density 24.966571999999999
#
# number of rings (size 3 to 8) (size 9 to 14) (size 15 to 20)
#    0.000    1.846    1.538    1.846    2.154    2.462 
#    2.769    0.769    0.000    0.000    0.000    0.000 
#    0.000    0.000    0.000    0.000    0.000    0.000 
#
# Total GULP energy -144983.750714 kJ/mol
# GULP energy per Si atom -5576.298104 kJ/mol
# Density = 2.490975 g / cm^3
# Si number density = 24.966572 Si / 1000 Ang^3
#
#
#
# Elastic Constant Matrix: (Units=GPa)
#
#
# Indices 1 2 3 4 5 6 
#
# 1 98.6550 29.1454 7.6665 0.0000 9.9992 0.0000
# 2 29.1454 46.9085 0.8257 0.0000 13.4739 0.0000
# 3 7.6665 0.8257 46.8439 0.0000 4.6339 0.0000
# 4 0.0000 0.0000 0.0000 9.7567 0.0000 6.7069
# 5 9.9992 13.4739 4.6339 0.0000 22.6972 0.0000
# 6 0.0000 0.0000 0.0000 6.7069 0.0000 37.1722
#
#
#
# Elastic Compliance Matrix: (Units=1/GPa)
#
#
# Indices 1 2 3 4 5 6 
#
# 1 0.012594 -0.007604 -0.001862 0.000000 -0.000654 0.000000
# 2 -0.007604 0.030345 0.002205 0.000000 -0.015114 0.000000
# 3 -0.001862 0.002205 0.022108 0.000000 -0.005002 0.000000
# 4 0.000000 0.000000 0.000000 0.117006 0.000000 -0.021111
# 5 -0.000654 -0.015114 -0.005002 0.000000 0.054340 0.000000
# 6 0.000000 0.000000 0.000000 -0.021111 0.000000 0.030711
#
#
# Mechanical properties :
#
#
# Convention : Reuss Voigt Hill
#
# Bulk Modulus (GPa) = 19.79271 29.74251 24.76761
# Shear Modulus (GPa) = 16.75216 24.24319 20.49768
#
# Velocity S-wave (km/s) = 2.59314 3.11951 2.86843
# Velocity P-wave (km/s) = 4.11227 4.99138 4.57300
#
# Compressibility (1/GPa) = 0.05052365
#
# Stress axis : x y z
#
# Youngs Moduli (GPa) = 79.40387 32.95394 45.23196
#
# Poissons Ratio (x) = 0.25059 0.08424
# Poissons Ratio (y) = 0.60381 -0.09973
# Poissons Ratio (z) = 0.14788 -0.07266
#
# Static dielectric constant tensor:
#      x y z
#    x 2.105150 0.000000 0.044970 
#    y 0.000000 1.985020 0.000000 
#    z 0.044970 0.000000 2.027230 
# 
# From -- ./inp_files/66119.got.cif
#   From: 2010.05.17/outbox.cif.g08.bks.cpg/sg15_34_cif.got.tgz:66119.got - 2010.06.03 18:47:42.
