data_PCOD9271291
_publ_section_title
;
Structure prediction by ZEFSAII (Michael W. Deem and Ramdas Pophale) SiO2 
 PCOD9271291
Probable space group: C 2/C
;
_chemical_formula_sum "Si O2"
_cell_formula_units_Z 52
_cell_length_a 21.736700
_cell_length_b 29.431262
_cell_length_c 9.187714
_cell_angle_alpha 90.000000
_cell_angle_beta 151.960803
_cell_angle_gamma 90.000000
_cell_volume 2762.978933
_symmetry_space_group_name_H-M "C 2/C"
_symmetry_group_IT_number 15
_symmetry_cell_setting 'monoclinic'
loop_
_space_group_symop_operation_xyz
x,y,z
-x,y,1/2-z
-x,-y,-z
x,-y,1/2+z
1/2+x,1/2+y,z
1/2-x,1/2+y,1/2-z
1/2-x,1/2-y,-z
1/2+x,1/2-y,1/2+z
loop_
_atom_site_type_symbol
_atom_site_label
_atom_site_fract_x
_atom_site_fract_y
_atom_site_fract_z
Si Si1 0.306734 0.558047 0.395123
Si Si2 0.598227 0.000442 0.834710
Si Si3 0.500000 0.776384 0.750000
Si Si4 0.502770 0.295927 0.997383
Si Si5 0.500000 0.633892 0.750000
Si Si6 0.000000 0.980488 0.750000
Si Si7 0.724146 0.579524 0.842425
Si Si8 0.711167 0.682400 0.697577
O O1 0.379653 0.600258 0.477678
O O2 0.404061 0.515652 0.632526
O O3 0.249805 0.575436 0.429822
O O4 0.212806 0.536842 0.077909
O O5 0.500000 0.016106 0.750000
O O6 0.500000 0.000000 0.500000
O O7 0.663700 0.951453 0.996864
O O8 0.483113 0.746223 0.566897
O O9 0.361390 0.802407 0.484329
O O10 0.379725 0.307433 0.634416
O O11 0.521786 0.336818 0.151609
O O12 0.630677 0.292477 0.160433
O O13 0.910844 0.947375 0.468133
O O14 0.713510 0.629538 0.752886
#
# Coordination Sequence:
#
# PCOD9271291 Si02
#       8
#     8   8   4   8   4   4   8   8
#     4  10  20  36  58  87 120 161 214 258 303 350
#     4  11  23  39  57  81 127 179 207 248 307 375
#     4  11  24  43  66  96 130 158 204 253 330 399
#     4  10  22  42  68  93 125 161 205 258 324 385
#     4  10  20  38  64  92 118 156 210 274 312 352
#     4   9  20  33  58  88 120 158 208 259 302 339
#     4  11  21  36  59  89 124 156 213 259 306 361
#     4  11  23  41  67  96 124 166 206 263 314 382
#
# _framework density 18.820266
#
# number of rings (size 3 to 8) (size 9 to 14) (size 15 to 20)
#    0.000    1.538    3.077    2.308    1.077    1.231 
#    0.000    0.000    0.000    0.000    0.000    0.000 
#    0.000    0.000    0.000    0.000    0.000    0.000 
#
# Total GULP energy -144755.076207 kJ/mol
# GULP energy per Si atom -5567.502931 kJ/mol
# Density = 1.877743 g / cm^3
# Si number density = 18.820266 Si / 1000 Ang^3
#
#
#
# Elastic Constant Matrix: (Units=GPa)
#
#
# Indices 1 2 3 4 5 6 
#
# 1 77.7664 48.4364 53.0938 0.0000 0.8818 0.0000
# 2 48.4364 87.3770 49.8319 0.0000 1.7188 0.0000
# 3 53.0938 49.8319 134.8801 0.0000 -1.2100 0.0000
# 4 0.0000 0.0000 0.0000 15.7089 0.0000 -6.6376
# 5 0.8818 1.7188 -1.2100 0.0000 35.9342 0.0000
# 6 0.0000 0.0000 0.0000 -6.6376 0.0000 10.0915
#
#
#
# Elastic Compliance Matrix: (Units=1/GPa)
#
#
# Indices 1 2 3 4 5 6 
#
# 1 0.022313 -0.009316 -0.005344 0.000000 -0.000282 0.000000
# 2 -0.009316 0.018417 -0.003144 0.000000 -0.000758 0.000000
# 3 -0.005344 -0.003144 0.010685 0.000000 0.000641 0.000000
# 4 0.000000 0.000000 0.000000 0.088159 0.000000 0.057986
# 5 -0.000282 -0.000758 0.000641 0.000000 0.027893 0.000000
# 6 0.000000 0.000000 0.000000 0.057986 0.000000 0.137232
#
#
# Mechanical properties :
#
#
# Convention : Reuss Voigt Hill
#
# Bulk Modulus (GPa) = 63.26193 66.97195 65.11694
# Shear Modulus (GPa) = 14.46862 22.25769 18.36315
#
# Velocity S-wave (km/s) = 2.77569 3.44269 3.12703
# Velocity P-wave (km/s) = 6.63018 7.17392 6.90740
#
# Compressibility (1/GPa) = 0.01580730
#
# Stress axis : x y z
#
# Youngs Moduli (GPa) = 44.81699 54.29900 93.59012
#
# Poissons Ratio (x) = 0.50583 0.50015
# Poissons Ratio (y) = 0.41750 0.29424
# Poissons Ratio (z) = 0.23951 0.17071
#
# Static dielectric constant tensor:
#      x y z
#    x 1.678960 0.000000 0.001210 
#    y 0.000000 1.640480 0.000000 
#    z 0.001210 0.000000 1.599510 
# 
# From -- ./inp_files/59332.got.cif
#   From: 2010.05.17/outbox.cif.g08.bks.cpg/sg15_30_cif.got.tgz:59332.got - 2010.06.03 18:47:42.
