data_PCOD9271755
_publ_section_title
;
Structure prediction by ZEFSAII (Michael W. Deem and Ramdas Pophale) SiO2 
 PCOD9271755
Probable space group: C 2/C
;
_chemical_formula_sum "Si O2"
_cell_formula_units_Z 64
_cell_length_a 11.810384
_cell_length_b 16.336061
_cell_length_c 21.639926
_cell_angle_alpha 90.000000
_cell_angle_beta 38.068610
_cell_angle_gamma 90.000000
_cell_volume 2574.387595
_symmetry_space_group_name_H-M "C 2/C"
_symmetry_group_IT_number 15
_symmetry_cell_setting 'monoclinic'
loop_
_space_group_symop_operation_xyz
x,y,z
-x,y,1/2-z
-x,-y,-z
x,-y,1/2+z
1/2+x,1/2+y,z
1/2-x,1/2+y,1/2-z
1/2-x,1/2-y,-z
1/2+x,1/2-y,1/2+z
loop_
_atom_site_type_symbol
_atom_site_label
_atom_site_fract_x
_atom_site_fract_y
_atom_site_fract_z
Si Si1 0.956201 0.099736 0.664600
Si Si2 0.882001 0.965850 0.607236
Si Si3 0.864273 0.643090 0.491210
Si Si4 0.397911 0.112472 0.611263
Si Si5 0.062265 0.465318 0.821910
Si Si6 0.912533 0.871028 0.729822
Si Si7 0.968227 0.201841 0.437177
Si Si8 0.331730 0.275798 0.120658
O O1 0.146929 0.144748 0.592773
O O2 0.818701 0.102056 0.780973
O O3 0.843877 0.146382 0.658884
O O4 0.983195 0.009963 0.622813
O O5 0.890509 0.867260 0.598741
O O6 0.666308 0.983166 0.712562
O O7 0.000000 0.000000 0.500000
O O8 0.934736 0.595927 0.523022
O O9 0.904726 0.598837 0.408257
O O10 0.975094 0.727484 0.450517
O O11 0.455118 0.206487 0.599898
O O12 0.486020 0.048174 0.620960
O O13 0.234581 0.418954 0.781718
O O14 0.822624 0.786790 0.792679
O O15 0.000000 0.916113 0.750000
O O16 0.062808 0.839844 0.615677
O O17 0.815918 0.202168 0.555478
#
# Coordination Sequence:
#
# PCOD9271755 Si02
#       8
#     8   8   8   8   8   8   8   8
#     4  11  20  36  62  87 119 163 205 245 300 378
#     4  10  20  37  62  81 115 166 207 245 300 367
#     4  10  21  36  58  92 122 154 203 254 310 364
#     4  10  20  36  61  88 123 163 198 251 314 367
#     4   9  21  38  60  85 123 160 198 261 312 361
#     4  10  21  38  60  87 121 156 207 257 304 365
#     4  10  20  37  60  86 117 159 198 252 312 353
#     4  10  20  37  59  83 123 159 197 254 306 362
#
# _framework density 24.860282000000002
#
# number of rings (size 3 to 8) (size 9 to 14) (size 15 to 20)
#    0.000    2.000    2.500    1.125    0.000    3.500 
#    0.000    1.875    0.000    0.000    0.000    0.000 
#    0.000    0.000    0.000    0.000    0.000    0.000 
#
# Total GULP energy -178374.196985 kJ/mol
# GULP energy per Si atom -5574.193656 kJ/mol
# Density = 2.480370 g / cm^3
# Si number density = 24.860282 Si / 1000 Ang^3
#
#
#
# Elastic Constant Matrix: (Units=GPa)
#
#
# Indices 1 2 3 4 5 6 
#
# 1 35.5909 3.5990 6.5855 -0.0002 -5.3312 -0.0001
# 2 3.5990 117.4482 8.7658 -0.0004 9.4538 -0.0001
# 3 6.5855 8.7658 94.3232 -0.0012 38.3001 -0.0001
# 4 -0.0002 -0.0004 -0.0012 37.8777 0.0003 3.4632
# 5 -5.3312 9.4538 38.3001 0.0003 36.2858 0.0002
# 6 -0.0001 -0.0001 -0.0001 3.4632 0.0002 10.4751
#
#
#
# Elastic Compliance Matrix: (Units=1/GPa)
#
#
# Indices 1 2 3 4 5 6 
#
# 1 0.031447 -0.001440 -0.007158 0.000000 0.012551 0.000000
# 2 -0.001440 0.008765 0.000523 0.000000 -0.003048 0.000000
# 3 -0.007158 0.000523 0.020188 0.000001 -0.022496 0.000000
# 4 0.000000 0.000000 0.000001 0.027224 -0.000001 -0.009001
# 5 0.012551 -0.003048 -0.022496 -0.000001 0.053942 -0.000001
# 6 0.000000 0.000000 0.000000 -0.009001 -0.000001 0.098441
#
#
# Mechanical properties :
#
#
# Convention : Reuss Voigt Hill
#
# Bulk Modulus (GPa) = 22.59836 31.69586 27.14711
# Shear Modulus (GPa) = 18.45665 32.15518 25.30591
#
# Velocity S-wave (km/s) = 2.72769 3.60034 3.19396
# Velocity P-wave (km/s) = 4.36237 5.48275 4.95433
#
# Compressibility (1/GPa) = 0.04425100
#
# Stress axis : x y z
#
# Youngs Moduli (GPa) = 31.79939 114.09343 49.53519
#
# Poissons Ratio (x) = 0.16425 0.35458
# Poissons Ratio (y) = 0.04578 -0.02593
# Poissons Ratio (z) = 0.22762 -0.05972
#
# Static dielectric constant tensor:
#      x y z
#    x 2.111250 0.000000 0.094850 
#    y 0.000000 1.986220 0.000000 
#    z 0.094850 0.000000 2.040700 
# 
# From -- ./inp_files/274827.got.cif
#   From: 2010.05.17/outbox.cif.g08.bks.cpg/sg15_138_cif.got.tgz:274827.got - 2010.06.03 18:47:42.
