data_PCOD9271442
_publ_section_title
;
Structure prediction by ZEFSAII (Michael W. Deem and Ramdas Pophale) SiO2 
 PCOD9271442
Probable space group: C 2/C
;
_chemical_formula_sum "Si O2"
_cell_formula_units_Z 60
_cell_length_a 29.901669
_cell_length_b 19.492276
_cell_length_c 9.513575
_cell_angle_alpha 90.000000
_cell_angle_beta 35.799566
_cell_angle_gamma 90.000000
_cell_volume 3243.557568
_symmetry_space_group_name_H-M "C 2/C"
_symmetry_group_IT_number 15
_symmetry_cell_setting 'monoclinic'
loop_
_space_group_symop_operation_xyz
x,y,z
-x,y,1/2-z
-x,-y,-z
x,-y,1/2+z
1/2+x,1/2+y,z
1/2-x,1/2+y,1/2-z
1/2-x,1/2-y,-z
1/2+x,1/2-y,1/2+z
loop_
_atom_site_type_symbol
_atom_site_label
_atom_site_fract_x
_atom_site_fract_y
_atom_site_fract_z
Si Si1 0.000000 0.039086 0.250000
Si Si2 0.652438 0.165009 0.912590
Si Si3 0.721331 0.582309 0.008229
Si Si4 0.894131 0.865468 0.194494
Si Si5 0.721503 0.707220 0.703679
Si Si6 0.149408 0.766159 0.663824
Si Si7 0.521684 0.252764 0.344176
Si Si8 0.344216 0.525986 0.040015
O O1 0.963842 0.088070 0.461278
O O2 0.069759 0.994223 0.131853
O O3 0.688531 0.099401 0.742144
O O4 0.706467 0.170026 0.910355
O O5 0.669742 0.224789 0.753309
O O6 0.567282 0.183691 0.182277
O O7 0.673335 0.654245 0.125722
O O8 0.702133 0.545288 0.202599
O O9 0.691612 0.536047 0.956489
O O10 0.843481 0.843114 0.190442
O O11 0.923511 0.798745 0.201375
O O12 0.847734 0.910325 0.424391
O O13 0.750000 0.750000 0.500000
O O14 0.689129 0.752301 0.915270
O O15 0.059769 0.749617 0.873454
O O16 0.500000 0.287954 0.250000
#
# Coordination Sequence:
#
# PCOD9271442 Si02
#       8
#     4   8   8   8   8   8   8   8
#     4  12  24  38  50  82 118 164 198 236 268 350
#     4  10  21  40  60  83 115 153 198 247 296 344
#     4  11  23  39  56  83 120 155 197 239 278 353
#     4  12  23  35  56  80 123 160 196 233 287 336
#     4  11  21  35  55  85 119 156 194 241 292 347
#     4  10  22  38  63  85 118 152 196 243 301 350
#     4  10  20  36  59  88 110 154 196 243 301 350
#     4  12  25  37  55  81 117 163 204 227 283 344
#
# _framework density 18.498208000000002
#
# number of rings (size 3 to 8) (size 9 to 14) (size 15 to 20)
#    0.000    1.067    2.667    6.800    4.667    0.000 
#    0.000    0.000    0.000    0.000    0.000    8.400 
#    0.000    0.000    0.000    0.133    0.000    0.000 
#
# Total GULP energy -167282.951733 kJ/mol
# GULP energy per Si atom -5576.098391 kJ/mol
# Density = 1.845611 g / cm^3
# Si number density = 18.498208 Si / 1000 Ang^3
#
#
#
# Elastic Constant Matrix: (Units=GPa)
#
#
# Indices 1 2 3 4 5 6 
#
# 1 97.0196 31.1593 21.0096 0.0000 5.0590 0.0000
# 2 31.1593 44.4526 21.4111 0.0000 -0.9959 0.0000
# 3 21.0096 21.4111 93.3835 0.0000 7.8369 0.0000
# 4 0.0000 0.0000 0.0000 34.6990 0.0000 4.3982
# 5 5.0590 -0.9959 7.8369 0.0000 38.4217 0.0000
# 6 0.0000 0.0000 0.0000 4.3982 0.0000 22.1615
#
#
#
# Elastic Compliance Matrix: (Units=1/GPa)
#
#
# Indices 1 2 3 4 5 6 
#
# 1 0.013507 -0.009129 -0.000790 0.000000 -0.001854 0.000000
# 2 -0.009129 0.031591 -0.005452 0.000000 0.003133 0.000000
# 3 -0.000790 -0.005452 0.012351 0.000000 -0.002557 0.000000
# 4 0.000000 0.000000 0.000000 0.029563 0.000000 -0.005867
# 5 -0.001854 0.003133 -0.002557 0.000000 0.026874 0.000000
# 6 0.000000 0.000000 0.000000 -0.005867 0.000000 0.046288
#
#
# Mechanical properties :
#
#
# Convention : Reuss Voigt Hill
#
# Bulk Modulus (GPa) = 37.44415 42.44621 39.94518
# Shear Modulus (GPa) = 25.02283 29.80813 27.41548
#
# Velocity S-wave (km/s) = 3.68192 4.01859 3.85393
# Velocity P-wave (km/s) = 6.19365 6.67293 6.43775
#
# Compressibility (1/GPa) = 0.02670644
#
# Stress axis : x y z
#
# Youngs Moduli (GPa) = 74.03701 31.65462 80.96520
#
# Poissons Ratio (x) = 0.28896 0.06398
# Poissons Ratio (y) = 0.67585 0.44145
# Poissons Ratio (z) = 0.05850 0.17259
#
# Static dielectric constant tensor:
#      x y z
#    x 1.653910 0.000000 -0.022330 
#    y 0.000000 1.656040 0.000000 
#    z -0.022330 0.000000 1.701990 
# 
# From -- ./inp_files/67517.got.cif
#   From: 2010.05.17/outbox.cif.g08.bks.cpg/sg15_34_cif.got.tgz:67517.got - 2010.06.03 18:47:42.
