data_PCOD9271309
_publ_section_title
;
Structure prediction by ZEFSAII (Michael W. Deem and Ramdas Pophale) SiO2 
 PCOD9271309
Probable space group: C 2/C
;
_chemical_formula_sum "Si O2"
_cell_formula_units_Z 44
_cell_length_a 7.733533
_cell_length_b 27.678406
_cell_length_c 13.501376
_cell_angle_alpha 90.000000
_cell_angle_beta 137.068193
_cell_angle_gamma 90.000000
_cell_volume 1968.454670
_symmetry_space_group_name_H-M "C 2/C"
_symmetry_group_IT_number 15
_symmetry_cell_setting 'monoclinic'
loop_
_space_group_symop_operation_xyz
x,y,z
-x,y,1/2-z
-x,-y,-z
x,-y,1/2+z
1/2+x,1/2+y,z
1/2-x,1/2+y,1/2-z
1/2-x,1/2-y,-z
1/2+x,1/2-y,1/2+z
loop_
_atom_site_type_symbol
_atom_site_label
_atom_site_fract_x
_atom_site_fract_y
_atom_site_fract_z
Si Si1 0.000000 0.390625 0.750000
Si Si2 0.953393 0.054967 0.510179
Si Si3 0.834175 0.609439 0.784589
Si Si4 0.828878 0.888778 0.588303
Si Si5 0.778939 0.212647 0.815818
Si Si6 0.124913 0.806836 0.645823
O O1 0.834690 0.425618 0.610453
O O2 0.814800 0.352333 0.725378
O O3 0.114800 0.070701 0.673350
O O4 0.068682 0.085353 0.467052
O O5 0.000000 0.000000 0.500000
O O6 0.716816 0.662765 0.742710
O O7 0.000000 0.609419 0.750000
O O8 0.029708 0.601691 0.955924
O O9 0.000000 0.906818 0.750000
O O10 0.881790 0.830887 0.600201
O O11 0.500000 0.213452 0.750000
O O12 0.772071 0.261733 0.751897
O O13 0.002996 0.208358 0.990005
#
# Coordination Sequence:
#
# PCOD9271309 Si02
#       6
#     4   8   8   8   8   8
#     4  10  22  40  54  88 118 146 206 230 292 372
#     4  10  21  39  67  83 108 159 193 244 304 361
#     4   9  17  35  55  84 114 142 199 243 280 344
#     4  10  20  36  58  89 118 142 194 259 290 329
#     4  11  19  34  55  85 114 155 202 237 284 341
#     4  11  22  34  55  81 121 159 191 242 282 349
#
# _framework density 22.352558999999999
#
# number of rings (size 3 to 8) (size 9 to 14) (size 15 to 20)
#    0.000    1.818    7.273    1.091    6.364    0.727 
#    0.000    0.909    0.000    0.000    0.000    0.000 
#    0.000    0.000    0.000    0.000    0.000    0.000 
#
# Total GULP energy -122636.890224 kJ/mol
# GULP energy per Si atom -5574.404101 kJ/mol
# Density = 2.230168 g / cm^3
# Si number density = 22.352559 Si / 1000 Ang^3
#
#
#
# Elastic Constant Matrix: (Units=GPa)
#
#
# Indices 1 2 3 4 5 6 
#
# 1 19.3719 3.6268 19.9416 0.0000 6.7394 0.0000
# 2 3.6268 142.4369 75.5208 0.0000 23.6440 0.0000
# 3 19.9416 75.5208 232.2753 0.0000 17.5663 0.0000
# 4 0.0000 0.0000 0.0000 27.1109 0.0000 4.6692
# 5 6.7394 23.6440 17.5663 0.0000 23.1976 0.0000
# 6 0.0000 0.0000 0.0000 4.6692 0.0000 12.3311
#
#
#
# Elastic Compliance Matrix: (Units=1/GPa)
#
#
# Indices 1 2 3 4 5 6 
#
# 1 0.062840 0.004353 -0.005403 0.000000 -0.018601 0.000000
# 2 0.004353 0.009993 -0.002924 0.000000 -0.009236 0.000000
# 3 -0.005403 -0.002924 0.005702 0.000000 0.000232 0.000000
# 4 0.000000 0.000000 0.000000 0.039459 0.000000 -0.014941
# 5 -0.018601 -0.009236 0.000232 0.000000 0.057749 0.000000
# 6 0.000000 0.000000 0.000000 -0.014941 0.000000 0.086753
#
#
# Mechanical properties :
#
#
# Convention : Reuss Voigt Hill
#
# Bulk Modulus (GPa) = 14.16727 65.80694 39.98711
# Shear Modulus (GPa) = 17.00820 32.19428 24.60124
#
# Velocity S-wave (km/s) = 2.76145 3.79924 3.32113
# Velocity P-wave (km/s) = 4.06439 6.98212 5.71267
#
# Compressibility (1/GPa) = 0.07058523
#
# Stress axis : x y z
#
# Youngs Moduli (GPa) = 15.91345 100.06512 175.36482
#
# Poissons Ratio (x) = -0.43554 0.94757
# Poissons Ratio (y) = -0.06926 0.51284
# Poissons Ratio (z) = 0.08599 0.29263
#
# Static dielectric constant tensor:
#      x y z
#    x 2.027920 0.000000 0.071540 
#    y 0.000000 1.819790 0.000000 
#    z 0.071540 0.000000 1.924180 
# 
# From -- ./inp_files/138806.got.cif
#   From: 2010.05.17/outbox.cif.g08.bks.cpg/sg15_70_cif.got.tgz:138806.got - 2010.06.03 18:47:42.
