data_PCOD9271365
_publ_section_title
;
Structure prediction by ZEFSAII (Michael W. Deem and Ramdas Pophale) SiO2 
 PCOD9271365
Probable space group: C 2/C
;
_chemical_formula_sum "Si O2"
_cell_formula_units_Z 52
_cell_length_a 30.065454
_cell_length_b 8.722211
_cell_length_c 15.887969
_cell_angle_alpha 90.000000
_cell_angle_beta 145.805262
_cell_angle_gamma 90.000000
_cell_volume 2341.557278
_symmetry_space_group_name_H-M "C 2/C"
_symmetry_group_IT_number 15
_symmetry_cell_setting 'monoclinic'
loop_
_space_group_symop_operation_xyz
x,y,z
-x,y,1/2-z
-x,-y,-z
x,-y,1/2+z
1/2+x,1/2+y,z
1/2-x,1/2+y,1/2-z
1/2-x,1/2-y,-z
1/2+x,1/2-y,1/2+z
loop_
_atom_site_type_symbol
_atom_site_label
_atom_site_fract_x
_atom_site_fract_y
_atom_site_fract_z
Si Si1 0.210298 0.846397 0.176503
Si Si2 0.500000 0.615559 0.250000
Si Si3 0.626167 0.089636 0.472138
Si Si4 0.346699 0.795302 0.072072
Si Si5 0.908966 0.114880 0.513281
Si Si6 0.583487 0.113665 0.052795
Si Si7 0.910046 0.306124 0.343366
O O1 0.292307 0.875633 0.350795
O O2 0.151676 0.736999 0.139209
O O3 0.217227 0.766480 0.095475
O O4 0.169287 0.011318 0.101931
O O5 0.425109 0.715951 0.156219
O O6 0.521774 0.505882 0.361830
O O7 0.589609 0.257373 0.410745
O O8 0.645045 0.978984 0.424529
O O9 0.572860 0.986063 0.450904
O O10 0.351024 0.754879 0.176675
O O11 0.910731 0.199437 0.426701
O O12 0.607685 0.981947 0.156915
O O13 0.500309 0.186473 0.949374
#
# Coordination Sequence:
#
# PCOD9271365 Si02
#       7
#     8   4   8   8   8   8   8
#     4  10  20  38  58  82 113 156 198 236 277 340
#     4  10  22  36  56  90 114 150 194 238 290 338
#     4  10  20  37  58  79 109 157 197 227 276 350
#     4  10  20  36  59  81 113 151 194 239 286 342
#     4  10  21  35  59  87 117 147 191 243 288 344
#     4   9  20  35  57  82 117 149 185 235 288 348
#     4  10  20  37  58  88 115 149 187 241 306 338
#
# _framework density 22.207443000000001
#
# number of rings (size 3 to 8) (size 9 to 14) (size 15 to 20)
#    0.000    2.154    0.000    4.615    0.000    6.769 
#    0.000    9.231    0.000    0.000    0.000    3.231 
#    0.000    0.000    0.000    0.000    0.000    0.000 
#
# Total GULP energy -145178.286856 kJ/mol
# GULP energy per Si atom -5583.780264 kJ/mol
# Density = 2.215690 g / cm^3
# Si number density = 22.207443 Si / 1000 Ang^3
#
#
#
# Elastic Constant Matrix: (Units=GPa)
#
#
# Indices 1 2 3 4 5 6 
#
# 1 87.4234 32.9381 20.2886 0.0000 -6.6145 0.0000
# 2 32.9381 127.6135 32.7732 0.0000 -3.2963 0.0000
# 3 20.2886 32.7732 95.2507 0.0000 -13.2327 0.0000
# 4 0.0000 0.0000 0.0000 37.6825 0.0000 -2.3046
# 5 -6.6145 -3.2963 -13.2327 0.0000 34.3226 0.0000
# 6 0.0000 0.0000 0.0000 -2.3046 0.0000 28.0747
#
#
#
# Elastic Compliance Matrix: (Units=1/GPa)
#
#
# Indices 1 2 3 4 5 6 
#
# 1 0.013021 -0.002923 -0.001541 0.000000 0.001635 0.000000
# 2 -0.002923 0.009255 -0.002659 0.000000 -0.000700 0.000000
# 3 -0.001541 -0.002659 0.012325 0.000000 0.004200 0.000000
# 4 0.000000 0.000000 0.000000 0.026671 0.000000 0.002189
# 5 0.001635 -0.000700 0.004200 0.000000 0.031002 0.000000
# 6 0.000000 0.000000 0.000000 0.002189 0.000000 0.035799
#
#
# Mechanical properties :
#
#
# Convention : Reuss Voigt Hill
#
# Bulk Modulus (GPa) = 49.12544 53.58749 51.35647
# Shear Modulus (GPa) = 33.53336 34.96848 34.25092
#
# Velocity S-wave (km/s) = 3.89009 3.97246 3.93150
# Velocity P-wave (km/s) = 6.50740 6.72484 6.61701
#
# Compressibility (1/GPa) = 0.02035605
#
# Stress axis : x y z
#
# Youngs Moduli (GPa) = 76.79855 108.04457 81.13490
#
# Poissons Ratio (x) = 0.31581 0.12501
# Poissons Ratio (y) = 0.22448 0.21575
# Poissons Ratio (z) = 0.11832 0.28731
#
# Static dielectric constant tensor:
#      x y z
#    x 1.842530 0.000000 0.003910 
#    y 0.000000 1.827230 0.000000 
#    z 0.003910 0.000000 1.868050 
# 
# From -- ./inp_files/181254.got.cif
#   From: 2010.05.17/outbox.cif.g08.bks.cpg/sg15_91_cif.got.tgz:181254.got - 2010.06.03 18:47:42.
