data_PCOD9271949
_publ_section_title
;
Structure prediction by ZEFSAII (Michael W. Deem and Ramdas Pophale) SiO2 
 PCOD9271949
Probable space group: C 2/C
;
_chemical_formula_sum "Si O2"
_cell_formula_units_Z 60
_cell_length_a 15.274737
_cell_length_b 19.577814
_cell_length_c 8.879398
_cell_angle_alpha 90.000000
_cell_angle_beta 76.455597
_cell_angle_gamma 90.000000
_cell_volume 2581.499451
_symmetry_space_group_name_H-M "C 2/C"
_symmetry_group_IT_number 15
_symmetry_cell_setting 'monoclinic'
loop_
_space_group_symop_operation_xyz
x,y,z
-x,y,1/2-z
-x,-y,-z
x,-y,1/2+z
1/2+x,1/2+y,z
1/2-x,1/2+y,1/2-z
1/2-x,1/2-y,-z
1/2+x,1/2-y,1/2+z
loop_
_atom_site_type_symbol
_atom_site_label
_atom_site_fract_x
_atom_site_fract_y
_atom_site_fract_z
Si Si1 0.863223 0.522892 0.150055
Si Si2 0.403641 0.466925 0.071939
Si Si3 0.000000 0.875777 0.250000
Si Si4 0.732852 0.231760 0.262572
Si Si5 0.358944 0.705116 0.967046
Si Si6 0.251437 0.433402 0.536466
Si Si7 0.915750 0.594617 0.837050
Si Si8 0.278445 0.645503 0.515373
O O1 0.825415 0.566132 0.305455
O O2 0.919155 0.464860 0.211139
O O3 0.787046 0.481314 0.082853
O O4 0.916681 0.567700 0.007912
O O5 0.421906 0.425113 0.217797
O O6 0.332744 0.527426 0.087973
O O7 0.358782 0.408820 0.984910
O O8 0.500000 0.500000 0.000000
O O9 0.955557 0.829014 0.397360
O O10 0.829060 0.238500 0.136496
O O11 0.699555 0.288183 0.395433
O O12 0.749729 0.166619 0.360201
O O13 0.661832 0.241091 0.156642
O O14 0.288290 0.641045 0.978243
O O15 0.812719 0.619685 0.868084
O O16 0.000000 0.640655 0.750000
#
# Coordination Sequence:
#
# PCOD9271949 Si02
#       8
#     8   8   4   8   8   8   8   8
#     4  10  20  36  62  92 132 169 206 279 351 428
#     4  12  24  39  70 107 146 186 220 298 389 442
#     4  12  24  42  62 104 154 172 238 308 358 438
#     4  10  24  43  71  87 125 199 240 284 348 417
#     4  11  22  41  65  95 128 184 237 288 351 417
#     4  11  21  38  66  98 138 179 224 280 365 447
#     4  11  22  38  63  93 126 170 224 288 344 411
#     4  11  22  47  67  96 139 180 243 292 354 438
#
# _framework density 23.242305999999999
#
# number of rings (size 3 to 8) (size 9 to 14) (size 15 to 20)
#    0.000    1.067    5.333    2.800    0.000    0.000 
#    2.400    0.000    0.000    0.000    0.000    0.000 
#    0.000    0.000    0.000    0.000    0.000    0.000 
#
# Total GULP energy -167275.867839 kJ/mol
# GULP energy per Si atom -5575.862261 kJ/mol
# Density = 2.318941 g / cm^3
# Si number density = 23.242306 Si / 1000 Ang^3
#
#
#
# Elastic Constant Matrix: (Units=GPa)
#
#
# Indices 1 2 3 4 5 6 
#
# 1 89.8407 21.0548 24.8273 0.0000 -7.9635 0.0000
# 2 21.0548 62.1914 10.0494 0.0000 6.3886 0.0000
# 3 24.8273 10.0494 82.1303 0.0000 -1.6797 0.0000
# 4 0.0000 0.0000 0.0000 14.9585 0.0000 3.0680
# 5 -7.9635 6.3886 -1.6797 0.0000 36.4789 0.0000
# 6 0.0000 0.0000 0.0000 3.0680 0.0000 29.3253
#
#
#
# Elastic Compliance Matrix: (Units=1/GPa)
#
#
# Indices 1 2 3 4 5 6 
#
# 1 0.013416 -0.004347 -0.003452 0.000000 0.003531 0.000000
# 2 -0.004347 0.018140 -0.000991 0.000000 -0.004171 0.000000
# 3 -0.003452 -0.000991 0.013341 0.000000 0.000034 0.000000
# 4 0.000000 0.000000 0.000000 0.068318 0.000000 -0.007147
# 5 0.003531 -0.004171 0.000034 0.000000 0.028916 0.000000
# 6 0.000000 0.000000 0.000000 -0.007147 0.000000 0.034848
#
#
# Mechanical properties :
#
#
# Convention : Reuss Voigt Hill
#
# Bulk Modulus (GPa) = 36.60543 38.44725 37.52634
# Shear Modulus (GPa) = 24.55025 28.03461 26.29243
#
# Velocity S-wave (km/s) = 3.25356 3.47679 3.36703
# Velocity P-wave (km/s) = 5.46790 5.71798 5.59434
#
# Compressibility (1/GPa) = 0.02731835
#
# Stress axis : x y z
#
# Youngs Moduli (GPa) = 74.53541 55.12765 74.95641
#
# Poissons Ratio (x) = 0.23965 0.25872
# Poissons Ratio (y) = 0.32401 0.07426
# Poissons Ratio (z) = 0.25726 0.05462
#
# Static dielectric constant tensor:
#      x y z
#    x 1.952160 0.000000 -0.016140 
#    y 0.000000 1.957420 0.000000 
#    z -0.016140 0.000000 1.899800 
# 
# From -- ./inp_files/42199.got.cif
#   From: 2010.05.17/outbox.cif.g08.bks.cpg/sg15_22_cif.got.tgz:42199.got - 2010.06.03 18:47:42.
