data_PCOD9271411
_publ_section_title
;
Structure prediction by ZEFSAII (Michael W. Deem and Ramdas Pophale) SiO2 
 PCOD9271411
Probable space group: C 2/C
;
_chemical_formula_sum "Si O2"
_cell_formula_units_Z 64
_cell_length_a 16.286872
_cell_length_b 17.654600
_cell_length_c 13.893352
_cell_angle_alpha 90.000000
_cell_angle_beta 44.056194
_cell_angle_gamma 90.000000
_cell_volume 2777.886660
_symmetry_space_group_name_H-M "C 2/C"
_symmetry_group_IT_number 15
_symmetry_cell_setting 'monoclinic'
loop_
_space_group_symop_operation_xyz
x,y,z
-x,y,1/2-z
-x,-y,-z
x,-y,1/2+z
1/2+x,1/2+y,z
1/2-x,1/2+y,1/2-z
1/2-x,1/2-y,-z
1/2+x,1/2-y,1/2+z
loop_
_atom_site_type_symbol
_atom_site_label
_atom_site_fract_x
_atom_site_fract_y
_atom_site_fract_z
Si Si1 0.570618 0.531625 0.547771
Si Si2 0.521834 0.747566 0.378045
Si Si3 0.812850 0.625054 0.811095
Si Si4 0.835001 0.086184 0.826354
Si Si5 0.644496 0.274403 0.309817
Si Si6 0.390074 0.378661 0.909068
Si Si7 0.790808 0.866078 0.717181
Si Si8 0.860006 0.506264 0.618978
O O1 0.431240 0.543785 0.678370
O O2 0.633624 0.559341 0.593447
O O3 0.592276 0.442030 0.521741
O O4 0.625191 0.584970 0.421471
O O5 0.567615 0.826825 0.301426
O O6 0.472780 0.745742 0.529413
O O7 0.419212 0.708749 0.403769
O O8 0.626672 0.684691 0.283557
O O9 0.725615 0.674505 0.813999
O O10 0.830507 0.543860 0.747253
O O11 0.752697 0.620075 0.967106
O O12 0.863941 0.173391 0.777178
O O13 0.704446 0.061326 0.903784
O O14 0.712217 0.196969 0.230493
O O15 0.500000 0.404655 0.750000
O O16 0.703184 0.925553 0.839485
O O17 0.000000 0.500000 0.500000
#
# Coordination Sequence:
#
# PCOD9271411 Si02
#       8
#     8   8   8   8   8   8   8   8
#     4  11  21  37  62  96 123 156 206 259 308 369
#     4  10  20  36  59  85 119 155 203 257 306 362
#     4   9  20  36  55  83 119 151 204 253 298 364
#     4  10  21  38  61  90 128 158 201 260 307 361
#     4   9  19  35  56  89 119 153 198 256 304 364
#     4  11  21  35  59  87 121 153 204 259 305 360
#     4  11  21  34  63  89 115 162 210 248 315 363
#     4  11  22  38  62  87 121 168 205 251 309 368
#
# _framework density 23.039096000000001
#
# number of rings (size 3 to 8) (size 9 to 14) (size 15 to 20)
#    0.000    1.750    3.750    1.500    0.000    2.000 
#    0.000    0.625    2.750    0.000    0.000    0.000 
#    0.000    0.000    0.000    0.000    0.000    0.000 
#
# Total GULP energy -178429.672747 kJ/mol
# GULP energy per Si atom -5575.927273 kJ/mol
# Density = 2.298666 g / cm^3
# Si number density = 23.039096 Si / 1000 Ang^3
#
#
#
# Elastic Constant Matrix: (Units=GPa)
#
#
# Indices 1 2 3 4 5 6 
#
# 1 71.4207 14.1739 40.5696 0.0000 0.8533 0.0000
# 2 14.1739 93.8828 13.5503 0.0000 0.7401 0.0000
# 3 40.5696 13.5503 118.7533 0.0000 -16.3294 0.0000
# 4 0.0000 0.0000 0.0000 33.5951 0.0000 -10.8273
# 5 0.8533 0.7401 -16.3294 0.0000 29.2658 0.0000
# 6 0.0000 0.0000 0.0000 -10.8273 0.0000 26.3414
#
#
#
# Elastic Compliance Matrix: (Units=1/GPa)
#
#
# Indices 1 2 3 4 5 6 
#
# 1 0.018127 -0.001757 -0.006562 0.000000 -0.004146 0.000000
# 2 -0.001757 0.011030 -0.000747 0.000000 -0.000644 0.000000
# 3 -0.006562 -0.000747 0.011672 0.000000 0.006723 0.000000
# 4 0.000000 0.000000 0.000000 0.034312 0.000000 0.014103
# 5 -0.004146 -0.000644 0.006723 0.000000 0.038058 0.000000
# 6 0.000000 0.000000 0.000000 0.014103 0.000000 0.043760
#
#
# Mechanical properties :
#
#
# Convention : Reuss Voigt Hill
#
# Bulk Modulus (GPa) = 44.05878 46.73827 45.39852
# Shear Modulus (GPa) = 27.37360 32.22466 29.79913
#
# Velocity S-wave (km/s) = 3.45068 3.74397 3.60031
# Velocity P-wave (km/s) = 5.91956 6.24662 6.08529
#
# Compressibility (1/GPa) = 0.02269695
#
# Stress axis : x y z
#
# Youngs Moduli (GPa) = 55.16490 90.66418 85.67181
#
# Poissons Ratio (x) = 0.15929 0.56222
# Poissons Ratio (y) = 0.09692 0.06399
# Poissons Ratio (z) = 0.36202 0.06772
#
# Static dielectric constant tensor:
#      x y z
#    x 1.962130 0.000000 0.013290 
#    y 0.000000 1.866450 0.000000 
#    z 0.013290 0.000000 1.934710 
# 
# From -- ./inp_files/216139.got.cif
#   From: 2010.05.17/outbox.cif.g08.bks.cpg/sg15_109_cif.got.tgz:216139.got - 2010.06.03 18:47:42.
