data_PCOD9271746
_publ_section_title
;
Structure prediction by ZEFSAII (Michael W. Deem and Ramdas Pophale) SiO2 
 PCOD9271746
Probable space group: C 2/C
;
_chemical_formula_sum "Si O2"
_cell_formula_units_Z 40
_cell_length_a 7.596303
_cell_length_b 13.732643
_cell_length_c 15.663784
_cell_angle_alpha 90.000000
_cell_angle_beta 77.735545
_cell_angle_gamma 90.000000
_cell_volume 1596.711944
_symmetry_space_group_name_H-M "C 2/C"
_symmetry_group_IT_number 15
_symmetry_cell_setting 'monoclinic'
loop_
_space_group_symop_operation_xyz
x,y,z
-x,y,1/2-z
-x,-y,-z
x,-y,1/2+z
1/2+x,1/2+y,z
1/2-x,1/2+y,1/2-z
1/2-x,1/2-y,-z
1/2+x,1/2-y,1/2+z
loop_
_atom_site_type_symbol
_atom_site_label
_atom_site_fract_x
_atom_site_fract_y
_atom_site_fract_z
Si Si1 0.067884 0.289392 0.443665
Si Si2 0.755018 0.591146 0.443857
Si Si3 0.363012 0.540072 0.689263
Si Si4 0.725981 0.266997 0.378862
Si Si5 0.893832 0.588433 0.187835
O O1 0.202948 0.374978 0.462284
O O2 0.187850 0.194461 0.412396
O O3 0.918117 0.310282 0.388342
O O4 0.927494 0.252210 0.532858
O O5 0.631436 0.512396 0.405766
O O6 0.957289 0.562228 0.396569
O O7 0.500000 0.514578 0.750000
O O8 0.357840 0.653737 0.674027
O O9 0.184784 0.500364 0.752584
O O10 0.752175 0.160239 0.337147
O O11 0.000000 0.648033 0.250000
#
# Coordination Sequence:
#
# PCOD9271746 Si02
#       5
#     8   8   8   8   8
#     4   9  19  38  62  84 113 154 194 245 301 348
#     4   9  19  38  58  82 115 152 194 240 295 352
#     4  11  22  36  58  87 119 158 199 241 292 350
#     4  10  20  36  61  88 115 152 198 245 298 354
#     4   9  19  38  56  79 120 155 194 247 293 349
#
# _framework density 25.051480000000002
#
# number of rings (size 3 to 8) (size 9 to 14) (size 15 to 20)
#    0.000    2.400    0.000    1.800    0.000    1.600 
#    0.000   33.000    0.000    0.000    0.000    0.000 
#    0.000    0.000    0.000    0.000    0.000    0.000 
#
# Total GULP energy -111338.567109 kJ/mol
# GULP energy per Si atom -5566.928355 kJ/mol
# Density = 2.499446 g / cm^3
# Si number density = 25.051480 Si / 1000 Ang^3
#
#
#
# Elastic Constant Matrix: (Units=GPa)
#
#
# Indices 1 2 3 4 5 6 
#
# 1 109.6121 -1.4751 9.6138 0.0000 33.7972 0.0000
# 2 -1.4751 55.6460 8.4592 0.0000 0.1698 0.0000
# 3 9.6138 8.4592 30.6887 0.0000 -1.5134 0.0000
# 4 0.0000 0.0000 0.0000 32.3548 0.0000 12.3252
# 5 33.7972 0.1698 -1.5134 0.0000 30.7545 0.0000
# 6 0.0000 0.0000 0.0000 12.3252 0.0000 26.7704
#
#
#
# Elastic Compliance Matrix: (Units=1/GPa)
#
#
# Indices 1 2 3 4 5 6 
#
# 1 0.014730 0.001321 -0.005791 0.000000 -0.016480 0.000000
# 2 0.001321 0.018879 -0.005708 0.000000 -0.001837 0.000000
# 3 -0.005791 -0.005708 0.036377 0.000000 0.008186 0.000000
# 4 0.000000 0.000000 0.000000 0.037481 0.000000 -0.017256
# 5 -0.016480 -0.001837 0.008186 0.000000 0.051038 0.000000
# 6 0.000000 0.000000 0.000000 -0.017256 0.000000 0.045300
#
#
# Mechanical properties :
#
#
# Convention : Reuss Voigt Hill
#
# Bulk Modulus (GPa) = 20.14963 25.46030 22.80497
# Shear Modulus (GPa) = 20.77234 29.93254 25.35244
#
# Velocity S-wave (km/s) = 2.88268 3.46040 3.18467
# Velocity P-wave (km/s) = 4.37499 5.11381 4.75876
#
# Compressibility (1/GPa) = 0.04962871
#
# Stress axis : x y z
#
# Youngs Moduli (GPa) = 67.88859 52.96854 27.49017
#
# Poissons Ratio (x) = -0.06998 0.15920
# Poissons Ratio (y) = -0.08969 0.15692
# Poissons Ratio (z) = 0.39316 0.30236
#
# Static dielectric constant tensor:
#      x y z
#    x 2.155330 0.000000 0.097370 
#    y 0.000000 1.930600 0.000000 
#    z 0.097370 0.000000 2.105720 
# 
# From -- ./inp_files/187828.got.cif
#   From: 2010.05.17/outbox.cif.g08.bks.cpg/sg15_94_cif.got.tgz:187828.got - 2010.06.03 18:47:42.
