data_PCOD9271782
_publ_section_title
;
Structure prediction by ZEFSAII (Michael W. Deem and Ramdas Pophale) SiO2 
 PCOD9271782
Probable space group: C 2/C
;
_chemical_formula_sum "Si O2"
_cell_formula_units_Z 52
_cell_length_a 9.029324
_cell_length_b 20.846879
_cell_length_c 17.592272
_cell_angle_alpha 90.000000
_cell_angle_beta 124.839125
_cell_angle_gamma 90.000000
_cell_volume 2717.903460
_symmetry_space_group_name_H-M "C 2/C"
_symmetry_group_IT_number 15
_symmetry_cell_setting 'monoclinic'
loop_
_space_group_symop_operation_xyz
x,y,z
-x,y,1/2-z
-x,-y,-z
x,-y,1/2+z
1/2+x,1/2+y,z
1/2-x,1/2+y,1/2-z
1/2-x,1/2-y,-z
1/2+x,1/2-y,1/2+z
loop_
_atom_site_type_symbol
_atom_site_label
_atom_site_fract_x
_atom_site_fract_y
_atom_site_fract_z
Si Si1 0.137984 0.316173 0.452864
Si Si2 0.773477 0.686106 0.286600
Si Si3 0.000000 0.615377 0.250000
Si Si4 0.742934 0.567411 0.053511
Si Si5 0.500000 0.422506 0.750000
Si Si6 0.629835 0.809540 0.991706
Si Si7 0.500000 0.206102 0.750000
Si Si8 0.388048 0.438013 0.553749
O O1 0.250000 0.250000 0.500000
O O2 0.092769 0.326870 0.350147
O O3 0.263398 0.374687 0.518152
O O4 0.953640 0.311096 0.448028
O O5 0.666776 0.625044 0.286242
O O6 0.647846 0.747106 0.255459
O O7 0.838131 0.663434 0.223552
O O8 0.950755 0.695368 0.387813
O O9 0.080464 0.572968 0.340996
O O10 0.561105 0.575058 0.050567
O O11 0.767516 0.624854 0.000425
O O12 0.723899 0.498016 0.010458
O O13 0.461792 0.456398 0.659166
O O14 0.750000 0.750000 0.000000
#
# Coordination Sequence:
#
# PCOD9271782 Si02
#       8
#     8   8   4   8   4   8   4   8
#     4  12  23  41  63  94 129 167 210 262 313 381
#     4  10  20  36  61  91 123 165 210 252 305 376
#     4  10  20  37  62  94 124 161 214 256 308 385
#     4  10  24  41  65  94 123 172 205 267 318 374
#     4  11  18  40  64  92 114 171 220 252 294 393
#     4  11  23  39  65  94 128 163 210 267 316 370
#     4  11  24  37  60  98 124 170 208 256 324 366
#     4  11  23  43  66  88 131 167 216 258 319 377
#
# _framework density 19.132394999999999
#
# number of rings (size 3 to 8) (size 9 to 14) (size 15 to 20)
#    0.000    1.231    4.615    1.846    4.308    1.231 
#    0.000    3.077    0.000    0.000    0.000    0.000 
#    0.000    0.000    0.000    0.000    0.000    0.000 
#
# Total GULP energy -145000.141208 kJ/mol
# GULP energy per Si atom -5576.928508 kJ/mol
# Density = 1.908885 g / cm^3
# Si number density = 19.132395 Si / 1000 Ang^3
#
#
#
# Elastic Constant Matrix: (Units=GPa)
#
#
# Indices 1 2 3 4 5 6 
#
# 1 107.6936 52.3164 21.7233 0.0000 -4.7620 0.0000
# 2 52.3164 101.3664 34.1981 0.0000 -1.4675 0.0000
# 3 21.7233 34.1981 107.4928 0.0000 -13.5313 0.0000
# 4 0.0000 0.0000 0.0000 24.4520 0.0000 -4.0387
# 5 -4.7620 -1.4675 -13.5313 0.0000 34.0166 0.0000
# 6 0.0000 0.0000 0.0000 -4.0387 0.0000 7.5585
#
#
#
# Elastic Compliance Matrix: (Units=1/GPa)
#
#
# Indices 1 2 3 4 5 6 
#
# 1 0.012477 -0.006303 -0.000348 0.000000 0.001336 0.000000
# 2 -0.006303 0.014266 -0.003472 0.000000 -0.001648 0.000000
# 3 -0.000348 -0.003472 0.011004 0.000000 0.004179 0.000000
# 4 0.000000 0.000000 0.000000 0.044855 0.000000 0.023967
# 5 0.001336 -0.001648 0.004179 0.000000 0.031176 0.000000
# 6 0.000000 0.000000 0.000000 0.023967 0.000000 0.145107
#
#
# Mechanical properties :
#
#
# Convention : Reuss Voigt Hill
#
# Bulk Modulus (GPa) = 57.14162 59.22538 58.18350
# Shear Modulus (GPa) = 17.54610 27.09310 22.31960
#
# Velocity S-wave (km/s) = 3.03163 3.76717 3.41924
# Velocity P-wave (km/s) = 6.49505 7.06717 6.78714
#
# Compressibility (1/GPa) = 0.01750038
#
# Stress axis : x y z
#
# Youngs Moduli (GPa) = 80.15002 70.09864 90.87608
#
# Poissons Ratio (x) = 0.44180 0.03163
# Poissons Ratio (y) = 0.50515 0.31555
# Poissons Ratio (z) = 0.02790 0.24340
#
# Static dielectric constant tensor:
#      x y z
#    x 1.715680 0.000000 -0.057940 
#    y 0.000000 1.632990 0.000000 
#    z -0.057940 0.000000 1.694900 
# 
# From -- ./inp_files/136085.got.cif
#   From: 2010.05.17/outbox.cif.g08.bks.cpg/sg15_69_cif.got.tgz:136085.got - 2010.06.03 18:47:42.
