data_PCOD9271375
_publ_section_title
;
Structure prediction by ZEFSAII (Michael W. Deem and Ramdas Pophale) SiO2 
 PCOD9271375
Probable space group: C 2/C
;
_chemical_formula_sum "Si O2"
_cell_formula_units_Z 48
_cell_length_a 7.157060
_cell_length_b 12.316864
_cell_length_c 19.343435
_cell_angle_alpha 90.000000
_cell_angle_beta 83.427957
_cell_angle_gamma 90.000000
_cell_volume 1693.967673
_symmetry_space_group_name_H-M "C 2/C"
_symmetry_group_IT_number 15
_symmetry_cell_setting 'monoclinic'
loop_
_space_group_symop_operation_xyz
x,y,z
-x,y,1/2-z
-x,-y,-z
x,-y,1/2+z
1/2+x,1/2+y,z
1/2-x,1/2+y,1/2-z
1/2-x,1/2-y,-z
1/2+x,1/2-y,1/2+z
loop_
_atom_site_type_symbol
_atom_site_label
_atom_site_fract_x
_atom_site_fract_y
_atom_site_fract_z
Si Si1 0.715605 0.386572 0.763965
Si Si2 0.788214 0.873932 0.233555
Si Si3 0.118807 0.661259 0.095627
Si Si4 0.865981 0.644776 0.909775
Si Si5 0.306174 0.373249 0.934133
Si Si6 0.231972 0.100568 0.559828
O O1 0.500000 0.396953 0.750000
O O2 0.742693 0.255559 0.747104
O O3 0.790996 0.507941 0.733816
O O4 0.798281 0.385198 0.838013
O O5 0.736047 0.883136 0.155451
O O6 0.000000 0.876781 0.250000
O O7 0.144971 0.790880 0.092655
O O8 0.896263 0.643188 0.093711
O O9 0.228522 0.616444 0.023491
O O10 0.927107 0.771887 0.905844
O O11 0.058867 0.584969 0.918159
O O12 0.733445 0.634699 0.982269
O O13 0.381011 0.492521 0.918407
#
# Coordination Sequence:
#
# PCOD9271375 Si02
#       6
#     8   8   8   8   8   8
#     4  11  24  40  59  84 116 154 193 234 280 335
#     4  11  24  40  59  84 116 154 193 234 280 335
#     4  10  20  37  58  83 112 145 186 229 281 335
#     4  10  20  37  58  83 112 145 186 229 281 335
#     4  10  20  36  59  83 111 144 180 232 285 332
#     4  10  20  36  59  83 111 144 180 232 285 332
#
# _framework density 28.335843000000001
#
# number of rings (size 3 to 8) (size 9 to 14) (size 15 to 20)
#    0.000    1.667    0.000    6.000    0.000    2.000 
#    0.000   16.667    0.000    0.000    0.000    0.000 
#    0.000    0.000    0.000    0.000    0.000    0.000 
#
# Total GULP energy -134290.927812 kJ/mol
# GULP energy per Si atom -5595.455325 kJ/mol
# Density = 2.827135 g / cm^3
# Si number density = 28.335843 Si / 1000 Ang^3
#
#
#
# Elastic Constant Matrix: (Units=GPa)
#
#
# Indices 1 2 3 4 5 6 
#
# 1 75.6542 24.4247 31.8334 0.0000 31.2927 0.0000
# 2 24.4247 284.2475 17.0378 0.0000 -14.2849 0.0000
# 3 31.8334 17.0378 208.0181 0.0000 40.7581 0.0000
# 4 0.0000 0.0000 0.0000 -52.3110 0.0000 -15.0022
# 5 31.2927 -14.2849 40.7581 0.0000 39.6966 0.0000
# 6 0.0000 0.0000 0.0000 -15.0022 0.0000 39.9575
#
#
#
# Elastic Compliance Matrix: (Units=1/GPa)
#
#
# Indices 1 2 3 4 5 6 
#
# 1 0.021595 -0.002827 0.000578 0.000000 -0.018634 0.000000
# 2 -0.002827 0.004032 -0.000774 0.000000 0.004474 0.000000
# 3 0.000578 -0.000774 0.006167 0.000000 -0.007066 0.000000
# 4 0.000000 0.000000 0.000000 -0.017258 0.000000 -0.006480
# 5 -0.018634 0.004474 -0.007066 0.000000 0.048745 0.000000
# 6 0.000000 0.000000 0.000000 -0.006480 0.000000 0.022594
#
#
# Mechanical properties :
#
#
# Convention : Reuss Voigt Hill
#
# Bulk Modulus (GPa) = 38.83895 79.39018 59.11457
# Shear Modulus (GPa) = 49.74967 38.44353 44.09660
#
# Velocity S-wave (km/s) = 4.19467 3.68735 3.94917
# Velocity P-wave (km/s) = 6.09892 6.79758 6.45771
#
# Compressibility (1/GPa) = 0.02574735
#
# Stress axis : x y z
#
# Youngs Moduli (GPa) = 46.30726 248.00202 162.16098
#
# Poissons Ratio (x) = 0.70102 -0.09370
# Poissons Ratio (y) = 0.13090 0.12557
# Poissons Ratio (z) = -0.02676 0.19205
#
# Static dielectric constant tensor:
#      x y z
#    x 2.142940 0.000000 -0.114610 
#    y 0.000000 2.254440 0.000000 
#    z -0.114610 0.000000 2.192160 
# 
# From -- ./inp_files/263574.got.cif
#   From: 2010.05.17/outbox.cif.g08.bks.cpg/sg15_132_cif.got.tgz:263574.got - 2010.06.03 18:47:42.
