data_PCOD9271372
_publ_section_title
;
Structure prediction by ZEFSAII (Michael W. Deem and Ramdas Pophale) SiO2 
 PCOD9271372
Probable space group: C 2/C
;
_chemical_formula_sum "Si O2"
_cell_formula_units_Z 60
_cell_length_a 8.482886
_cell_length_b 11.616486
_cell_length_c 32.097325
_cell_angle_alpha 90.000000
_cell_angle_beta 118.274533
_cell_angle_gamma 90.000000
_cell_volume 2785.539478
_symmetry_space_group_name_H-M "C 2/C"
_symmetry_group_IT_number 15
_symmetry_cell_setting 'monoclinic'
loop_
_space_group_symop_operation_xyz
x,y,z
-x,y,1/2-z
-x,-y,-z
x,-y,1/2+z
1/2+x,1/2+y,z
1/2-x,1/2+y,1/2-z
1/2-x,1/2-y,-z
1/2+x,1/2-y,1/2+z
loop_
_atom_site_type_symbol
_atom_site_label
_atom_site_fract_x
_atom_site_fract_y
_atom_site_fract_z
Si Si1 0.897207 0.502689 0.825279
Si Si2 0.204953 0.727968 0.722016
Si Si3 0.367034 0.353004 0.994953
Si Si4 0.500000 0.918819 0.750000
Si Si5 0.170994 0.753608 0.083879
Si Si6 0.436114 0.236703 0.548754
Si Si7 0.711190 0.739767 0.312952
Si Si8 0.537310 0.014720 0.433777
O O1 0.788467 0.621541 0.808656
O O2 0.771020 0.391798 0.813324
O O3 0.989880 0.490630 0.791539
O O4 0.022868 0.497486 0.881733
O O5 0.329194 0.834152 0.725336
O O6 0.258053 0.694740 0.776223
O O7 0.997493 0.760382 0.701951
O O8 0.425652 0.322086 0.955289
O O9 0.236092 0.460417 0.975864
O O10 0.250000 0.250000 0.000000
O O11 0.545634 0.346058 0.044894
O O12 0.365367 0.747037 0.086628
O O13 0.186152 0.784446 0.133893
O O14 0.082254 0.625918 0.069454
O O15 0.250000 0.250000 0.500000
O O16 0.515930 0.108468 0.554461
#
# Coordination Sequence:
#
# PCOD9271372 Si02
#       8
#     8   8   8   4   8   8   8   8
#     4  10  21  37  58  85 114 150 190 230 284 339
#     4  10  20  36  59  82 115 151 182 235 290 334
#     4   9  20  37  59  83 114 149 186 233 281 328
#     4  10  22  36  58  88 112 144 194 234 278 346
#     4   9  19  36  57  83 112 149 193 233 281 338
#     4  10  21  35  56  82 110 147 190 229 277 333
#     4   9  19  36  57  81 114 149 187 235 284 338
#     4  10  21  38  58  82 117 152 187 236 283 330
#
# _framework density 21.539812999999999
#
# number of rings (size 3 to 8) (size 9 to 14) (size 15 to 20)
#    0.000    2.400    0.000    1.600    0.000   11.200 
#    0.000    1.333    0.000   19.200    0.000    0.000 
#    0.000    0.000    0.000    0.000    0.000    0.000 
#
# Total GULP energy -167370.249350 kJ/mol
# GULP energy per Si atom -5579.008312 kJ/mol
# Density = 2.149079 g / cm^3
# Si number density = 21.539813 Si / 1000 Ang^3
#
#
#
# Elastic Constant Matrix: (Units=GPa)
#
#
# Indices 1 2 3 4 5 6 
#
# 1 45.9795 7.1960 0.3836 0.0000 -2.9811 0.0000
# 2 7.1960 48.9416 19.2124 0.0000 6.5659 0.0000
# 3 0.3836 19.2124 86.9632 0.0000 -0.7926 0.0000
# 4 0.0000 0.0000 0.0000 30.1784 0.0000 1.0756
# 5 -2.9811 6.5659 -0.7926 0.0000 18.8586 0.0000
# 6 0.0000 0.0000 0.0000 1.0756 0.0000 25.3157
#
#
#
# Elastic Compliance Matrix: (Units=1/GPa)
#
#
# Indices 1 2 3 4 5 6 
#
# 1 0.022765 -0.004402 0.000919 0.000000 0.005170 0.000000
# 2 -0.004402 0.024499 -0.005479 0.000000 -0.009456 0.000000
# 3 0.000919 -0.005479 0.012729 0.000000 0.002588 0.000000
# 4 0.000000 0.000000 0.000000 0.033187 0.000000 -0.001410
# 5 0.005170 -0.009456 0.002588 0.000000 0.057244 0.000000
# 6 0.000000 0.000000 0.000000 -0.001410 0.000000 0.039561
#
#
# Mechanical properties :
#
#
# Convention : Reuss Voigt Hill
#
# Bulk Modulus (GPa) = 23.76985 26.16315 24.96650
# Shear Modulus (GPa) = 22.52939 25.21003 23.86971
#
# Velocity S-wave (km/s) = 3.23761 3.42481 3.33253
# Velocity P-wave (km/s) = 5.00354 5.27370 5.14040
#
# Compressibility (1/GPa) = 0.04207010
#
# Stress axis : x y z
#
# Youngs Moduli (GPa) = 43.92669 40.81766 78.55977
#
# Poissons Ratio (x) = 0.17966 -0.07221
# Poissons Ratio (y) = 0.19335 0.43045
# Poissons Ratio (z) = -0.04037 0.22365
#
# Static dielectric constant tensor:
#      x y z
#    x 1.782720 0.000000 -0.019920 
#    y 0.000000 1.777440 0.000000 
#    z -0.019920 0.000000 1.847250 
# 
# From -- ./inp_files/307151.got.cif
#   From: 2010.05.17/outbox.cif.g08.bks.cpg/sg15_154_cif.got.tgz:307151.got - 2010.06.03 18:47:42.
