data_PCOD9271750
_publ_section_title
;
Structure prediction by ZEFSAII (Michael W. Deem and Ramdas Pophale) SiO2 
 PCOD9271750
Probable space group: C 2/C
;
_chemical_formula_sum "Si O2"
_cell_formula_units_Z 64
_cell_length_a 29.817478
_cell_length_b 8.311084
_cell_length_c 24.355556
_cell_angle_alpha 90.000000
_cell_angle_beta 147.246491
_cell_angle_gamma 90.000000
_cell_volume 3265.462846
_symmetry_space_group_name_H-M "C 2/C"
_symmetry_group_IT_number 15
_symmetry_cell_setting 'monoclinic'
loop_
_space_group_symop_operation_xyz
x,y,z
-x,y,1/2-z
-x,-y,-z
x,-y,1/2+z
1/2+x,1/2+y,z
1/2-x,1/2+y,1/2-z
1/2-x,1/2-y,-z
1/2+x,1/2-y,1/2+z
loop_
_atom_site_type_symbol
_atom_site_label
_atom_site_fract_x
_atom_site_fract_y
_atom_site_fract_z
Si Si1 0.040356 0.305577 0.851042
Si Si2 0.404199 0.018163 0.772801
Si Si3 0.246754 0.690945 0.933765
Si Si4 0.358378 0.922804 0.840635
Si Si5 0.882025 0.017645 0.504166
Si Si6 0.183159 0.496232 0.547763
Si Si7 0.207210 0.272183 0.165479
Si Si8 0.955737 0.706848 0.529354
O O1 0.062376 0.137471 0.902405
O O2 0.000000 0.285428 0.750000
O O3 0.970821 0.403709 0.812842
O O4 0.127299 0.406862 0.945421
O O5 0.338455 0.097617 0.664772
O O6 0.456280 0.155874 0.857265
O O7 0.359332 0.927174 0.776136
O O8 0.256986 0.859475 0.912576
O O9 0.250000 0.750000 0.000000
O O10 0.317951 0.575022 0.979692
O O11 0.281840 0.805507 0.776408
O O12 0.342557 0.102359 0.847403
O O13 0.440111 0.841253 0.950241
O O14 0.840339 0.126600 0.413609
O O15 0.934102 0.884569 0.525484
O O16 0.230285 0.617108 0.636755
O O17 0.112932 0.405512 0.511282
#
# Coordination Sequence:
#
# PCOD9271750 Si02
#       8
#     8   8   8   8   8   8   8   8
#     4  10  21  41  63  85 125 171 204 254 323 371
#     4  11  23  40  60  94 124 154 213 269 299 369
#     4  11  22  40  64  90 121 158 214 268 304 355
#     4  11  21  37  63  90 124 163 203 251 320 373
#     4  10  21  42  59  89 122 167 208 247 313 394
#     4   8  19  38  60  84 119 163 199 244 317 373
#     4  10  20  36  61  88 120 163 199 248 315 384
#     4   9  20  38  60  83 123 161 196 248 315 378
#
# _framework density 19.599060999999999
#
# number of rings (size 3 to 8) (size 9 to 14) (size 15 to 20)
#    0.000    2.000    1.250    2.625    3.500    1.000 
#    4.500    4.375    0.000    0.000    0.000    0.000 
#    0.000    0.000    0.000    0.000    0.000    0.000 
#
# Total GULP energy -178361.045640 kJ/mol
# GULP energy per Si atom -5573.782676 kJ/mol
# Density = 1.955445 g / cm^3
# Si number density = 19.599061 Si / 1000 Ang^3
#
#
#
# Elastic Constant Matrix: (Units=GPa)
#
#
# Indices 1 2 3 4 5 6 
#
# 1 44.4949 24.9821 32.8909 0.0000 -2.1574 0.0000
# 2 24.9821 125.3374 53.7374 0.0000 3.5968 0.0000
# 3 32.8909 53.7374 102.2860 0.0000 -17.0915 0.0000
# 4 0.0000 0.0000 0.0000 25.2652 0.0000 -13.4310
# 5 -2.1574 3.5968 -17.0915 0.0000 25.4491 0.0000
# 6 0.0000 0.0000 0.0000 -13.4310 0.0000 16.8988
#
#
#
# Elastic Compliance Matrix: (Units=1/GPa)
#
#
# Indices 1 2 3 4 5 6 
#
# 1 0.030261 -0.001963 -0.009264 0.000000 -0.003379 0.000000
# 2 -0.001963 0.011225 -0.006262 0.000000 -0.005958 0.000000
# 3 -0.009264 -0.006262 0.018092 0.000000 0.012250 0.000000
# 4 0.000000 0.000000 0.000000 0.068538 0.000000 0.054473
# 5 -0.003379 -0.005958 0.012250 0.000000 0.048077 0.000000
# 6 0.000000 0.000000 0.000000 0.054473 0.000000 0.102470
#
#
# Mechanical properties :
#
#
# Convention : Reuss Voigt Hill
#
# Bulk Modulus (GPa) = 40.64882 55.03767 47.84324
# Shear Modulus (GPa) = 15.53561 24.22317 19.87939
#
# Velocity S-wave (km/s) = 2.81850 3.51940 3.18827
# Velocity P-wave (km/s) = 5.60153 6.68264 6.16582
#
# Compressibility (1/GPa) = 0.02460096
#
# Stress axis : x y z
#
# Youngs Moduli (GPa) = 33.04615 89.08384 55.27242
#
# Poissons Ratio (x) = 0.17484 0.51205
# Poissons Ratio (y) = 0.06486 0.34611
# Poissons Ratio (z) = 0.30614 0.55784
#
# Static dielectric constant tensor:
#      x y z
#    x 1.710160 0.000000 -0.016530 
#    y 0.000000 1.686150 0.000000 
#    z -0.016530 0.000000 1.715500 
# 
# From -- ./inp_files/284435.got.cif
#   From: 2010.05.17/outbox.cif.g08.bks.cpg/sg15_143_cif.got.tgz:284435.got - 2010.06.03 18:47:42.
