data_PCOD9271684
_publ_section_title
;
Structure prediction by ZEFSAII (Michael W. Deem and Ramdas Pophale) SiO2 
 PCOD9271684
Probable space group: C 2/C
;
_chemical_formula_sum "Si O2"
_cell_formula_units_Z 44
_cell_length_a 12.693339
_cell_length_b 10.910899
_cell_length_c 22.021281
_cell_angle_alpha 90.000000
_cell_angle_beta 34.077740
_cell_angle_gamma 90.000000
_cell_volume 1708.885561
_symmetry_space_group_name_H-M "C 2/C"
_symmetry_group_IT_number 15
_symmetry_cell_setting 'monoclinic'
loop_
_space_group_symop_operation_xyz
x,y,z
-x,y,1/2-z
-x,-y,-z
x,-y,1/2+z
1/2+x,1/2+y,z
1/2-x,1/2+y,1/2-z
1/2-x,1/2-y,-z
1/2+x,1/2-y,1/2+z
loop_
_atom_site_type_symbol
_atom_site_label
_atom_site_fract_x
_atom_site_fract_y
_atom_site_fract_z
Si Si1 0.862771 0.176199 0.369181
Si Si2 0.641863 0.748160 0.337551
Si Si3 0.806787 0.295298 0.879259
Si Si4 0.256441 0.998020 0.757522
Si Si5 0.684114 0.551277 0.544545
Si Si6 0.500000 0.098011 0.750000
O O1 0.959418 0.225709 0.384828
O O2 0.000000 0.118718 0.250000
O O3 0.834427 0.307189 0.351448
O O4 0.740785 0.063512 0.451676
O O5 0.645248 0.706409 0.405201
O O6 0.692943 0.890910 0.311684
O O7 0.779261 0.648919 0.236677
O O8 0.804198 0.171470 0.919506
O O9 0.000000 0.292296 0.750000
O O10 0.782584 0.409874 0.935404
O O11 0.382984 0.027914 0.755253
O O12 0.031683 0.018901 0.869530
#
# Coordination Sequence:
#
# PCOD9271684 Si02
#       6
#     8   8   8   8   8   4
#     4   8  17  34  56  84 119 169 191 240 307 386
#     4  10  21  35  62  88 125 161 205 253 310 355
#     4  11  22  36  61  91 120 154 212 267 297 355
#     4  10  20  36  60  93 120 166 201 249 306 367
#     4  10  21  36  62  88 120 164 210 245 311 366
#     4   8  18  32  58  86 124 156 198 248 302 358
#
# _framework density 25.747776000000002
#
# number of rings (size 3 to 8) (size 9 to 14) (size 15 to 20)
#    0.545    1.818    1.818    0.545    3.818    2.909 
#    0.000    0.000    4.000    7.636    0.000    0.000 
#    0.000    0.000    0.000    0.000    0.000    0.000 
#
# Total GULP energy -122601.607811 kJ/mol
# GULP energy per Si atom -5572.800355 kJ/mol
# Density = 2.568917 g / cm^3
# Si number density = 25.747776 Si / 1000 Ang^3
#
#
#
# Elastic Constant Matrix: (Units=GPa)
#
#
# Indices 1 2 3 4 5 6 
#
# 1 85.8738 22.7037 40.1285 0.0000 15.5316 0.0000
# 2 22.7037 132.5144 28.8368 0.0000 5.7590 0.0000
# 3 40.1285 28.8368 102.8671 -0.0002 8.1264 0.0001
# 4 0.0000 0.0000 -0.0002 27.0741 0.0001 5.3503
# 5 15.5316 5.7590 8.1264 0.0001 34.7133 0.0000
# 6 0.0000 0.0000 0.0001 5.3503 0.0000 23.7582
#
#
#
# Elastic Compliance Matrix: (Units=1/GPa)
#
#
# Indices 1 2 3 4 5 6 
#
# 1 0.015409 -0.001266 -0.005225 0.000000 -0.005461 0.000000
# 2 -0.001266 0.008164 -0.001765 0.000000 -0.000375 0.000000
# 3 -0.005225 -0.001765 0.012273 0.000000 -0.000243 0.000000
# 4 0.000000 0.000000 0.000000 0.038656 0.000000 -0.008705
# 5 -0.005461 -0.000375 -0.000243 0.000000 0.031370 0.000000
# 6 0.000000 0.000000 0.000000 -0.008705 0.000000 0.044051
#
#
# Mechanical properties :
#
#
# Convention : Reuss Voigt Hill
#
# Bulk Modulus (GPa) = 51.72036 56.06591 53.89313
# Shear Modulus (GPa) = 28.92196 32.41488 30.66842
#
# Velocity S-wave (km/s) = 3.35517 3.55200 3.45499
# Velocity P-wave (km/s) = 5.92794 6.21648 6.07392
#
# Compressibility (1/GPa) = 0.01933475
#
# Stress axis : x y z
#
# Youngs Moduli (GPa) = 64.89762 122.49480 81.47657
#
# Poissons Ratio (x) = 0.15504 0.42570
# Poissons Ratio (y) = 0.08214 0.14382
# Poissons Ratio (z) = 0.33907 0.21622
#
# Static dielectric constant tensor:
#      x y z
#    x 2.050260 0.000000 -0.054210 
#    y 0.000000 2.128160 0.000000 
#    z -0.054210 0.000000 2.156460 
# 
# From -- ./inp_files/243598.got.cif
#   From: 2010.05.17/outbox.cif.g08.bks.cpg/sg15_122_cif.got.tgz:243598.got - 2010.06.03 18:47:42.
