data_PCOD9271504
_publ_section_title
;
Structure prediction by ZEFSAII (Michael W. Deem and Ramdas Pophale) SiO2 
 PCOD9271504
Probable space group: C 2/C
;
_chemical_formula_sum "Si O2"
_cell_formula_units_Z 48
_cell_length_a 9.496292
_cell_length_b 19.775542
_cell_length_c 18.821064
_cell_angle_alpha 90.000000
_cell_angle_beta 48.276895
_cell_angle_gamma 90.000000
_cell_volume 2638.036022
_symmetry_space_group_name_H-M "C 2/C"
_symmetry_group_IT_number 15
_symmetry_cell_setting 'monoclinic'
loop_
_space_group_symop_operation_xyz
x,y,z
-x,y,1/2-z
-x,-y,-z
x,-y,1/2+z
1/2+x,1/2+y,z
1/2-x,1/2+y,1/2-z
1/2-x,1/2-y,-z
1/2+x,1/2-y,1/2+z
loop_
_atom_site_type_symbol
_atom_site_label
_atom_site_fract_x
_atom_site_fract_y
_atom_site_fract_z
Si Si1 0.977481 0.180090 0.936281
Si Si2 0.892140 0.673067 0.522673
Si Si3 0.234172 0.859998 0.231011
Si Si4 0.000000 0.574429 0.750000
Si Si5 0.328951 0.053808 0.053328
Si Si6 0.164327 0.053870 0.950517
Si Si7 0.500000 0.481422 0.250000
O O1 0.773270 0.154325 0.977723
O O2 0.103821 0.188590 0.822385
O O3 0.083529 0.124910 0.948458
O O4 0.948730 0.250273 0.986399
O O5 0.799053 0.664793 0.632124
O O6 0.071479 0.623786 0.458065
O O7 0.415632 0.879117 0.216237
O O8 0.112682 0.929058 0.262812
O O9 0.832661 0.532875 0.841145
O O10 0.157282 0.026454 0.158692
O O11 0.248257 0.059064 0.000918
O O12 0.500000 0.000000 0.000000
O O13 0.000000 0.000000 0.000000
#
# Coordination Sequence:
#
# PCOD9271504 Si02
#       7
#     8   8   8   4   8   8   4
#     4  10  23  39  64  91 121 168 211 254 309 374
#     4  11  21  41  65  89 125 165 212 255 310 371
#     4  11  19  40  64  87 119 166 204 246 312 379
#     4  10  20  36  59  93 114 164 202 244 308 370
#     4  12  22  39  63  94 122 166 209 259 313 368
#     4  11  22  38  62  92 125 158 213 259 305 365
#     4  12  22  38  67  91 122 162 214 254 312 378
#
# _framework density 18.195356
#
# number of rings (size 3 to 8) (size 9 to 14) (size 15 to 20)
#    0.000    1.000    5.000    3.000    0.000    0.667 
#    3.000    0.833    3.667    0.000    0.000    0.000 
#    0.000    0.000    0.000    0.000    0.000    0.000 
#
# Total GULP energy -133989.408438 kJ/mol
# GULP energy per Si atom -5582.892018 kJ/mol
# Density = 1.815394 g / cm^3
# Si number density = 18.195356 Si / 1000 Ang^3
#
#
#
# Elastic Constant Matrix: (Units=GPa)
#
#
# Indices 1 2 3 4 5 6 
#
# 1 145.7220 58.1297 52.8627 0.0000 -0.3885 0.0000
# 2 58.1297 81.9674 67.5373 0.0000 -4.1232 0.0000
# 3 52.8627 67.5373 152.8782 0.0000 -20.7230 0.0000
# 4 0.0000 0.0000 0.0000 30.8748 0.0000 -6.0945
# 5 -0.3885 -4.1232 -20.7230 0.0000 28.9289 0.0000
# 6 0.0000 0.0000 0.0000 -6.0945 0.0000 23.2476
#
#
#
# Elastic Compliance Matrix: (Units=1/GPa)
#
#
# Indices 1 2 3 4 5 6 
#
# 1 0.009635 -0.006303 -0.000721 0.000000 -0.001286 0.000000
# 2 -0.006303 0.023670 -0.008673 0.000000 -0.002924 0.000000
# 3 -0.000721 -0.008673 0.011577 0.000000 0.007048 0.000000
# 4 0.000000 0.000000 0.000000 0.034156 0.000000 0.008954
# 5 -0.001286 -0.002924 0.007048 0.000000 0.039182 0.000000
# 6 0.000000 0.000000 0.000000 0.008954 0.000000 0.045363
#
#
# Mechanical properties :
#
#
# Convention : Reuss Voigt Hill
#
# Bulk Modulus (GPa) = 74.14999 81.95855 78.05427
# Shear Modulus (GPa) = 25.06586 30.07944 27.57265
#
# Velocity S-wave (km/s) = 3.71563 4.07029 3.89700
# Velocity P-wave (km/s) = 7.69730 8.19946 7.95235
#
# Compressibility (1/GPa) = 0.01348618
#
# Stress axis : x y z
#
# Youngs Moduli (GPa) = 103.78737 42.24840 86.37444
#
# Poissons Ratio (x) = 0.26631 0.06230
# Poissons Ratio (y) = 0.65421 0.74915
# Poissons Ratio (z) = 0.07486 0.36643
#
# Static dielectric constant tensor:
#      x y z
#    x 1.657160 0.000000 0.003080 
#    y 0.000000 1.599090 0.000000 
#    z 0.003080 0.000000 1.646790 
# 
# From -- ./inp_files/135955.got.cif
#   From: 2010.05.17/outbox.cif.g08.bks.cpg/sg15_68_cif.got.tgz:135955.got - 2010.06.03 18:47:42.
