data_PCOD9271030
_publ_section_title
;
Structure prediction by ZEFSAII (Michael W. Deem and Ramdas Pophale) SiO2 
 PCOD9271030
Probable space group: C 2/C
;
_chemical_formula_sum "Si O2"
_cell_formula_units_Z 60
_cell_length_a 7.572334
_cell_length_b 24.570961
_cell_length_c 18.062610
_cell_angle_alpha 90.000000
_cell_angle_beta 115.294205
_cell_angle_gamma 90.000000
_cell_volume 3038.514103
_symmetry_space_group_name_H-M "C 2/C"
_symmetry_group_IT_number 15
_symmetry_cell_setting 'monoclinic'
loop_
_space_group_symop_operation_xyz
x,y,z
-x,y,1/2-z
-x,-y,-z
x,-y,1/2+z
1/2+x,1/2+y,z
1/2-x,1/2+y,1/2-z
1/2-x,1/2-y,-z
1/2+x,1/2-y,1/2+z
loop_
_atom_site_type_symbol
_atom_site_label
_atom_site_fract_x
_atom_site_fract_y
_atom_site_fract_z
Si Si1 0.479455 0.180908 0.364227
Si Si2 0.500000 0.275181 0.250000
Si Si3 0.097931 0.237168 0.536298
Si Si4 0.375663 0.643529 0.425643
Si Si5 0.269035 0.840216 0.196527
Si Si6 0.574089 0.562212 0.576624
Si Si7 0.222770 0.518840 0.027346
Si Si8 0.628192 0.609920 0.336521
O O1 0.528687 0.232379 0.321487
O O2 0.480540 0.206391 0.445909
O O3 0.645566 0.137408 0.378220
O O4 0.269847 0.152817 0.321387
O O5 0.672371 0.314392 0.252895
O O6 0.250000 0.250000 0.500000
O O7 0.209661 0.202056 0.619851
O O8 0.926258 0.200731 0.472677
O O9 0.462074 0.599271 0.496393
O O10 0.484176 0.640384 0.367336
O O11 0.500000 0.844446 0.250000
O O12 0.173692 0.897633 0.153984
O O13 0.734882 0.533333 0.551976
O O14 0.404938 0.522317 0.576945
O O15 0.254293 0.569432 0.088900
O O16 0.000000 0.500000 0.000000
O O17 0.500000 0.581660 0.250000
#
# Coordination Sequence:
#
# PCOD9271030 Si02
#       8
#     8   4   8   8   8   8   8   8
#     4  11  21  35  59  86 121 167 204 241 306 357
#     4  10  24  36  54  90 128 168 206 246 292 376
#     4  10  20  36  56  88 119 160 210 250 287 360
#     4  10  20  37  59  84 120 157 203 252 299 362
#     4  10  23  41  59  86 129 167 205 254 316 365
#     4   9  21  42  62  90 117 151 209 265 301 381
#     4  10  21  42  69  89 117 157 204 262 325 367
#     4  11  23  38  58  90 124 156 199 256 310 366
#
# _framework density 19.746494999999999
#
# number of rings (size 3 to 8) (size 9 to 14) (size 15 to 20)
#    0.000    1.867    1.333    2.000    1.867    3.200 
#    3.600    0.000    0.000    0.000    0.000    0.000 
#    0.000    0.000    0.000    0.000    0.000    0.000 
#
# Total GULP energy -167208.407519 kJ/mol
# GULP energy per Si atom -5573.613584 kJ/mol
# Density = 1.970155 g / cm^3
# Si number density = 19.746495 Si / 1000 Ang^3
#
#
#
# Elastic Constant Matrix: (Units=GPa)
#
#
# Indices 1 2 3 4 5 6 
#
# 1 153.2224 45.9900 40.0991 0.0000 -11.4459 0.0000
# 2 45.9900 59.6816 19.9908 0.0000 1.6888 0.0000
# 3 40.0991 19.9908 62.8701 0.0000 -3.9844 0.0000
# 4 0.0000 0.0000 0.0000 17.3465 0.0000 -3.6635
# 5 -11.4459 1.6888 -3.9844 0.0000 6.1383 0.0000
# 6 0.0000 0.0000 0.0000 -3.6635 0.0000 17.5503
#
#
#
# Elastic Compliance Matrix: (Units=1/GPa)
#
#
# Indices 1 2 3 4 5 6 
#
# 1 0.011528 -0.008386 -0.003314 0.000000 0.021653 0.000000
# 2 -0.008386 0.025390 -0.004337 0.000000 -0.025438 0.000000
# 3 -0.003314 -0.004337 0.019901 0.000000 0.007931 0.000000
# 4 0.000000 0.000000 0.000000 0.060307 0.000000 0.012589
# 5 0.021653 -0.025438 0.007931 0.000000 0.215432 0.000000
# 6 0.000000 0.000000 0.000000 0.012589 0.000000 0.059607
#
#
# Mechanical properties :
#
#
# Convention : Reuss Voigt Hill
#
# Bulk Modulus (GPa) = 40.41087 54.21491 47.31289
# Shear Modulus (GPa) = 11.56099 19.51998 15.54049
#
# Velocity S-wave (km/s) = 2.42228 3.14750 2.80840
# Velocity P-wave (km/s) = 5.32283 6.38154 5.87608
#
# Compressibility (1/GPa) = 0.02474582
#
# Stress axis : x y z
#
# Youngs Moduli (GPa) = 86.74205 39.38491 50.24832
#
# Poissons Ratio (x) = 0.33029 0.16653
# Poissons Ratio (y) = 0.72745 0.21791
# Poissons Ratio (z) = 0.28747 0.17080
#
# Static dielectric constant tensor:
#      x y z
#    x 1.722110 0.000000 -0.020080 
#    y 0.000000 1.743350 0.000000 
#    z -0.020080 0.000000 1.721440 
# 
# From -- ./inp_files/186765.got.cif
#   From: 2010.05.17/outbox.cif.g08.bks.cpg/sg15_94_cif.got.tgz:186765.got - 2010.06.03 18:47:42.
