data_PCOD9271467
_publ_section_title
;
Structure prediction by ZEFSAII (Michael W. Deem and Ramdas Pophale) SiO2 
 PCOD9271467
Probable space group: C 2/C
;
_chemical_formula_sum "Si O2"
_cell_formula_units_Z 48
_cell_length_a 9.381398
_cell_length_b 23.167600
_cell_length_c 12.577321
_cell_angle_alpha 90.000000
_cell_angle_beta 75.638190
_cell_angle_gamma 90.000000
_cell_volume 2648.182363
_symmetry_space_group_name_H-M "C 2/C"
_symmetry_group_IT_number 15
_symmetry_cell_setting 'monoclinic'
loop_
_space_group_symop_operation_xyz
x,y,z
-x,y,1/2-z
-x,-y,-z
x,-y,1/2+z
1/2+x,1/2+y,z
1/2-x,1/2+y,1/2-z
1/2-x,1/2-y,-z
1/2+x,1/2-y,1/2+z
loop_
_atom_site_type_symbol
_atom_site_label
_atom_site_fract_x
_atom_site_fract_y
_atom_site_fract_z
Si Si1 0.080089 0.548632 0.846039
Si Si2 0.277682 0.163266 0.651572
Si Si3 0.410419 0.079182 0.088789
Si Si4 0.348960 0.831792 0.896792
Si Si5 0.500000 0.230405 0.750000
Si Si6 0.000000 0.233893 0.750000
Si Si7 0.837379 0.159038 0.284110
O O1 0.210227 0.595001 0.832387
O O2 0.125121 0.482269 0.852424
O O3 0.000000 0.555668 0.750000
O O4 0.964803 0.565315 0.960197
O O5 0.275298 0.174615 0.525546
O O6 0.424645 0.191858 0.674025
O O7 0.141019 0.193272 0.734046
O O8 0.549501 0.111229 0.117537
O O9 0.274894 0.122813 0.124734
O O10 0.457190 0.778085 0.852317
O O11 0.235307 0.835250 0.819859
O O12 0.623361 0.275861 0.685497
O O13 0.000000 0.131015 0.250000
#
# Coordination Sequence:
#
# PCOD9271467 Si02
#       7
#     8   8   8   8   4   4   8
#     4  10  21  38  60  83 115 148 195 236 277 346
#     4  11  23  38  55  85 120 151 186 233 294 344
#     4  10  20  39  65  82 105 156 199 231 282 334
#     4  11  20  38  62  82 108 157 200 228 273 353
#     4  10  20  38  54  84 120 144 180 244 276 338
#     4  12  20  36  56  84 116 152 184 232 288 346
#     4  10  20  36  59  89 111 142 195 247 273 325
#
# _framework density 18.125640000000001
#
# number of rings (size 3 to 8) (size 9 to 14) (size 15 to 20)
#    0.500    1.000    4.167    1.500    0.000    0.000 
#    7.500    2.500    0.000    4.000    0.000    0.000 
#    0.000    0.000    0.000    0.000    0.000    0.000 
#
# Total GULP energy -133760.379400 kJ/mol
# GULP energy per Si atom -5573.349142 kJ/mol
# Density = 1.808439 g / cm^3
# Si number density = 18.125640 Si / 1000 Ang^3
#
#
#
# Elastic Constant Matrix: (Units=GPa)
#
#
# Indices 1 2 3 4 5 6 
#
# 1 91.1683 42.1209 28.5594 0.0000 0.5908 0.0000
# 2 42.1209 125.6915 18.8236 0.0000 -2.8531 0.0000
# 3 28.5594 18.8236 49.1512 0.0000 10.3369 0.0000
# 4 0.0000 0.0000 0.0000 19.6970 0.0000 0.4870
# 5 0.5908 -2.8531 10.3369 0.0000 17.0025 0.0000
# 6 0.0000 0.0000 0.0000 0.4870 0.0000 12.4796
#
#
#
# Elastic Compliance Matrix: (Units=1/GPa)
#
#
# Indices 1 2 3 4 5 6 
#
# 1 0.015277 -0.003800 -0.008228 0.000000 0.003834 0.000000
# 2 -0.003800 0.009614 -0.002111 0.000000 0.003029 0.000000
# 3 -0.008228 -0.002111 0.029753 0.000000 -0.018157 0.000000
# 4 0.000000 0.000000 0.000000 0.050818 0.000000 -0.001983
# 5 0.003834 0.003029 -0.018157 0.000000 0.070229 0.000000
# 6 0.000000 0.000000 0.000000 -0.001983 0.000000 0.080208
#
#
# Mechanical properties :
#
#
# Convention : Reuss Voigt Hill
#
# Bulk Modulus (GPa) = 37.92622 49.44655 43.68639
# Shear Modulus (GPa) = 17.06681 21.60295 19.33488
#
# Velocity S-wave (km/s) = 3.07185 3.45606 3.26960
# Velocity P-wave (km/s) = 5.79234 6.57760 6.19742
#
# Compressibility (1/GPa) = 0.02636698
#
# Stress axis : x y z
#
# Youngs Moduli (GPa) = 65.45758 104.01054 33.61008
#
# Poissons Ratio (x) = 0.39528 0.27653
# Poissons Ratio (y) = 0.24876 0.07094
# Poissons Ratio (z) = 0.53856 0.21955
#
# Static dielectric constant tensor:
#      x y z
#    x 1.624450 0.000000 -0.008550 
#    y 0.000000 1.654150 0.000000 
#    z -0.008550 0.000000 1.622860 
# 
# From -- ./inp_files/79215.got.cif
#   From: 2010.05.17/outbox.cif.g08.bks.cpg/sg15_40_cif.got.tgz:79215.got - 2010.06.03 18:47:42.
