data_PCOD9271948
_publ_section_title
;
Structure prediction by ZEFSAII (Michael W. Deem and Ramdas Pophale) SiO2 
 PCOD9271948
Probable space group: C 2/C
;
_chemical_formula_sum "Si O2"
_cell_formula_units_Z 56
_cell_length_a 20.585875
_cell_length_b 10.368758
_cell_length_c 12.530418
_cell_angle_alpha 90.000000
_cell_angle_beta 75.306128
_cell_angle_gamma 90.000000
_cell_volume 2587.143517
_symmetry_space_group_name_H-M "C 2/C"
_symmetry_group_IT_number 15
_symmetry_cell_setting 'monoclinic'
loop_
_space_group_symop_operation_xyz
x,y,z
-x,y,1/2-z
-x,-y,-z
x,-y,1/2+z
1/2+x,1/2+y,z
1/2-x,1/2+y,1/2-z
1/2-x,1/2-y,-z
1/2+x,1/2-y,1/2+z
loop_
_atom_site_type_symbol
_atom_site_label
_atom_site_fract_x
_atom_site_fract_y
_atom_site_fract_z
Si Si1 0.838453 0.244740 0.850433
Si Si2 0.462694 0.088004 0.370915
Si Si3 0.325402 0.932869 0.209693
Si Si4 0.329530 0.505235 0.261362
Si Si5 0.690176 0.319028 0.906036
Si Si6 0.175792 0.251018 0.082771
Si Si7 0.082931 0.633094 0.448568
O O1 0.896792 0.337610 0.862303
O O2 0.769682 0.313702 0.842258
O O3 0.864505 0.131465 0.764301
O O4 0.814382 0.169167 0.966670
O O5 0.500000 0.037491 0.250000
O O6 0.516815 0.175792 0.411872
O O7 0.442522 0.972061 0.455485
O O8 0.341420 0.814060 0.122891
O O9 0.329599 0.868603 0.326659
O O10 0.249006 0.967270 0.212562
O O11 0.370943 0.053467 0.155265
O O12 0.345450 0.567480 0.141373
O O13 0.336990 0.619028 0.345621
O O14 0.250000 0.250000 0.000000
O O15 0.125867 0.271036 0.003816
#
# Coordination Sequence:
#
# PCOD9271948 Si02
#       7
#     8   8   8   8   8   8   8
#     4  10  21  40  63  87 127 163 208 254 321 379
#     4  11  25  42  66  89 123 174 219 262 309 381
#     4  10  20  36  62  92 132 161 203 259 324 372
#     4  10  22  36  61  97 123 163 196 261 323 380
#     4   9  20  36  62  92 122 161 201 260 319 379
#     4  11  23  37  63 101 131 160 211 267 320 376
#     4  11  23  42  64  93 127 169 215 267 314 376
#
# _framework density 21.645493999999999
#
# number of rings (size 3 to 8) (size 9 to 14) (size 15 to 20)
#    0.000    1.714    2.857    0.857    6.000    1.143 
#    0.000    0.714    0.000    0.000    0.000    0.000 
#    0.000    0.000    0.000    0.000    0.000    0.000 
#
# Total GULP energy -156365.666923 kJ/mol
# GULP energy per Si atom -5584.488104 kJ/mol
# Density = 2.159623 g / cm^3
# Si number density = 21.645494 Si / 1000 Ang^3
#
#
#
# Elastic Constant Matrix: (Units=GPa)
#
#
# Indices 1 2 3 4 5 6 
#
# 1 56.0826 5.1153 6.0518 0.0000 14.6417 0.0000
# 2 5.1153 46.9891 9.9945 0.0000 12.7798 0.0000
# 3 6.0518 9.9945 93.6048 0.0000 8.1986 0.0000
# 4 0.0000 0.0000 0.0000 24.5491 0.0000 8.6289
# 5 14.6417 12.7798 8.1986 0.0000 37.5588 0.0000
# 6 0.0000 0.0000 0.0000 8.6289 0.0000 25.3060
#
#
#
# Elastic Compliance Matrix: (Units=1/GPa)
#
#
# Indices 1 2 3 4 5 6 
#
# 1 0.019886 0.000043 -0.000622 0.000000 -0.007631 0.000000
# 2 0.000043 0.023767 -0.001866 0.000000 -0.007696 0.000000
# 3 -0.000622 -0.001866 0.011057 0.000000 -0.001536 0.000000
# 4 0.000000 0.000000 0.000000 0.046282 0.000000 -0.015781
# 5 -0.007631 -0.007696 -0.001536 0.000000 0.032554 0.000000
# 6 0.000000 0.000000 0.000000 -0.015781 0.000000 0.044897
#
#
# Mechanical properties :
#
#
# Convention : Reuss Voigt Hill
#
# Bulk Modulus (GPa) = 20.07229 26.55553 23.31391
# Shear Modulus (GPa) = 25.00737 29.18378 27.09558
#
# Velocity S-wave (km/s) = 3.40268 3.67585 3.54190
# Velocity P-wave (km/s) = 4.97302 5.50553 5.24604
#
# Compressibility (1/GPa) = 0.04981993
#
# Stress axis : x y z
#
# Youngs Moduli (GPa) = 50.28574 42.07509 90.43844
#
# Poissons Ratio (x) = -0.00180 0.05624
# Poissons Ratio (y) = -0.00216 0.16879
# Poissons Ratio (z) = 0.03127 0.07853
#
# Static dielectric constant tensor:
#      x y z
#    x 1.779370 0.000000 0.009410 
#    y 0.000000 1.832250 0.000000 
#    z 0.009410 0.000000 1.842070 
# 
# From -- ./inp_files/111054.got.cif
#   From: 2010.05.17/outbox.cif.g08.bks.cpg/sg15_56_cif.got.tgz:111054.got - 2010.06.03 18:47:42.
