data_PCOD9271981
_publ_section_title
;
Structure prediction by ZEFSAII (Michael W. Deem and Ramdas Pophale) SiO2 
 PCOD9271981
Probable space group: C 2/C
;
_chemical_formula_sum "Si O2"
_cell_formula_units_Z 40
_cell_length_a 23.174830
_cell_length_b 7.537289
_cell_length_c 8.139341
_cell_angle_alpha 90.000000
_cell_angle_beta 78.253682
_cell_angle_gamma 90.000000
_cell_volume 1391.969233
_symmetry_space_group_name_H-M "C 2/C"
_symmetry_group_IT_number 15
_symmetry_cell_setting 'monoclinic'
loop_
_space_group_symop_operation_xyz
x,y,z
-x,y,1/2-z
-x,-y,-z
x,-y,1/2+z
1/2+x,1/2+y,z
1/2-x,1/2+y,1/2-z
1/2-x,1/2-y,-z
1/2+x,1/2-y,1/2+z
loop_
_atom_site_type_symbol
_atom_site_label
_atom_site_fract_x
_atom_site_fract_y
_atom_site_fract_z
Si Si1 0.976767 0.692542 0.445942
Si Si2 0.080820 0.218559 0.052507
Si Si3 0.255524 0.820968 0.246005
Si Si4 0.878189 0.461895 0.166918
Si Si5 0.181499 0.040313 0.490621
O O1 0.906905 0.663184 0.506801
O O2 0.000000 0.722895 0.250000
O O3 0.000000 0.500000 0.500000
O O4 0.012166 0.814633 0.553668
O O5 0.095283 0.354363 0.193059
O O6 0.103126 0.336765 0.884028
O O7 0.116268 0.036472 0.050213
O O8 0.308104 0.967210 0.214598
O O9 0.217591 0.859921 0.429030
O O10 0.298673 0.655671 0.180158
O O11 0.210218 0.852110 0.122518
#
# Coordination Sequence:
#
# PCOD9271981 Si02
#       5
#     8   8   8   8   8
#     4  10  20  36  62  97 134 178 233 283 337 406
#     4  11  22  40  65  97 138 182 233 284 339 407
#     4  11  24  43  67  99 134 172 227 279 349 420
#     4  11  21  37  64  95 132 178 226 281 339 408
#     4  11  25  43  67  97 133 178 223 285 347 414
#
# _framework density 28.736269
#
# number of rings (size 3 to 8) (size 9 to 14) (size 15 to 20)
#    0.000    1.200    0.000    9.000    0.000    7.200 
#    0.000    1.000    0.000    0.000    0.000    0.000 
#    0.000    0.000    0.000    0.000    0.000    0.000 
#
# Total GULP energy -111772.747643 kJ/mol
# GULP energy per Si atom -5588.637382 kJ/mol
# Density = 2.867086 g / cm^3
# Si number density = 28.736269 Si / 1000 Ang^3
#
#
#
# Elastic Constant Matrix: (Units=GPa)
#
#
# Indices 1 2 3 4 5 6 
#
# 1 122.4120 -18.0141 3.5170 0.0000 -11.9302 0.0000
# 2 -18.0141 114.0642 2.4916 0.0000 19.5537 0.0000
# 3 3.5170 2.4916 115.0775 0.0000 3.9246 0.0000
# 4 0.0000 0.0000 0.0000 39.9961 0.0000 -4.2824
# 5 -11.9302 19.5537 3.9246 0.0000 35.9223 0.0000
# 6 0.0000 0.0000 0.0000 -4.2824 0.0000 49.8213
#
#
#
# Elastic Compliance Matrix: (Units=1/GPa)
#
#
# Indices 1 2 3 4 5 6 
#
# 1 0.008550 0.000954 -0.000362 0.000000 0.002360 0.000000
# 2 0.000954 0.009776 -0.000070 0.000000 -0.004997 0.000000
# 3 -0.000362 -0.000070 0.008738 0.000000 -0.001037 0.000000
# 4 0.000000 0.000000 0.000000 0.025235 0.000000 0.002169
# 5 0.002360 -0.004997 -0.001037 0.000000 0.031455 0.000000
# 6 0.000000 0.000000 0.000000 0.002169 0.000000 0.020258
#
#
# Mechanical properties :
#
#
# Convention : Reuss Voigt Hill
#
# Bulk Modulus (GPa) = 35.58093 36.39366 35.98729
# Shear Modulus (GPa) = 44.50857 49.38520 46.94688
#
# Velocity S-wave (km/s) = 3.93983 4.15006 4.04631
# Velocity P-wave (km/s) = 5.75370 5.97128 5.86350
#
# Compressibility (1/GPa) = 0.02810495
#
# Stress axis : x y z
#
# Youngs Moduli (GPa) = 116.96054 102.29413 114.44596
#
# Poissons Ratio (x) = -0.09755 0.04148
# Poissons Ratio (y) = -0.11154 0.00806
# Poissons Ratio (z) = 0.04239 0.00720
#
# Static dielectric constant tensor:
#      x y z
#    x 2.373690 0.000000 -0.051910 
#    y 0.000000 2.490850 0.000000 
#    z -0.051910 0.000000 2.267760 
# 
# From -- ./inp_files/64529.got.cif
#   From: 2010.05.17/outbox.cif.g08.bks.cpg/sg15_33_cif.got.tgz:64529.got - 2010.06.03 18:47:42.
