data_PCOD9271413
_publ_section_title
;
Structure prediction by ZEFSAII (Michael W. Deem and Ramdas Pophale) SiO2 
 PCOD9271413
Probable space group: C 2/C
;
_chemical_formula_sum "Si O2"
_cell_formula_units_Z 56
_cell_length_a 8.571449
_cell_length_b 30.216357
_cell_length_c 19.137568
_cell_angle_alpha 90.000000
_cell_angle_beta 31.409957
_cell_angle_gamma 90.000000
_cell_volume 2583.166902
_symmetry_space_group_name_H-M "C 2/C"
_symmetry_group_IT_number 15
_symmetry_cell_setting 'monoclinic'
loop_
_space_group_symop_operation_xyz
x,y,z
-x,y,1/2-z
-x,-y,-z
x,-y,1/2+z
1/2+x,1/2+y,z
1/2-x,1/2+y,1/2-z
1/2-x,1/2-y,-z
1/2+x,1/2-y,1/2+z
loop_
_atom_site_type_symbol
_atom_site_label
_atom_site_fract_x
_atom_site_fract_y
_atom_site_fract_z
Si Si1 0.321442 0.710089 0.247923
Si Si2 0.801600 0.954392 0.490977
Si Si3 0.567249 0.139806 0.033059
Si Si4 0.190364 0.010513 0.247402
Si Si5 0.604946 0.301157 0.290194
Si Si6 0.786370 0.337557 0.488897
Si Si7 0.654504 0.414845 0.877505
O O1 0.500000 0.721457 0.250000
O O2 0.106149 0.750710 0.314641
O O3 0.558244 0.701768 0.096079
O O4 0.156148 0.663851 0.327747
O O5 0.642975 0.910508 0.520977
O O6 0.540077 0.991160 0.594675
O O7 0.897919 0.943512 0.532737
O O8 0.068181 0.969901 0.339650
O O9 0.873756 0.167700 0.918445
O O10 0.423651 0.145744 0.010868
O O11 0.143610 0.053479 0.314243
O O12 0.000000 0.013895 0.250000
O O13 0.500000 0.301503 0.250000
O O14 0.940724 0.320477 0.162130
O O15 0.587273 0.376400 0.533400
O O16 0.000000 0.398493 0.750000
#
# Coordination Sequence:
#
# PCOD9271413 Si02
#       7
#     8   8   8   8   8   8   8
#     4  10  20  36  59  85 120 162 203 247 297 358
#     4  11  24  41  63  92 122 158 205 257 308 363
#     4  10  22  40  60  87 121 160 203 248 303 367
#     4  11  23  41  64  90 121 160 202 249 308 373
#     4  10  22  37  58  89 123 158 202 253 301 353
#     4  10  21  39  61  88 122 161 203 249 300 361
#     4  10  22  40  63  93 125 161 205 255 307 363
#
# _framework density 21.678818
#
# number of rings (size 3 to 8) (size 9 to 14) (size 15 to 20)
#    0.000    1.714    0.000    4.286    0.000    6.857 
#    0.000    1.429    0.000    0.000    0.000    0.000 
#    0.000    0.000    0.000    0.000    0.000    0.000 
#
# Total GULP energy -156645.197380 kJ/mol
# GULP energy per Si atom -5594.471335 kJ/mol
# Density = 2.162948 g / cm^3
# Si number density = 21.678818 Si / 1000 Ang^3
#
#
#
# Elastic Constant Matrix: (Units=GPa)
#
#
# Indices 1 2 3 4 5 6 
#
# 1 53.6800 14.0757 18.2900 0.0000 1.2367 0.0000
# 2 14.0757 66.6872 30.5672 0.0000 -13.3179 0.0000
# 3 18.2900 30.5672 93.7522 -0.0002 -17.2126 -0.0001
# 4 0.0000 0.0000 -0.0002 29.4808 0.0001 -10.0736
# 5 1.2367 -13.3179 -17.2126 0.0001 21.7552 0.0000
# 6 0.0000 0.0000 -0.0001 -10.0736 0.0000 21.7382
#
#
#
# Elastic Compliance Matrix: (Units=1/GPa)
#
#
# Indices 1 2 3 4 5 6 
#
# 1 0.021230 -0.003973 -0.004112 0.000000 -0.006892 0.000000
# 2 -0.003973 0.019425 -0.003900 0.000000 0.009032 0.000000
# 3 -0.004112 -0.003900 0.014443 0.000000 0.009273 0.000000
# 4 0.000000 0.000000 0.000000 0.040302 0.000000 0.018676
# 5 -0.006892 0.009032 0.009273 0.000000 0.059223 0.000000
# 6 0.000000 0.000000 0.000000 0.018676 0.000000 0.054656
#
#
# Mechanical properties :
#
#
# Convention : Reuss Voigt Hill
#
# Bulk Modulus (GPa) = 32.12477 37.77613 34.95045
# Shear Modulus (GPa) = 20.52322 24.67395 22.59858
#
# Velocity S-wave (km/s) = 3.08018 3.37732 3.23217
# Velocity P-wave (km/s) = 5.24411 5.71591 5.48508
#
# Compressibility (1/GPa) = 0.03112863
#
# Stress axis : x y z
#
# Youngs Moduli (GPa) = 47.10214 51.47920 69.23874
#
# Poissons Ratio (x) = 0.20451 0.28470
# Poissons Ratio (y) = 0.18713 0.27005
# Poissons Ratio (z) = 0.19368 0.20078
#
# Static dielectric constant tensor:
#      x y z
#    x 1.768720 0.000000 -0.007240 
#    y 0.000000 1.763920 0.000000 
#    z -0.007240 0.000000 1.787720 
# 
# From -- ./inp_files/234925.got.cif
#   From: 2010.05.17/outbox.cif.g08.bks.cpg/sg15_118_cif.got.tgz:234925.got - 2010.06.03 18:47:42.
