data_PCOD9271231
_publ_section_title
;
Structure prediction by ZEFSAII (Michael W. Deem and Ramdas Pophale) SiO2 
 PCOD9271231
Probable space group: C 2/C
;
_chemical_formula_sum "Si O2"
_cell_formula_units_Z 36
_cell_length_a 7.463637
_cell_length_b 13.828579
_cell_length_c 20.099413
_cell_angle_alpha 90.000000
_cell_angle_beta 133.703631
_cell_angle_gamma 90.000000
_cell_volume 1499.697603
_symmetry_space_group_name_H-M "C 2/C"
_symmetry_group_IT_number 15
_symmetry_cell_setting 'monoclinic'
loop_
_space_group_symop_operation_xyz
x,y,z
-x,y,1/2-z
-x,-y,-z
x,-y,1/2+z
1/2+x,1/2+y,z
1/2-x,1/2+y,1/2-z
1/2-x,1/2-y,-z
1/2+x,1/2-y,1/2+z
loop_
_atom_site_type_symbol
_atom_site_label
_atom_site_fract_x
_atom_site_fract_y
_atom_site_fract_z
Si Si1 0.500000 0.982994 0.750000
Si Si2 0.164794 0.807109 0.898612
Si Si3 0.207602 0.690952 0.556093
Si Si4 0.520775 0.510690 0.925762
Si Si5 0.665021 0.200066 0.211484
O O1 0.420095 0.906821 0.786645
O O2 0.743936 0.042320 0.832012
O O3 0.263121 0.813713 0.847354
O O4 0.899204 0.758956 0.813075
O O5 0.078417 0.907402 0.908952
O O6 0.425587 0.784971 0.003918
O O7 0.250000 0.750000 0.500000
O O8 0.272580 0.582304 0.550611
O O9 0.428683 0.730925 0.657632
O O10 0.500000 0.500000 0.000000
#
# Coordination Sequence:
#
# PCOD9271231 Si02
#       5
#     4   8   8   8   8
#     4  10  22  40  58  82 120 156 198 254 298 360
#     4   9  19  37  61  83 118 160 196 244 300 362
#     4  10  20  36  58  84 115 152 197 247 297 359
#     4  11  22  38  62  89 119 159 204 249 304 366
#     4   9  19  39  59  84 119 159 200 248 304 355
#
# _framework density 24.004840000000002
#
# number of rings (size 3 to 8) (size 9 to 14) (size 15 to 20)
#    0.000    2.222    0.000    3.333    0.000    3.556 
#    0.000   26.667    0.000    0.000    0.000    0.000 
#    0.000    0.000    0.000    0.000    0.000    0.000 
#
# Total GULP energy -100386.435225 kJ/mol
# GULP energy per Si atom -5577.024179 kJ/mol
# Density = 2.395020 g / cm^3
# Si number density = 24.004840 Si / 1000 Ang^3
#
#
#
# Elastic Constant Matrix: (Units=GPa)
#
#
# Indices 1 2 3 4 5 6 
#
# 1 153.2696 10.8738 58.8473 0.0000 39.3289 0.0000
# 2 10.8738 36.8208 25.0231 0.0000 14.4918 0.0000
# 3 58.8473 25.0231 189.0496 0.0000 53.8205 0.0000
# 4 0.0000 0.0000 0.0000 32.6587 0.0000 11.1626
# 5 39.3289 14.4918 53.8205 0.0000 55.7431 0.0000
# 6 0.0000 0.0000 0.0000 11.1626 0.0000 15.3055
#
#
#
# Elastic Compliance Matrix: (Units=1/GPa)
#
#
# Indices 1 2 3 4 5 6 
#
# 1 0.008176 0.000262 -0.001266 0.000000 -0.004614 0.000000
# 2 0.000262 0.031097 -0.002542 0.000000 -0.005815 0.000000
# 3 -0.001266 -0.002542 0.007692 0.000000 -0.005873 0.000000
# 4 0.000000 0.000000 0.000000 0.040787 0.000000 -0.029747
# 5 -0.004614 -0.005815 -0.005873 0.000000 0.028377 0.000000
# 6 0.000000 0.000000 0.000000 -0.029747 0.000000 0.087031
#
#
# Mechanical properties :
#
#
# Convention : Reuss Voigt Hill
#
# Bulk Modulus (GPa) = 25.07985 63.18093 44.13039
# Shear Modulus (GPa) = 22.36698 39.70117 31.03408
#
# Velocity S-wave (km/s) = 3.05580 4.07121 3.59949
# Velocity P-wave (km/s) = 4.78760 6.96253 5.97486
#
# Compressibility (1/GPa) = 0.03987264
#
# Stress axis : x y z
#
# Youngs Moduli (GPa) = 122.30970 32.15701 130.00362
#
# Poissons Ratio (x) = -0.00842 0.16460
# Poissons Ratio (y) = -0.03204 0.33050
# Poissons Ratio (z) = 0.15485 0.08175
#
# Static dielectric constant tensor:
#      x y z
#    x 1.927740 0.000000 0.056480 
#    y 0.000000 1.764750 0.000000 
#    z 0.056480 0.000000 2.080330 
# 
# From -- ./inp_files/132732.got.cif
#   From: 2010.05.17/outbox.cif.g08.bks.cpg/sg15_67_cif.got.tgz:132732.got - 2010.06.03 18:47:42.
