data_PCOD9271500
_publ_section_title
;
Structure prediction by ZEFSAII (Michael W. Deem and Ramdas Pophale) SiO2 
 PCOD9271500
Probable space group: C 2/C
;
_chemical_formula_sum "Si O2"
_cell_formula_units_Z 60
_cell_length_a 19.759628
_cell_length_b 29.249547
_cell_length_c 4.974284
_cell_angle_alpha 90.000000
_cell_angle_beta 69.058560
_cell_angle_gamma 90.000000
_cell_volume 2685.037476
_symmetry_space_group_name_H-M "C 2/C"
_symmetry_group_IT_number 15
_symmetry_cell_setting 'monoclinic'
loop_
_space_group_symop_operation_xyz
x,y,z
-x,y,1/2-z
-x,-y,-z
x,-y,1/2+z
1/2+x,1/2+y,z
1/2-x,1/2+y,1/2-z
1/2-x,1/2-y,-z
1/2+x,1/2-y,1/2+z
loop_
_atom_site_type_symbol
_atom_site_label
_atom_site_fract_x
_atom_site_fract_y
_atom_site_fract_z
Si Si1 0.073206 0.133356 0.296849
Si Si2 0.848591 0.379310 0.506529
Si Si3 0.356215 0.675655 0.767833
Si Si4 0.691412 0.175284 0.926294
Si Si5 0.733866 0.029011 0.496931
Si Si6 0.000000 0.341702 0.250000
Si Si7 0.905656 0.968983 0.709780
Si Si8 0.930454 0.737327 0.208329
O O1 0.104198 0.159907 0.513008
O O2 0.060633 0.080445 0.390852
O O3 0.000000 0.150025 0.250000
O O4 0.131955 0.137026 0.973738
O O5 0.839507 0.363194 0.826182
O O6 0.815543 0.428739 0.512295
O O7 0.931114 0.373174 0.285887
O O8 0.805371 0.343890 0.378350
O O9 0.392761 0.721998 0.601302
O O10 0.271477 0.685617 0.918665
O O11 0.633850 0.216605 0.018848
O O12 0.818637 0.039798 0.329370
O O13 0.720394 0.986073 0.320539
O O14 0.965958 0.305889 0.509333
O O15 0.922503 0.008046 0.470033
O O16 0.000000 0.758926 0.250000
#
# Coordination Sequence:
#
# PCOD9271500 Si02
#       8
#     8   8   8   8   8   4   8   8
#     4  12  26  44  62  96 129 170 213 256 330 380
#     4  11  22  41  66  91 132 163 214 263 310 383
#     4  12  26  41  66  92 132 167 212 269 318 375
#     4  11  23  41  65  95 122 170 217 265 313 371
#     4  10  20  36  59  92 122 162 205 256 319 371
#     4  10  24  42  64  94 122 176 212 254 322 380
#     4  10  21  38  64  89 123 163 210 259 308 374
#     4  11  23  42  64  92 129 166 217 260 321 382
#
# _framework density 22.346053999999999
#
# number of rings (size 3 to 8) (size 9 to 14) (size 15 to 20)
#    0.000    1.067    1.333    5.600    2.800    2.667 
#    0.000    4.000    0.000    0.000    0.000    0.000 
#    0.000    0.000    0.000    0.000    0.000    0.000 
#
# Total GULP energy -167649.648580 kJ/mol
# GULP energy per Si atom -5588.321619 kJ/mol
# Density = 2.229519 g / cm^3
# Si number density = 22.346054 Si / 1000 Ang^3
#
#
#
# Elastic Constant Matrix: (Units=GPa)
#
#
# Indices 1 2 3 4 5 6 
#
# 1 117.3261 29.1273 22.0990 0.0000 -20.1369 0.0000
# 2 29.1273 60.9518 6.1248 0.0000 -16.0477 0.0000
# 3 22.0990 6.1248 68.4890 0.0000 1.8139 0.0000
# 4 0.0000 0.0000 0.0000 21.5186 0.0000 1.8083
# 5 -20.1369 -16.0477 1.8139 0.0000 41.3171 0.0000
# 6 0.0000 0.0000 0.0000 1.8083 0.0000 52.0446
#
#
#
# Elastic Compliance Matrix: (Units=1/GPa)
#
#
# Indices 1 2 3 4 5 6 
#
# 1 0.010741 -0.003779 -0.003231 0.000000 0.003909 0.000000
# 2 -0.003779 0.019835 -0.000711 0.000000 0.005894 0.000000
# 3 -0.003231 -0.000711 0.015774 0.000000 -0.002543 0.000000
# 4 0.000000 0.000000 0.000000 0.046608 0.000000 -0.001619
# 5 0.003909 0.005894 -0.002543 0.000000 0.028509 0.000000
# 6 0.000000 0.000000 0.000000 -0.001619 0.000000 0.019271
#
#
# Mechanical properties :
#
#
# Convention : Reuss Voigt Hill
#
# Bulk Modulus (GPa) = 32.35299 40.16325 36.25812
# Shear Modulus (GPa) = 30.03319 35.60377 32.81848
#
# Velocity S-wave (km/s) = 3.67004 3.99594 3.83645
# Velocity P-wave (km/s) = 5.69812 6.26916 5.99045
#
# Compressibility (1/GPa) = 0.03090905
#
# Stress axis : x y z
#
# Youngs Moduli (GPa) = 93.10167 50.41494 63.39382
#
# Poissons Ratio (x) = 0.19052 0.20484
# Poissons Ratio (y) = 0.35183 0.04505
# Poissons Ratio (z) = 0.30084 0.03582
#
# Static dielectric constant tensor:
#      x y z
#    x 1.875510 0.000000 -0.014410 
#    y 0.000000 1.798090 0.000000 
#    z -0.014410 0.000000 1.855580 
# 
# From -- ./inp_files/14391.got.cif
#   From: 2010.05.17/outbox.cif.g08.bks.cpg/sg15_8_cif.got.tgz:14391.got - 2010.06.03 18:47:42.
