data_PCOD9271348
_publ_section_title
;
Structure prediction by ZEFSAII (Michael W. Deem and Ramdas Pophale) SiO2 
 PCOD9271348
Probable space group: C 2/C
;
_chemical_formula_sum "Si O2"
_cell_formula_units_Z 52
_cell_length_a 17.427777
_cell_length_b 17.298490
_cell_length_c 10.597679
_cell_angle_alpha 90.000000
_cell_angle_beta 58.396098
_cell_angle_gamma 90.000000
_cell_volume 2721.091426
_symmetry_space_group_name_H-M "C 2/C"
_symmetry_group_IT_number 15
_symmetry_cell_setting 'monoclinic'
loop_
_space_group_symop_operation_xyz
x,y,z
-x,y,1/2-z
-x,-y,-z
x,-y,1/2+z
1/2+x,1/2+y,z
1/2-x,1/2+y,1/2-z
1/2-x,1/2-y,-z
1/2+x,1/2-y,1/2+z
loop_
_atom_site_type_symbol
_atom_site_label
_atom_site_fract_x
_atom_site_fract_y
_atom_site_fract_z
Si Si1 0.801050 0.734467 0.254554
Si Si2 0.696025 0.145282 0.993646
Si Si3 0.664182 0.532738 0.709441
Si Si4 0.000000 0.946782 0.750000
Si Si5 0.649188 0.633922 0.953422
Si Si6 0.784400 0.614589 0.047295
Si Si7 0.559971 0.005042 0.074555
O O1 0.717587 0.787116 0.374934
O O2 0.830776 0.686356 0.352478
O O3 0.867720 0.795522 0.128555
O O4 0.779696 0.674319 0.164399
O O5 0.792158 0.099018 0.917811
O O6 0.626063 0.079754 0.010972
O O7 0.563399 0.505013 0.773075
O O8 0.674970 0.562643 0.841535
O O9 0.721673 0.457224 0.635929
O O10 0.064495 0.892582 0.609601
O O11 0.736648 0.650104 0.964810
O O12 0.881689 0.573518 0.954643
O O13 0.500000 0.015875 0.250000
O O14 0.500000 0.000000 0.000000
#
# Coordination Sequence:
#
# PCOD9271348 Si02
#       7
#     8   8   8   4   8   8   8
#     4  10  20  39  65  86 121 159 200 250 299 382
#     4   9  21  40  66  89 115 162 209 245 310 362
#     4   9  20  36  64  85 118 150 204 247 288 365
#     4  10  20  36  58  94 118 154 190 252 306 364
#     4  10  21  38  58  90 121 156 198 246 305 373
#     4  10  22  36  63  87 119 161 203 248 309 362
#     4  11  24  40  64  94 127 165 216 266 307 369
#
# _framework density 19.109978999999999
#
# number of rings (size 3 to 8) (size 9 to 14) (size 15 to 20)
#    0.000    2.154    0.000    1.846   12.923    0.000 
#    1.385    4.615   28.769    0.000    0.000    0.000 
#    0.000    0.000    0.000    0.000    0.000    0.000 
#
# Total GULP energy -144828.654475 kJ/mol
# GULP energy per Si atom -5570.332864 kJ/mol
# Density = 1.906648 g / cm^3
# Si number density = 19.109979 Si / 1000 Ang^3
#
#
#
# Elastic Constant Matrix: (Units=GPa)
#
#
# Indices 1 2 3 4 5 6 
#
# 1 86.1048 22.0917 33.5220 0.0000 1.5093 0.0000
# 2 22.0917 88.5042 30.3777 0.0000 6.7779 0.0000
# 3 33.5220 30.3777 91.7679 0.0000 11.0511 0.0000
# 4 0.0000 0.0000 0.0000 128.7101 0.0000 -114.6180
# 5 1.5093 6.7779 11.0511 0.0000 18.1383 0.0000
# 6 0.0000 0.0000 0.0000 -114.6180 0.0000 206.3220
#
#
#
# Elastic Compliance Matrix: (Units=1/GPa)
#
#
# Indices 1 2 3 4 5 6 
#
# 1 0.013929 -0.002051 -0.004707 0.000000 0.002475 0.000000
# 2 -0.002051 0.013144 -0.003271 0.000000 -0.002748 0.000000
# 3 -0.004707 -0.003271 0.014574 0.000000 -0.007266 0.000000
# 4 0.000000 0.000000 0.000000 0.015376 0.000000 0.008542
# 5 0.002475 -0.002748 -0.007266 0.000000 0.060380 0.000000
# 6 0.000000 0.000000 0.000000 0.008542 0.000000 0.009592
#
#
# Mechanical properties :
#
#
# Convention : Reuss Voigt Hill
#
# Bulk Modulus (GPa) = 46.31928 48.70662 47.51295
# Shear Modulus (GPa) = 32.41494 82.65979 57.53737
#
# Velocity S-wave (km/s) = 4.12300 6.58397 5.49308
# Velocity P-wave (km/s) = 6.85247 9.12913 8.07148
#
# Compressibility (1/GPa) = 0.02158928
#
# Stress axis : x y z
#
# Youngs Moduli (GPa) = 71.79164 76.08065 68.61345
#
# Poissons Ratio (x) = 0.15602 0.32300
# Poissons Ratio (y) = 0.14722 0.22443
# Poissons Ratio (z) = 0.33796 0.24886
#
# Static dielectric constant tensor:
#      x y z
#    x 1.721070 0.000000 0.003640 
#    y 0.000000 1.704520 0.000000 
#    z 0.003640 0.000000 1.681580 
# 
# From -- ./inp_files/48950.got.cif
#   From: 2010.05.17/outbox.cif.g08.bks.cpg/sg15_25_cif.got.tgz:48950.got - 2010.06.03 18:47:42.
