data_PCOD9271332
_publ_section_title
;
Structure prediction by ZEFSAII (Michael W. Deem and Ramdas Pophale) SiO2 
 PCOD9271332
Probable space group: C 2/C
;
_chemical_formula_sum "Si O2"
_cell_formula_units_Z 60
_cell_length_a 23.653715
_cell_length_b 23.031798
_cell_length_c 4.961219
_cell_angle_alpha 90.000000
_cell_angle_beta 79.117763
_cell_angle_gamma 90.000000
_cell_volume 2654.206662
_symmetry_space_group_name_H-M "C 2/C"
_symmetry_group_IT_number 15
_symmetry_cell_setting 'monoclinic'
loop_
_space_group_symop_operation_xyz
x,y,z
-x,y,1/2-z
-x,-y,-z
x,-y,1/2+z
1/2+x,1/2+y,z
1/2-x,1/2+y,1/2-z
1/2-x,1/2-y,-z
1/2+x,1/2-y,1/2+z
loop_
_atom_site_type_symbol
_atom_site_label
_atom_site_fract_x
_atom_site_fract_y
_atom_site_fract_z
Si Si1 0.438739 0.781457 0.916452
Si Si2 0.768378 0.036793 0.069342
Si Si3 0.945264 0.154789 0.100655
Si Si4 0.677446 0.687278 0.112530
Si Si5 0.135968 0.692728 0.502029
Si Si6 0.720817 0.132804 0.761326
Si Si7 0.404009 0.460805 0.379886
Si Si8 0.750000 0.750000 0.500000
O O1 0.500000 0.801923 0.750000
O O2 0.394107 0.810301 0.754498
O O3 0.441798 0.711159 0.909603
O O4 0.415088 0.793796 0.237291
O O5 0.726184 0.083300 0.975727
O O6 0.835702 0.053432 0.970572
O O7 0.759620 0.980516 0.885514
O O8 0.886444 0.162942 0.323130
O O9 0.000000 0.156992 0.250000
O O10 0.939098 0.095378 0.940970
O O11 0.678201 0.749312 0.946674
O O12 0.704368 0.704959 0.372650
O O13 0.718617 0.640357 0.945360
O O14 0.170948 0.638174 0.583102
O O15 0.716079 0.194450 0.912038
O O16 0.415517 0.514491 0.573264
#
# Coordination Sequence:
#
# PCOD9271332 Si02
#       8
#     8   8   8   8   8   8   8   4
#     4  11  23  42  60  87 128 164 196 240 307 391
#     4  10  24  42  63  89 125 174 212 259 331 387
#     4  11  25  42  61  85 116 168 222 264 324 374
#     4  10  23  35  58  86 123 162 198 267 318 385
#     4  10  23  36  61  92 122 157 205 240 307 374
#     4  11  24  36  64  91 130 158 212 267 320 388
#     4  10  24  42  62  81 110 155 221 284 324 359
#     4  10  20  36  58  92 118 158 192 260 330 378
#
# _framework density 22.605625
#
# number of rings (size 3 to 8) (size 9 to 14) (size 15 to 20)
#    0.000    1.600    0.000    4.400   20.533    2.667 
#    0.000    0.000    0.000    0.000    0.000    0.000 
#    0.000   10.667    0.000    0.000    0.000    0.000 
#
# Total GULP energy -167518.281125 kJ/mol
# GULP energy per Si atom -5583.942704 kJ/mol
# Density = 2.255417 g / cm^3
# Si number density = 22.605625 Si / 1000 Ang^3
#
#
#
# Elastic Constant Matrix: (Units=GPa)
#
#
# Indices 1 2 3 4 5 6 
#
# 1 120.9628 30.2344 19.6556 0.0000 9.4897 0.0000
# 2 30.2344 72.7703 14.8539 0.0000 7.8288 0.0000
# 3 19.6556 14.8539 78.5137 0.0000 15.4208 0.0000
# 4 0.0000 0.0000 0.0000 29.5548 0.0000 17.8718
# 5 9.4897 7.8288 15.4208 0.0000 42.5248 0.0000
# 6 0.0000 0.0000 0.0000 17.8718 0.0000 21.3660
#
#
#
# Elastic Compliance Matrix: (Units=1/GPa)
#
#
# Indices 1 2 3 4 5 6 
#
# 1 0.009467 -0.003524 -0.001524 0.000000 -0.000911 0.000000
# 2 -0.003524 0.015732 -0.001808 0.000000 -0.001454 0.000000
# 3 -0.001524 -0.001808 0.014350 0.000000 -0.004531 0.000000
# 4 0.000000 0.000000 0.000000 0.068466 0.000000 -0.057269
# 5 -0.000911 -0.001454 -0.004531 0.000000 0.025630 0.000000
# 6 0.000000 0.000000 0.000000 -0.057269 0.000000 0.094707
#
#
# Mechanical properties :
#
#
# Convention : Reuss Voigt Hill
#
# Bulk Modulus (GPa) = 38.70714 44.63718 41.67216
# Shear Modulus (GPa) = 19.94599 32.52263 26.23431
#
# Velocity S-wave (km/s) = 2.97365 3.79713 3.41034
# Velocity P-wave (km/s) = 5.38053 6.24605 5.82938
#
# Compressibility (1/GPa) = 0.02583503
#
# Stress axis : x y z
#
# Youngs Moduli (GPa) = 105.62976 63.56617 69.68518
#
# Poissons Ratio (x) = 0.22402 0.10623
# Poissons Ratio (y) = 0.37226 0.12602
# Poissons Ratio (z) = 0.16102 0.11495
#
# Static dielectric constant tensor:
#      x y z
#    x 1.865700 0.000000 -0.023160 
#    y 0.000000 1.838200 0.000000 
#    z -0.023160 0.000000 1.926060 
# 
# From -- ./inp_files/15841.got.cif
#   From: 2010.05.17/outbox.cif.g08.bks.cpg/sg15_8_cif.got.tgz:15841.got - 2010.06.03 18:47:42.
