data_PCOD9271208
_publ_section_title
;
Structure prediction by ZEFSAII (Michael W. Deem and Ramdas Pophale) SiO2 
 PCOD9271208
Probable space group: C 2/C
;
_chemical_formula_sum "Si O2"
_cell_formula_units_Z 48
_cell_length_a 19.195747
_cell_length_b 8.089686
_cell_length_c 29.465603
_cell_angle_alpha 90.000000
_cell_angle_beta 157.440033
_cell_angle_gamma 90.000000
_cell_volume 1755.445763
_symmetry_space_group_name_H-M "C 2/C"
_symmetry_group_IT_number 15
_symmetry_cell_setting 'monoclinic'
loop_
_space_group_symop_operation_xyz
x,y,z
-x,y,1/2-z
-x,-y,-z
x,-y,1/2+z
1/2+x,1/2+y,z
1/2-x,1/2+y,1/2-z
1/2-x,1/2-y,-z
1/2+x,1/2-y,1/2+z
loop_
_atom_site_type_symbol
_atom_site_label
_atom_site_fract_x
_atom_site_fract_y
_atom_site_fract_z
Si Si1 0.843683 0.175998 0.708711
Si Si2 0.533498 0.166460 0.599071
Si Si3 0.224999 0.817768 0.119428
Si Si4 0.923255 0.830510 0.010686
Si Si5 0.943076 0.029624 0.106449
Si Si6 0.018930 0.507145 0.846290
O O1 0.684672 0.177933 0.651343
O O2 0.734103 0.201926 0.596414
O O3 0.958060 0.013464 0.787549
O O4 0.971918 0.334429 0.794543
O O5 0.342004 0.183225 0.457031
O O6 0.533326 0.323754 0.632540
O O7 0.560314 0.017368 0.650244
O O8 0.425268 0.859007 0.256765
O O9 0.151528 0.993480 0.054383
O O10 0.103394 0.788586 0.091207
O O11 0.961473 0.866780 0.085558
O O12 0.728049 0.050661 0.979027
#
# Coordination Sequence:
#
# PCOD9271208 Si02
#       6
#     8   8   8   8   8   8
#     4  10  20  36  58  82 113 155 197 235 282 349
#     4  10  20  36  58  82 113 155 197 235 282 349
#     4   8  16  32  54  78 106 147 191 224 270 344
#     4   8  16  32  54  78 106 147 191 224 270 344
#     4  11  21  35  56  86 116 146 191 245 298 340
#     4  11  21  35  56  86 116 146 191 245 298 340
#
# _framework density 27.343482000000002
#
# number of rings (size 3 to 8) (size 9 to 14) (size 15 to 20)
#    0.000    2.333    0.000    6.000    0.000    6.000 
#    0.000    1.667    0.000    8.000    0.000    0.000 
#    0.000    0.000    0.000    0.000    0.000    0.000 
#
# Total GULP energy -134480.383862 kJ/mol
# GULP energy per Si atom -5603.349328 kJ/mol
# Density = 2.728125 g / cm^3
# Si number density = 27.343482 Si / 1000 Ang^3
#
#
#
# Elastic Constant Matrix: (Units=GPa)
#
#
# Indices 1 2 3 4 5 6 
#
# 1 80.5885 4.7309 6.8936 0.0030 -0.1597 -0.0001
# 2 4.7309 95.7147 21.6253 0.0026 0.1766 0.0004
# 3 6.8936 21.6253 129.4752 0.0190 -1.8404 -0.0026
# 4 0.0030 0.0026 0.0190 30.4769 -0.0003 -12.8137
# 5 -0.1597 0.1766 -1.8404 -0.0003 37.7133 -0.0002
# 6 -0.0001 0.0004 -0.0026 -12.8137 -0.0002 21.3393
#
#
#
# Elastic Compliance Matrix: (Units=1/GPa)
#
#
# Indices 1 2 3 4 5 6 
#
# 1 0.012487 -0.000485 -0.000583 -0.000001 0.000027 -0.000001
# 2 -0.000485 0.010877 -0.001793 0.000000 -0.000140 0.000000
# 3 -0.000583 -0.001793 0.008060 -0.000006 0.000399 -0.000003
# 4 -0.000001 0.000000 -0.000006 0.043893 0.000000 0.026357
# 5 0.000027 -0.000140 0.000399 0.000000 0.026536 0.000000
# 6 -0.000001 0.000000 -0.000003 0.026357 0.000000 0.062688
#
#
# Mechanical properties :
#
#
# Convention : Reuss Voigt Hill
#
# Bulk Modulus (GPa) = 38.90975 41.36420 40.13697
# Shear Modulus (GPa) = 27.95929 36.07449 32.01689
#
# Velocity S-wave (km/s) = 3.20116 3.63617 3.42558
# Velocity P-wave (km/s) = 5.28433 5.72621 5.50970
#
# Compressibility (1/GPa) = 0.02570050
#
# Stress axis : x y z
#
# Youngs Moduli (GPa) = 80.08217 91.93682 124.07456
#
# Poissons Ratio (x) = 0.04463 0.07238
# Poissons Ratio (y) = 0.03888 0.22245
# Poissons Ratio (z) = 0.04672 0.16483
#
# Static dielectric constant tensor:
#      x y z
#    x 2.115380 0.000000 0.011300 
#    y 0.000000 2.178850 0.000000 
#    z 0.011300 0.000000 2.108610 
# 
# From -- ./inp_files/317815.got.cif
#   From: 2010.05.17/outbox.cif.g08.bks.cpg/sg15_159_cif.got.tgz:317815.got - 2010.06.03 18:47:42.
