data_PCOD9271839
_publ_section_title
;
Structure prediction by ZEFSAII (Michael W. Deem and Ramdas Pophale) SiO2 
 PCOD9271839
Probable space group: C 2/C
;
_chemical_formula_sum "Si O2"
_cell_formula_units_Z 52
_cell_length_a 13.193119
_cell_length_b 30.134651
_cell_length_c 7.871306
_cell_angle_alpha 90.000000
_cell_angle_beta 58.660630
_cell_angle_gamma 90.000000
_cell_volume 2672.821782
_symmetry_space_group_name_H-M "C 2/C"
_symmetry_group_IT_number 15
_symmetry_cell_setting 'monoclinic'
loop_
_space_group_symop_operation_xyz
x,y,z
-x,y,1/2-z
-x,-y,-z
x,-y,1/2+z
1/2+x,1/2+y,z
1/2-x,1/2+y,1/2-z
1/2-x,1/2-y,-z
1/2+x,1/2-y,1/2+z
loop_
_atom_site_type_symbol
_atom_site_label
_atom_site_fract_x
_atom_site_fract_y
_atom_site_fract_z
Si Si1 0.919632 0.681565 0.154188
Si Si2 0.152769 0.462522 0.963770
Si Si3 0.106640 0.443453 0.400118
Si Si4 0.270067 0.376230 0.829861
Si Si5 0.500000 0.669605 0.250000
Si Si6 0.349501 0.152733 0.705687
Si Si7 0.682397 0.270746 0.393838
O O1 0.808674 0.648353 0.242256
O O2 0.866272 0.730110 0.171898
O O3 0.000000 0.678598 0.250000
O O4 0.014682 0.668673 0.924593
O O5 0.168805 0.515087 0.935328
O O6 0.256136 0.428876 0.822859
O O7 0.126113 0.451852 0.182797
O O8 0.035827 0.448946 0.955623
O O9 0.150568 0.393834 0.396946
O O10 0.403540 0.359535 0.733411
O O11 0.204459 0.360436 0.062992
O O12 0.426957 0.700802 0.440344
O O13 0.269962 0.194941 0.722881
O O14 0.750000 0.250000 0.500000
#
# Coordination Sequence:
#
# PCOD9271839 Si02
#       7
#     8   8   8   8   4   8   8
#     4  12  24  35  54  87 117 143 184 246 294 330
#     4   9  17  30  52  79 110 140 178 229 286 332
#     4   9  17  30  52  81 108 141 178 230 283 343
#     4  10  20  37  59  84 109 151 190 235 274 346
#     4  10  20  36  62  82 102 146 212 228 262 340
#     4  10  20  37  59  76 114 153 190 229 281 342
#     4  11  21  36  60  79 109 156 198 235 271 346
#
# _framework density 19.455096000000001
#
# number of rings (size 3 to 8) (size 9 to 14) (size 15 to 20)
#    0.000    1.846    4.615    1.385    0.000    1.846 
#    0.000    0.000    0.000    8.308    0.000    0.000 
#    0.000    0.000    0.000    0.000    0.000    0.000 
#
# Total GULP energy -144991.139545 kJ/mol
# GULP energy per Si atom -5576.582290 kJ/mol
# Density = 1.941082 g / cm^3
# Si number density = 19.455096 Si / 1000 Ang^3
#
#
#
# Elastic Constant Matrix: (Units=GPa)
#
#
# Indices 1 2 3 4 5 6 
#
# 1 113.0218 55.7841 27.9783 0.0000 -10.1706 0.0000
# 2 55.7841 173.4267 24.8883 0.0000 -15.7749 0.0000
# 3 27.9783 24.8883 27.2477 0.0000 -12.6172 0.0000
# 4 0.0000 0.0000 0.0000 23.0880 0.0000 -10.6350
# 5 -10.1706 -15.7749 -12.6172 0.0000 29.4709 0.0000
# 6 0.0000 0.0000 0.0000 -10.6350 0.0000 30.7951
#
#
#
# Elastic Compliance Matrix: (Units=1/GPa)
#
#
# Indices 1 2 3 4 5 6 
#
# 1 0.012876 -0.002639 -0.011733 0.000000 -0.001992 0.000000
# 2 -0.002639 0.007211 -0.003132 0.000000 0.001608 0.000000
# 3 -0.011733 -0.003132 0.061063 0.000000 0.020417 0.000000
# 4 0.000000 0.000000 0.000000 0.051506 0.000000 0.017787
# 5 -0.001992 0.001608 0.020417 0.000000 0.042846 0.000000
# 6 0.000000 0.000000 0.000000 0.017787 0.000000 0.038615
#
#
# Mechanical properties :
#
#
# Convention : Reuss Voigt Hill
#
# Bulk Modulus (GPa) = 21.67253 58.99973 40.33613
# Shear Modulus (GPa) = 18.90330 30.34050 24.62190
#
# Velocity S-wave (km/s) = 3.12049 3.95335 3.56135
# Velocity P-wave (km/s) = 4.91398 7.15756 6.13913
#
# Compressibility (1/GPa) = 0.04614136
#
# Stress axis : x y z
#
# Youngs Moduli (GPa) = 77.66680 138.68267 16.37663
#
# Poissons Ratio (x) = 0.36598 0.19214
# Poissons Ratio (y) = 0.20496 0.05129
# Poissons Ratio (z) = 0.91125 0.43435
#
# Static dielectric constant tensor:
#      x y z
#    x 1.683900 0.000000 0.042130 
#    y 0.000000 1.719800 0.000000 
#    z 0.042130 0.000000 1.737650 
# 
# From -- ./inp_files/35086.got.cif
#   From: 2010.05.17/outbox.cif.g08.bks.cpg/sg15_18_cif.got.tgz:35086.got - 2010.06.03 18:47:42.
