data_PCOD9271745
_publ_section_title
;
Structure prediction by ZEFSAII (Michael W. Deem and Ramdas Pophale) SiO2 
 PCOD9271745
Probable space group: C 2/C
;
_chemical_formula_sum "Si O2"
_cell_formula_units_Z 48
_cell_length_a 9.455974
_cell_length_b 16.640572
_cell_length_c 21.557171
_cell_angle_alpha 90.000000
_cell_angle_beta 41.359954
_cell_angle_gamma 90.000000
_cell_volume 2241.444844
_symmetry_space_group_name_H-M "C 2/C"
_symmetry_group_IT_number 15
_symmetry_cell_setting 'monoclinic'
loop_
_space_group_symop_operation_xyz
x,y,z
-x,y,1/2-z
-x,-y,-z
x,-y,1/2+z
1/2+x,1/2+y,z
1/2-x,1/2+y,1/2-z
1/2-x,1/2-y,-z
1/2+x,1/2-y,1/2+z
loop_
_atom_site_type_symbol
_atom_site_label
_atom_site_fract_x
_atom_site_fract_y
_atom_site_fract_z
Si Si1 0.086996 0.053171 0.341838
Si Si2 0.657020 0.416128 0.141780
Si Si3 0.258939 0.008809 0.404986
Si Si4 0.510764 0.801330 0.005028
Si Si5 0.270794 0.348443 0.033220
Si Si6 0.123455 0.432850 0.869759
O O1 0.191516 0.078641 0.242549
O O2 0.923311 0.113041 0.429542
O O3 0.270532 0.040130 0.331849
O O4 0.970061 0.968443 0.366864
O O5 0.500000 0.397996 0.250000
O O6 0.770654 0.335315 0.081734
O O7 0.828836 0.482173 0.111358
O O8 0.332501 0.918016 0.391697
O O9 0.397415 0.060012 0.408026
O O10 0.000000 0.000000 0.500000
O O11 0.586989 0.710243 0.970920
O O12 0.584802 0.810502 0.052595
O O13 0.623893 0.861781 0.919504
#
# Coordination Sequence:
#
# PCOD9271745 Si02
#       6
#     8   8   8   8   8   8
#     4  10  21  38  59  88 119 156 205 253 296 349
#     4  10  20  36  61  88 114 154 210 252 284 355
#     4  10  20  37  58  86 116 155 200 249 295 351
#     4  11  20  36  60  90 119 157 196 244 306 360
#     4  10  21  36  59  88 124 154 192 249 306 360
#     4  11  20  36  64  86 115 162 209 247 291 362
#
# _framework density 21.414757999999999
#
# number of rings (size 3 to 8) (size 9 to 14) (size 15 to 20)
#    0.000    1.667    3.333    3.000    0.000    0.000 
#    0.000   14.167    3.667    0.000    0.000    0.000 
#    0.000    0.000    0.000    0.000    0.000    0.000 
#
# Total GULP energy -133760.020077 kJ/mol
# GULP energy per Si atom -5573.334170 kJ/mol
# Density = 2.136602 g / cm^3
# Si number density = 21.414758 Si / 1000 Ang^3
#
#
#
# Elastic Constant Matrix: (Units=GPa)
#
#
# Indices 1 2 3 4 5 6 
#
# 1 106.3216 1.4325 -6.5686 0.0001 2.2658 0.0030
# 2 1.4325 60.6744 3.0277 0.0068 8.1231 0.0011
# 3 -6.5686 3.0277 60.9426 0.0131 2.2596 0.0092
# 4 0.0001 0.0068 0.0131 9.9809 0.0004 2.5129
# 5 2.2658 8.1231 2.2596 0.0004 27.4946 -0.0039
# 6 0.0030 0.0011 0.0092 2.5129 -0.0039 36.8978
#
#
#
# Elastic Compliance Matrix: (Units=1/GPa)
#
#
# Indices 1 2 3 4 5 6 
#
# 1 0.009491 -0.000167 0.001062 -0.000001 -0.000820 -0.000001
# 2 -0.000167 0.017190 -0.000686 -0.000011 -0.005008 0.000000
# 3 0.001062 -0.000686 0.016604 -0.000021 -0.001249 -0.000003
# 4 -0.000001 -0.000011 -0.000021 0.101940 0.000002 -0.006943
# 5 -0.000820 -0.005008 -0.001249 0.000002 0.038021 0.000004
# 6 -0.000001 0.000000 -0.000003 -0.006943 0.000004 0.027575
#
#
# Mechanical properties :
#
#
# Convention : Reuss Voigt Hill
#
# Bulk Modulus (GPa) = 22.88295 24.85800 23.87048
# Shear Modulus (GPa) = 22.22511 30.21112 26.21811
#
# Velocity S-wave (km/s) = 3.22505 3.76009 3.50280
# Velocity P-wave (km/s) = 4.95749 5.52124 5.24694
#
# Compressibility (1/GPa) = 0.04370065
#
# Stress axis : x y z
#
# Youngs Moduli (GPa) = 105.36580 58.17287 60.22742
#
# Poissons Ratio (x) = 0.00973 -0.06394
# Poissons Ratio (y) = 0.01763 0.04134
# Poissons Ratio (z) = -0.11186 0.03993
#
# Static dielectric constant tensor:
#      x y z
#    x 1.838870 0.000000 -0.032790 
#    y 0.000000 1.854870 0.000000 
#    z -0.032790 0.000000 1.813010 
# 
# From -- ./inp_files/232508.got.cif
#   From: 2010.05.17/outbox.cif.g08.bks.cpg/sg15_117_cif.got.tgz:232508.got - 2010.06.03 18:47:42.
