data_PCOD9271860
_publ_section_title
;
Structure prediction by ZEFSAII (Michael W. Deem and Ramdas Pophale) SiO2 
 PCOD9271860
Probable space group: C 2/C
;
_chemical_formula_sum "Si O2"
_cell_formula_units_Z 48
_cell_length_a 20.888945
_cell_length_b 10.550652
_cell_length_c 18.717288
_cell_angle_alpha 90.000000
_cell_angle_beta 150.272262
_cell_angle_gamma 90.000000
_cell_volume 2045.571009
_symmetry_space_group_name_H-M "C 2/C"
_symmetry_group_IT_number 15
_symmetry_cell_setting 'monoclinic'
loop_
_space_group_symop_operation_xyz
x,y,z
-x,y,1/2-z
-x,-y,-z
x,-y,1/2+z
1/2+x,1/2+y,z
1/2-x,1/2+y,1/2-z
1/2-x,1/2-y,-z
1/2+x,1/2-y,1/2+z
loop_
_atom_site_type_symbol
_atom_site_label
_atom_site_fract_x
_atom_site_fract_y
_atom_site_fract_z
Si Si1 0.370852 0.578684 0.077620
Si Si2 0.608152 0.845045 0.665604
Si Si3 0.624579 0.874404 0.422698
Si Si4 0.046384 0.397013 0.120398
Si Si5 0.520813 0.408382 0.115040
Si Si6 0.644705 0.644621 0.186180
O O1 0.500000 0.580325 0.250000
O O2 0.347159 0.725836 0.033381
O O3 0.412108 0.477103 0.057392
O O4 0.243701 0.554207 0.001635
O O5 0.488113 0.876434 0.496195
O O6 0.575151 0.731200 0.686906
O O7 0.725121 0.811796 0.726249
O O8 0.639547 0.985262 0.724974
O O9 0.500000 0.881215 0.250000
O O10 0.578410 0.927340 0.453653
O O11 0.100820 0.259656 0.194250
O O12 0.635325 0.510997 0.217484
O O13 0.458612 0.378575 0.977430
#
# Coordination Sequence:
#
# PCOD9271860 Si02
#       6
#     8   8   8   8   8   8
#     4  10  22  40  61  90 119 162 206 250 301 360
#     4  10  22  36  60  86 123 158 190 253 311 355
#     4  10  22  38  63  90 120 162 204 253 299 358
#     4  10  21  38  56  92 117 152 205 242 303 365
#     4  10  21  38  57  91 116 154 205 244 305 360
#     4  10  20  36  62  86 117 157 194 255 299 354
#
# _framework density 23.465330999999999
#
# number of rings (size 3 to 8) (size 9 to 14) (size 15 to 20)
#    0.000    2.000    1.667    1.000    4.667    1.333 
#    0.000    1.667    0.000    0.000    0.000    0.000 
#    0.000    0.000    0.000    0.000    0.000    0.000 
#
# Total GULP energy -133837.427805 kJ/mol
# GULP energy per Si atom -5576.559492 kJ/mol
# Density = 2.341192 g / cm^3
# Si number density = 23.465331 Si / 1000 Ang^3
#
#
#
# Elastic Constant Matrix: (Units=GPa)
#
#
# Indices 1 2 3 4 5 6 
#
# 1 123.9319 57.4202 18.6617 0.0000 36.0395 0.0000
# 2 57.4202 167.3850 21.2858 0.0000 20.0111 0.0000
# 3 18.6617 21.2858 79.7419 0.0000 12.2648 0.0000
# 4 0.0000 0.0000 0.0000 5.1318 0.0000 8.5361
# 5 36.0395 20.0111 12.2648 0.0000 40.1060 0.0000
# 6 0.0000 0.0000 0.0000 8.5361 0.0000 30.9341
#
#
#
# Elastic Compliance Matrix: (Units=1/GPa)
#
#
# Indices 1 2 3 4 5 6 
#
# 1 0.012275 -0.003015 -0.000633 0.000000 -0.009333 0.000000
# 2 -0.003015 0.007218 -0.001137 0.000000 -0.000545 0.000000
# 3 -0.000633 -0.001137 0.013450 0.000000 -0.002977 0.000000
# 4 0.000000 0.000000 0.000000 0.360194 0.000000 -0.099394
# 5 -0.009333 -0.000545 -0.002977 0.000000 0.034503 0.000000
# 6 0.000000 0.000000 0.000000 -0.099394 0.000000 0.059754
#
#
# Mechanical properties :
#
#
# Convention : Reuss Voigt Hill
#
# Bulk Modulus (GPa) = 42.78292 62.86602 52.82447
# Shear Modulus (GPa) = 9.90581 33.48045 21.69313
#
# Velocity S-wave (km/s) = 2.05685 3.78141 3.04382
# Velocity P-wave (km/s) = 4.89007 6.77603 5.90878
#
# Compressibility (1/GPa) = 0.02337381
#
# Stress axis : x y z
#
# Youngs Moduli (GPa) = 81.46721 138.53915 74.34924
#
# Poissons Ratio (x) = 0.41765 0.04703
# Poissons Ratio (y) = 0.24559 0.08457
# Poissons Ratio (z) = 0.05153 0.15759
#
# Static dielectric constant tensor:
#      x y z
#    x 1.885470 0.000000 -0.005520 
#    y 0.000000 2.017370 0.000000 
#    z -0.005520 0.000000 1.981810 
# 
# From -- ./inp_files/281713.got.cif
#   From: 2010.05.17/outbox.cif.g08.bks.cpg/sg15_141_cif.got.tgz:281713.got - 2010.06.03 18:47:42.
