data_PCOD9271441
_publ_section_title
;
Structure prediction by ZEFSAII (Michael W. Deem and Ramdas Pophale) SiO2 
 PCOD9271441
Probable space group: C 2/C
;
_chemical_formula_sum "Si O2"
_cell_formula_units_Z 44
_cell_length_a 22.628979
_cell_length_b 10.152173
_cell_length_c 9.051353
_cell_angle_alpha 90.000000
_cell_angle_beta 115.759696
_cell_angle_gamma 90.000000
_cell_volume 1872.756566
_symmetry_space_group_name_H-M "C 2/C"
_symmetry_group_IT_number 15
_symmetry_cell_setting 'monoclinic'
loop_
_space_group_symop_operation_xyz
x,y,z
-x,y,1/2-z
-x,-y,-z
x,-y,1/2+z
1/2+x,1/2+y,z
1/2-x,1/2+y,1/2-z
1/2-x,1/2-y,-z
1/2+x,1/2-y,1/2+z
loop_
_atom_site_type_symbol
_atom_site_label
_atom_site_fract_x
_atom_site_fract_y
_atom_site_fract_z
Si Si1 0.876209 0.591256 0.057617
Si Si2 0.314939 0.678938 0.629623
Si Si3 0.500000 0.907720 0.250000
Si Si4 0.102918 0.744712 0.714402
Si Si5 0.202075 0.342549 0.538035
Si Si6 0.184561 0.960834 0.656505
O O1 0.867481 0.649055 0.882648
O O2 0.818027 0.490480 0.032885
O O3 0.871392 0.712508 0.166309
O O4 0.942301 0.506949 0.137647
O O5 0.250000 0.750000 0.500000
O O6 0.309864 0.610515 0.782102
O O7 0.326509 0.559868 0.527598
O O8 0.470224 0.810793 0.342809
O O9 0.124376 0.885623 0.673496
O O10 0.133872 0.726384 0.911884
O O11 0.250000 0.250000 0.500000
O O12 0.248000 0.383215 0.726507
#
# Coordination Sequence:
#
# PCOD9271441 Si02
#       6
#     8   8   4   8   8   8
#     4  10  20  36  59  87 125 162 213 266 318 373
#     4  11  23  40  62  93 134 170 208 264 315 394
#     4  10  20  38  62  82 120 160 226 268 318 362
#     4   9  20  36  56  88 118 162 209 268 313 378
#     4   9  18  32  55  86 121 157 202 251 313 379
#     4  10  22  37  60  90 129 165 208 253 328 378
#
# _framework density 23.494776999999999
#
# number of rings (size 3 to 8) (size 9 to 14) (size 15 to 20)
#    0.000    2.182    1.818    0.545    2.545    2.909 
#    0.000    6.364    0.000    4.364    0.000    0.000 
#    0.000    0.000    0.000    0.000    0.000    0.000 
#
# Total GULP energy -122489.195474 kJ/mol
# GULP energy per Si atom -5567.690703 kJ/mol
# Density = 2.344130 g / cm^3
# Si number density = 23.494777 Si / 1000 Ang^3
#
#
#
# Elastic Constant Matrix: (Units=GPa)
#
#
# Indices 1 2 3 4 5 6 
#
# 1 89.2374 50.2159 17.5717 0.0000 5.7566 0.0000
# 2 50.2159 94.6909 28.9186 0.0000 -1.0510 0.0000
# 3 17.5717 28.9186 72.9102 0.0000 -6.8320 0.0000
# 4 0.0000 0.0000 0.0000 31.8295 0.0000 5.8929
# 5 5.7566 -1.0510 -6.8320 0.0000 33.1928 0.0000
# 6 0.0000 0.0000 0.0000 5.8929 0.0000 45.2364
#
#
#
# Elastic Compliance Matrix: (Units=1/GPa)
#
#
# Indices 1 2 3 4 5 6 
#
# 1 0.016336 -0.008424 -0.000904 0.000000 -0.003286 0.000000
# 2 -0.008424 0.016372 -0.004362 0.000000 0.001081 0.000000
# 3 -0.000904 -0.004362 0.015973 0.000000 0.003306 0.000000
# 4 0.000000 0.000000 0.000000 0.032194 0.000000 -0.004194
# 5 -0.003286 0.001081 0.003306 0.000000 0.031412 0.000000
# 6 0.000000 0.000000 0.000000 -0.004194 0.000000 0.022652
#
#
# Mechanical properties :
#
#
# Convention : Reuss Voigt Hill
#
# Bulk Modulus (GPa) = 46.94392 50.02790 48.48591
# Shear Modulus (GPa) = 29.51244 32.72724 31.11984
#
# Velocity S-wave (km/s) = 3.54803 3.73628 3.64338
# Velocity P-wave (km/s) = 6.06702 6.32080 6.19521
#
# Compressibility (1/GPa) = 0.02130201
#
# Stress axis : x y z
#
# Youngs Moduli (GPa) = 61.21352 61.07932 62.60416
#
# Poissons Ratio (x) = 0.51452 0.05659
# Poissons Ratio (y) = 0.51565 0.27309
# Poissons Ratio (z) = 0.05533 0.26644
#
# Static dielectric constant tensor:
#      x y z
#    x 1.942520 0.000000 -0.014920 
#    y 0.000000 1.936710 0.000000 
#    z -0.014920 0.000000 1.990090 
# 
# From -- ./inp_files/116856.got.cif
#   From: 2010.05.17/outbox.cif.g08.bks.cpg/sg15_59_cif.got.tgz:116856.got - 2010.06.03 18:47:42.
