data_PCOD9271656
_publ_section_title
;
Structure prediction by ZEFSAII (Michael W. Deem and Ramdas Pophale) SiO2 
 PCOD9271656
Probable space group: C 2/C
;
_chemical_formula_sum "Si O2"
_cell_formula_units_Z 60
_cell_length_a 20.633261
_cell_length_b 26.141124
_cell_length_c 9.069241
_cell_angle_alpha 90.000000
_cell_angle_beta 143.591033
_cell_angle_gamma 90.000000
_cell_volume 2903.465109
_symmetry_space_group_name_H-M "C 2/C"
_symmetry_group_IT_number 15
_symmetry_cell_setting 'monoclinic'
loop_
_space_group_symop_operation_xyz
x,y,z
-x,y,1/2-z
-x,-y,-z
x,-y,1/2+z
1/2+x,1/2+y,z
1/2-x,1/2+y,1/2-z
1/2-x,1/2-y,-z
1/2+x,1/2-y,1/2+z
loop_
_atom_site_type_symbol
_atom_site_label
_atom_site_fract_x
_atom_site_fract_y
_atom_site_fract_z
Si Si1 0.659607 0.517075 0.788753
Si Si2 0.797154 0.899070 0.692400
Si Si3 0.757728 0.612713 0.074536
Si Si4 0.115752 0.307877 0.875222
Si Si5 0.704888 0.196827 0.847972
Si Si6 0.005144 0.744206 0.932935
Si Si7 0.000000 0.989450 0.750000
Si Si8 0.515494 0.657398 0.616598
O O1 0.702576 0.459122 0.847382
O O2 0.574380 0.518625 0.768375
O O3 0.591273 0.536372 0.520939
O O4 0.753258 0.555775 0.003143
O O5 0.736598 0.888797 0.737360
O O6 0.754152 0.856402 0.498131
O O7 0.925550 0.887023 0.951180
O O8 0.848768 0.643018 0.152795
O O9 0.638549 0.638287 0.823820
O O10 0.000000 0.311287 0.750000
O O11 0.107313 0.265887 0.729205
O O12 0.202558 0.298911 0.166134
O O13 0.580259 0.201190 0.673351
O O14 0.750000 0.250000 0.000000
O O15 0.000000 0.741356 0.750000
O O16 0.977159 0.801975 0.926215
O O17 0.500000 0.682730 0.750000
#
# Coordination Sequence:
#
# PCOD9271656 Si02
#       8
#     8   8   8   8   8   8   4   8
#     4  11  22  39  60  93 137 173 216 256 316 386
#     4  11  23  40  63  96 135 174 210 261 318 387
#     4  11  24  40  64  94 129 175 219 260 324 383
#     4  10  25  45  67  90 124 168 217 280 323 375
#     4  11  23  41  64  90 128 167 215 264 320 378
#     4  11  23  42  63  90 127 170 218 268 320 377
#     4  10  20  36  60  90 138 180 202 254 312 384
#     4  10  21  36  59  93 134 170 211 258 314 383
#
# _framework density 20.664963
#
# number of rings (size 3 to 8) (size 9 to 14) (size 15 to 20)
#    0.000    1.333    2.667    3.600    7.467    0.533 
#    2.400    0.000    0.000    8.000    0.000    0.000 
#    0.000    0.000    0.000    0.000    0.000    0.000 
#
# Total GULP energy -167219.992906 kJ/mol
# GULP energy per Si atom -5573.999764 kJ/mol
# Density = 2.061793 g / cm^3
# Si number density = 20.664963 Si / 1000 Ang^3
#
#
#
# Elastic Constant Matrix: (Units=GPa)
#
#
# Indices 1 2 3 4 5 6 
#
# 1 89.7375 39.5440 40.3237 0.0000 -35.3957 0.0000
# 2 39.5440 113.4521 40.4590 0.0000 -17.3910 0.0000
# 3 40.3237 40.4590 89.7698 0.0000 -38.4152 0.0000
# 4 0.0000 0.0000 0.0000 25.7701 0.0000 -0.4243
# 5 -35.3957 -17.3910 -38.4152 0.0000 37.9965 0.0000
# 6 0.0000 0.0000 0.0000 -0.4243 0.0000 19.6671
#
#
#
# Elastic Compliance Matrix: (Units=1/GPa)
#
#
# Indices 1 2 3 4 5 6 
#
# 1 0.019382 -0.004337 0.000221 0.000000 0.016294 0.000000
# 2 -0.004337 0.011473 -0.004767 0.000000 -0.003608 0.000000
# 3 0.000221 -0.004767 0.021756 0.000000 0.020020 0.000000
# 4 0.000000 0.000000 0.000000 0.038818 0.000000 0.000837
# 5 0.016294 -0.003608 0.020020 0.000000 0.060086 0.000000
# 6 0.000000 0.000000 0.000000 0.000837 0.000000 0.050864
#
#
# Mechanical properties :
#
#
# Convention : Reuss Voigt Hill
#
# Bulk Modulus (GPa) = 28.69798 59.29033 43.99416
# Shear Modulus (GPa) = 21.57404 28.19556 24.88480
#
# Velocity S-wave (km/s) = 3.23459 3.69780 3.47393
# Velocity P-wave (km/s) = 5.27897 6.85458 6.11771
#
# Compressibility (1/GPa) = 0.03484565
#
# Stress axis : x y z
#
# Youngs Moduli (GPa) = 51.59310 87.16335 45.96508
#
# Poissons Ratio (x) = 0.37802 -0.01016
# Poissons Ratio (y) = 0.22375 0.21910
# Poissons Ratio (z) = -0.01140 0.41548
#
# Static dielectric constant tensor:
#      x y z
#    x 1.770780 0.000000 -0.012590 
#    y 0.000000 1.755040 0.000000 
#    z -0.012590 0.000000 1.911960 
# 
# From -- ./inp_files/58772.got.cif
#   From: 2010.05.17/outbox.cif.g08.bks.cpg/sg15_30_cif.got.tgz:58772.got - 2010.06.03 18:47:42.
