data_PCOD9271414
_publ_section_title
;
Structure prediction by ZEFSAII (Michael W. Deem and Ramdas Pophale) SiO2 
 PCOD9271414
Probable space group: C 2/C
;
_chemical_formula_sum "Si O2"
_cell_formula_units_Z 44
_cell_length_a 12.061784
_cell_length_b 15.394701
_cell_length_c 14.200865
_cell_angle_alpha 90.000000
_cell_angle_beta 55.838993
_cell_angle_gamma 90.000000
_cell_volume 2181.956767
_symmetry_space_group_name_H-M "C 2/C"
_symmetry_group_IT_number 15
_symmetry_cell_setting 'monoclinic'
loop_
_space_group_symop_operation_xyz
x,y,z
-x,y,1/2-z
-x,-y,-z
x,-y,1/2+z
1/2+x,1/2+y,z
1/2-x,1/2+y,1/2-z
1/2-x,1/2-y,-z
1/2+x,1/2-y,1/2+z
loop_
_atom_site_type_symbol
_atom_site_label
_atom_site_fract_x
_atom_site_fract_y
_atom_site_fract_z
Si Si1 0.888251 0.159837 0.421988
Si Si2 0.348488 0.826562 0.326165
Si Si3 0.348887 0.360823 0.242548
Si Si4 0.424069 0.697098 0.002506
Si Si5 0.000000 0.010269 0.250000
Si Si6 0.870349 0.687325 0.358664
O O1 0.752830 0.140120 0.544514
O O2 0.854387 0.223769 0.351104
O O3 0.959070 0.073229 0.353968
O O4 0.993568 0.209057 0.440724
O O5 0.500000 0.858862 0.250000
O O6 0.279863 0.847891 0.260116
O O7 0.374020 0.449034 0.285762
O O8 0.358391 0.278212 0.306406
O O9 0.474330 0.356665 0.110920
O O10 0.279583 0.651113 0.080670
O O11 0.398431 0.784827 0.953326
O O12 0.000000 0.642179 0.250000
#
# Coordination Sequence:
#
# PCOD9271414 Si02
#       6
#     8   8   8   8   4   8
#     4  10  22  35  62  90 116 155 203 247 292 349
#     4  10  20  39  61  90 115 156 201 248 290 352
#     4  10  20  36  59  85 122 154 195 243 300 351
#     4   9  17  32  54  84 116 148 202 240 283 349
#     4  12  22  40  56  94 118 156 200 246 298 360
#     4   9  16  30  53  87 116 149 191 244 292 337
#
# _framework density 20.165386999999999
#
# number of rings (size 3 to 8) (size 9 to 14) (size 15 to 20)
#    0.000    2.182    3.636    1.091    0.000    2.909 
#    0.000    0.909    0.000    4.364    2.364    0.000 
#    0.000    0.000    0.000    0.000    0.000    0.000 
#
# Total GULP energy -122595.679654 kJ/mol
# GULP energy per Si atom -5572.530893 kJ/mol
# Density = 2.011949 g / cm^3
# Si number density = 20.165387 Si / 1000 Ang^3
#
#
#
# Elastic Constant Matrix: (Units=GPa)
#
#
# Indices 1 2 3 4 5 6 
#
# 1 170.9135 22.0012 47.7296 0.0000 -8.6599 0.0000
# 2 22.0012 33.8958 7.7130 0.0000 13.8989 0.0000
# 3 47.7296 7.7130 77.7971 0.0000 -20.9049 0.0000
# 4 0.0000 0.0000 0.0000 10.6399 0.0000 -3.4469
# 5 -8.6599 13.8989 -20.9049 0.0000 45.5922 0.0000
# 6 0.0000 0.0000 0.0000 -3.4469 0.0000 12.9760
#
#
#
# Elastic Compliance Matrix: (Units=1/GPa)
#
#
# Indices 1 2 3 4 5 6 
#
# 1 0.007570 -0.004416 -0.003945 0.000000 0.000976 0.000000
# 2 -0.004416 0.039960 -0.005419 0.000000 -0.015505 0.000000
# 3 -0.003945 -0.005419 0.018310 0.000000 0.009298 0.000000
# 4 0.000000 0.000000 0.000000 0.102835 0.000000 0.027317
# 5 0.000976 -0.015505 0.009298 0.000000 0.031109 0.000000
# 6 0.000000 0.000000 0.000000 0.027317 0.000000 0.084322
#
#
# Mechanical properties :
#
#
# Convention : Reuss Voigt Hill
#
# Bulk Modulus (GPa) = 26.12284 48.61045 37.36665
# Shear Modulus (GPa) = 15.41191 27.51914 21.46552
#
# Velocity S-wave (km/s) = 2.76755 3.69815 3.26617
# Velocity P-wave (km/s) = 4.81611 6.51102 5.72661
#
# Compressibility (1/GPa) = 0.03828068
#
# Stress axis : x y z
#
# Youngs Moduli (GPa) = 132.09329 25.02533 54.61594
#
# Poissons Ratio (x) = 0.11052 0.21544
# Poissons Ratio (y) = 0.58336 0.29594
# Poissons Ratio (z) = 0.52105 0.13560
#
# Static dielectric constant tensor:
#      x y z
#    x 1.781220 0.000000 -0.001900 
#    y 0.000000 1.693400 0.000000 
#    z -0.001900 0.000000 1.804560 
# 
# From -- ./inp_files/144947.got.cif
#   From: 2010.05.17/outbox.cif.g08.bks.cpg/sg15_73_cif.got.tgz:144947.got - 2010.06.03 18:47:42.
