data_PCOD9271624
_publ_section_title
;
Structure prediction by ZEFSAII (Michael W. Deem and Ramdas Pophale) SiO2 
 PCOD9271624
Probable space group: C 2/C
;
_chemical_formula_sum "Si O2"
_cell_formula_units_Z 60
_cell_length_a 27.931444
_cell_length_b 10.652758
_cell_length_c 25.048059
_cell_angle_alpha 90.000000
_cell_angle_beta 20.198504
_cell_angle_gamma 90.000000
_cell_volume 2573.315402
_symmetry_space_group_name_H-M "C 2/C"
_symmetry_group_IT_number 15
_symmetry_cell_setting 'monoclinic'
loop_
_space_group_symop_operation_xyz
x,y,z
-x,y,1/2-z
-x,-y,-z
x,-y,1/2+z
1/2+x,1/2+y,z
1/2-x,1/2+y,1/2-z
1/2-x,1/2-y,-z
1/2+x,1/2-y,1/2+z
loop_
_atom_site_type_symbol
_atom_site_label
_atom_site_fract_x
_atom_site_fract_y
_atom_site_fract_z
Si Si1 0.000000 0.388426 0.750000
Si Si2 0.863962 0.599640 0.533035
Si Si3 0.164291 0.513508 0.825046
Si Si4 0.143849 0.500950 0.189768
Si Si5 0.233082 0.793355 0.371722
Si Si6 0.961781 0.877762 0.611615
Si Si7 0.211002 0.251535 0.477349
Si Si8 0.914299 0.143136 0.037346
O O1 0.108103 0.480561 0.664861
O O2 0.049891 0.291642 0.652335
O O3 0.790806 0.544885 0.661904
O O4 0.756296 0.637116 0.598589
O O5 0.925779 0.731382 0.491458
O O6 0.996317 0.517605 0.374914
O O7 0.204935 0.625625 0.742882
O O8 0.251297 0.393679 0.714930
O O9 0.000000 0.500000 0.000000
O O10 0.223292 0.377142 0.123568
O O11 0.242633 0.621583 0.096324
O O12 0.311842 0.662350 0.289735
O O13 0.071115 0.791240 0.529372
O O14 0.970485 0.846577 0.539186
O O15 0.014885 0.019774 0.561742
O O16 0.250000 0.250000 0.500000
#
# Coordination Sequence:
#
# PCOD9271624 Si02
#       8
#     4   8   8   8   8   8   8   8
#     4   8  18  36  60  90 118 152 192 258 318 382
#     4  11  21  34  57  86 122 164 200 250 310 363
#     4  11  22  34  56  84 120 166 210 242 297 368
#     4  10  20  36  60  89 119 156 202 252 320 372
#     4  11  22  38  59  83 121 164 204 252 301 367
#     4  10  23  38  54  79 117 163 204 249 295 348
#     4   9  18  34  56  86 119 146 192 249 313 372
#     4  10  23  39  53  84 124 163 212 254 289 361
#
# _framework density 23.316224999999999
#
# number of rings (size 3 to 8) (size 9 to 14) (size 15 to 20)
#    0.000    1.867    2.667    1.600    1.867    3.200 
#    2.400    2.667    0.000    2.400    0.000    7.467 
#    0.000    0.000    0.000    0.000    0.000    0.000 
#
# Total GULP energy -167409.256377 kJ/mol
# GULP energy per Si atom -5580.308546 kJ/mol
# Density = 2.326316 g / cm^3
# Si number density = 23.316225 Si / 1000 Ang^3
#
#
#
# Elastic Constant Matrix: (Units=GPa)
#
#
# Indices 1 2 3 4 5 6 
#
# 1 109.1567 26.4094 4.3354 0.0004 -4.5748 0.0000
# 2 26.4094 74.7691 8.5709 0.0008 -9.8253 -0.0002
# 3 4.3354 8.5709 48.3858 0.0009 -12.4137 -0.0003
# 4 0.0004 0.0008 0.0009 31.1237 -0.0002 1.7234
# 5 -4.5748 -9.8253 -12.4137 -0.0002 33.4850 0.0000
# 6 0.0000 -0.0002 -0.0003 1.7234 0.0000 29.3505
#
#
#
# Elastic Compliance Matrix: (Units=1/GPa)
#
#
# Indices 1 2 3 4 5 6 
#
# 1 0.010023 -0.003480 -0.000212 0.000000 0.000269 0.000000
# 2 -0.003480 0.015228 -0.001504 0.000000 0.003435 0.000000
# 3 -0.000212 -0.001504 0.023022 -0.000001 0.008064 0.000000
# 4 0.000000 0.000000 -0.000001 0.032235 0.000000 -0.001893
# 5 0.000269 0.003435 0.008064 0.000000 0.033898 0.000000
# 6 0.000000 0.000000 0.000000 -0.001893 0.000000 0.034182
#
#
# Mechanical properties :
#
#
# Convention : Reuss Voigt Hill
#
# Bulk Modulus (GPa) = 26.40060 34.54921 30.47490
# Shear Modulus (GPa) = 29.13621 31.65824 30.39722
#
# Velocity S-wave (km/s) = 3.53882 3.68880 3.61459
# Velocity P-wave (km/s) = 5.29576 5.74394 5.52440
#
# Compressibility (1/GPa) = 0.03787793
#
# Stress axis : x y z
#
# Youngs Moduli (GPa) = 99.77117 65.66987 43.43736
#
# Poissons Ratio (x) = 0.22856 0.00923
# Poissons Ratio (y) = 0.34725 0.06534
# Poissons Ratio (z) = 0.02120 0.09878
#
# Static dielectric constant tensor:
#      x y z
#    x 2.006370 0.000000 -0.028890 
#    y 0.000000 1.902410 0.000000 
#    z -0.028890 0.000000 1.990670 
# 
# From -- ./inp_files/304317.got.cif
#   From: 2010.05.17/outbox.cif.g08.bks.cpg/sg15_153_cif.got.tgz:304317.got - 2010.06.03 18:47:42.
