data_PCOD9271889
_publ_section_title
;
Structure prediction by ZEFSAII (Michael W. Deem and Ramdas Pophale) SiO2 
 PCOD9271889
Probable space group: C 2/C
;
_chemical_formula_sum "Si O2"
_cell_formula_units_Z 64
_cell_length_a 13.077354
_cell_length_b 10.903849
_cell_length_c 23.474644
_cell_angle_alpha 90.000000
_cell_angle_beta 119.240259
_cell_angle_gamma 90.000000
_cell_volume 2920.811388
_symmetry_space_group_name_H-M "C 2/C"
_symmetry_group_IT_number 15
_symmetry_cell_setting 'monoclinic'
loop_
_space_group_symop_operation_xyz
x,y,z
-x,y,1/2-z
-x,-y,-z
x,-y,1/2+z
1/2+x,1/2+y,z
1/2-x,1/2+y,1/2-z
1/2-x,1/2-y,-z
1/2+x,1/2-y,1/2+z
loop_
_atom_site_type_symbol
_atom_site_label
_atom_site_fract_x
_atom_site_fract_y
_atom_site_fract_z
Si Si1 0.368739 0.090377 0.540192
Si Si2 0.364390 0.662005 0.194317
Si Si3 0.634852 0.938856 0.283404
Si Si4 0.616844 0.860763 0.151190
Si Si5 0.331371 0.408994 0.807278
Si Si6 0.233767 0.953958 0.411110
Si Si7 0.510155 0.431929 0.411065
Si Si8 0.377695 0.646758 0.981889
O O1 0.492821 0.075176 0.604305
O O2 0.332762 0.989812 0.483664
O O3 0.379571 0.219723 0.510166
O O4 0.256203 0.100038 0.550679
O O5 0.500000 0.642248 0.250000
O O6 0.352380 0.807556 0.181863
O O7 0.296089 0.621183 0.232797
O O8 0.323309 0.579905 0.130341
O O9 0.500000 0.976554 0.250000
O O10 0.659568 0.904237 0.224261
O O11 0.724339 0.048842 0.318244
O O12 0.606225 0.714364 0.154128
O O13 0.707281 0.887592 0.125692
O O14 0.422900 0.519749 0.838681
O O15 0.128117 0.883435 0.413787
O O16 0.552483 0.549288 0.459932
O O17 0.437240 0.351399 0.436053
#
# Coordination Sequence:
#
# PCOD9271889 Si02
#       8
#     8   8   8   8   8   8   8   8
#     4  10  21  37  64  89 124 163 205 258 299 361
#     4  10  20  38  61  88 118 151 203 256 302 361
#     4  10  24  38  62  90 119 157 208 254 306 358
#     4  11  23  42  59  88 129 162 201 248 313 366
#     4  11  21  39  62  86 119 160 198 254 309 357
#     4  11  22  39  60  93 124 164 203 246 311 369
#     4  10  20  36  62  89 121 155 205 248 305 357
#     4   9  20  36  60  95 117 155 208 257 295 353
#
# _framework density 21.911719999999999
#
# number of rings (size 3 to 8) (size 9 to 14) (size 15 to 20)
#    0.000    1.750    3.750    0.375    3.500    0.000 
#    0.000    5.000    0.000    0.000    0.000    0.000 
#    0.000    0.000    0.000    0.000    0.000    0.000 
#
# Total GULP energy -178735.291564 kJ/mol
# GULP energy per Si atom -5585.477861 kJ/mol
# Density = 2.186185 g / cm^3
# Si number density = 21.911720 Si / 1000 Ang^3
#
#
#
# Elastic Constant Matrix: (Units=GPa)
#
#
# Indices 1 2 3 4 5 6 
#
# 1 95.5094 7.8805 3.5410 0.0000 -16.1448 0.0000
# 2 7.8805 11.7651 2.0512 0.0000 2.6266 0.0000
# 3 3.5410 2.0512 68.4887 0.0000 -8.2006 0.0000
# 4 0.0000 0.0000 0.0000 16.7549 0.0000 -0.0757
# 5 -16.1448 2.6266 -8.2006 0.0000 34.3232 0.0000
# 6 0.0000 0.0000 0.0000 -0.0757 0.0000 29.8929
#
#
#
# Elastic Compliance Matrix: (Units=1/GPa)
#
#
# Indices 1 2 3 4 5 6 
#
# 1 0.012401 -0.009881 0.000457 0.000000 0.006698 0.000000
# 2 -0.009881 0.095163 -0.003879 0.000000 -0.012857 0.000000
# 3 0.000457 -0.003879 0.015189 0.000000 0.004141 0.000000
# 4 0.000000 0.000000 0.000000 0.059685 0.000000 0.000151
# 5 0.006698 -0.012857 0.004141 0.000000 0.034259 0.000000
# 6 0.000000 0.000000 0.000000 0.000151 0.000000 0.033453
#
#
# Mechanical properties :
#
#
# Convention : Reuss Voigt Hill
#
# Bulk Modulus (GPa) = 10.40081 22.52316 16.46198
# Shear Modulus (GPa) = 16.19148 27.01356 21.60252
#
# Velocity S-wave (km/s) = 2.72130 3.51499 3.14329
# Velocity P-wave (km/s) = 3.82504 5.17444 4.55004
#
# Compressibility (1/GPa) = 0.09614639
#
# Stress axis : x y z
#
# Youngs Moduli (GPa) = 80.63970 10.50834 65.83587
#
# Poissons Ratio (x) = 0.10384 -0.03008
# Poissons Ratio (y) = 0.79683 0.25535
# Poissons Ratio (z) = -0.03684 0.04076
#
# Static dielectric constant tensor:
#      x y z
#    x 1.851460 0.000000 0.007410 
#    y 0.000000 1.786340 0.000000 
#    z 0.007410 0.000000 1.843470 
# 
# From -- ./inp_files/269274.got.cif
#   From: 2010.05.17/outbox.cif.g08.bks.cpg/sg15_135_cif.got.tgz:269274.got - 2010.06.03 18:47:42.
