data_PCOD9271853
_publ_section_title
;
Structure prediction by ZEFSAII (Michael W. Deem and Ramdas Pophale) SiO2 
 PCOD9271853
Probable space group: C 2/C
;
_chemical_formula_sum "Si O2"
_cell_formula_units_Z 60
_cell_length_a 21.344097
_cell_length_b 8.228090
_cell_length_c 17.914730
_cell_angle_alpha 90.000000
_cell_angle_beta 109.742843
_cell_angle_gamma 90.000000
_cell_volume 2961.265938
_symmetry_space_group_name_H-M "C 2/C"
_symmetry_group_IT_number 15
_symmetry_cell_setting 'monoclinic'
loop_
_space_group_symop_operation_xyz
x,y,z
-x,y,1/2-z
-x,-y,-z
x,-y,1/2+z
1/2+x,1/2+y,z
1/2-x,1/2+y,1/2-z
1/2-x,1/2-y,-z
1/2+x,1/2-y,1/2+z
loop_
_atom_site_type_symbol
_atom_site_label
_atom_site_fract_x
_atom_site_fract_y
_atom_site_fract_z
Si Si1 0.031664 0.858648 0.910617
Si Si2 0.760939 0.596001 0.838876
Si Si3 0.332913 0.352943 0.768942
Si Si4 0.900923 0.063214 0.432061
Si Si5 0.372493 0.804794 0.678748
Si Si6 0.922658 0.657023 0.697623
Si Si7 0.500000 0.418058 0.250000
Si Si8 0.820788 0.693632 0.998446
O O1 0.072023 0.714220 0.886693
O O2 0.960613 0.826612 0.921479
O O3 0.014730 0.979465 0.832872
O O4 0.070942 0.936993 0.996291
O O5 0.730245 0.433902 0.794145
O O6 0.809152 0.693089 0.803154
O O7 0.696657 0.715780 0.827126
O O8 0.801084 0.556386 0.931116
O O9 0.361941 0.482033 0.840875
O O10 0.387062 0.300506 0.729620
O O11 0.850128 0.166605 0.459193
O O12 0.434701 0.696384 0.730375
O O13 0.369527 0.822108 0.587318
O O14 0.384374 0.992511 0.704069
O O15 0.000000 0.637201 0.750000
O O16 0.750000 0.750000 0.000000
#
# Coordination Sequence:
#
# PCOD9271853 Si02
#       8
#     8   8   8   8   8   8   4   8
#     4  11  21  36  60  92 118 163 200 255 307 371
#     4  10  22  41  67  88 122 165 211 258 310 369
#     4  11  22  42  65  90 122 165 209 259 311 372
#     4  10  20  36  62  85 123 154 206 250 308 365
#     4  11  22  39  61  95 122 160 209 251 313 374
#     4  12  23  39  61  91 132 162 202 258 314 364
#     4  12  20  36  68  90 122 162 216 248 310 384
#     4   9  20  38  61  85 120 161 201 258 306 359
#
# _framework density 20.261604999999999
#
# number of rings (size 3 to 8) (size 9 to 14) (size 15 to 20)
#    0.000    1.333    4.000    2.400    1.867    0.000 
#    2.400    1.333    8.800    0.000    0.000    0.000 
#    0.000    0.000    0.000    0.000    0.000    0.000 
#
# Total GULP energy -167008.980842 kJ/mol
# GULP energy per Si atom -5566.966028 kJ/mol
# Density = 2.021549 g / cm^3
# Si number density = 20.261605 Si / 1000 Ang^3
#
#
#
# Elastic Constant Matrix: (Units=GPa)
#
#
# Indices 1 2 3 4 5 6 
#
# 1 85.1447 -2.0489 -0.6434 0.0000 -21.9945 0.0000
# 2 -2.0489 39.0862 -1.2900 0.0000 -9.9715 0.0000
# 3 -0.6434 -1.2900 47.8812 0.0000 -6.7235 0.0000
# 4 0.0000 0.0000 0.0000 20.7482 0.0000 2.0275
# 5 -21.9945 -9.9715 -6.7235 0.0000 33.3873 0.0000
# 6 0.0000 0.0000 0.0000 2.0275 0.0000 31.0630
#
#
#
# Elastic Compliance Matrix: (Units=1/GPa)
#
#
# Indices 1 2 3 4 5 6 
#
# 1 0.014737 0.003688 0.001868 0.000000 0.011186 0.000000
# 2 0.003688 0.028798 0.002443 0.000000 0.011522 0.000000
# 3 0.001868 0.002443 0.021870 0.000000 0.006365 0.000000
# 4 0.000000 0.000000 0.000000 0.048506 0.000000 -0.003166
# 5 0.011186 0.011522 0.006365 0.000000 0.042043 0.000000
# 6 0.000000 0.000000 0.000000 -0.003166 0.000000 0.032399
#
#
# Mechanical properties :
#
#
# Convention : Reuss Voigt Hill
#
# Bulk Modulus (GPa) = 12.28449 18.23863 15.26156
# Shear Modulus (GPa) = 25.06399 28.77934 26.92166
#
# Velocity S-wave (km/s) = 3.52094 3.77289 3.64909
# Velocity P-wave (km/s) = 4.75452 5.29157 5.03022
#
# Compressibility (1/GPa) = 0.08140345
#
# Stress axis : x y z
#
# Youngs Moduli (GPa) = 67.85593 34.72471 45.72543
#
# Poissons Ratio (x) = -0.12806 -0.08542
# Poissons Ratio (y) = -0.25024 -0.11172
# Poissons Ratio (z) = -0.12676 -0.08485
#
# Static dielectric constant tensor:
#      x y z
#    x 1.712770 0.000000 0.005180 
#    y 0.000000 1.819120 0.000000 
#    z 0.005180 0.000000 1.677950 
# 
# From -- ./inp_files/213991.got.cif
#   From: 2010.05.17/outbox.cif.g08.bks.cpg/sg15_107_cif.got.tgz:213991.got - 2010.06.03 18:47:42.
