data_PCOD9271969
_publ_section_title
;
Structure prediction by ZEFSAII (Michael W. Deem and Ramdas Pophale) SiO2 
 PCOD9271969
Probable space group: C 2/C
;
_chemical_formula_sum "Si O2"
_cell_formula_units_Z 52
_cell_length_a 12.501888
_cell_length_b 7.050060
_cell_length_c 25.876638
_cell_angle_alpha 90.000000
_cell_angle_beta 57.762014
_cell_angle_gamma 90.000000
_cell_volume 1929.142590
_symmetry_space_group_name_H-M "C 2/C"
_symmetry_group_IT_number 15
_symmetry_cell_setting 'monoclinic'
loop_
_space_group_symop_operation_xyz
x,y,z
-x,y,1/2-z
-x,-y,-z
x,-y,1/2+z
1/2+x,1/2+y,z
1/2-x,1/2+y,1/2-z
1/2-x,1/2-y,-z
1/2+x,1/2-y,1/2+z
loop_
_atom_site_type_symbol
_atom_site_label
_atom_site_fract_x
_atom_site_fract_y
_atom_site_fract_z
Si Si1 0.030083 0.650716 0.606787
Si Si2 0.110062 0.617298 0.000645
Si Si3 0.139295 0.675629 0.316322
Si Si4 0.230625 0.250391 0.373232
Si Si5 0.616603 0.496049 0.249550
Si Si6 0.000000 0.000000 0.000000
Si Si7 0.760219 0.825474 0.103097
O O1 0.115395 0.506285 0.550620
O O2 0.133153 0.762705 0.612769
O O3 0.946156 0.509801 0.663466
O O4 0.922379 0.764721 0.602115
O O5 0.222860 0.642996 0.930296
O O6 0.000000 0.500000 0.000000
O O7 0.067187 0.833704 0.018803
O O8 0.277097 0.635828 0.256112
O O9 0.076694 0.853643 0.305064
O O10 0.176067 0.714055 0.366209
O O11 0.311098 0.365432 0.311385
O O12 0.274813 0.034794 0.365835
O O13 0.500000 0.588087 0.250000
O O14 0.131262 0.126485 0.965680
#
# Coordination Sequence:
#
# PCOD9271969 Si02
#       7
#     8   8   8   8   8   4   8
#     4  10  21  41  66  91 130 173 206 266 335 378
#     4   9  18  38  63  91 135 170 211 273 321 389
#     4  11  24  41  65  91 130 159 220 271 313 395
#     4   9  21  39  63  92 127 164 215 263 315 387
#     4  11  24  43  65  93 123 171 214 268 326 380
#     4  10  20  36  62  94 132 168 218 258 322 394
#     4  11  22  40  63  94 127 168 211 261 324 394
#
# _framework density 26.954979999999999
#
# number of rings (size 3 to 8) (size 9 to 14) (size 15 to 20)
#    0.000    1.846    1.538    1.846    0.000    6.154 
#    2.769    7.692    0.000    0.000    0.000    0.000 
#    0.000    0.000    0.000    0.000    0.000    0.000 
#
# Total GULP energy -145012.790346 kJ/mol
# GULP energy per Si atom -5577.415013 kJ/mol
# Density = 2.689363 g / cm^3
# Si number density = 26.954980 Si / 1000 Ang^3
#
#
#
# Elastic Constant Matrix: (Units=GPa)
#
#
# Indices 1 2 3 4 5 6 
#
# 1 157.9849 5.7353 9.6342 0.0000 -3.9835 0.0000
# 2 5.7353 77.3732 1.8875 0.0000 2.6914 0.0001
# 3 9.6342 1.8875 55.2539 0.0000 -1.1306 0.0000
# 4 0.0000 0.0000 0.0000 26.1209 0.0000 -0.0249
# 5 -3.9835 2.6914 -1.1306 0.0000 15.0417 0.0000
# 6 0.0000 0.0001 0.0000 -0.0249 0.0000 29.0739
#
#
#
# Elastic Compliance Matrix: (Units=1/GPa)
#
#
# Indices 1 2 3 4 5 6 
#
# 1 0.006457 -0.000512 -0.001073 0.000000 0.001721 0.000000
# 2 -0.000512 0.013059 -0.000408 0.000000 -0.002503 0.000000
# 3 -0.001073 -0.000408 0.018323 0.000000 0.001166 0.000000
# 4 0.000000 0.000000 0.000000 0.038283 0.000000 0.000033
# 5 0.001721 -0.002503 0.001166 0.000000 0.067473 0.000000
# 6 0.000000 0.000000 0.000000 0.000033 0.000000 0.034395
#
#
# Mechanical properties :
#
#
# Convention : Reuss Voigt Hill
#
# Bulk Modulus (GPa) = 29.53971 36.12511 32.83241
# Shear Modulus (GPa) = 25.87150 32.27098 29.07124
#
# Velocity S-wave (km/s) = 3.10143 3.46384 3.28763
# Velocity P-wave (km/s) = 4.87933 5.42482 5.15929
#
# Compressibility (1/GPa) = 0.03385273
#
# Stress axis : x y z
#
# Youngs Moduli (GPa) = 154.86698 76.57339 54.57562
#
# Poissons Ratio (x) = 0.03923 0.05857
# Poissons Ratio (y) = 0.07934 0.02227
# Poissons Ratio (z) = 0.16620 0.03124
#
# Static dielectric constant tensor:
#      x y z
#    x 2.074670 0.000000 0.040900 
#    y 0.000000 2.411710 0.000000 
#    z 0.040900 0.000000 2.135100 
# 
# From -- ./inp_files/291101.got.cif
#   From: 2010.05.17/outbox.cif.g08.bks.cpg/sg15_146_cif.got.tgz:291101.got - 2010.06.03 18:47:42.
