data_PCOD9271031
_publ_section_title
;
Structure prediction by ZEFSAII (Michael W. Deem and Ramdas Pophale) SiO2 
 PCOD9271031
Probable space group: C 2/C
;
_chemical_formula_sum "Si O2"
_cell_formula_units_Z 36
_cell_length_a 13.350313
_cell_length_b 9.173872
_cell_length_c 10.536146
_cell_angle_alpha 90.000000
_cell_angle_beta 96.624319
_cell_angle_gamma 90.000000
_cell_volume 1281.789724
_symmetry_space_group_name_H-M "C 2/C"
_symmetry_group_IT_number 15
_symmetry_cell_setting 'monoclinic'
loop_
_space_group_symop_operation_xyz
x,y,z
-x,y,1/2-z
-x,-y,-z
x,-y,1/2+z
1/2+x,1/2+y,z
1/2-x,1/2+y,1/2-z
1/2-x,1/2-y,-z
1/2+x,1/2-y,1/2+z
loop_
_atom_site_type_symbol
_atom_site_label
_atom_site_fract_x
_atom_site_fract_y
_atom_site_fract_z
Si Si1 0.671578 0.163316 0.402909
Si Si2 0.269506 0.662576 0.166001
Si Si3 0.000000 0.135280 0.750000
Si Si4 0.095093 0.138677 0.520558
Si Si5 0.931398 0.388605 0.131247
O O1 0.750000 0.250000 0.500000
O O2 0.736000 0.098780 0.293360
O O3 0.587707 0.266317 0.325112
O O4 0.615546 0.022577 0.453027
O O5 0.173731 0.740937 0.088126
O O6 0.346091 0.797140 0.194052
O O7 0.334896 0.564924 0.076848
O O8 0.046593 0.056258 0.632065
O O9 0.020489 0.254381 0.440683
O O10 0.000000 0.454575 0.250000
#
# Coordination Sequence:
#
# PCOD9271031 Si02
#       5
#     8   8   4   8   8
#     4  11  23  35  57  93 125 159 201 260 311 357
#     4   8  19  39  53  85 125 163 189 250 310 360
#     4  10  20  36  56  88 120 156 200 246 306 360
#     4   8  18  37  59  82 124 155 197 255 303 357
#     4  10  20  37  64  95 118 156 208 257 300 363
#
# _framework density 28.085730000000002
#
# number of rings (size 3 to 8) (size 9 to 14) (size 15 to 20)
#    1.333    1.333    1.111    0.000    3.111    4.444 
#    0.000    0.000    0.000    5.333   23.111    0.000 
#    0.000    0.000    0.000    0.000    0.000    0.000 
#
# Total GULP energy -100501.204878 kJ/mol
# GULP energy per Si atom -5583.400271 kJ/mol
# Density = 2.802181 g / cm^3
# Si number density = 28.085730 Si / 1000 Ang^3
#
#
#
# Elastic Constant Matrix: (Units=GPa)
#
#
# Indices 1 2 3 4 5 6 
#
# 1 88.6212 43.8695 38.3466 0.0000 14.7760 0.0000
# 2 43.8695 126.3837 31.4731 0.0000 8.7242 0.0000
# 3 38.3466 31.4731 135.4544 0.0000 -28.1550 0.0000
# 4 0.0000 0.0000 0.0000 18.0243 0.0000 -3.3522
# 5 14.7760 8.7242 -28.1550 0.0000 73.7256 0.0000
# 6 0.0000 0.0000 0.0000 -3.3522 0.0000 43.2129
#
#
#
# Elastic Compliance Matrix: (Units=1/GPa)
#
#
# Indices 1 2 3 4 5 6 
#
# 1 0.016015 -0.004133 -0.004496 0.000000 -0.004438 0.000000
# 2 -0.004133 0.009714 -0.001253 0.000000 -0.000800 0.000000
# 3 -0.004496 -0.001253 0.009955 0.000000 0.004851 0.000000
# 4 0.000000 0.000000 0.000000 0.056293 0.000000 0.004367
# 5 -0.004438 -0.000800 0.004851 0.000000 0.016400 0.000000
# 6 0.000000 0.000000 0.000000 0.004367 0.000000 0.023480
#
#
# Mechanical properties :
#
#
# Convention : Reuss Voigt Hill
#
# Bulk Modulus (GPa) = 62.81505 64.20419 63.50962
# Shear Modulus (GPa) = 31.86149 42.77722 37.31935
#
# Velocity S-wave (km/s) = 3.37179 3.90692 3.64918
# Velocity P-wave (km/s) = 6.12966 6.57736 6.35745
#
# Compressibility (1/GPa) = 0.01591975
#
# Stress axis : x y z
#
# Youngs Moduli (GPa) = 62.44038 102.93969 100.45355
#
# Poissons Ratio (x) = 0.42547 0.45163
# Poissons Ratio (y) = 0.25808 0.12590
# Poissons Ratio (z) = 0.28072 0.12902
#
# Static dielectric constant tensor:
#      x y z
#    x 2.305850 0.000000 -0.010510 
#    y 0.000000 2.159620 0.000000 
#    z -0.010510 0.000000 2.296390 
# 
# From -- ./inp_files/94081.got.cif
#   From: 2010.05.17/outbox.cif.g08.bks.cpg/sg15_48_cif.got.tgz:94081.got - 2010.06.03 18:47:42.
