data_PCOD9271614
_publ_section_title
;
Structure prediction by ZEFSAII (Michael W. Deem and Ramdas Pophale) SiO2 
 PCOD9271614
Probable space group: C 2/C
;
_chemical_formula_sum "Si O2"
_cell_formula_units_Z 60
_cell_length_a 14.925143
_cell_length_b 21.282319
_cell_length_c 9.235433
_cell_angle_alpha 90.000000
_cell_angle_beta 112.797884
_cell_angle_gamma 90.000000
_cell_volume 2704.381205
_symmetry_space_group_name_H-M "C 2/C"
_symmetry_group_IT_number 15
_symmetry_cell_setting 'monoclinic'
loop_
_space_group_symop_operation_xyz
x,y,z
-x,y,1/2-z
-x,-y,-z
x,-y,1/2+z
1/2+x,1/2+y,z
1/2-x,1/2+y,1/2-z
1/2-x,1/2-y,-z
1/2+x,1/2-y,1/2+z
loop_
_atom_site_type_symbol
_atom_site_label
_atom_site_fract_x
_atom_site_fract_y
_atom_site_fract_z
Si Si1 0.437749 0.474146 0.330166
Si Si2 0.332878 0.596395 0.188098
Si Si3 0.000000 0.522092 0.250000
Si Si4 0.127238 0.465906 0.583139
Si Si5 0.259751 0.089732 0.784664
Si Si6 0.788865 0.844694 0.956742
Si Si7 0.608747 0.756458 0.779340
Si Si8 0.195301 0.196614 0.557464
O O1 0.500000 0.436410 0.250000
O O2 0.500000 0.500000 0.500000
O O3 0.394828 0.533597 0.215871
O O4 0.344661 0.437191 0.328682
O O5 0.220401 0.574938 0.101106
O O6 0.340742 0.622090 0.355901
O O7 0.355147 0.650622 0.089043
O O8 0.063415 0.480730 0.402163
O O9 0.065958 0.561402 0.179126
O O10 0.164558 0.533060 0.670689
O O11 0.270802 0.153264 0.698951
O O12 0.246615 0.106618 0.944611
O O13 0.693237 0.808449 0.841693
O O14 0.858326 0.795780 0.082414
O O15 0.500000 0.776907 0.750000
O O16 0.622018 0.725811 0.628949
O O17 0.250000 0.250000 0.500000
#
# Coordination Sequence:
#
# PCOD9271614 Si02
#       8
#     8   8   4   8   8   8   8   8
#     4  11  23  39  63 104 131 165 218 271 335 403
#     4  11  22  39  67  92 134 168 207 273 333 397
#     4  10  20  36  60  88 126 154 210 258 306 388
#     4  10  21  39  58  94 123 167 207 262 333 378
#     4  10  22  40  64  87 132 171 211 268 328 398
#     4  10  21  40  66  88 124 176 215 263 328 390
#     4  10  23  44  64  90 124 167 229 270 313 387
#     4  11  22  41  66  92 127 176 218 270 331 390
#
# _framework density 22.186222999999998
#
# number of rings (size 3 to 8) (size 9 to 14) (size 15 to 20)
#    0.000    1.600    1.333    3.200    0.000    9.600 
#    7.200    0.000    0.000    0.000    0.000    0.000 
#    0.000    0.000    0.000    0.000    0.000    0.000 
#
# Total GULP energy -167751.667057 kJ/mol
# GULP energy per Si atom -5591.722235 kJ/mol
# Density = 2.213573 g / cm^3
# Si number density = 22.186223 Si / 1000 Ang^3
#
#
#
# Elastic Constant Matrix: (Units=GPa)
#
#
# Indices 1 2 3 4 5 6 
#
# 1 87.6070 10.7777 37.1781 0.0000 -2.3334 0.0000
# 2 10.7777 64.9909 22.8363 0.0000 -6.7245 0.0000
# 3 37.1781 22.8363 112.1335 0.0000 -20.8697 0.0000
# 4 0.0000 0.0000 0.0000 46.1166 0.0000 -13.9193
# 5 -2.3334 -6.7245 -20.8697 0.0000 32.6279 0.0000
# 6 0.0000 0.0000 0.0000 -13.9193 0.0000 6.4103
#
#
#
# Elastic Compliance Matrix: (Units=1/GPa)
#
#
# Indices 1 2 3 4 5 6 
#
# 1 0.013453 -0.000806 -0.004709 0.000000 -0.002216 0.000000
# 2 -0.000806 0.016680 -0.002839 0.000000 0.001564 0.000000
# 3 -0.004709 -0.002839 0.012357 0.000000 0.006982 0.000000
# 4 0.000000 0.000000 0.000000 0.062924 0.000000 0.136633
# 5 -0.002216 0.001564 0.006982 0.000000 0.035278 0.000000
# 6 0.000000 0.000000 0.000000 0.136633 0.000000 0.452685
#
#
# Mechanical properties :
#
#
# Convention : Reuss Voigt Hill
#
# Bulk Modulus (GPa) = 38.78473 45.14619 41.96546
# Shear Modulus (GPa) = 8.08177 29.96026 19.02101
#
# Velocity S-wave (km/s) = 1.91066 3.67876 2.93120
# Velocity P-wave (km/s) = 4.73148 6.19979 5.51472
#
# Compressibility (1/GPa) = 0.02578334
#
# Stress axis : x y z
#
# Youngs Moduli (GPa) = 74.33321 59.95331 80.92829
#
# Poissons Ratio (x) = 0.04830 0.38106
# Poissons Ratio (y) = 0.05989 0.22972
# Poissons Ratio (z) = 0.35001 0.17018
#
# Static dielectric constant tensor:
#      x y z
#    x 1.872340 0.000000 0.008940 
#    y 0.000000 1.810870 0.000000 
#    z 0.008940 0.000000 1.816800 
# 
# From -- ./inp_files/42714.got.cif
#   From: 2010.05.17/outbox.cif.g08.bks.cpg/sg15_22_cif.got.tgz:42714.got - 2010.06.03 18:47:42.
