data_PCOD9271870
_publ_section_title
;
Structure prediction by ZEFSAII (Michael W. Deem and Ramdas Pophale) SiO2 
 PCOD9271870
Probable space group: C 2/C
;
_chemical_formula_sum "Si O2"
_cell_formula_units_Z 44
_cell_length_a 10.023232
_cell_length_b 24.010360
_cell_length_c 10.938230
_cell_angle_alpha 90.000000
_cell_angle_beta 51.760858
_cell_angle_gamma 90.000000
_cell_volume 2067.584822
_symmetry_space_group_name_H-M "C 2/C"
_symmetry_group_IT_number 15
_symmetry_cell_setting 'monoclinic'
loop_
_space_group_symop_operation_xyz
x,y,z
-x,y,1/2-z
-x,-y,-z
x,-y,1/2+z
1/2+x,1/2+y,z
1/2-x,1/2+y,1/2-z
1/2-x,1/2-y,-z
1/2+x,1/2-y,1/2+z
loop_
_atom_site_type_symbol
_atom_site_label
_atom_site_fract_x
_atom_site_fract_y
_atom_site_fract_z
Si Si1 0.465495 0.843499 0.463283
Si Si2 0.000000 0.059781 0.250000
Si Si3 0.500000 0.065080 0.750000
Si Si4 0.825941 0.509137 0.521094
Si Si5 0.856258 0.152159 0.189729
Si Si6 0.837270 0.364823 0.932440
Si Si7 0.500000 0.245343 0.750000
O O1 0.536745 0.893648 0.340861
O O2 0.306808 0.864181 0.633726
O O3 0.606884 0.827488 0.483594
O O4 0.411481 0.796147 0.397542
O O5 0.005591 0.104448 0.358983
O O6 0.837685 0.020054 0.328647
O O7 0.646606 0.024300 0.621465
O O8 0.802510 0.573631 0.503552
O O9 0.000000 0.500000 0.500000
O O10 0.810646 0.154590 0.073752
O O11 0.900634 0.212300 0.218830
O O12 0.000000 0.368415 0.750000
#
# Coordination Sequence:
#
# PCOD9271870 Si02
#       7
#     8   4   4   8   8   8   4
#     4  10  20  38  62  89 114 167 213 261 322 382
#     4  11  24  39  62  94 132 167 216 249 314 380
#     4  11  20  35  66  90 126 161 210 253 310 386
#     4  12  22  40  62  94 131 174 209 256 312 379
#     4  10  21  40  57  90 123 160 211 271 310 381
#     4  10  20  36  62  87 124 164 211 255 317 378
#     4  10  22  36  62  86 116 162 214 270 326 380
#
# _framework density 21.280868999999999
#
# number of rings (size 3 to 8) (size 9 to 14) (size 15 to 20)
#    0.000    1.455    4.545    1.636    0.000    1.455 
#    0.000    0.000    0.000    0.000    0.000    0.000 
#    0.000    0.000    0.000    0.000    0.000    0.000 
#
# Total GULP energy -122595.576428 kJ/mol
# GULP energy per Si atom -5572.526201 kJ/mol
# Density = 2.123243 g / cm^3
# Si number density = 21.280869 Si / 1000 Ang^3
#
#
#
# Elastic Constant Matrix: (Units=GPa)
#
#
# Indices 1 2 3 4 5 6 
#
# 1 117.5582 38.6576 10.3409 0.0000 23.0055 0.0000
# 2 38.6576 79.0347 19.1788 0.0000 16.2314 0.0000
# 3 10.3409 19.1788 34.0190 0.0000 12.6905 0.0000
# 4 0.0000 0.0000 0.0000 31.7495 0.0000 1.6692
# 5 23.0055 16.2314 12.6905 0.0000 31.6618 0.0000
# 6 0.0000 0.0000 0.0000 1.6692 0.0000 14.3155
#
#
#
# Elastic Compliance Matrix: (Units=1/GPa)
#
#
# Indices 1 2 3 4 5 6 
#
# 1 0.011096 -0.004491 0.001538 0.000000 -0.006376 0.000000
# 2 -0.004491 0.017164 -0.007344 0.000000 -0.002592 0.000000
# 3 0.001538 -0.007344 0.037721 0.000000 -0.012471 0.000000
# 4 0.000000 0.000000 0.000000 0.031691 0.000000 -0.003695
# 5 -0.006376 -0.002592 -0.012471 0.000000 0.042544 0.000000
# 6 0.000000 0.000000 0.000000 -0.003695 0.000000 0.070285
#
#
# Mechanical properties :
#
#
# Convention : Reuss Voigt Hill
#
# Bulk Modulus (GPa) = 22.03360 40.77405 31.40383
# Shear Modulus (GPa) = 20.30675 26.37436 23.34056
#
# Velocity S-wave (km/s) = 3.09241 3.52425 3.31537
# Velocity P-wave (km/s) = 4.80904 5.98014 5.42627
#
# Compressibility (1/GPa) = 0.04538522
#
# Stress axis : x y z
#
# Youngs Moduli (GPa) = 90.12502 58.26231 26.51066
#
# Poissons Ratio (x) = 0.26164 -0.04076
# Poissons Ratio (y) = 0.40473 0.19470
# Poissons Ratio (z) = -0.13857 0.42789
#
# Static dielectric constant tensor:
#      x y z
#    x 1.866530 0.000000 -0.014170 
#    y 0.000000 1.775080 0.000000 
#    z -0.014170 0.000000 1.795900 
# 
# From -- ./inp_files/90250.got.cif
#   From: 2010.05.17/outbox.cif.g08.bks.cpg/sg15_46_cif.got.tgz:90250.got - 2010.06.03 18:47:42.
