data_PCOD9271928
_publ_section_title
;
Structure prediction by ZEFSAII (Michael W. Deem and Ramdas Pophale) SiO2 
 PCOD9271928
Probable space group: C 2/C
;
_chemical_formula_sum "Si O2"
_cell_formula_units_Z 64
_cell_length_a 19.932358
_cell_length_b 8.461094
_cell_length_c 30.369077
_cell_angle_alpha 90.000000
_cell_angle_beta 143.648210
_cell_angle_gamma 90.000000
_cell_volume 3035.862292
_symmetry_space_group_name_H-M "C 2/C"
_symmetry_group_IT_number 15
_symmetry_cell_setting 'monoclinic'
loop_
_space_group_symop_operation_xyz
x,y,z
-x,y,1/2-z
-x,-y,-z
x,-y,1/2+z
1/2+x,1/2+y,z
1/2-x,1/2+y,1/2-z
1/2-x,1/2-y,-z
1/2+x,1/2-y,1/2+z
loop_
_atom_site_type_symbol
_atom_site_label
_atom_site_fract_x
_atom_site_fract_y
_atom_site_fract_z
Si Si1 0.717870 0.951371 0.548336
Si Si2 0.229855 0.163265 0.059672
Si Si3 0.274225 0.943384 0.848288
Si Si4 0.979354 0.312046 0.663290
Si Si5 0.776448 0.683229 0.180168
Si Si6 0.643237 0.312479 0.696709
Si Si7 0.529324 0.006671 0.605584
Si Si8 0.586787 0.491801 0.909103
O O1 0.718169 0.145633 0.548515
O O2 0.814456 0.901396 0.565213
O O3 0.741861 0.891232 0.610117
O O4 0.589765 0.910959 0.467847
O O5 0.359097 0.120984 0.114989
O O6 0.216059 0.125298 0.103864
O O7 0.146915 0.077411 0.982097
O O8 0.208627 0.845788 0.776455
O O9 0.232685 0.125490 0.824810
O O10 0.406071 0.945612 0.903499
O O11 0.005845 0.370421 0.628107
O O12 0.960072 0.124819 0.649453
O O13 0.090083 0.354098 0.749627
O O14 0.716551 0.630847 0.193534
O O15 0.614429 0.130005 0.673191
O O16 0.522348 0.396679 0.634297
#
# Coordination Sequence:
#
# PCOD9271928 Si02
#       8
#     8   8   8   8   8   8   8   8
#     4  10  20  38  63  91 112 154 202 244 283 345
#     4  10  20  36  62  92 113 149 203 241 291 340
#     4  10  21  38  61  86 118 154 199 240 288 349
#     4  11  18  37  64  86 114 153 191 248 291 332
#     4  10  21  37  60  87 116 151 199 246 284 342
#     4  11  24  37  56  88 119 164 189 233 298 348
#     4  11  21  38  62  86 119 153 196 240 295 345
#     4  11  21  38  63  86 120 152 195 240 292 345
#
# _framework density 21.081326000000001
#
# number of rings (size 3 to 8) (size 9 to 14) (size 15 to 20)
#    0.000    1.500    5.000    1.500    0.000    1.500 
#    0.000    1.250    2.750    0.000    0.000    0.000 
#    0.000    0.000    0.000    0.000    0.000    0.000 
#
# Total GULP energy -178711.558539 kJ/mol
# GULP energy per Si atom -5584.736204 kJ/mol
# Density = 2.103334 g / cm^3
# Si number density = 21.081326 Si / 1000 Ang^3
#
#
#
# Elastic Constant Matrix: (Units=GPa)
#
#
# Indices 1 2 3 4 5 6 
#
# 1 87.6308 18.3413 51.0650 0.0000 1.7046 -0.0001
# 2 18.3413 9.9844 2.4019 0.0000 3.4623 -0.0001
# 3 51.0650 2.4019 99.7995 0.0000 5.0089 0.0000
# 4 0.0000 0.0000 0.0000 28.3560 0.0000 4.0319
# 5 1.7046 3.4623 5.0089 0.0000 36.7393 0.0000
# 6 -0.0001 -0.0001 0.0000 4.0319 0.0000 21.6447
#
#
#
# Elastic Compliance Matrix: (Units=1/GPa)
#
#
# Indices 1 2 3 4 5 6 
#
# 1 0.032506 -0.058085 -0.015540 0.000000 0.006084 0.000000
# 2 -0.058085 0.207736 0.025745 0.000000 -0.020392 0.000001
# 3 -0.015540 0.025745 0.017558 0.000000 -0.004099 0.000000
# 4 0.000000 0.000000 0.000000 0.036225 0.000000 -0.006748
# 5 0.006084 -0.020392 -0.004099 0.000000 0.029417 0.000000
# 6 0.000000 0.000001 0.000000 -0.006748 0.000000 0.047458
#
#
# Mechanical properties :
#
#
# Convention : Reuss Voigt Hill
#
# Bulk Modulus (GPa) = 6.17135 37.89234 22.03184
# Shear Modulus (GPa) = 9.60294 25.72179 17.66236
#
# Velocity S-wave (km/s) = 2.13660 3.49681 2.89765
# Velocity P-wave (km/s) = 3.00342 5.85807 4.65497
#
# Compressibility (1/GPa) = 0.16203913
#
# Stress axis : x y z
#
# Youngs Moduli (GPa) = 30.76352 4.81380 56.95523
#
# Poissons Ratio (x) = 0.27961 0.88508
# Poissons Ratio (y) = 1.78690 -1.46629
# Poissons Ratio (z) = 0.47806 -0.12393
#
# Static dielectric constant tensor:
#      x y z
#    x 1.768200 0.000000 0.003850 
#    y 0.000000 1.766720 0.000000 
#    z 0.003850 0.000000 1.760590 
# 
# From -- ./inp_files/315743.got.cif
#   From: 2010.05.17/outbox.cif.g08.bks.cpg/sg15_158_cif.got.tgz:315743.got - 2010.06.03 18:47:42.
