data_PCOD9271395
_publ_section_title
;
Structure prediction by ZEFSAII (Michael W. Deem and Ramdas Pophale) SiO2 
 PCOD9271395
Probable space group: C 2/C
;
_chemical_formula_sum "Si O2"
_cell_formula_units_Z 48
_cell_length_a 18.758553
_cell_length_b 14.693519
_cell_length_c 15.935004
_cell_angle_alpha 90.000000
_cell_angle_beta 24.898219
_cell_angle_gamma 90.000000
_cell_volume 1849.129321
_symmetry_space_group_name_H-M "C 2/C"
_symmetry_group_IT_number 15
_symmetry_cell_setting 'monoclinic'
loop_
_space_group_symop_operation_xyz
x,y,z
-x,y,1/2-z
-x,-y,-z
x,-y,1/2+z
1/2+x,1/2+y,z
1/2-x,1/2+y,1/2-z
1/2-x,1/2-y,-z
1/2+x,1/2-y,1/2+z
loop_
_atom_site_type_symbol
_atom_site_label
_atom_site_fract_x
_atom_site_fract_y
_atom_site_fract_z
Si Si1 0.153887 0.392582 0.827555
Si Si2 0.328092 0.440439 0.180321
Si Si3 0.000000 0.723559 0.750000
Si Si4 0.015192 0.224755 0.545218
Si Si5 0.681875 0.935225 0.600720
Si Si6 0.249247 0.377140 0.078393
Si Si7 0.500000 0.696138 0.750000
O O1 0.179575 0.484308 0.854740
O O2 0.008485 0.316730 0.981921
O O3 0.320548 0.329823 0.660028
O O4 0.157341 0.425007 0.727002
O O5 0.363772 0.349751 0.195440
O O6 0.300951 0.406226 0.115197
O O7 0.500000 0.500000 0.000000
O O8 0.938121 0.658945 0.741193
O O9 0.137474 0.792137 0.567303
O O10 0.021664 0.245931 0.637735
O O11 0.500000 0.929247 0.750000
O O12 0.828864 0.863306 0.422576
O O13 0.764526 0.035305 0.501453
#
# Coordination Sequence:
#
# PCOD9271395 Si02
#       7
#     8   8   4   8   8   8   4
#     4   9  21  36  59  83 115 158 193 248 303 360
#     4   9  20  40  60  82 123 165 197 246 313 371
#     4  10  21  36  61  92 118 154 206 264 304 364
#     4  10  21  38  59  87 118 155 203 245 307 365
#     4  10  20  36  59  84 123 157 198 253 308 364
#     4  10  20  37  59  89 120 158 206 252 314 365
#     4  10  23  36  59  92 116 158 204 252 306 366
#
# _framework density 25.958164
#
# number of rings (size 3 to 8) (size 9 to 14) (size 15 to 20)
#    0.000    2.333    0.833    1.500    3.500    4.000 
#    0.000    2.500    0.000    0.000    0.000    0.000 
#    0.000    0.000    0.000    0.000    0.000    0.000 
#
# Total GULP energy -134206.763991 kJ/mol
# GULP energy per Si atom -5591.948500 kJ/mol
# Density = 2.589908 g / cm^3
# Si number density = 25.958164 Si / 1000 Ang^3
#
#
#
# Elastic Constant Matrix: (Units=GPa)
#
#
# Indices 1 2 3 4 5 6 
#
# 1 137.4449 57.5783 34.3527 0.0008 -26.0273 -0.0004
# 2 57.5783 117.4943 3.4412 0.0007 -10.6609 -0.0004
# 3 34.3527 3.4412 68.8924 0.0013 -22.0271 -0.0008
# 4 0.0008 0.0007 0.0013 31.1655 -0.0009 -10.6727
# 5 -26.0273 -10.6609 -22.0271 -0.0009 35.4030 0.0006
# 6 -0.0004 -0.0004 -0.0008 -10.6727 0.0006 46.3814
#
#
#
# Elastic Compliance Matrix: (Units=1/GPa)
#
#
# Indices 1 2 3 4 5 6 
#
# 1 0.011145 -0.004961 -0.003954 0.000000 0.004239 0.000000
# 2 -0.004961 0.010973 0.002267 0.000000 0.001067 0.000000
# 3 -0.003954 0.002267 0.019552 0.000000 0.009941 0.000000
# 4 0.000000 0.000000 0.000000 0.034831 0.000000 0.008015
# 5 0.004239 0.001067 0.009941 0.000000 0.037869 0.000000
# 6 0.000000 0.000000 0.000000 0.008015 0.000000 0.023405
#
#
# Mechanical properties :
#
#
# Convention : Reuss Voigt Hill
#
# Bulk Modulus (GPa) = 35.24415 57.17511 46.20963
# Shear Modulus (GPa) = 31.14688 37.82062 34.48375
#
# Velocity S-wave (km/s) = 3.46770 3.82119 3.64873
# Velocity P-wave (km/s) = 5.44426 6.44533 5.96583
#
# Compressibility (1/GPa) = 0.02837350
#
# Stress axis : x y z
#
# Youngs Moduli (GPa) = 89.72582 91.13490 51.14509
#
# Poissons Ratio (x) = 0.45214 0.20223
# Poissons Ratio (y) = 0.44515 -0.11595
# Poissons Ratio (z) = 0.35479 -0.20661
#
# Static dielectric constant tensor:
#      x y z
#    x 2.035370 0.000000 -0.138380 
#    y 0.000000 2.074860 0.000000 
#    z -0.138380 0.000000 2.196490 
# 
# From -- ./inp_files/54997.got.cif
#   From: 2010.05.17/outbox.cif.g08.bks.cpg/sg15_28_cif.got.tgz:54997.got - 2010.06.03 18:47:42.
