data_PCOD9271336
_publ_section_title
;
Structure prediction by ZEFSAII (Michael W. Deem and Ramdas Pophale) SiO2 
 PCOD9271336
Probable space group: C 2/C
;
_chemical_formula_sum "Si O2"
_cell_formula_units_Z 52
_cell_length_a 18.399342
_cell_length_b 13.401565
_cell_length_c 15.574873
_cell_angle_alpha 90.000000
_cell_angle_beta 136.658170
_cell_angle_gamma 90.000000
_cell_volume 2635.892184
_symmetry_space_group_name_H-M "C 2/C"
_symmetry_group_IT_number 15
_symmetry_cell_setting 'monoclinic'
loop_
_space_group_symop_operation_xyz
x,y,z
-x,y,1/2-z
-x,-y,-z
x,-y,1/2+z
1/2+x,1/2+y,z
1/2-x,1/2+y,1/2-z
1/2-x,1/2-y,-z
1/2+x,1/2-y,1/2+z
loop_
_atom_site_type_symbol
_atom_site_label
_atom_site_fract_x
_atom_site_fract_y
_atom_site_fract_z
Si Si1 0.250708 0.962435 0.168910
Si Si2 0.395425 0.063770 0.432972
Si Si3 0.500000 0.554425 0.750000
Si Si4 0.383787 0.008129 0.614018
Si Si5 0.045534 0.060428 0.961376
Si Si6 0.777402 0.160987 0.584555
Si Si7 0.629885 0.288183 0.156778
O O1 0.183858 0.862363 0.133100
O O2 0.306757 0.999972 0.304634
O O3 0.324724 0.949911 0.148593
O O4 0.170357 0.052061 0.075149
O O5 0.388021 0.175337 0.388133
O O6 0.500000 0.000000 0.500000
O O7 0.391895 0.073946 0.533886
O O8 0.493901 0.499266 0.655752
O O9 0.392221 0.616855 0.658168
O O10 0.500000 0.978936 0.750000
O O11 0.313387 0.919144 0.513522
O O12 0.984024 0.165035 0.912132
O O13 0.000000 0.000000 0.000000
O O14 0.750000 0.250000 0.500000
O O15 0.793497 0.199830 0.695090
#
# Coordination Sequence:
#
# PCOD9271336 Si02
#       7
#     8   8   4   8   8   8   8
#     4  11  22  45  68  98 136 179 235 289 346 421
#     4  12  26  44  68  97 142 182 227 288 345 420
#     4  10  20  36  58  92 126 160 216 288 336 382
#     4  12  25  43  69  99 144 189 225 287 354 411
#     4   9  20  38  66  92 128 167 222 285 335 395
#     4  11  23  39  65 100 131 173 235 287 347 407
#     4  10  24  43  68 101 134 184 230 285 352 412
#
# _framework density 19.727664999999998
#
# number of rings (size 3 to 8) (size 9 to 14) (size 15 to 20)
#    0.000    1.231    4.615    0.923    1.077    3.077 
#    0.000    0.000    6.769    0.000    0.000    0.000 
#    0.000    0.000    0.000    0.000    0.000    0.000 
#
# Total GULP energy -144779.090506 kJ/mol
# GULP energy per Si atom -5568.426558 kJ/mol
# Density = 1.968276 g / cm^3
# Si number density = 19.727665 Si / 1000 Ang^3
#
#
#
# Elastic Constant Matrix: (Units=GPa)
#
#
# Indices 1 2 3 4 5 6 
#
# 1 112.1434 28.8908 56.9337 0.0000 -16.9636 0.0000
# 2 28.8908 101.1379 44.5129 0.0000 0.9024 0.0000
# 3 56.9337 44.5129 162.1065 0.0000 -8.7887 0.0000
# 4 0.0000 0.0000 0.0000 16.5659 0.0000 -26.3553
# 5 -16.9636 0.9024 -8.7887 0.0000 49.0494 0.0000
# 6 0.0000 0.0000 0.0000 -26.3553 0.0000 -4.6121
#
#
#
# Elastic Compliance Matrix: (Units=1/GPa)
#
#
# Indices 1 2 3 4 5 6 
#
# 1 0.011640 -0.001864 -0.003389 0.000000 0.003453 0.000000
# 2 -0.001864 0.011574 -0.002595 0.000000 -0.001323 0.000000
# 3 -0.003389 -0.002595 0.008089 0.000000 0.000325 0.000000
# 4 0.000000 0.000000 0.000000 0.005982 0.000000 -0.034183
# 5 0.003453 -0.001323 0.000325 0.000000 0.021664 0.000000
# 6 0.000000 0.000000 0.000000 -0.034183 0.000000 -0.021486
#
#
# Mechanical properties :
#
#
# Convention : Reuss Voigt Hill
#
# Bulk Modulus (GPa) = 64.07526 70.67360 67.37443
# Shear Modulus (GPa) = 85.67084 28.53735 57.10409
#
# Velocity S-wave (km/s) = 6.59705 3.80750 5.38600
# Velocity P-wave (km/s) = 9.51727 7.43181 8.53845
#
# Compressibility (1/GPa) = 0.01560665
#
# Stress axis : x y z
#
# Youngs Moduli (GPa) = 85.90808 86.40065 123.62055
#
# Poissons Ratio (x) = 0.16108 0.41896
# Poissons Ratio (y) = 0.16016 0.32080
# Poissons Ratio (z) = 0.29115 0.22421
#
# Static dielectric constant tensor:
#      x y z
#    x 1.744540 0.000000 -0.086200 
#    y 0.000000 1.753740 0.000000 
#    z -0.086200 0.000000 1.644210 
# 
# From -- ./inp_files/162633.got.cif
#   From: 2010.05.17/outbox.cif.g08.bks.cpg/sg15_82_cif.got.tgz:162633.got - 2010.06.03 18:47:42.
