data_PCOD9271554
_publ_section_title
;
Structure prediction by ZEFSAII (Michael W. Deem and Ramdas Pophale) SiO2 
 PCOD9271554
Probable space group: C 2/C
;
_chemical_formula_sum "Si O2"
_cell_formula_units_Z 52
_cell_length_a 17.047378
_cell_length_b 18.258159
_cell_length_c 16.958138
_cell_angle_alpha 90.000000
_cell_angle_beta 29.460002
_cell_angle_gamma 90.000000
_cell_volume 2595.943642
_symmetry_space_group_name_H-M "C 2/C"
_symmetry_group_IT_number 15
_symmetry_cell_setting 'monoclinic'
loop_
_space_group_symop_operation_xyz
x,y,z
-x,y,1/2-z
-x,-y,-z
x,-y,1/2+z
1/2+x,1/2+y,z
1/2-x,1/2+y,1/2-z
1/2-x,1/2-y,-z
1/2+x,1/2-y,1/2+z
loop_
_atom_site_type_symbol
_atom_site_label
_atom_site_fract_x
_atom_site_fract_y
_atom_site_fract_z
Si Si1 0.500000 0.770112 0.250000
Si Si2 0.630720 0.902431 0.433474
Si Si3 0.363696 0.645868 0.046857
Si Si4 0.728317 0.056072 0.293778
Si Si5 0.293756 0.186941 0.069307
Si Si6 0.193072 0.776794 0.286796
Si Si7 0.180489 0.667504 0.060539
O O1 0.426612 0.816736 0.385572
O O2 0.636755 0.718636 0.165590
O O3 0.446806 0.927397 0.590762
O O4 0.667474 0.836979 0.340319
O O5 0.675921 0.869184 0.478707
O O6 0.731509 0.973127 0.319910
O O7 0.355162 0.580313 0.116997
O O8 0.247158 0.708463 0.186036
O O9 0.292506 0.625412 0.024778
O O10 0.535330 0.683880 0.892504
O O11 0.739219 0.111099 0.357907
O O12 0.336786 0.245627 0.100094
O O13 0.000000 0.669154 0.250000
O O14 0.250000 0.750000 0.000000
#
# Coordination Sequence:
#
# PCOD9271554 Si02
#       7
#     4   8   8   8   8   8   8
#     4  10  20  36  60  86 110 144 208 250 300 346
#     4  11  23  39  60  88 124 164 206 252 307 381
#     4  11  21  37  62  91 122 159 202 254 310 374
#     4  10  22  42  59  83 123 167 204 246 310 377
#     4  10  20  37  59  85 112 152 196 256 296 357
#     4  11  21  37  64  91 117 157 205 252 311 372
#     4  12  23  38  61  94 125 157 202 266 314 363
#
# _framework density 20.03125
#
# number of rings (size 3 to 8) (size 9 to 14) (size 15 to 20)
#    0.000    1.231    3.077    5.538    0.000    0.615 
#    1.385    4.615    0.000    0.000    0.000    0.000 
#    0.000    0.000    0.000    0.000    0.000    0.000 
#
# Total GULP energy -145351.145261 kJ/mol
# GULP energy per Si atom -5590.428664 kJ/mol
# Density = 1.998566 g / cm^3
# Si number density = 20.031250 Si / 1000 Ang^3
#
#
#
# Elastic Constant Matrix: (Units=GPa)
#
#
# Indices 1 2 3 4 5 6 
#
# 1 105.4289 26.7788 25.0880 -0.0053 9.1752 0.0035
# 2 26.7788 97.5993 7.9018 -0.0083 15.3639 0.0068
# 3 25.0880 7.9018 68.5952 -0.0107 6.1729 0.0088
# 4 -0.0053 -0.0083 -0.0107 14.8935 0.0041 -4.0534
# 5 9.1752 15.3639 6.1729 0.0041 34.5127 -0.0022
# 6 0.0035 0.0068 0.0088 -4.0534 -0.0022 22.3248
#
#
#
# Elastic Compliance Matrix: (Units=1/GPa)
#
#
# Indices 1 2 3 4 5 6 
#
# 1 0.011110 -0.002570 -0.003663 0.000000 -0.001154 0.000000
# 2 -0.002570 0.011661 0.000002 0.000006 -0.004508 -0.000002
# 3 -0.003663 0.000002 0.016089 0.000010 -0.001905 -0.000004
# 4 0.000000 0.000006 0.000010 0.070634 -0.000012 0.012825
# 5 -0.001154 -0.004508 -0.001905 -0.000012 0.031629 0.000003
# 6 0.000000 -0.000002 -0.000004 0.012825 0.000003 0.047122
#
#
# Mechanical properties :
#
#
# Convention : Reuss Voigt Hill
#
# Bulk Modulus (GPa) = 37.88195 43.46229 40.67212
# Shear Modulus (GPa) = 23.86568 28.46988 26.16778
#
# Velocity S-wave (km/s) = 3.45544 3.77407 3.61826
# Velocity P-wave (km/s) = 5.90530 6.38246 6.14851
#
# Compressibility (1/GPa) = 0.02639780
#
# Stress axis : x y z
#
# Youngs Moduli (GPa) = 90.00846 85.75904 62.15307
#
# Poissons Ratio (x) = 0.22040 0.22770
# Poissons Ratio (y) = 0.23132 -0.00015
# Poissons Ratio (z) = 0.32974 -0.00021
#
# Static dielectric constant tensor:
#      x y z
#    x 1.726710 0.000000 -0.006110 
#    y 0.000000 1.695600 0.000000 
#    z -0.006110 0.000000 1.744400 
# 
# From -- ./inp_files/48636.got.cif
#   From: 2010.05.17/outbox.cif.g08.bks.cpg/sg15_25_cif.got.tgz:48636.got - 2010.06.03 18:47:42.
