data_PCOD9271224
_publ_section_title
;
Structure prediction by ZEFSAII (Michael W. Deem and Ramdas Pophale) SiO2 
 PCOD9271224
Probable space group: C 2/C
;
_chemical_formula_sum "Si O2"
_cell_formula_units_Z 64
_cell_length_a 14.166166
_cell_length_b 9.024716
_cell_length_c 25.583676
_cell_angle_alpha 90.000000
_cell_angle_beta 102.371108
_cell_angle_gamma 90.000000
_cell_volume 3194.815404
_symmetry_space_group_name_H-M "C 2/C"
_symmetry_group_IT_number 15
_symmetry_cell_setting 'monoclinic'
loop_
_space_group_symop_operation_xyz
x,y,z
-x,y,1/2-z
-x,-y,-z
x,-y,1/2+z
1/2+x,1/2+y,z
1/2-x,1/2+y,1/2-z
1/2-x,1/2-y,-z
1/2+x,1/2-y,1/2+z
loop_
_atom_site_type_symbol
_atom_site_label
_atom_site_fract_x
_atom_site_fract_y
_atom_site_fract_z
Si Si1 0.180896 0.511878 0.404930
Si Si2 0.625966 0.358818 0.703093
Si Si3 0.776110 0.119320 0.175637
Si Si4 0.755345 0.586209 0.977491
Si Si5 0.532858 0.504199 0.444248
Si Si6 0.137430 0.865584 0.136580
Si Si7 0.445449 0.753195 0.132941
Si Si8 0.754072 0.690543 0.869656
O O1 0.194461 0.498468 0.469299
O O2 0.276522 0.438390 0.389056
O O3 0.084185 0.423187 0.378286
O O4 0.183646 0.682387 0.385033
O O5 0.682102 0.335039 0.763230
O O6 0.627596 0.531632 0.686970
O O7 0.519777 0.288728 0.687561
O O8 0.676275 0.277372 0.660467
O O9 0.673532 0.201006 0.154783
O O10 0.845248 0.180736 0.138821
O O11 0.783731 0.943802 0.169762
O O12 0.646096 0.531797 0.955991
O O13 0.800860 0.607852 0.925601
O O14 0.750000 0.750000 0.000000
O O15 0.500000 0.500000 0.500000
O O16 0.463592 0.389348 0.405295
O O17 0.519911 0.663261 0.414202
#
# Coordination Sequence:
#
# PCOD9271224 Si02
#       8
#     8   8   8   8   8   8   8   8
#     4   9  19  38  59  84 124 161 190 242 309 365
#     4  10  21  39  59  82 120 155 200 252 307 354
#     4  11  20  38  62  86 112 156 203 253 306 356
#     4  10  20  36  58  83 124 162 188 238 314 356
#     4  11  20  36  60  89 120 156 205 246 294 365
#     4   9  20  35  59  86 114 153 202 247 293 358
#     4  10  22  37  60  90 116 158 207 252 296 368
#     4  10  21  38  59  87 120 156 198 247 306 371
#
# _framework density 20.032457000000001
#
# number of rings (size 3 to 8) (size 9 to 14) (size 15 to 20)
#    0.000    2.000    2.500    1.125    1.750    1.500 
#    4.500    0.625    0.000    3.000    0.000    0.000 
#    0.000    0.000    0.000    0.000    0.000    0.000 
#
# Total GULP energy -178196.964828 kJ/mol
# GULP energy per Si atom -5568.655151 kJ/mol
# Density = 1.998686 g / cm^3
# Si number density = 20.032457 Si / 1000 Ang^3
#
#
#
# Elastic Constant Matrix: (Units=GPa)
#
#
# Indices 1 2 3 4 5 6 
#
# 1 37.1355 35.1458 28.7348 0.0000 2.2468 0.0000
# 2 35.1458 96.2958 32.8963 0.0000 16.0281 0.0000
# 3 28.7348 32.8963 80.9798 0.0000 7.3857 0.0000
# 4 0.0000 0.0000 0.0000 15.6543 0.0000 6.9899
# 5 2.2468 16.0281 7.3857 0.0000 27.3869 0.0000
# 6 0.0000 0.0000 0.0000 6.9899 0.0000 24.5169
#
#
#
# Elastic Compliance Matrix: (Units=1/GPa)
#
#
# Indices 1 2 3 4 5 6 
#
# 1 0.050950 -0.015739 -0.012451 0.000000 0.008389 0.000000
# 2 -0.015739 0.017920 -0.000878 0.000000 -0.008960 0.000000
# 3 -0.012451 -0.000878 0.017412 0.000000 -0.003160 0.000000
# 4 0.000000 0.000000 0.000000 0.073198 0.000000 -0.020869
# 5 0.008389 -0.008960 -0.003160 0.000000 0.041922 0.000000
# 6 0.000000 0.000000 0.000000 -0.020869 0.000000 0.046738
#
#
# Mechanical properties :
#
#
# Convention : Reuss Voigt Hill
#
# Bulk Modulus (GPa) = 35.52693 45.32942 40.42818
# Shear Modulus (GPa) = 15.83997 21.35390 18.59694
#
# Velocity S-wave (km/s) = 2.81502 3.26845 3.05017
# Velocity P-wave (km/s) = 5.32343 6.07625 5.71226
#
# Compressibility (1/GPa) = 0.02814766
#
# Stress axis : x y z
#
# Youngs Moduli (GPa) = 19.62698 55.80330 57.43294
#
# Poissons Ratio (x) = 0.87826 0.71508
# Poissons Ratio (y) = 0.30890 0.05042
# Poissons Ratio (z) = 0.24437 0.04899
#
# Static dielectric constant tensor:
#      x y z
#    x 2.260920 0.000000 -0.075070 
#    y 0.000000 1.687040 0.000000 
#    z -0.075070 0.000000 1.740770 
# 
# From -- ./inp_files/295214.got.cif
#   From: 2010.05.17/outbox.cif.g08.bks.cpg/sg15_148_cif.got.tgz:295214.got - 2010.06.03 18:47:42.
