data_PCOD9271095
_publ_section_title
;
Structure prediction by ZEFSAII (Michael W. Deem and Ramdas Pophale) SiO2 
 PCOD9271095
Probable space group: C 2/C
;
_chemical_formula_sum "Si O2"
_cell_formula_units_Z 40
_cell_length_a 8.552186
_cell_length_b 26.578859
_cell_length_c 13.295983
_cell_angle_alpha 90.000000
_cell_angle_beta 142.412545
_cell_angle_gamma 90.000000
_cell_volume 1843.501907
_symmetry_space_group_name_H-M "C 2/C"
_symmetry_group_IT_number 15
_symmetry_cell_setting 'monoclinic'
loop_
_space_group_symop_operation_xyz
x,y,z
-x,y,1/2-z
-x,-y,-z
x,-y,1/2+z
1/2+x,1/2+y,z
1/2-x,1/2+y,1/2-z
1/2-x,1/2-y,-z
1/2+x,1/2-y,1/2+z
loop_
_atom_site_type_symbol
_atom_site_label
_atom_site_fract_x
_atom_site_fract_y
_atom_site_fract_z
Si Si1 0.228464 0.220559 0.594769
Si Si2 0.242263 0.388390 0.662607
Si Si3 0.313975 0.799010 0.742445
Si Si4 0.515682 0.054691 0.637209
Si Si5 0.988100 0.008926 0.375946
O O1 0.500000 0.193159 0.750000
O O2 0.250000 0.250000 0.500000
O O3 0.198730 0.259263 0.672699
O O4 0.965379 0.190884 0.448543
O O5 0.500000 0.362218 0.750000
O O6 0.101697 0.351835 0.667144
O O7 0.352547 0.438632 0.773428
O O8 0.068754 0.400664 0.478436
O O9 0.500000 0.780717 0.750000
O O10 0.500000 0.064221 0.750000
O O11 0.286794 0.013883 0.499232
O O12 0.792127 0.034539 0.744685
O O13 0.000000 0.000000 0.500000
#
# Coordination Sequence:
#
# PCOD9271095 Si02
#       5
#     8   8   8   8   8
#     4   9  19  39  65  86 112 153 190 228 290 361
#     4  10  20  36  57  83 116 157 197 237 287 355
#     4  11  22  38  61  90 119 149 190 246 295 342
#     4   9  18  34  57  81 110 152 196 243 291 341
#     4   9  18  33  54  80 113 153 194 238 289 343
#
# _framework density 21.697835000000001
#
# number of rings (size 3 to 8) (size 9 to 14) (size 15 to 20)
#    0.000    2.400    0.000    3.000    0.000    2.400 
#    0.000   23.000    0.000   12.000    0.000    0.000 
#    0.000    0.000    0.000    0.000    0.000    0.000 
#
# Total GULP energy -111480.858470 kJ/mol
# GULP energy per Si atom -5574.042924 kJ/mol
# Density = 2.164845 g / cm^3
# Si number density = 21.697835 Si / 1000 Ang^3
#
#
#
# Elastic Constant Matrix: (Units=GPa)
#
#
# Indices 1 2 3 4 5 6 
#
# 1 105.7746 14.0186 48.3866 0.0000 -24.7077 0.0000
# 2 14.0186 27.0372 28.6714 0.0000 -16.0761 0.0000
# 3 48.3866 28.6714 142.9043 0.0000 -10.1013 0.0000
# 4 0.0000 0.0000 0.0000 16.7904 0.0000 -12.9531
# 5 -24.7077 -16.0761 -10.1013 0.0000 44.4135 0.0000
# 6 0.0000 0.0000 0.0000 -12.9531 0.0000 29.6856
#
#
#
# Elastic Compliance Matrix: (Units=1/GPa)
#
#
# Indices 1 2 3 4 5 6 
#
# 1 0.012716 0.001921 -0.004210 0.000000 0.006812 0.000000
# 2 0.001921 0.059928 -0.011246 0.000000 0.020203 0.000000
# 3 -0.004210 -0.011246 0.010393 0.000000 -0.004049 0.000000
# 4 0.000000 0.000000 0.000000 0.089780 0.000000 0.039175
# 5 0.006812 0.020203 -0.004049 0.000000 0.032697 0.000000
# 6 0.000000 0.000000 0.000000 0.039175 0.000000 0.050780
#
#
# Mechanical properties :
#
#
# Convention : Reuss Voigt Hill
#
# Bulk Modulus (GPa) = 17.86704 50.87436 34.37070
# Shear Modulus (GPa) = 16.55517 30.48719 23.52118
#
# Velocity S-wave (km/s) = 2.76522 3.75251 3.29604
# Velocity P-wave (km/s) = 4.29507 6.50175 5.51001
#
# Compressibility (1/GPa) = 0.05596897
#
# Stress axis : x y z
#
# Youngs Moduli (GPa) = 78.63858 16.68660 96.21664
#
# Poissons Ratio (x) = -0.03206 0.40504
# Poissons Ratio (y) = -0.15109 1.08206
# Poissons Ratio (z) = 0.33104 0.18766
#
# Static dielectric constant tensor:
#      x y z
#    x 1.850010 0.000000 0.003150 
#    y 0.000000 1.781990 0.000000 
#    z 0.003150 0.000000 1.829750 
# 
# From -- ./inp_files/25113.got.cif
#   From: 2010.05.17/outbox.cif.g08.bks.cpg/sg15_13_cif.got.tgz:25113.got - 2010.06.03 18:47:42.
