data_PCOD9271720
_publ_section_title
;
Structure prediction by ZEFSAII (Michael W. Deem and Ramdas Pophale) SiO2 
 PCOD9271720
Probable space group: C 2/C
;
_chemical_formula_sum "Si O2"
_cell_formula_units_Z 40
_cell_length_a 12.465789
_cell_length_b 10.221869
_cell_length_c 17.324529
_cell_angle_alpha 90.000000
_cell_angle_beta 58.886715
_cell_angle_gamma 90.000000
_cell_volume 1889.992181
_symmetry_space_group_name_H-M "C 2/C"
_symmetry_group_IT_number 15
_symmetry_cell_setting 'monoclinic'
loop_
_space_group_symop_operation_xyz
x,y,z
-x,y,1/2-z
-x,-y,-z
x,-y,1/2+z
1/2+x,1/2+y,z
1/2-x,1/2+y,1/2-z
1/2-x,1/2-y,-z
1/2+x,1/2-y,1/2+z
loop_
_atom_site_type_symbol
_atom_site_label
_atom_site_fract_x
_atom_site_fract_y
_atom_site_fract_z
Si Si1 0.830917 0.212733 0.395633
Si Si2 0.077925 0.126229 0.380776
Si Si3 0.466671 0.330673 0.430413
Si Si4 0.222855 0.241936 0.782596
Si Si5 0.146363 0.071868 0.670231
O O1 0.750000 0.250000 0.500000
O O2 0.797643 0.297021 0.332593
O O3 0.973877 0.205252 0.370339
O O4 0.800114 0.065114 0.379056
O O5 0.082671 0.184716 0.464981
O O6 0.205066 0.140020 0.286062
O O7 0.029588 0.977218 0.405873
O O8 0.580850 0.236368 0.364466
O O9 0.365483 0.334553 0.400020
O O10 0.214468 0.137149 0.716703
O O11 0.000000 0.050434 0.750000
#
# Coordination Sequence:
#
# PCOD9271720 Si02
#       5
#     8   8   8   8   8
#     4  11  20  36  59  84 111 151 196 234 280 348
#     4  10  20  36  61  83 110 151 196 235 283 346
#     4   9  19  37  58  84 109 149 196 233 282 351
#     4  11  19  33  59  84 113 145 190 239 281 331
#     4   9  20  37  57  83 113 147 193 233 282 350
#
# _framework density 21.164107999999999
#
# number of rings (size 3 to 8) (size 9 to 14) (size 15 to 20)
#    0.000    2.000    2.000    4.200    0.000    0.800 
#    0.000    1.000    0.000   19.200    0.000    0.000 
#    0.000    0.000    0.000    0.000    0.000    0.000 
#
# Total GULP energy -111551.712343 kJ/mol
# GULP energy per Si atom -5577.585617 kJ/mol
# Density = 2.111594 g / cm^3
# Si number density = 21.164108 Si / 1000 Ang^3
#
#
#
# Elastic Constant Matrix: (Units=GPa)
#
#
# Indices 1 2 3 4 5 6 
#
# 1 106.0063 36.8273 59.4808 0.0000 41.2078 0.0000
# 2 36.8273 32.6811 22.6656 0.0000 5.8589 0.0000
# 3 59.4808 22.6656 153.2010 0.0000 41.9616 0.0000
# 4 0.0000 0.0000 0.0000 39.6436 0.0000 5.7599
# 5 41.2078 5.8589 41.9616 0.0000 47.1131 0.0000
# 6 0.0000 0.0000 0.0000 5.7599 0.0000 24.9674
#
#
#
# Elastic Compliance Matrix: (Units=1/GPa)
#
#
# Indices 1 2 3 4 5 6 
#
# 1 0.026159 -0.025220 -0.001346 0.000000 -0.018546 0.000000
# 2 -0.025220 0.058416 -0.003840 0.000000 0.018214 0.000000
# 3 -0.001346 -0.003840 0.009476 0.000000 -0.006786 0.000000
# 4 0.000000 0.000000 0.000000 0.026100 0.000000 -0.006021
# 5 -0.018546 0.018214 -0.006786 0.000000 0.041226 0.000000
# 6 0.000000 0.000000 0.000000 -0.006021 0.000000 0.041441
#
#
# Mechanical properties :
#
#
# Convention : Reuss Voigt Hill
#
# Bulk Modulus (GPa) = 30.08296 58.87065 44.47681
# Shear Modulus (GPa) = 18.20105 33.87245 26.03675
#
# Velocity S-wave (km/s) = 2.93575 4.00492 3.51127
# Velocity P-wave (km/s) = 5.07312 7.01873 6.12369
#
# Compressibility (1/GPa) = 0.03324141
#
# Stress axis : x y z
#
# Youngs Moduli (GPa) = 38.22724 17.11857 105.52429
#
# Poissons Ratio (x) = 0.43173 0.14199
# Poissons Ratio (y) = 0.96410 0.40516
# Poissons Ratio (z) = 0.05144 0.06573
#
# Static dielectric constant tensor:
#      x y z
#    x 1.828090 0.000000 0.019790 
#    y 0.000000 1.814550 0.000000 
#    z 0.019790 0.000000 1.788030 
# 
# From -- ./inp_files/141899.got.cif
#   From: 2010.05.17/outbox.cif.g08.bks.cpg/sg15_71_cif.got.tgz:141899.got - 2010.06.03 18:47:42.
