data_PCOD9271819
_publ_section_title
;
Structure prediction by ZEFSAII (Michael W. Deem and Ramdas Pophale) SiO2 
 PCOD9271819
Probable space group: C 2/C
;
_chemical_formula_sum "Si O2"
_cell_formula_units_Z 56
_cell_length_a 8.744449
_cell_length_b 19.683489
_cell_length_c 26.716303
_cell_angle_alpha 90.000000
_cell_angle_beta 143.670102
_cell_angle_gamma 90.000000
_cell_volume 2724.272880
_symmetry_space_group_name_H-M "C 2/C"
_symmetry_group_IT_number 15
_symmetry_cell_setting 'monoclinic'
loop_
_space_group_symop_operation_xyz
x,y,z
-x,y,1/2-z
-x,-y,-z
x,-y,1/2+z
1/2+x,1/2+y,z
1/2-x,1/2+y,1/2-z
1/2-x,1/2-y,-z
1/2+x,1/2-y,1/2+z
loop_
_atom_site_type_symbol
_atom_site_label
_atom_site_fract_x
_atom_site_fract_y
_atom_site_fract_z
Si Si1 0.500000 0.803217 0.750000
Si Si2 0.173817 0.847686 0.438113
Si Si3 0.937939 0.587302 0.910870
Si Si4 0.650608 0.772098 0.617295
Si Si5 0.845819 0.610671 0.305221
Si Si6 0.707868 0.470168 0.517109
Si Si7 0.450607 0.229260 0.597777
Si Si8 0.500000 0.505808 0.250000
O O1 0.564977 0.851959 0.720820
O O2 0.758672 0.759566 0.831119
O O3 0.303078 0.875728 0.421936
O O4 0.402274 0.805724 0.524988
O O5 0.100440 0.912798 0.451907
O O6 0.938802 0.794491 0.375296
O O7 0.720821 0.542200 0.828087
O O8 0.164568 0.532665 0.980100
O O9 0.036246 0.647819 0.901569
O O10 0.731332 0.829906 0.676937
O O11 0.841800 0.753712 0.622566
O O12 0.615710 0.556525 0.238720
O O13 0.075510 0.568445 0.392495
O O14 0.500000 0.500000 0.500000
O O15 0.250000 0.250000 0.500000
#
# Coordination Sequence:
#
# PCOD9271819 Si02
#       8
#     4   8   8   8   8   8   8   4
#     4  12  27  42  68 102 133 176 232 286 340 409
#     4  10  20  36  61  96 125 170 219 280 332 407
#     4  11  22  39  62  92 130 176 224 271 335 412
#     4  10  21  39  67  95 132 171 222 280 345 402
#     4  10  23  42  65  91 132 177 219 282 334 404
#     4  10  22  36  60  92 130 170 220 279 338 409
#     4  12  25  42  69 101 135 177 226 287 346 409
#     4  10  23  44  60  88 135 178 218 266 338 405
#
# _framework density 20.555942999999999
#
# number of rings (size 3 to 8) (size 9 to 14) (size 15 to 20)
#    0.000    1.429    1.429    3.429    6.000    1.143 
#    0.000    0.000    0.000    1.714    0.000    0.000 
#    0.000    0.000    0.000    0.000    0.000    0.000 
#
# Total GULP energy -156343.130824 kJ/mol
# GULP energy per Si atom -5583.683244 kJ/mol
# Density = 2.050916 g / cm^3
# Si number density = 20.555943 Si / 1000 Ang^3
#
#
#
# Elastic Constant Matrix: (Units=GPa)
#
#
# Indices 1 2 3 4 5 6 
#
# 1 118.8913 71.0824 34.1345 0.0001 3.0544 0.0006
# 2 71.0824 169.9432 43.2357 -0.0004 6.5871 0.0002
# 3 34.1345 43.2357 54.8912 -0.0009 7.5472 0.0003
# 4 0.0001 -0.0004 -0.0009 14.3493 -0.0003 5.8832
# 5 3.0544 6.5871 7.5472 -0.0003 27.7162 0.0005
# 6 0.0006 0.0002 0.0003 5.8832 0.0005 54.7357
#
#
#
# Elastic Compliance Matrix: (Units=1/GPa)
#
#
# Indices 1 2 3 4 5 6 
#
# 1 0.012025 -0.003915 -0.004509 0.000000 0.000833 0.000000
# 2 -0.003915 0.008634 -0.004305 0.000000 -0.000448 0.000000
# 3 -0.004509 -0.004305 0.025145 0.000001 -0.005327 0.000000
# 4 0.000000 0.000000 0.000001 0.072903 0.000000 -0.007836
# 5 0.000833 -0.000448 -0.005327 0.000000 0.037545 0.000000
# 6 0.000000 0.000000 0.000000 -0.007836 0.000000 0.019112
#
#
# Mechanical properties :
#
#
# Convention : Reuss Voigt Hill
#
# Bulk Modulus (GPa) = 49.14668 71.18124 60.16396
# Shear Modulus (GPa) = 24.08448 32.37844 28.23146
#
# Velocity S-wave (km/s) = 3.42666 3.97311 3.70996
# Velocity P-wave (km/s) = 6.29417 7.46664 6.90533
#
# Compressibility (1/GPa) = 0.02034725
#
# Stress axis : x y z
#
# Youngs Moduli (GPa) = 83.16231 115.81624 39.76970
#
# Poissons Ratio (x) = 0.45340 0.17931
# Poissons Ratio (y) = 0.32557 0.17120
# Poissons Ratio (z) = 0.37495 0.49857
#
# Static dielectric constant tensor:
#      x y z
#    x 1.734540 0.000000 0.025830 
#    y 0.000000 1.733160 0.000000 
#    z 0.025830 0.000000 1.746810 
# 
# From -- ./inp_files/289790.got.cif
#   From: 2010.05.17/outbox.cif.g08.bks.cpg/sg15_145_cif.got.tgz:289790.got - 2010.06.03 18:47:42.
