data_PCOD9271460
_publ_section_title
;
Structure prediction by ZEFSAII (Michael W. Deem and Ramdas Pophale) SiO2 
 PCOD9271460
Probable space group: C 2/C
;
_chemical_formula_sum "Si O2"
_cell_formula_units_Z 52
_cell_length_a 15.923143
_cell_length_b 23.228865
_cell_length_c 8.798165
_cell_angle_alpha 90.000000
_cell_angle_beta 50.783760
_cell_angle_gamma 90.000000
_cell_volume 2521.268264
_symmetry_space_group_name_H-M "C 2/C"
_symmetry_group_IT_number 15
_symmetry_cell_setting 'monoclinic'
loop_
_space_group_symop_operation_xyz
x,y,z
-x,y,1/2-z
-x,-y,-z
x,-y,1/2+z
1/2+x,1/2+y,z
1/2-x,1/2+y,1/2-z
1/2-x,1/2-y,-z
1/2+x,1/2-y,1/2+z
loop_
_atom_site_type_symbol
_atom_site_label
_atom_site_fract_x
_atom_site_fract_y
_atom_site_fract_z
Si Si1 0.858442 0.479887 0.495554
Si Si2 0.500000 0.504654 0.750000
Si Si3 0.442805 0.076057 0.592354
Si Si4 0.150883 0.041261 0.833368
Si Si5 0.380420 0.209218 0.648623
Si Si6 0.500000 0.720717 0.750000
Si Si7 0.500000 0.284668 0.750000
Si Si8 0.652800 0.330285 0.320561
O O1 0.913394 0.541511 0.473181
O O2 0.875199 0.457054 0.304996
O O3 0.736318 0.491637 0.690180
O O4 0.931327 0.435870 0.510661
O O5 0.555409 0.540869 0.818644
O O6 0.594366 0.469345 0.558930
O O7 0.418250 0.143149 0.622269
O O8 0.198043 0.104960 0.771238
O O9 0.445488 0.239361 0.438775
O O10 0.413833 0.244333 0.760644
O O11 0.254129 0.209718 0.748162
O O12 0.407117 0.684733 0.768428
O O13 0.562658 0.322484 0.554284
#
# Coordination Sequence:
#
# PCOD9271460 Si02
#       8
#     8   4   8   8   8   4   4   8
#     4  10  20  36  59  88 126 159 198 248 305 377
#     4  10  24  38  58  88 126 160 220 252 292 376
#     4  10  21  37  60  93 127 157 202 249 310 384
#     4  11  21  40  61  87 124 168 207 256 309 361
#     4  11  22  43  66  95 126 168 202 265 322 374
#     4  10  25  42  66  94 126 160 223 262 308 376
#     4  10  23  40  66  94 128 156 223 262 306 376
#     4  11  22  42  66  91 125 170 207 266 315 367
#
# _framework density 20.624542000000002
#
# number of rings (size 3 to 8) (size 9 to 14) (size 15 to 20)
#    0.000    1.538    1.538    3.692    0.000    2.462 
#    2.769    0.000   13.538    0.000    0.000    0.000 
#    0.000    0.000    0.000    0.000    0.000    0.000 
#
# Total GULP energy -145104.950713 kJ/mol
# GULP energy per Si atom -5580.959643 kJ/mol
# Density = 2.057760 g / cm^3
# Si number density = 20.624542 Si / 1000 Ang^3
#
#
#
# Elastic Constant Matrix: (Units=GPa)
#
#
# Indices 1 2 3 4 5 6 
#
# 1 100.2171 14.1583 24.5214 0.0000 -2.6392 0.0000
# 2 14.1583 79.5952 33.0367 0.0000 6.0822 0.0000
# 3 24.5214 33.0367 97.6832 0.0000 3.1713 0.0000
# 4 0.0000 0.0000 0.0000 12.6413 0.0000 -5.7313
# 5 -2.6392 6.0822 3.1713 0.0000 39.3572 0.0000
# 6 0.0000 0.0000 0.0000 -5.7313 0.0000 22.3642
#
#
#
# Elastic Compliance Matrix: (Units=1/GPa)
#
#
# Indices 1 2 3 4 5 6 
#
# 1 0.010733 -0.000998 -0.002391 0.000000 0.001067 0.000000
# 2 -0.000998 0.014846 -0.004706 0.000000 -0.001982 0.000000
# 3 -0.002391 -0.004706 0.012443 0.000000 -0.000436 0.000000
# 4 0.000000 0.000000 0.000000 0.089505 0.000000 0.022938
# 5 0.001067 -0.001982 -0.000436 0.000000 0.025821 0.000000
# 6 0.000000 0.000000 0.000000 0.022938 0.000000 0.050592
#
#
# Mechanical properties :
#
#
# Convention : Reuss Voigt Hill
#
# Bulk Modulus (GPa) = 45.80676 46.76984 46.28830
# Shear Modulus (GPa) = 21.98688 28.59114 25.28901
#
# Velocity S-wave (km/s) = 3.26859 3.72730 3.50546
# Velocity P-wave (km/s) = 6.04177 6.42259 6.23509
#
# Compressibility (1/GPa) = 0.02183084
#
# Stress axis : x y z
#
# Youngs Moduli (GPa) = 93.17461 67.35899 80.36530
#
# Poissons Ratio (x) = 0.06723 0.19217
# Poissons Ratio (y) = 0.09300 0.37820
# Poissons Ratio (z) = 0.22281 0.31699
#
# Static dielectric constant tensor:
#      x y z
#    x 1.786390 0.000000 -0.014030 
#    y 0.000000 1.700520 0.000000 
#    z -0.014030 0.000000 1.743570 
# 
# From -- ./inp_files/50603.got.cif
#   From: 2010.05.17/outbox.cif.g08.bks.cpg/sg15_26_cif.got.tgz:50603.got - 2010.06.03 18:47:42.
