data_PCOD9271160
_publ_section_title
;
Structure prediction by ZEFSAII (Michael W. Deem and Ramdas Pophale) SiO2 
 PCOD9271160
Probable space group: C 2/C
;
_chemical_formula_sum "Si O2"
_cell_formula_units_Z 48
_cell_length_a 14.675700
_cell_length_b 14.966712
_cell_length_c 11.586538
_cell_angle_alpha 90.000000
_cell_angle_beta 102.860906
_cell_angle_gamma 90.000000
_cell_volume 2481.103666
_symmetry_space_group_name_H-M "C 2/C"
_symmetry_group_IT_number 15
_symmetry_cell_setting 'monoclinic'
loop_
_space_group_symop_operation_xyz
x,y,z
-x,y,1/2-z
-x,-y,-z
x,-y,1/2+z
1/2+x,1/2+y,z
1/2-x,1/2+y,1/2-z
1/2-x,1/2-y,-z
1/2+x,1/2-y,1/2+z
loop_
_atom_site_type_symbol
_atom_site_label
_atom_site_fract_x
_atom_site_fract_y
_atom_site_fract_z
Si Si1 0.905235 0.823064 0.910819
Si Si2 0.000000 0.044840 0.250000
Si Si3 0.686839 0.146479 0.728189
Si Si4 0.088509 0.741915 0.974477
Si Si5 0.500000 0.121770 0.750000
Si Si6 0.825760 0.058304 0.588469
Si Si7 0.249604 0.129352 0.491514
O O1 0.947107 0.891354 0.827425
O O2 0.849916 0.741417 0.833553
O O3 0.996421 0.783362 0.004707
O O4 0.845208 0.878356 0.985088
O O5 0.077545 0.982642 0.334236
O O6 0.593457 0.083075 0.716645
O O7 0.766014 0.109196 0.667471
O O8 0.730637 0.148902 0.868141
O O9 0.164563 0.675578 0.052672
O O10 0.044492 0.684018 0.859900
O O11 0.152188 0.820980 0.941521
O O12 0.763470 0.973754 0.533386
#
# Coordination Sequence:
#
# PCOD9271160 Si02
#       7
#     8   4   8   8   4   8   8
#     4  11  22  41  61  87 123 165 199 245 311 365
#     4  12  23  38  62  92 125 166 196 251 290 368
#     4  10  22  40  61  86 122 165 198 250 306 364
#     4   9  18  33  60  81 110 157 203 242 278 365
#     4   8  17  38  60  82 105 164 210 225 286 370
#     4  12  25  36  60  98 127 150 198 266 309 337
#     4  10  20  36  57  91 113 156 213 239 287 368
#
# _framework density 19.346228
#
# number of rings (size 3 to 8) (size 9 to 14) (size 15 to 20)
#    0.000    1.667    1.667    5.000    4.667    0.000 
#    0.000    7.500    0.000    0.000    0.000    0.000 
#    0.000    0.000    0.000    0.000    0.000    0.000 
#
# Total GULP energy -133631.387405 kJ/mol
# GULP energy per Si atom -5567.974475 kJ/mol
# Density = 1.930220 g / cm^3
# Si number density = 19.346228 Si / 1000 Ang^3
#
#
#
# Elastic Constant Matrix: (Units=GPa)
#
#
# Indices 1 2 3 4 5 6 
#
# 1 71.5572 29.4739 27.8818 0.0000 -2.9034 0.0000
# 2 29.4739 76.6788 20.9917 0.0000 -2.0118 0.0000
# 3 27.8818 20.9917 56.7270 0.0000 -4.1672 0.0000
# 4 0.0000 0.0000 0.0000 15.9377 0.0000 9.3360
# 5 -2.9034 -2.0118 -4.1672 0.0000 36.9921 0.0000
# 6 0.0000 0.0000 0.0000 9.3360 0.0000 -16.4489
#
#
#
# Elastic Compliance Matrix: (Units=1/GPa)
#
#
# Indices 1 2 3 4 5 6 
#
# 1 0.019043 -0.005291 -0.007374 0.000000 0.000376 0.000000
# 2 -0.005291 0.015983 -0.003308 0.000000 0.000081 0.000000
# 3 -0.007374 -0.003308 0.022608 0.000000 0.001788 0.000000
# 4 0.000000 0.000000 0.000000 0.047089 0.000000 0.026726
# 5 0.000376 0.000081 0.001788 0.000000 0.027268 0.000000
# 6 0.000000 0.000000 0.000000 0.026726 0.000000 -0.045625
#
#
# Mechanical properties :
#
#
# Convention : Reuss Voigt Hill
#
# Bulk Modulus (GPa) = 38.92907 40.18421 39.55664
# Shear Modulus (GPa) = 39.40918 15.73722 27.57320
#
# Velocity S-wave (km/s) = 4.51826 2.85520 3.77934
# Velocity P-wave (km/s) = 6.88372 5.62901 6.28774
#
# Compressibility (1/GPa) = 0.02568775
#
# Stress axis : x y z
#
# Youngs Moduli (GPa) = 52.51350 62.56687 44.23181
#
# Poissons Ratio (x) = 0.33104 0.32617
# Poissons Ratio (y) = 0.27785 0.14631
# Poissons Ratio (z) = 0.38724 0.20696
#
# Static dielectric constant tensor:
#      x y z
#    x 1.773140 0.000000 0.019540 
#    y 0.000000 1.697080 0.000000 
#    z 0.019540 0.000000 1.667060 
# 
# From -- ./inp_files/96483.got.cif
#   From: 2010.05.17/outbox.cif.g08.bks.cpg/sg15_49_cif.got.tgz:96483.got - 2010.06.03 18:47:42.
