data_PCOD9271631
_publ_section_title
;
Structure prediction by ZEFSAII (Michael W. Deem and Ramdas Pophale) SiO2 
 PCOD9271631
Probable space group: C 2/C
;
_chemical_formula_sum "Si O2"
_cell_formula_units_Z 56
_cell_length_a 9.367908
_cell_length_b 16.566452
_cell_length_c 17.921850
_cell_angle_alpha 90.000000
_cell_angle_beta 119.724110
_cell_angle_gamma 90.000000
_cell_volume 2415.384379
_symmetry_space_group_name_H-M "C 2/C"
_symmetry_group_IT_number 15
_symmetry_cell_setting 'monoclinic'
loop_
_space_group_symop_operation_xyz
x,y,z
-x,y,1/2-z
-x,-y,-z
x,-y,1/2+z
1/2+x,1/2+y,z
1/2-x,1/2+y,1/2-z
1/2-x,1/2-y,-z
1/2+x,1/2-y,1/2+z
loop_
_atom_site_type_symbol
_atom_site_label
_atom_site_fract_x
_atom_site_fract_y
_atom_site_fract_z
Si Si1 0.000000 0.482656 0.750000
Si Si2 0.128951 0.085938 0.938224
Si Si3 0.141433 0.618254 0.874040
Si Si4 0.500000 0.576854 0.750000
Si Si5 0.029386 0.096449 0.449620
Si Si6 0.316778 0.702241 0.129495
Si Si7 0.285325 0.945807 0.826052
Si Si8 0.994465 0.615990 0.506157
O O1 0.867539 0.545288 0.684562
O O2 0.918156 0.436972 0.795942
O O3 0.032121 0.120253 0.839094
O O4 0.319534 0.110002 0.973586
O O5 0.056606 0.992700 0.920784
O O6 0.104774 0.106313 0.020355
O O7 0.143872 0.706832 0.841309
O O8 0.006863 0.609033 0.904682
O O9 0.307361 0.607132 0.960569
O O10 0.660178 0.518873 0.784661
O O11 0.050144 0.165204 0.393233
O O12 0.309424 0.638653 0.194059
O O13 0.129745 0.692634 0.044794
O O14 0.384603 0.948622 0.930551
#
# Coordination Sequence:
#
# PCOD9271631 Si02
#       8
#     4   8   8   4   8   8   8   8
#     4  12  24  37  64 101 126 164 222 270 330 381
#     4  11  21  34  60  98 127 165 211 285 306 385
#     4  11  21  39  65  94 125 166 216 269 314 393
#     4  12  20  35  54  93 130 160 198 268 338 359
#     4  10  20  36  60  89 124 164 222 253 324 373
#     4   9  21  42  64  87 126 169 215 260 323 384
#     4  10  23  40  63  91 130 171 208 272 315 393
#     4   9  20  40  65  87 128 167 226 251 326 368
#
# _framework density 23.184716000000002
#
# number of rings (size 3 to 8) (size 9 to 14) (size 15 to 20)
#    0.857    0.857    1.429    4.286    0.000    5.143 
#    0.000    2.857    0.000    3.429    0.000    0.000 
#    0.000    0.000    0.000    0.000    0.000    0.000 
#
# Total GULP energy -155979.702128 kJ/mol
# GULP energy per Si atom -5570.703647 kJ/mol
# Density = 2.313195 g / cm^3
# Si number density = 23.184716 Si / 1000 Ang^3
#
#
#
# Elastic Constant Matrix: (Units=GPa)
#
#
# Indices 1 2 3 4 5 6 
#
# 1 139.0934 24.7425 12.1667 0.0000 -7.6711 0.0000
# 2 24.7425 49.3793 9.2085 0.0000 -10.5586 0.0000
# 3 12.1667 9.2085 99.5024 0.0000 11.0246 0.0000
# 4 0.0000 0.0000 0.0000 -1.9343 0.0000 5.2574
# 5 -7.6711 -10.5586 11.0246 0.0000 32.1974 0.0000
# 6 0.0000 0.0000 0.0000 5.2574 0.0000 9.0025
#
#
#
# Elastic Compliance Matrix: (Units=1/GPa)
#
#
# Indices 1 2 3 4 5 6 
#
# 1 0.007955 -0.003644 -0.000741 0.000000 0.000954 0.000000
# 2 -0.003644 0.024294 -0.002691 0.000000 0.008020 0.000000
# 3 -0.000741 -0.002691 0.010921 0.000000 -0.004799 0.000000
# 4 0.000000 0.000000 0.000000 -0.199813 0.000000 0.116690
# 5 0.000954 0.008020 -0.004799 0.000000 0.035559 0.000000
# 6 0.000000 0.000000 0.000000 0.116690 0.000000 0.042933
#
#
# Mechanical properties :
#
#
# Convention : Reuss Voigt Hill
#
# Bulk Modulus (GPa) = 34.46168 42.24563 38.35366
# Shear Modulus (GPa) = -92.03930 23.97694 -34.03118
#
# Velocity S-wave (km/s) = -6.30749 3.21934 -3.83538
# Velocity P-wave (km/s) = 6.17654 5.66390 1.74212
#
# Compressibility (1/GPa) = 0.02901773
#
# Stress axis : x y z
#
# Youngs Moduli (GPa) = 125.70646 41.16232 91.56333
#
# Poissons Ratio (x) = 0.14999 0.06787
# Poissons Ratio (y) = 0.45805 0.24643
# Poissons Ratio (z) = 0.09317 0.11078
#
# Static dielectric constant tensor:
#      x y z
#    x 2.075400 0.000000 -0.112410 
#    y 0.000000 1.930700 0.000000 
#    z -0.112410 0.000000 1.972230 
# 
# From -- ./inp_files/232821.got.cif
#   From: 2010.05.17/outbox.cif.g08.bks.cpg/sg15_117_cif.got.tgz:232821.got - 2010.06.03 18:47:42.
