data_PCOD9271532
_publ_section_title
;
Structure prediction by ZEFSAII (Michael W. Deem and Ramdas Pophale) SiO2 
 PCOD9271532
Probable space group: C 2/C
;
_chemical_formula_sum "Si O2"
_cell_formula_units_Z 56
_cell_length_a 9.050376
_cell_length_b 15.901174
_cell_length_c 25.352130
_cell_angle_alpha 90.000000
_cell_angle_beta 56.623633
_cell_angle_gamma 90.000000
_cell_volume 3046.741936
_symmetry_space_group_name_H-M "C 2/C"
_symmetry_group_IT_number 15
_symmetry_cell_setting 'monoclinic'
loop_
_space_group_symop_operation_xyz
x,y,z
-x,y,1/2-z
-x,-y,-z
x,-y,1/2+z
1/2+x,1/2+y,z
1/2-x,1/2+y,1/2-z
1/2-x,1/2-y,-z
1/2+x,1/2-y,1/2+z
loop_
_atom_site_type_symbol
_atom_site_label
_atom_site_fract_x
_atom_site_fract_y
_atom_site_fract_z
Si Si1 0.603859 0.351732 0.333506
Si Si2 0.865660 0.429984 0.548826
Si Si3 0.612677 0.674505 0.032708
Si Si4 0.500000 0.751309 0.750000
Si Si5 0.884764 0.186931 0.179864
Si Si6 0.460712 0.253920 0.461776
Si Si7 0.500000 0.812674 0.250000
Si Si8 0.948880 0.986094 0.820355
O O1 0.539056 0.305252 0.293242
O O2 0.544709 0.292101 0.392593
O O3 0.816441 0.361768 0.293816
O O4 0.509755 0.441294 0.348356
O O5 0.721664 0.406209 0.531586
O O6 0.752011 0.461886 0.622180
O O7 0.000000 0.500000 0.500000
O O8 0.961643 0.340385 0.542815
O O9 0.482417 0.697992 0.105528
O O10 0.750000 0.750000 0.000000
O O11 0.511196 0.679461 0.997741
O O12 0.322344 0.804611 0.789587
O O13 0.958123 0.254331 0.207564
O O14 0.937249 0.097052 0.192182
O O15 0.250000 0.250000 0.500000
O O16 0.000000 0.011223 0.750000
#
# Coordination Sequence:
#
# PCOD9271532 Si02
#       8
#     8   8   8   4   8   8   4   8
#     4  11  22  39  58  88 119 161 203 251 301 369
#     4  10  22  41  64  91 120 167 206 255 318 374
#     4   9  19  37  59  86 116 155 198 238 301 363
#     4  10  22  36  60  86 120 156 204 244 306 362
#     4  10  20  37  61  85 116 154 195 249 302 365
#     4  11  22  39  64  90 123 157 208 257 307 371
#     4  10  20  36  60  82 116 152 204 238 302 352
#     4  11  22  40  60  87 123 159 203 253 312 369
#
# _framework density 18.380291
#
# number of rings (size 3 to 8) (size 9 to 14) (size 15 to 20)
#    0.000    1.714    1.429    4.286    2.000    1.714 
#    2.571    7.857    0.000    0.000    0.000    0.000 
#    0.000    0.000    0.000    0.000    0.000    0.000 
#
# Total GULP energy -156068.903689 kJ/mol
# GULP energy per Si atom -5573.889417 kJ/mol
# Density = 1.833846 g / cm^3
# Si number density = 18.380291 Si / 1000 Ang^3
#
#
#
# Elastic Constant Matrix: (Units=GPa)
#
#
# Indices 1 2 3 4 5 6 
#
# 1 116.3308 20.4222 57.3941 0.0000 -13.2968 0.0000
# 2 20.4222 71.0395 35.1708 0.0000 -11.3414 0.0000
# 3 57.3941 35.1708 120.1185 -0.0001 -1.5713 0.0001
# 4 0.0000 0.0000 -0.0001 28.7750 0.0000 -6.2460
# 5 -13.2968 -11.3414 -1.5713 0.0000 39.8281 -0.0001
# 6 0.0000 0.0000 0.0001 -6.2460 -0.0001 43.2735
#
#
#
# Elastic Compliance Matrix: (Units=1/GPa)
#
#
# Indices 1 2 3 4 5 6 
#
# 1 0.011771 -0.000038 -0.005565 0.000000 0.003699 0.000000
# 2 -0.000038 0.017311 -0.004989 0.000000 0.004720 0.000000
# 3 -0.005565 -0.004989 0.012408 0.000000 -0.002789 0.000000
# 4 0.000000 0.000000 0.000000 0.035876 0.000000 0.005178
# 5 0.003699 0.004720 -0.002789 0.000000 0.027577 0.000000
# 6 0.000000 0.000000 0.000000 0.005178 0.000000 0.023856
#
#
# Mechanical properties :
#
#
# Convention : Reuss Voigt Hill
#
# Bulk Modulus (GPa) = 49.24408 59.27366 54.25887
# Shear Modulus (GPa) = 31.89734 35.34209 33.61972
#
# Velocity S-wave (km/s) = 4.17034 4.38976 4.28146
# Velocity P-wave (km/s) = 7.07382 7.61655 7.35020
#
# Compressibility (1/GPa) = 0.02030701
#
# Stress axis : x y z
#
# Youngs Moduli (GPa) = 84.95251 57.76667 80.59136
#
# Poissons Ratio (x) = 0.00221 0.44848
# Poissons Ratio (y) = 0.00325 0.40204
# Poissons Ratio (z) = 0.47275 0.28818
#
# Static dielectric constant tensor:
#      x y z
#    x 1.642890 0.000000 0.006620 
#    y 0.000000 1.613460 0.000000 
#    z 0.006620 0.000000 1.651970 
# 
# From -- ./inp_files/264638.got.cif
#   From: 2010.05.17/outbox.cif.g08.bks.cpg/sg15_133_cif.got.tgz:264638.got - 2010.06.03 18:47:42.
