data_PCOD9271181
_publ_section_title
;
Structure prediction by ZEFSAII (Michael W. Deem and Ramdas Pophale) SiO2 
 PCOD9271181
Probable space group: C 2/C
;
_chemical_formula_sum "Si O2"
_cell_formula_units_Z 40
_cell_length_a 11.004968
_cell_length_b 23.982202
_cell_length_c 10.189974
_cell_angle_alpha 90.000000
_cell_angle_beta 62.926693
_cell_angle_gamma 90.000000
_cell_volume 2394.684103
_symmetry_space_group_name_H-M "C 2/C"
_symmetry_group_IT_number 15
_symmetry_cell_setting 'monoclinic'
loop_
_space_group_symop_operation_xyz
x,y,z
-x,y,1/2-z
-x,-y,-z
x,-y,1/2+z
1/2+x,1/2+y,z
1/2-x,1/2+y,1/2-z
1/2-x,1/2-y,-z
1/2+x,1/2-y,1/2+z
loop_
_atom_site_type_symbol
_atom_site_label
_atom_site_fract_x
_atom_site_fract_y
_atom_site_fract_z
Si Si1 0.785619 0.352116 0.520381
Si Si2 0.276974 0.146676 0.710356
Si Si3 0.496711 0.237879 0.516129
Si Si4 0.490646 0.052058 0.600579
Si Si5 0.000000 0.192787 0.750000
Si Si6 0.500000 0.325563 0.750000
O O1 0.767269 0.344885 0.372481
O O2 0.886583 0.404376 0.487582
O O3 0.639917 0.359054 0.660893
O O4 0.863347 0.297467 0.537489
O O5 0.377029 0.194146 0.605153
O O6 0.352082 0.087877 0.650695
O O7 0.131554 0.155135 0.715281
O O8 0.481642 0.267240 0.384259
O O9 0.490957 0.285239 0.629191
O O10 0.500000 0.036206 0.750000
O O11 0.500000 0.000000 0.500000
#
# Coordination Sequence:
#
# PCOD9271181 Si02
#       6
#     8   8   8   8   4   4
#     4  10  20  36  58  79 107 150 186 213 265 328
#     4  10  20  37  55  80 111 149 179 217 272 320
#     4  11  20  34  55  78 115 153 182 212 254 322
#     4   9  20  42  63  77 100 135 183 232 274 322
#     4  12  22  32  49  88 123 138 174 226 268 304
#     4  12  18  32  57  80 111 146 186 208 252 334
#
# _framework density 16.703662999999999
#
# number of rings (size 3 to 8) (size 9 to 14) (size 15 to 20)
#    0.000    1.600    4.000    3.600    0.000    0.000 
#   10.800    1.000    0.000    4.800    0.000    0.000 
#    0.000    0.000    0.000    0.000    0.000    0.000 
#
# Total GULP energy -111648.781812 kJ/mol
# GULP energy per Si atom -5582.439091 kJ/mol
# Density = 1.666564 g / cm^3
# Si number density = 16.703663 Si / 1000 Ang^3
#
#
#
# Elastic Constant Matrix: (Units=GPa)
#
#
# Indices 1 2 3 4 5 6 
#
# 1 137.3066 56.3596 56.3147 0.0000 -10.7325 0.0000
# 2 56.3596 93.2618 61.9351 0.0000 8.7176 0.0000
# 3 56.3147 61.9351 112.2377 0.0000 2.7069 0.0000
# 4 0.0000 0.0000 0.0000 22.5070 0.0000 13.6613
# 5 -10.7325 8.7176 2.7069 0.0000 37.8386 0.0000
# 6 0.0000 0.0000 0.0000 13.6613 0.0000 8.6509
#
#
#
# Elastic Compliance Matrix: (Units=1/GPa)
#
#
# Indices 1 2 3 4 5 6 
#
# 1 0.010872 -0.005199 -0.002694 0.000000 0.004474 0.000000
# 2 -0.005199 0.019817 -0.008195 0.000000 -0.005454 0.000000
# 3 -0.002694 -0.008195 0.014782 0.000000 0.000067 0.000000
# 4 0.000000 0.000000 0.000000 1.071367 0.000000 -1.691876
# 5 0.004474 -0.005454 0.000067 0.000000 0.028949 0.000000
# 6 0.000000 0.000000 0.000000 -1.691876 0.000000 2.787364
#
#
# Mechanical properties :
#
#
# Convention : Reuss Voigt Hill
#
# Bulk Modulus (GPa) = 75.22073 76.89166 76.05620
# Shear Modulus (GPa) = 1.25952 25.01241 13.13597
#
# Velocity S-wave (km/s) = 0.86930 3.87385 2.80735
# Velocity P-wave (km/s) = 6.79248 8.13275 7.49265
#
# Compressibility (1/GPa) = 0.01329421
#
# Stress axis : x y z
#
# Youngs Moduli (GPa) = 91.98320 50.46273 67.65114
#
# Poissons Ratio (x) = 0.26237 0.18222
# Poissons Ratio (y) = 0.47825 0.55440
# Poissons Ratio (z) = 0.24776 0.41354
#
# Static dielectric constant tensor:
#      x y z
#    x 1.723280 0.000000 0.134990 
#    y 0.000000 1.532050 0.000000 
#    z 0.134990 0.000000 1.729100 
# 
# From -- ./inp_files/23519.got.cif
#   From: 2010.05.17/outbox.cif.g08.bks.cpg/sg15_12_cif.got.tgz:23519.got - 2010.06.03 18:47:42.
