data_PCOD9271038
_publ_section_title
;
Structure prediction by ZEFSAII (Michael W. Deem and Ramdas Pophale) SiO2 
 PCOD9271038
Probable space group: C 2/C
;
_chemical_formula_sum "Si O2"
_cell_formula_units_Z 52
_cell_length_a 9.654843
_cell_length_b 23.600059
_cell_length_c 15.000749
_cell_angle_alpha 90.000000
_cell_angle_beta 132.609890
_cell_angle_gamma 90.000000
_cell_volume 2515.575767
_symmetry_space_group_name_H-M "C 2/C"
_symmetry_group_IT_number 15
_symmetry_cell_setting 'monoclinic'
loop_
_space_group_symop_operation_xyz
x,y,z
-x,y,1/2-z
-x,-y,-z
x,-y,1/2+z
1/2+x,1/2+y,z
1/2-x,1/2+y,1/2-z
1/2-x,1/2-y,-z
1/2+x,1/2-y,1/2+z
loop_
_atom_site_type_symbol
_atom_site_label
_atom_site_fract_x
_atom_site_fract_y
_atom_site_fract_z
Si Si1 0.866055 0.202973 0.104662
Si Si2 0.500000 0.401732 0.250000
Si Si3 0.758160 0.476120 0.069031
Si Si4 0.168994 0.522581 0.690796
Si Si5 0.761761 0.397564 0.509226
Si Si6 0.429615 0.384206 0.899391
Si Si7 0.324111 0.099138 0.378291
O O1 0.990721 0.177637 0.079856
O O2 0.740957 0.147731 0.080850
O O3 0.000000 0.218749 0.250000
O O4 0.750000 0.250000 0.000000
O O5 0.670965 0.436722 0.278327
O O6 0.606105 0.371077 0.376623
O O7 0.779034 0.492435 0.183184
O O8 0.723336 0.534203 0.999896
O O9 0.957472 0.453136 0.116248
O O10 0.591574 0.430598 0.990211
O O11 0.160185 0.469832 0.618576
O O12 0.728710 0.380815 0.595479
O O13 0.968504 0.385210 0.565060
O O14 0.339494 0.397656 0.765989
#
# Coordination Sequence:
#
# PCOD9271038 Si02
#       7
#     8   4   8   8   8   8   8
#     4  10  25  48  70  95 118 158 222 284 331 380
#     4  12  24  32  50  86 146 170 210 244 294 358
#     4  10  20  36  56  89 134 173 213 247 304 377
#     4  10  21  34  54  91 134 178 209 250 297 380
#     4  11  22  36  55  94 133 166 206 250 307 391
#     4  11  20  39  66  90 122 175 209 252 319 378
#     4  10  22  38  66  89 123 164 215 258 316 373
#
# _framework density 20.671212000000001
#
# number of rings (size 3 to 8) (size 9 to 14) (size 15 to 20)
#    0.000    1.538    3.077    1.846    7.538    1.231 
#    5.538    0.769    0.000    0.000    0.000    0.000 
#    0.000    0.000    0.000    0.000    0.000    0.000 
#
# Total GULP energy -144753.969344 kJ/mol
# GULP energy per Si atom -5567.460359 kJ/mol
# Density = 2.062416 g / cm^3
# Si number density = 20.671212 Si / 1000 Ang^3
#
#
#
# Elastic Constant Matrix: (Units=GPa)
#
#
# Indices 1 2 3 4 5 6 
#
# 1 84.9444 5.3593 10.3701 0.0000 -1.5470 0.0000
# 2 5.3593 39.2440 31.2516 0.0000 -5.6052 0.0000
# 3 10.3701 31.2516 88.5016 0.0000 -0.8971 0.0000
# 4 0.0000 0.0000 0.0000 31.9223 0.0000 1.4928
# 5 -1.5470 -5.6052 -0.8971 0.0000 38.7580 0.0000
# 6 0.0000 0.0000 0.0000 1.4928 0.0000 17.0264
#
#
#
# Elastic Compliance Matrix: (Units=1/GPa)
#
#
# Indices 1 2 3 4 5 6 
#
# 1 0.011963 -0.000653 -0.001167 0.000000 0.000356 0.000000
# 2 -0.000653 0.036417 -0.012733 0.000000 0.004946 0.000000
# 3 -0.001167 -0.012733 0.015917 0.000000 -0.001520 0.000000
# 4 0.000000 0.000000 0.000000 0.031455 0.000000 -0.002758
# 5 0.000356 0.004946 -0.001520 0.000000 0.026495 0.000000
# 6 0.000000 0.000000 0.000000 -0.002758 0.000000 0.058974
#
#
# Mechanical properties :
#
#
# Convention : Reuss Voigt Hill
#
# Bulk Modulus (GPa) = 28.41754 34.07241 31.24498
# Shear Modulus (GPa) = 22.51671 28.58860 25.55265
#
# Velocity S-wave (km/s) = 3.30400 3.72293 3.51970
# Velocity P-wave (km/s) = 5.32283 5.91600 5.62723
#
# Compressibility (1/GPa) = 0.03518953
#
# Stress axis : x y z
#
# Youngs Moduli (GPa) = 83.59369 27.45985 62.82663
#
# Poissons Ratio (x) = 0.01793 0.07335
# Poissons Ratio (y) = 0.05459 0.79996
# Poissons Ratio (z) = 0.09759 0.34964
#
# Static dielectric constant tensor:
#      x y z
#    x 1.820810 0.000000 -0.014130 
#    y 0.000000 1.787530 0.000000 
#    z -0.014130 0.000000 1.859290 
# 
# From -- ./inp_files/138766.got.cif
#   From: 2010.05.17/outbox.cif.g08.bks.cpg/sg15_70_cif.got.tgz:138766.got - 2010.06.03 18:47:42.
