data_PCOD9271995
_publ_section_title
;
Structure prediction by ZEFSAII (Michael W. Deem and Ramdas Pophale) SiO2 
 PCOD9271995
Probable space group: C 2/C
;
_chemical_formula_sum "Si O2"
_cell_formula_units_Z 52
_cell_length_a 21.234284
_cell_length_b 24.436412
_cell_length_c 9.003196
_cell_angle_alpha 90.000000
_cell_angle_beta 151.866894
_cell_angle_gamma 90.000000
_cell_volume 2202.790872
_symmetry_space_group_name_H-M "C 2/C"
_symmetry_group_IT_number 15
_symmetry_cell_setting 'monoclinic'
loop_
_space_group_symop_operation_xyz
x,y,z
-x,y,1/2-z
-x,-y,-z
x,-y,1/2+z
1/2+x,1/2+y,z
1/2-x,1/2+y,1/2-z
1/2-x,1/2-y,-z
1/2+x,1/2-y,1/2+z
loop_
_atom_site_type_symbol
_atom_site_label
_atom_site_fract_x
_atom_site_fract_y
_atom_site_fract_z
Si Si1 0.000000 0.535407 0.750000
Si Si2 0.773844 0.737356 0.720025
Si Si3 0.408170 0.477199 0.675463
Si Si4 0.149719 0.145890 0.016556
Si Si5 0.253864 0.950620 0.890819
Si Si6 0.000000 0.350115 0.750000
Si Si7 0.376773 0.872285 0.794553
Si Si8 0.000000 0.724433 0.750000
O O1 0.886519 0.515012 0.626566
O O2 0.914957 0.574847 0.467153
O O3 0.750000 0.750000 0.500000
O O4 0.840682 0.789851 0.936489
O O5 0.625245 0.736926 0.476872
O O6 0.873857 0.687444 0.943334
O O7 0.500000 0.443113 0.750000
O O8 0.288044 0.453329 0.524478
O O9 0.349576 0.523218 0.443649
O O10 0.500000 0.500000 0.000000
O O11 0.247908 0.113651 0.335069
O O12 0.217686 0.134770 0.996911
O O13 0.000000 0.129210 0.750000
O O14 0.060703 0.381126 0.736101
O O15 0.448736 0.817990 0.014770
#
# Coordination Sequence:
#
# PCOD9271995 Si02
#       8
#     4   8   8   8   8   4   8   4
#     4   9  20  40  58  83 114 160 190 225 300 348
#     4  11  22  35  57  84 116 152 200 248 292 339
#     4   9  18  35  59  88 112 147 184 228 291 350
#     4  10  20  37  59  83 112 154 195 234 293 350
#     4  10  20  36  63  83 117 151 189 234 290 359
#     4  12  22  36  60  85 114 157 211 247 290 340
#     4   9  20  36  57  80 114 158 194 235 294 351
#     4   9  18  36  54  72 114 153 191 240 302 344
#
# _framework density 23.606417
#
# number of rings (size 3 to 8) (size 9 to 14) (size 15 to 20)
#    0.000    2.154    2.308    2.308    0.000    4.308 
#    0.000    7.692    1.692    0.000    0.000    0.000 
#    0.000    0.000    0.000    0.000    0.000    0.000 
#
# Total GULP energy -144830.654130 kJ/mol
# GULP energy per Si atom -5570.409774 kJ/mol
# Density = 2.355269 g / cm^3
# Si number density = 23.606417 Si / 1000 Ang^3
#
#
#
# Elastic Constant Matrix: (Units=GPa)
#
#
# Indices 1 2 3 4 5 6 
#
# 1 227.2906 16.9514 39.2215 0.0000 35.5326 0.0000
# 2 16.9514 32.3168 0.6755 0.0000 6.6109 0.0000
# 3 39.2215 0.6755 77.9641 0.0000 33.8282 0.0000
# 4 0.0000 0.0000 0.0000 20.1945 0.0000 2.5740
# 5 35.5326 6.6109 33.8282 0.0000 49.3412 0.0000
# 6 0.0000 0.0000 0.0000 2.5740 0.0000 25.8965
#
#
#
# Elastic Compliance Matrix: (Units=1/GPa)
#
#
# Indices 1 2 3 4 5 6 
#
# 1 0.005207 -0.002212 -0.001569 0.000000 -0.002378 0.000000
# 2 -0.002212 0.033033 0.002926 0.000000 -0.004839 0.000000
# 3 -0.001569 0.002926 0.018889 0.000000 -0.012213 0.000000
# 4 0.000000 0.000000 0.000000 0.050154 0.000000 -0.004985
# 5 -0.002378 -0.004839 -0.012213 0.000000 0.031001 0.000000
# 6 0.000000 0.000000 0.000000 -0.004985 0.000000 0.039111
#
#
# Mechanical properties :
#
#
# Convention : Reuss Voigt Hill
#
# Bulk Modulus (GPa) = 18.04390 50.14093 34.09241
# Shear Modulus (GPa) = 25.30660 37.80130 31.55395
#
# Velocity S-wave (km/s) = 3.27773 4.00598 3.66001
# Velocity P-wave (km/s) = 4.68881 6.53328 5.68633
#
# Compressibility (1/GPa) = 0.05542040
#
# Stress axis : x y z
#
# Youngs Moduli (GPa) = 192.04684 30.27300 52.94012
#
# Poissons Ratio (x) = 0.06697 0.08304
# Poissons Ratio (y) = 0.42482 -0.15492
# Poissons Ratio (z) = 0.30123 -0.08859
#
# Static dielectric constant tensor:
#      x y z
#    x 2.058790 0.000000 0.126780 
#    y 0.000000 1.921490 0.000000 
#    z 0.126780 0.000000 2.020580 
# 
# From -- ./inp_files/59336.got.cif
#   From: 2010.05.17/outbox.cif.g08.bks.cpg/sg15_30_cif.got.tgz:59336.got - 2010.06.03 18:47:42.
