data_PCOD9271026
_publ_section_title
;
Structure prediction by ZEFSAII (Michael W. Deem and Ramdas Pophale) SiO2 
 PCOD9271026
Probable space group: C 2/C
;
_chemical_formula_sum "Si O2"
_cell_formula_units_Z 60
_cell_length_a 8.801147
_cell_length_b 18.400319
_cell_length_c 26.933413
_cell_angle_alpha 90.000000
_cell_angle_beta 135.436280
_cell_angle_gamma 90.000000
_cell_volume 3060.615443
_symmetry_space_group_name_H-M "C 2/C"
_symmetry_group_IT_number 15
_symmetry_cell_setting 'monoclinic'
loop_
_space_group_symop_operation_xyz
x,y,z
-x,y,1/2-z
-x,-y,-z
x,-y,1/2+z
1/2+x,1/2+y,z
1/2-x,1/2+y,1/2-z
1/2-x,1/2-y,-z
1/2+x,1/2-y,1/2+z
loop_
_atom_site_type_symbol
_atom_site_label
_atom_site_fract_x
_atom_site_fract_y
_atom_site_fract_z
Si Si1 0.520506 0.325546 0.535629
Si Si2 0.500000 0.585879 0.750000
Si Si3 0.777699 0.056545 0.362086
Si Si4 0.744723 0.580457 0.895066
Si Si5 0.707770 0.033804 0.233720
Si Si6 0.385295 0.923463 0.892057
Si Si7 0.123033 0.329717 0.518728
Si Si8 0.600232 0.566084 0.968799
O O1 0.715906 0.364474 0.610679
O O2 0.333194 0.324428 0.533634
O O3 0.521756 0.242958 0.517270
O O4 0.488844 0.376922 0.480059
O O5 0.646588 0.623123 0.825433
O O6 0.659786 0.536029 0.753881
O O7 0.799716 0.061286 0.307603
O O8 0.547062 0.018494 0.317392
O O9 0.966055 0.008777 0.432004
O O10 0.612102 0.592220 0.914454
O O11 0.768905 0.495554 0.886704
O O12 0.983998 0.606328 0.962311
O O13 0.702460 0.085351 0.184127
O O14 0.335747 0.855743 0.915814
O O15 0.646099 0.938971 0.955434
#
# Coordination Sequence:
#
# PCOD9271026 Si02
#       8
#     8   4   8   8   8   8   8   8
#     4  11  23  37  58  86 116 157 189 245 291 342
#     4  10  20  36  56  88 114 152 184 234 298 342
#     4  11  21  37  57  91 117 149 191 246 291 345
#     4  10  20  36  59  86 114 149 190 239 287 345
#     4  10  22  35  56  88 119 148 190 236 298 341
#     4  10  20  37  60  88 112 152 193 246 287 347
#     4  10  23  39  58  83 118 151 199 237 290 345
#     4  11  20  35  60  88 112 146 195 242 289 336
#
# _framework density 19.603901
#
# number of rings (size 3 to 8) (size 9 to 14) (size 15 to 20)
#    0.000    1.600    2.667    3.600    5.600    2.133 
#    0.000    1.333    0.000    0.000    0.000    0.000 
#    0.000    0.000    0.000    0.000    0.000    0.000 
#
# Total GULP energy -167137.079617 kJ/mol
# GULP energy per Si atom -5571.235987 kJ/mol
# Density = 1.955928 g / cm^3
# Si number density = 19.603901 Si / 1000 Ang^3
#
#
#
# Elastic Constant Matrix: (Units=GPa)
#
#
# Indices 1 2 3 4 5 6 
#
# 1 69.4456 21.2155 26.7843 0.0000 -11.0393 0.0000
# 2 21.2155 55.9469 13.1715 0.0000 -13.2515 0.0000
# 3 26.7843 13.1715 78.6628 0.0001 -33.0589 0.0000
# 4 0.0000 0.0000 0.0001 9.9253 0.0000 -5.1715
# 5 -11.0393 -13.2515 -33.0589 0.0000 45.6103 0.0000
# 6 0.0000 0.0000 0.0000 -5.1715 0.0000 21.2371
#
#
#
# Elastic Compliance Matrix: (Units=1/GPa)
#
#
# Indices 1 2 3 4 5 6 
#
# 1 0.018217 -0.005895 -0.005871 0.000000 -0.001559 0.000000
# 2 -0.005895 0.021189 0.000643 0.000000 0.005195 0.000000
# 3 -0.005871 0.000643 0.020255 0.000000 0.013447 0.000000
# 4 0.000000 0.000000 0.000000 0.115393 0.000000 0.028100
# 5 -0.001559 0.005195 0.013447 0.000000 0.032803 0.000000
# 6 0.000000 0.000000 0.000000 0.028100 0.000000 0.053930
#
#
# Mechanical properties :
#
#
# Convention : Reuss Voigt Hill
#
# Bulk Modulus (GPa) = 26.72775 36.26643 31.49709
# Shear Modulus (GPa) = 16.86307 24.88015 20.87161
#
# Velocity S-wave (km/s) = 2.93608 3.56637 3.26646
# Velocity P-wave (km/s) = 5.01573 5.95805 5.50709
#
# Compressibility (1/GPa) = 0.03741429
#
# Stress axis : x y z
#
# Youngs Moduli (GPa) = 54.89301 47.19478 49.37032
#
# Poissons Ratio (x) = 0.27822 0.28985
# Poissons Ratio (y) = 0.32360 -0.03173
# Poissons Ratio (z) = 0.32227 -0.03033
#
# Static dielectric constant tensor:
#      x y z
#    x 1.764180 0.000000 -0.004130 
#    y 0.000000 1.689740 0.000000 
#    z -0.004130 0.000000 1.760360 
# 
# From -- ./inp_files/289590.got.cif
#   From: 2010.05.17/outbox.cif.g08.bks.cpg/sg15_145_cif.got.tgz:289590.got - 2010.06.03 18:47:42.
