data_PCOD9271394
_publ_section_title
;
Structure prediction by ZEFSAII (Michael W. Deem and Ramdas Pophale) SiO2 
 PCOD9271394
Probable space group: C 2/C
;
_chemical_formula_sum "Si O2"
_cell_formula_units_Z 56
_cell_length_a 11.788376
_cell_length_b 22.548429
_cell_length_c 30.004341
_cell_angle_alpha 90.000000
_cell_angle_beta 20.231846
_cell_angle_gamma 90.000000
_cell_volume 2758.063031
_symmetry_space_group_name_H-M "C 2/C"
_symmetry_group_IT_number 15
_symmetry_cell_setting 'monoclinic'
loop_
_space_group_symop_operation_xyz
x,y,z
-x,y,1/2-z
-x,-y,-z
x,-y,1/2+z
1/2+x,1/2+y,z
1/2-x,1/2+y,1/2-z
1/2-x,1/2-y,-z
1/2+x,1/2-y,1/2+z
loop_
_atom_site_type_symbol
_atom_site_label
_atom_site_fract_x
_atom_site_fract_y
_atom_site_fract_z
Si Si1 0.232540 0.615883 0.936124
Si Si2 0.331732 0.156333 0.263765
Si Si3 0.709507 0.291540 0.218475
Si Si4 0.860113 0.382510 0.484013
Si Si5 0.734481 0.964958 0.127187
Si Si6 0.291955 0.966936 0.209918
Si Si7 0.859357 0.407713 0.930496
O O1 0.500585 0.668053 0.829359
O O2 0.422905 0.553784 0.855273
O O3 0.094538 0.615334 0.036559
O O4 0.963529 0.624697 0.996969
O O5 0.500000 0.155324 0.250000
O O6 0.230033 0.224018 0.290840
O O7 0.563903 0.135858 0.138254
O O8 0.025220 0.112041 0.378002
O O9 0.500000 0.291726 0.250000
O O10 0.036544 0.326069 0.083922
O O11 0.072318 0.435025 0.384293
O O12 0.500000 0.996731 0.250000
O O13 0.496746 0.940669 0.176579
O O14 0.974075 0.923658 0.067424
O O15 0.000000 0.000000 0.000000
O O16 0.405240 0.034830 0.163698
#
# Coordination Sequence:
#
# PCOD9271394 Si02
#       7
#     8   8   8   8   8   8   8
#     4  10  21  41  59  88 125 157 202 244 311 371
#     4  11  23  40  61  91 118 154 211 258 304 364
#     4   8  18  39  66  86 115 159 201 253 305 365
#     4  10  21  39  64  87 117 162 204 252 302 368
#     4  10  20  36  59  84 122 162 206 250 302 359
#     4  10  21  37  59  84 119 163 201 242 302 362
#     4  11  24  35  59  90 124 161 197 252 306 362
#
# _framework density 20.304105
#
# number of rings (size 3 to 8) (size 9 to 14) (size 15 to 20)
#    0.000    2.000    1.429    2.571    2.000    5.143 
#    2.571    0.000    0.000    1.714    0.000    0.000 
#    0.000    0.000    0.000    0.000    0.000    0.000 
#
# Total GULP energy -156127.443250 kJ/mol
# GULP energy per Si atom -5575.980116 kJ/mol
# Density = 2.025789 g / cm^3
# Si number density = 20.304105 Si / 1000 Ang^3
#
#
#
# Elastic Constant Matrix: (Units=GPa)
#
#
# Indices 1 2 3 4 5 6 
#
# 1 111.7989 25.7101 39.1303 -0.2746 27.8101 -0.0535
# 2 25.7101 67.3835 15.5246 -0.0239 20.5130 0.2302
# 3 39.1303 15.5246 91.1014 -0.1582 21.0687 0.1751
# 4 -0.2746 -0.0239 -0.1582 8.9198 0.2755 -4.7647
# 5 27.8101 20.5130 21.0687 0.2755 37.6602 -0.0648
# 6 -0.0535 0.2302 0.1751 -4.7647 -0.0648 18.5738
#
#
#
# Elastic Compliance Matrix: (Units=1/GPa)
#
#
# Indices 1 2 3 4 5 6 
#
# 1 0.012096 -0.002021 -0.003490 0.000609 -0.005883 0.000228
# 2 -0.002021 0.018195 -0.000327 0.000113 -0.008237 -0.000228
# 3 -0.003490 -0.000327 0.013663 0.000236 -0.004890 -0.000091
# 4 0.000609 0.000113 0.000236 0.129990 -0.001537 0.033339
# 5 -0.005883 -0.008237 -0.004890 -0.001537 0.038131 -0.000130
# 6 0.000228 -0.000228 -0.000091 0.033339 -0.000130 0.062395
#
#
# Mechanical properties :
#
#
# Convention : Reuss Voigt Hill
#
# Bulk Modulus (GPa) = 30.98053 47.89041 39.43547
# Shear Modulus (GPa) = 16.84039 25.69203 21.26621
#
# Velocity S-wave (km/s) = 2.88307 3.56105 3.23984
# Velocity P-wave (km/s) = 5.13558 6.36756 5.78446
#
# Compressibility (1/GPa) = 0.03227834
#
# Stress axis : x y z
#
# Youngs Moduli (GPa) = 82.67285 54.96009 73.18990
#
# Poissons Ratio (x) = 0.11106 0.25543
# Poissons Ratio (y) = 0.16706 0.02395
# Poissons Ratio (z) = 0.28852 0.01798
#
# Static dielectric constant tensor:
#      x y z
#    x 1.721370 0.000010 -0.006490 
#    y 0.000010 1.754550 -0.000450 
#    z -0.006490 -0.000450 1.917340 
# 
# From -- ./inp_files/311810.got.cif
#   From: 2010.05.17/outbox.cif.g08.bks.cpg/sg15_156_cif.got.tgz:311810.got - 2010.06.03 18:47:42.
