data_PCOD9271333
_publ_section_title
;
Structure prediction by ZEFSAII (Michael W. Deem and Ramdas Pophale) SiO2 
 PCOD9271333
Probable space group: C 2/C
;
_chemical_formula_sum "Si O2"
_cell_formula_units_Z 44
_cell_length_a 15.441603
_cell_length_b 12.715776
_cell_length_c 9.692378
_cell_angle_alpha 90.000000
_cell_angle_beta 103.873001
_cell_angle_gamma 90.000000
_cell_volume 1847.602718
_symmetry_space_group_name_H-M "C 2/C"
_symmetry_group_IT_number 15
_symmetry_cell_setting 'monoclinic'
loop_
_space_group_symop_operation_xyz
x,y,z
-x,y,1/2-z
-x,-y,-z
x,-y,1/2+z
1/2+x,1/2+y,z
1/2-x,1/2+y,1/2-z
1/2-x,1/2-y,-z
1/2+x,1/2-y,1/2+z
loop_
_atom_site_type_symbol
_atom_site_label
_atom_site_fract_x
_atom_site_fract_y
_atom_site_fract_z
Si Si1 0.015065 0.104965 0.415082
Si Si2 0.236168 0.330811 0.167173
Si Si3 0.711699 0.607403 0.528431
Si Si4 0.875549 0.465829 0.945495
Si Si5 0.340682 0.371808 0.970069
Si Si6 0.000000 0.512071 0.250000
O O1 0.113770 0.150699 0.461166
O O2 0.000000 0.080155 0.250000
O O3 0.933933 0.169942 0.446871
O O4 0.000000 0.000000 0.500000
O O5 0.241221 0.333384 0.331158
O O6 0.226805 0.212052 0.115574
O O7 0.158842 0.412409 0.087895
O O8 0.328008 0.370783 0.130370
O O9 0.782784 0.594191 0.434772
O O10 0.689191 0.489501 0.578262
O O11 0.936645 0.456979 0.107872
O O12 0.930088 0.433606 0.829406
#
# Coordination Sequence:
#
# PCOD9271333 Si02
#       6
#     8   8   8   8   8   4
#     4  10  23  38  63  96 130 174 222 267 324 396
#     4  10  20  41  63  96 129 178 213 282 320 393
#     4  10  21  37  70  91 131 174 219 267 341 384
#     4  10  20  36  62  90 124 168 223 272 328 393
#     4   9  22  38  63  92 139 165 223 263 327 388
#     4  10  20  36  58  92 118 170 230 266 324 400
#
# _framework density 23.814644000000001
#
# number of rings (size 3 to 8) (size 9 to 14) (size 15 to 20)
#    0.000    2.182    1.818    0.000   15.273    0.000 
#    1.636    6.364    0.000    0.000    0.000    0.000 
#    0.000    0.000    0.000    0.000    0.000    0.000 
#
# Total GULP energy -122632.376423 kJ/mol
# GULP energy per Si atom -5574.198928 kJ/mol
# Density = 2.376044 g / cm^3
# Si number density = 23.814644 Si / 1000 Ang^3
#
#
#
# Elastic Constant Matrix: (Units=GPa)
#
#
# Indices 1 2 3 4 5 6 
#
# 1 171.4308 1.2622 55.7363 0.0000 -40.4719 0.0000
# 2 1.2622 46.3202 -0.2556 0.0000 -1.4848 0.0000
# 3 55.7363 -0.2556 114.5339 0.0000 -27.6436 0.0000
# 4 0.0000 0.0000 0.0000 5.1026 0.0000 -10.8488
# 5 -40.4719 -1.4848 -27.6436 0.0000 47.5067 0.0000
# 6 0.0000 0.0000 0.0000 -10.8488 0.0000 8.0126
#
#
#
# Elastic Compliance Matrix: (Units=1/GPa)
#
#
# Indices 1 2 3 4 5 6 
#
# 1 0.007910 -0.000062 -0.002587 0.000000 0.005231 0.000000
# 2 -0.000062 0.021617 0.000266 0.000000 0.000778 0.000000
# 3 -0.002587 0.000266 0.011006 0.000000 0.004209 0.000000
# 4 0.000000 0.000000 0.000000 -0.104315 0.000000 -0.141240
# 5 0.005231 0.000778 0.004209 0.000000 0.027980 0.000000
# 6 0.000000 0.000000 0.000000 -0.141240 0.000000 -0.066430
#
#
# Mechanical properties :
#
#
# Convention : Reuss Voigt Hill
#
# Bulk Modulus (GPa) = 27.95819 49.53008 38.74414
# Shear Modulus (GPa) = -58.44874 30.49386 -13.97744
#
# Velocity S-wave (km/s) = -4.95948 3.58224 -2.42528
# Velocity P-wave (km/s) = 4.58584 6.16062 2.90890
#
# Compressibility (1/GPa) = 0.03576769
#
# Stress axis : x y z
#
# Youngs Moduli (GPa) = 126.42642 46.26005 90.85708
#
# Poissons Ratio (x) = 0.00287 0.23502
# Poissons Ratio (y) = 0.00785 -0.02418
# Poissons Ratio (z) = 0.32702 -0.01231
#
# Static dielectric constant tensor:
#      x y z
#    x 1.883270 0.000000 -0.005710 
#    y 0.000000 1.873000 0.000000 
#    z -0.005710 0.000000 1.950920 
# 
# From -- ./inp_files/47170.got.cif
#   From: 2010.05.17/outbox.cif.g08.bks.cpg/sg15_24_cif.got.tgz:47170.got - 2010.06.03 18:47:42.
