data_PCOD9271028
_publ_section_title
;
Structure prediction by ZEFSAII (Michael W. Deem and Ramdas Pophale) SiO2 
 PCOD9271028
Probable space group: C 2/C
;
_chemical_formula_sum "Si O2"
_cell_formula_units_Z 56
_cell_length_a 16.083204
_cell_length_b 17.201358
_cell_length_c 7.886968
_cell_angle_alpha 90.000000
_cell_angle_beta 85.903374
_cell_angle_gamma 90.000000
_cell_volume 2176.378054
_symmetry_space_group_name_H-M "C 2/C"
_symmetry_group_IT_number 15
_symmetry_cell_setting 'monoclinic'
loop_
_space_group_symop_operation_xyz
x,y,z
-x,y,1/2-z
-x,-y,-z
x,-y,1/2+z
1/2+x,1/2+y,z
1/2-x,1/2+y,1/2-z
1/2-x,1/2-y,-z
1/2+x,1/2-y,1/2+z
loop_
_atom_site_type_symbol
_atom_site_label
_atom_site_fract_x
_atom_site_fract_y
_atom_site_fract_z
Si Si1 0.242690 0.245105 0.707369
Si Si2 0.443204 0.252509 0.106287
Si Si3 0.000000 0.967570 0.750000
Si Si4 0.750374 0.911730 0.375818
Si Si5 0.917877 0.601855 0.964193
Si Si6 0.067551 0.106363 0.525757
Si Si7 0.000000 0.486407 0.750000
Si Si8 0.265060 0.084341 0.239313
O O1 0.250000 0.250000 0.500000
O O2 0.150338 0.241840 0.806162
O O3 0.283542 0.159799 0.733954
O O4 0.277227 0.328774 0.767247
O O5 0.500000 0.218786 0.250000
O O6 0.440097 0.192604 0.951579
O O7 0.493096 0.332170 0.061928
O O8 0.932367 0.914170 0.670691
O O9 0.044671 0.025996 0.618515
O O10 0.842197 0.878918 0.414326
O O11 0.706022 0.917600 0.566307
O O12 0.765806 0.995815 0.289819
O O13 0.835061 0.591558 0.085486
O O14 0.984744 0.565641 0.088521
O O15 0.925107 0.547219 0.799766
#
# Coordination Sequence:
#
# PCOD9271028 Si02
#       8
#     8   8   4   8   8   8   4   8
#     4   9  20  38  60  89 124 169 217 257 321 389
#     4  11  19  36  62  92 121 164 209 261 318 386
#     4  10  22  36  56  92 128 162 204 260 308 380
#     4  11  20  38  62  90 124 173 214 262 317 385
#     4  10  21  37  60  86 122 161 210 266 321 378
#     4  11  21  37  61  92 126 165 211 260 320 377
#     4  10  20  36  56  88 116 158 210 266 322 374
#     4  10  22  37  61  88 126 167 220 262 319 391
#
# _framework density 25.730823000000001
#
# number of rings (size 3 to 8) (size 9 to 14) (size 15 to 20)
#    0.000    1.714    2.857    1.714    0.000    1.714 
#    0.000    0.714    0.000    8.571    0.000    0.000 
#    0.000    0.000    0.000    0.000    0.000    0.286 
#
# Total GULP energy -156000.891672 kJ/mol
# GULP energy per Si atom -5571.460417 kJ/mol
# Density = 2.567226 g / cm^3
# Si number density = 25.730823 Si / 1000 Ang^3
#
#
#
# Elastic Constant Matrix: (Units=GPa)
#
#
# Indices 1 2 3 4 5 6 
#
# 1 59.3076 51.1883 12.7125 0.0000 -17.8626 0.0000
# 2 51.1883 236.9818 49.9145 0.0000 -6.7741 0.0000
# 3 12.7125 49.9145 70.3120 0.0000 -17.2705 0.0000
# 4 0.0000 0.0000 0.0000 58.1385 0.0000 -34.2023
# 5 -17.8626 -6.7741 -17.2705 0.0000 32.5875 0.0000
# 6 0.0000 0.0000 0.0000 -34.2023 0.0000 81.7848
#
#
#
# Elastic Compliance Matrix: (Units=1/GPa)
#
#
# Indices 1 2 3 4 5 6 
#
# 1 0.025487 -0.005723 0.002982 0.000000 0.014361 0.000000
# 2 -0.005723 0.006273 -0.004448 0.000000 -0.004190 0.000000
# 3 0.002982 -0.004448 0.019561 0.000000 0.011077 0.000000
# 4 0.000000 0.000000 0.000000 0.022813 0.000000 0.009540
# 5 0.014361 -0.004190 0.011077 0.000000 0.043558 0.000000
# 6 0.000000 0.000000 0.000000 0.009540 0.000000 0.016217
#
#
# Mechanical properties :
#
#
# Convention : Reuss Voigt Hill
#
# Bulk Modulus (GPa) = 27.06782 66.02578 46.54680
# Shear Modulus (GPa) = 31.13322 51.35455 41.24389
#
# Velocity S-wave (km/s) = 3.48222 4.47233 4.00796
# Velocity P-wave (km/s) = 5.16820 7.23774 6.28868
#
# Compressibility (1/GPa) = 0.03694424
#
# Stress axis : x y z
#
# Youngs Moduli (GPa) = 39.23617 159.41697 51.12121
#
# Poissons Ratio (x) = 0.91230 -0.15244
# Poissons Ratio (y) = 0.22454 0.22737
# Poissons Ratio (z) = -0.11700 0.70902
#
# Static dielectric constant tensor:
#      x y z
#    x 2.200960 0.000000 0.061310 
#    y 0.000000 2.131440 0.000000 
#    z 0.061310 0.000000 2.074460 
# 
# From -- ./inp_files/56117.got.cif
#   From: 2010.05.17/outbox.cif.g08.bks.cpg/sg15_29_cif.got.tgz:56117.got - 2010.06.03 18:47:42.
