data_PCOD9271733
_publ_section_title
;
Structure prediction by ZEFSAII (Michael W. Deem and Ramdas Pophale) SiO2 
 PCOD9271733
Probable space group: C 2/C
;
_chemical_formula_sum "Si O2"
_cell_formula_units_Z 36
_cell_length_a 9.155791
_cell_length_b 9.702988
_cell_length_c 20.560646
_cell_angle_alpha 90.000000
_cell_angle_beta 66.579872
_cell_angle_gamma 90.000000
_cell_volume 1676.095071
_symmetry_space_group_name_H-M "C 2/C"
_symmetry_group_IT_number 15
_symmetry_cell_setting 'monoclinic'
loop_
_space_group_symop_operation_xyz
x,y,z
-x,y,1/2-z
-x,-y,-z
x,-y,1/2+z
1/2+x,1/2+y,z
1/2-x,1/2+y,1/2-z
1/2-x,1/2-y,-z
1/2+x,1/2-y,1/2+z
loop_
_atom_site_type_symbol
_atom_site_label
_atom_site_fract_x
_atom_site_fract_y
_atom_site_fract_z
Si Si1 0.630331 0.978889 0.860854
Si Si2 0.654129 0.667305 0.610477
Si Si3 0.803638 0.824373 0.131119
Si Si4 0.216760 0.466479 0.543457
Si Si5 0.000000 0.460695 0.250000
O O1 0.698011 0.839029 0.879285
O O2 0.466477 0.016218 0.926749
O O3 0.755575 0.101455 0.845041
O O4 0.579914 0.956369 0.794867
O O5 0.464464 0.652429 0.643695
O O6 0.715723 0.580299 0.537186
O O7 0.705063 0.825205 0.588132
O O8 0.641947 0.871484 0.194118
O O9 0.813408 0.915912 0.064007
#
# Coordination Sequence:
#
# PCOD9271733 Si02
#       5
#     8   8   8   8   4
#     4  10  22  38  59  83 110 149 188 229 277 326
#     4  10  20  36  61  86 113 147 180 224 284 336
#     4  10  22  37  57  83 111 148 188 229 274 328
#     4   9  20  38  57  87 120 140 175 231 282 335
#     4  10  24  40  52  78 118 146 188 240 272 316
#
# _framework density 21.478496
#
# number of rings (size 3 to 8) (size 9 to 14) (size 15 to 20)
#    0.000    2.222    0.000    1.333    0.000   12.444 
#    0.000    0.000    0.000    1.333    0.000    0.000 
#    0.000    0.000    0.000    0.000    0.000    0.000 
#
# Total GULP energy -100504.307398 kJ/mol
# GULP energy per Si atom -5583.572633 kJ/mol
# Density = 2.142961 g / cm^3
# Si number density = 21.478496 Si / 1000 Ang^3
#
#
#
# Elastic Constant Matrix: (Units=GPa)
#
#
# Indices 1 2 3 4 5 6 
#
# 1 60.0930 51.2408 4.3517 0.0000 8.3280 0.0000
# 2 51.2408 76.8145 2.6237 0.0000 16.2608 0.0000
# 3 4.3517 2.6237 41.5235 0.0000 5.7075 0.0000
# 4 0.0000 0.0000 0.0000 15.8511 0.0000 0.2944
# 5 8.3280 16.2608 5.7075 0.0000 34.2805 0.0000
# 6 0.0000 0.0000 0.0000 0.2944 0.0000 35.3790
#
#
#
# Elastic Compliance Matrix: (Units=1/GPa)
#
#
# Indices 1 2 3 4 5 6 
#
# 1 0.039245 -0.026862 -0.002924 0.000000 0.003694 0.000000
# 2 -0.026862 0.032857 0.002031 0.000000 -0.009398 0.000000
# 3 -0.002924 0.002031 0.024865 0.000000 -0.004393 0.000000
# 4 0.000000 0.000000 0.000000 0.063097 0.000000 -0.000525
# 5 0.003694 -0.009398 -0.004393 0.000000 0.033463 0.000000
# 6 0.000000 0.000000 0.000000 -0.000525 0.000000 0.028270
#
#
# Mechanical properties :
#
#
# Convention : Reuss Voigt Hill
#
# Bulk Modulus (GPa) = 24.12052 32.76261 28.44156
# Shear Modulus (GPa) = 17.17476 25.11644 21.14560
#
# Velocity S-wave (km/s) = 2.83083 3.42332 3.14108
# Velocity P-wave (km/s) = 4.68394 5.55989 5.14060
#
# Compressibility (1/GPa) = 0.04145847
#
# Stress axis : x y z
#
# Youngs Moduli (GPa) = 25.48071 30.43470 40.21778
#
# Poissons Ratio (x) = 0.81753 0.11758
# Poissons Ratio (y) = 0.68446 -0.08168
# Poissons Ratio (z) = 0.07449 -0.06181
#
# Static dielectric constant tensor:
#      x y z
#    x 1.796970 0.000000 0.023170 
#    y 0.000000 1.763150 0.000000 
#    z 0.023170 0.000000 1.804770 
# 
# From -- ./inp_files/187654.got.cif
#   From: 2010.05.17/outbox.cif.g08.bks.cpg/sg15_94_cif.got.tgz:187654.got - 2010.06.03 18:47:42.
