data_PCOD9271215
_publ_section_title
;
Structure prediction by ZEFSAII (Michael W. Deem and Ramdas Pophale) SiO2 
 PCOD9271215
Probable space group: C 2/C
;
_chemical_formula_sum "Si O2"
_cell_formula_units_Z 44
_cell_length_a 5.122506
_cell_length_b 30.666750
_cell_length_c 13.815516
_cell_angle_alpha 90.000000
_cell_angle_beta 68.602405
_cell_angle_gamma 90.000000
_cell_volume 2020.692361
_symmetry_space_group_name_H-M "C 2/C"
_symmetry_group_IT_number 15
_symmetry_cell_setting 'monoclinic'
loop_
_space_group_symop_operation_xyz
x,y,z
-x,y,1/2-z
-x,-y,-z
x,-y,1/2+z
1/2+x,1/2+y,z
1/2-x,1/2+y,1/2-z
1/2-x,1/2-y,-z
1/2+x,1/2-y,1/2+z
loop_
_atom_site_type_symbol
_atom_site_label
_atom_site_fract_x
_atom_site_fract_y
_atom_site_fract_z
Si Si1 0.801886 0.967448 0.183212
Si Si2 0.999234 0.106745 0.979218
Si Si3 0.655253 0.789637 0.911210
Si Si4 0.145638 0.382801 0.875760
Si Si5 0.486104 0.299400 0.445690
Si Si6 0.500000 0.049751 0.250000
O O1 0.500000 0.946130 0.250000
O O2 0.000000 0.971653 0.250000
O O3 0.947451 0.937083 0.086161
O O4 0.700487 0.015861 0.165514
O O5 0.065969 0.151086 0.909561
O O6 0.678946 0.111514 0.053067
O O7 0.180925 0.108176 0.051563
O O8 0.689257 0.832288 0.840388
O O9 0.626572 0.741310 0.870896
O O10 0.351228 0.795561 0.005516
O O11 0.895790 0.792398 0.960374
O O12 0.187321 0.418535 0.788532
#
# Coordination Sequence:
#
# PCOD9271215 Si02
#       6
#     8   8   8   8   8   4
#     4  10  23  40  55  77 109 145 178 233 288 313
#     4  10  20  36  58  83 102 144 189 222 264 340
#     4   8  14  27  46  77 103 131 165 211 262 314
#     4  10  21  34  57  81 109 143 184 222 271 328
#     4   8  14  26  49  76 103 127 169 214 257 309
#     4  10  26  38  54  78 116 148 176 236 284 310
#
# _framework density 21.774716000000002
#
# number of rings (size 3 to 8) (size 9 to 14) (size 15 to 20)
#    0.545    2.182    0.000    1.091    2.545    1.455 
#    0.000    0.000    2.000    0.000    0.000    0.000 
#    0.000    0.000    0.000    0.000    0.000    0.000 
#
# Total GULP energy -122623.692068 kJ/mol
# GULP energy per Si atom -5573.804185 kJ/mol
# Density = 2.172516 g / cm^3
# Si number density = 21.774716 Si / 1000 Ang^3
#
#
#
# Elastic Constant Matrix: (Units=GPa)
#
#
# Indices 1 2 3 4 5 6 
#
# 1 134.8633 8.4330 22.2426 0.0000 22.3135 0.0000
# 2 8.4330 191.3295 43.6275 0.0000 0.6913 0.0000
# 3 22.2426 43.6275 26.7858 0.0000 9.2243 0.0000
# 4 0.0000 0.0000 0.0000 -86.8849 0.0000 95.5778
# 5 22.3135 0.6913 9.2243 0.0000 31.7611 0.0000
# 6 0.0000 0.0000 0.0000 95.5778 0.0000 -77.2765
#
#
#
# Elastic Compliance Matrix: (Units=1/GPa)
#
#
# Indices 1 2 3 4 5 6 
#
# 1 0.009507 0.001719 -0.009313 0.000000 -0.004012 0.000000
# 2 0.001719 0.009154 -0.017614 0.000000 0.003709 0.000000
# 3 -0.009313 -0.017614 0.079301 0.000000 -0.016105 0.000000
# 4 0.000000 0.000000 0.000000 0.031920 0.000000 0.039479
# 5 -0.004012 0.003709 -0.016105 0.000000 0.038900 0.000000
# 6 0.000000 0.000000 0.000000 0.039479 0.000000 0.035889
#
#
# Mechanical properties :
#
#
# Convention : Reuss Voigt Hill
#
# Bulk Modulus (GPa) = 21.03194 55.73165 38.38179
# Shear Modulus (GPa) = 18.45459 -7.90171 5.27644
#
# Velocity S-wave (km/s) = 2.91438 -1.90702 1.55835
# Velocity P-wave (km/s) = 4.58309 4.56084 4.57198
#
# Compressibility (1/GPa) = 0.04754674
#
# Stress axis : x y z
#
# Youngs Moduli (GPa) = 105.18410 109.24457 12.61016
#
# Poissons Ratio (x) = -0.18779 0.11744
# Poissons Ratio (y) = -0.18081 0.22211
# Poissons Ratio (z) = 0.97956 1.92421
#
# Static dielectric constant tensor:
#      x y z
#    x 1.788140 0.000000 -0.033780 
#    y 0.000000 1.880720 0.000000 
#    z -0.033780 0.000000 1.804220 
# 
# From -- ./inp_files/129842.got.cif
#   From: 2010.05.17/outbox.cif.g08.bks.cpg/sg15_65_cif.got.tgz:129842.got - 2010.06.03 18:47:42.
