data_PCOD9271137
_publ_section_title
;
Structure prediction by ZEFSAII (Michael W. Deem and Ramdas Pophale) SiO2 
 PCOD9271137
Probable space group: C 2/C
;
_chemical_formula_sum "Si O2"
_cell_formula_units_Z 56
_cell_length_a 8.857450
_cell_length_b 32.270667
_cell_length_c 14.802911
_cell_angle_alpha 90.000000
_cell_angle_beta 46.000513
_cell_angle_gamma 90.000000
_cell_volume 3043.698459
_symmetry_space_group_name_H-M "C 2/C"
_symmetry_group_IT_number 15
_symmetry_cell_setting 'monoclinic'
loop_
_space_group_symop_operation_xyz
x,y,z
-x,y,1/2-z
-x,-y,-z
x,-y,1/2+z
1/2+x,1/2+y,z
1/2-x,1/2+y,1/2-z
1/2-x,1/2-y,-z
1/2+x,1/2-y,1/2+z
loop_
_atom_site_type_symbol
_atom_site_label
_atom_site_fract_x
_atom_site_fract_y
_atom_site_fract_z
Si Si1 0.050599 0.139500 0.416155
Si Si2 0.740182 0.539779 0.678844
Si Si3 0.000000 0.393535 0.750000
Si Si4 0.584292 0.954200 0.880221
Si Si5 0.000000 0.908286 0.750000
Si Si6 0.050328 0.764392 0.524526
Si Si7 0.272892 0.882467 0.297809
Si Si8 0.195850 0.712650 0.741062
O O1 0.290930 0.133413 0.344352
O O2 0.017507 0.119310 0.332181
O O3 0.992999 0.187648 0.436634
O O4 0.902103 0.117153 0.551052
O O5 0.500000 0.532057 0.750000
O O6 0.842022 0.499447 0.684386
O O7 0.746654 0.580901 0.737027
O O8 0.888783 0.543998 0.529337
O O9 0.027347 0.423369 0.824009
O O10 0.790309 0.935753 0.843691
O O11 0.250000 0.750000 0.500000
O O12 0.118052 0.764492 0.391376
O O13 0.867458 0.735781 0.640938
O O14 0.500000 0.886384 0.250000
O O15 0.259611 0.835941 0.262100
O O16 0.000000 0.713501 0.750000
#
# Coordination Sequence:
#
# PCOD9271137 Si02
#       8
#     8   8   4   8   4   8   8   8
#     4  10  21  36  61  85 117 153 195 236 290 347
#     4  11  22  38  59  83 116 149 191 241 294 338
#     4  10  22  42  56  80 118 158 188 230 294 348
#     4  10  22  39  57  84 116 148 194 240 283 351
#     4  10  20  38  56  88 116 144 200 242 280 342
#     4   9  17  30  53  85 113 145 189 242 283 338
#     4  10  20  36  57  87 113 151 194 239 289 350
#     4   8  16  30  49  80 114 138 187 231 281 338
#
# _framework density 18.398668000000001
#
# number of rings (size 3 to 8) (size 9 to 14) (size 15 to 20)
#    0.000    2.286    0.714    2.571    4.000    0.000 
#    2.571    2.143    1.571    1.714    0.000    0.000 
#    0.000    0.000    0.000    0.000    0.000    0.000 
#
# Total GULP energy -156136.408353 kJ/mol
# GULP energy per Si atom -5576.300298 kJ/mol
# Density = 1.835679 g / cm^3
# Si number density = 18.398668 Si / 1000 Ang^3
#
#
#
# Elastic Constant Matrix: (Units=GPa)
#
#
# Indices 1 2 3 4 5 6 
#
# 1 64.5452 33.4278 39.9691 0.0000 -19.1522 0.0000
# 2 33.4278 107.1838 66.6493 0.0000 1.0822 0.0000
# 3 39.9691 66.6493 136.3317 0.0000 -22.5948 0.0000
# 4 0.0000 0.0000 0.0000 30.0212 0.0000 3.1906
# 5 -19.1522 1.0822 -22.5948 0.0000 23.2755 0.0000
# 6 0.0000 0.0000 0.0000 3.1906 0.0000 19.6220
#
#
#
# Elastic Compliance Matrix: (Units=1/GPa)
#
#
# Indices 1 2 3 4 5 6 
#
# 1 0.026461 -0.008549 0.000114 0.000000 0.022282 0.000000
# 2 -0.008549 0.017672 -0.008861 0.000000 -0.016457 0.000000
# 3 0.000114 -0.008861 0.013964 0.000000 0.014061 0.000000
# 4 0.000000 0.000000 0.000000 0.033896 0.000000 -0.005512
# 5 0.022282 -0.016457 0.014061 0.000000 0.075713 0.000000
# 6 0.000000 0.000000 0.000000 -0.005512 0.000000 0.051859
#
#
# Mechanical properties :
#
#
# Convention : Reuss Voigt Hill
#
# Bulk Modulus (GPa) = 42.54082 65.35035 53.94558
# Shear Modulus (GPa) = 19.08468 25.78471 22.43470
#
# Velocity S-wave (km/s) = 3.22419 3.74765 3.49573
# Velocity P-wave (km/s) = 6.08542 7.37039 6.75851
#
# Compressibility (1/GPa) = 0.02350684
#
# Stress axis : x y z
#
# Youngs Moduli (GPa) = 37.79133 56.58750 71.61414
#
# Poissons Ratio (x) = 0.48374 -0.00819
# Poissons Ratio (y) = 0.32306 0.63454
# Poissons Ratio (z) = -0.00432 0.50140
#
# Static dielectric constant tensor:
#      x y z
#    x 1.602140 0.000000 -0.019720 
#    y 0.000000 1.628580 0.000000 
#    z -0.019720 0.000000 1.647250 
# 
# From -- ./inp_files/139487.got.cif
#   From: 2010.05.17/outbox.cif.g08.bks.cpg/sg15_70_cif.got.tgz:139487.got - 2010.06.03 18:47:42.
