data_PCOD9271559
_publ_section_title
;
Structure prediction by ZEFSAII (Michael W. Deem and Ramdas Pophale) SiO2 
 PCOD9271559
Probable space group: C 2/C
;
_chemical_formula_sum "Si O2"
_cell_formula_units_Z 64
_cell_length_a 17.131767
_cell_length_b 12.334711
_cell_length_c 21.229425
_cell_angle_alpha 90.000000
_cell_angle_beta 51.405944
_cell_angle_gamma 90.000000
_cell_volume 3506.272707
_symmetry_space_group_name_H-M "C 2/C"
_symmetry_group_IT_number 15
_symmetry_cell_setting 'monoclinic'
loop_
_space_group_symop_operation_xyz
x,y,z
-x,y,1/2-z
-x,-y,-z
x,-y,1/2+z
1/2+x,1/2+y,z
1/2-x,1/2+y,1/2-z
1/2-x,1/2-y,-z
1/2+x,1/2-y,1/2+z
loop_
_atom_site_type_symbol
_atom_site_label
_atom_site_fract_x
_atom_site_fract_y
_atom_site_fract_z
Si Si1 0.654463 0.186156 0.974186
Si Si2 0.420261 0.155878 0.090272
Si Si3 0.552555 0.207204 0.565058
Si Si4 0.230155 0.163283 0.821399
Si Si5 0.253481 0.908195 0.944847
Si Si6 0.610100 0.897067 0.166179
Si Si7 0.355286 0.079746 0.650574
Si Si8 0.085849 0.941259 0.496119
O O1 0.711529 0.299396 0.932767
O O2 0.673111 0.107224 0.906351
O O3 0.533795 0.199219 0.041637
O O4 0.696771 0.132969 0.016055
O O5 0.333068 0.230085 0.162944
O O6 0.408379 0.036529 0.124245
O O7 0.406070 0.155866 0.021262
O O8 0.606252 0.161466 0.600033
O O9 0.438744 0.167901 0.626800
O O10 0.556044 0.335809 0.551338
O O11 0.327459 0.176757 0.816502
O O12 0.265062 0.094865 0.743943
O O13 0.156643 0.099886 0.904468
O O14 0.332846 0.987427 0.870516
O O15 0.153517 0.979522 0.003925
O O16 0.500000 0.913076 0.250000
O O17 0.000000 0.000000 0.500000
#
# Coordination Sequence:
#
# PCOD9271559 Si02
#       8
#     8   8   8   8   8   8   8   8
#     4  10  21  38  60  86 114 153 205 243 289 365
#     4  10  21  37  60  84 116 153 198 249 296 355
#     4  10  20  36  60  86 112 154 197 243 290 356
#     4  10  23  35  55  89 113 151 198 238 299 359
#     4  10  21  37  61  85 113 158 202 240 292 360
#     4  11  21  37  56  85 122 150 197 250 303 353
#     4  11  20  36  58  85 118 151 193 245 305 350
#     4  10  21  39  63  84 118 156 196 241 297 354
#
# _framework density 18.253001000000001
#
# number of rings (size 3 to 8) (size 9 to 14) (size 15 to 20)
#    0.000    1.750    1.250    5.250    0.000    8.500 
#    0.000    0.000    0.000    0.000    0.000    0.000 
#    0.000    0.000    0.000    0.000    0.000    0.000 
#
# Total GULP energy -178357.901613 kJ/mol
# GULP energy per Si atom -5573.684425 kJ/mol
# Density = 1.821146 g / cm^3
# Si number density = 18.253001 Si / 1000 Ang^3
#
#
#
# Elastic Constant Matrix: (Units=GPa)
#
#
# Indices 1 2 3 4 5 6 
#
# 1 97.9188 42.4996 26.5392 0.0000 -14.9619 0.0000
# 2 42.4996 91.4648 28.4739 0.0000 -14.1794 0.0000
# 3 26.5392 28.4739 54.5307 0.0000 -10.2934 0.0000
# 4 0.0000 0.0000 0.0000 15.4817 0.0000 -7.8528
# 5 -14.9619 -14.1794 -10.2934 0.0000 18.7481 0.0000
# 6 0.0000 0.0000 0.0000 -7.8528 0.0000 30.5274
#
#
#
# Elastic Compliance Matrix: (Units=1/GPa)
#
#
# Indices 1 2 3 4 5 6 
#
# 1 0.013989 -0.004553 -0.003317 0.000000 0.005899 0.000000
# 2 -0.004553 0.015374 -0.004800 0.000000 0.005358 0.000000
# 3 -0.003317 -0.004800 0.023734 0.000000 0.006753 0.000000
# 4 0.000000 0.000000 0.000000 0.074285 0.000000 0.019109
# 5 0.005899 0.005358 0.006753 0.000000 0.065807 0.000000
# 6 0.000000 0.000000 0.000000 0.019109 0.000000 0.037673
#
#
# Mechanical properties :
#
#
# Convention : Reuss Voigt Hill
#
# Bulk Modulus (GPa) = 36.02850 48.77106 42.39978
# Shear Modulus (GPa) = 18.83562 22.71157 20.77360
#
# Velocity S-wave (km/s) = 3.21584 3.53124 3.37722
# Velocity P-wave (km/s) = 5.79397 6.58815 6.20378
#
# Compressibility (1/GPa) = 0.02775580
#
# Stress axis : x y z
#
# Youngs Moduli (GPa) = 71.48402 65.04592 42.13360
#
# Poissons Ratio (x) = 0.29614 0.13977
# Poissons Ratio (y) = 0.32546 0.20226
# Poissons Ratio (z) = 0.23714 0.31224
#
# Static dielectric constant tensor:
#      x y z
#    x 1.665220 0.000000 -0.004000 
#    y 0.000000 1.669010 0.000000 
#    z -0.004000 0.000000 1.617270 
# 
# From -- ./inp_files/248601.got.cif
#   From: 2010.05.17/outbox.cif.g08.bks.cpg/sg15_125_cif.got.tgz:248601.got - 2010.06.03 18:47:42.
