data_PCOD9271710
_publ_section_title
;
Structure prediction by ZEFSAII (Michael W. Deem and Ramdas Pophale) SiO2 
 PCOD9271710
Probable space group: C 2/C
;
_chemical_formula_sum "Si O2"
_cell_formula_units_Z 52
_cell_length_a 18.588458
_cell_length_b 13.414717
_cell_length_c 24.484914
_cell_angle_alpha 90.000000
_cell_angle_beta 157.370054
_cell_angle_gamma 90.000000
_cell_volume 2349.272854
_symmetry_space_group_name_H-M "C 2/C"
_symmetry_group_IT_number 15
_symmetry_cell_setting 'monoclinic'
loop_
_space_group_symop_operation_xyz
x,y,z
-x,y,1/2-z
-x,-y,-z
x,-y,1/2+z
1/2+x,1/2+y,z
1/2-x,1/2+y,1/2-z
1/2-x,1/2-y,-z
1/2+x,1/2-y,1/2+z
loop_
_atom_site_type_symbol
_atom_site_label
_atom_site_fract_x
_atom_site_fract_y
_atom_site_fract_z
Si Si1 0.353001 0.733734 0.194057
Si Si2 0.037044 0.735091 0.371785
Si Si3 0.543518 0.720329 0.110748
Si Si4 0.158242 0.443490 0.711914
Si Si5 0.812683 0.115308 0.770786
Si Si6 0.730461 0.003414 0.105383
Si Si7 0.500000 0.365046 0.250000
O O1 0.500000 0.756122 0.250000
O O2 0.448584 0.746189 0.319677
O O3 0.281915 0.619029 0.137676
O O4 0.165078 0.797519 0.055304
O O5 0.250000 0.750000 0.500000
O O6 0.931677 0.790960 0.248957
O O7 0.949794 0.625878 0.319468
O O8 0.986906 0.807439 0.388345
O O9 0.688491 0.631460 0.204193
O O10 0.635058 0.811762 0.141981
O O11 0.275172 0.546895 0.797781
O O12 0.986651 0.476115 0.552501
O O13 0.816072 0.040677 0.721456
O O14 0.829881 0.942518 0.125462
#
# Coordination Sequence:
#
# PCOD9271710 Si02
#       7
#     8   8   8   8   8   8   4
#     4  12  24  42  67  99 134 176 221 279 330 405
#     4  10  21  36  59  91 127 157 209 275 331 377
#     4  11  24  41  66  98 134 172 224 276 338 395
#     4  11  20  38  64  95 128 167 216 276 325 400
#     4  10  21  37  63  95 121 170 217 275 327 391
#     4  11  19  36  70  91 123 165 235 267 325 382
#     4  10  20  36  60  98 116 166 216 284 322 388
#
# _framework density 22.134509000000001
#
# number of rings (size 3 to 8) (size 9 to 14) (size 15 to 20)
#    0.000    1.231    5.385    1.846    0.000    0.000 
#    0.000    0.769    1.692    0.000    0.000    0.000 
#    0.000    0.000    0.000    0.000    0.000    0.000 
#
# Total GULP energy -144767.581191 kJ/mol
# GULP energy per Si atom -5567.983892 kJ/mol
# Density = 2.208413 g / cm^3
# Si number density = 22.134509 Si / 1000 Ang^3
#
#
#
# Elastic Constant Matrix: (Units=GPa)
#
#
# Indices 1 2 3 4 5 6 
#
# 1 61.1999 26.8237 21.1097 0.0000 17.9248 0.0008
# 2 26.8237 78.2899 13.4621 0.0166 20.4268 0.0036
# 3 21.1097 13.4621 68.6769 0.0188 28.1909 0.0052
# 4 0.0000 0.0166 0.0188 23.5268 0.0015 11.7396
# 5 17.9248 20.4268 28.1909 0.0015 39.3354 0.0001
# 6 0.0008 0.0036 0.0052 11.7396 0.0001 46.6302
#
#
#
# Elastic Compliance Matrix: (Units=1/GPa)
#
#
# Indices 1 2 3 4 5 6 
#
# 1 0.021284 -0.005573 -0.003764 0.000008 -0.004107 -0.000002
# 2 -0.005573 0.016241 0.001345 -0.000013 -0.006858 0.000002
# 3 -0.003764 0.001345 0.021304 -0.000018 -0.014252 0.000002
# 4 0.000008 -0.000013 -0.000018 0.048611 0.000014 -0.012238
# 5 -0.004107 -0.006858 -0.014252 0.000014 0.041069 -0.000001
# 6 -0.000002 0.000002 0.000002 -0.012238 -0.000001 0.024526
#
#
# Mechanical properties :
#
#
# Convention : Reuss Voigt Hill
#
# Bulk Modulus (GPa) = 23.34064 36.77307 30.05686
# Shear Modulus (GPa) = 24.59393 31.68323 28.13858
#
# Velocity S-wave (km/s) = 3.33695 3.78748 3.56933
# Velocity P-wave (km/s) = 5.04131 5.98132 5.53132
#
# Compressibility (1/GPa) = 0.04284372
#
# Stress axis : x y z
#
# Youngs Moduli (GPa) = 46.98383 61.57384 46.93885
#
# Poissons Ratio (x) = 0.34318 0.17666
# Poissons Ratio (y) = 0.26186 -0.06311
# Poissons Ratio (z) = 0.17683 -0.08279
#
# Static dielectric constant tensor:
#      x y z
#    x 1.951980 0.000000 0.000410 
#    y 0.000000 1.903760 0.000000 
#    z 0.000410 0.000000 1.860530 
# 
# From -- ./inp_files/317905.got.cif
#   From: 2010.05.17/outbox.cif.g08.bks.cpg/sg15_159_cif.got.tgz:317905.got - 2010.06.03 18:47:42.
