data_PCOD9271236
_publ_section_title
;
Structure prediction by ZEFSAII (Michael W. Deem and Ramdas Pophale) SiO2 
 PCOD9271236
Probable space group: C 2/C
;
_chemical_formula_sum "Si O2"
_cell_formula_units_Z 48
_cell_length_a 14.543185
_cell_length_b 25.432088
_cell_length_c 10.880299
_cell_angle_alpha 90.000000
_cell_angle_beta 36.608425
_cell_angle_gamma 90.000000
_cell_volume 2399.818753
_symmetry_space_group_name_H-M "C 2/C"
_symmetry_group_IT_number 15
_symmetry_cell_setting 'monoclinic'
loop_
_space_group_symop_operation_xyz
x,y,z
-x,y,1/2-z
-x,-y,-z
x,-y,1/2+z
1/2+x,1/2+y,z
1/2-x,1/2+y,1/2-z
1/2-x,1/2-y,-z
1/2+x,1/2-y,1/2+z
loop_
_atom_site_type_symbol
_atom_site_label
_atom_site_fract_x
_atom_site_fract_y
_atom_site_fract_z
Si Si1 0.000000 0.448506 0.250000
Si Si2 0.230538 0.998142 0.169255
Si Si3 0.500000 0.443713 0.250000
Si Si4 0.160792 0.808857 0.733606
Si Si5 0.205609 0.192194 0.901544
Si Si6 0.742865 0.900417 0.686340
Si Si7 0.906251 0.400225 0.094054
O O1 0.851078 0.484376 0.434479
O O2 0.968287 0.414090 0.163991
O O3 0.071683 0.980976 0.277944
O O4 0.302844 0.948510 0.160872
O O5 0.227094 0.047606 0.263517
O O6 0.360516 0.407803 0.448449
O O7 0.213248 0.823452 0.538294
O O8 0.227073 0.750655 0.683997
O O9 0.219670 0.850327 0.769496
O O10 0.975251 0.808126 0.935657
O O11 0.304238 0.151698 0.715610
O O12 0.562395 0.897296 0.847012
#
# Coordination Sequence:
#
# PCOD9271236 Si02
#       7
#     4   8   4   8   8   8   8
#     4  10  20  36  58  84 118 150 188 236 296 356
#     4  11  22  37  57  84 116 154 195 239 291 348
#     4  12  24  38  56  80 118 158 200 246 288 342
#     4  10  21  36  58  89 117 150 187 236 294 348
#     4  10  20  36  60  87 119 148 186 237 293 349
#     4  11  23  37  58  84 116 154 197 242 292 346
#     4  11  21  37  60  86 117 154 192 238 291 350
#
# _framework density 20.001511000000001
#
# number of rings (size 3 to 8) (size 9 to 14) (size 15 to 20)
#    0.000    1.333    0.000    8.500    0.000    5.333 
#    0.000    0.000    0.000   10.000    0.000    0.000 
#    0.000    0.000    0.000    0.000    0.000    0.000 
#
# Total GULP energy -134203.617081 kJ/mol
# GULP energy per Si atom -5591.817378 kJ/mol
# Density = 1.995599 g / cm^3
# Si number density = 20.001511 Si / 1000 Ang^3
#
#
#
# Elastic Constant Matrix: (Units=GPa)
#
#
# Indices 1 2 3 4 5 6 
#
# 1 43.5336 12.0698 5.7579 0.0001 -15.9384 0.0000
# 2 12.0698 88.6304 41.4941 0.0000 -2.6669 0.0000
# 3 5.7579 41.4941 123.1349 0.0002 -5.9177 -0.0001
# 4 0.0001 0.0000 0.0002 37.0503 -0.0001 -7.7604
# 5 -15.9384 -2.6669 -5.9177 -0.0001 22.5028 0.0001
# 6 0.0000 0.0000 -0.0001 -7.7604 0.0001 19.0178
#
#
#
# Elastic Compliance Matrix: (Units=1/GPa)
#
#
# Indices 1 2 3 4 5 6 
#
# 1 0.032284 -0.004177 0.000985 0.000000 0.022630 0.000000
# 2 -0.004177 0.013940 -0.004624 0.000000 -0.002522 0.000000
# 3 0.000985 -0.004624 0.009764 0.000000 0.002718 0.000000
# 4 0.000000 0.000000 0.000000 0.029513 0.000000 0.012043
# 5 0.022630 -0.002522 0.002718 0.000000 0.060883 0.000000
# 6 0.000000 0.000000 0.000000 0.012043 0.000000 0.057497
#
#
# Mechanical properties :
#
#
# Convention : Reuss Voigt Hill
#
# Bulk Modulus (GPa) = 24.77823 41.54918 33.16371
# Shear Modulus (GPa) = 21.46264 28.77932 25.12098
#
# Velocity S-wave (km/s) = 3.27930 3.79734 3.54779
# Velocity P-wave (km/s) = 5.17238 6.32807 5.77919
#
# Compressibility (1/GPa) = 0.04035800
#
# Stress axis : x y z
#
# Youngs Moduli (GPa) = 30.97533 71.73434 102.41985
#
# Poissons Ratio (x) = 0.29963 -0.10093
# Poissons Ratio (y) = 0.12938 0.47354
# Poissons Ratio (z) = -0.03053 0.33166
#
# Static dielectric constant tensor:
#      x y z
#    x 1.702870 0.000000 0.013560 
#    y 0.000000 1.655780 0.000000 
#    z 0.013560 0.000000 1.754390 
# 
# From -- ./inp_files/101267.got.cif
#   From: 2010.05.17/outbox.cif.g08.bks.cpg/sg15_51_cif.got.tgz:101267.got - 2010.06.03 18:47:42.
