data_PCOD9271747
_publ_section_title
;
Structure prediction by ZEFSAII (Michael W. Deem and Ramdas Pophale) SiO2 
 PCOD9271747
Probable space group: C 2/C
;
_chemical_formula_sum "Si O2"
_cell_formula_units_Z 48
_cell_length_a 16.518853
_cell_length_b 31.025692
_cell_length_c 9.327439
_cell_angle_alpha 90.000000
_cell_angle_beta 32.875142
_cell_angle_gamma 90.000000
_cell_volume 2594.846810
_symmetry_space_group_name_H-M "C 2/C"
_symmetry_group_IT_number 15
_symmetry_cell_setting 'monoclinic'
loop_
_space_group_symop_operation_xyz
x,y,z
-x,y,1/2-z
-x,-y,-z
x,-y,1/2+z
1/2+x,1/2+y,z
1/2-x,1/2+y,1/2-z
1/2-x,1/2-y,-z
1/2+x,1/2-y,1/2+z
loop_
_atom_site_type_symbol
_atom_site_label
_atom_site_fract_x
_atom_site_fract_y
_atom_site_fract_z
Si Si1 0.614126 0.714341 0.448934
Si Si2 0.078387 0.963510 0.786757
Si Si3 0.082146 0.465661 0.280791
Si Si4 0.959295 0.282043 0.478071
Si Si5 0.463054 0.121746 0.974051
Si Si6 0.618507 0.614478 0.445082
O O1 0.781491 0.725215 0.250307
O O2 0.555754 0.746727 0.415850
O O3 0.613323 0.664255 0.401295
O O4 0.500000 0.717518 0.750000
O O5 0.247431 0.976779 0.500213
O O6 0.086068 0.919765 0.868907
O O7 0.000000 0.957806 0.750000
O O8 0.000000 0.000000 0.000000
O O9 0.000000 0.464295 0.250000
O O10 0.000000 0.500000 0.500000
O O11 0.063683 0.417848 0.376109
O O12 0.988113 0.330358 0.496216
O O13 0.000000 0.281166 0.250000
O O14 0.289083 0.108819 0.245664
O O15 0.500000 0.126089 0.750000
O O16 0.500000 0.609040 0.750000
#
# Coordination Sequence:
#
# PCOD9271747 Si02
#       6
#     8   8   8   8   8   8
#     4  10  21  38  60  87 120 157 195 240 296 348
#     4  12  25  40  61  92 120 150 193 249 293 344
#     4  11  22  41  63  84 116 156 194 236 290 353
#     4  10  20  36  61  88 115 155 200 241 290 348
#     4   9  18  38  62  80 114 161 198 230 294 352
#     4  10  21  39  62  85 118 163 196 233 295 356
#
# _framework density 18.498201000000002
#
# number of rings (size 3 to 8) (size 9 to 14) (size 15 to 20)
#    0.000    1.667    3.333    2.500    2.333    0.667 
#    3.000    0.833    0.000    0.000    0.000    0.000 
#    0.000    0.000    0.000    0.000    0.000    0.000 
#
# Total GULP energy -133939.676212 kJ/mol
# GULP energy per Si atom -5580.819842 kJ/mol
# Density = 1.845610 g / cm^3
# Si number density = 18.498201 Si / 1000 Ang^3
#
#
#
# Elastic Constant Matrix: (Units=GPa)
#
#
# Indices 1 2 3 4 5 6 
#
# 1 45.9597 35.6979 13.9553 0.0000 -3.4513 0.0000
# 2 35.6979 119.2727 28.7514 0.0000 2.5666 0.0000
# 3 13.9553 28.7514 116.8544 0.0000 -26.3918 0.0000
# 4 0.0000 0.0000 0.0000 60.5412 0.0000 43.9145
# 5 -3.4513 2.5666 -26.3918 0.0000 27.6839 0.0000
# 6 0.0000 0.0000 0.0000 43.9145 0.0000 97.8996
#
#
#
# Elastic Compliance Matrix: (Units=1/GPa)
#
#
# Indices 1 2 3 4 5 6 
#
# 1 0.028891 -0.008631 -0.000424 0.000000 0.003998 0.000000
# 2 -0.008631 0.011802 -0.003012 0.000000 -0.005041 0.000000
# 3 -0.000424 -0.003012 0.011980 0.000000 0.011647 0.000000
# 4 0.000000 0.000000 0.000000 0.024484 0.000000 -0.010983
# 5 0.003998 -0.005041 0.011647 0.000000 0.048191 0.000000
# 6 0.000000 0.000000 0.000000 -0.010983 0.000000 0.015141
#
#
# Mechanical properties :
#
#
# Convention : Reuss Voigt Hill
#
# Bulk Modulus (GPa) = 35.03856 48.76623 41.90239
# Shear Modulus (GPa) = 28.71341 50.80375 39.75858
#
# Velocity S-wave (km/s) = 3.94411 5.24631 4.64111
# Velocity P-wave (km/s) = 6.30270 7.94470 7.17085
#
# Compressibility (1/GPa) = 0.02853999
#
# Stress axis : x y z
#
# Youngs Moduli (GPa) = 34.61305 84.73306 83.47420
#
# Poissons Ratio (x) = 0.73132 0.03537
# Poissons Ratio (y) = 0.29874 0.25139
# Poissons Ratio (z) = 0.01467 0.25518
#
# Static dielectric constant tensor:
#      x y z
#    x 1.630130 0.000000 -0.008560 
#    y 0.000000 1.680020 0.000000 
#    z -0.008560 0.000000 1.637270 
# 
# From -- ./inp_files/52732.got.cif
#   From: 2010.05.17/outbox.cif.g08.bks.cpg/sg15_27_cif.got.tgz:52732.got - 2010.06.03 18:47:42.
