data_PCOD9271463
_publ_section_title
;
Structure prediction by ZEFSAII (Michael W. Deem and Ramdas Pophale) SiO2 
 PCOD9271463
Probable space group: C 2/C
;
_chemical_formula_sum "Si O2"
_cell_formula_units_Z 64
_cell_length_a 18.577905
_cell_length_b 15.143346
_cell_length_c 12.058097
_cell_angle_alpha 90.000000
_cell_angle_beta 74.228634
_cell_angle_gamma 90.000000
_cell_volume 3264.616628
_symmetry_space_group_name_H-M "C 2/C"
_symmetry_group_IT_number 15
_symmetry_cell_setting 'monoclinic'
loop_
_space_group_symop_operation_xyz
x,y,z
-x,y,1/2-z
-x,-y,-z
x,-y,1/2+z
1/2+x,1/2+y,z
1/2-x,1/2+y,1/2-z
1/2-x,1/2-y,-z
1/2+x,1/2-y,1/2+z
loop_
_atom_site_type_symbol
_atom_site_label
_atom_site_fract_x
_atom_site_fract_y
_atom_site_fract_z
Si Si1 0.268681 0.943342 0.788174
Si Si2 0.038468 0.740795 0.848818
Si Si3 0.714739 0.635927 0.778219
Si Si4 0.312552 0.304686 0.814455
Si Si5 0.608717 0.714595 0.983242
Si Si6 0.753810 0.646373 0.515787
Si Si7 0.582391 0.902860 0.881238
Si Si8 0.421346 0.911191 0.997943
O O1 0.229597 0.894891 0.699680
O O2 0.356624 0.920512 0.739237
O O3 0.257277 0.047459 0.795077
O O4 0.231188 0.902568 0.913178
O O5 0.111510 0.795773 0.787845
O O6 0.059513 0.652999 0.906785
O O7 0.000000 0.713030 0.750000
O O8 0.976243 0.796748 0.940354
O O9 0.761821 0.722597 0.794588
O O10 0.637675 0.649288 0.876151
O O11 0.709524 0.629095 0.647753
O O12 0.336905 0.294709 0.932574
O O13 0.607557 0.813936 0.933998
O O14 0.750000 0.750000 0.500000
O O15 0.840077 0.618931 0.494917
O O16 0.585499 0.987398 0.961553
O O17 0.494112 0.897842 0.889618
#
# Coordination Sequence:
#
# PCOD9271463 Si02
#       8
#     8   8   8   8   8   8   8   8
#     4  12  25  37  62  89 121 164 205 253 306 371
#     4   9  18  37  60  87 117 160 196 247 306 360
#     4  12  24  39  59  91 122 157 208 251 301 369
#     4  11  21  40  62  90 119 157 199 251 306 361
#     4  10  22  36  65  87 121 151 203 252 304 360
#     4  12  23  41  60  85 129 168 205 247 316 374
#     4  10  20  39  55  94 123 158 200 250 308 370
#     4  10  20  36  59  88 130 158 199 246 307 381
#
# _framework density 19.604139
#
# number of rings (size 3 to 8) (size 9 to 14) (size 15 to 20)
#    0.000    1.250    5.000    0.375    3.500    0.500 
#    4.500    0.625    0.000    0.750    0.000    0.000 
#    0.000    0.000    0.000    0.000    0.000    0.000 
#
# Total GULP energy -178592.542759 kJ/mol
# GULP energy per Si atom -5581.016961 kJ/mol
# Density = 1.955952 g / cm^3
# Si number density = 19.604139 Si / 1000 Ang^3
#
#
#
# Elastic Constant Matrix: (Units=GPa)
#
#
# Indices 1 2 3 4 5 6 
#
# 1 40.3828 11.4459 6.5260 0.0000 -12.5662 0.0000
# 2 11.4459 49.3633 15.3838 0.0000 -5.0462 0.0000
# 3 6.5260 15.3838 119.1850 0.0000 -21.2699 0.0000
# 4 0.0000 0.0000 0.0000 19.3339 0.0000 -7.8693
# 5 -12.5662 -5.0462 -21.2699 0.0000 31.6695 0.0000
# 6 0.0000 0.0000 0.0000 -7.8693 0.0000 25.8262
#
#
#
# Elastic Compliance Matrix: (Units=1/GPa)
#
#
# Indices 1 2 3 4 5 6 
#
# 1 0.029955 -0.006134 0.001248 0.000000 0.011747 0.000000
# 2 -0.006134 0.022448 -0.002679 0.000000 -0.000656 0.000000
# 3 0.001248 -0.002679 0.009862 0.000000 0.006692 0.000000
# 4 0.000000 0.000000 0.000000 0.059045 0.000000 0.017991
# 5 0.011747 -0.000656 0.006692 0.000000 0.040627 0.000000
# 6 0.000000 0.000000 0.000000 0.017991 0.000000 0.044202
#
#
# Mechanical properties :
#
#
# Convention : Reuss Voigt Hill
#
# Bulk Modulus (GPa) = 21.21528 30.62694 25.92111
# Shear Modulus (GPa) = 21.09875 27.07096 24.08485
#
# Velocity S-wave (km/s) = 3.28417 3.72005 3.50888
# Velocity P-wave (km/s) = 5.02258 5.84023 5.44677
#
# Compressibility (1/GPa) = 0.04713584
#
# Stress axis : x y z
#
# Youngs Moduli (GPa) = 33.38319 44.54753 101.39959
#
# Poissons Ratio (x) = 0.27325 -0.12653
# Poissons Ratio (y) = 0.20477 0.27162
# Poissons Ratio (z) = -0.04166 0.11933
#
# Static dielectric constant tensor:
#      x y z
#    x 1.795040 0.000000 -0.053550 
#    y 0.000000 1.639890 0.000000 
#    z -0.053550 0.000000 1.772900 
# 
# From -- ./inp_files/112721.got.cif
#   From: 2010.05.17/outbox.cif.g08.bks.cpg/sg15_57_cif.got.tgz:112721.got - 2010.06.03 18:47:42.
