data_PCOD9271211
_publ_section_title
;
Structure prediction by ZEFSAII (Michael W. Deem and Ramdas Pophale) SiO2 
 PCOD9271211
Probable space group: C 2/C
;
_chemical_formula_sum "Si O2"
_cell_formula_units_Z 48
_cell_length_a 15.621963
_cell_length_b 8.926884
_cell_length_c 18.809206
_cell_angle_alpha 90.000000
_cell_angle_beta 58.299032
_cell_angle_gamma 90.000000
_cell_volume 2231.693659
_symmetry_space_group_name_H-M "C 2/C"
_symmetry_group_IT_number 15
_symmetry_cell_setting 'monoclinic'
loop_
_space_group_symop_operation_xyz
x,y,z
-x,y,1/2-z
-x,-y,-z
x,-y,1/2+z
1/2+x,1/2+y,z
1/2-x,1/2+y,1/2-z
1/2-x,1/2-y,-z
1/2+x,1/2-y,1/2+z
loop_
_atom_site_type_symbol
_atom_site_label
_atom_site_fract_x
_atom_site_fract_y
_atom_site_fract_z
Si Si1 0.357551 0.904106 0.019211
Si Si2 0.343396 0.867270 0.316378
Si Si3 0.735793 0.613901 0.426954
Si Si4 0.146764 0.760050 0.248602
Si Si5 0.228509 0.070791 0.191059
Si Si6 0.488992 0.009952 0.154452
O O1 0.359864 0.724527 0.032859
O O2 0.312852 0.994417 0.104806
O O3 0.276638 0.912025 0.988765
O O4 0.459643 0.974071 0.944022
O O5 0.333297 0.691420 0.327566
O O6 0.241664 0.956122 0.382433
O O7 0.389536 0.914835 0.219407
O O8 0.424955 0.934265 0.335173
O O9 0.815988 0.712116 0.346033
O O10 0.222180 0.677464 0.270860
O O11 0.041792 0.678625 0.309741
O O12 0.158855 0.936992 0.249697
#
# Coordination Sequence:
#
# PCOD9271211 Si02
#       6
#     8   8   8   8   8   8
#     4   9  18  33  57  85 112 148 195 247 292 340
#     4   9  18  35  56  81 115 154 189 234 288 351
#     4   8  16  33  55  80 112 148 191 233 286 353
#     4  10  20  36  58  82 116 158 195 238 294 360
#     4  11  22  37  60  85 116 160 201 234 294 364
#     4   9  18  35  56  81 115 145 187 247 294 331
#
# _framework density 21.508327999999999
#
# number of rings (size 3 to 8) (size 9 to 14) (size 15 to 20)
#    0.000    2.667    0.000    3.000    0.000    3.333 
#    0.000   21.667    0.000    6.000    0.000    0.000 
#    0.000    0.000    0.000    0.000    0.000    0.000 
#
# Total GULP energy -133644.286081 kJ/mol
# GULP energy per Si atom -5568.511920 kJ/mol
# Density = 2.145937 g / cm^3
# Si number density = 21.508328 Si / 1000 Ang^3
#
#
#
# Elastic Constant Matrix: (Units=GPa)
#
#
# Indices 1 2 3 4 5 6 
#
# 1 55.3218 36.0822 22.2161 0.0000 8.7323 0.0000
# 2 36.0822 168.7417 27.3468 0.0000 4.3146 0.0000
# 3 22.2161 27.3468 109.3916 0.0000 11.4809 0.0000
# 4 0.0000 0.0000 0.0000 21.7807 0.0000 2.1845
# 5 8.7323 4.3146 11.4809 0.0000 20.4631 0.0000
# 6 0.0000 0.0000 0.0000 2.1845 0.0000 27.9405
#
#
#
# Elastic Compliance Matrix: (Units=1/GPa)
#
#
# Indices 1 2 3 4 5 6 
#
# 1 0.023201 -0.004309 -0.002859 0.000000 -0.007388 0.000000
# 2 -0.004309 0.006981 -0.000965 0.000000 0.000908 0.000000
# 3 -0.002859 -0.000965 0.010428 0.000000 -0.004427 0.000000
# 4 0.000000 0.000000 0.000000 0.046275 0.000000 -0.003618
# 5 -0.007388 0.000908 -0.004427 0.000000 0.054313 0.000000
# 6 0.000000 0.000000 0.000000 -0.003618 0.000000 0.036073
#
#
# Mechanical properties :
#
#
# Convention : Reuss Voigt Hill
#
# Bulk Modulus (GPa) = 41.07998 56.08282 48.58140
# Shear Modulus (GPa) = 24.79514 30.55753 27.67633
#
# Velocity S-wave (km/s) = 3.39900 3.77335 3.59105
# Velocity P-wave (km/s) = 5.87752 6.71682 6.31114
#
# Compressibility (1/GPa) = 0.02434276
#
# Stress axis : x y z
#
# Youngs Moduli (GPa) = 43.10218 143.25017 95.89448
#
# Poissons Ratio (x) = 0.61723 0.27419
# Poissons Ratio (y) = 0.18572 0.09258
# Poissons Ratio (z) = 0.12324 0.13830
#
# Static dielectric constant tensor:
#      x y z
#    x 1.894750 0.000000 0.017920 
#    y 0.000000 1.817320 0.000000 
#    z 0.017920 0.000000 1.809750 
# 
# From -- ./inp_files/251472.got.cif
#   From: 2010.05.17/outbox.cif.g08.bks.cpg/sg15_126_cif.got.tgz:251472.got - 2010.06.03 18:47:42.
