data_PCOD9271838
_publ_section_title
;
Structure prediction by ZEFSAII (Michael W. Deem and Ramdas Pophale) SiO2 
 PCOD9271838
Probable space group: C 2/C
;
_chemical_formula_sum "Si O2"
_cell_formula_units_Z 56
_cell_length_a 16.868243
_cell_length_b 28.375280
_cell_length_c 8.794967
_cell_angle_alpha 90.000000
_cell_angle_beta 47.976004
_cell_angle_gamma 90.000000
_cell_volume 3127.186888
_symmetry_space_group_name_H-M "C 2/C"
_symmetry_group_IT_number 15
_symmetry_cell_setting 'monoclinic'
loop_
_space_group_symop_operation_xyz
x,y,z
-x,y,1/2-z
-x,-y,-z
x,-y,1/2+z
1/2+x,1/2+y,z
1/2-x,1/2+y,1/2-z
1/2-x,1/2-y,-z
1/2+x,1/2-y,1/2+z
loop_
_atom_site_type_symbol
_atom_site_label
_atom_site_fract_x
_atom_site_fract_y
_atom_site_fract_z
Si Si1 0.893255 0.871109 0.983674
Si Si2 0.708178 0.700895 0.121766
Si Si3 0.925599 0.295530 0.491720
Si Si4 0.709949 0.059057 0.772846
Si Si5 0.995752 0.385923 0.935959
Si Si6 0.013883 0.796356 0.413616
Si Si7 0.609691 0.976525 0.701392
O O1 0.823933 0.834964 0.970041
O O2 0.000000 0.881000 0.750000
O O3 0.824510 0.917922 0.099828
O O4 0.928236 0.842495 0.090180
O O5 0.809628 0.686572 0.090252
O O6 0.603131 0.706635 0.359112
O O7 0.750000 0.750000 0.000000
O O8 0.974401 0.339425 0.516025
O O9 0.924141 0.249538 0.601039
O O10 0.000000 0.283918 0.250000
O O11 0.668187 0.017071 0.719099
O O12 0.622470 0.099884 0.863892
O O13 0.690542 0.042081 0.969944
O O14 0.069987 0.432733 0.857240
O O15 0.000000 0.377110 0.750000
O O16 0.000000 0.796866 0.250000
O O17 0.500000 0.990613 0.750000
#
# Coordination Sequence:
#
# PCOD9271838 Si02
#       7
#     8   8   8   8   8   8   8
#     4  10  22  42  59  80 115 155 197 236 286 336
#     4  11  21  39  58  80 115 157 192 236 282 334
#     4  12  21  34  59  85 117 154 200 230 278 352
#     4  10  20  36  62  81 117 150 185 235 294 347
#     4   9  20  34  53  90 124 149 184 236 286 351
#     4  11  24  39  57  83 119 155 193 242 285 332
#     4   9  19  36  56  87 124 143 181 236 298 343
#
# _framework density 17.907468000000001
#
# number of rings (size 3 to 8) (size 9 to 14) (size 15 to 20)
#    0.000    2.000    2.857    3.429    0.000    6.857 
#    0.000    2.143    0.000    0.000    0.000    0.000 
#    0.000    0.000    0.000    0.000    0.000    0.000 
#
# Total GULP energy -156156.329565 kJ/mol
# GULP energy per Si atom -5577.011770 kJ/mol
# Density = 1.786671 g / cm^3
# Si number density = 17.907468 Si / 1000 Ang^3
#
#
#
# Elastic Constant Matrix: (Units=GPa)
#
#
# Indices 1 2 3 4 5 6 
#
# 1 64.6430 32.0647 36.9218 0.0000 4.6926 0.0000
# 2 32.0647 69.0697 41.2288 0.0000 7.4451 0.0000
# 3 36.9218 41.2288 82.1352 0.0000 0.6089 0.0000
# 4 0.0000 0.0000 0.0000 18.9514 0.0000 -6.2126
# 5 4.6926 7.4451 0.6089 0.0000 23.3996 0.0000
# 6 0.0000 0.0000 0.0000 -6.2126 0.0000 23.5282
#
#
#
# Elastic Compliance Matrix: (Units=1/GPa)
#
#
# Indices 1 2 3 4 5 6 
#
# 1 0.022728 -0.005994 -0.007190 0.000000 -0.002464 0.000000
# 2 -0.005994 0.023228 -0.008921 0.000000 -0.005956 0.000000
# 3 -0.007190 -0.008921 0.019857 0.000000 0.003764 0.000000
# 4 0.000000 0.000000 0.000000 0.057767 0.000000 0.015253
# 5 -0.002464 -0.005956 0.003764 0.000000 0.045027 0.000000
# 6 0.000000 0.000000 0.000000 0.015253 0.000000 0.046530
#
#
# Mechanical properties :
#
#
# Convention : Reuss Voigt Hill
#
# Bulk Modulus (GPa) = 46.28840 48.47538 47.38189
# Shear Modulus (GPa) = 18.75837 20.21800 19.48818
#
# Velocity S-wave (km/s) = 3.24005 3.36374 3.30247
# Velocity P-wave (km/s) = 6.31680 6.49731 6.40769
#
# Compressibility (1/GPa) = 0.02160368
#
# Stress axis : x y z
#
# Youngs Moduli (GPa) = 43.99818 43.05192 50.35968
#
# Poissons Ratio (x) = 0.25805 0.36208
# Poissons Ratio (y) = 0.26372 0.44925
# Poissons Ratio (z) = 0.31634 0.38406
#
# Static dielectric constant tensor:
#      x y z
#    x 1.753140 0.000000 -0.004820 
#    y 0.000000 1.629800 0.000000 
#    z -0.004820 0.000000 1.611450 
# 
# From -- ./inp_files/52280.got.cif
#   From: 2010.05.17/outbox.cif.g08.bks.cpg/sg15_27_cif.got.tgz:52280.got - 2010.06.03 18:47:42.
