data_PCOD9271737
_publ_section_title
;
Structure prediction by ZEFSAII (Michael W. Deem and Ramdas Pophale) SiO2 
 PCOD9271737
Probable space group: C 2/C
;
_chemical_formula_sum "Si O2"
_cell_formula_units_Z 36
_cell_length_a 9.621751
_cell_length_b 9.265201
_cell_length_c 20.613625
_cell_angle_alpha 90.000000
_cell_angle_beta 67.578122
_cell_angle_gamma 90.000000
_cell_volume 1698.726578
_symmetry_space_group_name_H-M "C 2/C"
_symmetry_group_IT_number 15
_symmetry_cell_setting 'monoclinic'
loop_
_space_group_symop_operation_xyz
x,y,z
-x,y,1/2-z
-x,-y,-z
x,-y,1/2+z
1/2+x,1/2+y,z
1/2-x,1/2+y,1/2-z
1/2-x,1/2-y,-z
1/2+x,1/2-y,1/2+z
loop_
_atom_site_type_symbol
_atom_site_label
_atom_site_fract_x
_atom_site_fract_y
_atom_site_fract_z
Si Si1 0.000126 0.997481 0.890816
Si Si2 0.500000 0.031453 0.250000
Si Si3 0.658046 0.748060 0.634793
Si Si4 0.035379 0.325247 0.363958
Si Si5 0.747493 0.006130 0.543374
O O1 0.017164 0.844521 0.852519
O O2 0.974412 0.133574 0.849548
O O3 0.850512 0.987494 0.962076
O O4 0.137578 0.023566 0.916139
O O5 0.376537 0.138944 0.301686
O O6 0.551689 0.927737 0.298885
O O7 0.814288 0.668242 0.620221
O O8 0.673686 0.849156 0.568714
O O9 0.887291 0.379972 0.428136
#
# Coordination Sequence:
#
# PCOD9271737 Si02
#       5
#     8   4   8   8   8
#     4  10  20  36  61  87 115 150 184 226 287 343
#     4  10  24  40  52  78 118 146 190 244 276 324
#     4  10  22  37  58  83 110 151 190 231 283 333
#     4  10  22  38  58  83 111 149 191 233 280 331
#     4   9  20  38  57  88 122 142 179 235 284 341
#
# _framework density 21.192346000000001
#
# number of rings (size 3 to 8) (size 9 to 14) (size 15 to 20)
#    0.000    2.222    0.000    1.333    0.000   12.444 
#    0.000    0.000    0.000    0.000    0.000    0.000 
#    0.000    0.000    0.000    0.000    0.000    0.000 
#
# Total GULP energy -100497.870911 kJ/mol
# GULP energy per Si atom -5583.215051 kJ/mol
# Density = 2.114411 g / cm^3
# Si number density = 21.192346 Si / 1000 Ang^3
#
#
#
# Elastic Constant Matrix: (Units=GPa)
#
#
# Indices 1 2 3 4 5 6 
#
# 1 60.2255 50.3420 9.0218 0.0000 -6.9683 0.0000
# 2 50.3420 108.8396 19.0755 0.0000 8.9527 0.0000
# 3 9.0218 19.0755 63.6110 0.0000 -11.0143 0.0000
# 4 0.0000 0.0000 0.0000 31.8570 0.0000 -3.7073
# 5 -6.9683 8.9527 -11.0143 0.0000 18.6980 0.0000
# 6 0.0000 0.0000 0.0000 -3.7073 0.0000 35.2241
#
#
#
# Elastic Compliance Matrix: (Units=1/GPa)
#
#
# Indices 1 2 3 4 5 6 
#
# 1 0.034540 -0.018919 0.005091 0.000000 0.024930 0.000000
# 2 -0.018919 0.020981 -0.007315 0.000000 -0.021406 0.000000
# 3 0.005091 -0.007315 0.020186 0.000000 0.017291 0.000000
# 4 0.000000 0.000000 0.000000 0.031779 0.000000 0.003345
# 5 0.024930 -0.021406 0.017291 0.000000 0.083207 0.000000
# 6 0.000000 0.000000 0.000000 0.003345 0.000000 0.028742
#
#
# Mechanical properties :
#
#
# Convention : Reuss Voigt Hill
#
# Bulk Modulus (GPa) = 29.92025 43.28385 36.60205
# Shear Modulus (GPa) = 18.32427 27.43826 22.88127
#
# Velocity S-wave (km/s) = 2.94371 3.60213 3.28944
# Velocity P-wave (km/s) = 5.06981 6.14566 5.63347
#
# Compressibility (1/GPa) = 0.03342218
#
# Stress axis : x y z
#
# Youngs Moduli (GPa) = 28.95169 47.66150 49.53928
#
# Poissons Ratio (x) = 0.90171 -0.25222
# Poissons Ratio (y) = 0.54774 0.36238
# Poissons Ratio (z) = -0.14740 0.34864
#
# Static dielectric constant tensor:
#      x y z
#    x 1.746410 0.000000 -0.019760 
#    y 0.000000 1.785430 0.000000 
#    z -0.019760 0.000000 1.792440 
# 
# From -- ./inp_files/195299.got.cif
#   From: 2010.05.17/outbox.cif.g08.bks.cpg/sg15_98_cif.got.tgz:195299.got - 2010.06.03 18:47:42.
