data_PCOD9271475
_publ_section_title
;
Structure prediction by ZEFSAII (Michael W. Deem and Ramdas Pophale) SiO2 
 PCOD9271475
Probable space group: C 2/C
;
_chemical_formula_sum "Si O2"
_cell_formula_units_Z 56
_cell_length_a 20.981495
_cell_length_b 13.960196
_cell_length_c 18.740584
_cell_angle_alpha 90.000000
_cell_angle_beta 149.374776
_cell_angle_gamma 90.000000
_cell_volume 2796.322867
_symmetry_space_group_name_H-M "C 2/C"
_symmetry_group_IT_number 15
_symmetry_cell_setting 'monoclinic'
loop_
_space_group_symop_operation_xyz
x,y,z
-x,y,1/2-z
-x,-y,-z
x,-y,1/2+z
1/2+x,1/2+y,z
1/2-x,1/2+y,1/2-z
1/2-x,1/2-y,-z
1/2+x,1/2-y,1/2+z
loop_
_atom_site_type_symbol
_atom_site_label
_atom_site_fract_x
_atom_site_fract_y
_atom_site_fract_z
Si Si1 0.632345 0.143848 0.893816
Si Si2 0.253120 0.748446 0.125090
Si Si3 0.657128 0.329830 0.514925
Si Si4 0.641716 0.505667 0.890204
Si Si5 0.375774 0.686551 0.730282
Si Si6 0.150684 0.105839 0.638076
Si Si7 0.861132 0.103922 0.342248
O O1 0.500000 0.095446 0.750000
O O2 0.658871 0.215229 0.853673
O O3 0.634150 0.205234 0.968324
O O4 0.749098 0.071359 0.011112
O O5 0.224058 0.836970 0.148703
O O6 0.307004 0.664651 0.225846
O O7 0.660032 0.433899 0.480684
O O8 0.522162 0.287049 0.361715
O O9 0.775849 0.265326 0.609908
O O10 0.655348 0.342714 0.598275
O O11 0.500000 0.465013 0.750000
O O12 0.646543 0.587683 0.833858
O O13 0.356338 0.665664 0.795426
O O14 0.009437 0.091867 0.473543
O O15 0.198594 0.000755 0.705259
#
# Coordination Sequence:
#
# PCOD9271475 Si02
#       7
#     8   8   8   8   8   8   8
#     4  11  25  40  61  91 121 160 203 256 314 362
#     4  11  22  40  62  85 126 160 200 253 310 366
#     4  10  20  36  59  89 122 161 206 251 307 361
#     4  10  22  40  63  90 122 163 209 251 299 371
#     4  10  20  36  59  89 122 161 206 251 307 361
#     4  10  20  36  60  87 119 162 207 247 296 364
#     4  10  20  36  60  87 119 162 207 247 296 364
#
# _framework density 20.026299000000002
#
# number of rings (size 3 to 8) (size 9 to 14) (size 15 to 20)
#    0.000    1.714    1.429    3.000    0.000    6.857 
#    0.000    0.000    0.000    4.286    0.000    0.000 
#    0.000    0.000    0.000    0.000    0.000    0.000 
#
# Total GULP energy -156376.746411 kJ/mol
# GULP energy per Si atom -5584.883800 kJ/mol
# Density = 1.998072 g / cm^3
# Si number density = 20.026299 Si / 1000 Ang^3
#
#
#
# Elastic Constant Matrix: (Units=GPa)
#
#
# Indices 1 2 3 4 5 6 
#
# 1 50.0412 19.1622 34.4352 0.0000 -20.6523 0.0000
# 2 19.1622 90.8905 54.3048 0.0000 8.6988 0.0000
# 3 34.4352 54.3048 114.7462 0.0000 2.8226 0.0000
# 4 0.0000 0.0000 0.0000 33.1921 0.0000 2.8926
# 5 -20.6523 8.6988 2.8226 0.0000 38.7532 0.0000
# 6 0.0000 0.0000 0.0000 2.8926 0.0000 26.4169
#
#
#
# Elastic Compliance Matrix: (Units=1/GPa)
#
#
# Indices 1 2 3 4 5 6 
#
# 1 0.037038 -0.004040 -0.009728 0.000000 0.021353 0.000000
# 2 -0.004040 0.016117 -0.006285 0.000000 -0.005313 0.000000
# 3 -0.009728 -0.006285 0.014728 0.000000 -0.004846 0.000000
# 4 0.000000 0.000000 0.000000 0.030418 0.000000 -0.003331
# 5 0.021353 -0.005313 -0.004846 0.000000 0.038729 0.000000
# 6 0.000000 0.000000 0.000000 -0.003331 0.000000 0.038219
#
#
# Mechanical properties :
#
#
# Convention : Reuss Voigt Hill
#
# Bulk Modulus (GPa) = 36.00072 52.38692 44.19382
# Shear Modulus (GPa) = 22.26041 29.52416 25.89229
#
# Velocity S-wave (km/s) = 3.33762 3.84379 3.59961
# Velocity P-wave (km/s) = 5.73312 6.77609 6.27631
#
# Compressibility (1/GPa) = 0.02777722
#
# Stress axis : x y z
#
# Youngs Moduli (GPa) = 26.99965 62.04486 67.89850
#
# Poissons Ratio (x) = 0.25064 0.66054
# Poissons Ratio (y) = 0.10907 0.42672
# Poissons Ratio (z) = 0.26266 0.38993
#
# Static dielectric constant tensor:
#      x y z
#    x 1.720530 0.000000 -0.006390 
#    y 0.000000 1.709960 0.000000 
#    z -0.006390 0.000000 1.714820 
# 
# From -- ./inp_files/215774.got.cif
#   From: 2010.05.17/outbox.cif.g08.bks.cpg/sg15_108_cif.got.tgz:215774.got - 2010.06.03 18:47:42.
