data_PCOD9271786
_publ_section_title
;
Structure prediction by ZEFSAII (Michael W. Deem and Ramdas Pophale) SiO2 
 PCOD9271786
Probable space group: C 2/C
;
_chemical_formula_sum "Si O2"
_cell_formula_units_Z 60
_cell_length_a 20.965822
_cell_length_b 29.207550
_cell_length_c 14.361195
_cell_angle_alpha 90.000000
_cell_angle_beta 159.689147
_cell_angle_gamma 90.000000
_cell_volume 3052.592675
_symmetry_space_group_name_H-M "C 2/C"
_symmetry_group_IT_number 15
_symmetry_cell_setting 'monoclinic'
loop_
_space_group_symop_operation_xyz
x,y,z
-x,y,1/2-z
-x,-y,-z
x,-y,1/2+z
1/2+x,1/2+y,z
1/2-x,1/2+y,1/2-z
1/2-x,1/2-y,-z
1/2+x,1/2-y,1/2+z
loop_
_atom_site_type_symbol
_atom_site_label
_atom_site_fract_x
_atom_site_fract_y
_atom_site_fract_z
Si Si1 0.438548 0.789645 0.826549
Si Si2 0.538239 0.388988 0.094406
Si Si3 0.299584 0.374034 0.923070
Si Si4 0.500000 0.968156 0.250000
Si Si5 0.893810 0.011512 0.760592
Si Si6 0.242212 0.203398 0.860930
Si Si7 0.906239 0.925679 0.534797
Si Si8 0.993691 0.447100 0.024252
O O1 0.326763 0.831787 0.717754
O O2 0.356785 0.783860 0.610363
O O3 0.408881 0.743437 0.844243
O O4 0.649059 0.797745 0.087255
O O5 0.588800 0.434137 0.223913
O O6 0.678407 0.347729 0.294223
O O7 0.538501 0.403641 0.987624
O O8 0.352752 0.370756 0.886812
O O9 0.174956 0.420051 0.755286
O O10 0.500000 0.372067 0.250000
O O11 0.522112 0.944429 0.383344
O O12 0.683148 0.997669 0.484360
O O13 0.000000 0.000000 0.000000
O O14 0.001298 0.976449 0.842214
O O15 0.689018 0.927782 0.255571
O O16 0.000000 0.900985 0.750000
O O17 0.000000 0.500000 0.000000
#
# Coordination Sequence:
#
# PCOD9271786 Si02
#       8
#     8   8   8   4   8   8   8   8
#     4  10  21  37  59  91 131 174 204 260 328 391
#     4  11  22  38  62  92 127 166 216 263 326 381
#     4  12  25  41  62  96 132 169 219 268 325 395
#     4  12  24  42  66  84 124 172 216 272 324 384
#     4  10  22  40  60  89 125 164 218 264 324 375
#     4  10  20  36  61  91 132 169 212 257 325 399
#     4  11  22  43  63  87 124 174 219 281 324 382
#     4  12  26  41  63  91 123 172 222 267 333 385
#
# _framework density 19.655422999999999
#
# number of rings (size 3 to 8) (size 9 to 14) (size 15 to 20)
#    0.000    1.067    2.667    5.600    3.733    2.133 
#    0.000    0.000    0.000    0.000    1.733    2.800 
#    0.000    0.000    0.000    0.000    0.000    0.000 
#
# Total GULP energy -167080.940524 kJ/mol
# GULP energy per Si atom -5569.364684 kJ/mol
# Density = 1.961069 g / cm^3
# Si number density = 19.655423 Si / 1000 Ang^3
#
#
#
# Elastic Constant Matrix: (Units=GPa)
#
#
# Indices 1 2 3 4 5 6 
#
# 1 145.8041 26.2023 22.7979 0.0001 15.5313 0.0001
# 2 26.2023 81.6279 14.8314 0.0004 14.9807 0.0003
# 3 22.7979 14.8314 67.6898 -0.0001 14.3506 -0.0001
# 4 0.0001 0.0004 -0.0001 7.5056 0.0000 -11.5396
# 5 15.5313 14.9807 14.3506 0.0000 35.4653 0.0000
# 6 0.0001 0.0003 -0.0001 -11.5396 0.0000 3.9315
#
#
#
# Elastic Compliance Matrix: (Units=1/GPa)
#
#
# Indices 1 2 3 4 5 6 
#
# 1 0.007660 -0.001789 -0.001790 0.000000 -0.001874 0.000000
# 2 -0.001789 0.013921 -0.001495 0.000001 -0.004492 0.000001
# 3 -0.001790 -0.001495 0.016849 0.000000 -0.005402 0.000000
# 4 0.000000 0.000001 0.000000 -0.037928 0.000000 -0.111327
# 5 -0.001874 -0.004492 -0.005402 0.000000 0.033100 0.000000
# 6 0.000000 0.000001 0.000000 -0.111327 0.000000 -0.072409
#
#
# Mechanical properties :
#
#
# Convention : Reuss Voigt Hill
#
# Bulk Modulus (GPa) = 35.36105 46.97612 41.16858
# Shear Modulus (GPa) = -260.00500 24.79981 -117.60259
#
# Velocity S-wave (km/s) = -11.51385 3.55594 -7.74352
# Velocity P-wave (km/s) = 12.59876 6.38837 7.67846
#
# Compressibility (1/GPa) = 0.02827970
#
# Stress axis : x y z
#
# Youngs Moduli (GPa) = 130.55382 71.83315 59.35000
#
# Poissons Ratio (x) = 0.12855 0.10626
# Poissons Ratio (y) = 0.23363 0.08875
# Poissons Ratio (z) = 0.23374 0.10741
#
# Static dielectric constant tensor:
#      x y z
#    x 1.734840 0.000000 0.002090 
#    y 0.000000 1.717120 0.000000 
#    z 0.002090 0.000000 1.779980 
# 
# From -- ./inp_files/170050.got.cif
#   From: 2010.05.17/outbox.cif.g08.bks.cpg/sg15_86_cif.got.tgz:170050.got - 2010.06.03 18:47:42.
