data_PCOD9271635
_publ_section_title
;
Structure prediction by ZEFSAII (Michael W. Deem and Ramdas Pophale) SiO2 
 PCOD9271635
Probable space group: C 2/C
;
_chemical_formula_sum "Si O2"
_cell_formula_units_Z 40
_cell_length_a 13.489808
_cell_length_b 9.594033
_cell_length_c 12.859801
_cell_angle_alpha 90.000000
_cell_angle_beta 71.311017
_cell_angle_gamma 90.000000
_cell_volume 1576.579528
_symmetry_space_group_name_H-M "C 2/C"
_symmetry_group_IT_number 15
_symmetry_cell_setting 'monoclinic'
loop_
_space_group_symop_operation_xyz
x,y,z
-x,y,1/2-z
-x,-y,-z
x,-y,1/2+z
1/2+x,1/2+y,z
1/2-x,1/2+y,1/2-z
1/2-x,1/2-y,-z
1/2+x,1/2-y,1/2+z
loop_
_atom_site_type_symbol
_atom_site_label
_atom_site_fract_x
_atom_site_fract_y
_atom_site_fract_z
Si Si1 0.758832 0.184327 0.256884
Si Si2 0.865712 0.218920 0.006228
Si Si3 0.350166 0.051695 0.794159
Si Si4 0.091731 0.053559 0.134792
Si Si5 0.026202 0.657368 0.575275
O O1 0.754045 0.344195 0.296288
O O2 0.660507 0.105323 0.241523
O O3 0.803215 0.094152 0.337432
O O4 0.838317 0.172149 0.133055
O O5 0.904874 0.090006 0.926406
O O6 0.750000 0.250000 0.000000
O O7 0.956761 0.336749 0.993140
O O8 0.439177 0.117076 0.690616
O O9 0.376535 0.071810 0.906589
O O10 0.000000 0.050386 0.250000
O O11 0.068507 0.185324 0.069614
#
# Coordination Sequence:
#
# PCOD9271635 Si02
#       5
#     8   8   8   8   8
#     4  10  20  36  60  90 117 156 196 252 296 347
#     4  11  22  36  61  89 121 154 204 251 295 351
#     4   9  17  35  61  83 121 156 199 238 299 346
#     4  11  18  34  63  85 109 154 212 243 279 350
#     4   9  17  35  58  82 113 164 194 235 291 362
#
# _framework density 25.371381
#
# number of rings (size 3 to 8) (size 9 to 14) (size 15 to 20)
#    0.000    2.000    6.000    3.000    0.000    0.000 
#    0.000    5.000   22.000    0.000    0.000    0.000 
#    0.000    0.000    0.000    0.000    0.000    0.000 
#
# Total GULP energy -111449.228709 kJ/mol
# GULP energy per Si atom -5572.461435 kJ/mol
# Density = 2.531363 g / cm^3
# Si number density = 25.371381 Si / 1000 Ang^3
#
#
#
# Elastic Constant Matrix: (Units=GPa)
#
#
# Indices 1 2 3 4 5 6 
#
# 1 70.2133 27.7543 15.1110 0.0000 44.5644 0.0000
# 2 27.7543 80.7037 26.0465 0.0000 33.3146 0.0000
# 3 15.1110 26.0465 60.5204 0.0000 23.2791 0.0000
# 4 0.0000 0.0000 0.0000 37.6886 0.0000 19.9152
# 5 44.5644 33.3146 23.2791 0.0000 50.0829 0.0000
# 6 0.0000 0.0000 0.0000 19.9152 0.0000 28.7207
#
#
#
# Elastic Compliance Matrix: (Units=1/GPa)
#
#
# Indices 1 2 3 4 5 6 
#
# 1 0.033424 0.000415 0.003680 0.000000 -0.031727 0.000000
# 2 0.000415 0.017768 -0.003729 0.000000 -0.010455 0.000000
# 3 0.003680 -0.003729 0.021328 0.000000 -0.010708 0.000000
# 4 0.000000 0.000000 0.000000 0.041877 0.000000 -0.029038
# 5 -0.031727 -0.010455 -0.010708 0.000000 0.060130 0.000000
# 6 0.000000 0.000000 0.000000 -0.029038 0.000000 0.054953
#
#
# Mechanical properties :
#
#
# Convention : Reuss Voigt Hill
#
# Bulk Modulus (GPa) = 13.65169 38.80677 26.22923
# Shear Modulus (GPa) = 19.74999 32.80013 26.27506
#
# Velocity S-wave (km/s) = 2.79307 3.59945 3.22159
# Velocity P-wave (km/s) = 3.97418 5.70994 4.91923
#
# Compressibility (1/GPa) = 0.07325098
#
# Stress axis : x y z
#
# Youngs Moduli (GPa) = 29.91893 56.28245 46.88668
#
# Poissons Ratio (x) = -0.02335 -0.17254
# Poissons Ratio (y) = -0.01241 0.17484
# Poissons Ratio (z) = -0.11010 0.20987
#
# Static dielectric constant tensor:
#      x y z
#    x 2.227090 0.000000 0.036850 
#    y 0.000000 2.054290 0.000000 
#    z 0.036850 0.000000 1.984940 
# 
# From -- ./inp_files/150671.got.cif
#   From: 2010.05.17/outbox.cif.g08.bks.cpg/sg15_76_cif.got.tgz:150671.got - 2010.06.03 18:47:42.
