data_PCOD9271239
_publ_section_title
;
Structure prediction by ZEFSAII (Michael W. Deem and Ramdas Pophale) SiO2 
 PCOD9271239
Probable space group: C 2/C
;
_chemical_formula_sum "Si O2"
_cell_formula_units_Z 44
_cell_length_a 10.992960
_cell_length_b 9.361820
_cell_length_c 19.626110
_cell_angle_alpha 90.000000
_cell_angle_beta 124.084991
_cell_angle_gamma 90.000000
_cell_volume 1672.815903
_symmetry_space_group_name_H-M "C 2/C"
_symmetry_group_IT_number 15
_symmetry_cell_setting 'monoclinic'
loop_
_space_group_symop_operation_xyz
x,y,z
-x,y,1/2-z
-x,-y,-z
x,-y,1/2+z
1/2+x,1/2+y,z
1/2-x,1/2+y,1/2-z
1/2-x,1/2-y,-z
1/2+x,1/2-y,1/2+z
loop_
_atom_site_type_symbol
_atom_site_label
_atom_site_fract_x
_atom_site_fract_y
_atom_site_fract_z
Si Si1 0.825819 0.454070 0.389416
Si Si2 0.290008 0.451295 0.996246
Si Si3 0.495728 0.677831 0.099910
Si Si4 0.500000 0.793734 0.250000
Si Si5 0.013642 0.295788 0.909056
Si Si6 0.699623 0.571830 0.707200
O O1 0.742688 0.430640 0.433219
O O2 0.081643 0.402056 0.576216
O O3 0.721813 0.473356 0.291807
O O4 0.932705 0.323992 0.402650
O O5 0.359612 0.608111 0.015366
O O6 0.409184 0.328028 0.022521
O O7 0.138584 0.398371 0.915341
O O8 0.459282 0.705960 0.168556
O O9 0.619759 0.553634 0.140726
O O10 0.643627 0.885593 0.274987
O O11 0.904741 0.210935 0.825986
#
# Coordination Sequence:
#
# PCOD9271239 Si02
#       6
#     8   8   8   4   8   8
#     4  11  21  36  62  87 112 153 199 235 281 343
#     4  10  22  41  60  82 120 156 185 239 291 335
#     4  10  21  36  58  87 114 151 199 235 283 346
#     4  10  20  36  58  84 120 152 186 250 292 322
#     4  10  22  40  60  86 119 153 190 234 292 344
#     4  10  21  38  59  87 118 151 193 238 288 342
#
# _framework density 26.302954
#
# number of rings (size 3 to 8) (size 9 to 14) (size 15 to 20)
#    0.000    1.818    0.000    4.909    0.000    5.818 
#    0.000   10.000    0.000    0.000    0.000    0.000 
#    0.000    0.000    0.000    0.000    0.000    0.000 
#
# Total GULP energy -123291.468741 kJ/mol
# GULP energy per Si atom -5604.157670 kJ/mol
# Density = 2.624309 g / cm^3
# Si number density = 26.302954 Si / 1000 Ang^3
#
#
#
# Elastic Constant Matrix: (Units=GPa)
#
#
# Indices 1 2 3 4 5 6 
#
# 1 101.6649 30.4166 32.4449 0.0000 4.2951 0.0000
# 2 30.4166 133.9328 39.8161 0.0000 4.7489 0.0000
# 3 32.4449 39.8161 88.9864 0.0000 18.9844 0.0000
# 4 0.0000 0.0000 0.0000 53.2822 0.0000 20.8558
# 5 4.2951 4.7489 18.9844 0.0000 23.9054 0.0000
# 6 0.0000 0.0000 0.0000 20.8558 0.0000 8.3415
#
#
#
# Elastic Compliance Matrix: (Units=1/GPa)
#
#
# Indices 1 2 3 4 5 6 
#
# 1 0.011437 -0.001527 -0.003748 0.000000 0.001225 0.000000
# 2 -0.001527 0.008868 -0.003725 0.000000 0.001471 0.000000
# 3 -0.003748 -0.003725 0.016819 0.000000 -0.011943 0.000000
# 4 0.000000 0.000000 0.000000 0.879077 0.000000 -2.197908
# 5 0.001225 0.001471 -0.011943 0.000000 0.050804 0.000000
# 6 0.000000 0.000000 0.000000 -2.197908 0.000000 5.615196
#
#
# Mechanical properties :
#
#
# Convention : Reuss Voigt Hill
#
# Bulk Modulus (GPa) = 52.28912 58.88213 55.58562
# Shear Modulus (GPa) = 0.75682 31.89960 16.32821
#
# Velocity S-wave (km/s) = 0.53699 3.48627 2.49424
# Velocity P-wave (km/s) = 4.50635 6.21612 5.42897
#
# Compressibility (1/GPa) = 0.01912444
#
# Stress axis : x y z
#
# Youngs Moduli (GPa) = 87.43186 112.75940 59.45578
#
# Poissons Ratio (x) = 0.17214 0.22287
# Poissons Ratio (y) = 0.13347 0.22149
# Poissons Ratio (z) = 0.32774 0.42006
#
# Static dielectric constant tensor:
#      x y z
#    x 2.051370 0.000000 0.019780 
#    y 0.000000 2.009400 0.000000 
#    z 0.019780 0.000000 2.137000 
# 
# From -- ./inp_files/273685.got.cif
#   From: 2010.05.17/outbox.cif.g08.bks.cpg/sg15_137_cif.got.tgz:273685.got - 2010.06.03 18:47:42.
