data_PCOD9271829
_publ_section_title
;
Structure prediction by ZEFSAII (Michael W. Deem and Ramdas Pophale) SiO2 
 PCOD9271829
Probable space group: C 2/C
;
_chemical_formula_sum "Si O2"
_cell_formula_units_Z 64
_cell_length_a 11.923903
_cell_length_b 24.828488
_cell_length_c 15.362008
_cell_angle_alpha 90.000000
_cell_angle_beta 143.596977
_cell_angle_gamma 90.000000
_cell_volume 2699.038854
_symmetry_space_group_name_H-M "C 2/C"
_symmetry_group_IT_number 15
_symmetry_cell_setting 'monoclinic'
loop_
_space_group_symop_operation_xyz
x,y,z
-x,y,1/2-z
-x,-y,-z
x,-y,1/2+z
1/2+x,1/2+y,z
1/2-x,1/2+y,1/2-z
1/2-x,1/2-y,-z
1/2+x,1/2-y,1/2+z
loop_
_atom_site_type_symbol
_atom_site_label
_atom_site_fract_x
_atom_site_fract_y
_atom_site_fract_z
Si Si1 0.488845 0.739053 0.414342
Si Si2 0.761993 0.855396 0.737821
Si Si3 0.880902 0.088384 0.809461
Si Si4 0.287967 0.132622 0.096195
Si Si5 0.439612 0.529028 0.310743
Si Si6 0.843311 0.673389 0.944626
Si Si7 0.683329 0.172620 0.916084
Si Si8 0.285023 0.066043 0.609768
O O1 0.380301 0.697352 0.281458
O O2 0.364692 0.769743 0.408530
O O3 0.599020 0.786193 0.431997
O O4 0.664242 0.701160 0.550728
O O5 0.763874 0.843246 0.842597
O O6 0.836508 0.915894 0.774012
O O7 0.552477 0.852294 0.570281
O O8 0.799963 0.134114 0.695047
O O9 0.781242 0.091966 0.840791
O O10 0.831943 0.027696 0.749222
O O11 0.107267 0.096165 0.958965
O O12 0.500000 0.109329 0.250000
O O13 0.303740 0.172964 0.023580
O O14 0.500000 0.534939 0.250000
O O15 0.626352 0.523078 0.487251
O O16 0.500000 0.155565 0.750000
O O17 0.750224 0.113308 0.985254
O O18 0.500000 0.045924 0.750000
#
# Coordination Sequence:
#
# PCOD9271829 Si02
#       8
#     8   8   8   8   8   8   8   8
#     4  11  22  39  67 101 142 189 238 298 359 427
#     4  11  25  45  67 105 146 192 238 297 363 428
#     4  12  25  50  71 105 146 190 241 304 368 425
#     4  10  23  46  72 100 142 191 250 302 362 427
#     4  12  27  45  72 103 146 190 241 298 356 434
#     4  11  25  42  73 102 139 191 247 299 356 433
#     4  10  20  36  61  97 141 184 228 287 357 422
#     4  11  24  45  72 108 144 187 238 291 360 436
#
# _framework density 23.712145
#
# number of rings (size 3 to 8) (size 9 to 14) (size 15 to 20)
#    0.000    1.000    2.500    3.750    3.500    3.000 
#    2.250    2.500    0.000    0.000    0.000    0.000 
#    0.000    0.000    0.000    0.000    0.000    0.000 
#
# Total GULP energy -178490.895198 kJ/mol
# GULP energy per Si atom -5577.840475 kJ/mol
# Density = 2.365818 g / cm^3
# Si number density = 23.712145 Si / 1000 Ang^3
#
#
#
# Elastic Constant Matrix: (Units=GPa)
#
#
# Indices 1 2 3 4 5 6 
#
# 1 95.5187 41.0429 15.9746 -0.0001 -1.6788 -0.0001
# 2 41.0429 146.8842 43.7669 0.0000 10.7257 0.0000
# 3 15.9746 43.7669 94.4977 -0.0001 14.7107 -0.0001
# 4 -0.0001 0.0000 -0.0001 0.1816 -0.0001 -4.6761
# 5 -1.6788 10.7257 14.7107 -0.0001 38.0826 -0.0001
# 6 -0.0001 0.0000 -0.0001 -4.6761 -0.0001 -5.2152
#
#
#
# Elastic Compliance Matrix: (Units=1/GPa)
#
#
# Indices 1 2 3 4 5 6 
#
# 1 0.012031 -0.003251 -0.000801 0.000000 0.001756 0.000000
# 2 -0.003251 0.008803 -0.003319 0.000000 -0.001341 0.000000
# 3 -0.000801 -0.003319 0.012890 0.000000 -0.004080 0.000000
# 4 0.000000 0.000000 0.000000 0.228612 0.000000 -0.204979
# 5 0.001756 -0.001341 -0.004080 0.000000 0.028290 -0.000001
# 6 0.000000 0.000000 0.000000 -0.204979 -0.000001 -0.007959
#
#
# Mechanical properties :
#
#
# Convention : Reuss Voigt Hill
#
# Bulk Modulus (GPa) = 52.68304 59.82993 56.25648
# Shear Modulus (GPa) = 16.46159 22.35088 19.40624
#
# Velocity S-wave (km/s) = 2.63768 3.07350 2.86389
# Velocity P-wave (km/s) = 5.61626 6.15481 5.89169
#
# Compressibility (1/GPa) = 0.01898144
#
# Stress axis : x y z
#
# Youngs Moduli (GPa) = 83.11862 113.59260 77.57928
#
# Poissons Ratio (x) = 0.36931 0.06217
# Poissons Ratio (y) = 0.27023 0.25749
# Poissons Ratio (z) = 0.06660 0.37701
#
# Static dielectric constant tensor:
#      x y z
#    x 1.988910 0.000000 0.032060 
#    y 0.000000 1.999580 0.000000 
#    z 0.032060 0.000000 1.944090 
# 
# From -- ./inp_files/148777.got.cif
#   From: 2010.05.17/outbox.cif.g08.bks.cpg/sg15_75_cif.got.tgz:148777.got - 2010.06.03 18:47:42.
