data_PCOD9271848
_publ_section_title
;
Structure prediction by ZEFSAII (Michael W. Deem and Ramdas Pophale) SiO2 
 PCOD9271848
Probable space group: C 2/C
;
_chemical_formula_sum "Si O2"
_cell_formula_units_Z 64
_cell_length_a 21.677102
_cell_length_b 11.703864
_cell_length_c 18.883674
_cell_angle_alpha 90.000000
_cell_angle_beta 48.085555
_cell_angle_gamma 90.000000
_cell_volume 3565.114417
_symmetry_space_group_name_H-M "C 2/C"
_symmetry_group_IT_number 15
_symmetry_cell_setting 'monoclinic'
loop_
_space_group_symop_operation_xyz
x,y,z
-x,y,1/2-z
-x,-y,-z
x,-y,1/2+z
1/2+x,1/2+y,z
1/2-x,1/2+y,1/2-z
1/2-x,1/2-y,-z
1/2+x,1/2-y,1/2+z
loop_
_atom_site_type_symbol
_atom_site_label
_atom_site_fract_x
_atom_site_fract_y
_atom_site_fract_z
Si Si1 0.937340 0.210662 0.356750
Si Si2 0.667146 0.520401 0.139889
Si Si3 0.571234 0.656778 0.480454
Si Si4 0.661153 0.300345 0.046784
Si Si5 0.537167 0.118623 0.441547
Si Si6 0.143666 0.592725 0.488743
Si Si7 0.548625 0.529193 0.358158
Si Si8 0.468844 0.099182 0.350038
O O1 0.875628 0.130991 0.360631
O O2 0.885122 0.300782 0.441402
O O3 0.000000 0.263111 0.250000
O O4 0.990404 0.125643 0.366360
O O5 0.654218 0.417150 0.095312
O O6 0.762246 0.551948 0.079654
O O7 0.617421 0.492191 0.249379
O O8 0.648760 0.678512 0.472402
O O9 0.525468 0.775718 0.496697
O O10 0.589267 0.587558 0.395598
O O11 0.507154 0.577023 0.573670
O O12 0.585802 0.213057 0.121000
O O13 0.750000 0.250000 0.000000
O O14 0.618241 0.127229 0.428053
O O15 0.541568 0.116928 0.352686
O O16 0.500000 0.000000 0.500000
O O17 0.090834 0.488819 0.563251
O O18 0.500000 0.058783 0.250000
#
# Coordination Sequence:
#
# PCOD9271848 Si02
#       8
#     8   8   8   8   8   8   8   8
#     4  10  20  36  62  85 114 154 199 245 283 354
#     4  11  23  37  57  89 120 152 194 249 302 342
#     4  10  20  39  65  85 116 156 203 244 286 356
#     4  11  22  39  60  88 123 154 190 251 302 347
#     4   9  20  36  61  83 112 155 193 236 289 350
#     4  11  20  40  58  83 124 152 191 241 304 349
#     4  10  21  38  62  88 113 154 205 246 288 351
#     4  10  22  37  61  88 111 156 202 236 285 357
#
# _framework density 17.951737999999999
#
# number of rings (size 3 to 8) (size 9 to 14) (size 15 to 20)
#    0.000    1.750    3.750    0.750    3.500    0.000 
#    2.250    0.000    0.000    0.000    0.000    0.000 
#    0.000    0.000    0.000    0.000    0.000    0.000 
#
# Total GULP energy -178374.622579 kJ/mol
# GULP energy per Si atom -5574.206956 kJ/mol
# Density = 1.791088 g / cm^3
# Si number density = 17.951738 Si / 1000 Ang^3
#
#
#
# Elastic Constant Matrix: (Units=GPa)
#
#
# Indices 1 2 3 4 5 6 
#
# 1 139.6117 21.2834 38.1895 0.0000 18.5317 0.0000
# 2 21.2834 67.4646 -3.7809 0.0000 2.7936 0.0000
# 3 38.1895 -3.7809 39.2181 0.0000 11.2823 0.0000
# 4 0.0000 0.0000 0.0000 -23.4494 0.0000 -7.9371
# 5 18.5317 2.7936 11.2823 0.0000 19.8866 0.0000
# 6 0.0000 0.0000 0.0000 -7.9371 0.0000 29.6107
#
#
#
# Elastic Compliance Matrix: (Units=1/GPa)
#
#
# Indices 1 2 3 4 5 6 
#
# 1 0.011005 -0.003858 -0.009912 0.000000 -0.004090 0.000000
# 2 -0.003858 0.016459 0.005945 0.000000 -0.002090 0.000000
# 3 -0.009912 0.005945 0.039803 0.000000 -0.014180 0.000000
# 4 0.000000 0.000000 0.000000 -0.039098 0.000000 -0.010480
# 5 -0.004090 -0.002090 -0.014180 0.000000 0.062435 0.000000
# 6 0.000000 0.000000 0.000000 -0.010480 0.000000 0.030962
#
#
# Mechanical properties :
#
#
# Convention : Reuss Voigt Hill
#
# Bulk Modulus (GPa) = 19.37340 39.74205 29.55773
# Shear Modulus (GPa) = 32.37879 17.91640 25.14759
#
# Velocity S-wave (km/s) = 4.25156 3.16259 3.74685
# Velocity P-wave (km/s) = 5.90901 5.96006 5.93459
#
# Compressibility (1/GPa) = 0.05161715
#
# Stress axis : x y z
#
# Youngs Moduli (GPa) = 90.86781 60.75573 25.12398
#
# Poissons Ratio (x) = 0.23439 0.24902
# Poissons Ratio (y) = 0.35056 -0.14935
# Poissons Ratio (z) = 0.90065 -0.36117
#
# Static dielectric constant tensor:
#      x y z
#    x 1.639610 0.000000 0.021240 
#    y 0.000000 1.629750 0.000000 
#    z 0.021240 0.000000 1.598110 
# 
# From -- ./inp_files/215046.got.cif
#   From: 2010.05.17/outbox.cif.g08.bks.cpg/sg15_108_cif.got.tgz:215046.got - 2010.06.03 18:47:42.
