data_PCOD9271029
_publ_section_title
;
Structure prediction by ZEFSAII (Michael W. Deem and Ramdas Pophale) SiO2 
 PCOD9271029
Probable space group: C 2/C
;
_chemical_formula_sum "Si O2"
_cell_formula_units_Z 60
_cell_length_a 15.862254
_cell_length_b 18.346452
_cell_length_c 16.211316
_cell_angle_alpha 90.000000
_cell_angle_beta 33.822704
_cell_angle_gamma 90.000000
_cell_volume 2626.018958
_symmetry_space_group_name_H-M "C 2/C"
_symmetry_group_IT_number 15
_symmetry_cell_setting 'monoclinic'
loop_
_space_group_symop_operation_xyz
x,y,z
-x,y,1/2-z
-x,-y,-z
x,-y,1/2+z
1/2+x,1/2+y,z
1/2-x,1/2+y,1/2-z
1/2-x,1/2-y,-z
1/2+x,1/2-y,1/2+z
loop_
_atom_site_type_symbol
_atom_site_label
_atom_site_fract_x
_atom_site_fract_y
_atom_site_fract_z
Si Si1 0.572243 0.101688 0.964418
Si Si2 0.784755 0.206332 0.889568
Si Si3 0.500000 0.577135 0.750000
Si Si4 0.516013 0.623170 0.469397
Si Si5 0.645472 0.487650 0.280723
Si Si6 0.681177 0.825704 0.751100
Si Si7 0.794188 0.246793 0.593013
Si Si8 0.498520 0.149644 0.839939
O O1 0.662886 0.174282 0.922545
O O2 0.684772 0.033463 0.883379
O O3 0.533306 0.109557 0.898817
O O4 0.428315 0.106042 0.142560
O O5 0.861099 0.132345 0.858591
O O6 0.884042 0.263085 0.755185
O O7 0.750000 0.250000 0.000000
O O8 0.477427 0.527595 0.689647
O O9 0.615687 0.568999 0.332942
O O10 0.399129 0.571612 0.613017
O O11 0.648912 0.656682 0.418409
O O12 0.422180 0.684021 0.497960
O O13 0.700065 0.789074 0.824890
O O14 0.633188 0.208303 0.718303
O O15 0.844833 0.305226 0.483517
O O16 0.500000 0.108799 0.750000
#
# Coordination Sequence:
#
# PCOD9271029 Si02
#       8
#     8   8   4   8   8   8   8   8
#     4  10  21  37  57  82 127 155 203 251 300 367
#     4  11  19  33  60  93 124 157 195 252 317 364
#     4  10  20  36  56  88 118 152 202 244 290 360
#     4  11  21  38  63  84 119 163 203 244 304 377
#     4  10  22  40  60  83 116 169 207 241 296 367
#     4  11  20  35  61  94 121 156 197 257 319 358
#     4  11  19  38  57  89 119 153 198 260 309 362
#     4  11  21  35  58  87 121 153 196 251 316 357
#
# _framework density 22.848274
#
# number of rings (size 3 to 8) (size 9 to 14) (size 15 to 20)
#    0.000    1.333    4.000    3.600    0.000    0.533 
#    1.200    0.000    0.000    0.000    1.733    0.000 
#    0.000    0.000    0.000    0.000    0.000    0.000 
#
# Total GULP energy -167405.791572 kJ/mol
# GULP energy per Si atom -5580.193052 kJ/mol
# Density = 2.279627 g / cm^3
# Si number density = 22.848274 Si / 1000 Ang^3
#
#
#
# Elastic Constant Matrix: (Units=GPa)
#
#
# Indices 1 2 3 4 5 6 
#
# 1 66.3575 7.1782 7.2578 -0.0044 23.1814 0.0002
# 2 7.1782 58.4765 7.1756 -0.0042 3.0771 -0.0006
# 3 7.2578 7.1756 70.4144 -0.0009 -1.1687 0.0001
# 4 -0.0044 -0.0042 -0.0009 -162.7284 0.0019 -49.5879
# 5 23.1814 3.0771 -1.1687 0.0019 41.5753 -0.0002
# 6 0.0002 -0.0006 0.0001 -49.5879 -0.0002 9.8328
#
#
#
# Elastic Compliance Matrix: (Units=1/GPa)
#
#
# Indices 1 2 3 4 5 6 
#
# 1 0.019169 -0.001549 -0.001994 0.000000 -0.010630 -0.000001
# 2 -0.001549 0.017517 -0.001633 0.000000 -0.000479 0.000000
# 3 -0.001994 -0.001633 0.014601 0.000000 0.001643 0.000000
# 4 0.000000 0.000000 0.000000 -0.002422 0.000000 -0.012217
# 5 -0.010630 -0.000479 0.001643 0.000000 0.030061 0.000002
# 6 -0.000001 0.000000 0.000000 -0.012217 0.000002 0.040090
#
#
# Mechanical properties :
#
#
# Convention : Reuss Voigt Hill
#
# Bulk Modulus (GPa) = 24.43007 26.49683 25.46345
# Shear Modulus (GPa) = 34.96177 -10.68827 12.13675
#
# Velocity S-wave (km/s) = 3.91598 -2.16520 2.30725
# Velocity P-wave (km/s) = 5.58230 2.31760 4.27395
#
# Compressibility (1/GPa) = 0.04093316
#
# Stress axis : x y z
#
# Youngs Moduli (GPa) = 52.16779 57.08857 68.48880
#
# Poissons Ratio (x) = 0.08843 0.13659
# Poissons Ratio (y) = 0.08081 0.11186
# Poissons Ratio (z) = 0.10404 0.09324
#
# Static dielectric constant tensor:
#      x y z
#    x 1.951580 0.000000 -0.081950 
#    y 0.000000 1.846350 0.000000 
#    z -0.081950 0.000000 1.963840 
# 
# From -- ./inp_files/156359.got.cif
#   From: 2010.05.17/outbox.cif.g08.bks.cpg/sg15_79_cif.got.tgz:156359.got - 2010.06.03 18:47:42.
