data_PCOD9271986
_publ_section_title
;
Structure prediction by ZEFSAII (Michael W. Deem and Ramdas Pophale) SiO2 
 PCOD9271986
Probable space group: C 2/C
;
_chemical_formula_sum "Si O2"
_cell_formula_units_Z 44
_cell_length_a 12.961160
_cell_length_b 32.804093
_cell_length_c 5.263514
_cell_angle_alpha 90.000000
_cell_angle_beta 99.723566
_cell_angle_gamma 90.000000
_cell_volume 2205.786135
_symmetry_space_group_name_H-M "C 2/C"
_symmetry_group_IT_number 15
_symmetry_cell_setting 'monoclinic'
loop_
_space_group_symop_operation_xyz
x,y,z
-x,y,1/2-z
-x,-y,-z
x,-y,1/2+z
1/2+x,1/2+y,z
1/2-x,1/2+y,1/2-z
1/2-x,1/2-y,-z
1/2+x,1/2-y,1/2+z
loop_
_atom_site_type_symbol
_atom_site_label
_atom_site_fract_x
_atom_site_fract_y
_atom_site_fract_z
Si Si1 0.000000 0.666838 0.250000
Si Si2 0.840083 0.111057 0.829230
Si Si3 0.273233 0.139247 0.235600
Si Si4 0.671929 0.276762 0.638587
Si Si5 0.121042 0.982142 0.267870
Si Si6 0.000000 0.722313 0.750000
Si Si7 0.500000 0.674055 0.750000
O O1 0.103413 0.640349 0.253315
O O2 0.012378 0.695134 0.503891
O O3 0.782066 0.125373 0.547906
O O4 0.877458 0.065121 0.803188
O O5 0.935610 0.142989 0.903688
O O6 0.766224 0.113582 0.042496
O O7 0.237265 0.185802 0.278285
O O8 0.750000 0.250000 0.500000
O O9 0.604990 0.249793 0.806811
O O10 0.582156 0.297672 0.428635
O O11 0.000000 0.995474 0.250000
O O12 0.170221 0.991847 0.560731
#
# Coordination Sequence:
#
# PCOD9271986 Si02
#       7
#     4   8   8   8   8   4   4
#     4  12  25  42  60  86 112 155 210 269 310 350
#     4  11  22  42  63  90 130 163 197 240 305 382
#     4  11  25  40  61  87 117 163 211 256 311 361
#     4  11  23  40  59  86 114 167 215 264 316 360
#     4  10  20  36  62  98 130 161 190 232 291 369
#     4  12  24  40  60  80 117 153 204 278 312 358
#     4  10  23  40  56  90 123 166 206 253 312 356
#
# _framework density 19.947534999999998
#
# number of rings (size 3 to 8) (size 9 to 14) (size 15 to 20)
#    0.000    1.091    2.727    3.818    2.545    4.364 
#    0.000    0.000    0.000    0.000    0.000   12.727 
#    0.000    0.000    0.000    0.000    0.000    0.000 
#
# Total GULP energy -123036.659147 kJ/mol
# GULP energy per Si atom -5592.575416 kJ/mol
# Density = 1.990213 g / cm^3
# Si number density = 19.947535 Si / 1000 Ang^3
#
#
#
# Elastic Constant Matrix: (Units=GPa)
#
#
# Indices 1 2 3 4 5 6 
#
# 1 104.2626 11.3955 31.8587 0.0000 -20.7247 0.0000
# 2 11.3955 51.1289 23.3849 0.0000 -5.5012 0.0000
# 3 31.8587 23.3849 109.0648 0.0000 -24.0784 0.0000
# 4 0.0000 0.0000 0.0000 -11.7061 0.0000 -10.2575
# 5 -20.7247 -5.5012 -24.0784 0.0000 26.9960 0.0000
# 6 0.0000 0.0000 0.0000 -10.2575 0.0000 19.9999
#
#
#
# Elastic Compliance Matrix: (Units=1/GPa)
#
#
# Indices 1 2 3 4 5 6 
#
# 1 0.011641 -0.001098 -0.001546 0.000000 0.007335 0.000000
# 2 -0.001098 0.021791 -0.004429 0.000000 -0.000354 0.000000
# 3 -0.001546 -0.004429 0.012587 0.000000 0.009138 0.000000
# 4 0.000000 0.000000 0.000000 -0.058938 0.000000 -0.030228
# 5 0.007335 -0.000354 0.009138 0.000000 0.050751 0.000000
# 6 0.000000 0.000000 0.000000 -0.030228 0.000000 0.034497
#
#
# Mechanical properties :
#
#
# Convention : Reuss Voigt Hill
#
# Bulk Modulus (GPa) = 31.37489 44.19275 37.78382
# Shear Modulus (GPa) = 51.49219 20.24576 35.86897
#
# Velocity S-wave (km/s) = 5.08624 3.18928 4.24508
# Velocity P-wave (km/s) = 7.08915 5.98035 6.55822
#
# Compressibility (1/GPa) = 0.03187262
#
# Stress axis : x y z
#
# Youngs Moduli (GPa) = 85.89970 45.89027 79.44393
#
# Poissons Ratio (x) = 0.05041 0.12280
# Poissons Ratio (y) = 0.09436 0.35189
# Poissons Ratio (z) = 0.13278 0.20327
#
# Static dielectric constant tensor:
#      x y z
#    x 1.708100 0.000000 -0.011660 
#    y 0.000000 1.736900 0.000000 
#    z -0.011660 0.000000 1.787710 
# 
# From -- ./inp_files/5835.got.cif
#   From: 2010.05.17/outbox.cif.g08.bks.cpg/sg15_3_cif.got.tgz:5835.got - 2010.06.03 18:47:42.
