data_PCOD9271530
_publ_section_title
;
Structure prediction by ZEFSAII (Michael W. Deem and Ramdas Pophale) SiO2 
 PCOD9271530
Probable space group: C 2/C
;
_chemical_formula_sum "Si O2"
_cell_formula_units_Z 52
_cell_length_a 20.870729
_cell_length_b 21.792185
_cell_length_c 10.303246
_cell_angle_alpha 90.000000
_cell_angle_beta 33.182851
_cell_angle_gamma 90.000000
_cell_volume 2564.767670
_symmetry_space_group_name_H-M "C 2/C"
_symmetry_group_IT_number 15
_symmetry_cell_setting 'monoclinic'
loop_
_space_group_symop_operation_xyz
x,y,z
-x,y,1/2-z
-x,-y,-z
x,-y,1/2+z
1/2+x,1/2+y,z
1/2-x,1/2+y,1/2-z
1/2-x,1/2-y,-z
1/2+x,1/2-y,1/2+z
loop_
_atom_site_type_symbol
_atom_site_label
_atom_site_fract_x
_atom_site_fract_y
_atom_site_fract_z
Si Si1 0.109087 0.240904 0.386459
Si Si2 0.861693 0.217436 0.869221
Si Si3 0.862429 0.123596 0.652921
Si Si4 0.638004 0.954134 0.527368
Si Si5 0.743888 0.481885 0.430077
Si Si6 0.303330 0.663180 0.494337
Si Si7 0.000000 0.974559 0.750000
O O1 0.149355 0.213910 0.457321
O O2 0.184775 0.298648 0.213084
O O3 0.975001 0.257175 0.639000
O O4 0.126222 0.191045 0.244587
O O5 0.884078 0.153753 0.754699
O O6 0.750000 0.250000 0.000000
O O7 0.869932 0.170190 0.518894
O O8 0.941795 0.067282 0.464534
O O9 0.725194 0.104183 0.883466
O O10 0.500000 0.941711 0.750000
O O11 0.678564 0.989718 0.329628
O O12 0.683664 0.991571 0.573997
O O13 0.720572 0.408853 0.487095
O O14 0.612750 0.507675 0.622279
#
# Coordination Sequence:
#
# PCOD9271530 Si02
#       7
#     8   8   8   8   8   8   4
#     4  10  21  36  56  80 120 151 186 242 279 343
#     4  11  21  34  54  86 115 144 192 236 284 338
#     4  10  20  36  60  82 112 156 189 240 291 346
#     4  10  22  39  60  83 117 155 195 240 291 352
#     4  10  21  37  61  85 113 153 196 244 289 349
#     4   9  19  39  56  80 111 156 194 227 293 341
#     4   8  18  36  58  86 112 148 192 234 294 346
#
# _framework density 20.274740999999999
#
# number of rings (size 3 to 8) (size 9 to 14) (size 15 to 20)
#    0.000    2.462    1.538    2.308    0.000    6.154 
#    0.000    3.077    0.000    0.000    0.000    0.000 
#    0.000    0.000    0.000    0.000    0.000    0.000 
#
# Total GULP energy -144899.707714 kJ/mol
# GULP energy per Si atom -5573.065681 kJ/mol
# Density = 2.022859 g / cm^3
# Si number density = 20.274741 Si / 1000 Ang^3
#
#
#
# Elastic Constant Matrix: (Units=GPa)
#
#
# Indices 1 2 3 4 5 6 
#
# 1 116.7341 20.9882 71.3022 0.0000 5.1038 0.0000
# 2 20.9882 18.3933 14.1735 0.0000 4.2540 0.0000
# 3 71.3022 14.1735 139.6660 0.0001 -7.8632 -0.0001
# 4 0.0000 0.0000 0.0001 10.7040 -0.0001 2.3851
# 5 5.1038 4.2540 -7.8632 -0.0001 48.5970 0.0001
# 6 0.0000 0.0000 -0.0001 2.3851 0.0001 19.9211
#
#
#
# Elastic Compliance Matrix: (Units=1/GPa)
#
#
# Indices 1 2 3 4 5 6 
#
# 1 0.014569 -0.011350 -0.006374 0.000000 -0.001568 0.000000
# 2 -0.011350 0.069725 -0.001572 0.000000 -0.005166 0.000000
# 3 -0.006374 -0.001572 0.010717 0.000000 0.002541 0.000000
# 4 0.000000 0.000000 0.000000 0.095983 0.000000 -0.011492
# 5 -0.001568 -0.005166 0.002541 0.000000 0.021605 0.000000
# 6 0.000000 0.000000 0.000000 -0.011492 0.000000 0.051574
#
#
# Mechanical properties :
#
#
# Convention : Reuss Voigt Hill
#
# Bulk Modulus (GPa) = 17.72489 54.19123 35.95806
# Shear Modulus (GPa) = 15.54860 27.06641 21.30751
#
# Velocity S-wave (km/s) = 2.77229 3.65770 3.24534
# Velocity P-wave (km/s) = 4.35991 6.68018 5.64064
#
# Compressibility (1/GPa) = 0.05641783
#
# Stress axis : x y z
#
# Youngs Moduli (GPa) = 68.63803 14.34207 93.31176
#
# Poissons Ratio (x) = 0.16278 0.59480
# Poissons Ratio (y) = 0.77904 0.14671
# Poissons Ratio (z) = 0.43752 0.02255
#
# Static dielectric constant tensor:
#      x y z
#    x 1.760700 0.000000 -0.002170 
#    y 0.000000 1.754110 0.000000 
#    z -0.002170 0.000000 1.740310 
# 
# From -- ./inp_files/52137.got.cif
#   From: 2010.05.17/outbox.cif.g08.bks.cpg/sg15_27_cif.got.tgz:52137.got - 2010.06.03 18:47:42.
