data_PCOD9271593
_publ_section_title
;
Structure prediction by ZEFSAII (Michael W. Deem and Ramdas Pophale) SiO2 
 PCOD9271593
Probable space group: C 2/C
;
_chemical_formula_sum "Si O2"
_cell_formula_units_Z 56
_cell_length_a 31.918854
_cell_length_b 9.379712
_cell_length_c 11.835678
_cell_angle_alpha 90.000000
_cell_angle_beta 51.760451
_cell_angle_gamma 90.000000
_cell_volume 2783.154617
_symmetry_space_group_name_H-M "C 2/C"
_symmetry_group_IT_number 15
_symmetry_cell_setting 'monoclinic'
loop_
_space_group_symop_operation_xyz
x,y,z
-x,y,1/2-z
-x,-y,-z
x,-y,1/2+z
1/2+x,1/2+y,z
1/2-x,1/2+y,1/2-z
1/2-x,1/2-y,-z
1/2+x,1/2-y,1/2+z
loop_
_atom_site_type_symbol
_atom_site_label
_atom_site_fract_x
_atom_site_fract_y
_atom_site_fract_z
Si Si1 0.446969 0.252182 0.970224
Si Si2 0.159917 0.143452 0.900291
Si Si3 0.000000 0.001362 0.250000
Si Si4 0.668980 0.324206 0.904728
Si Si5 0.775969 0.337736 0.859416
Si Si6 0.000000 0.502885 0.250000
Si Si7 0.731917 0.151572 0.631173
Si Si8 0.073897 0.752345 0.225248
O O1 0.482424 0.390237 0.878990
O O2 0.474876 0.105418 0.884779
O O3 0.395095 0.279967 0.976159
O O4 0.431867 0.252532 0.128608
O O5 0.178199 0.240102 0.765702
O O6 0.212009 0.142855 0.892925
O O7 0.147981 0.977206 0.896625
O O8 0.044091 0.892928 0.225941
O O9 0.729267 0.352187 0.845363
O O10 0.681795 0.213958 0.784164
O O11 0.632098 0.264837 0.067538
O O12 0.787445 0.497162 0.877023
O O13 0.750000 0.250000 0.000000
O O14 0.044157 0.610282 0.228663
O O15 0.750000 0.250000 0.500000
#
# Coordination Sequence:
#
# PCOD9271593 Si02
#       8
#     8   8   4   8   8   4   8   8
#     4  11  22  43  66  91 126 167 205 262 318 367
#     4  10  21  39  60  88 123 158 215 247 304 378
#     4  10  22  42  66  96 118 156 218 262 304 384
#     4  10  21  39  60  88 124 157 213 254 298 381
#     4  10  20  36  60  87 120 162 200 248 312 370
#     4  10  26  42  62  94 130 158 220 258 312 388
#     4  10  22  39  60  92 129 164 202 259 308 365
#     4  11  22  42  66  91 126 166 204 263 320 366
#
# _framework density 20.121053
#
# number of rings (size 3 to 8) (size 9 to 14) (size 15 to 20)
#    0.000    1.714    1.429    2.571    2.000    2.286 
#    2.571    1.429    0.000    0.000    0.000    0.000 
#    0.000    0.000    0.000    0.000    0.000    0.000 
#
# Total GULP energy -155871.389376 kJ/mol
# GULP energy per Si atom -5566.835335 kJ/mol
# Density = 2.007526 g / cm^3
# Si number density = 20.121053 Si / 1000 Ang^3
#
#
#
# Elastic Constant Matrix: (Units=GPa)
#
#
# Indices 1 2 3 4 5 6 
#
# 1 37.5405 21.6171 12.2541 0.0000 -8.3667 0.0000
# 2 21.6171 175.0774 73.6004 0.0000 4.9201 0.0000
# 3 12.2541 73.6004 122.1634 0.0000 -0.8964 0.0000
# 4 0.0000 0.0000 0.0000 31.2805 0.0000 -3.9253
# 5 -8.3667 4.9201 -0.8964 0.0000 28.5524 0.0000
# 6 0.0000 0.0000 0.0000 -3.9253 0.0000 22.3286
#
#
#
# Elastic Compliance Matrix: (Units=1/GPa)
#
#
# Indices 1 2 3 4 5 6 
#
# 1 0.031267 -0.003813 -0.000767 0.000000 0.009795 0.000000
# 2 -0.003813 0.008176 -0.004563 0.000000 -0.002670 0.000000
# 3 -0.000767 -0.004563 0.011018 0.000000 0.000907 0.000000
# 4 0.000000 0.000000 0.000000 0.032690 0.000000 0.005747
# 5 0.009795 -0.002670 0.000907 0.000000 0.038382 0.000000
# 6 0.000000 0.000000 0.000000 0.005747 0.000000 0.045796
#
#
# Mechanical properties :
#
#
# Convention : Reuss Voigt Hill
#
# Bulk Modulus (GPa) = 31.08014 61.08048 46.08031
# Shear Modulus (GPa) = 25.46593 31.58627 28.52610
#
# Velocity S-wave (km/s) = 3.56144 3.96638 3.76935
# Velocity P-wave (km/s) = 5.69139 7.16929 6.47266
#
# Compressibility (1/GPa) = 0.03217489
#
# Stress axis : x y z
#
# Youngs Moduli (GPa) = 31.98236 122.31280 90.75811
#
# Poissons Ratio (x) = 0.46643 0.06961
# Poissons Ratio (y) = 0.12196 0.41411
# Poissons Ratio (z) = 0.02453 0.55808
#
# Static dielectric constant tensor:
#      x y z
#    x 1.631960 0.000000 0.034430 
#    y 0.000000 1.741310 0.000000 
#    z 0.034430 0.000000 1.680880 
# 
# From -- ./inp_files/125861.got.cif
#   From: 2010.05.17/outbox.cif.g08.bks.cpg/sg15_63_cif.got.tgz:125861.got - 2010.06.03 18:47:42.
