data_PCOD9271831
_publ_section_title
;
Structure prediction by ZEFSAII (Michael W. Deem and Ramdas Pophale) SiO2 
 PCOD9271831
Probable space group: C 2/C
;
_chemical_formula_sum "Si O2"
_cell_formula_units_Z 44
_cell_length_a 20.862564
_cell_length_b 13.224038
_cell_length_c 15.068391
_cell_angle_alpha 90.000000
_cell_angle_beta 149.976541
_cell_angle_gamma 90.000000
_cell_volume 2080.063038
_symmetry_space_group_name_H-M "C 2/C"
_symmetry_group_IT_number 15
_symmetry_cell_setting 'monoclinic'
loop_
_space_group_symop_operation_xyz
x,y,z
-x,y,1/2-z
-x,-y,-z
x,-y,1/2+z
1/2+x,1/2+y,z
1/2-x,1/2+y,1/2-z
1/2-x,1/2-y,-z
1/2+x,1/2-y,1/2+z
loop_
_atom_site_type_symbol
_atom_site_label
_atom_site_fract_x
_atom_site_fract_y
_atom_site_fract_z
Si Si1 0.601043 0.255780 0.792577
Si Si2 0.000000 0.646141 0.250000
Si Si3 0.209984 0.576170 0.629425
Si Si4 0.535836 0.886562 0.068651
Si Si5 0.574932 0.275325 0.181994
Si Si6 0.398817 0.407538 0.874233
O O1 0.500000 0.277103 0.750000
O O2 0.561189 0.149976 0.697928
O O3 0.588474 0.340676 0.699692
O O4 0.750000 0.250000 0.000000
O O5 0.920161 0.720094 0.218615
O O6 0.088201 0.579925 0.419345
O O7 0.168123 0.626817 0.671704
O O8 0.314931 0.645786 0.707496
O O9 0.263988 0.464677 0.711833
O O10 0.431981 0.812117 0.900298
O O11 0.500000 0.000000 0.000000
O O12 0.440803 0.336166 0.006157
O O13 0.500000 0.500000 0.000000
#
# Coordination Sequence:
#
# PCOD9271831 Si02
#       6
#     8   4   8   8   8   8
#     4  11  27  45  69 102 140 176 226 287 341 397
#     4  10  20  36  62 100 124 162 208 280 322 374
#     4  10  21  39  65  92 130 167 219 269 333 397
#     4  10  24  40  66  92 127 178 220 272 337 399
#     4   9  20  40  63  90 129 165 214 262 332 389
#     4   9  21  43  67  88 130 178 217 264 327 413
#
# _framework density 21.153206000000001
#
# number of rings (size 3 to 8) (size 9 to 14) (size 15 to 20)
#    0.000    2.182    0.000    0.545   10.182    5.818 
#    8.182    0.000    0.000    0.000    0.000    0.000 
#    0.000    0.000    0.000    0.000    0.000    0.000 
#
# Total GULP energy -122726.123221 kJ/mol
# GULP energy per Si atom -5578.460146 kJ/mol
# Density = 2.110506 g / cm^3
# Si number density = 21.153206 Si / 1000 Ang^3
#
#
#
# Elastic Constant Matrix: (Units=GPa)
#
#
# Indices 1 2 3 4 5 6 
#
# 1 73.3260 -6.5591 24.4777 0.0000 1.2587 0.0000
# 2 -6.5591 94.1183 28.0809 0.0000 1.1641 0.0000
# 3 24.4777 28.0809 67.5842 0.0000 -1.5902 0.0000
# 4 0.0000 0.0000 0.0000 44.8428 0.0000 4.9702
# 5 1.2587 1.1641 -1.5902 0.0000 27.8184 0.0000
# 6 0.0000 0.0000 0.0000 4.9702 0.0000 31.6245
#
#
#
# Elastic Compliance Matrix: (Units=1/GPa)
#
#
# Indices 1 2 3 4 5 6 
#
# 1 0.016423 0.003361 -0.007375 0.000000 -0.001305 0.000000
# 2 0.003361 0.012834 -0.006575 0.000000 -0.001065 0.000000
# 3 -0.007375 -0.006575 0.020241 0.000000 0.001766 0.000000
# 4 0.000000 0.000000 0.000000 0.022695 0.000000 -0.003567
# 5 -0.001305 -0.001065 0.001766 0.000000 0.036152 0.000000
# 6 0.000000 0.000000 0.000000 -0.003567 0.000000 0.032182
#
#
# Mechanical properties :
#
#
# Convention : Reuss Voigt Hill
#
# Bulk Modulus (GPa) = 35.31111 36.33639 35.82375
# Shear Modulus (GPa) = 29.21506 33.45910 31.33708
#
# Velocity S-wave (km/s) = 3.72037 3.98144 3.85312
# Velocity P-wave (km/s) = 5.93162 6.19280 6.06362
#
# Compressibility (1/GPa) = 0.02831970
#
# Stress axis : x y z
#
# Youngs Moduli (GPa) = 60.89096 77.91813 49.40493
#
# Poissons Ratio (x) = -0.26189 0.36437
# Poissons Ratio (y) = -0.20466 0.32483
# Poissons Ratio (z) = 0.44909 0.51230
#
# Static dielectric constant tensor:
#      x y z
#    x 1.772760 0.000000 0.060130 
#    y 0.000000 1.784380 0.000000 
#    z 0.060130 0.000000 1.808370 
# 
# From -- ./inp_files/168531.got.cif
#   From: 2010.05.17/outbox.cif.g08.bks.cpg/sg15_85_cif.got.tgz:168531.got - 2010.06.03 18:47:42.
