data_PCOD9271059
_publ_section_title
;
Structure prediction by ZEFSAII (Michael W. Deem and Ramdas Pophale) SiO2 
 PCOD9271059
Probable space group: C 2/C
;
_chemical_formula_sum "Si O2"
_cell_formula_units_Z 56
_cell_length_a 23.079510
_cell_length_b 27.709928
_cell_length_c 5.287119
_cell_angle_alpha 90.000000
_cell_angle_beta 61.200058
_cell_angle_gamma 90.000000
_cell_volume 2963.039430
_symmetry_space_group_name_H-M "C 2/C"
_symmetry_group_IT_number 15
_symmetry_cell_setting 'monoclinic'
loop_
_space_group_symop_operation_xyz
x,y,z
-x,y,1/2-z
-x,-y,-z
x,-y,1/2+z
1/2+x,1/2+y,z
1/2-x,1/2+y,1/2-z
1/2-x,1/2-y,-z
1/2+x,1/2-y,1/2+z
loop_
_atom_site_type_symbol
_atom_site_label
_atom_site_fract_x
_atom_site_fract_y
_atom_site_fract_z
Si Si1 0.583233 0.028697 0.771155
Si Si2 0.932390 0.234633 0.784442
Si Si3 0.740139 0.968347 0.987285
Si Si4 0.292730 0.300558 0.407933
Si Si5 0.247367 0.857540 0.505220
Si Si6 0.500000 0.103697 0.250000
Si Si7 0.000000 0.306626 0.250000
Si Si8 0.103383 0.668682 0.909029
O O1 0.535333 0.069683 0.973202
O O2 0.573263 0.986667 0.002927
O O3 0.660783 0.040488 0.641616
O O4 0.870634 0.206279 0.802910
O O5 0.000000 0.210074 0.750000
O O6 0.963180 0.270245 0.514795
O O7 0.898252 0.273724 0.044282
O O8 0.770020 0.914458 0.946946
O O9 0.755814 0.001533 0.198979
O O10 0.250000 0.250000 0.500000
O O11 0.286327 0.327478 0.151949
O O12 0.265113 0.332955 0.696777
O O13 0.324601 0.851119 0.277237
O O14 0.439094 0.138464 0.296930
O O15 0.056420 0.336612 0.267540
#
# Coordination Sequence:
#
# PCOD9271059 Si02
#       8
#     8   8   8   8   8   4   4   8
#     4  10  22  37  51  74 106 147 197 258 311 335
#     4  10  22  39  57  85 124 164 202 246 302 360
#     4  10  21  41  61  83 115 158 206 265 319 362
#     4  12  25  40  64  93 129 168 207 256 305 371
#     4  12  25  41  63  90 124 163 217 256 313 368
#     4  12  20  36  49  78 106 150 214 249 290 344
#     4  10  20  36  57  76 120 164 202 247 296 354
#     4  11  22  36  52  84 113 166 210 258 297 356
#
# _framework density 18.899512000000001
#
# number of rings (size 3 to 8) (size 9 to 14) (size 15 to 20)
#    0.000    1.143    5.000    2.571    4.000    1.143 
#    2.571    0.000    0.000    0.000    0.000    0.000 
#    0.000   11.429    0.000    0.000    0.000    0.000 
#
# Total GULP energy -156127.719313 kJ/mol
# GULP energy per Si atom -5575.989975 kJ/mol
# Density = 1.885650 g / cm^3
# Si number density = 18.899512 Si / 1000 Ang^3
#
#
#
# Elastic Constant Matrix: (Units=GPa)
#
#
# Indices 1 2 3 4 5 6 
#
# 1 89.1255 32.2123 8.3630 0.0000 1.4458 0.0000
# 2 32.2123 96.3870 19.1083 0.0000 11.3905 0.0000
# 3 8.3630 19.1083 47.1941 0.0000 18.5102 0.0000
# 4 0.0000 0.0000 0.0000 22.0915 0.0000 3.0537
# 5 1.4458 11.3905 18.5102 0.0000 35.5674 0.0000
# 6 0.0000 0.0000 0.0000 3.0537 0.0000 19.9379
#
#
#
# Elastic Compliance Matrix: (Units=1/GPa)
#
#
# Indices 1 2 3 4 5 6 
#
# 1 0.012832 -0.004235 -0.001114 0.000000 0.001414 0.000000
# 2 -0.004235 0.012746 -0.003615 0.000000 -0.002029 0.000000
# 3 -0.001114 -0.003615 0.028118 0.000000 -0.013430 0.000000
# 4 0.000000 0.000000 0.000000 0.046245 0.000000 -0.007083
# 5 0.001414 -0.002029 -0.013430 0.000000 0.035697 0.000000
# 6 0.000000 0.000000 0.000000 -0.007083 0.000000 0.051240
#
#
# Mechanical properties :
#
#
# Convention : Reuss Voigt Hill
#
# Bulk Modulus (GPa) = 27.95711 39.11931 33.53821
# Shear Modulus (GPa) = 23.07023 27.05425 25.06224
#
# Velocity S-wave (km/s) = 3.49761 3.78759 3.64549
# Velocity P-wave (km/s) = 5.57993 6.31438 5.95848
#
# Compressibility (1/GPa) = 0.03576908
#
# Stress axis : x y z
#
# Youngs Moduli (GPa) = 77.92833 78.45310 35.56497
#
# Poissons Ratio (x) = 0.33223 0.03962
# Poissons Ratio (y) = 0.33001 0.12856
# Poissons Ratio (z) = 0.08682 0.28359
#
# Static dielectric constant tensor:
#      x y z
#    x 1.689280 0.000000 0.046550 
#    y 0.000000 1.727560 0.000000 
#    z 0.046550 0.000000 1.735030 
# 
# From -- ./inp_files/16121.got.cif
#   From: 2010.05.17/outbox.cif.g08.bks.cpg/sg15_9_cif.got.tgz:16121.got - 2010.06.03 18:47:42.
