data_PCOD9271223
_publ_section_title
;
Structure prediction by ZEFSAII (Michael W. Deem and Ramdas Pophale) SiO2 
 PCOD9271223
Probable space group: C 2/C
;
_chemical_formula_sum "Si O2"
_cell_formula_units_Z 56
_cell_length_a 16.280050
_cell_length_b 32.305280
_cell_length_c 8.189050
_cell_angle_alpha 90.000000
_cell_angle_beta 38.241659
_cell_angle_gamma 90.000000
_cell_volume 2665.870908
_symmetry_space_group_name_H-M "C 2/C"
_symmetry_group_IT_number 15
_symmetry_cell_setting 'monoclinic'
loop_
_space_group_symop_operation_xyz
x,y,z
-x,y,1/2-z
-x,-y,-z
x,-y,1/2+z
1/2+x,1/2+y,z
1/2-x,1/2+y,1/2-z
1/2-x,1/2-y,-z
1/2+x,1/2-y,1/2+z
loop_
_atom_site_type_symbol
_atom_site_label
_atom_site_fract_x
_atom_site_fract_y
_atom_site_fract_z
Si Si1 0.139677 0.136220 0.254539
Si Si2 0.420346 0.273069 0.547872
Si Si3 0.860180 0.441929 0.020039
Si Si4 0.370424 0.557331 0.059413
Si Si5 0.328249 0.368845 0.176047
Si Si6 0.199819 0.224972 0.735264
Si Si7 0.754291 0.512257 0.973651
O O1 0.144059 0.182300 0.317597
O O2 0.193677 0.101436 0.293448
O O3 0.982788 0.126126 0.476972
O O4 0.192446 0.134208 0.987584
O O5 0.500000 0.274274 0.250000
O O6 0.300188 0.240381 0.719882
O O7 0.540445 0.266951 0.491166
O O8 0.748854 0.409020 0.143825
O O9 0.844561 0.485630 0.953025
O O10 0.835918 0.453680 0.246184
O O11 0.000000 0.423856 0.750000
O O12 0.368015 0.534305 0.240716
O O13 0.500000 0.565685 0.750000
O O14 0.297316 0.522971 0.066625
O O15 0.285531 0.324275 0.311122
O O16 0.250000 0.250000 0.500000
#
# Coordination Sequence:
#
# PCOD9271223 Si02
#       7
#     8   8   8   8   8   8   8
#     4  10  20  36  58  83 121 147 190 241 307 357
#     4   9  18  34  57  84 113 156 193 241 294 366
#     4  11  22  40  60  80 114 160 203 243 296 355
#     4  11  20  35  57  86 120 152 189 249 305 360
#     4  10  21  37  57  86 114 154 190 244 297 362
#     4   9  19  35  57  83 117 150 201 243 299 358
#     4  10  23  37  55  86 115 151 204 247 298 357
#
# _framework density 21.006270000000001
#
# number of rings (size 3 to 8) (size 9 to 14) (size 15 to 20)
#    0.000    2.000    1.429    2.143    0.000    5.714 
#    0.000    0.000    0.000    1.714    0.000    0.000 
#    0.000    0.000    0.000    0.000    0.000    0.000 
#
# Total GULP energy -156038.426122 kJ/mol
# GULP energy per Si atom -5572.800933 kJ/mol
# Density = 2.095846 g / cm^3
# Si number density = 21.006270 Si / 1000 Ang^3
#
#
#
# Elastic Constant Matrix: (Units=GPa)
#
#
# Indices 1 2 3 4 5 6 
#
# 1 36.2243 22.0347 18.0210 0.0000 2.9737 0.0000
# 2 22.0347 108.4417 32.1791 0.0000 -6.2376 0.0000
# 3 18.0210 32.1791 64.5763 0.0000 18.6051 0.0000
# 4 0.0000 0.0000 0.0000 30.2406 0.0000 2.1963
# 5 2.9737 -6.2376 18.6051 0.0000 20.0179 0.0000
# 6 0.0000 0.0000 0.0000 2.1963 0.0000 37.4853
#
#
#
# Elastic Compliance Matrix: (Units=1/GPa)
#
#
# Indices 1 2 3 4 5 6 
#
# 1 0.034070 -0.004800 -0.007138 0.000000 0.000077 0.000000
# 2 -0.004800 0.013835 -0.009562 0.000000 0.013912 0.000000
# 3 -0.007138 -0.009562 0.031132 0.000000 -0.030854 0.000000
# 4 0.000000 0.000000 0.000000 0.033209 0.000000 -0.001946
# 5 0.000077 0.013912 -0.030854 0.000000 0.082955 0.000000
# 6 0.000000 0.000000 0.000000 -0.001946 0.000000 0.026791
#
#
# Mechanical properties :
#
#
# Convention : Reuss Voigt Hill
#
# Bulk Modulus (GPa) = 27.75045 39.30132 33.52588
# Shear Modulus (GPa) = 18.05013 26.68261 22.36637
#
# Velocity S-wave (km/s) = 2.93452 3.56788 3.26659
# Velocity P-wave (km/s) = 4.97203 5.97687 5.49746
#
# Compressibility (1/GPa) = 0.03603546
#
# Stress axis : x y z
#
# Youngs Moduli (GPa) = 29.35092 72.28195 32.12129
#
# Poissons Ratio (x) = 0.34697 0.22929
# Poissons Ratio (y) = 0.14089 0.30716
# Poissons Ratio (z) = 0.20951 0.69119
#
# Static dielectric constant tensor:
#      x y z
#    x 1.853270 0.000000 0.037500 
#    y 0.000000 1.729270 0.000000 
#    z 0.037500 0.000000 1.785480 
# 
# From -- ./inp_files/52627.got.cif
#   From: 2010.05.17/outbox.cif.g08.bks.cpg/sg15_27_cif.got.tgz:52627.got - 2010.06.03 18:47:42.
