data_PCOD9271975
_publ_section_title
;
Structure prediction by ZEFSAII (Michael W. Deem and Ramdas Pophale) SiO2 
 PCOD9271975
Probable space group: C 2/C
;
_chemical_formula_sum "Si O2"
_cell_formula_units_Z 40
_cell_length_a 10.789892
_cell_length_b 29.415110
_cell_length_c 10.968768
_cell_angle_alpha 90.000000
_cell_angle_beta 29.688014
_cell_angle_gamma 90.000000
_cell_volume 1724.223408
_symmetry_space_group_name_H-M "C 2/C"
_symmetry_group_IT_number 15
_symmetry_cell_setting 'monoclinic'
loop_
_space_group_symop_operation_xyz
x,y,z
-x,y,1/2-z
-x,-y,-z
x,-y,1/2+z
1/2+x,1/2+y,z
1/2-x,1/2+y,1/2-z
1/2-x,1/2-y,-z
1/2+x,1/2-y,1/2+z
loop_
_atom_site_type_symbol
_atom_site_label
_atom_site_fract_x
_atom_site_fract_y
_atom_site_fract_z
Si Si1 0.000000 0.618215 0.750000
Si Si2 0.766148 0.063269 0.313690
Si Si3 0.352247 0.906024 0.982443
Si Si4 0.500000 0.482559 0.250000
Si Si5 0.095768 0.776124 0.805355
Si Si6 0.904362 0.139178 0.584364
O O1 0.179761 0.586838 0.514110
O O2 0.160967 0.647558 0.707111
O O3 0.524072 0.068511 0.435525
O O4 0.881728 0.014773 0.248477
O O5 0.974352 0.093198 0.069834
O O6 0.500000 0.880801 0.750000
O O7 0.182755 0.871847 0.205458
O O8 0.211932 0.946810 0.031729
O O9 0.371818 0.754925 0.553083
O O10 0.000000 0.787970 0.750000
O O11 0.094587 0.820808 0.890634
#
# Coordination Sequence:
#
# PCOD9271975 Si02
#       6
#     4   8   8   4   8   8
#     4  10  20  36  62  95 124 178 211 272 340 426
#     4  11  23  41  67  93 131 177 223 286 345 413
#     4  11  27  42  65  91 132 187 232 287 333 409
#     4  12  24  44  62 101 130 170 241 288 346 398
#     4  10  23  39  69 108 144 176 221 290 356 432
#     4  11  23  42  65  95 137 178 223 274 356 416
#
# _framework density 23.19885
#
# number of rings (size 3 to 8) (size 9 to 14) (size 15 to 20)
#    0.000    1.200    2.000    3.000   11.200    3.200 
#    0.000    0.000    0.000    1.200    0.000    0.000 
#    0.000    0.000    0.000    0.000    0.000    0.000 
#
# Total GULP energy -111829.463486 kJ/mol
# GULP energy per Si atom -5591.473174 kJ/mol
# Density = 2.314605 g / cm^3
# Si number density = 23.198850 Si / 1000 Ang^3
#
#
#
# Elastic Constant Matrix: (Units=GPa)
#
#
# Indices 1 2 3 4 5 6 
#
# 1 81.4009 24.8679 31.6015 0.0000 9.6260 0.0000
# 2 24.8679 76.4581 49.4994 0.0000 24.3982 0.0000
# 3 31.6015 49.4994 164.3359 0.0000 46.7686 0.0000
# 4 0.0000 0.0000 0.0000 21.5299 0.0000 -3.8293
# 5 9.6260 24.3982 46.7686 0.0000 48.0199 0.0000
# 6 0.0000 0.0000 0.0000 -3.8293 0.0000 -4.8538
#
#
#
# Elastic Compliance Matrix: (Units=1/GPa)
#
#
# Indices 1 2 3 4 5 6 
#
# 1 0.014009 -0.003632 -0.001834 0.000000 0.000824 0.000000
# 2 -0.003632 0.018040 -0.003229 0.000000 -0.005293 0.000000
# 3 -0.001834 -0.003229 0.009461 0.000000 -0.007206 0.000000
# 4 0.000000 0.000000 0.000000 0.040732 0.000000 -0.032134
# 5 0.000824 -0.005293 -0.007206 0.000000 0.030367 0.000000
# 6 0.000000 0.000000 0.000000 -0.032134 0.000000 -0.180674
#
#
# Mechanical properties :
#
#
# Convention : Reuss Voigt Hill
#
# Bulk Modulus (GPa) = 41.45947 59.34805 50.40376
# Shear Modulus (GPa) = -117.27626 27.35430 -44.96098
#
# Velocity S-wave (km/s) = -7.11775 3.43756 -4.40713
# Velocity P-wave (km/s) = 7.04554 6.43379 2.03052
#
# Compressibility (1/GPa) = 0.02411994
#
# Stress axis : x y z
#
# Youngs Moduli (GPa) = 71.38209 55.43328 105.69286
#
# Poissons Ratio (x) = 0.20131 0.19389
# Poissons Ratio (y) = 0.25923 0.34129
# Poissons Ratio (z) = 0.13095 0.17900
#
# Static dielectric constant tensor:
#      x y z
#    x 1.928000 0.000000 -0.086640 
#    y 0.000000 1.841410 0.000000 
#    z -0.086640 0.000000 1.935420 
# 
# From -- ./inp_files/92515.got.cif
#   From: 2010.05.17/outbox.cif.g08.bks.cpg/sg15_47_cif.got.tgz:92515.got - 2010.06.03 18:47:42.
