data_PCOD9271760
_publ_section_title
;
Structure prediction by ZEFSAII (Michael W. Deem and Ramdas Pophale) SiO2 
 PCOD9271760
Probable space group: C 2/C
;
_chemical_formula_sum "Si O2"
_cell_formula_units_Z 56
_cell_length_a 23.691267
_cell_length_b 9.674757
_cell_length_c 15.014048
_cell_angle_alpha 90.000000
_cell_angle_beta 54.668568
_cell_angle_gamma 90.000000
_cell_volume 2807.506338
_symmetry_space_group_name_H-M "C 2/C"
_symmetry_group_IT_number 15
_symmetry_cell_setting 'monoclinic'
loop_
_space_group_symop_operation_xyz
x,y,z
-x,y,1/2-z
-x,-y,-z
x,-y,1/2+z
1/2+x,1/2+y,z
1/2-x,1/2+y,1/2-z
1/2-x,1/2-y,-z
1/2+x,1/2-y,1/2+z
loop_
_atom_site_type_symbol
_atom_site_label
_atom_site_fract_x
_atom_site_fract_y
_atom_site_fract_z
Si Si1 0.278429 0.462657 0.707010
Si Si2 0.889928 0.207979 0.224257
Si Si3 0.814169 0.647081 0.946194
Si Si4 0.337671 0.231071 0.123341
Si Si5 0.780293 0.892737 0.499949
Si Si6 0.526275 0.639005 0.022826
Si Si7 0.428920 0.490879 0.337470
O O1 0.332590 0.379711 0.721347
O O2 0.292420 0.629152 0.688671
O O3 0.203112 0.402318 0.802348
O O4 0.288157 0.413570 0.597620
O O5 0.856898 0.328560 0.315729
O O6 0.958535 0.233055 0.103048
O O7 0.921127 0.106876 0.270028
O O8 0.775630 0.501987 0.984807
O O9 0.750000 0.750000 0.000000
O O10 0.847524 0.691402 0.009432
O O11 0.414399 0.276724 0.083009
O O12 0.750000 0.750000 0.500000
O O13 0.857974 0.909667 0.394457
O O14 0.562882 0.571358 0.076801
O O15 0.500000 0.500000 0.000000
O O16 0.500000 0.412397 0.250000
#
# Coordination Sequence:
#
# PCOD9271760 Si02
#       7
#     8   8   8   8   8   8   8
#     4  12  23  37  60  96 128 162 216 265 328 375
#     4  11  20  35  68  91 124 163 214 270 311 379
#     4  12  20  42  64  89 127 166 218 261 320 391
#     4  12  24  39  64  96 129 169 213 270 323 387
#     4  12  25  40  62  95 128 170 218 269 328 387
#     4  11  20  37  62  99 126 159 222 265 313 385
#     4  10  20  36  61  89 120 164 211 258 313 377
#
# _framework density 19.946525999999999
#
# number of rings (size 3 to 8) (size 9 to 14) (size 15 to 20)
#    0.000    0.571    8.571    0.000    4.000    0.000 
#    0.000    0.000    3.143    3.429    0.000    0.000 
#    0.000    0.000    0.000    0.000    0.000    0.000 
#
# Total GULP energy -155995.092062 kJ/mol
# GULP energy per Si atom -5571.253288 kJ/mol
# Density = 1.990113 g / cm^3
# Si number density = 19.946526 Si / 1000 Ang^3
#
#
#
# Elastic Constant Matrix: (Units=GPa)
#
#
# Indices 1 2 3 4 5 6 
#
# 1 76.9445 34.6740 25.2199 0.0000 -22.0851 0.0000
# 2 34.6740 106.1939 36.6722 0.0000 -19.4123 0.0000
# 3 25.2199 36.6722 79.6423 0.0000 -37.8627 0.0000
# 4 0.0000 0.0000 0.0000 14.0401 0.0000 -9.4097
# 5 -22.0851 -19.4123 -37.8627 0.0000 50.3081 0.0000
# 6 0.0000 0.0000 0.0000 -9.4097 0.0000 19.7679
#
#
#
# Elastic Compliance Matrix: (Units=1/GPa)
#
#
# Indices 1 2 3 4 5 6 
#
# 1 0.016623 -0.004183 -0.000990 0.000000 0.004938 0.000000
# 2 -0.004183 0.012265 -0.004587 0.000000 -0.000556 0.000000
# 3 -0.000990 -0.004587 0.021697 0.000000 0.014125 0.000000
# 4 0.000000 0.000000 0.000000 0.104591 0.000000 0.049786
# 5 0.004938 -0.000556 0.014125 0.000000 0.032461 0.000000
# 6 0.000000 0.000000 0.000000 0.049786 0.000000 0.074286
#
#
# Mechanical properties :
#
#
# Convention : Reuss Voigt Hill
#
# Bulk Modulus (GPa) = 32.19143 50.65699 41.42421
# Shear Modulus (GPa) = 17.13502 27.90420 22.51961
#
# Velocity S-wave (km/s) = 2.93413 3.74431 3.36370
# Velocity P-wave (km/s) = 5.25859 6.64415 5.99155
#
# Compressibility (1/GPa) = 0.03106416
#
# Stress axis : x y z
#
# Youngs Moduli (GPa) = 60.15610 81.53214 46.08923
#
# Poissons Ratio (x) = 0.34106 0.04564
# Poissons Ratio (y) = 0.25164 0.21143
# Poissons Ratio (z) = 0.05956 0.37402
#
# Static dielectric constant tensor:
#      x y z
#    x 1.636720 0.000000 -0.221530 
#    y 0.000000 1.686320 0.000000 
#    z -0.221530 0.000000 1.330580 
# 
# From -- ./inp_files/172277.got.cif
#   From: 2010.05.17/outbox.cif.g08.bks.cpg/sg15_87_cif.got.tgz:172277.got - 2010.06.03 18:47:42.
