data_PCOD9271219
_publ_section_title
;
Structure prediction by ZEFSAII (Michael W. Deem and Ramdas Pophale) SiO2 
 PCOD9271219
Probable space group: C 2/C
;
_chemical_formula_sum "Si O2"
_cell_formula_units_Z 48
_cell_length_a 19.619342
_cell_length_b 13.326471
_cell_length_c 8.436211
_cell_angle_alpha 90.000000
_cell_angle_beta 68.539450
_cell_angle_gamma 90.000000
_cell_volume 2052.780920
_symmetry_space_group_name_H-M "C 2/C"
_symmetry_group_IT_number 15
_symmetry_cell_setting 'monoclinic'
loop_
_space_group_symop_operation_xyz
x,y,z
-x,y,1/2-z
-x,-y,-z
x,-y,1/2+z
1/2+x,1/2+y,z
1/2-x,1/2+y,1/2-z
1/2-x,1/2-y,-z
1/2+x,1/2-y,1/2+z
loop_
_atom_site_type_symbol
_atom_site_label
_atom_site_fract_x
_atom_site_fract_y
_atom_site_fract_z
Si Si1 0.701503 0.488329 0.109364
Si Si2 0.082580 0.289424 0.619163
Si Si3 0.153444 0.618162 0.524016
Si Si4 0.582302 0.965881 0.393583
Si Si5 0.200256 0.217760 0.781509
Si Si6 0.653515 0.353867 0.858135
O O1 0.712854 0.399394 0.231014
O O2 0.644957 0.572014 0.218731
O O3 0.772511 0.555789 0.013014
O O4 0.676589 0.429495 0.977547
O O5 0.104846 0.393148 0.518170
O O6 0.142686 0.251918 0.693897
O O7 0.084525 0.208683 0.474731
O O8 0.000000 0.298379 0.750000
O O9 0.125741 0.568431 0.383317
O O10 0.099788 0.590687 0.714863
O O11 0.166953 0.735011 0.472746
O O12 0.500000 0.000000 0.500000
O O13 0.278300 0.275367 0.708255
#
# Coordination Sequence:
#
# PCOD9271219 Si02
#       6
#     8   8   8   8   8   8
#     4  10  20  36  58  83 112 145 189 236 280 328
#     4  11  22  39  59  81 112 151 188 227 283 343
#     4  11  21  35  56  83 112 146 184 230 280 332
#     4  12  23  35  54  83 116 147 182 226 280 342
#     4  10  21  38  59  83 114 150 188 233 280 332
#     4  10  21  37  59  83 112 149 188 234 282 331
#
# _framework density 23.382914
#
# number of rings (size 3 to 8) (size 9 to 14) (size 15 to 20)
#    0.000    1.333    0.000    9.500    0.000    1.333 
#    0.000    7.500    0.000    2.000    0.000    0.000 
#    0.000    0.000    0.000    0.000    0.000    0.000 
#
# Total GULP energy -134073.238705 kJ/mol
# GULP energy per Si atom -5586.384946 kJ/mol
# Density = 2.332969 g / cm^3
# Si number density = 23.382914 Si / 1000 Ang^3
#
#
#
# Elastic Constant Matrix: (Units=GPa)
#
#
# Indices 1 2 3 4 5 6 
#
# 1 23.2191 1.7136 8.4775 0.0000 6.0113 0.0000
# 2 1.7136 124.9729 44.5992 0.0000 -4.3115 0.0000
# 3 8.4775 44.5992 111.1535 0.0000 -16.3635 0.0000
# 4 0.0000 0.0000 0.0000 55.2542 0.0000 2.0600
# 5 6.0113 -4.3115 -16.3635 0.0000 28.5619 0.0000
# 6 0.0000 0.0000 0.0000 2.0600 0.0000 22.3188
#
#
#
# Elastic Compliance Matrix: (Units=1/GPa)
#
#
# Indices 1 2 3 4 5 6 
#
# 1 0.048763 0.001056 -0.006149 0.000000 -0.013626 0.000000
# 2 0.001056 0.009379 -0.004006 0.000000 -0.001101 0.000000
# 3 -0.006149 -0.004006 0.012204 0.000000 0.007681 0.000000
# 4 0.000000 0.000000 0.000000 0.018161 0.000000 -0.001676
# 5 -0.013626 -0.001101 0.007681 0.000000 0.042114 0.000000
# 6 0.000000 0.000000 0.000000 -0.001676 0.000000 0.044960
#
#
# Mechanical properties :
#
#
# Convention : Reuss Voigt Hill
#
# Bulk Modulus (GPa) = 19.17637 40.99180 30.08408
# Shear Modulus (GPa) = 23.67874 34.86399 29.27137
#
# Velocity S-wave (km/s) = 3.18567 3.86554 3.54196
# Velocity P-wave (km/s) = 4.66371 6.12306 5.44252
#
# Compressibility (1/GPa) = 0.05214752
#
# Stress axis : x y z
#
# Youngs Moduli (GPa) = 20.50742 106.62332 81.94344
#
# Poissons Ratio (x) = -0.11254 0.50384
# Poissons Ratio (y) = -0.02165 0.32825
# Poissons Ratio (z) = 0.12609 0.42711
#
# Static dielectric constant tensor:
#      x y z
#    x 2.048860 0.000000 0.225990 
#    y 0.000000 1.901470 0.000000 
#    z 0.225990 0.000000 2.184930 
# 
# From -- ./inp_files/55234.got.cif
#   From: 2010.05.17/outbox.cif.g08.bks.cpg/sg15_28_cif.got.tgz:55234.got - 2010.06.03 18:47:42.
