data_PCOD9271103
_publ_section_title
;
Structure prediction by ZEFSAII (Michael W. Deem and Ramdas Pophale) SiO2 
 PCOD9271103
Probable space group: C 2/C
;
_chemical_formula_sum "Si O2"
_cell_formula_units_Z 48
_cell_length_a 18.713674
_cell_length_b 17.343280
_cell_length_c 13.687641
_cell_angle_alpha 90.000000
_cell_angle_beta 33.845777
_cell_angle_gamma 90.000000
_cell_volume 2474.243333
_symmetry_space_group_name_H-M "C 2/C"
_symmetry_group_IT_number 15
_symmetry_cell_setting 'monoclinic'
loop_
_space_group_symop_operation_xyz
x,y,z
-x,y,1/2-z
-x,-y,-z
x,-y,1/2+z
1/2+x,1/2+y,z
1/2-x,1/2+y,1/2-z
1/2-x,1/2-y,-z
1/2+x,1/2-y,1/2+z
loop_
_atom_site_type_symbol
_atom_site_label
_atom_site_fract_x
_atom_site_fract_y
_atom_site_fract_z
Si Si1 0.550959 0.888755 0.441890
Si Si2 0.170162 0.778555 0.184212
Si Si3 0.893141 0.769670 0.574070
Si Si4 0.778338 0.440432 0.069238
Si Si5 0.124587 0.052543 0.369648
Si Si6 0.671054 0.032776 0.210173
O O1 0.585225 0.801626 0.376816
O O2 0.621249 0.910361 0.464420
O O3 0.405020 0.906501 0.635245
O O4 0.603172 0.951020 0.306525
O O5 0.175544 0.871352 0.181213
O O6 0.019791 0.758325 0.360939
O O7 0.250000 0.750000 0.000000
O O8 0.258799 0.746100 0.171699
O O9 0.897136 0.855931 0.610881
O O10 0.720217 0.518887 0.178326
O O11 0.831849 0.448210 0.899913
O O12 0.187960 0.033814 0.403262
O O13 0.000000 0.000000 0.500000
#
# Coordination Sequence:
#
# PCOD9271103 Si02
#       6
#     8   8   8   8   8   8
#     4   9  20  36  58  86 113 146 186 236 286 340
#     4  11  21  33  55  85 113 142 186 238 291 342
#     4  11  21  36  55  80 116 150 186 235 285 336
#     4  10  20  36  57  84 113 147 186 235 283 346
#     4  11  22  37  54  80 115 156 188 229 285 337
#     4  10  20  37  58  84 114 149 189 232 290 338
#
# _framework density 19.39987
#
# number of rings (size 3 to 8) (size 9 to 14) (size 15 to 20)
#    0.000    1.667    1.667    4.000    0.000    3.333 
#    0.000    0.833    0.000    0.000   13.000    0.000 
#    0.000    0.000    0.000    0.000    0.000    0.000 
#
# Total GULP energy -133858.831248 kJ/mol
# GULP energy per Si atom -5577.451302 kJ/mol
# Density = 1.935571 g / cm^3
# Si number density = 19.399870 Si / 1000 Ang^3
#
#
#
# Elastic Constant Matrix: (Units=GPa)
#
#
# Indices 1 2 3 4 5 6 
#
# 1 34.8939 10.8936 14.2544 -0.0001 -5.5869 0.0000
# 2 10.8936 172.6035 34.2117 0.0000 5.8222 0.0000
# 3 14.2544 34.2117 53.5762 -0.0001 -12.7069 0.0000
# 4 -0.0001 0.0000 -0.0001 25.8229 0.0001 -6.0347
# 5 -5.5869 5.8222 -12.7069 0.0001 20.4473 0.0000
# 6 0.0000 0.0000 0.0000 -6.0347 0.0000 21.7516
#
#
#
# Elastic Compliance Matrix: (Units=1/GPa)
#
#
# Indices 1 2 3 4 5 6 
#
# 1 0.032540 -0.000828 -0.006995 0.000000 0.004780 0.000000
# 2 -0.000828 0.007184 -0.005754 0.000000 -0.005847 0.000000
# 3 -0.006995 -0.005754 0.028308 0.000000 0.017319 0.000000
# 4 0.000000 0.000000 0.000000 0.041410 0.000000 0.011489
# 5 0.004780 -0.005847 0.017319 0.000000 0.062640 0.000000
# 6 0.000000 0.000000 0.000000 0.011489 0.000000 0.049161
#
#
# Mechanical properties :
#
#
# Convention : Reuss Voigt Hill
#
# Bulk Modulus (GPa) = 24.46350 42.19922 33.33136
# Shear Modulus (GPa) = 19.08242 27.05196 23.06719
#
# Velocity S-wave (km/s) = 3.13970 3.73827 3.45198
# Velocity P-wave (km/s) = 5.07751 6.35865 5.75385
#
# Compressibility (1/GPa) = 0.04087722
#
# Stress axis : x y z
#
# Youngs Moduli (GPa) = 30.73170 139.20654 35.32622
#
# Poissons Ratio (x) = 0.11533 0.24710
# Poissons Ratio (y) = 0.02546 0.20325
# Poissons Ratio (z) = 0.21496 0.80093
#
# Static dielectric constant tensor:
#      x y z
#    x 1.689870 0.000000 -0.049910 
#    y 0.000000 1.734560 0.000000 
#    z -0.049910 0.000000 1.702440 
# 
# From -- ./inp_files/113403.got.cif
#   From: 2010.05.17/outbox.cif.g08.bks.cpg/sg15_57_cif.got.tgz:113403.got - 2010.06.03 18:47:42.
