data_PCOD9271060
_publ_section_title
;
Structure prediction by ZEFSAII (Michael W. Deem and Ramdas Pophale) SiO2 
 PCOD9271060
Probable space group: C 2/C
;
_chemical_formula_sum "Si O2"
_cell_formula_units_Z 48
_cell_length_a 13.106979
_cell_length_b 25.984037
_cell_length_c 8.941346
_cell_angle_alpha 90.000000
_cell_angle_beta 116.238287
_cell_angle_gamma 90.000000
_cell_volume 2731.408943
_symmetry_space_group_name_H-M "C 2/C"
_symmetry_group_IT_number 15
_symmetry_cell_setting 'monoclinic'
loop_
_space_group_symop_operation_xyz
x,y,z
-x,y,1/2-z
-x,-y,-z
x,-y,1/2+z
1/2+x,1/2+y,z
1/2-x,1/2+y,1/2-z
1/2-x,1/2-y,-z
1/2+x,1/2-y,1/2+z
loop_
_atom_site_type_symbol
_atom_site_label
_atom_site_fract_x
_atom_site_fract_y
_atom_site_fract_z
Si Si1 0.865784 0.566070 0.680885
Si Si2 0.120685 0.771408 0.741614
Si Si3 0.592852 0.543800 0.021864
Si Si4 0.247608 0.005137 0.862718
Si Si5 0.004664 0.840972 0.429993
Si Si6 0.757903 0.825734 0.413127
O O1 0.821990 0.543953 0.811472
O O2 0.822047 0.526091 0.528575
O O3 0.806380 0.620650 0.617766
O O4 0.000000 0.570808 0.750000
O O5 0.088619 0.801161 0.569058
O O6 0.179983 0.715808 0.776097
O O7 0.000000 0.766596 0.750000
O O8 0.206881 0.804494 0.900524
O O9 0.687846 0.534461 0.209978
O O10 0.500000 0.500000 0.000000
O O11 0.650290 0.533352 0.897823
O O12 0.542311 0.600749 0.992750
O O13 0.000000 0.833877 0.250000
O O14 0.877754 0.832979 0.408681
#
# Coordination Sequence:
#
# PCOD9271060 Si02
#       6
#     8   8   8   8   8   8
#     4  11  21  36  56  77 107 144 182 221 269 321
#     4   9  20  37  56  78 104 136 181 224 265 316
#     4  11  20  34  55  82 113 142 177 220 273 328
#     4  10  22  35  52  80 111 142 178 221 267 327
#     4  11  21  34  54  81 111 140 171 220 278 323
#     4  10  20  36  57  78 102 139 183 224 262 316
#
# _framework density 17.573346999999998
#
# number of rings (size 3 to 8) (size 9 to 14) (size 15 to 20)
#    0.000    1.667    0.000    6.500    0.000    3.333 
#    0.000    0.000    0.000    3.000    0.000    0.000 
#    0.000    0.000    0.000    0.000    0.000    0.000 
#
# Total GULP energy -134006.119469 kJ/mol
# GULP energy per Si atom -5583.588311 kJ/mol
# Density = 1.753335 g / cm^3
# Si number density = 17.573347 Si / 1000 Ang^3
#
#
#
# Elastic Constant Matrix: (Units=GPa)
#
#
# Indices 1 2 3 4 5 6 
#
# 1 89.4425 41.7787 31.7574 0.0000 4.5735 0.0000
# 2 41.7787 105.1195 26.3728 0.0000 13.7560 0.0000
# 3 31.7574 26.3728 61.3234 0.0000 3.3715 0.0000
# 4 0.0000 0.0000 0.0000 23.4552 0.0000 8.6280
# 5 4.5735 13.7560 3.3715 0.0000 28.8372 0.0000
# 6 0.0000 0.0000 0.0000 8.6280 0.0000 30.0737
#
#
#
# Elastic Compliance Matrix: (Units=1/GPa)
#
#
# Indices 1 2 3 4 5 6 
#
# 1 0.015495 -0.004711 -0.006025 0.000000 0.000494 0.000000
# 2 -0.004711 0.012733 -0.002761 0.000000 -0.005004 0.000000
# 3 -0.006025 -0.002761 0.020622 0.000000 -0.000138 0.000000
# 4 0.000000 0.000000 0.000000 0.047665 0.000000 -0.013675
# 5 0.000494 -0.005004 -0.000138 0.000000 0.037002 0.000000
# 6 0.000000 0.000000 0.000000 -0.013675 0.000000 0.037175
#
#
# Mechanical properties :
#
#
# Convention : Reuss Voigt Hill
#
# Bulk Modulus (GPa) = 45.75635 50.63369 48.19502
# Shear Modulus (GPa) = 24.39346 26.87164 25.63255
#
# Velocity S-wave (km/s) = 3.72976 3.91463 3.82331
# Velocity P-wave (km/s) = 6.68147 7.02195 6.85382
#
# Compressibility (1/GPa) = 0.02185489
#
# Stress axis : x y z
#
# Youngs Moduli (GPa) = 64.53609 78.53622 48.49103
#
# Poissons Ratio (x) = 0.37002 0.29218
# Poissons Ratio (y) = 0.30406 0.13388
# Poissons Ratio (z) = 0.38886 0.21683
#
# Static dielectric constant tensor:
#      x y z
#    x 1.591250 0.000000 0.001700 
#    y 0.000000 1.580940 0.000000 
#    z 0.001700 0.000000 1.604680 
# 
# From -- ./inp_files/32538.got.cif
#   From: 2010.05.17/outbox.cif.g08.bks.cpg/sg15_17_cif.got.tgz:32538.got - 2010.06.03 18:47:42.
