data_PCOD9271524
_publ_section_title
;
Structure prediction by ZEFSAII (Michael W. Deem and Ramdas Pophale) SiO2 
 PCOD9271524
Probable space group: C 2/C
;
_chemical_formula_sum "Si O2"
_cell_formula_units_Z 48
_cell_length_a 10.048148
_cell_length_b 23.532534
_cell_length_c 13.923074
_cell_angle_alpha 90.000000
_cell_angle_beta 41.453758
_cell_angle_gamma 90.000000
_cell_volume 2179.505259
_symmetry_space_group_name_H-M "C 2/C"
_symmetry_group_IT_number 15
_symmetry_cell_setting 'monoclinic'
loop_
_space_group_symop_operation_xyz
x,y,z
-x,y,1/2-z
-x,-y,-z
x,-y,1/2+z
1/2+x,1/2+y,z
1/2-x,1/2+y,1/2-z
1/2-x,1/2-y,-z
1/2+x,1/2-y,1/2+z
loop_
_atom_site_type_symbol
_atom_site_label
_atom_site_fract_x
_atom_site_fract_y
_atom_site_fract_z
Si Si1 0.018030 0.060670 0.435928
Si Si2 0.493686 0.828279 0.494730
Si Si3 0.064693 0.558602 0.366407
Si Si4 0.184071 0.826387 0.483571
Si Si5 0.810124 0.006315 0.891710
Si Si6 0.702061 0.748219 0.252634
O O1 0.888657 0.116316 0.531570
O O2 0.917712 0.045587 0.387358
O O3 0.252868 0.077502 0.300341
O O4 0.000000 0.000000 0.500000
O O5 0.517398 0.890630 0.523310
O O6 0.335909 0.834028 0.490664
O O7 0.679439 0.793233 0.351106
O O8 0.394486 0.791590 0.633932
O O9 0.184923 0.513590 0.367463
O O10 0.857449 0.530363 0.445005
O O11 0.285615 0.785655 0.350620
O O12 0.987330 0.794087 0.631318
O O13 0.000000 0.042628 0.750000
#
# Coordination Sequence:
#
# PCOD9271524 Si02
#       6
#     8   8   8   8   8   8
#     4  11  23  37  56  84 121 156 194 243 289 345
#     4  11  18  33  54  83 116 152 185 236 298 348
#     4  10  20  36  60  78 110 160 191 226 295 347
#     4  11  19  34  52  84 121 151 188 235 295 355
#     4   9  20  38  55  79 108 149 196 235 281 346
#     4  10  21  30  53  85 118 152 187 237 296 358
#
# _framework density 22.023346
#
# number of rings (size 3 to 8) (size 9 to 14) (size 15 to 20)
#    0.000    1.667    3.333    4.000    0.000    4.667 
#    3.000    0.000    0.000    0.000    0.000   12.833 
#    0.000    0.000    0.000    0.000    0.000    0.000 
#
# Total GULP energy -133631.976129 kJ/mol
# GULP energy per Si atom -5567.999005 kJ/mol
# Density = 2.197322 g / cm^3
# Si number density = 22.023346 Si / 1000 Ang^3
#
#
#
# Elastic Constant Matrix: (Units=GPa)
#
#
# Indices 1 2 3 4 5 6 
#
# 1 27.4080 11.9087 10.8890 0.0000 0.1732 0.0000
# 2 11.9087 97.0409 20.7618 0.0000 -0.9390 0.0000
# 3 10.8890 20.7618 99.9596 0.0000 -9.8813 0.0000
# 4 0.0000 0.0000 0.0000 27.9219 0.0000 11.6064
# 5 0.1732 -0.9390 -9.8813 0.0000 25.1177 0.0000
# 6 0.0000 0.0000 0.0000 11.6064 0.0000 23.5025
#
#
#
# Elastic Compliance Matrix: (Units=1/GPa)
#
#
# Indices 1 2 3 4 5 6 
#
# 1 0.039738 -0.004112 -0.003659 0.000000 -0.001867 0.000000
# 2 -0.004112 0.011216 -0.001912 0.000000 -0.000304 0.000000
# 3 -0.003659 -0.001912 0.011232 0.000000 0.004372 0.000000
# 4 0.000000 0.000000 0.000000 0.045065 0.000000 -0.022255
# 5 -0.001867 -0.000304 0.004372 0.000000 0.041534 0.000000
# 6 0.000000 0.000000 0.000000 -0.022255 0.000000 0.053539
#
#
# Mechanical properties :
#
#
# Convention : Reuss Voigt Hill
#
# Bulk Modulus (GPa) = 23.35366 34.61416 28.98391
# Shear Modulus (GPa) = 21.18985 27.36502 24.27744
#
# Velocity S-wave (km/s) = 3.10523 3.52880 3.32377
# Velocity P-wave (km/s) = 4.84599 5.68809 5.28384
#
# Compressibility (1/GPa) = 0.04281985
#
# Stress axis : x y z
#
# Youngs Moduli (GPa) = 25.16491 89.16175 89.03163
#
# Poissons Ratio (x) = 0.36661 0.32580
# Poissons Ratio (y) = 0.10347 0.17020
# Poissons Ratio (z) = 0.09209 0.17045
#
# Static dielectric constant tensor:
#      x y z
#    x 1.822400 0.000000 0.016440 
#    y 0.000000 1.827180 0.000000 
#    z 0.016440 0.000000 1.957700 
# 
# From -- ./inp_files/59159.got.cif
#   From: 2010.05.17/outbox.cif.g08.bks.cpg/sg15_30_cif.got.tgz:59159.got - 2010.06.03 18:47:42.
