data_PCOD9271864
_publ_section_title
;
Structure prediction by ZEFSAII (Michael W. Deem and Ramdas Pophale) SiO2 
 PCOD9271864
Probable space group: C 2/C
;
_chemical_formula_sum "Si O2"
_cell_formula_units_Z 44
_cell_length_a 10.013668
_cell_length_b 21.341340
_cell_length_c 10.299672
_cell_angle_alpha 90.000000
_cell_angle_beta 68.804473
_cell_angle_gamma 90.000000
_cell_volume 2052.192936
_symmetry_space_group_name_H-M "C 2/C"
_symmetry_group_IT_number 15
_symmetry_cell_setting 'monoclinic'
loop_
_space_group_symop_operation_xyz
x,y,z
-x,y,1/2-z
-x,-y,-z
x,-y,1/2+z
1/2+x,1/2+y,z
1/2-x,1/2+y,1/2-z
1/2-x,1/2-y,-z
1/2+x,1/2-y,1/2+z
loop_
_atom_site_type_symbol
_atom_site_label
_atom_site_fract_x
_atom_site_fract_y
_atom_site_fract_z
Si Si1 0.600312 0.823251 0.367713
Si Si2 0.197984 0.370667 0.053740
Si Si3 0.900690 0.500699 0.407457
Si Si4 0.012147 0.194516 0.023338
Si Si5 0.000000 0.735796 0.250000
Si Si6 0.269575 0.862283 0.923448
O O1 0.655494 0.852108 0.215665
O O2 0.449796 0.854084 0.468207
O O3 0.558073 0.751107 0.371885
O O4 0.717956 0.835713 0.434635
O O5 0.214870 0.445093 0.036749
O O6 0.337433 0.329988 0.975398
O O7 0.833893 0.568383 0.402791
O O8 0.000000 0.483768 0.250000
O O9 0.000000 0.500000 0.500000
O O10 0.023397 0.223183 0.872414
O O11 0.893840 0.140253 0.062744
O O12 0.865969 0.688277 0.313150
#
# Coordination Sequence:
#
# PCOD9271864 Si02
#       6
#     8   8   8   8   4   8
#     4  10  20  38  58  87 120 164 200 244 307 381
#     4  11  21  38  61  86 122 162 201 253 313 358
#     4  12  23  43  67  88 122 167 218 253 298 383
#     4  11  22  35  59  94 126 151 202 261 313 358
#     4  10  20  36  62  86 124 164 200 246 306 382
#     4  11  21  37  61  89 119 161 210 249 302 363
#
# _framework density 21.440477999999999
#
# number of rings (size 3 to 8) (size 9 to 14) (size 15 to 20)
#    0.000    1.091    4.545    4.909    0.000    0.727 
#    0.000    1.818    0.000    2.182    0.000    0.000 
#    0.000    0.000    0.000    0.000    0.000    0.000 
#
# Total GULP energy -122958.635141 kJ/mol
# GULP energy per Si atom -5589.028870 kJ/mol
# Density = 2.139168 g / cm^3
# Si number density = 21.440478 Si / 1000 Ang^3
#
#
#
# Elastic Constant Matrix: (Units=GPa)
#
#
# Indices 1 2 3 4 5 6 
#
# 1 80.8888 27.6590 -9.3434 0.0000 -9.0461 0.0000
# 2 27.6590 131.0156 -3.4977 0.0000 -8.9369 0.0000
# 3 -9.3434 -3.4977 53.8043 0.0000 13.1711 0.0000
# 4 0.0000 0.0000 0.0000 11.5512 0.0000 0.7912
# 5 -9.0461 -8.9369 13.1711 0.0000 17.8345 0.0000
# 6 0.0000 0.0000 0.0000 0.7912 0.0000 20.6742
#
#
#
# Elastic Compliance Matrix: (Units=1/GPa)
#
#
# Indices 1 2 3 4 5 6 
#
# 1 0.013920 -0.002569 0.001022 0.000000 0.005019 0.000000
# 2 -0.002569 0.008391 -0.000746 0.000000 0.003452 0.000000
# 3 0.001022 -0.000746 0.022802 0.000000 -0.016695 0.000000
# 4 0.000000 0.000000 0.000000 0.086799 0.000000 -0.003322
# 5 0.005019 0.003452 -0.016695 0.000000 0.072676 0.000000
# 6 0.000000 0.000000 0.000000 -0.003322 0.000000 0.048497
#
#
# Mechanical properties :
#
#
# Convention : Reuss Voigt Hill
#
# Bulk Modulus (GPa) = 24.67526 32.81605 28.74566
# Shear Modulus (GPa) = 18.43798 26.73803 22.58801
#
# Velocity S-wave (km/s) = 2.93569 3.53524 3.24932
# Velocity P-wave (km/s) = 4.79841 5.65710 5.24535
#
# Compressibility (1/GPa) = 0.04052642
#
# Stress axis : x y z
#
# Youngs Moduli (GPa) = 71.83682 119.18057 43.85650
#
# Poissons Ratio (x) = 0.30619 -0.04481
# Poissons Ratio (y) = 0.18456 0.03271
# Poissons Ratio (z) = -0.07340 0.08888
#
# Static dielectric constant tensor:
#      x y z
#    x 1.777870 0.000000 0.002030 
#    y 0.000000 1.797090 0.000000 
#    z 0.002030 0.000000 1.802300 
# 
# From -- ./inp_files/78222.got.cif
#   From: 2010.05.17/outbox.cif.g08.bks.cpg/sg15_40_cif.got.tgz:78222.got - 2010.06.03 18:47:42.
