data_PCOD9271466
_publ_section_title
;
Structure prediction by ZEFSAII (Michael W. Deem and Ramdas Pophale) SiO2 
 PCOD9271466
Probable space group: C 2/C
;
_chemical_formula_sum "Si O2"
_cell_formula_units_Z 40
_cell_length_a 14.472316
_cell_length_b 17.828243
_cell_length_c 8.709078
_cell_angle_alpha 90.000000
_cell_angle_beta 90.601110
_cell_angle_gamma 90.000000
_cell_volume 2246.957512
_symmetry_space_group_name_H-M "C 2/C"
_symmetry_group_IT_number 15
_symmetry_cell_setting 'monoclinic'
loop_
_space_group_symop_operation_xyz
x,y,z
-x,y,1/2-z
-x,-y,-z
x,-y,1/2+z
1/2+x,1/2+y,z
1/2-x,1/2+y,1/2-z
1/2-x,1/2-y,-z
1/2+x,1/2-y,1/2+z
loop_
_atom_site_type_symbol
_atom_site_label
_atom_site_fract_x
_atom_site_fract_y
_atom_site_fract_z
Si Si1 0.500000 0.284520 0.250000
Si Si2 0.515019 0.157050 0.002095
Si Si3 0.067505 0.961243 0.626731
Si Si4 0.133358 0.388572 0.241748
Si Si5 0.346131 0.595076 0.667992
Si Si6 0.500000 0.027449 0.250000
O O1 0.514591 0.229942 0.106338
O O2 0.587692 0.337540 0.278875
O O3 0.505075 0.082699 0.105759
O O4 0.427877 0.154236 0.886300
O O5 0.607298 0.149387 0.902697
O O6 0.135733 0.917226 0.514162
O O7 0.000000 0.920775 0.750000
O O8 0.120742 0.023346 0.729493
O O9 0.000000 0.000000 0.500000
O O10 0.239596 0.390706 0.201588
O O11 0.087867 0.471820 0.251703
#
# Coordination Sequence:
#
# PCOD9271466 Si02
#       6
#     4   8   8   8   8   4
#     4  11  22  42  54  76 125 164 190 226 283 344
#     4   9  21  39  57  81 119 157 187 233 288 349
#     4   9  18  38  54  86 113 148 191 231 291 328
#     4  10  20  36  59  89 110 142 202 240 289 327
#     4  11  22  35  63  87 117 148 190 248 280 345
#     4   9  18  36  60  84 115 146 186 248 297 324
#
# _framework density 17.801850000000002
#
# number of rings (size 3 to 8) (size 9 to 14) (size 15 to 20)
#    0.000    2.400    3.000    2.400    5.600    1.600 
#    3.600    0.000    0.000    0.000    0.000    0.000 
#    0.000    0.000    0.000    0.000    0.000    0.000 
#
# Total GULP energy -111456.700663 kJ/mol
# GULP energy per Si atom -5572.835033 kJ/mol
# Density = 1.776133 g / cm^3
# Si number density = 17.801850 Si / 1000 Ang^3
#
#
#
# Elastic Constant Matrix: (Units=GPa)
#
#
# Indices 1 2 3 4 5 6 
#
# 1 146.8640 51.8453 73.9868 0.0000 -49.4332 0.0000
# 2 51.8453 97.1929 54.1289 0.0000 -15.8144 0.0000
# 3 73.9868 54.1289 150.3129 0.0000 -27.8087 0.0000
# 4 0.0000 0.0000 0.0000 -6.1756 0.0000 1.2595
# 5 -49.4332 -15.8144 -27.8087 0.0000 27.3114 0.0000
# 6 0.0000 0.0000 0.0000 1.2595 0.0000 0.2337
#
#
#
# Elastic Compliance Matrix: (Units=1/GPa)
#
#
# Indices 1 2 3 4 5 6 
#
# 1 0.020199 -0.004202 -0.002606 0.000000 0.031472 0.000000
# 2 -0.004202 0.014000 -0.003549 0.000000 -0.003113 0.000000
# 3 -0.002606 -0.003549 0.009808 0.000000 0.003214 0.000000
# 4 0.000000 0.000000 0.000000 -0.077134 0.000000 0.415763
# 5 0.031472 -0.003113 0.003214 0.000000 0.095050 0.000000
# 6 0.000000 0.000000 0.000000 0.415763 0.000000 2.038595
#
#
# Mechanical properties :
#
#
# Convention : Reuss Voigt Hill
#
# Bulk Modulus (GPa) = 42.93258 83.81019 63.37138
# Shear Modulus (GPa) = 2.34852 18.56783 10.45817
#
# Velocity S-wave (km/s) = 1.14984 3.23310 2.42642
# Velocity P-wave (km/s) = 5.09236 7.81786 6.59739
#
# Compressibility (1/GPa) = 0.02329234
#
# Stress axis : x y z
#
# Youngs Moduli (GPa) = 49.50770 71.42611 101.95242
#
# Poissons Ratio (x) = 0.30014 0.26574
# Poissons Ratio (y) = 0.20803 0.36185
# Poissons Ratio (z) = 0.12904 0.25351
#
# Static dielectric constant tensor:
#      x y z
#    x 1.585990 0.000000 -0.010700 
#    y 0.000000 1.613030 0.000000 
#    z -0.010700 0.000000 1.655150 
# 
# From -- ./inp_files/38618.got.cif
#   From: 2010.05.17/outbox.cif.g08.bks.cpg/sg15_20_cif.got.tgz:38618.got - 2010.06.03 18:47:42.
