data_PCOD9271013
_publ_section_title
;
Structure prediction by ZEFSAII (Michael W. Deem and Ramdas Pophale) SiO2 
 PCOD9271013
Probable space group: C 2/C
;
_chemical_formula_sum "Si O2"
_cell_formula_units_Z 52
_cell_length_a 25.179984
_cell_length_b 21.907398
_cell_length_c 9.128403
_cell_angle_alpha 90.000000
_cell_angle_beta 152.623044
_cell_angle_gamma 90.000000
_cell_volume 2315.529535
_symmetry_space_group_name_H-M "C 2/C"
_symmetry_group_IT_number 15
_symmetry_cell_setting 'monoclinic'
loop_
_space_group_symop_operation_xyz
x,y,z
-x,y,1/2-z
-x,-y,-z
x,-y,1/2+z
1/2+x,1/2+y,z
1/2-x,1/2+y,1/2-z
1/2-x,1/2-y,-z
1/2+x,1/2-y,1/2+z
loop_
_atom_site_type_symbol
_atom_site_label
_atom_site_fract_x
_atom_site_fract_y
_atom_site_fract_z
Si Si1 0.000000 0.290731 0.250000
Si Si2 0.833656 0.173647 0.337588
Si Si3 0.760067 0.567126 0.880374
Si Si4 0.748466 0.179883 0.444650
Si Si5 0.768508 0.945162 0.541640
Si Si6 0.512246 0.911343 0.946498
Si Si7 0.577292 0.776324 0.140991
O O1 0.115414 0.329827 0.563283
O O2 0.028959 0.252703 0.176883
O O3 0.830682 0.172062 0.505621
O O4 0.910309 0.223824 0.445248
O O5 0.849595 0.107441 0.305676
O O6 0.705048 0.197095 0.979746
O O7 0.725066 0.632566 0.861391
O O8 0.702811 0.512496 0.831458
O O9 0.899360 0.563706 0.249107
O O10 0.739293 0.561254 0.654336
O O11 0.750000 0.250000 0.500000
O O12 0.641798 0.930250 0.303754
O O13 0.500000 0.932531 0.750000
O O14 0.504258 0.837195 0.926614
#
# Coordination Sequence:
#
# PCOD9271013 Si02
#       7
#     4   8   8   8   8   8   8
#     4  10  20  36  56  86 120 152 198 246 310 354
#     4   9  20  34  54  78 118 155 199 248 297 348
#     4  11  21  36  53  82 119 158 207 240 302 369
#     4  11  24  37  59  89 121 159 206 257 306 365
#     4  10  21  35  54  79 117 163 201 244 298 365
#     4   9  18  30  50  76 109 155 195 235 284 357
#     4   9  17  31  52  77 113 152 193 241 297 344
#
# _framework density 22.457063999999999
#
# number of rings (size 3 to 8) (size 9 to 14) (size 15 to 20)
#    0.000    2.154    1.538    1.385   10.769    0.000 
#    4.154    0.000    0.000    0.000    0.000    1.077 
#    2.308    0.000    0.000    0.000    0.000    0.000 
#
# Total GULP energy -145085.127471 kJ/mol
# GULP energy per Si atom -5580.197210 kJ/mol
# Density = 2.240595 g / cm^3
# Si number density = 22.457064 Si / 1000 Ang^3
#
#
#
# Elastic Constant Matrix: (Units=GPa)
#
#
# Indices 1 2 3 4 5 6 
#
# 1 138.2242 69.6834 21.9605 0.0000 -27.5654 0.0000
# 2 69.6834 174.2197 18.6241 0.0000 -25.0236 0.0000
# 3 21.9605 18.6241 38.7076 0.0000 -13.8121 0.0000
# 4 0.0000 0.0000 0.0000 17.3314 0.0000 -5.1061
# 5 -27.5654 -25.0236 -13.8121 0.0000 23.9270 0.0000
# 6 0.0000 0.0000 0.0000 -5.1061 0.0000 41.0961
#
#
#
# Elastic Compliance Matrix: (Units=1/GPa)
#
#
# Indices 1 2 3 4 5 6 
#
# 1 0.010592 -0.002875 -0.001693 0.000000 0.008218 0.000000
# 2 -0.002875 0.007561 -0.000462 0.000000 0.004328 0.000000
# 3 -0.001693 -0.000462 0.032933 0.000000 0.016576 0.000000
# 4 0.000000 0.000000 0.000000 0.059891 0.000000 0.007441
# 5 0.008218 0.004328 0.016576 0.000000 0.065357 0.000000
# 6 0.000000 0.000000 0.000000 0.007441 0.000000 0.025258
#
#
# Mechanical properties :
#
#
# Convention : Reuss Voigt Hill
#
# Bulk Modulus (GPa) = 24.37592 63.52083 43.94838
# Shear Modulus (GPa) = 22.18986 32.52981 27.35984
#
# Velocity S-wave (km/s) = 3.14682 3.81009 3.49423
# Velocity P-wave (km/s) = 4.90727 6.90670 5.99099
#
# Compressibility (1/GPa) = 0.04102410
#
# Stress axis : x y z
#
# Youngs Moduli (GPa) = 94.41054 132.25857 30.36487
#
# Poissons Ratio (x) = 0.38026 0.05142
# Poissons Ratio (y) = 0.27144 0.01404
# Poissons Ratio (z) = 0.15988 0.06115
#
# Static dielectric constant tensor:
#      x y z
#    x 1.837230 0.000000 0.013230 
#    y 0.000000 1.843230 0.000000 
#    z 0.013230 0.000000 1.886010 
# 
# From -- ./inp_files/63454.got.cif
#   From: 2010.05.17/outbox.cif.g08.bks.cpg/sg15_32_cif.got.tgz:63454.got - 2010.06.03 18:47:42.
