data_PCOD9271701
_publ_section_title
;
Structure prediction by ZEFSAII (Michael W. Deem and Ramdas Pophale) SiO2 
 PCOD9271701
Probable space group: C 2/C
;
_chemical_formula_sum "Si O2"
_cell_formula_units_Z 56
_cell_length_a 16.588766
_cell_length_b 7.236810
_cell_length_c 19.672679
_cell_angle_alpha 90.000000
_cell_angle_beta 108.651625
_cell_angle_gamma 90.000000
_cell_volume 2237.665157
_symmetry_space_group_name_H-M "C 2/C"
_symmetry_group_IT_number 15
_symmetry_cell_setting 'monoclinic'
loop_
_space_group_symop_operation_xyz
x,y,z
-x,y,1/2-z
-x,-y,-z
x,-y,1/2+z
1/2+x,1/2+y,z
1/2-x,1/2+y,1/2-z
1/2-x,1/2-y,-z
1/2+x,1/2-y,1/2+z
loop_
_atom_site_type_symbol
_atom_site_label
_atom_site_fract_x
_atom_site_fract_y
_atom_site_fract_z
Si Si1 0.102662 0.986541 0.516845
Si Si2 0.657892 0.536108 0.672734
Si Si3 0.685523 0.691131 0.315562
Si Si4 0.403331 0.975482 0.719842
Si Si5 0.066321 0.591737 0.128542
Si Si6 0.682910 0.106527 0.039537
Si Si7 0.127912 0.660008 0.420338
O O1 0.121218 0.846250 0.460921
O O2 0.142337 0.919271 0.600001
O O3 0.147135 0.186625 0.516088
O O4 0.000000 0.000000 0.500000
O O5 0.662187 0.434833 0.745482
O O6 0.743224 0.657071 0.687216
O O7 0.583834 0.690285 0.646889
O O8 0.605857 0.819557 0.312946
O O9 0.731687 0.603546 0.392643
O O10 0.500000 0.908223 0.750000
O O11 0.383860 0.994315 0.794225
O O12 0.354767 0.838405 0.655819
O O13 0.110105 0.531120 0.071006
O O14 0.966077 0.566373 0.099974
O O15 0.689125 0.981139 0.975338
#
# Coordination Sequence:
#
# PCOD9271701 Si02
#       7
#     8   8   8   8   8   8   8
#     4  10  20  36  60  96 118 150 215 261 300 363
#     4  10  21  36  66  91 118 158 214 269 298 361
#     4  10  21  40  57  92 123 159 215 251 309 379
#     4  10  23  40  60  87 130 169 200 249 328 380
#     4   9  19  39  59  91 115 161 211 258 309 359
#     4  10  22  37  64  90 119 164 212 263 300 359
#     4  11  21  39  61  90 129 161 197 261 316 362
#
# _framework density 25.026084000000001
#
# number of rings (size 3 to 8) (size 9 to 14) (size 15 to 20)
#    0.000    2.286    2.857    2.143    4.000    1.714 
#    2.571    3.571    0.000    0.000    0.000    0.000 
#    0.000    0.000    0.000    0.000    0.000    0.000 
#
# Total GULP energy -156471.722081 kJ/mol
# GULP energy per Si atom -5588.275789 kJ/mol
# Density = 2.496912 g / cm^3
# Si number density = 25.026084 Si / 1000 Ang^3
#
#
#
# Elastic Constant Matrix: (Units=GPa)
#
#
# Indices 1 2 3 4 5 6 
#
# 1 58.4756 11.4787 22.8844 0.0000 5.3598 0.0000
# 2 11.4787 70.1274 41.7960 0.0000 5.0273 0.0000
# 3 22.8844 41.7960 176.7422 0.0000 9.0868 0.0000
# 4 0.0000 0.0000 0.0000 52.4762 0.0000 -5.3175
# 5 5.3598 5.0273 9.0868 0.0000 27.8775 0.0000
# 6 0.0000 0.0000 0.0000 -5.3175 0.0000 29.9948
#
#
#
# Elastic Compliance Matrix: (Units=1/GPa)
#
#
# Indices 1 2 3 4 5 6 
#
# 1 0.018401 -0.001728 -0.001839 0.000000 -0.002627 0.000000
# 2 -0.001728 0.016845 -0.003682 0.000000 -0.001505 0.000000
# 3 -0.001839 -0.003682 0.006829 0.000000 -0.001208 0.000000
# 4 0.000000 0.000000 0.000000 0.019405 0.000000 0.003440
# 5 -0.002627 -0.001505 -0.001208 0.000000 0.037042 0.000000
# 6 0.000000 0.000000 0.000000 0.003440 0.000000 0.033949
#
#
# Mechanical properties :
#
#
# Convention : Reuss Voigt Hill
#
# Bulk Modulus (GPa) = 36.26217 50.85150 43.55683
# Shear Modulus (GPa) = 32.01833 37.34878 34.68355
#
# Velocity S-wave (km/s) = 3.58075 3.86734 3.72680
# Velocity P-wave (km/s) = 5.62289 6.34865 5.99676
#
# Compressibility (1/GPa) = 0.02757695
#
# Stress axis : x y z
#
# Youngs Moduli (GPa) = 54.34580 59.36405 146.43404
#
# Poissons Ratio (x) = 0.10256 0.26928
# Poissons Ratio (y) = 0.09389 0.53924
# Poissons Ratio (z) = 0.09994 0.21861
#
# Static dielectric constant tensor:
#      x y z
#    x 2.077170 0.000000 -0.017390 
#    y 0.000000 1.990230 0.000000 
#    z -0.017390 0.000000 2.038580 
# 
# From -- ./inp_files/251948.got.cif
#   From: 2010.05.17/outbox.cif.g08.bks.cpg/sg15_126_cif.got.tgz:251948.got - 2010.06.03 18:47:42.
