data_PCOD9271045
_publ_section_title
;
Structure prediction by ZEFSAII (Michael W. Deem and Ramdas Pophale) SiO2 
 PCOD9271045
Probable space group: C 2/C
;
_chemical_formula_sum "Si O2"
_cell_formula_units_Z 60
_cell_length_a 9.030945
_cell_length_b 25.605722
_cell_length_c 26.311992
_cell_angle_alpha 90.000000
_cell_angle_beta 145.882271
_cell_angle_gamma 90.000000
_cell_volume 3412.759393
_symmetry_space_group_name_H-M "C 2/C"
_symmetry_group_IT_number 15
_symmetry_cell_setting 'monoclinic'
loop_
_space_group_symop_operation_xyz
x,y,z
-x,y,1/2-z
-x,-y,-z
x,-y,1/2+z
1/2+x,1/2+y,z
1/2-x,1/2+y,1/2-z
1/2-x,1/2-y,-z
1/2+x,1/2-y,1/2+z
loop_
_atom_site_type_symbol
_atom_site_label
_atom_site_fract_x
_atom_site_fract_y
_atom_site_fract_z
Si Si1 0.000000 0.562175 0.250000
Si Si2 0.312493 0.582141 0.959049
Si Si3 0.220710 0.328002 0.355856
Si Si4 0.221521 0.388253 0.645932
Si Si5 0.464815 0.376888 0.611779
Si Si6 0.255926 0.769081 0.944329
Si Si7 0.124994 0.470146 0.895145
Si Si8 0.700892 0.192488 0.507637
O O1 0.246247 0.598484 0.305294
O O2 0.073123 0.528887 0.320034
O O3 0.192582 0.621478 0.883884
O O4 0.151365 0.528986 0.921868
O O5 0.354683 0.611935 0.024266
O O6 0.598195 0.561130 0.020730
O O7 0.219018 0.277369 0.393037
O O8 0.509344 0.332090 0.411203
O O9 0.000000 0.323706 0.250000
O O10 0.500000 0.372148 0.750000
O O11 0.288200 0.401544 0.606351
O O12 0.098817 0.436877 0.640713
O O13 0.003595 0.342149 0.583499
O O14 0.457578 0.315254 0.621494
O O15 0.537489 0.797107 0.012645
O O16 0.250000 0.750000 0.000000
O O17 0.750000 0.250000 0.500000
#
# Coordination Sequence:
#
# PCOD9271045 Si02
#       8
#     4   8   8   8   8   8   8   8
#     4  10  20  36  56  92 114 146 204 256 294 356
#     4  10  21  39  61  84 115 165 196 245 308 364
#     4  11  22  40  61  89 122 163 207 244 299 376
#     4  11  20  37  62  92 122 153 204 258 307 363
#     4  10  21  36  62  87 118 154 197 251 309 363
#     4  10  20  39  61  85 120 158 199 247 311 362
#     4  10  21  37  61  86 117 154 204 247 306 362
#     4   9  21  36  59  87 122 161 196 247 303 357
#
# _framework density 17.581081000000001
#
# number of rings (size 3 to 8) (size 9 to 14) (size 15 to 20)
#    0.000    1.867    4.000    0.000    0.933    5.333 
#    2.400    0.000    5.867    0.000    0.000    0.000 
#    0.000    0.000    0.000    0.000    0.000    0.000 
#
# Total GULP energy -167174.981313 kJ/mol
# GULP energy per Si atom -5572.499377 kJ/mol
# Density = 1.754107 g / cm^3
# Si number density = 17.581081 Si / 1000 Ang^3
#
#
#
# Elastic Constant Matrix: (Units=GPa)
#
#
# Indices 1 2 3 4 5 6 
#
# 1 72.6817 32.5212 34.8042 -0.0005 -4.7237 -0.0003
# 2 32.5212 91.3341 40.0223 -0.0002 -2.0707 0.0000
# 3 34.8042 40.0223 107.9097 0.0000 1.0364 -0.0002
# 4 -0.0005 -0.0002 0.0000 12.5574 -0.0002 1.5857
# 5 -4.7237 -2.0707 1.0364 -0.0002 26.8511 -0.0001
# 6 -0.0003 0.0000 -0.0002 1.5857 -0.0001 22.2636
#
#
#
# Elastic Compliance Matrix: (Units=1/GPa)
#
#
# Indices 1 2 3 4 5 6 
#
# 1 0.017955 -0.004508 -0.004147 0.000001 0.002971 0.000000
# 2 -0.004508 0.014244 -0.003833 0.000000 0.000453 0.000000
# 3 -0.004147 -0.003833 0.012041 0.000000 -0.001490 0.000000
# 4 0.000001 0.000000 0.000000 0.080357 0.000001 -0.005724
# 5 0.002971 0.000453 -0.001490 0.000001 0.037858 0.000000
# 6 0.000000 0.000000 0.000000 -0.005724 0.000000 0.045324
#
#
# Mechanical properties :
#
#
# Convention : Reuss Voigt Hill
#
# Bulk Modulus (GPa) = 51.91673 54.06897 52.99285
# Shear Modulus (GPa) = 20.90498 23.30627 22.10562
#
# Velocity S-wave (km/s) = 3.45202 3.64489 3.54976
# Velocity P-wave (km/s) = 6.74408 6.96667 6.85628
#
# Compressibility (1/GPa) = 0.01926161
#
# Stress axis : x y z
#
# Youngs Moduli (GPa) = 55.69465 70.20446 83.05178
#
# Poissons Ratio (x) = 0.31651 0.34445
# Poissons Ratio (y) = 0.25110 0.31835
# Poissons Ratio (z) = 0.23099 0.26911
#
# Static dielectric constant tensor:
#      x y z
#    x 1.609540 0.000000 0.009220 
#    y 0.000000 1.603600 0.000000 
#    z 0.009220 0.000000 1.603740 
# 
# From -- ./inp_files/290311.got.cif
#   From: 2010.05.17/outbox.cif.g08.bks.cpg/sg15_146_cif.got.tgz:290311.got - 2010.06.03 18:47:42.
