data_PCOD9271207
_publ_section_title
;
Structure prediction by ZEFSAII (Michael W. Deem and Ramdas Pophale) SiO2 
 PCOD9271207
Probable space group: C 2/C
;
_chemical_formula_sum "Si O2"
_cell_formula_units_Z 56
_cell_length_a 25.428005
_cell_length_b 8.683016
_cell_length_c 11.793001
_cell_angle_alpha 90.000000
_cell_angle_beta 81.446515
_cell_angle_gamma 90.000000
_cell_volume 2574.836756
_symmetry_space_group_name_H-M "C 2/C"
_symmetry_group_IT_number 15
_symmetry_cell_setting 'monoclinic'
loop_
_space_group_symop_operation_xyz
x,y,z
-x,y,1/2-z
-x,-y,-z
x,-y,1/2+z
1/2+x,1/2+y,z
1/2-x,1/2+y,1/2-z
1/2-x,1/2-y,-z
1/2+x,1/2-y,1/2+z
loop_
_atom_site_type_symbol
_atom_site_label
_atom_site_fract_x
_atom_site_fract_y
_atom_site_fract_z
Si Si1 0.672241 0.733276 0.792034
Si Si2 0.500000 0.087930 0.250000
Si Si3 0.811229 0.802920 0.474858
Si Si4 0.455090 0.157305 0.921151
Si Si5 0.500000 0.396453 0.750000
Si Si6 0.244817 0.906463 0.431990
Si Si7 0.556231 0.333226 0.356223
Si Si8 0.154566 0.499053 0.470925
O O1 0.668876 0.720301 0.658901
O O2 0.725661 0.644898 0.814234
O O3 0.618799 0.652813 0.856153
O O4 0.671521 0.901225 0.854339
O O5 0.548102 0.204807 0.259727
O O6 0.507362 0.975887 0.140632
O O7 0.750000 0.750000 0.500000
O O8 0.844524 0.685991 0.544010
O O9 0.802422 0.981397 0.509329
O O10 0.456375 0.286343 0.822407
O O11 0.470855 0.254066 0.026698
O O12 0.400259 0.072270 0.968884
O O13 0.471479 0.510123 0.670927
O O14 0.250000 0.750000 0.500000
O O15 0.302105 0.977310 0.442094
#
# Coordination Sequence:
#
# PCOD9271207 Si02
#       8
#     8   4   8   8   4   8   8   8
#     4  10  21  38  58  84 119 158 196 241 298 354
#     4  10  20  36  58  82 112 150 194 248 298 346
#     4  10  21  37  58  86 118 157 200 242 294 355
#     4  10  20  38  60  86 116 152 198 247 302 359
#     4  10  22  38  60  86 118 154 198 256 310 362
#     4   9  20  37  57  84 118 152 189 237 288 352
#     4  10  21  37  58  84 116 155 198 246 302 364
#     4   9  20  38  59  85 118 153 195 242 287 353
#
# _framework density 21.748953
#
# number of rings (size 3 to 8) (size 9 to 14) (size 15 to 20)
#    0.000    2.286    0.000    1.714    0.000   10.286 
#    0.000   10.000    0.000    0.000    0.000    0.000 
#    0.000    0.000    0.000    0.000    0.000    0.000 
#
# Total GULP energy -155917.435579 kJ/mol
# GULP energy per Si atom -5568.479842 kJ/mol
# Density = 2.169945 g / cm^3
# Si number density = 21.748953 Si / 1000 Ang^3
#
#
#
# Elastic Constant Matrix: (Units=GPa)
#
#
# Indices 1 2 3 4 5 6 
#
# 1 47.5867 28.9769 -6.2019 0.0000 1.5645 0.0000
# 2 28.9769 145.5474 32.6193 0.0000 -5.4202 0.0000
# 3 -6.2019 32.6193 60.1483 0.0000 -8.0196 0.0000
# 4 0.0000 0.0000 0.0000 25.4052 0.0000 9.9381
# 5 1.5645 -5.4202 -8.0196 0.0000 23.2900 0.0000
# 6 0.0000 0.0000 0.0000 9.9381 0.0000 29.1608
#
#
#
# Elastic Compliance Matrix: (Units=1/GPa)
#
#
# Indices 1 2 3 4 5 6 
#
# 1 0.025826 -0.006542 0.006054 0.000000 -0.001173 0.000000
# 2 -0.006542 0.009482 -0.005727 0.000000 0.000674 0.000000
# 3 0.006054 -0.005727 0.021092 0.000000 0.005523 0.000000
# 4 0.000000 0.000000 0.000000 0.045417 0.000000 -0.015478
# 5 -0.001173 0.000674 0.005523 0.000000 0.045074 0.000000
# 6 0.000000 0.000000 0.000000 -0.015478 0.000000 0.039568
#
#
# Mechanical properties :
#
#
# Convention : Reuss Voigt Hill
#
# Bulk Modulus (GPa) = 22.74258 40.45233 31.59746
# Shear Modulus (GPa) = 23.41444 28.76375 26.08909
#
# Velocity S-wave (km/s) = 3.28468 3.64061 3.46722
# Velocity P-wave (km/s) = 4.98649 6.02595 5.53070
#
# Compressibility (1/GPa) = 0.04397039
#
# Stress axis : x y z
#
# Youngs Moduli (GPa) = 38.72127 105.46709 47.41145
#
# Poissons Ratio (x) = 0.68998 -0.28705
# Poissons Ratio (y) = 0.25332 0.27151
# Poissons Ratio (z) = -0.23444 0.60398
#
# Static dielectric constant tensor:
#      x y z
#    x 1.822450 0.000000 0.025010 
#    y 0.000000 1.924260 0.000000 
#    z 0.025010 0.000000 1.837120 
# 
# From -- ./inp_files/121930.got.cif
#   From: 2010.05.17/outbox.cif.g08.bks.cpg/sg15_61_cif.got.tgz:121930.got - 2010.06.03 18:47:42.
