data_PCOD9271312
_publ_section_title
;
Structure prediction by ZEFSAII (Michael W. Deem and Ramdas Pophale) SiO2 
 PCOD9271312
Probable space group: C 2/C
;
_chemical_formula_sum "Si O2"
_cell_formula_units_Z 52
_cell_length_a 23.569901
_cell_length_b 21.413258
_cell_length_c 13.367025
_cell_angle_alpha 90.000000
_cell_angle_beta 21.145467
_cell_angle_gamma 90.000000
_cell_volume 2433.694185
_symmetry_space_group_name_H-M "C 2/C"
_symmetry_group_IT_number 15
_symmetry_cell_setting 'monoclinic'
loop_
_space_group_symop_operation_xyz
x,y,z
-x,y,1/2-z
-x,-y,-z
x,-y,1/2+z
1/2+x,1/2+y,z
1/2-x,1/2+y,1/2-z
1/2-x,1/2-y,-z
1/2+x,1/2-y,1/2+z
loop_
_atom_site_type_symbol
_atom_site_label
_atom_site_fract_x
_atom_site_fract_y
_atom_site_fract_z
Si Si1 0.500000 0.153568 0.250000
Si Si2 0.302194 0.590572 0.708432
Si Si3 0.936027 0.683146 0.134848
Si Si4 0.949701 0.189926 0.138611
Si Si5 0.578368 0.644215 0.727270
Si Si6 0.060816 0.001837 0.265931
Si Si7 0.796736 0.605375 0.856974
O O1 0.350571 0.108917 0.478874
O O2 0.505064 0.190489 0.135680
O O3 0.417729 0.649648 0.523748
O O4 0.404534 0.531246 0.574195
O O5 0.242245 0.590217 0.693981
O O6 0.748200 0.677538 0.451848
O O7 0.991537 0.739758 0.972668
O O8 0.019057 0.621910 0.949363
O O9 0.792476 0.167138 0.453190
O O10 0.959127 0.165384 0.009545
O O11 0.500000 0.655074 0.750000
O O12 0.600347 0.570321 0.707577
O O13 0.000000 0.010231 0.250000
O O14 0.207931 0.046433 0.052267
#
# Coordination Sequence:
#
# PCOD9271312 Si02
#       7
#     4   8   8   8   8   8   8
#     4  10  20  36  58  90 114 148 198 254 288 330
#     4   9  18  35  61  87 115 148 199 244 285 345
#     4  11  23  38  58  88 120 151 198 240 288 344
#     4  11  21  37  58  88 117 155 195 229 297 347
#     4  11  24  38  58  85 122 160 187 234 294 352
#     4   8  17  37  59  82 115 152 196 234 290 348
#     4   9  20  38  63  86 113 151 199 246 284 338
#
# _framework density 21.366695
#
# number of rings (size 3 to 8) (size 9 to 14) (size 15 to 20)
#    0.000    2.154    1.538    2.308    1.077    4.308 
#    0.000    2.308    0.000    0.000    0.000    0.000 
#    0.000    0.000    0.000    0.000    0.000    0.000 
#
# Total GULP energy -144788.077769 kJ/mol
# GULP energy per Si atom -5568.772222 kJ/mol
# Density = 2.131806 g / cm^3
# Si number density = 21.366695 Si / 1000 Ang^3
#
#
#
# Elastic Constant Matrix: (Units=GPa)
#
#
# Indices 1 2 3 4 5 6 
#
# 1 -23.4242 -28.8550 -29.0854 -0.0035 -26.6876 0.0092
# 2 -28.8550 73.6961 -10.5291 -0.0119 -16.8127 0.0144
# 3 -29.0854 -10.5291 56.7141 -0.0020 -11.8885 0.0057
# 4 -0.0035 -0.0119 -0.0020 9.6429 0.0010 19.6178
# 5 -26.6876 -16.8127 -11.8885 0.0010 16.2826 -0.0046
# 6 0.0092 0.0144 0.0057 19.6178 -0.0046 2.8122
#
#
#
# Elastic Compliance Matrix: (Units=1/GPa)
#
#
# Indices 1 2 3 4 5 6 
#
# 1 -0.003921 -0.006847 -0.007215 0.000006 -0.018763 -0.000007
# 2 -0.006847 0.010018 -0.002167 -0.000005 -0.002460 0.000007
# 3 -0.007215 -0.002167 0.012494 0.000000 -0.004941 -0.000001
# 4 0.000006 -0.000005 0.000000 -0.007861 0.000020 0.054838
# 5 -0.018763 -0.002460 -0.004941 0.000020 0.024514 -0.000017
# 6 -0.000007 0.000007 -0.000001 0.054838 -0.000017 -0.026955
#
#
# Mechanical properties :
#
#
# Convention : Reuss Voigt Hill
#
# Bulk Modulus (GPa) = -72.11761 -3.32812 -37.72286
# Shear Modulus (GPa) = 138.41166 17.44458 77.92812
#
# Velocity S-wave (km/s) = 8.05728 2.86044 6.04574
# Velocity P-wave (km/s) = 7.26183 3.05753 5.57147
#
# Compressibility (1/GPa) = -0.01386624
#
# Stress axis : x y z
#
# Youngs Moduli (GPa) = -255.05668 99.82359 80.03774
#
# Poissons Ratio (x) = 0.68345 0.57747
# Poissons Ratio (y) = -1.74626 0.17345
# Poissons Ratio (z) = -1.84024 0.21633
#
# Static dielectric constant tensor:
#      x y z
#    x 1.791220 -0.000010 0.052140 
#    y -0.000010 1.838880 0.000000 
#    z 0.052140 0.000000 1.848960 
# 
# From -- ./inp_files/178990.got.cif
#   From: 2010.05.17/outbox.cif.g08.bks.cpg/sg15_90_cif.got.tgz:178990.got - 2010.06.03 18:47:42.
