data_PCOD9271900
_publ_section_title
;
Structure prediction by ZEFSAII (Michael W. Deem and Ramdas Pophale) SiO2 
 PCOD9271900
Probable space group: C 2/C
;
_chemical_formula_sum "Si O2"
_cell_formula_units_Z 44
_cell_length_a 25.679865
_cell_length_b 10.796510
_cell_length_c 13.589558
_cell_angle_alpha 90.000000
_cell_angle_beta 33.089921
_cell_angle_gamma 90.000000
_cell_volume 2057.017466
_symmetry_space_group_name_H-M "C 2/C"
_symmetry_group_IT_number 15
_symmetry_cell_setting 'monoclinic'
loop_
_space_group_symop_operation_xyz
x,y,z
-x,y,1/2-z
-x,-y,-z
x,-y,1/2+z
1/2+x,1/2+y,z
1/2-x,1/2+y,1/2-z
1/2-x,1/2-y,-z
1/2+x,1/2-y,1/2+z
loop_
_atom_site_type_symbol
_atom_site_label
_atom_site_fract_x
_atom_site_fract_y
_atom_site_fract_z
Si Si1 0.209571 0.512815 0.711008
Si Si2 0.409773 0.856744 0.964490
Si Si3 0.275260 0.007873 0.544241
Si Si4 0.371528 0.583750 0.082547
Si Si5 0.000000 0.094137 0.250000
Si Si6 0.822479 0.242108 0.477275
O O1 0.213514 0.478988 0.590229
O O2 0.276633 0.420018 0.664305
O O3 0.263539 0.646465 0.637844
O O4 0.108226 0.540784 0.921506
O O5 0.500000 0.871383 0.750000
O O6 0.319869 0.878905 0.033174
O O7 0.411422 0.722406 0.013865
O O8 0.169000 0.970955 0.750385
O O9 0.335090 0.885493 0.481372
O O10 0.445918 0.492667 0.913290
O O11 0.924445 0.177892 0.310656
O O12 0.750000 0.250000 0.500000
#
# Coordination Sequence:
#
# PCOD9271900 Si02
#       6
#     8   8   8   8   4   8
#     4   9  20  39  59  81 116 160 204 241 302 369
#     4  11  22  36  58  86 119 155 196 258 309 351
#     4  10  21  38  61  81 119 165 197 247 308 364
#     4  10  20  38  60  86 117 157 205 247 304 366
#     4  10  20  36  62  90 120 156 206 254 302 366
#     4   9  18  36  61  87 115 157 201 249 293 366
#
# _framework density 21.390193
#
# number of rings (size 3 to 8) (size 9 to 14) (size 15 to 20)
#    0.000    2.182    2.727    0.000    1.273    1.455 
#    0.000   11.818    0.000    0.000    0.000    0.000 
#    0.000    0.000    0.000    0.000    0.000    0.000 
#
# Total GULP energy -122474.077834 kJ/mol
# GULP energy per Si atom -5567.003538 kJ/mol
# Density = 2.134151 g / cm^3
# Si number density = 21.390193 Si / 1000 Ang^3
#
#
#
# Elastic Constant Matrix: (Units=GPa)
#
#
# Indices 1 2 3 4 5 6 
#
# 1 76.5299 11.7778 42.6466 0.0000 16.4788 0.0000
# 2 11.7778 41.8165 14.7179 0.0000 -11.2021 0.0000
# 3 42.6466 14.7179 167.6969 0.0000 16.8477 0.0000
# 4 0.0000 0.0000 0.0000 15.6715 0.0000 -1.7423
# 5 16.4788 -11.2021 16.8477 0.0000 36.9719 0.0000
# 6 0.0000 0.0000 0.0000 -1.7423 0.0000 23.8130
#
#
#
# Elastic Compliance Matrix: (Units=1/GPa)
#
#
# Indices 1 2 3 4 5 6 
#
# 1 0.017488 -0.006038 -0.003092 0.000000 -0.008215 0.000000
# 2 -0.006038 0.029888 -0.002377 0.000000 0.012830 0.000000
# 3 -0.003092 -0.002377 0.007223 0.000000 -0.002633 0.000000
# 4 0.000000 0.000000 0.000000 0.064334 0.000000 0.004707
# 5 -0.008215 0.012830 -0.002633 0.000000 0.035796 0.000000
# 6 0.000000 0.000000 0.000000 0.004707 0.000000 0.042338
#
#
# Mechanical properties :
#
#
# Convention : Reuss Voigt Hill
#
# Bulk Modulus (GPa) = 31.66021 47.14754 39.40388
# Shear Modulus (GPa) = 21.68176 29.75134 25.71655
#
# Velocity S-wave (km/s) = 3.18721 3.73351 3.47112
# Velocity P-wave (km/s) = 5.32708 6.37769 5.87592
#
# Compressibility (1/GPa) = 0.03158539
#
# Stress axis : x y z
#
# Youngs Moduli (GPa) = 57.18203 33.45818 138.45433
#
# Poissons Ratio (x) = 0.20202 0.42811
# Poissons Ratio (y) = 0.34526 0.32905
# Poissons Ratio (z) = 0.17681 0.07952
#
# Static dielectric constant tensor:
#      x y z
#    x 1.796180 0.000000 0.032350 
#    y 0.000000 1.804430 0.000000 
#    z 0.032350 0.000000 1.865430 
# 
# From -- ./inp_files/151731.got.cif
#   From: 2010.05.17/outbox.cif.g08.bks.cpg/sg15_76_cif.got.tgz:151731.got - 2010.06.03 18:47:42.
