data_PCOD9271185
_publ_section_title
;
Structure prediction by ZEFSAII (Michael W. Deem and Ramdas Pophale) SiO2 
 PCOD9271185
Probable space group: C 2/C
;
_chemical_formula_sum "Si O2"
_cell_formula_units_Z 40
_cell_length_a 4.848635
_cell_length_b 13.361568
_cell_length_c 28.113746
_cell_angle_alpha 90.000000
_cell_angle_beta 68.728310
_cell_angle_gamma 90.000000
_cell_volume 1697.271208
_symmetry_space_group_name_H-M "C 2/C"
_symmetry_group_IT_number 15
_symmetry_cell_setting 'monoclinic'
loop_
_space_group_symop_operation_xyz
x,y,z
-x,y,1/2-z
-x,-y,-z
x,-y,1/2+z
1/2+x,1/2+y,z
1/2-x,1/2+y,1/2-z
1/2-x,1/2-y,-z
1/2+x,1/2-y,1/2+z
loop_
_atom_site_type_symbol
_atom_site_label
_atom_site_fract_x
_atom_site_fract_y
_atom_site_fract_z
Si Si1 0.781843 0.087812 0.451290
Si Si2 0.144746 0.882508 0.843716
Si Si3 0.500000 0.870501 0.250000
Si Si4 0.500000 0.751680 0.750000
Si Si5 0.154277 0.480192 0.337064
Si Si6 0.301117 0.054670 0.942933
O O1 0.749815 0.123061 0.507687
O O2 0.933511 0.152314 0.400225
O O3 0.472461 0.043799 0.452558
O O4 0.995122 0.988997 0.441994
O O5 0.252393 0.811480 0.794992
O O6 0.445630 0.922055 0.848363
O O7 0.972805 0.977211 0.830880
O O8 0.799999 0.806675 0.223772
O O9 0.606456 0.932177 0.289006
O O10 0.012075 0.410963 0.386972
#
# Coordination Sequence:
#
# PCOD9271185 Si02
#       6
#     8   8   4   4   8   8
#     4   8  14  26  48  78 104 126 165 225 276 312
#     4  10  20  36  58  80 104 141 189 228 265 327
#     4  12  25  38  53  78 116 152 184 230 283 326
#     4  12  25  38  53  78 116 152 184 230 283 326
#     4  10  20  36  58  80 104 141 189 228 265 327
#     4   8  14  26  48  78 104 126 165 225 276 312
#
# _framework density 23.567242
#
# number of rings (size 3 to 8) (size 9 to 14) (size 15 to 20)
#    0.000    2.400    0.000    3.000    0.000    1.600 
#    0.000    0.000    0.000    2.400    0.000    0.000 
#    0.000    0.000    0.000    0.000    0.000    0.400 
#
# Total GULP energy -111486.555994 kJ/mol
# GULP energy per Si atom -5574.327800 kJ/mol
# Density = 2.351360 g / cm^3
# Si number density = 23.567242 Si / 1000 Ang^3
#
#
#
# Elastic Constant Matrix: (Units=GPa)
#
#
# Indices 1 2 3 4 5 6 
#
# 1 116.0495 7.6782 8.4434 0.0000 5.5992 0.0000
# 2 7.6782 10.4580 6.2142 0.0000 4.4917 0.0000
# 3 8.4434 6.2142 154.3076 0.0000 20.4463 0.0000
# 4 0.0000 0.0000 0.0000 -10.4618 0.0000 -3.1800
# 5 5.5992 4.4917 20.4463 0.0000 41.9824 0.0000
# 6 0.0000 0.0000 0.0000 -3.1800 0.0000 15.1855
#
#
#
# Elastic Compliance Matrix: (Units=1/GPa)
#
#
# Indices 1 2 3 4 5 6 
#
# 1 0.009073 -0.006364 -0.000182 0.000000 -0.000441 0.000000
# 2 -0.006364 0.105831 -0.002700 0.000000 -0.009159 0.000000
# 3 -0.000182 -0.002700 0.007010 0.000000 -0.003101 0.000000
# 4 0.000000 0.000000 0.000000 -0.089866 0.000000 -0.018819
# 5 -0.000441 -0.009159 -0.003101 0.000000 0.026368 0.000000
# 6 0.000000 0.000000 0.000000 -0.018819 0.000000 0.061912
#
#
# Mechanical properties :
#
#
# Convention : Reuss Voigt Hill
#
# Bulk Modulus (GPa) = 9.66911 36.16519 22.91715
# Shear Modulus (GPa) = 28.85292 26.57317 27.71304
#
# Velocity S-wave (km/s) = 3.50277 3.36154 3.43288
# Velocity P-wave (km/s) = 4.52447 5.51774 5.04561
#
# Compressibility (1/GPa) = 0.10342217
#
# Stress axis : x y z
#
# Youngs Moduli (GPa) = 110.22266 9.44905 142.65065
#
# Poissons Ratio (x) = 0.06013 0.02593
# Poissons Ratio (y) = 0.70143 0.38517
# Poissons Ratio (z) = 0.02004 0.02551
#
# Static dielectric constant tensor:
#      x y z
#    x 1.817780 0.000000 -0.013140 
#    y 0.000000 1.924880 0.000000 
#    z -0.013140 0.000000 2.063570 
# 
# From -- ./inp_files/305050.got.cif
#   From: 2010.05.17/outbox.cif.g08.bks.cpg/sg15_153_cif.got.tgz:305050.got - 2010.06.03 18:47:42.
