data_PCOD9271552
_publ_section_title
;
Structure prediction by ZEFSAII (Michael W. Deem and Ramdas Pophale) SiO2 
 PCOD9271552
Probable space group: C 2/C
;
_chemical_formula_sum "Si O2"
_cell_formula_units_Z 60
_cell_length_a 22.546441
_cell_length_b 23.999561
_cell_length_c 5.034234
_cell_angle_alpha 90.000000
_cell_angle_beta 93.174814
_cell_angle_gamma 90.000000
_cell_volume 2719.866756
_symmetry_space_group_name_H-M "C 2/C"
_symmetry_group_IT_number 15
_symmetry_cell_setting 'monoclinic'
loop_
_space_group_symop_operation_xyz
x,y,z
-x,y,1/2-z
-x,-y,-z
x,-y,1/2+z
1/2+x,1/2+y,z
1/2-x,1/2+y,1/2-z
1/2-x,1/2-y,-z
1/2+x,1/2-y,1/2+z
loop_
_atom_site_type_symbol
_atom_site_label
_atom_site_fract_x
_atom_site_fract_y
_atom_site_fract_z
Si Si1 0.601444 0.536818 0.354571
Si Si2 0.072548 0.853052 0.589066
Si Si3 0.131852 0.813379 0.127459
Si Si4 0.319539 0.856614 0.861971
Si Si5 0.736325 0.805503 0.164794
Si Si6 0.000000 0.762725 0.750000
Si Si7 0.933230 0.700786 0.357279
Si Si8 0.758245 0.962584 0.633487
O O1 0.590896 0.513364 0.644099
O O2 0.564519 0.588364 0.230403
O O3 0.671794 0.553912 0.361925
O O4 0.101615 0.858977 0.310508
O O5 0.018471 0.809382 0.540806
O O6 0.114723 0.821898 0.817018
O O7 0.200751 0.820287 0.192684
O O8 0.106941 0.754322 0.238205
O O9 0.289353 0.844565 0.571150
O O10 0.390433 0.852023 0.835541
O O11 0.287650 0.913302 0.943838
O O12 0.305931 0.809902 0.087063
O O13 0.750000 0.750000 0.000000
O O14 0.948482 0.720876 0.658420
O O15 0.000000 0.696530 0.250000
O O16 0.749279 0.012615 0.423623
#
# Coordination Sequence:
#
# PCOD9271552 Si02
#       8
#     8   8   8   8   8   4   8   8
#     4  10  20  36  60  85 118 154 202 259 316 374
#     4  11  22  38  60  87 117 167 212 253 311 361
#     4  11  22  37  61  84 128 163 202 255 306 390
#     4  12  26  40  68  95 134 173 211 266 331 388
#     4  12  24  38  58  99 137 168 201 260 332 394
#     4  10  24  40  62  82 126 166 214 258 292 376
#     4  11  24  42  62  90 125 174 218 252 312 378
#     4  10  21  41  64  92 124 162 210 267 329 389
#
# _framework density 22.059904
#
# number of rings (size 3 to 8) (size 9 to 14) (size 15 to 20)
#    0.000    1.067    2.667    4.400    5.600    2.133 
#    0.000    0.667    0.000    0.800    0.000    0.000 
#    0.000    0.000    0.000    0.000    0.000    0.000 
#
# Total GULP energy -167345.348323 kJ/mol
# GULP energy per Si atom -5578.178277 kJ/mol
# Density = 2.200969 g / cm^3
# Si number density = 22.059904 Si / 1000 Ang^3
#
#
#
# Elastic Constant Matrix: (Units=GPa)
#
#
# Indices 1 2 3 4 5 6 
#
# 1 105.5905 27.8907 15.4652 0.0000 3.0430 0.0000
# 2 27.8907 57.5664 0.2592 0.0000 8.7119 0.0000
# 3 15.4652 0.2592 102.0986 0.0000 7.3314 0.0000
# 4 0.0000 0.0000 0.0000 27.7790 0.0000 7.2309
# 5 3.0430 8.7119 7.3314 0.0000 30.3561 0.0000
# 6 0.0000 0.0000 0.0000 7.2309 0.0000 22.3856
#
#
#
# Elastic Compliance Matrix: (Units=1/GPa)
#
#
# Indices 1 2 3 4 5 6 
#
# 1 0.011162 -0.005535 -0.001741 0.000000 0.000890 0.000000
# 2 -0.005535 0.020916 0.001197 0.000000 -0.005737 0.000000
# 3 -0.001741 0.001197 0.010245 0.000000 -0.002643 0.000000
# 4 0.000000 0.000000 0.000000 0.039303 0.000000 -0.012696
# 5 0.000890 -0.005737 -0.002643 0.000000 0.035138 0.000000
# 6 0.000000 0.000000 0.000000 -0.012696 0.000000 0.048772
#
#
# Mechanical properties :
#
#
# Convention : Reuss Voigt Hill
#
# Bulk Modulus (GPa) = 33.14974 39.16510 36.15742
# Shear Modulus (GPa) = 26.63158 30.88017 28.75587
#
# Velocity S-wave (km/s) = 3.47830 3.74549 3.61437
# Velocity P-wave (km/s) = 5.58491 6.04131 5.81759
#
# Compressibility (1/GPa) = 0.03016615
#
# Stress axis : x y z
#
# Youngs Moduli (GPa) = 89.59159 47.81131 97.60984
#
# Poissons Ratio (x) = 0.26462 0.16990
# Poissons Ratio (y) = 0.49586 -0.11686
# Poissons Ratio (z) = 0.15594 -0.05724
#
# Static dielectric constant tensor:
#      x y z
#    x 1.902650 0.000000 -0.038500 
#    y 0.000000 1.856160 0.000000 
#    z -0.038500 0.000000 1.850210 
# 
# From -- ./inp_files/13914.got.cif
#   From: 2010.05.17/outbox.cif.g08.bks.cpg/sg15_7_cif.got.tgz:13914.got - 2010.06.03 18:47:42.
