data_PCOD9271452
_publ_section_title
;
Structure prediction by ZEFSAII (Michael W. Deem and Ramdas Pophale) SiO2 
 PCOD9271452
Probable space group: C 2/C
;
_chemical_formula_sum "Si O2"
_cell_formula_units_Z 48
_cell_length_a 5.333726
_cell_length_b 18.856530
_cell_length_c 23.429948
_cell_angle_alpha 90.000000
_cell_angle_beta 63.093574
_cell_angle_gamma 90.000000
_cell_volume 2101.383671
_symmetry_space_group_name_H-M "C 2/C"
_symmetry_group_IT_number 15
_symmetry_cell_setting 'monoclinic'
loop_
_space_group_symop_operation_xyz
x,y,z
-x,y,1/2-z
-x,-y,-z
x,-y,1/2+z
1/2+x,1/2+y,z
1/2-x,1/2+y,1/2-z
1/2-x,1/2-y,-z
1/2+x,1/2-y,1/2+z
loop_
_atom_site_type_symbol
_atom_site_label
_atom_site_fract_x
_atom_site_fract_y
_atom_site_fract_z
Si Si1 0.623285 0.901095 0.064580
Si Si2 0.558196 0.283197 0.412186
Si Si3 0.707676 0.953608 0.603756
Si Si4 0.927586 0.355134 0.974755
Si Si5 0.016076 0.121810 0.684159
Si Si6 0.528691 0.459922 0.683288
O O1 0.762053 0.825645 0.060751
O O2 0.328394 0.893721 0.128696
O O3 0.786829 0.966227 0.077350
O O4 0.579876 0.909929 0.001395
O O5 0.243164 0.305969 0.463068
O O6 0.595079 0.199884 0.417487
O O7 0.616365 0.321684 0.345964
O O8 0.771087 0.898762 0.546939
O O9 0.364895 0.955860 0.638946
O O10 0.853923 0.930574 0.647511
O O11 0.000000 0.149757 0.750000
O O12 0.902244 0.040945 0.698611
O O13 0.500000 0.429327 0.750000
#
# Coordination Sequence:
#
# PCOD9271452 Si02
#       6
#     8   8   8   8   8   8
#     4  10  20  36  59  88 120 156 204 252 307 361
#     4  10  20  39  57  84 119 161 203 247 310 364
#     4  11  22  38  62  93 120 160 207 255 309 366
#     4  10  23  36  57  86 123 163 197 251 307 372
#     4   9  19  36  58  87 115 153 205 256 301 358
#     4  10  21  39  62  89 122 158 204 257 308 362
#
# _framework density 22.842091
#
# number of rings (size 3 to 8) (size 9 to 14) (size 15 to 20)
#    0.000    2.000    1.667    1.500    2.333    1.333 
#    0.000    1.667    0.000    0.000    0.000    0.000 
#    0.000    0.000    0.000    0.000    0.000    0.000 
#
# Total GULP energy -133791.636950 kJ/mol
# GULP energy per Si atom -5574.651540 kJ/mol
# Density = 2.279010 g / cm^3
# Si number density = 22.842091 Si / 1000 Ang^3
#
#
#
# Elastic Constant Matrix: (Units=GPa)
#
#
# Indices 1 2 3 4 5 6 
#
# 1 97.4721 15.0630 43.9137 0.0000 37.8180 0.0000
# 2 15.0630 62.0354 21.8995 0.0000 13.9670 0.0000
# 3 43.9137 21.8995 125.1895 0.0000 48.3287 0.0000
# 4 0.0000 0.0000 0.0000 14.3178 0.0000 0.4383
# 5 37.8180 13.9670 48.3287 0.0000 46.6917 0.0000
# 6 0.0000 0.0000 0.0000 0.4383 0.0000 21.3901
#
#
#
# Elastic Compliance Matrix: (Units=1/GPa)
#
#
# Indices 1 2 3 4 5 6 
#
# 1 0.015071 -0.000865 -0.000871 0.000000 -0.011047 0.000000
# 2 -0.000865 0.017557 -0.001684 0.000000 -0.002809 0.000000
# 3 -0.000871 -0.001684 0.013526 0.000000 -0.012791 0.000000
# 4 0.000000 0.000000 0.000000 0.069887 0.000000 -0.001432
# 5 -0.011047 -0.002809 -0.012791 0.000000 0.044444 0.000000
# 6 0.000000 0.000000 0.000000 -0.001432 0.000000 0.046780
#
#
# Mechanical properties :
#
#
# Convention : Reuss Voigt Hill
#
# Bulk Modulus (GPa) = 25.43539 49.60549 37.52044
# Shear Modulus (GPa) = 22.00624 30.06800 26.03712
#
# Velocity S-wave (km/s) = 3.10725 3.63208 3.37987
# Velocity P-wave (km/s) = 4.90233 6.27321 5.62965
#
# Compressibility (1/GPa) = 0.03931530
#
# Stress axis : x y z
#
# Youngs Moduli (GPa) = 66.35066 56.95891 73.93306
#
# Poissons Ratio (x) = 0.04927 0.06438
# Poissons Ratio (y) = 0.05739 0.12447
# Poissons Ratio (z) = 0.05777 0.09589
#
# Static dielectric constant tensor:
#      x y z
#    x 1.962060 0.000000 -0.047820 
#    y 0.000000 1.867420 0.000000 
#    z -0.047820 0.000000 1.913030 
# 
# From -- ./inp_files/227284.got.cif
#   From: 2010.05.17/outbox.cif.g08.bks.cpg/sg15_114_cif.got.tgz:227284.got - 2010.06.03 18:47:42.
