data_PCOD9271305
_publ_section_title
;
Structure prediction by ZEFSAII (Michael W. Deem and Ramdas Pophale) SiO2 
 PCOD9271305
Probable space group: C 2/C
;
_chemical_formula_sum "Si O2"
_cell_formula_units_Z 60
_cell_length_a 18.552155
_cell_length_b 11.975696
_cell_length_c 15.325508
_cell_angle_alpha 90.000000
_cell_angle_beta 67.562108
_cell_angle_gamma 90.000000
_cell_volume 3147.168914
_symmetry_space_group_name_H-M "C 2/C"
_symmetry_group_IT_number 15
_symmetry_cell_setting 'monoclinic'
loop_
_space_group_symop_operation_xyz
x,y,z
-x,y,1/2-z
-x,-y,-z
x,-y,1/2+z
1/2+x,1/2+y,z
1/2-x,1/2+y,1/2-z
1/2-x,1/2-y,-z
1/2+x,1/2-y,1/2+z
loop_
_atom_site_type_symbol
_atom_site_label
_atom_site_fract_x
_atom_site_fract_y
_atom_site_fract_z
Si Si1 0.208662 0.255044 0.926466
Si Si2 0.297798 0.143830 0.658638
Si Si3 0.000000 0.779563 0.750000
Si Si4 0.654697 0.348875 0.756948
Si Si5 0.730448 0.513505 0.838744
Si Si6 0.302749 0.202953 0.396825
Si Si7 0.542192 0.146841 0.553921
Si Si8 0.580038 0.893464 0.537788
O O1 0.266922 0.322902 0.835164
O O2 0.203962 0.126321 0.897596
O O3 0.250000 0.250000 0.000000
O O4 0.124941 0.309694 0.979857
O O5 0.347567 0.245967 0.674299
O O6 0.216068 0.203701 0.668564
O O7 0.341574 0.091764 0.556555
O O8 0.291832 0.055638 0.738356
O O9 0.921628 0.848061 0.766386
O O10 0.981648 0.709096 0.846023
O O11 0.663539 0.457440 0.811641
O O12 0.767995 0.415801 0.879996
O O13 0.250000 0.250000 0.500000
O O14 0.388884 0.179440 0.394994
O O15 0.482235 0.158033 0.500682
O O16 0.549303 0.015869 0.575103
#
# Coordination Sequence:
#
# PCOD9271305 Si02
#       8
#     8   8   4   8   8   8   8   8
#     4  11  21  38  62  91 115 154 198 251 285 354
#     4   9  18  36  60  85 114 154 194 244 288 358
#     4  12  22  40  58  80 120 158 194 246 296 346
#     4  10  21  38  61  83 120 152 195 239 298 349
#     4  10  21  36  60  87 116 155 200 239 293 351
#     4   9  19  35  57  83 117 154 194 237 294 353
#     4  11  23  36  59  90 122 152 199 248 298 353
#     4  10  20  36  58  88 122 152 193 242 308 353
#
# _framework density 19.064754000000001
#
# number of rings (size 3 to 8) (size 9 to 14) (size 15 to 20)
#    0.000    1.867    2.667    1.600    1.867    1.067 
#    0.000    3.333    0.000    0.000    0.000    0.000 
#    0.000    0.000    0.000    0.000    0.000    0.000 
#
# Total GULP energy -167148.545418 kJ/mol
# GULP energy per Si atom -5571.618181 kJ/mol
# Density = 1.902136 g / cm^3
# Si number density = 19.064754 Si / 1000 Ang^3
#
#
#
# Elastic Constant Matrix: (Units=GPa)
#
#
# Indices 1 2 3 4 5 6 
#
# 1 155.4244 50.4226 34.7672 0.0000 20.8312 0.0000
# 2 50.4226 68.5500 33.9916 0.0000 13.5249 0.0000
# 3 34.7672 33.9916 69.6533 0.0000 5.8012 0.0000
# 4 0.0000 0.0000 0.0000 32.4357 0.0000 15.9338
# 5 20.8312 13.5249 5.8012 0.0000 31.7304 0.0000
# 6 0.0000 0.0000 0.0000 15.9338 0.0000 13.8868
#
#
#
# Elastic Compliance Matrix: (Units=1/GPa)
#
#
# Indices 1 2 3 4 5 6 
#
# 1 0.008903 -0.005035 -0.001705 0.000000 -0.003387 0.000000
# 2 -0.005035 0.023551 -0.008549 0.000000 -0.005170 0.000000
# 3 -0.001705 -0.008549 0.019277 0.000000 0.001239 0.000000
# 4 0.000000 0.000000 0.000000 0.070656 0.000000 -0.081070
# 5 -0.003387 -0.005170 0.001239 0.000000 0.035716 0.000000
# 6 0.000000 0.000000 0.000000 -0.081070 0.000000 0.165031
#
#
# Mechanical properties :
#
#
# Convention : Reuss Voigt Hill
#
# Bulk Modulus (GPa) = 47.27586 59.11004 53.19295
# Shear Modulus (GPa) = 13.85959 27.24034 20.54997
#
# Velocity S-wave (km/s) = 2.69917 3.78409 3.28671
# Velocity P-wave (km/s) = 5.87923 7.08270 6.50884
#
# Compressibility (1/GPa) = 0.02115245
#
# Stress axis : x y z
#
# Youngs Moduli (GPa) = 112.32595 42.46160 51.87647
#
# Poissons Ratio (x) = 0.21379 0.08842
# Poissons Ratio (y) = 0.56556 0.44350
# Poissons Ratio (z) = 0.19146 0.36301
#
# Static dielectric constant tensor:
#      x y z
#    x 1.774890 0.000000 -0.017580 
#    y 0.000000 1.692710 0.000000 
#    z -0.017580 0.000000 1.703320 
# 
# From -- ./inp_files/160881.got.cif
#   From: 2010.05.17/outbox.cif.g08.bks.cpg/sg15_81_cif.got.tgz:160881.got - 2010.06.03 18:47:42.
