data_PCOD9271950
_publ_section_title
;
Structure prediction by ZEFSAII (Michael W. Deem and Ramdas Pophale) SiO2 
 PCOD9271950
Probable space group: C 2/C
;
_chemical_formula_sum "Si O2"
_cell_formula_units_Z 44
_cell_length_a 19.031498
_cell_length_b 20.618349
_cell_length_c 12.386920
_cell_angle_alpha 90.000000
_cell_angle_beta 151.546103
_cell_angle_gamma 90.000000
_cell_volume 2315.841653
_symmetry_space_group_name_H-M "C 2/C"
_symmetry_group_IT_number 15
_symmetry_cell_setting 'monoclinic'
loop_
_space_group_symop_operation_xyz
x,y,z
-x,y,1/2-z
-x,-y,-z
x,-y,1/2+z
1/2+x,1/2+y,z
1/2-x,1/2+y,1/2-z
1/2-x,1/2-y,-z
1/2+x,1/2-y,1/2+z
loop_
_atom_site_type_symbol
_atom_site_label
_atom_site_fract_x
_atom_site_fract_y
_atom_site_fract_z
Si Si1 0.955500 0.127936 0.898889
Si Si2 0.408382 0.437290 0.723047
Si Si3 0.500000 0.563482 0.750000
Si Si4 0.656194 0.748133 0.211058
Si Si5 0.821703 0.705599 0.000861
Si Si6 0.358903 0.157653 0.621876
O O1 0.784142 0.142191 0.643761
O O2 0.041247 0.108937 0.904988
O O3 0.992815 0.073451 0.037519
O O4 0.026006 0.194998 0.036455
O O5 0.500000 0.404286 0.750000
O O6 0.390848 0.511306 0.659246
O O7 0.258592 0.399462 0.532653
O O8 0.614708 0.811378 0.224770
O O9 0.791894 0.714910 0.456677
O O10 0.694466 0.763197 0.139615
O O11 0.000000 0.695999 0.250000
O O12 0.750000 0.750000 0.000000
O O13 0.500000 0.133435 0.750000
#
# Coordination Sequence:
#
# PCOD9271950 Si02
#       6
#     8   8   4   8   8   8
#     4  11  20  38  61  84 120 158 200 247 292 366
#     4   9  21  38  62  84 114 159 206 251 295 347
#     4  10  22  40  62  84 116 166 218 238 290 354
#     4  10  21  36  59  90 128 158 193 244 317 367
#     4  12  23  37  57  88 126 161 192 241 309 374
#     4  10  20  36  62  93 122 154 199 258 308 359
#
# _framework density 18.999572000000001
#
# number of rings (size 3 to 8) (size 9 to 14) (size 15 to 20)
#    0.545    1.091    1.818    3.818    0.000    5.091 
#    0.000    0.909    0.000    5.455    0.000    0.000 
#    0.000    0.000    0.000    0.000    0.000    0.000 
#
# Total GULP energy -122515.854751 kJ/mol
# GULP energy per Si atom -5568.902489 kJ/mol
# Density = 1.895633 g / cm^3
# Si number density = 18.999572 Si / 1000 Ang^3
#
#
#
# Elastic Constant Matrix: (Units=GPa)
#
#
# Indices 1 2 3 4 5 6 
#
# 1 114.1901 20.1970 63.3335 0.0000 -6.4170 0.0000
# 2 20.1970 63.4615 35.7295 0.0000 5.7151 0.0000
# 3 63.3335 35.7295 86.8797 0.0000 6.2533 0.0000
# 4 0.0000 0.0000 0.0000 7.3668 0.0000 -0.7206
# 5 -6.4170 5.7151 6.2533 0.0000 43.2619 0.0000
# 6 0.0000 0.0000 0.0000 -0.7206 0.0000 25.8626
#
#
#
# Elastic Compliance Matrix: (Units=1/GPa)
#
#
# Indices 1 2 3 4 5 6 
#
# 1 0.015460 0.001606 -0.012207 0.000000 0.003845 0.000000
# 2 0.001606 0.020770 -0.009633 0.000000 -0.001113 0.000000
# 3 -0.012207 -0.009633 0.024666 0.000000 -0.004103 0.000000
# 4 0.000000 0.000000 0.000000 0.136115 0.000000 0.003793
# 5 0.003845 -0.001113 -0.004103 0.000000 0.024426 0.000000
# 6 0.000000 0.000000 0.000000 0.003793 0.000000 0.038772
#
#
# Mechanical properties :
#
#
# Convention : Reuss Voigt Hill
#
# Bulk Modulus (GPa) = 48.95113 55.89457 52.42285
# Shear Modulus (GPa) = 16.26099 24.98302 20.62200
#
# Velocity S-wave (km/s) = 2.92868 3.63012 3.29810
# Velocity P-wave (km/s) = 6.10381 6.85953 6.49267
#
# Compressibility (1/GPa) = 0.02042854
#
# Stress axis : x y z
#
# Youngs Moduli (GPa) = 64.68363 48.14676 40.54202
#
# Poissons Ratio (x) = -0.07734 0.49491
# Poissons Ratio (y) = -0.10390 0.39052
# Poissons Ratio (z) = 0.78961 0.46377
#
# Static dielectric constant tensor:
#      x y z
#    x 1.769920 0.000000 -0.062370 
#    y 0.000000 1.688050 0.000000 
#    z -0.062370 0.000000 1.725510 
# 
# From -- ./inp_files/108009.got.cif
#   From: 2010.05.17/outbox.cif.g08.bks.cpg/sg15_55_cif.got.tgz:108009.got - 2010.06.03 18:47:42.
