data_PCOD9271993
_publ_section_title
;
Structure prediction by ZEFSAII (Michael W. Deem and Ramdas Pophale) SiO2 
 PCOD9271993
Probable space group: C 2/C
;
_chemical_formula_sum "Si O2"
_cell_formula_units_Z 60
_cell_length_a 16.103329
_cell_length_b 10.100512
_cell_length_c 15.490312
_cell_angle_alpha 90.000000
_cell_angle_beta 75.969715
_cell_angle_gamma 90.000000
_cell_volume 2444.364903
_symmetry_space_group_name_H-M "C 2/C"
_symmetry_group_IT_number 15
_symmetry_cell_setting 'monoclinic'
loop_
_space_group_symop_operation_xyz
x,y,z
-x,y,1/2-z
-x,-y,-z
x,-y,1/2+z
1/2+x,1/2+y,z
1/2-x,1/2+y,1/2-z
1/2-x,1/2-y,-z
1/2+x,1/2-y,1/2+z
loop_
_atom_site_type_symbol
_atom_site_label
_atom_site_fract_x
_atom_site_fract_y
_atom_site_fract_z
Si Si1 0.463575 0.289918 0.394636
Si Si2 0.289531 0.846814 0.622411
Si Si3 0.166151 0.136084 0.430025
Si Si4 0.500000 0.986907 0.250000
Si Si5 0.946907 0.487964 0.598397
Si Si6 0.642552 0.359987 0.532913
Si Si7 0.158628 0.690368 0.199258
Si Si8 0.527852 0.428267 0.842138
O O1 0.397329 0.281595 0.491238
O O2 0.522103 0.159386 0.376737
O O3 0.404264 0.300248 0.324002
O O4 0.520578 0.419821 0.377947
O O5 0.345681 0.981850 0.610527
O O6 0.333383 0.758431 0.536831
O O7 0.194775 0.859349 0.609694
O O8 0.302457 0.790569 0.715392
O O9 0.262497 0.178427 0.386467
O O10 0.167764 0.994380 0.477430
O O11 0.119636 0.121896 0.349308
O O12 0.520035 0.916140 0.334680
O O13 0.592741 0.063607 0.213783
O O14 0.000000 0.500000 0.500000
O O15 0.543830 0.359136 0.580761
O O16 0.500000 0.417437 0.750000
#
# Coordination Sequence:
#
# PCOD9271993 Si02
#       8
#     8   8   8   4   8   8   8   8
#     4  10  22  38  62  92 122 163 205 262 315 369
#     4  10  21  39  60  87 121 167 204 248 311 384
#     4  11  22  39  62  92 128 157 211 264 319 373
#     4   8  20  36  56  86 112 152 206 244 294 362
#     4  10  20  36  63  81 119 158 202 251 307 368
#     4  10  22  39  61  88 127 165 203 254 323 379
#     4  10  21  38  62  89 123 158 209 257 300 375
#     4  11  23  38  67  95 124 162 210 270 319 379
#
# _framework density 24.546251999999999
#
# number of rings (size 3 to 8) (size 9 to 14) (size 15 to 20)
#    0.000    1.867    0.000    4.400   11.200    0.000 
#    0.000    1.333    5.867    0.000    0.000    0.000 
#    0.000    0.000    0.000    0.000    0.000    0.000 
#
# Total GULP energy -167597.619588 kJ/mol
# GULP energy per Si atom -5586.587320 kJ/mol
# Density = 2.449038 g / cm^3
# Si number density = 24.546252 Si / 1000 Ang^3
#
#
#
# Elastic Constant Matrix: (Units=GPa)
#
#
# Indices 1 2 3 4 5 6 
#
# 1 130.8252 10.7445 24.6914 0.0000 17.0235 0.0000
# 2 10.7445 24.8470 -10.7462 0.0000 -0.5552 0.0000
# 3 24.6914 -10.7462 106.6029 0.0000 16.5882 0.0000
# 4 0.0000 0.0000 0.0000 25.7150 0.0000 -0.1541
# 5 17.0235 -0.5552 16.5882 0.0000 62.6946 0.0000
# 6 0.0000 0.0000 0.0000 -0.1541 0.0000 14.1428
#
#
#
# Elastic Compliance Matrix: (Units=1/GPa)
#
#
# Indices 1 2 3 4 5 6 
#
# 1 0.008687 -0.004752 -0.002209 0.000000 -0.001817 0.000000
# 2 -0.004752 0.044717 0.005576 0.000000 0.000211 0.000000
# 3 -0.002209 0.005576 0.010798 0.000000 -0.002208 0.000000
# 4 0.000000 0.000000 0.000000 0.038890 0.000000 0.000424
# 5 -0.001817 0.000211 -0.002208 0.000000 0.017030 0.000000
# 6 0.000000 0.000000 0.000000 0.000424 0.000000 0.070712
#
#
# Mechanical properties :
#
#
# Convention : Reuss Voigt Hill
#
# Bulk Modulus (GPa) = 16.27816 34.62828 25.45322
# Shear Modulus (GPa) = 23.35551 36.34953 29.85252
#
# Velocity S-wave (km/s) = 3.08797 3.85237 3.49115
# Velocity P-wave (km/s) = 4.40001 5.82457 5.16167
#
# Compressibility (1/GPa) = 0.06143202
#
# Stress axis : x y z
#
# Youngs Moduli (GPa) = 115.11048 22.36264 92.61168
#
# Poissons Ratio (x) = 0.10628 0.20454
# Poissons Ratio (y) = 0.54705 -0.51637
# Poissons Ratio (z) = 0.25423 -0.12469
#
# Static dielectric constant tensor:
#      x y z
#    x 1.950290 0.000000 0.021190 
#    y 0.000000 1.983630 0.000000 
#    z 0.021190 0.000000 2.073810 
# 
# From -- ./inp_files/153949.got.cif
#   From: 2010.05.17/outbox.cif.g08.bks.cpg/sg15_77_cif.got.tgz:153949.got - 2010.06.03 18:47:42.
