data_PCOD9271491
_publ_section_title
;
Structure prediction by ZEFSAII (Michael W. Deem and Ramdas Pophale) SiO2 
 PCOD9271491
Probable space group: C 2/C
;
_chemical_formula_sum "Si O2"
_cell_formula_units_Z 48
_cell_length_a 5.692625
_cell_length_b 17.346925
_cell_length_c 23.894888
_cell_angle_alpha 90.000000
_cell_angle_beta 74.706022
_cell_angle_gamma 90.000000
_cell_volume 2276.043961
_symmetry_space_group_name_H-M "C 2/C"
_symmetry_group_IT_number 15
_symmetry_cell_setting 'monoclinic'
loop_
_space_group_symop_operation_xyz
x,y,z
-x,y,1/2-z
-x,-y,-z
x,-y,1/2+z
1/2+x,1/2+y,z
1/2-x,1/2+y,1/2-z
1/2-x,1/2-y,-z
1/2+x,1/2-y,1/2+z
loop_
_atom_site_type_symbol
_atom_site_label
_atom_site_fract_x
_atom_site_fract_y
_atom_site_fract_z
Si Si1 0.328838 0.439323 0.636849
Si Si2 0.000000 0.501974 0.250000
Si Si3 0.517300 0.301760 0.033555
Si Si4 0.345895 0.589928 0.873560
Si Si5 0.181488 0.833508 0.576012
Si Si6 0.480698 0.018649 0.436620
Si Si7 0.000000 0.092006 0.750000
O O1 0.507937 0.509189 0.641331
O O2 0.449776 0.355493 0.628283
O O3 0.097561 0.447993 0.691564
O O4 0.269536 0.458802 0.576085
O O5 0.242323 0.454352 0.254436
O O6 0.595059 0.365263 0.073495
O O7 0.319946 0.246133 0.075204
O O8 0.750000 0.250000 0.000000
O O9 0.395739 0.333424 0.984474
O O10 0.073824 0.556923 0.897268
O O11 0.427068 0.634147 0.812472
O O12 0.362015 0.903559 0.578237
O O13 0.500000 0.000000 0.500000
#
# Coordination Sequence:
#
# PCOD9271491 Si02
#       7
#     8   4   8   8   8   8   4
#     4  10  20  36  59  91 119 155 203 268 320 380
#     4  10  20  38  64  95 127 158 204 268 332 378
#     4  11  22  39  57  84 125 171 206 255 320 390
#     4  10  21  35  60  90 119 156 209 263 320 377
#     4  10  22  36  55  87 122 159 208 250 317 392
#     4  11  19  33  58  89 118 147 197 265 319 370
#     4  10  20  40  60  99 121 158 208 270 324 378
#
# _framework density 21.089223
#
# number of rings (size 3 to 8) (size 9 to 14) (size 15 to 20)
#    0.000    1.667    1.667    4.000    0.000    4.000 
#    0.000    0.000    0.000    6.000    0.000    0.000 
#    0.000    0.000    0.000    0.000    0.000    0.000 
#
# Total GULP energy -133670.382935 kJ/mol
# GULP energy per Si atom -5569.599289 kJ/mol
# Density = 2.104122 g / cm^3
# Si number density = 21.089223 Si / 1000 Ang^3
#
#
#
# Elastic Constant Matrix: (Units=GPa)
#
#
# Indices 1 2 3 4 5 6 
#
# 1 62.1743 9.8837 -2.5234 0.0000 -1.0405 0.0000
# 2 9.8837 55.0525 10.2529 0.0000 -9.8159 0.0000
# 3 -2.5234 10.2529 61.8546 0.0000 -7.6995 0.0000
# 4 0.0000 0.0000 0.0000 20.6527 0.0000 -4.5920
# 5 -1.0405 -9.8159 -7.6995 0.0000 30.3394 0.0000
# 6 0.0000 0.0000 0.0000 -4.5920 0.0000 25.2484
#
#
#
# Elastic Compliance Matrix: (Units=1/GPa)
#
#
# Indices 1 2 3 4 5 6 
#
# 1 0.016645 -0.003242 0.001195 0.000000 -0.000175 0.000000
# 2 -0.003242 0.020289 -0.002780 0.000000 0.005748 0.000000
# 3 0.001195 -0.002780 0.017110 0.000000 0.003484 0.000000
# 4 0.000000 0.000000 0.000000 0.050460 0.000000 0.009177
# 5 -0.000175 0.005748 0.003484 0.000000 0.035698 0.000000
# 6 0.000000 0.000000 0.000000 0.009177 0.000000 0.041276
#
#
# Mechanical properties :
#
#
# Convention : Reuss Voigt Hill
#
# Bulk Modulus (GPa) = 22.52781 23.81197 23.16989
# Shear Modulus (GPa) = 24.28022 26.01264 25.14643
#
# Velocity S-wave (km/s) = 3.39678 3.51587 3.45684
# Velocity P-wave (km/s) = 5.10778 5.27232 5.19070
#
# Compressibility (1/GPa) = 0.04438957
#
# Stress axis : x y z
#
# Youngs Moduli (GPa) = 60.07902 49.28767 58.44496
#
# Poissons Ratio (x) = 0.15979 -0.06982
# Poissons Ratio (y) = 0.19477 0.16247
# Poissons Ratio (z) = -0.07177 0.13701
#
# Static dielectric constant tensor:
#      x y z
#    x 1.892270 0.000000 -0.073600 
#    y 0.000000 1.823240 0.000000 
#    z -0.073600 0.000000 1.856730 
# 
# From -- ./inp_files/260682.got.cif
#   From: 2010.05.17/outbox.cif.g08.bks.cpg/sg15_131_cif.got.tgz:260682.got - 2010.06.03 18:47:42.
