data_PCOD9271515
_publ_section_title
;
Structure prediction by ZEFSAII (Michael W. Deem and Ramdas Pophale) SiO2 
 PCOD9271515
Probable space group: C 2/C
;
_chemical_formula_sum "Si O2"
_cell_formula_units_Z 60
_cell_length_a 8.514540
_cell_length_b 23.848462
_cell_length_c 22.358520
_cell_angle_alpha 90.000000
_cell_angle_beta 140.905908
_cell_angle_gamma 90.000000
_cell_volume 2862.962641
_symmetry_space_group_name_H-M "C 2/C"
_symmetry_group_IT_number 15
_symmetry_cell_setting 'monoclinic'
loop_
_space_group_symop_operation_xyz
x,y,z
-x,y,1/2-z
-x,-y,-z
x,-y,1/2+z
1/2+x,1/2+y,z
1/2-x,1/2+y,1/2-z
1/2-x,1/2-y,-z
1/2+x,1/2-y,1/2+z
loop_
_atom_site_type_symbol
_atom_site_label
_atom_site_fract_x
_atom_site_fract_y
_atom_site_fract_z
Si Si1 0.954638 0.400042 0.479360
Si Si2 0.823474 0.973748 0.523566
Si Si3 0.881561 0.410591 0.586321
Si Si4 0.675082 0.481099 0.741245
Si Si5 0.000000 0.198839 0.750000
Si Si6 0.138967 0.124733 0.561922
Si Si7 0.043672 0.294653 0.420965
Si Si8 0.625215 0.600613 0.696230
O O1 0.014997 0.389125 0.565937
O O2 0.666124 0.414901 0.388982
O O3 0.097591 0.452526 0.496597
O O4 0.016857 0.345011 0.460592
O O5 0.831328 0.927647 0.473855
O O6 0.768273 0.033246 0.477981
O O7 0.045319 0.974061 0.637715
O O8 0.661858 0.366086 0.535212
O O9 0.099702 0.436356 0.690979
O O10 0.500000 0.474559 0.750000
O O11 0.760710 0.546945 0.765359
O O12 0.260871 0.230659 0.838196
O O13 0.108632 0.156658 0.730939
O O14 0.329173 0.173342 0.598023
O O15 0.192031 0.111488 0.647167
O O16 0.250000 0.250000 0.500000
#
# Coordination Sequence:
#
# PCOD9271515 Si02
#       8
#     8   8   8   8   4   8   8   8
#     4   9  18  36  60  81 125 171 214 258 308 382
#     4  11  20  36  52  84 134 177 213 257 310 378
#     4  11  21  34  54  88 131 177 208 255 318 379
#     4  12  21  30  58  89 131 186 232 240 300 389
#     4  10  22  42  70 100 120 158 222 272 320 408
#     4  10  23  40  59  89 133 169 206 277 329 357
#     4  10  23  45  71  92 119 165 212 276 347 378
#     4  10  20  36  59  96 127 167 215 274 310 353
#
# _framework density 20.957312999999999
#
# number of rings (size 3 to 8) (size 9 to 14) (size 15 to 20)
#    0.000    1.600    4.667    1.600    3.733    1.067 
#    0.000    8.667    0.000    3.200    0.000    0.000 
#    0.000    0.000    0.000    0.000    0.000    0.000 
#
# Total GULP energy -167075.779490 kJ/mol
# GULP energy per Si atom -5569.192650 kJ/mol
# Density = 2.090961 g / cm^3
# Si number density = 20.957313 Si / 1000 Ang^3
#
#
#
# Elastic Constant Matrix: (Units=GPa)
#
#
# Indices 1 2 3 4 5 6 
#
# 1 116.3380 28.0307 34.6787 0.0001 10.8327 0.0000
# 2 28.0307 15.3923 10.9524 0.0000 15.3655 0.0000
# 3 34.6787 10.9524 109.5729 -0.0005 16.3621 0.0000
# 4 0.0001 0.0000 -0.0005 24.7130 -0.0001 15.5729
# 5 10.8327 15.3655 16.3621 -0.0001 31.8740 0.0000
# 6 0.0000 0.0000 0.0000 15.5729 0.0000 5.6900
#
#
#
# Elastic Compliance Matrix: (Units=1/GPa)
#
#
# Indices 1 2 3 4 5 6 
#
# 1 0.023063 -0.064076 -0.004697 0.000000 0.025462 0.000000
# 2 -0.064076 0.304725 0.009210 -0.000001 -0.129850 0.000001
# 3 -0.004697 0.009210 0.010957 0.000000 -0.008468 0.000001
# 4 0.000000 -0.000001 0.000000 -0.055839 0.000000 0.152827
# 5 0.025462 -0.129850 -0.008468 0.000000 0.089664 0.000000
# 6 0.000000 0.000001 0.000001 0.152827 0.000000 -0.242525
#
#
# Mechanical properties :
#
#
# Convention : Reuss Voigt Hill
#
# Bulk Modulus (GPa) = 4.55329 43.18073 23.86701
# Shear Modulus (GPa) = 15.50982 23.63150 19.57066
#
# Velocity S-wave (km/s) = 2.72337 3.36162 3.05919
# Velocity P-wave (km/s) = 3.47367 5.97630 4.88787
#
# Compressibility (1/GPa) = 0.21962134
#
# Stress axis : x y z
#
# Youngs Moduli (GPa) = 43.35876 3.28164 91.26826
#
# Poissons Ratio (x) = 0.21027 0.42866
# Poissons Ratio (y) = 2.77825 -0.84062
# Poissons Ratio (z) = 0.20364 -0.03023
#
# Static dielectric constant tensor:
#      x y z
#    x 1.843490 0.000000 0.005050 
#    y 0.000000 1.779390 0.000000 
#    z 0.005050 0.000000 1.873290 
# 
# From -- ./inp_files/266540.got.cif
#   From: 2010.05.17/outbox.cif.g08.bks.cpg/sg15_134_cif.got.tgz:266540.got - 2010.06.03 18:47:42.
