data_PCOD9271302
_publ_section_title
;
Structure prediction by ZEFSAII (Michael W. Deem and Ramdas Pophale) SiO2 
 PCOD9271302
Probable space group: C 2/C
;
_chemical_formula_sum "Si O2"
_cell_formula_units_Z 48
_cell_length_a 17.130915
_cell_length_b 13.309845
_cell_length_c 11.544678
_cell_angle_alpha 90.000000
_cell_angle_beta 108.527000
_cell_angle_gamma 90.000000
_cell_volume 2495.878474
_symmetry_space_group_name_H-M "C 2/C"
_symmetry_group_IT_number 15
_symmetry_cell_setting 'monoclinic'
loop_
_space_group_symop_operation_xyz
x,y,z
-x,y,1/2-z
-x,-y,-z
x,-y,1/2+z
1/2+x,1/2+y,z
1/2-x,1/2+y,1/2-z
1/2-x,1/2-y,-z
1/2+x,1/2-y,1/2+z
loop_
_atom_site_type_symbol
_atom_site_label
_atom_site_fract_x
_atom_site_fract_y
_atom_site_fract_z
Si Si1 0.797284 0.187095 0.350535
Si Si2 0.622481 0.305215 0.003501
Si Si3 0.226112 0.619517 0.069834
Si Si4 0.034833 0.920750 0.610601
Si Si5 0.240050 0.388291 0.057071
Si Si6 0.413270 0.383127 0.255792
O O1 0.760947 0.163795 0.207127
O O2 0.887428 0.139260 0.399745
O O3 0.803711 0.304015 0.386322
O O4 0.738041 0.138422 0.420317
O O5 0.647649 0.188799 0.002106
O O6 0.609145 0.333481 0.131891
O O7 0.701869 0.363448 0.990869
O O8 0.540360 0.345028 0.901114
O O9 0.211941 0.500851 0.070122
O O10 0.072570 0.997278 0.721695
O O11 0.000000 0.000000 0.500000
O O12 0.336127 0.374233 0.135921
O O13 0.500000 0.342024 0.250000
#
# Coordination Sequence:
#
# PCOD9271302 Si02
#       6
#     8   8   8   8   8   8
#     4  11  23  38  60  91 127 160 203 256 302 365
#     4  10  22  37  57  91 120 162 203 254 304 363
#     4  11  22  39  62  86 128 166 202 250 308 372
#     4  10  20  36  58  88 119 152 202 256 301 343
#     4  11  22  37  59  91 123 164 205 247 306 373
#     4  11  19  34  61  90 120 152 200 262 308 349
#
# _framework density 19.231705000000002
#
# number of rings (size 3 to 8) (size 9 to 14) (size 15 to 20)
#    0.000    1.333    3.333    5.000    0.000    0.000 
#    0.000    0.833    0.000    0.000    0.000    0.000 
#    0.000    0.000    0.000    0.000    0.000    0.000 
#
# Total GULP energy -133980.980199 kJ/mol
# GULP energy per Si atom -5582.540842 kJ/mol
# Density = 1.918793 g / cm^3
# Si number density = 19.231705 Si / 1000 Ang^3
#
#
#
# Elastic Constant Matrix: (Units=GPa)
#
#
# Indices 1 2 3 4 5 6 
#
# 1 82.1807 52.3993 16.9086 0.0000 -8.8148 0.0000
# 2 52.3993 149.5321 6.3452 0.0000 -12.9241 0.0000
# 3 16.9086 6.3452 59.4754 0.0000 -19.4788 0.0000
# 4 0.0000 0.0000 0.0000 23.2576 0.0000 2.7346
# 5 -8.8148 -12.9241 -19.4788 0.0000 33.9972 0.0000
# 6 0.0000 0.0000 0.0000 2.7346 0.0000 40.7705
#
#
#
# Elastic Compliance Matrix: (Units=1/GPa)
#
#
# Indices 1 2 3 4 5 6 
#
# 1 0.016620 -0.005667 -0.004203 0.000000 -0.000254 0.000000
# 2 -0.005667 0.008848 0.001585 0.000000 0.002802 0.000000
# 3 -0.004203 0.001585 0.021764 0.000000 0.011982 0.000000
# 4 0.000000 0.000000 0.000000 0.043339 0.000000 -0.002907
# 5 -0.000254 0.002802 0.011982 0.000000 0.037279 0.000000
# 6 0.000000 0.000000 0.000000 -0.002907 0.000000 0.024723
#
#
# Mechanical properties :
#
#
# Convention : Reuss Voigt Hill
#
# Bulk Modulus (GPa) = 32.61518 49.16604 40.89061
# Shear Modulus (GPa) = 27.87637 33.97408 30.92523
#
# Velocity S-wave (km/s) = 3.81136 4.20761 4.01438
# Velocity P-wave (km/s) = 6.03030 7.01612 6.54181
#
# Compressibility (1/GPa) = 0.03066057
#
# Stress axis : x y z
#
# Youngs Moduli (GPa) = 60.17027 113.01401 45.94771
#
# Poissons Ratio (x) = 0.64049 0.19313
# Poissons Ratio (y) = 0.34101 -0.07283
# Poissons Ratio (z) = 0.25291 -0.17913
#
# Static dielectric constant tensor:
#      x y z
#    x 1.680800 0.000000 -0.012930 
#    y 0.000000 1.679830 0.000000 
#    z -0.012930 0.000000 1.753890 
# 
# From -- ./inp_files/103661.got.cif
#   From: 2010.05.17/outbox.cif.g08.bks.cpg/sg15_52_cif.got.tgz:103661.got - 2010.06.03 18:47:42.
