data_PCOD9271653
_publ_section_title
;
Structure prediction by ZEFSAII (Michael W. Deem and Ramdas Pophale) SiO2 
 PCOD9271653
Probable space group: C 2/C
;
_chemical_formula_sum "Si O2"
_cell_formula_units_Z 60
_cell_length_a 26.338944
_cell_length_b 12.302826
_cell_length_c 9.803711
_cell_angle_alpha 90.000000
_cell_angle_beta 85.399382
_cell_angle_gamma 90.000000
_cell_volume 3166.592588
_symmetry_space_group_name_H-M "C 2/C"
_symmetry_group_IT_number 15
_symmetry_cell_setting 'monoclinic'
loop_
_space_group_symop_operation_xyz
x,y,z
-x,y,1/2-z
-x,-y,-z
x,-y,1/2+z
1/2+x,1/2+y,z
1/2-x,1/2+y,1/2-z
1/2-x,1/2-y,-z
1/2+x,1/2-y,1/2+z
loop_
_atom_site_type_symbol
_atom_site_label
_atom_site_fract_x
_atom_site_fract_y
_atom_site_fract_z
Si Si1 0.624704 0.564390 0.135495
Si Si2 0.436785 0.582153 0.073445
Si Si3 0.716857 0.022785 0.630175
Si Si4 0.948948 0.767346 0.327222
Si Si5 0.217813 0.914363 0.122583
Si Si6 0.335177 0.203883 0.303498
Si Si7 0.311110 0.764611 0.496088
Si Si8 0.000000 0.028689 0.750000
O O1 0.593296 0.597481 0.277420
O O2 0.666663 0.477471 0.173149
O O3 0.655991 0.669938 0.079300
O O4 0.594209 0.502913 0.017918
O O5 0.491014 0.543454 0.122015
O O6 0.448342 0.690739 0.983575
O O7 0.758318 0.976757 0.512499
O O8 0.684416 0.917081 0.671912
O O9 0.743536 0.071883 0.759352
O O10 0.682459 0.116719 0.571280
O O11 0.895284 0.712472 0.316008
O O12 0.000000 0.713336 0.250000
O O13 0.953291 0.886188 0.253570
O O14 0.198472 0.791008 0.103014
O O15 0.325279 0.235595 0.150333
O O16 0.250000 0.750000 0.500000
#
# Coordination Sequence:
#
# PCOD9271653 Si02
#       8
#     8   8   8   8   8   8   8   4
#     4  12  23  37  61  92 135 171 207 252 324 391
#     4  12  22  37  61  99 127 166 208 267 326 395
#     4  12  25  40  62  94 130 173 221 258 315 392
#     4  10  23  39  63  92 123 170 217 264 330 376
#     4  12  22  40  62  94 133 170 211 258 323 389
#     4  12  23  43  66  90 131 171 216 272 321 384
#     4  12  23  40  60  91 133 171 210 265 322 378
#     4  10  20  36  60  90 128 150 204 262 332 372
#
# _framework density 18.947811999999999
#
# number of rings (size 3 to 8) (size 9 to 14) (size 15 to 20)
#    0.400    0.000    6.667    3.200    0.000    1.067 
#    0.000    0.000    0.000    0.800    1.733    0.000 
#    0.000    0.000    0.000    0.000    0.000    0.000 
#
# Total GULP energy -167141.259790 kJ/mol
# GULP energy per Si atom -5571.375326 kJ/mol
# Density = 1.890469 g / cm^3
# Si number density = 18.947812 Si / 1000 Ang^3
#
#
#
# Elastic Constant Matrix: (Units=GPa)
#
#
# Indices 1 2 3 4 5 6 
#
# 1 100.0239 28.7732 31.7825 0.0000 -7.7174 0.0000
# 2 28.7732 87.5021 1.7218 0.0000 -10.4581 0.0000
# 3 31.7825 1.7218 86.9206 0.0000 -12.8324 0.0000
# 4 0.0000 0.0000 0.0000 27.4927 0.0000 -0.6467
# 5 -7.7174 -10.4581 -12.8324 0.0000 29.7970 0.0000
# 6 0.0000 0.0000 0.0000 -0.6467 0.0000 13.2996
#
#
#
# Elastic Compliance Matrix: (Units=1/GPa)
#
#
# Indices 1 2 3 4 5 6 
#
# 1 0.012603 -0.004069 -0.004546 0.000000 -0.000122 0.000000
# 2 -0.004069 0.013256 0.001876 0.000000 0.004407 0.000000
# 3 -0.004546 0.001876 0.013939 0.000000 0.005484 0.000000
# 4 0.000000 0.000000 0.000000 0.036415 0.000000 0.001771
# 5 -0.000122 0.004407 0.005484 0.000000 0.037437 0.000000
# 6 0.000000 0.000000 0.000000 0.001771 0.000000 0.075276
#
#
# Mechanical properties :
#
#
# Convention : Reuss Voigt Hill
#
# Bulk Modulus (GPa) = 37.99329 44.33350 41.16339
# Shear Modulus (GPa) = 23.67658 28.26247 25.96952
#
# Velocity S-wave (km/s) = 3.53876 3.86631 3.70615
# Velocity P-wave (km/s) = 6.06565 6.58632 6.33134
#
# Compressibility (1/GPa) = 0.02632044
#
# Stress axis : x y z
#
# Youngs Moduli (GPa) = 79.34469 75.43644 71.73912
#
# Poissons Ratio (x) = 0.30698 0.32611
# Poissons Ratio (y) = 0.32289 -0.13458
# Poissons Ratio (z) = 0.36068 -0.14151
#
# Static dielectric constant tensor:
#      x y z
#    x 2.421680 0.000000 -0.055370 
#    y 0.000000 1.675480 0.000000 
#    z -0.055370 0.000000 1.707350 
# 
# From -- ./inp_files/69107.got.cif
#   From: 2010.05.17/outbox.cif.g08.bks.cpg/sg15_35_cif.got.tgz:69107.got - 2010.06.03 18:47:42.
