data_PCOD9271357
_publ_section_title
;
Structure prediction by ZEFSAII (Michael W. Deem and Ramdas Pophale) SiO2 
 PCOD9271357
Probable space group: C 2/C
;
_chemical_formula_sum "Si O2"
_cell_formula_units_Z 56
_cell_length_a 15.824233
_cell_length_b 19.744480
_cell_length_c 9.017397
_cell_angle_alpha 90.000000
_cell_angle_beta 110.170880
_cell_angle_gamma 90.000000
_cell_volume 2644.610729
_symmetry_space_group_name_H-M "C 2/C"
_symmetry_group_IT_number 15
_symmetry_cell_setting 'monoclinic'
loop_
_space_group_symop_operation_xyz
x,y,z
-x,y,1/2-z
-x,-y,-z
x,-y,1/2+z
1/2+x,1/2+y,z
1/2-x,1/2+y,1/2-z
1/2-x,1/2-y,-z
1/2+x,1/2-y,1/2+z
loop_
_atom_site_type_symbol
_atom_site_label
_atom_site_fract_x
_atom_site_fract_y
_atom_site_fract_z
Si Si1 0.500000 0.088449 0.750000
Si Si2 0.360083 0.036202 0.898707
Si Si3 0.394240 0.852926 0.657460
Si Si4 0.066320 0.995790 0.902635
Si Si5 0.250000 0.750000 0.500000
Si Si6 0.344253 0.122796 0.453749
Si Si7 0.207902 0.894591 0.104660
Si Si8 0.601919 0.352666 0.305942
O O1 0.442559 0.044590 0.832646
O O2 0.433339 0.132194 0.607208
O O3 0.278128 0.072251 0.762797
O O4 0.340596 0.958515 0.924095
O O5 0.381686 0.076391 0.063046
O O6 0.500000 0.842601 0.750000
O O7 0.338973 0.799150 0.528580
O O8 0.349014 0.846872 0.793236
O O9 0.092644 0.069373 0.855118
O O10 0.000000 0.957948 0.750000
O O11 0.154096 0.955112 0.995671
O O12 0.000000 0.000000 0.000000
O O13 0.319936 0.685081 0.558426
O O14 0.261779 0.143581 0.508358
O O15 0.137460 0.852196 0.158297
O O16 0.500000 0.324534 0.250000
#
# Coordination Sequence:
#
# PCOD9271357 Si02
#       8
#     4   8   8   8   4   8   8   8
#     4  10  20  36  58  96 136 174 204 264 330 410
#     4  11  22  37  66 101 145 176 215 275 348 413
#     4  12  25  45  70  99 133 188 233 278 335 416
#     4  11  22  39  69 103 138 171 219 287 362 419
#     4  12  28  46  70  98 128 188 248 280 326 418
#     4  11  24  35  66 103 143 168 218 274 352 411
#     4  11  22  41  64 104 137 175 215 290 361 408
#     4  11  23  45  71  96 140 180 229 287 347 419
#
# _framework density 21.175139000000001
#
# number of rings (size 3 to 8) (size 9 to 14) (size 15 to 20)
#    0.000    0.857    5.714    3.429    4.000    0.000 
#    0.000    0.714    0.000    1.714    0.000    0.000 
#    0.000    0.000    0.000    0.000    0.000    0.000 
#
# Total GULP energy -155869.081458 kJ/mol
# GULP energy per Si atom -5566.752909 kJ/mol
# Density = 2.112694 g / cm^3
# Si number density = 21.175139 Si / 1000 Ang^3
#
#
#
# Elastic Constant Matrix: (Units=GPa)
#
#
# Indices 1 2 3 4 5 6 
#
# 1 148.3489 -0.4021 38.7688 0.0000 3.2135 0.0000
# 2 -0.4021 24.6136 -11.5523 0.0000 9.9885 0.0000
# 3 38.7688 -11.5523 84.5259 0.0000 0.6846 0.0000
# 4 0.0000 0.0000 0.0000 -18.8136 0.0000 10.8172
# 5 3.2135 9.9885 0.6846 0.0000 52.8113 0.0000
# 6 0.0000 0.0000 0.0000 10.8172 0.0000 17.4221
#
#
#
# Elastic Compliance Matrix: (Units=1/GPa)
#
#
# Indices 1 2 3 4 5 6 
#
# 1 0.007721 -0.001588 -0.003758 0.000000 -0.000121 0.000000
# 2 -0.001588 0.047698 0.007321 0.000000 -0.009020 0.000000
# 3 -0.003758 0.007321 0.014566 0.000000 -0.001345 0.000000
# 4 0.000000 0.000000 0.000000 -0.039170 0.000000 0.024320
# 5 -0.000121 -0.009020 -0.001345 0.000000 0.020666 0.000000
# 6 0.000000 0.000000 0.000000 0.024320 0.000000 0.042298
#
#
# Mechanical properties :
#
#
# Convention : Reuss Voigt Hill
#
# Bulk Modulus (GPa) = 13.52554 34.56857 24.04705
# Shear Modulus (GPa) = 43.67764 25.66221 34.66992
#
# Velocity S-wave (km/s) = 4.54661 3.48502 4.05074
# Velocity P-wave (km/s) = 5.82782 5.70564 5.76705
#
# Compressibility (1/GPa) = 0.07393422
#
# Stress axis : x y z
#
# Youngs Moduli (GPa) = 129.51438 20.96513 68.65513
#
# Poissons Ratio (x) = 0.03330 0.25797
# Poissons Ratio (y) = 0.20573 -0.50260
# Poissons Ratio (z) = 0.48665 -0.15348
#
# Static dielectric constant tensor:
#      x y z
#    x 1.787130 0.000000 0.006570 
#    y 0.000000 1.751060 0.000000 
#    z 0.006570 0.000000 1.794710 
# 
# From -- ./inp_files/42296.got.cif
#   From: 2010.05.17/outbox.cif.g08.bks.cpg/sg15_22_cif.got.tgz:42296.got - 2010.06.03 18:47:42.
