data_PCOD9271576
_publ_section_title
;
Structure prediction by ZEFSAII (Michael W. Deem and Ramdas Pophale) SiO2 
 PCOD9271576
Probable space group: C 2/C
;
_chemical_formula_sum "Si O2"
_cell_formula_units_Z 56
_cell_length_a 13.782435
_cell_length_b 13.989887
_cell_length_c 14.297274
_cell_angle_alpha 90.000000
_cell_angle_beta 72.123596
_cell_angle_gamma 90.000000
_cell_volume 2623.632530
_symmetry_space_group_name_H-M "C 2/C"
_symmetry_group_IT_number 15
_symmetry_cell_setting 'monoclinic'
loop_
_space_group_symop_operation_xyz
x,y,z
-x,y,1/2-z
-x,-y,-z
x,-y,1/2+z
1/2+x,1/2+y,z
1/2-x,1/2+y,1/2-z
1/2-x,1/2-y,-z
1/2+x,1/2-y,1/2+z
loop_
_atom_site_type_symbol
_atom_site_label
_atom_site_fract_x
_atom_site_fract_y
_atom_site_fract_z
Si Si1 0.438197 0.144799 0.178667
Si Si2 0.487871 0.055253 0.641289
Si Si3 0.191750 0.218469 0.425316
Si Si4 0.548031 0.767919 0.012222
Si Si5 0.614240 0.695976 0.175581
Si Si6 0.777893 0.645937 0.741556
Si Si7 0.720114 0.443223 0.787313
O O1 0.500000 0.181567 0.250000
O O2 0.337282 0.089423 0.240101
O O3 0.503638 0.056316 0.114210
O O4 0.413730 0.219290 0.104467
O O5 0.500000 0.062237 0.750000
O O6 0.555665 0.129651 0.563727
O O7 0.372840 0.092483 0.662020
O O8 0.250000 0.250000 0.500000
O O9 0.072010 0.244104 0.460821
O O10 0.252746 0.276241 0.326044
O O11 0.191421 0.108507 0.392544
O O12 0.602950 0.695036 0.067042
O O13 0.500000 0.710479 0.250000
O O14 0.678989 0.788359 0.188234
O O15 0.660030 0.606268 0.218649
O O16 0.708844 0.557204 0.790966
#
# Coordination Sequence:
#
# PCOD9271576 Si02
#       7
#     8   8   8   8   8   8   8
#     4  10  21  31  47  81 125 151 181 242 314 352
#     4   9  14  28  49  79 111 140 180 235 290 352
#     4  10  20  36  60  86 118 158 210 247 295 370
#     4  11  18  32  57  83 109 155 199 242 297 353
#     4  11  18  37  63  87 117 153 206 252 296 358
#     4   9  17  33  55  85 115 149 192 244 302 347
#     4  10  21  36  56  88 123 154 194 253 312 356
#
# _framework density 21.344453000000001
#
# number of rings (size 3 to 8) (size 9 to 14) (size 15 to 20)
#    0.000    2.000    5.714    1.286    0.000    0.571 
#    7.714    0.000    0.000    7.714    0.000    0.000 
#    0.000    0.000    0.000    0.000    0.000    0.000 
#
# Total GULP energy -156032.325321 kJ/mol
# GULP energy per Si atom -5572.583047 kJ/mol
# Density = 2.129587 g / cm^3
# Si number density = 21.344453 Si / 1000 Ang^3
#
#
#
# Elastic Constant Matrix: (Units=GPa)
#
#
# Indices 1 2 3 4 5 6 
#
# 1 69.4773 18.4410 19.9834 0.0000 26.7734 0.0000
# 2 18.4410 85.6852 -3.6134 0.0000 10.4042 0.0000
# 3 19.9834 -3.6134 61.4080 0.0000 29.4198 0.0000
# 4 0.0000 0.0000 0.0000 9.9212 0.0000 -1.6152
# 5 26.7734 10.4042 29.4198 0.0000 39.6281 0.0000
# 6 0.0000 0.0000 0.0000 -1.6152 0.0000 24.7257
#
#
#
# Elastic Compliance Matrix: (Units=1/GPa)
#
#
# Indices 1 2 3 4 5 6 
#
# 1 0.020102 -0.002886 -0.000881 0.000000 -0.012169 0.000000
# 2 -0.002886 0.012961 0.003722 0.000000 -0.004216 0.000000
# 3 -0.000881 0.003722 0.026342 0.000000 -0.019938 0.000000
# 4 0.000000 0.000000 0.000000 0.101878 0.000000 0.006655
# 5 -0.012169 -0.004216 -0.019938 0.000000 0.049366 0.000000
# 6 0.000000 0.000000 0.000000 0.006655 0.000000 0.040878
#
#
# Mechanical properties :
#
#
# Convention : Reuss Voigt Hill
#
# Bulk Modulus (GPa) = 16.85943 31.79919 24.32931
# Shear Modulus (GPa) = 18.42372 26.97230 22.69801
#
# Velocity S-wave (km/s) = 2.94115 3.55867 3.26454
# Velocity P-wave (km/s) = 4.41018 5.64056 5.06289
#
# Compressibility (1/GPa) = 0.05931399
#
# Stress axis : x y z
#
# Youngs Moduli (GPa) = 49.74583 77.15718 37.96153
#
# Poissons Ratio (x) = 0.22267 0.03345
# Poissons Ratio (y) = 0.14356 -0.14127
# Poissons Ratio (z) = 0.04384 -0.28714
#
# Static dielectric constant tensor:
#      x y z
#    x 1.815520 0.000000 -0.020570 
#    y 0.000000 1.859480 0.000000 
#    z -0.020570 0.000000 1.826530 
# 
# From -- ./inp_files/153394.got.cif
#   From: 2010.05.17/outbox.cif.g08.bks.cpg/sg15_77_cif.got.tgz:153394.got - 2010.06.03 18:47:42.
