data_PCOD9271416
_publ_section_title
;
Structure prediction by ZEFSAII (Michael W. Deem and Ramdas Pophale) SiO2 
 PCOD9271416
Probable space group: C 2/C
;
_chemical_formula_sum "Si O2"
_cell_formula_units_Z 60
_cell_length_a 11.619346
_cell_length_b 19.708126
_cell_length_c 24.894532
_cell_angle_alpha 90.000000
_cell_angle_beta 151.314533
_cell_angle_gamma 90.000000
_cell_volume 2736.359276
_symmetry_space_group_name_H-M "C 2/C"
_symmetry_group_IT_number 15
_symmetry_cell_setting 'monoclinic'
loop_
_space_group_symop_operation_xyz
x,y,z
-x,y,1/2-z
-x,-y,-z
x,-y,1/2+z
1/2+x,1/2+y,z
1/2-x,1/2+y,1/2-z
1/2-x,1/2-y,-z
1/2+x,1/2-y,1/2+z
loop_
_atom_site_type_symbol
_atom_site_label
_atom_site_fract_x
_atom_site_fract_y
_atom_site_fract_z
Si Si1 0.551589 0.160395 0.379627
Si Si2 0.500000 0.158390 0.750000
Si Si3 0.973303 0.178589 0.357918
Si Si4 0.486648 0.258325 0.456604
Si Si5 0.253311 0.836826 0.364502
Si Si6 0.836842 0.937303 0.635997
Si Si7 0.821141 0.562563 0.981718
Si Si8 0.545539 0.159016 0.884037
O O1 0.499705 0.210394 0.409475
O O2 0.787153 0.191572 0.450019
O O3 0.631001 0.090305 0.439761
O O4 0.304192 0.159037 0.245698
O O5 0.490706 0.123899 0.804687
O O6 0.738431 0.203415 0.853231
O O7 0.052359 0.133448 0.338565
O O8 0.175929 0.158387 0.484366
O O9 0.982408 0.260016 0.353611
O O10 0.536965 0.211996 0.528584
O O11 0.183800 0.885555 0.385775
O O12 0.375029 0.869002 0.361787
O O13 0.000000 0.800627 0.250000
O O14 0.577907 0.934184 0.557155
O O15 0.000000 0.966542 0.750000
O O16 0.803780 0.990238 0.574184
#
# Coordination Sequence:
#
# PCOD9271416 Si02
#       8
#     8   4   8   8   8   8   8   8
#     4  10  20  36  59  85 124 165 201 254 308 380
#     4  12  24  38  56  82 130 158 204 250 300 402
#     4  11  20  36  59  83 123 161 209 252 305 379
#     4  10  22  35  56  87 120 164 204 242 319 377
#     4  11  22  38  58  89 133 164 201 266 312 379
#     4  11  21  36  56  91 128 167 212 254 318 377
#     4  10  22  35  57  89 132 163 205 258 317 373
#     4  11  24  35  58  93 120 171 208 255 320 378
#
# _framework density 21.926946000000001
#
# number of rings (size 3 to 8) (size 9 to 14) (size 15 to 20)
#    0.000    1.333    4.000    2.800    6.533    0.000 
#    0.000    0.000    0.000    0.000    0.000    3.733 
#    4.000    0.000    0.000    0.000    0.000    0.000 
#
# Total GULP energy -167493.253551 kJ/mol
# GULP energy per Si atom -5583.108452 kJ/mol
# Density = 2.187704 g / cm^3
# Si number density = 21.926946 Si / 1000 Ang^3
#
#
#
# Elastic Constant Matrix: (Units=GPa)
#
#
# Indices 1 2 3 4 5 6 
#
# 1 49.2348 -12.7435 33.5369 -0.0001 -0.3158 0.0005
# 2 -12.7435 41.2243 12.8547 0.0003 6.8347 0.0009
# 3 33.5369 12.8547 158.8991 0.0083 13.8317 0.0139
# 4 -0.0001 0.0003 0.0083 18.3683 0.0007 -11.5603
# 5 -0.3158 6.8347 13.8317 0.0007 37.1632 0.0018
# 6 0.0005 0.0009 0.0139 -11.5603 0.0018 3.9370
#
#
#
# Elastic Compliance Matrix: (Units=1/GPa)
#
#
# Indices 1 2 3 4 5 6 
#
# 1 0.027639 0.010515 -0.006755 -0.000017 0.000815 -0.000031
# 2 0.010515 0.029461 -0.004277 -0.000008 -0.003737 -0.000015
# 3 -0.006755 -0.004277 0.008269 0.000024 -0.002349 0.000043
# 4 -0.000017 -0.000008 0.000024 -0.064198 0.000003 -0.188507
# 5 0.000815 -0.003737 -0.002349 0.000003 0.028477 0.000004
# 6 -0.000031 -0.000015 0.000043 -0.188507 0.000004 -0.299521
#
#
# Mechanical properties :
#
#
# Convention : Reuss Voigt Hill
#
# Bulk Modulus (GPa) = 15.54358 35.18382 25.36370
# Shear Modulus (GPa) = -20.21079 26.27438 3.03180
#
# Velocity S-wave (km/s) = -3.03930 3.46536 1.17715
# Velocity P-wave (km/s) = 2.28304 5.66501 3.66607
#
# Compressibility (1/GPa) = 0.06433524
#
# Stress axis : x y z
#
# Youngs Moduli (GPa) = 36.18075 33.94278 120.92668
#
# Poissons Ratio (x) = -0.35691 0.81687
# Poissons Ratio (y) = -0.38045 0.51725
# Poissons Ratio (z) = 0.24440 0.14519
#
# Static dielectric constant tensor:
#      x y z
#    x 1.844500 0.000000 -0.048180 
#    y 0.000000 1.845280 0.000000 
#    z -0.048180 0.000000 1.889330 
# 
# From -- ./inp_files/271034.got.cif
#   From: 2010.05.17/outbox.cif.g08.bks.cpg/sg15_136_cif.got.tgz:271034.got - 2010.06.03 18:47:42.
