data_PCOD9271498
_publ_section_title
;
Structure prediction by ZEFSAII (Michael W. Deem and Ramdas Pophale) SiO2 
 PCOD9271498
Probable space group: C 2/C
;
_chemical_formula_sum "Si O2"
_cell_formula_units_Z 60
_cell_length_a 23.148727
_cell_length_b 8.437251
_cell_length_c 16.157261
_cell_angle_alpha 90.000000
_cell_angle_beta 60.102994
_cell_angle_gamma 90.000000
_cell_volume 2735.748980
_symmetry_space_group_name_H-M "C 2/C"
_symmetry_group_IT_number 15
_symmetry_cell_setting 'monoclinic'
loop_
_space_group_symop_operation_xyz
x,y,z
-x,y,1/2-z
-x,-y,-z
x,-y,1/2+z
1/2+x,1/2+y,z
1/2-x,1/2+y,1/2-z
1/2-x,1/2-y,-z
1/2+x,1/2-y,1/2+z
loop_
_atom_site_type_symbol
_atom_site_label
_atom_site_fract_x
_atom_site_fract_y
_atom_site_fract_z
Si Si1 0.227263 0.916519 0.675131
Si Si2 0.378737 0.114925 0.004597
Si Si3 0.449160 0.448870 0.964151
Si Si4 0.799046 0.648992 0.907303
Si Si5 0.000000 0.038266 0.750000
Si Si6 0.638976 0.306181 0.175930
Si Si7 0.745745 0.122238 0.165261
Si Si8 0.133950 0.728725 0.991914
O O1 0.304361 0.889990 0.596467
O O2 0.190514 0.749474 0.683280
O O3 0.227862 0.957279 0.770953
O O4 0.184113 0.037468 0.652236
O O5 0.416852 0.275200 0.002811
O O6 0.364097 0.124809 0.915986
O O7 0.404487 0.934659 0.002122
O O8 0.478273 0.446337 0.849051
O O9 0.399764 0.600913 0.999378
O O10 0.500000 0.500000 0.000000
O O11 0.758113 0.497169 0.908096
O O12 0.750000 0.750000 0.000000
O O13 0.062352 0.145250 0.734854
O O14 0.670687 0.190901 0.222187
O O15 0.648792 0.229556 0.079055
O O16 0.796570 0.262030 0.106528
#
# Coordination Sequence:
#
# PCOD9271498 Si02
#       8
#     8   8   8   8   4   8   8   8
#     4  11  23  36  65 105 143 175 233 302 358 424
#     4  11  22  44  69 100 134 186 240 292 360 421
#     4  11  27  48  74  98 145 193 240 297 360 441
#     4  10  20  36  59  91 137 180 220 280 358 426
#     4  10  26  48  72 100 136 204 236 286 366 442
#     4  11  22  43  69  96 142 182 236 288 356 437
#     4  12  22  36  67 107 140 179 228 308 363 413
#     4  11  22  43  70 102 134 185 235 292 364 413
#
# _framework density 21.931837999999999
#
# number of rings (size 3 to 8) (size 9 to 14) (size 15 to 20)
#    0.000    1.067    2.667    6.000    3.733    0.533 
#    0.000    2.667    0.000    0.000    0.000    0.000 
#    0.000    0.000    0.000    0.000    0.000    0.000 
#
# Total GULP energy -167224.783527 kJ/mol
# GULP energy per Si atom -5574.159451 kJ/mol
# Density = 2.188192 g / cm^3
# Si number density = 21.931838 Si / 1000 Ang^3
#
#
#
# Elastic Constant Matrix: (Units=GPa)
#
#
# Indices 1 2 3 4 5 6 
#
# 1 108.7890 62.1474 29.6710 0.0000 5.7371 0.0001
# 2 62.1474 161.7277 22.6266 0.0000 -1.8867 0.0001
# 3 29.6710 22.6266 51.4592 0.0000 -10.2371 0.0000
# 4 0.0000 0.0000 0.0000 11.4602 0.0000 9.7121
# 5 5.7371 -1.8867 -10.2371 0.0000 20.4762 0.0000
# 6 0.0001 0.0001 0.0000 9.7121 0.0000 30.3179
#
#
#
# Elastic Compliance Matrix: (Units=1/GPa)
#
#
# Indices 1 2 3 4 5 6 
#
# 1 0.014396 -0.004512 -0.007997 0.000000 -0.008448 0.000000
# 2 -0.004512 0.008019 -0.000584 0.000000 0.001711 0.000000
# 3 -0.007997 -0.000584 0.027468 0.000000 0.015920 0.000000
# 4 0.000000 0.000000 0.000000 0.119775 0.000000 -0.038369
# 5 -0.008448 0.001711 0.015920 0.000000 0.059321 0.000000
# 6 0.000000 0.000000 0.000000 -0.038369 0.000000 0.045275
#
#
# Mechanical properties :
#
#
# Convention : Reuss Voigt Hill
#
# Bulk Modulus (GPa) = 42.20055 61.20731 51.70393
# Shear Modulus (GPa) = 16.21596 26.28624 21.25110
#
# Velocity S-wave (km/s) = 2.72210 3.46575 3.11619
# Velocity P-wave (km/s) = 5.40030 6.63203 6.04761
#
# Compressibility (1/GPa) = 0.02369637
#
# Stress axis : x y z
#
# Youngs Moduli (GPa) = 69.46278 124.70973 36.40610
#
# Poissons Ratio (x) = 0.56265 0.29116
# Poissons Ratio (y) = 0.31340 0.02126
# Poissons Ratio (z) = 0.55553 0.07283
#
# Static dielectric constant tensor:
#      x y z
#    x 1.810300 0.000000 0.015520 
#    y 0.000000 1.902660 0.000000 
#    z 0.015520 0.000000 1.877390 
# 
# From -- ./inp_files/214269.got.cif
#   From: 2010.05.17/outbox.cif.g08.bks.cpg/sg15_108_cif.got.tgz:214269.got - 2010.06.03 18:47:42.
