data_PCOD9271280
_publ_section_title
;
Structure prediction by ZEFSAII (Michael W. Deem and Ramdas Pophale) SiO2 
 PCOD9271280
Probable space group: C 2/C
;
_chemical_formula_sum "Si O2"
_cell_formula_units_Z 64
_cell_length_a 30.194563
_cell_length_b 5.378850
_cell_length_c 18.416168
_cell_angle_alpha 90.000000
_cell_angle_beta 67.953360
_cell_angle_gamma 90.000000
_cell_volume 2772.300540
_symmetry_space_group_name_H-M "C 2/C"
_symmetry_group_IT_number 15
_symmetry_cell_setting 'monoclinic'
loop_
_space_group_symop_operation_xyz
x,y,z
-x,y,1/2-z
-x,-y,-z
x,-y,1/2+z
1/2+x,1/2+y,z
1/2-x,1/2+y,1/2-z
1/2-x,1/2-y,-z
1/2+x,1/2-y,1/2+z
loop_
_atom_site_type_symbol
_atom_site_label
_atom_site_fract_x
_atom_site_fract_y
_atom_site_fract_z
Si Si1 0.550095 0.713925 0.943529
Si Si2 0.403335 0.694036 0.828676
Si Si3 0.871338 0.033166 0.694343
Si Si4 0.123482 0.430090 0.458394
Si Si5 0.701958 0.070190 0.320818
Si Si6 0.792916 0.293115 0.321017
Si Si7 0.458300 0.381215 0.421909
Si Si8 0.645404 0.810359 0.089730
O O1 0.582999 0.498738 0.886290
O O2 0.584993 0.942938 0.929862
O O3 0.503677 0.765761 0.924540
O O4 0.537026 0.632600 0.033819
O O5 0.396106 0.676093 0.747099
O O6 0.452769 0.622013 0.838873
O O7 0.369312 0.472335 0.882398
O O8 0.390164 0.978401 0.856293
O O9 0.840727 0.823610 0.754794
O O10 0.833023 0.197185 0.673060
O O11 0.168834 0.365214 0.381326
O O12 0.092419 0.232937 0.521366
O O13 0.143839 0.627929 0.505417
O O14 0.747687 0.115750 0.342215
O O15 0.719485 0.006542 0.229031
O O16 0.806257 0.360946 0.394612
#
# Coordination Sequence:
#
# PCOD9271280 Si02
#       8
#     8   8   8   8   8   8   8   8
#     4  10  20  36  58  87 113 154 201 246 300 359
#     4  10  20  38  61  86 120 163 194 248 303 363
#     4  10  21  36  58  82 118 152 200 247 299 359
#     4  10  21  37  58  86 117 156 199 248 303 361
#     4  11  21  36  59  86 115 152 206 245 303 357
#     4  11  21  37  59  84 119 158 200 252 303 360
#     4  10  20  36  60  83 119 152 199 245 303 359
#     4  10  21  38  62  85 123 159 200 243 312 350
#
# _framework density 23.085519000000001
#
# number of rings (size 3 to 8) (size 9 to 14) (size 15 to 20)
#    0.000    1.750    3.750    1.125    0.000    1.000 
#    0.000    0.000    0.000    6.000    0.000    0.000 
#    0.000    0.000    0.000    0.000    0.000    0.000 
#
# Total GULP energy -178236.283778 kJ/mol
# GULP energy per Si atom -5569.883868 kJ/mol
# Density = 2.303298 g / cm^3
# Si number density = 23.085519 Si / 1000 Ang^3
#
#
#
# Elastic Constant Matrix: (Units=GPa)
#
#
# Indices 1 2 3 4 5 6 
#
# 1 140.3877 -0.6999 42.1149 0.0000 31.3228 0.0000
# 2 -0.6999 35.8043 4.5095 0.0004 -6.5784 0.0000
# 3 42.1149 4.5095 64.3487 0.0000 5.0651 0.0000
# 4 0.0000 0.0004 0.0000 28.8864 0.0000 8.1224
# 5 31.3228 -6.5784 5.0651 0.0000 33.7109 0.0000
# 6 0.0000 0.0000 0.0000 8.1224 0.0000 19.5656
#
#
#
# Elastic Compliance Matrix: (Units=1/GPa)
#
#
# Indices 1 2 3 4 5 6 
#
# 1 0.011219 -0.000718 -0.006538 0.000000 -0.009582 0.000000
# 2 -0.000718 0.029419 -0.002121 0.000000 0.006726 0.000000
# 3 -0.006538 -0.002121 0.019756 0.000000 0.002692 0.000000
# 4 0.000000 0.000000 0.000000 0.039193 0.000000 -0.016271
# 5 -0.009582 0.006726 0.002692 0.000000 0.039475 0.000000
# 6 0.000000 0.000000 0.000000 -0.016271 0.000000 0.057865
#
#
# Mechanical properties :
#
#
# Convention : Reuss Voigt Hill
#
# Bulk Modulus (GPa) = 24.01575 36.93220 30.47397
# Shear Modulus (GPa) = 21.78079 29.40699 25.59389
#
# Velocity S-wave (km/s) = 3.07495 3.57295 3.33326
# Velocity P-wave (km/s) = 4.79923 5.74926 5.29559
#
# Compressibility (1/GPa) = 0.04163935
#
# Stress axis : x y z
#
# Youngs Moduli (GPa) = 89.13702 33.99205 50.61761
#
# Poissons Ratio (x) = 0.02440 0.33093
# Poissons Ratio (y) = 0.06398 0.10738
# Poissons Ratio (z) = 0.58277 0.07211
#
# Static dielectric constant tensor:
#      x y z
#    x 1.909170 0.000000 0.028900 
#    y 0.000000 1.958530 0.000000 
#    z 0.028900 0.000000 1.948760 
# 
# From -- ./inp_files/258435.got.cif
#   From: 2010.05.17/outbox.cif.g08.bks.cpg/sg15_130_cif.got.tgz:258435.got - 2010.06.03 18:47:42.
