data_PCOD9271662
_publ_section_title
;
Structure prediction by ZEFSAII (Michael W. Deem and Ramdas Pophale) SiO2 
 PCOD9271662
Probable space group: C 2/C
;
_chemical_formula_sum "Si O2"
_cell_formula_units_Z 40
_cell_length_a 7.510951
_cell_length_b 17.022416
_cell_length_c 14.244433
_cell_angle_alpha 90.000000
_cell_angle_beta 71.947665
_cell_angle_gamma 90.000000
_cell_volume 1731.563917
_symmetry_space_group_name_H-M "C 2/C"
_symmetry_group_IT_number 15
_symmetry_cell_setting 'monoclinic'
loop_
_space_group_symop_operation_xyz
x,y,z
-x,y,1/2-z
-x,-y,-z
x,-y,1/2+z
1/2+x,1/2+y,z
1/2-x,1/2+y,1/2-z
1/2-x,1/2-y,-z
1/2+x,1/2-y,1/2+z
loop_
_atom_site_type_symbol
_atom_site_label
_atom_site_fract_x
_atom_site_fract_y
_atom_site_fract_z
Si Si1 0.412411 0.221608 0.899345
Si Si2 0.389315 0.079062 0.533574
Si Si3 0.393940 0.335548 0.170493
Si Si4 0.129001 0.148504 0.447721
Si Si5 0.000506 0.997381 0.852692
O O1 0.501361 0.139518 0.918726
O O2 0.296296 0.209155 0.823110
O O3 0.576060 0.285768 0.881650
O O4 0.250000 0.250000 0.000000
O O5 0.337140 0.125447 0.445763
O O6 0.500000 0.000000 0.500000
O O7 0.192962 0.044577 0.603320
O O8 0.500000 0.317759 0.250000
O O9 0.354289 0.429844 0.172388
O O10 0.534553 0.321595 0.060063
O O11 0.036328 0.068018 0.424642
O O12 0.000000 0.959221 0.750000
#
# Coordination Sequence:
#
# PCOD9271662 Si02
#       5
#     8   8   8   8   8
#     4  10  20  36  60  91 124 158 200 260 319 374
#     4  11  20  36  65  92 120 168 213 253 312 382
#     4   9  18  36  62  86 117 160 207 253 307 377
#     4  10  20  38  60  89 127 163 204 262 319 370
#     4  10  21  40  61  88 124 165 210 262 312 373
#
# _framework density 23.100504999999998
#
# number of rings (size 3 to 8) (size 9 to 14) (size 15 to 20)
#    0.000    2.000    0.000    6.600    0.000    0.000 
#    0.000   26.000    0.000    2.400    0.000    0.000 
#    0.000    0.000    0.000    0.000    0.000    0.000 
#
# Total GULP energy -111619.904616 kJ/mol
# GULP energy per Si atom -5580.995231 kJ/mol
# Density = 2.304793 g / cm^3
# Si number density = 23.100505 Si / 1000 Ang^3
#
#
#
# Elastic Constant Matrix: (Units=GPa)
#
#
# Indices 1 2 3 4 5 6 
#
# 1 115.6401 63.9948 55.7924 0.0000 47.6640 0.0000
# 2 63.9948 133.5572 52.1806 0.0000 38.2088 0.0000
# 3 55.7924 52.1806 113.9879 0.0000 42.9719 0.0000
# 4 0.0000 0.0000 0.0000 30.2265 0.0000 19.2367
# 5 47.6640 38.2088 42.9719 0.0000 44.7911 0.0000
# 6 0.0000 0.0000 0.0000 19.2367 0.0000 57.7985
#
#
#
# Elastic Compliance Matrix: (Units=1/GPa)
#
#
# Indices 1 2 3 4 5 6 
#
# 1 0.016969 -0.003682 -0.001562 0.000000 -0.013419 0.000000
# 2 -0.003682 0.011039 -0.001846 0.000000 -0.003728 0.000000
# 3 -0.001562 -0.001846 0.014353 0.000000 -0.010534 0.000000
# 4 0.000000 0.000000 0.000000 0.041974 0.000000 -0.013970
# 5 -0.013419 -0.003728 -0.010534 0.000000 0.049892 0.000000
# 6 0.000000 0.000000 0.000000 -0.013970 0.000000 0.021951
#
#
# Mechanical properties :
#
#
# Convention : Reuss Voigt Hill
#
# Bulk Modulus (GPa) = 35.48230 78.56898 57.02564
# Shear Modulus (GPa) = 27.81598 39.31104 33.56351
#
# Velocity S-wave (km/s) = 3.47382 4.12969 3.81587
# Velocity P-wave (km/s) = 5.61099 7.53822 6.64485
#
# Compressibility (1/GPa) = 0.02818307
#
# Stress axis : x y z
#
# Youngs Moduli (GPa) = 58.92954 90.58455 69.66976
#
# Poissons Ratio (x) = 0.33353 0.10880
# Poissons Ratio (y) = 0.21698 0.12861
# Poissons Ratio (z) = 0.09203 0.16722
#
# Static dielectric constant tensor:
#      x y z
#    x 1.972880 0.000000 -0.048580 
#    y 0.000000 1.895810 0.000000 
#    z -0.048580 0.000000 1.998980 
# 
# From -- ./inp_files/133912.got.cif
#   From: 2010.05.17/outbox.cif.g08.bks.cpg/sg15_67_cif.got.tgz:133912.got - 2010.06.03 18:47:42.
