data_PCOD9271235
_publ_section_title
;
Structure prediction by ZEFSAII (Michael W. Deem and Ramdas Pophale) SiO2 
 PCOD9271235
Probable space group: C 2/C
;
_chemical_formula_sum "Si O2"
_cell_formula_units_Z 48
_cell_length_a 10.022517
_cell_length_b 15.155280
_cell_length_c 14.971271
_cell_angle_alpha 90.000000
_cell_angle_beta 92.642499
_cell_angle_gamma 90.000000
_cell_volume 2271.628893
_symmetry_space_group_name_H-M "C 2/C"
_symmetry_group_IT_number 15
_symmetry_cell_setting 'monoclinic'
loop_
_space_group_symop_operation_xyz
x,y,z
-x,y,1/2-z
-x,-y,-z
x,-y,1/2+z
1/2+x,1/2+y,z
1/2-x,1/2+y,1/2-z
1/2-x,1/2-y,-z
1/2+x,1/2-y,1/2+z
loop_
_atom_site_type_symbol
_atom_site_label
_atom_site_fract_x
_atom_site_fract_y
_atom_site_fract_z
Si Si1 0.528463 0.396651 0.421042
Si Si2 0.782272 0.017528 0.009443
Si Si3 0.500000 0.525351 0.250000
Si Si4 0.710731 0.931066 0.707769
Si Si5 0.500000 0.077479 0.750000
Si Si6 0.114343 0.268446 0.613902
Si Si7 0.875912 0.650973 0.582689
O O1 0.662804 0.419060 0.479142
O O2 0.409177 0.421650 0.485722
O O3 0.514575 0.464118 0.337953
O O4 0.504877 0.300963 0.381071
O O5 0.734256 0.043633 0.105235
O O6 0.671968 0.050042 0.937833
O O7 0.640547 0.576749 0.246462
O O8 0.632307 0.839675 0.692328
O O9 0.626246 0.011542 0.745141
O O10 0.484865 0.139274 0.662536
O O11 0.092021 0.310538 0.514209
O O12 0.252646 0.211386 0.613598
#
# Coordination Sequence:
#
# PCOD9271235 Si02
#       7
#     8   8   4   8   4   8   8
#     4   9  16  31  58  84 111 147 193 240 279 329
#     4   8  16  32  54  78 106 150 192 220 274 354
#     4  10  20  36  58  84 116 156 196 234 284 348
#     4  10  21  35  56  83 114 152 193 237 286 339
#     4  12  24  38  56  86 122 154 190 244 298 338
#     4   9  18  35  58  84 113 149 192 240 289 341
#     4   9  19  36  55  77 113 154 191 231 289 356
#
# _framework density 21.130213999999999
#
# number of rings (size 3 to 8) (size 9 to 14) (size 15 to 20)
#    0.000    2.667    0.000    3.000    0.000    4.000 
#    0.000    1.667    0.000    5.000    0.000    0.000 
#    0.000    0.000    0.000    0.000    0.000    0.000 
#
# Total GULP energy -133609.155848 kJ/mol
# GULP energy per Si atom -5567.048160 kJ/mol
# Density = 2.108212 g / cm^3
# Si number density = 21.130214 Si / 1000 Ang^3
#
#
#
# Elastic Constant Matrix: (Units=GPa)
#
#
# Indices 1 2 3 4 5 6 
#
# 1 36.3988 17.4648 18.0118 0.0000 6.7963 0.0000
# 2 17.4648 91.1774 31.1517 0.0000 20.3768 0.0000
# 3 18.0118 31.1517 90.6310 0.0000 17.5760 0.0000
# 4 0.0000 0.0000 0.0000 23.8735 0.0000 1.5234
# 5 6.7963 20.3768 17.5760 0.0000 33.8971 0.0000
# 6 0.0000 0.0000 0.0000 1.5234 0.0000 20.3183
#
#
#
# Elastic Compliance Matrix: (Units=1/GPa)
#
#
# Indices 1 2 3 4 5 6 
#
# 1 0.032072 -0.004228 -0.004632 0.000000 -0.001487 0.000000
# 2 -0.004228 0.014121 -0.002814 0.000000 -0.006181 0.000000
# 3 -0.004632 -0.002814 0.013801 0.000000 -0.004535 0.000000
# 4 0.000000 0.000000 0.000000 0.042089 0.000000 -0.003156
# 5 -0.001487 -0.006181 -0.004535 0.000000 0.035867 0.000000
# 6 0.000000 0.000000 0.000000 -0.003156 0.000000 0.049453
#
#
# Mechanical properties :
#
#
# Convention : Reuss Voigt Hill
#
# Bulk Modulus (GPa) = 27.28974 39.05155 33.17065
# Shear Modulus (GPa) = 22.42477 25.72304 24.07390
#
# Velocity S-wave (km/s) = 3.26124 3.49285 3.37903
# Velocity P-wave (km/s) = 5.20807 5.89815 5.56382
#
# Compressibility (1/GPa) = 0.03664381
#
# Stress axis : x y z
#
# Youngs Moduli (GPa) = 31.17966 70.81850 72.45691
#
# Poissons Ratio (x) = 0.29945 0.33564
# Poissons Ratio (y) = 0.13184 0.20393
# Poissons Ratio (z) = 0.14443 0.19932
#
# Static dielectric constant tensor:
#      x y z
#    x 1.821880 0.000000 0.010820 
#    y 0.000000 1.831080 0.000000 
#    z 0.010820 0.000000 1.772070 
# 
# From -- ./inp_files/197230.got.cif
#   From: 2010.05.17/outbox.cif.g08.bks.cpg/sg15_99_cif.got.tgz:197230.got - 2010.06.03 18:47:42.
