data_PCOD9271078
_publ_section_title
;
Structure prediction by ZEFSAII (Michael W. Deem and Ramdas Pophale) SiO2 
 PCOD9271078
Probable space group: C 2/C
;
_chemical_formula_sum "Si O2"
_cell_formula_units_Z 28
_cell_length_a 16.926742
_cell_length_b 13.622855
_cell_length_c 5.771358
_cell_angle_alpha 90.000000
_cell_angle_beta 58.308750
_cell_angle_gamma 90.000000
_cell_volume 1132.383756
_symmetry_space_group_name_H-M "C 2/C"
_symmetry_group_IT_number 15
_symmetry_cell_setting 'monoclinic'
loop_
_space_group_symop_operation_xyz
x,y,z
-x,y,1/2-z
-x,-y,-z
x,-y,1/2+z
1/2+x,1/2+y,z
1/2-x,1/2+y,1/2-z
1/2-x,1/2-y,-z
1/2+x,1/2-y,1/2+z
loop_
_atom_site_type_symbol
_atom_site_label
_atom_site_fract_x
_atom_site_fract_y
_atom_site_fract_z
Si Si1 0.000000 0.246337 0.750000
Si Si2 0.673898 0.838972 0.635628
Si Si3 0.435699 0.592615 0.163420
Si Si4 0.235203 0.630886 0.540327
O O1 0.933863 0.307267 0.686358
O O2 0.072767 0.169658 0.527771
O O3 0.750000 0.750000 0.500000
O O4 0.682483 0.885818 0.364247
O O5 0.695519 0.892245 0.845780
O O6 0.500000 0.646232 0.250000
O O7 0.333838 0.574682 0.412857
O O8 0.500000 0.500000 0.000000
O O9 0.250000 0.750000 0.500000
#
# Coordination Sequence:
#
# PCOD9271078 Si02
#       4
#     4   8   8   8
#     4  12  22  36  60  86 126 162 214 254 320 374
#     4  10  20  36  57  81 114 165 200 261 309 365
#     4  12  24  35  55  88 129 168 203 250 320 391
#     4  10  20  38  55  75 121 166 202 248 310 373
#
# _framework density 24.726597999999999
#
# number of rings (size 3 to 8) (size 9 to 14) (size 15 to 20)
#    0.000    1.143    7.143    3.429    0.000    0.000 
#    0.000    0.000    0.000    0.000    0.000    0.000 
#    0.000   59.429    0.000    0.000    0.000    0.000 
#
# Total GULP energy -78033.701603 kJ/mol
# GULP energy per Si atom -5573.835829 kJ/mol
# Density = 2.467032 g / cm^3
# Si number density = 24.726598 Si / 1000 Ang^3
#
#
#
# Elastic Constant Matrix: (Units=GPa)
#
#
# Indices 1 2 3 4 5 6 
#
# 1 151.3775 29.8448 44.8130 0.0000 6.6930 0.0000
# 2 29.8448 84.0519 24.1398 0.0000 -4.3372 0.0000
# 3 44.8130 24.1398 156.5970 0.0000 29.0979 0.0000
# 4 0.0000 0.0000 0.0000 15.2958 0.0000 -15.8343
# 5 6.6930 -4.3372 29.0979 0.0000 57.5354 0.0000
# 6 0.0000 0.0000 0.0000 -15.8343 0.0000 6.7554
#
#
#
# Elastic Compliance Matrix: (Units=1/GPa)
#
#
# Indices 1 2 3 4 5 6 
#
# 1 0.007576 -0.002178 -0.001808 0.000000 -0.000131 0.000000
# 2 -0.002178 0.013310 -0.001835 0.000000 0.002185 0.000000
# 3 -0.001808 -0.001835 0.007917 0.000000 -0.003932 0.000000
# 4 0.000000 0.000000 0.000000 -0.045831 0.000000 -0.107427
# 5 -0.000131 0.002185 -0.003932 0.000000 0.019549 0.000000
# 6 0.000000 0.000000 0.000000 -0.107427 0.000000 -0.103773
#
#
# Mechanical properties :
#
#
# Convention : Reuss Voigt Hill
#
# Bulk Modulus (GPa) = 58.26596 65.51351 61.88974
# Shear Modulus (GPa) = -59.60134 35.46590 -12.06772
#
# Velocity S-wave (km/s) = -4.91492 3.79135 -2.21157
# Velocity P-wave (km/s) = 2.93145 6.76154 4.30843
#
# Compressibility (1/GPa) = 0.01716268
#
# Stress axis : x y z
#
# Youngs Moduli (GPa) = 131.98906 75.13002 126.31710
#
# Poissons Ratio (x) = 0.16361 0.22839
# Poissons Ratio (y) = 0.28743 0.23173
# Poissons Ratio (z) = 0.23864 0.13783
#
# Static dielectric constant tensor:
#      x y z
#    x 1.994840 0.000000 0.316670 
#    y 0.000000 2.018420 0.000000 
#    z 0.316670 0.000000 1.509170 
# 
# From -- ./inp_files/6376.got.cif
#   From: 2010.05.17/outbox.cif.g08.bks.cpg/sg15_4_cif.got.tgz:6376.got - 2010.06.03 18:47:42.
