data_PCOD9271740
_publ_section_title
;
Structure prediction by ZEFSAII (Michael W. Deem and Ramdas Pophale) SiO2 
 PCOD9271740
Probable space group: C 2/C
;
_chemical_formula_sum "Si O2"
_cell_formula_units_Z 48
_cell_length_a 18.233388
_cell_length_b 10.720981
_cell_length_c 13.046710
_cell_angle_alpha 90.000000
_cell_angle_beta 90.524592
_cell_angle_gamma 90.000000
_cell_volume 2550.261446
_symmetry_space_group_name_H-M "C 2/C"
_symmetry_group_IT_number 15
_symmetry_cell_setting 'monoclinic'
loop_
_space_group_symop_operation_xyz
x,y,z
-x,y,1/2-z
-x,-y,-z
x,-y,1/2+z
1/2+x,1/2+y,z
1/2-x,1/2+y,1/2-z
1/2-x,1/2-y,-z
1/2+x,1/2-y,1/2+z
loop_
_atom_site_type_symbol
_atom_site_label
_atom_site_fract_x
_atom_site_fract_y
_atom_site_fract_z
Si Si1 0.670357 0.094418 0.045408
Si Si2 0.176123 0.824968 0.895923
Si Si3 0.561891 0.106516 0.522300
Si Si4 0.424071 0.472833 0.443123
Si Si5 0.468338 0.225700 0.357199
Si Si6 0.422855 0.700135 0.302913
O O1 0.745209 0.107811 0.109318
O O2 0.602434 0.146372 0.110920
O O3 0.640378 0.960291 0.008456
O O4 0.681382 0.190017 0.951274
O O5 0.136116 0.800752 0.788472
O O6 0.128635 0.910520 0.973117
O O7 0.533101 0.209367 0.441672
O O8 0.563181 0.171877 0.633644
O O9 0.500000 0.000000 0.500000
O O10 0.500000 0.500000 0.500000
O O11 0.440720 0.367331 0.358627
O O12 0.399109 0.597015 0.385734
O O13 0.500000 0.185213 0.250000
O O14 0.500000 0.665594 0.250000
#
# Coordination Sequence:
#
# PCOD9271740 Si02
#       6
#     8   8   8   8   8   8
#     4   9  21  43  59  84 122 157 195 245 301 358
#     4  10  22  42  62  83 121 166 197 241 303 363
#     4  10  21  37  58  90 118 146 199 249 295 353
#     4  11  20  37  59  87 119 154 204 248 287 349
#     4  10  20  36  61  87 117 151 198 249 297 347
#     4  12  21  36  65  89 117 160 205 244 301 361
#
# _framework density 18.821601000000001
#
# number of rings (size 3 to 8) (size 9 to 14) (size 15 to 20)
#    0.000    1.667    3.333    2.500    0.000    5.333 
#   12.000    0.833    0.000    0.000    0.000    0.000 
#    0.000    0.000    0.000    0.000    0.000    0.000 
#
# Total GULP energy -133733.903783 kJ/mol
# GULP energy per Si atom -5572.245991 kJ/mol
# Density = 1.877876 g / cm^3
# Si number density = 18.821601 Si / 1000 Ang^3
#
#
#
# Elastic Constant Matrix: (Units=GPa)
#
#
# Indices 1 2 3 4 5 6 
#
# 1 116.1679 15.7094 42.3813 0.0000 21.6852 0.0000
# 2 15.7094 70.3614 16.8527 0.0000 7.1472 0.0000
# 3 42.3813 16.8527 90.8032 0.0000 25.7057 0.0000
# 4 0.0000 0.0000 0.0000 15.7118 0.0000 5.3504
# 5 21.6852 7.1472 25.7057 0.0000 31.9587 0.0000
# 6 0.0000 0.0000 0.0000 5.3504 0.0000 22.4408
#
#
#
# Elastic Compliance Matrix: (Units=1/GPa)
#
#
# Indices 1 2 3 4 5 6 
#
# 1 0.010885 -0.001123 -0.003693 0.000000 -0.004164 0.000000
# 2 -0.001123 0.015040 -0.001982 0.000000 -0.001007 0.000000
# 3 -0.003693 -0.001982 0.015887 0.000000 -0.009829 0.000000
# 4 0.000000 0.000000 0.000000 0.069271 0.000000 -0.016516
# 5 -0.004164 -0.001007 -0.009829 0.000000 0.042247 0.000000
# 6 0.000000 0.000000 0.000000 -0.016516 0.000000 0.048500
#
#
# Mechanical properties :
#
#
# Convention : Reuss Voigt Hill
#
# Bulk Modulus (GPa) = 35.44100 47.46881 41.45491
# Shear Modulus (GPa) = 22.23894 27.51485 24.87689
#
# Velocity S-wave (km/s) = 3.44112 3.82760 3.63949
# Velocity P-wave (km/s) = 5.88721 6.69396 6.30351
#
# Compressibility (1/GPa) = 0.02821591
#
# Stress axis : x y z
#
# Youngs Moduli (GPa) = 91.87192 66.48893 62.94421
#
# Poissons Ratio (x) = 0.07464 0.23246
# Poissons Ratio (y) = 0.10314 0.12477
# Poissons Ratio (z) = 0.33929 0.13180
#
# Static dielectric constant tensor:
#      x y z
#    x 1.647780 0.000000 0.003050 
#    y 0.000000 1.749560 0.000000 
#    z 0.003050 0.000000 1.648680 
# 
# From -- ./inp_files/103669.got.cif
#   From: 2010.05.17/outbox.cif.g08.bks.cpg/sg15_52_cif.got.tgz:103669.got - 2010.06.03 18:47:42.
