data_PCOD9271884
_publ_section_title
;
Structure prediction by ZEFSAII (Michael W. Deem and Ramdas Pophale) SiO2 
 PCOD9271884
Probable space group: C 2/C
;
_chemical_formula_sum "Si O2"
_cell_formula_units_Z 40
_cell_length_a 6.774395
_cell_length_b 22.870299
_cell_length_c 14.875769
_cell_angle_alpha 90.000000
_cell_angle_beta 71.087432
_cell_angle_gamma 90.000000
_cell_volume 2180.316181
_symmetry_space_group_name_H-M "C 2/C"
_symmetry_group_IT_number 15
_symmetry_cell_setting 'monoclinic'
loop_
_space_group_symop_operation_xyz
x,y,z
-x,y,1/2-z
-x,-y,-z
x,-y,1/2+z
1/2+x,1/2+y,z
1/2-x,1/2+y,1/2-z
1/2-x,1/2-y,-z
1/2+x,1/2-y,1/2+z
loop_
_atom_site_type_symbol
_atom_site_label
_atom_site_fract_x
_atom_site_fract_y
_atom_site_fract_z
Si Si1 0.500000 0.719292 0.750000
Si Si2 0.396512 0.454729 0.083377
Si Si3 0.177185 0.653863 0.519919
Si Si4 0.500000 0.953314 0.250000
Si Si5 0.758275 0.384871 0.129749
Si Si6 0.309078 0.262958 0.845631
O O1 0.338717 0.675361 0.821292
O O2 0.608681 0.755878 0.811730
O O3 0.306995 0.399863 0.040454
O O4 0.576250 0.427096 0.120610
O O5 0.196067 0.481452 0.166988
O O6 0.500000 0.500000 0.000000
O O7 0.281489 0.684472 0.419388
O O8 0.165139 0.703727 0.599271
O O9 0.943720 0.630889 0.533624
O O10 0.378133 0.914366 0.195176
O O11 0.500000 0.270199 0.750000
#
# Coordination Sequence:
#
# PCOD9271884 Si02
#       6
#     4   8   8   4   8   8
#     4  12  18  32  64  89 110 159 200 244 304 362
#     4  11  23  40  63  89 120 161 205 255 302 361
#     4  10  23  38  59  90 125 156 202 252 306 367
#     4  10  20  36  62  89 116 149 206 256 298 356
#     4  11  19  37  62  90 115 151 203 247 295 364
#     4  11  22  37  59  91 124 158 199 254 305 359
#
# _framework density 18.345963000000001
#
# number of rings (size 3 to 8) (size 9 to 14) (size 15 to 20)
#    0.000    1.200    6.000    1.200    1.400    5.600 
#    0.000    4.000    0.000    1.200    0.000    0.000 
#    0.000    0.000    0.000    0.000    0.000    0.000 
#
# Total GULP energy -111566.100604 kJ/mol
# GULP energy per Si atom -5578.305030 kJ/mol
# Density = 1.830421 g / cm^3
# Si number density = 18.345963 Si / 1000 Ang^3
#
#
#
# Elastic Constant Matrix: (Units=GPa)
#
#
# Indices 1 2 3 4 5 6 
#
# 1 121.8873 28.9230 50.4715 0.0000 -5.1079 0.0000
# 2 28.9230 47.0800 45.5729 0.0000 -14.1974 0.0000
# 3 50.4715 45.5729 138.0941 0.0000 -25.1230 0.0000
# 4 0.0000 0.0000 0.0000 -6.8435 0.0000 -33.1469
# 5 -5.1079 -14.1974 -25.1230 0.0000 33.7669 0.0000
# 6 0.0000 0.0000 0.0000 -33.1469 0.0000 -15.5415
#
#
#
# Elastic Compliance Matrix: (Units=1/GPa)
#
#
# Indices 1 2 3 4 5 6 
#
# 1 0.010276 -0.004361 -0.002738 0.000000 -0.002316 0.000000
# 2 -0.004361 0.034271 -0.008344 0.000000 0.007542 0.000000
# 3 -0.002738 -0.008344 0.011892 0.000000 0.004925 0.000000
# 4 0.000000 0.000000 0.000000 0.015661 0.000000 -0.033402
# 5 -0.002316 0.007542 0.004925 0.000000 0.036100 0.000000
# 6 0.000000 0.000000 0.000000 -0.033402 0.000000 0.006896
#
#
# Mechanical properties :
#
#
# Convention : Reuss Voigt Hill
#
# Bulk Modulus (GPa) = 39.13499 61.88847 50.51173
# Shear Modulus (GPa) = 32.36288 14.41599 23.38944
#
# Velocity S-wave (km/s) = 4.20460 2.80623 3.57446
# Velocity P-wave (km/s) = 6.70444 6.65637 6.68045
#
# Compressibility (1/GPa) = 0.02555258
#
# Stress axis : x y z
#
# Youngs Moduli (GPa) = 97.31621 29.17952 84.09245
#
# Poissons Ratio (x) = 0.12725 0.23023
# Poissons Ratio (y) = 0.42441 0.70165
# Poissons Ratio (z) = 0.26643 0.24347
#
# Static dielectric constant tensor:
#      x y z
#    x 1.659840 0.000000 -0.038100 
#    y 0.000000 1.596800 0.000000 
#    z -0.038100 0.000000 1.660210 
# 
# From -- ./inp_files/129068.got.cif
#   From: 2010.05.17/outbox.cif.g08.bks.cpg/sg15_65_cif.got.tgz:129068.got - 2010.06.03 18:47:42.
