data_PCOD9271176
_publ_section_title
;
Structure prediction by ZEFSAII (Michael W. Deem and Ramdas Pophale) SiO2 
 PCOD9271176
Probable space group: C 2/C
;
_chemical_formula_sum "Si O2"
_cell_formula_units_Z 56
_cell_length_a 22.255878
_cell_length_b 11.309142
_cell_length_c 13.425346
_cell_angle_alpha 90.000000
_cell_angle_beta 77.955489
_cell_angle_gamma 90.000000
_cell_volume 3304.702884
_symmetry_space_group_name_H-M "C 2/C"
_symmetry_group_IT_number 15
_symmetry_cell_setting 'monoclinic'
loop_
_space_group_symop_operation_xyz
x,y,z
-x,y,1/2-z
-x,-y,-z
x,-y,1/2+z
1/2+x,1/2+y,z
1/2-x,1/2+y,1/2-z
1/2-x,1/2-y,-z
1/2+x,1/2-y,1/2+z
loop_
_atom_site_type_symbol
_atom_site_label
_atom_site_fract_x
_atom_site_fract_y
_atom_site_fract_z
Si Si1 0.231736 0.222326 0.709160
Si Si2 0.304342 0.237699 0.060277
Si Si3 0.295869 0.032348 0.541089
Si Si4 0.021821 0.104544 0.631015
Si Si5 0.631697 0.227845 0.083045
Si Si6 0.591182 0.585405 0.976070
Si Si7 0.304896 0.414980 0.585988
O O1 0.218027 0.204101 0.828678
O O2 0.265723 0.115220 0.638289
O O3 0.168687 0.251848 0.672584
O O4 0.272194 0.341511 0.683384
O O5 0.366687 0.304496 0.006100
O O6 0.313333 0.097250 0.071903
O O7 0.250000 0.250000 0.000000
O O8 0.352887 0.100603 0.469171
O O9 0.244864 0.024579 0.470061
O O10 0.063461 0.222613 0.615505
O O11 0.000000 0.080168 0.750000
O O12 0.963973 0.118894 0.577849
O O13 0.062355 0.995018 0.574103
O O14 0.665858 0.314806 0.994397
O O15 0.639648 0.499166 0.903701
#
# Coordination Sequence:
#
# PCOD9271176 Si02
#       7
#     8   8   8   8   8   8   8
#     4   9  19  31  54  77 103 144 178 204 250 324
#     4  12  23  31  48  80 116 139 164 209 274 320
#     4   9  18  34  52  76 108 139 166 216 262 311
#     4  10  20  36  58  74  96 138 188 226 249 297
#     4   8  16  34  56  75  96 133 184 218 249 298
#     4  10  21  34  50  79 109 134 171 223 266 304
#     4   8  15  33  53  74 103 135 172 211 259 307
#
# _framework density 16.945547000000001
#
# number of rings (size 3 to 8) (size 9 to 14) (size 15 to 20)
#    0.000    2.571    1.429    2.571    2.000    1.143 
#    0.000    0.714    0.000    0.857    0.000    0.000 
#    0.000    0.000    0.000    0.000    0.000    0.000 
#
# Total GULP energy -155942.244571 kJ/mol
# GULP energy per Si atom -5569.365878 kJ/mol
# Density = 1.690698 g / cm^3
# Si number density = 16.945547 Si / 1000 Ang^3
#
#
#
# Elastic Constant Matrix: (Units=GPa)
#
#
# Indices 1 2 3 4 5 6 
#
# 1 113.8758 53.9793 41.4472 0.0000 -4.3113 0.0000
# 2 53.9793 96.1270 27.0507 0.0000 -3.3623 0.0000
# 3 41.4472 27.0507 93.3909 0.0000 -6.6732 0.0000
# 4 0.0000 0.0000 0.0000 15.8749 0.0000 -2.6316
# 5 -4.3113 -3.3623 -6.6732 0.0000 13.8662 0.0000
# 6 0.0000 0.0000 0.0000 -2.6316 0.0000 27.5389
#
#
#
# Elastic Compliance Matrix: (Units=1/GPa)
#
#
# Indices 1 2 3 4 5 6 
#
# 1 0.013246 -0.006287 -0.004010 0.000000 0.000664 0.000000
# 2 -0.006287 0.014329 -0.001296 0.000000 0.000896 0.000000
# 3 -0.004010 -0.001296 0.013206 0.000000 0.004794 0.000000
# 4 0.000000 0.000000 0.000000 0.064006 0.000000 0.006116
# 5 0.000664 0.000896 0.004794 0.000000 0.074849 0.000000
# 6 0.000000 0.000000 0.000000 0.006116 0.000000 0.036897
#
#
# Mechanical properties :
#
#
# Convention : Reuss Voigt Hill
#
# Bulk Modulus (GPa) = 56.83655 60.92757 58.88206
# Shear Modulus (GPa) = 20.35961 23.51711 21.93836
#
# Velocity S-wave (km/s) = 3.46999 3.72937 3.60201
# Velocity P-wave (km/s) = 7.04755 7.38764 7.21960
#
# Compressibility (1/GPa) = 0.01759431
#
# Stress axis : x y z
#
# Youngs Moduli (GPa) = 75.49322 69.78750 75.72567
#
# Poissons Ratio (x) = 0.43872 0.30369
# Poissons Ratio (y) = 0.47459 0.09817
# Poissons Ratio (z) = 0.30276 0.09048
#
# Static dielectric constant tensor:
#      x y z
#    x 1.573870 0.000000 -0.011170 
#    y 0.000000 1.625430 0.000000 
#    z -0.011170 0.000000 1.566160 
# 
# From -- ./inp_files/111087.got.cif
#   From: 2010.05.17/outbox.cif.g08.bks.cpg/sg15_56_cif.got.tgz:111087.got - 2010.06.03 18:47:42.
