data_PCOD9271161
_publ_section_title
;
Structure prediction by ZEFSAII (Michael W. Deem and Ramdas Pophale) SiO2 
 PCOD9271161
Probable space group: C 2/C
;
_chemical_formula_sum "Si O2"
_cell_formula_units_Z 56
_cell_length_a 31.303801
_cell_length_b 10.510422
_cell_length_c 27.415420
_cell_angle_alpha 90.000000
_cell_angle_beta 160.292394
_cell_angle_gamma 90.000000
_cell_volume 3041.765701
_symmetry_space_group_name_H-M "C 2/C"
_symmetry_group_IT_number 15
_symmetry_cell_setting 'monoclinic'
loop_
_space_group_symop_operation_xyz
x,y,z
-x,y,1/2-z
-x,-y,-z
x,-y,1/2+z
1/2+x,1/2+y,z
1/2-x,1/2+y,1/2-z
1/2-x,1/2-y,-z
1/2+x,1/2-y,1/2+z
loop_
_atom_site_type_symbol
_atom_site_label
_atom_site_fract_x
_atom_site_fract_y
_atom_site_fract_z
Si Si1 0.529366 0.749115 0.090182
Si Si2 0.391108 0.585883 0.405989
Si Si3 0.662032 0.991791 0.282066
Si Si4 0.878992 0.587195 0.361946
Si Si5 0.452767 0.503411 0.070616
Si Si6 0.394196 0.396978 0.176840
Si Si7 0.884812 0.408924 0.662218
O O1 0.618681 0.701524 0.141999
O O2 0.493821 0.633537 0.087710
O O3 0.594989 0.863931 0.189896
O O4 0.407896 0.794750 0.928097
O O5 0.500000 0.500000 0.500000
O O6 0.252406 0.525295 0.261835
O O7 0.434160 0.602952 0.508095
O O8 0.633918 0.099310 0.210305
O O9 0.611283 0.026835 0.280586
O O10 0.814638 0.978478 0.446536
O O11 0.000000 0.500000 0.500000
O O12 0.556693 0.459114 0.220707
O O13 0.500000 0.429628 0.250000
O O14 0.392460 0.243489 0.178578
O O15 0.252654 0.436689 0.009303
O O16 0.000000 0.444809 0.750000
#
# Coordination Sequence:
#
# PCOD9271161 Si02
#       7
#     8   8   8   8   8   8   8
#     4  10  20  36  57  91 124 153 194 239 283 355
#     4   9  19  35  55  83 117 152 196 232 275 343
#     4  10  20  38  61  84 121 158 194 238 300 344
#     4   9  19  35  56  81 116 159 190 229 283 341
#     4  10  20  37  62  86 118 161 191 237 298 349
#     4  10  20  40  65  83 112 151 198 244 298 344
#     4  10  22  40  61  89 113 146 199 255 284 343
#
# _framework density 18.410361000000002
#
# number of rings (size 3 to 8) (size 9 to 14) (size 15 to 20)
#    0.000    2.286    1.429    0.857    2.000    1.143 
#   12.857    1.429    0.000    0.000    0.000    0.000 
#    0.000    0.000    0.000    0.000    0.000    0.000 
#
# Total GULP energy -155877.075483 kJ/mol
# GULP energy per Si atom -5567.038410 kJ/mol
# Density = 1.836846 g / cm^3
# Si number density = 18.410361 Si / 1000 Ang^3
#
#
#
# Elastic Constant Matrix: (Units=GPa)
#
#
# Indices 1 2 3 4 5 6 
#
# 1 162.8782 53.5886 87.2001 0.0002 -6.0576 0.0001
# 2 53.5886 46.0896 41.2360 0.0005 -10.7136 0.0004
# 3 87.2001 41.2360 145.9414 0.0000 -2.5964 0.0002
# 4 0.0002 0.0005 0.0000 25.2262 0.0001 -9.2789
# 5 -6.0576 -10.7136 -2.5964 0.0001 37.7464 0.0002
# 6 0.0001 0.0004 0.0002 -9.2789 0.0002 33.5397
#
#
#
# Elastic Compliance Matrix: (Units=1/GPa)
#
#
# Indices 1 2 3 4 5 6 
#
# 1 0.011627 -0.010150 -0.004102 0.000000 -0.001297 0.000000
# 2 -0.010150 0.040311 -0.005157 -0.000001 0.009458 -0.000001
# 3 -0.004102 -0.005157 0.010736 0.000000 -0.001384 0.000000
# 4 0.000000 -0.000001 0.000000 0.044132 0.000000 0.012209
# 5 -0.001297 0.009458 -0.001384 0.000000 0.028874 0.000000
# 6 0.000000 -0.000001 0.000000 0.012209 0.000000 0.033193
#
#
# Mechanical properties :
#
#
# Convention : Reuss Voigt Hill
#
# Bulk Modulus (GPa) = 41.92020 79.88428 60.90224
# Shear Modulus (GPa) = 23.18651 30.82811 27.00731
#
# Velocity S-wave (km/s) = 3.55269 4.09650 3.83425
# Velocity P-wave (km/s) = 6.29668 8.11543 7.26321
#
# Compressibility (1/GPa) = 0.02385485
#
# Stress axis : x y z
#
# Youngs Moduli (GPa) = 86.00633 24.80729 93.14707
#
# Poissons Ratio (x) = 0.25179 0.38212
# Poissons Ratio (y) = 0.87297 0.48035
# Poissons Ratio (z) = 0.35283 0.12793
#
# Static dielectric constant tensor:
#      x y z
#    x 1.643050 0.000000 0.005000 
#    y 0.000000 1.680790 0.000000 
#    z 0.005000 0.000000 1.647200 
# 
# From -- ./inp_files/304296.got.cif
#   From: 2010.05.17/outbox.cif.g08.bks.cpg/sg15_153_cif.got.tgz:304296.got - 2010.06.03 18:47:42.
