data_PCOD9271340
_publ_section_title
;
Structure prediction by ZEFSAII (Michael W. Deem and Ramdas Pophale) SiO2 
 PCOD9271340
Probable space group: C 2/C
;
_chemical_formula_sum "Si O2"
_cell_formula_units_Z 52
_cell_length_a 18.705530
_cell_length_b 19.213676
_cell_length_c 15.716412
_cell_angle_alpha 90.000000
_cell_angle_beta 149.263414
_cell_angle_gamma 90.000000
_cell_volume 2886.907428
_symmetry_space_group_name_H-M "C 2/C"
_symmetry_group_IT_number 15
_symmetry_cell_setting 'monoclinic'
loop_
_space_group_symop_operation_xyz
x,y,z
-x,y,1/2-z
-x,-y,-z
x,-y,1/2+z
1/2+x,1/2+y,z
1/2-x,1/2+y,1/2-z
1/2-x,1/2-y,-z
1/2+x,1/2-y,1/2+z
loop_
_atom_site_type_symbol
_atom_site_label
_atom_site_fract_x
_atom_site_fract_y
_atom_site_fract_z
Si Si1 0.525229 0.694915 0.088812
Si Si2 0.000000 0.738645 0.750000
Si Si3 0.500000 0.000545 0.750000
Si Si4 0.201893 0.324405 0.224886
Si Si5 0.399465 0.037940 0.966502
Si Si6 0.000000 0.061489 0.250000
Si Si7 0.401436 0.534437 0.328297
Si Si8 0.703814 0.876041 0.418132
O O1 0.515947 0.722079 0.176983
O O2 0.617748 0.752282 0.135141
O O3 0.591905 0.618141 0.155945
O O4 0.368363 0.688631 0.890998
O O5 0.133993 0.687095 0.898321
O O6 0.371844 0.052967 0.634888
O O7 0.470573 0.961315 0.632170
O O8 0.143860 0.384165 0.104289
O O9 0.177602 0.356804 0.293894
O O10 0.255209 0.994051 0.824013
O O11 0.500000 0.000000 0.000000
O O12 0.034464 0.019367 0.199719
O O13 0.134844 0.108951 0.404204
O O14 0.500000 0.500000 0.500000
#
# Coordination Sequence:
#
# PCOD9271340 Si02
#       8
#     8   4   4   8   8   4   8   8
#     4  11  24  37  60  90 130 170 205 257 323 380
#     4   9  23  34  56  90 135 169 200 238 316 416
#     4  11  22  38  65  89 125 172 210 268 315 370
#     4  11  24  39  59  92 128 163 211 256 319 390
#     4  12  25  43  66  93 129 170 219 264 315 382
#     4  12  21  36  63  95 130 167 208 262 317 378
#     4  12  25  42  65  95 129 166 213 269 316 380
#     4  10  20  36  58  92 130 168 203 247 318 392
#
# _framework density 18.012354999999999
#
# number of rings (size 3 to 8) (size 9 to 14) (size 15 to 20)
#    0.000    0.923    6.154    0.462    4.308    1.231 
#    0.000    0.000    0.000    1.846    0.000    0.000 
#    0.000    0.000    0.000    0.000    0.000    0.000 
#
# Total GULP energy -145276.213425 kJ/mol
# GULP energy per Si atom -5587.546670 kJ/mol
# Density = 1.797136 g / cm^3
# Si number density = 18.012355 Si / 1000 Ang^3
#
#
#
# Elastic Constant Matrix: (Units=GPa)
#
#
# Indices 1 2 3 4 5 6 
#
# 1 100.8115 52.6204 63.4805 0.0000 1.1912 0.0000
# 2 52.6204 121.1731 57.4133 0.0000 -4.8397 0.0000
# 3 63.4805 57.4133 104.8825 0.0000 0.0289 0.0000
# 4 0.0000 0.0000 0.0000 27.9268 0.0000 0.1488
# 5 1.1912 -4.8397 0.0289 0.0000 39.5964 0.0000
# 6 0.0000 0.0000 0.0000 0.1488 0.0000 28.9697
#
#
#
# Elastic Compliance Matrix: (Units=1/GPa)
#
#
# Indices 1 2 3 4 5 6 
#
# 1 0.017032 -0.003442 -0.008424 0.000000 -0.000927 0.000000
# 2 -0.003442 0.011913 -0.004438 0.000000 0.001563 0.000000
# 3 -0.008424 -0.004438 0.017063 0.000000 -0.000302 0.000000
# 4 0.000000 0.000000 0.000000 0.035809 0.000000 -0.000184
# 5 -0.000927 0.001563 -0.000302 0.000000 0.025474 0.000000
# 6 0.000000 0.000000 0.000000 -0.000184 0.000000 0.034520
#
#
# Mechanical properties :
#
#
# Convention : Reuss Voigt Hill
#
# Bulk Modulus (GPa) = 74.63433 74.87729 74.75581
# Shear Modulus (GPa) = 27.95103 29.52212 28.73657
#
# Velocity S-wave (km/s) = 3.94352 4.05284 3.99856
# Velocity P-wave (km/s) = 7.89051 7.97251 7.93162
#
# Compressibility (1/GPa) = 0.01339866
#
# Stress axis : x y z
#
# Youngs Moduli (GPa) = 58.71450 83.94473 58.60656
#
# Poissons Ratio (x) = 0.28891 0.49371
# Poissons Ratio (y) = 0.20207 0.26012
# Poissons Ratio (z) = 0.49462 0.37258
#
# Static dielectric constant tensor:
#      x y z
#    x 1.531080 0.000000 -0.049740 
#    y 0.000000 1.623910 0.000000 
#    z -0.049740 0.000000 1.603350 
# 
# From -- ./inp_files/48484.got.cif
#   From: 2010.05.17/outbox.cif.g08.bks.cpg/sg15_25_cif.got.tgz:48484.got - 2010.06.03 18:47:42.
