data_PCOD9271791
_publ_section_title
;
Structure prediction by ZEFSAII (Michael W. Deem and Ramdas Pophale) SiO2 
 PCOD9271791
Probable space group: C 2/C
;
_chemical_formula_sum "Si O2"
_cell_formula_units_Z 56
_cell_length_a 5.253618
_cell_length_b 18.191401
_cell_length_c 28.612679
_cell_angle_alpha 90.000000
_cell_angle_beta 115.563125
_cell_angle_gamma 90.000000
_cell_volume 2466.850686
_symmetry_space_group_name_H-M "C 2/C"
_symmetry_group_IT_number 15
_symmetry_cell_setting 'monoclinic'
loop_
_space_group_symop_operation_xyz
x,y,z
-x,y,1/2-z
-x,-y,-z
x,-y,1/2+z
1/2+x,1/2+y,z
1/2-x,1/2+y,1/2-z
1/2-x,1/2-y,-z
1/2+x,1/2-y,1/2+z
loop_
_atom_site_type_symbol
_atom_site_label
_atom_site_fract_x
_atom_site_fract_y
_atom_site_fract_z
Si Si1 0.500000 0.531245 0.750000
Si Si2 0.500000 0.068358 0.250000
Si Si3 0.660231 0.525066 0.587158
Si Si4 0.194350 0.680702 0.865009
Si Si5 0.378835 0.620991 0.362695
Si Si6 0.155387 0.440444 0.981667
Si Si7 0.444576 0.677468 0.694365
Si Si8 0.017870 0.685035 0.088251
O O1 0.232012 0.482381 0.742216
O O2 0.441626 0.589117 0.703404
O O3 0.665483 0.113694 0.302643
O O4 0.777007 0.594310 0.623415
O O5 0.549370 0.461708 0.612909
O O6 0.863750 0.476702 0.571062
O O7 0.455123 0.559345 0.531223
O O8 0.306613 0.695069 0.821493
O O9 0.414412 0.729027 0.912365
O O10 0.867264 0.699256 0.846566
O O11 0.675524 0.655522 0.371089
O O12 0.223881 0.664750 0.393071
O O13 0.045309 0.358718 0.964575
O O14 0.000000 0.500000 0.000000
O O15 0.500000 0.709647 0.750000
#
# Coordination Sequence:
#
# PCOD9271791 Si02
#       8
#     4   4   8   8   8   8   8   8
#     4  10  20  36  61  92 123 162 220 274 302 372
#     4  12  22  38  63  98 129 170 224 272 314 380
#     4  10  23  39  73  96 127 171 226 267 339 393
#     4  12  24  43  66 101 131 171 222 277 323 391
#     4  11  23  43  63  94 131 178 212 271 326 395
#     4  10  21  44  68  96 128 176 214 277 342 401
#     4  10  23  41  62  94 133 181 213 268 320 385
#     4  11  25  44  64  94 138 169 219 273 331 396
#
# _framework density 22.701008999999999
#
# number of rings (size 3 to 8) (size 9 to 14) (size 15 to 20)
#    0.429    0.857    1.429    4.714    2.000    1.714 
#    7.714    0.714    0.000    0.000    0.000    0.000 
#    0.000    0.000    0.000    0.000    0.000    0.000 
#
# Total GULP energy -156219.098845 kJ/mol
# GULP energy per Si atom -5579.253530 kJ/mol
# Density = 2.264934 g / cm^3
# Si number density = 22.701009 Si / 1000 Ang^3
#
#
#
# Elastic Constant Matrix: (Units=GPa)
#
#
# Indices 1 2 3 4 5 6 
#
# 1 93.2461 5.9923 8.2057 0.0000 8.6369 0.0000
# 2 5.9923 64.6620 -0.5069 0.0000 4.6029 0.0000
# 3 8.2057 -0.5069 42.2906 0.0000 -0.2850 0.0000
# 4 0.0000 0.0000 0.0000 14.8250 0.0000 -0.1829
# 5 8.6369 4.6029 -0.2850 0.0000 28.8638 0.0000
# 6 0.0000 0.0000 0.0000 -0.1829 0.0000 23.7882
#
#
#
# Elastic Compliance Matrix: (Units=1/GPa)
#
#
# Indices 1 2 3 4 5 6 
#
# 1 0.011275 -0.000830 -0.002220 0.000000 -0.003263 0.000000
# 2 -0.000830 0.015705 0.000334 0.000000 -0.002253 0.000000
# 3 -0.002220 0.000334 0.024086 0.000000 0.000849 0.000000
# 4 0.000000 0.000000 0.000000 0.067460 0.000000 0.000519
# 5 -0.003263 -0.002253 0.000849 0.000000 0.035990 0.000000
# 6 0.000000 0.000000 0.000000 0.000519 0.000000 0.042042
#
#
# Mechanical properties :
#
#
# Convention : Reuss Voigt Hill
#
# Bulk Modulus (GPa) = 21.91283 25.28678 23.59980
# Shear Modulus (GPa) = 23.02019 25.92925 24.47472
#
# Velocity S-wave (km/s) = 3.18789 3.38332 3.28706
# Velocity P-wave (km/s) = 4.81912 5.14060 4.98245
#
# Compressibility (1/GPa) = 0.04563537
#
# Stress axis : x y z
#
# Youngs Moduli (GPa) = 88.68981 63.67428 41.51731
#
# Poissons Ratio (x) = 0.05285 0.09216
# Poissons Ratio (y) = 0.07361 -0.01387
# Poissons Ratio (z) = 0.19686 -0.02127
#
# Static dielectric constant tensor:
#      x y z
#    x 1.954900 0.000000 0.116390 
#    y 0.000000 2.000030 0.000000 
#    z 0.116390 0.000000 2.005370 
# 
# From -- ./inp_files/305848.got.cif
#   From: 2010.05.17/outbox.cif.g08.bks.cpg/sg15_153_cif.got.tgz:305848.got - 2010.06.03 18:47:42.
