data_PCOD9271789
_publ_section_title
;
Structure prediction by ZEFSAII (Michael W. Deem and Ramdas Pophale) SiO2 
 PCOD9271789
Probable space group: C 2/C
;
_chemical_formula_sum "Si O2"
_cell_formula_units_Z 44
_cell_length_a 9.309383
_cell_length_b 24.546853
_cell_length_c 11.280102
_cell_angle_alpha 90.000000
_cell_angle_beta 133.790721
_cell_angle_gamma 90.000000
_cell_volume 1860.759009
_symmetry_space_group_name_H-M "C 2/C"
_symmetry_group_IT_number 15
_symmetry_cell_setting 'monoclinic'
loop_
_space_group_symop_operation_xyz
x,y,z
-x,y,1/2-z
-x,-y,-z
x,-y,1/2+z
1/2+x,1/2+y,z
1/2-x,1/2+y,1/2-z
1/2-x,1/2-y,-z
1/2+x,1/2-y,1/2+z
loop_
_atom_site_type_symbol
_atom_site_label
_atom_site_fract_x
_atom_site_fract_y
_atom_site_fract_z
Si Si1 0.777162 0.035761 0.067406
Si Si2 0.535751 0.814710 0.978832
Si Si3 0.500000 0.392033 0.250000
Si Si4 0.411346 0.066669 0.028880
Si Si5 0.920274 0.800729 0.361018
Si Si6 0.178573 0.154773 0.445189
O O1 0.782878 0.091749 0.996783
O O2 0.000000 0.028399 0.250000
O O3 0.681576 0.982950 0.947119
O O4 0.610756 0.047590 0.074650
O O5 0.537422 0.871363 0.907303
O O6 0.726808 0.806353 0.170132
O O7 0.507232 0.758961 0.892843
O O8 0.361369 0.822483 0.975347
O O9 0.296251 0.423700 0.164583
O O10 0.546932 0.352177 0.387578
O O11 0.871818 0.809844 0.470018
O O12 0.000000 0.153972 0.250000
#
# Coordination Sequence:
#
# PCOD9271789 Si02
#       6
#     8   8   4   8   8   8
#     4   9  17  33  62  87 115 156 205 258 305 361
#     4  10  21  36  59  88 123 164 206 259 307 374
#     4  10  22  38  60  88 128 164 202 252 310 388
#     4   9  18  34  57  87 118 161 200 249 312 369
#     4  11  22  37  58  90 122 168 205 254 313 369
#     4  10  20  36  61  92 121 157 207 265 309 363
#
# _framework density 23.646263000000001
#
# number of rings (size 3 to 8) (size 9 to 14) (size 15 to 20)
#    0.000    2.182    0.909    2.182    0.000    2.909 
#    0.000    0.909    0.000   17.455   37.818    0.000 
#    0.000    0.000    0.000    0.000    0.000    0.000 
#
# Total GULP energy -122557.078571 kJ/mol
# GULP energy per Si atom -5570.776299 kJ/mol
# Density = 2.359244 g / cm^3
# Si number density = 23.646263 Si / 1000 Ang^3
#
#
#
# Elastic Constant Matrix: (Units=GPa)
#
#
# Indices 1 2 3 4 5 6 
#
# 1 112.1602 26.3764 47.9912 0.0000 27.6462 0.0000
# 2 26.3764 153.0271 41.4864 0.0000 9.8541 0.0000
# 3 47.9912 41.4864 65.5081 0.0000 6.6297 0.0000
# 4 0.0000 0.0000 0.0000 18.5065 0.0000 17.0409
# 5 27.6462 9.8541 6.6297 0.0000 37.7457 0.0000
# 6 0.0000 0.0000 0.0000 17.0409 0.0000 24.8944
#
#
#
# Elastic Compliance Matrix: (Units=1/GPa)
#
#
# Indices 1 2 3 4 5 6 
#
# 1 0.015988 0.000952 -0.011306 0.000000 -0.009973 0.000000
# 2 0.000952 0.008000 -0.005581 0.000000 -0.001805 0.000000
# 3 -0.011306 -0.005581 0.026569 0.000000 0.005071 0.000000
# 4 0.000000 0.000000 0.000000 0.146165 0.000000 -0.100054
# 5 -0.009973 -0.001805 0.005071 0.000000 0.033378 0.000000
# 6 0.000000 0.000000 0.000000 -0.100054 0.000000 0.108659
#
#
# Mechanical properties :
#
#
# Convention : Reuss Voigt Hill
#
# Bulk Modulus (GPa) = 53.51474 62.48928 58.00201
# Shear Modulus (GPa) = 13.26760 30.55207 21.90983
#
# Velocity S-wave (km/s) = 2.37130 3.59840 3.04726
# Velocity P-wave (km/s) = 5.49344 6.61428 6.07975
#
# Compressibility (1/GPa) = 0.01868644
#
# Stress axis : x y z
#
# Youngs Moduli (GPa) = 62.54772 124.99966 37.63752
#
# Poissons Ratio (x) = -0.11895 0.42553
# Poissons Ratio (y) = -0.05952 0.21005
# Poissons Ratio (z) = 0.70717 0.69761
#
# Static dielectric constant tensor:
#      x y z
#    x 1.956930 0.000000 0.060910 
#    y 0.000000 2.034460 0.000000 
#    z 0.060910 0.000000 1.851830 
# 
# From -- ./inp_files/81575.got.cif
#   From: 2010.05.17/outbox.cif.g08.bks.cpg/sg15_41_cif.got.tgz:81575.got - 2010.06.03 18:47:42.
