data_PCOD9271116
_publ_section_title
;
Structure prediction by ZEFSAII (Michael W. Deem and Ramdas Pophale) SiO2 
 PCOD9271116
Probable space group: C 2/C
;
_chemical_formula_sum "Si O2"
_cell_formula_units_Z 48
_cell_length_a 11.440766
_cell_length_b 13.305759
_cell_length_c 18.075654
_cell_angle_alpha 90.000000
_cell_angle_beta 68.790710
_cell_angle_gamma 90.000000
_cell_volume 2565.241324
_symmetry_space_group_name_H-M "C 2/C"
_symmetry_group_IT_number 15
_symmetry_cell_setting 'monoclinic'
loop_
_space_group_symop_operation_xyz
x,y,z
-x,y,1/2-z
-x,-y,-z
x,-y,1/2+z
1/2+x,1/2+y,z
1/2-x,1/2+y,1/2-z
1/2-x,1/2-y,-z
1/2+x,1/2-y,1/2+z
loop_
_atom_site_type_symbol
_atom_site_label
_atom_site_fract_x
_atom_site_fract_y
_atom_site_fract_z
Si Si1 0.325218 0.399757 0.534979
Si Si2 0.366955 0.260529 0.380391
Si Si3 0.139408 0.854111 0.684312
Si Si4 0.851763 0.070128 0.770132
Si Si5 0.103955 0.880931 0.521880
Si Si6 0.354204 0.705236 0.645482
O O1 0.345682 0.329020 0.458403
O O2 0.207645 0.344398 0.600024
O O3 0.453500 0.397970 0.552845
O O4 0.320720 0.514938 0.509301
O O5 0.316650 0.332315 0.326405
O O6 0.518119 0.250267 0.347532
O O7 0.132800 0.844678 0.597216
O O8 0.234774 0.771365 0.690796
O O9 0.000000 0.844272 0.750000
O O10 0.196613 0.963432 0.691878
O O11 0.835189 0.096839 0.688388
O O12 0.000000 0.060851 0.750000
O O13 0.131180 0.809313 0.445782
#
# Coordination Sequence:
#
# PCOD9271116 Si02
#       6
#     8   8   8   8   8   8
#     4   9  18  31  61  86 106 146 188 224 270 330
#     4   9  17  35  56  84 110 141 189 229 269 321
#     4  11  23  38  57  82 113 151 185 225 284 336
#     4   9  19  35  56  81 108 144 190 227 267 328
#     4  10  20  36  57  85 115 144 187 231 274 333
#     4  10  22  37  57  83 113 146 184 236 280 324
#
# _framework density 18.711690000000001
#
# number of rings (size 3 to 8) (size 9 to 14) (size 15 to 20)
#    0.000    2.333    1.667    0.500    9.333    0.000 
#    0.000    2.500    0.000    0.000    0.000    0.000 
#    0.000    0.000    0.000    0.000    0.000    0.000 
#
# Total GULP energy -133672.632633 kJ/mol
# GULP energy per Si atom -5569.693026 kJ/mol
# Density = 1.866910 g / cm^3
# Si number density = 18.711690 Si / 1000 Ang^3
#
#
#
# Elastic Constant Matrix: (Units=GPa)
#
#
# Indices 1 2 3 4 5 6 
#
# 1 59.1303 46.9191 31.8548 0.0000 -9.3882 0.0000
# 2 46.9191 70.5650 19.9014 0.0000 -8.0621 0.0000
# 3 31.8548 19.9014 65.3793 0.0000 11.7251 0.0000
# 4 0.0000 0.0000 0.0000 26.1531 0.0000 -8.8998
# 5 -9.3882 -8.0621 11.7251 0.0000 24.1182 0.0000
# 6 0.0000 0.0000 0.0000 -8.8998 0.0000 19.6054
#
#
#
# Elastic Compliance Matrix: (Units=1/GPa)
#
#
# Indices 1 2 3 4 5 6 
#
# 1 0.053771 -0.026944 -0.022059 0.000000 0.022648 0.000000
# 2 -0.026944 0.030636 0.004214 0.000000 -0.002296 0.000000
# 3 -0.022059 0.004214 0.028535 0.000000 -0.021050 0.000000
# 4 0.000000 0.000000 0.000000 0.045222 0.000000 0.020528
# 5 0.022648 -0.002296 -0.021050 0.000000 0.059744 0.000000
# 6 0.000000 0.000000 0.000000 0.020528 0.000000 0.060325
#
#
# Mechanical properties :
#
#
# Convention : Reuss Voigt Hill
#
# Bulk Modulus (GPa) = 42.79900 43.60280 43.20090
# Shear Modulus (GPa) = 13.31211 20.40197 16.85704
#
# Velocity S-wave (km/s) = 2.67016 3.30560 3.00473
# Velocity P-wave (km/s) = 5.69464 6.15811 5.93090
#
# Compressibility (1/GPa) = 0.02336503
#
# Stress axis : x y z
#
# Youngs Moduli (GPa) = 18.59754 32.64186 35.04422
#
# Poissons Ratio (x) = 0.87949 0.77303
# Poissons Ratio (y) = 0.50109 -0.14768
# Poissons Ratio (z) = 0.41024 -0.13756
#
# Static dielectric constant tensor:
#      x y z
#    x 1.635510 0.000000 0.001570 
#    y 0.000000 1.666100 0.000000 
#    z 0.001570 0.000000 1.719780 
# 
# From -- ./inp_files/195997.got.cif
#   From: 2010.05.17/outbox.cif.g08.bks.cpg/sg15_98_cif.got.tgz:195997.got - 2010.06.03 18:47:42.
