data_PCOD9271915
_publ_section_title
;
Structure prediction by ZEFSAII (Michael W. Deem and Ramdas Pophale) SiO2 
 PCOD9271915
Probable space group: C 2/C
;
_chemical_formula_sum "Si O2"
_cell_formula_units_Z 48
_cell_length_a 22.690547
_cell_length_b 17.438474
_cell_length_c 13.086394
_cell_angle_alpha 90.000000
_cell_angle_beta 152.359478
_cell_angle_gamma 90.000000
_cell_volume 2402.254634
_symmetry_space_group_name_H-M "C 2/C"
_symmetry_group_IT_number 15
_symmetry_cell_setting 'monoclinic'
loop_
_space_group_symop_operation_xyz
x,y,z
-x,y,1/2-z
-x,-y,-z
x,-y,1/2+z
1/2+x,1/2+y,z
1/2-x,1/2+y,1/2-z
1/2-x,1/2-y,-z
1/2+x,1/2-y,1/2+z
loop_
_atom_site_type_symbol
_atom_site_label
_atom_site_fract_x
_atom_site_fract_y
_atom_site_fract_z
Si Si1 0.193626 0.530151 0.575173
Si Si2 0.146618 0.920869 0.574786
Si Si3 0.457104 0.621606 0.971217
Si Si4 0.500000 0.446197 0.750000
Si Si5 0.969187 0.562181 0.368627
Si Si6 0.500000 0.294112 0.250000
Si Si7 0.618173 0.773433 0.742800
O O1 0.225717 0.446889 0.672685
O O2 0.326861 0.573492 0.765413
O O3 0.124804 0.527966 0.361202
O O4 0.101011 0.575547 0.509759
O O5 0.045048 0.905709 0.511263
O O6 0.120087 0.849097 0.460241
O O7 0.111622 0.994536 0.451358
O O8 0.418068 0.710421 0.897449
O O9 0.519504 0.602423 0.176799
O O10 0.903572 0.637875 0.314199
O O11 0.000000 0.500000 0.500000
O O12 0.480223 0.242744 0.316994
O O13 0.750000 0.750000 0.000000
#
# Coordination Sequence:
#
# PCOD9271915 Si02
#       7
#     8   8   8   4   8   4   8
#     4  10  20  37  58  86 120 151 197 245 297 368
#     4   9  19  33  61  94 118 147 193 249 308 365
#     4  10  20  36  62  91 115 153 202 255 303 358
#     4   9  16  30  54  91 124 140 180 251 306 350
#     4  11  25  39  57  83 119 164 200 241 306 362
#     4   9  20  36  64  93 112 148 206 255 304 350
#     4  11  22  39  63  83 119 159 211 252 298 371
#
# _framework density 19.981228999999999
#
# number of rings (size 3 to 8) (size 9 to 14) (size 15 to 20)
#    0.000    2.000    1.667    3.000    2.333    5.333 
#    0.000    1.667    0.000    6.000    0.000    0.000 
#    0.000    0.000    0.000    0.000    0.000    0.000 
#
# Total GULP energy -133788.015744 kJ/mol
# GULP energy per Si atom -5574.500656 kJ/mol
# Density = 1.993575 g / cm^3
# Si number density = 19.981229 Si / 1000 Ang^3
#
#
#
# Elastic Constant Matrix: (Units=GPa)
#
#
# Indices 1 2 3 4 5 6 
#
# 1 65.3142 24.6574 36.2890 0.0000 -13.2613 0.0000
# 2 24.6574 122.0309 53.1673 0.0000 -14.9711 0.0000
# 3 36.2890 53.1673 79.7986 0.0000 -12.7471 0.0000
# 4 0.0000 0.0000 0.0000 20.3007 0.0000 -1.3398
# 5 -13.2613 -14.9711 -12.7471 0.0000 37.9496 0.0000
# 6 0.0000 0.0000 0.0000 -1.3398 0.0000 22.2299
#
#
#
# Elastic Compliance Matrix: (Units=1/GPa)
#
#
# Indices 1 2 3 4 5 6 
#
# 1 0.021163 0.000215 -0.009059 0.000000 0.004438 0.000000
# 2 0.000215 0.011706 -0.007553 0.000000 0.002156 0.000000
# 3 -0.009059 -0.007553 0.021875 0.000000 0.001203 0.000000
# 4 0.000000 0.000000 0.000000 0.049456 0.000000 0.002981
# 5 0.004438 0.002156 0.001203 0.000000 0.029156 0.000000
# 6 0.000000 0.000000 0.000000 0.002981 0.000000 0.045164
#
#
# Mechanical properties :
#
#
# Convention : Reuss Voigt Hill
#
# Bulk Modulus (GPa) = 45.55368 55.04122 50.29745
# Shear Modulus (GPa) = 22.86945 26.29804 24.58374
#
# Velocity S-wave (km/s) = 3.38679 3.63180 3.51143
# Velocity P-wave (km/s) = 6.17588 6.72256 6.45501
#
# Compressibility (1/GPa) = 0.02195212
#
# Stress axis : x y z
#
# Youngs Moduli (GPa) = 47.25121 85.42280 45.71347
#
# Poissons Ratio (x) = -0.01835 0.41410
# Poissons Ratio (y) = -0.01015 0.34527
# Poissons Ratio (z) = 0.42803 0.64519
#
# Static dielectric constant tensor:
#      x y z
#    x 1.792390 0.000000 0.013610 
#    y 0.000000 1.745240 0.000000 
#    z 0.013610 0.000000 1.729590 
# 
# From -- ./inp_files/119515.got.cif
#   From: 2010.05.17/outbox.cif.g08.bks.cpg/sg15_60_cif.got.tgz:119515.got - 2010.06.03 18:47:42.
