data_PCOD9271428
_publ_section_title
;
Structure prediction by ZEFSAII (Michael W. Deem and Ramdas Pophale) SiO2 
 PCOD9271428
Probable space group: C 2/C
;
_chemical_formula_sum "Si O2"
_cell_formula_units_Z 48
_cell_length_a 11.879664
_cell_length_b 29.820427
_cell_length_c 5.711467
_cell_angle_alpha 90.000000
_cell_angle_beta 72.844476
_cell_angle_gamma 90.000000
_cell_volume 1933.302628
_symmetry_space_group_name_H-M "C 2/C"
_symmetry_group_IT_number 15
_symmetry_cell_setting 'monoclinic'
loop_
_space_group_symop_operation_xyz
x,y,z
-x,y,1/2-z
-x,-y,-z
x,-y,1/2+z
1/2+x,1/2+y,z
1/2-x,1/2+y,1/2-z
1/2-x,1/2-y,-z
1/2+x,1/2-y,1/2+z
loop_
_atom_site_type_symbol
_atom_site_label
_atom_site_fract_x
_atom_site_fract_y
_atom_site_fract_z
Si Si1 0.823180 0.246818 0.205167
Si Si2 0.127397 0.942826 0.106055
Si Si3 0.842261 0.489940 0.472232
Si Si4 0.666529 0.350570 0.842879
Si Si5 0.599652 0.161946 0.996767
Si Si6 0.289982 0.101028 0.889078
O O1 0.750000 0.250000 0.500000
O O2 0.890260 0.198732 0.140679
O O3 0.750000 0.250000 0.000000
O O4 0.902205 0.291027 0.135590
O O5 0.190355 0.921119 0.291125
O O6 0.000000 0.961476 0.250000
O O7 0.219710 0.982637 0.991358
O O8 0.109047 0.898729 0.947618
O O9 0.894810 0.511209 0.675960
O O10 0.827020 0.437691 0.543050
O O11 0.773568 0.343855 0.957251
O O12 0.729299 0.358269 0.557390
O O13 0.500000 0.160073 0.250000
O O14 0.603176 0.119632 0.825824
#
# Coordination Sequence:
#
# PCOD9271428 Si02
#       6
#     8   8   8   8   8   8
#     4  10  20  38  64  88 123 161 202 252 316 370
#     4  10  22  37  58  90 124 164 212 256 312 384
#     4  10  20  36  59  86 118 165 206 252 312 375
#     4  10  20  39  61  87 126 165 200 257 315 370
#     4  10  22  39  64  94 121 165 216 259 307 375
#     4  10  20  37  60  84 125 163 205 260 316 366
#
# _framework density 24.827981000000001
#
# number of rings (size 3 to 8) (size 9 to 14) (size 15 to 20)
#    0.000    2.000    3.333    0.000    0.000    4.667 
#    0.000    0.000    7.333    9.000    0.000    0.000 
#    0.000    0.000    0.000    0.000    0.000    0.000 
#
# Total GULP energy -133764.862535 kJ/mol
# GULP energy per Si atom -5573.535939 kJ/mol
# Density = 2.477147 g / cm^3
# Si number density = 24.827981 Si / 1000 Ang^3
#
#
#
# Elastic Constant Matrix: (Units=GPa)
#
#
# Indices 1 2 3 4 5 6 
#
# 1 79.1466 9.9022 30.5641 0.0000 7.2978 0.0000
# 2 9.9022 158.3417 35.4070 0.0000 -6.0379 0.0000
# 3 30.5641 35.4070 126.1637 0.0000 2.2499 0.0000
# 4 0.0000 0.0000 0.0000 23.2767 0.0000 -10.3032
# 5 7.2978 -6.0379 2.2499 0.0000 26.4525 0.0000
# 6 0.0000 0.0000 0.0000 -10.3032 0.0000 -11.7945
#
#
#
# Elastic Compliance Matrix: (Units=1/GPa)
#
#
# Indices 1 2 3 4 5 6 
#
# 1 0.014295 -0.000295 -0.003314 0.000000 -0.003729 0.000000
# 2 -0.000295 0.006822 -0.001875 0.000000 0.001798 0.000000
# 3 -0.003314 -0.001875 0.009261 0.000000 -0.000301 0.000000
# 4 0.000000 0.000000 0.000000 0.030982 0.000000 -0.027064
# 5 -0.003729 0.001798 -0.000301 0.000000 0.039269 0.000000
# 6 0.000000 0.000000 0.000000 -0.027064 0.000000 -0.061143
#
#
# Mechanical properties :
#
#
# Convention : Reuss Voigt Hill
#
# Bulk Modulus (GPa) = 51.52091 57.26652 54.39371
# Shear Modulus (GPa) = 87.83863 26.77218 57.30541
#
# Velocity S-wave (km/s) = 5.95447 3.28732 4.80948
# Velocity P-wave (km/s) = 8.25048 6.12569 7.26617
#
# Compressibility (1/GPa) = 0.01940960
#
# Stress axis : x y z
#
# Youngs Moduli (GPa) = 69.95327 146.58977 107.98450
#
# Poissons Ratio (x) = 0.04327 0.35784
# Poissons Ratio (y) = 0.02065 0.20247
# Poissons Ratio (z) = 0.23181 0.27486
#
# Static dielectric constant tensor:
#      x y z
#    x 1.587640 0.000000 -0.379740 
#    y 0.000000 1.990930 0.000000 
#    z -0.379740 0.000000 1.688110 
# 
# From -- ./inp_files/8928.got.cif
#   From: 2010.05.17/outbox.cif.g08.bks.cpg/sg15_5_cif.got.tgz:8928.got - 2010.06.03 18:47:42.
