data_PCOD9271869
_publ_section_title
;
Structure prediction by ZEFSAII (Michael W. Deem and Ramdas Pophale) SiO2 
 PCOD9271869
Probable space group: C 2/C
;
_chemical_formula_sum "Si O2"
_cell_formula_units_Z 56
_cell_length_a 21.809831
_cell_length_b 15.887795
_cell_length_c 19.290637
_cell_angle_alpha 90.000000
_cell_angle_beta 152.543593
_cell_angle_gamma 90.000000
_cell_volume 3082.000875
_symmetry_space_group_name_H-M "C 2/C"
_symmetry_group_IT_number 15
_symmetry_cell_setting 'monoclinic'
loop_
_space_group_symop_operation_xyz
x,y,z
-x,y,1/2-z
-x,-y,-z
x,-y,1/2+z
1/2+x,1/2+y,z
1/2-x,1/2+y,1/2-z
1/2-x,1/2-y,-z
1/2+x,1/2-y,1/2+z
loop_
_atom_site_type_symbol
_atom_site_label
_atom_site_fract_x
_atom_site_fract_y
_atom_site_fract_z
Si Si1 0.851233 0.641302 0.606055
Si Si2 0.946712 0.003772 0.308412
Si Si3 0.051806 0.180500 0.113290
Si Si4 0.215914 0.984130 0.499023
Si Si5 0.260634 0.706122 0.436101
Si Si6 0.962460 0.187961 0.865683
Si Si7 0.796054 0.744755 0.429792
O O1 0.840003 0.546358 0.619653
O O2 0.800519 0.658124 0.477764
O O3 0.763926 0.691611 0.573737
O O4 0.000000 0.674451 0.750000
O O5 0.927647 0.083495 0.340472
O O6 0.855833 0.996242 0.147871
O O7 0.929034 0.911070 0.322918
O O8 0.099516 0.010898 0.435353
O O9 0.189502 0.229996 0.262990
O O10 0.003090 0.193858 0.986436
O O11 0.937253 0.222135 0.046063
O O12 0.260719 0.892038 0.567197
O O13 0.250000 0.750000 0.500000
O O14 0.156268 0.751728 0.280043
O O15 0.408559 0.709355 0.552090
#
# Coordination Sequence:
#
# PCOD9271869 Si02
#       7
#     8   8   8   8   8   8   8
#     4  11  21  35  56  89 118 156 207 238 300 349
#     4  10  20  37  62  90 114 160 201 254 297 355
#     4  12  22  40  60  87 131 163 196 242 310 377
#     4  10  20  36  62  87 119 150 207 253 299 345
#     4  11  22  42  65  90 116 153 211 264 298 347
#     4  11  24  40  63  92 120 161 202 248 314 369
#     4  11  23  35  59  88 120 162 199 248 288 364
#
# _framework density 18.170013999999998
#
# number of rings (size 3 to 8) (size 9 to 14) (size 15 to 20)
#    0.000    1.143    5.714    1.714    0.000    1.143 
#    0.000    0.000    0.000    0.857    0.000    0.000 
#    0.000    0.000    0.000    0.000    0.000    0.000 
#
# Total GULP energy -156017.383176 kJ/mol
# GULP energy per Si atom -5572.049399 kJ/mol
# Density = 1.812866 g / cm^3
# Si number density = 18.170014 Si / 1000 Ang^3
#
#
#
# Elastic Constant Matrix: (Units=GPa)
#
#
# Indices 1 2 3 4 5 6 
#
# 1 37.4561 17.7808 -2.0454 0.0001 -5.8697 0.0001
# 2 17.7808 90.9929 22.3514 0.0001 3.7618 0.0001
# 3 -2.0454 22.3514 62.8825 0.0001 -11.1357 0.0001
# 4 0.0001 0.0001 0.0001 29.1978 0.0000 0.4325
# 5 -5.8697 3.7618 -11.1357 0.0000 33.2690 0.0001
# 6 0.0001 0.0001 0.0001 0.4325 0.0001 17.2474
#
#
#
# Elastic Compliance Matrix: (Units=1/GPa)
#
#
# Indices 1 2 3 4 5 6 
#
# 1 0.032054 -0.007918 0.005333 0.000000 0.008336 0.000000
# 2 -0.007918 0.014280 -0.006236 0.000000 -0.005099 0.000000
# 3 0.005333 -0.006236 0.019755 0.000000 0.008259 0.000000
# 4 0.000000 0.000000 0.000000 0.034262 0.000000 -0.000859
# 5 0.008336 -0.005099 0.008259 0.000000 0.034870 0.000000
# 6 0.000000 0.000000 0.000000 -0.000859 0.000000 0.058001
#
#
# Mechanical properties :
#
#
# Convention : Reuss Voigt Hill
#
# Bulk Modulus (GPa) = 20.64108 29.72280 25.18194
# Shear Modulus (GPa) = 22.02506 26.15916 24.09211
#
# Velocity S-wave (km/s) = 3.48539 3.79844 3.64528
# Velocity P-wave (km/s) = 5.25185 5.96919 5.62197
#
# Compressibility (1/GPa) = 0.04844708
#
# Stress axis : x y z
#
# Youngs Moduli (GPa) = 31.19688 70.02861 50.61928
#
# Poissons Ratio (x) = 0.55452 -0.26997
# Poissons Ratio (y) = 0.24703 0.31568
# Poissons Ratio (z) = -0.16639 0.43672
#
# Static dielectric constant tensor:
#      x y z
#    x 1.605700 0.000000 -0.022970 
#    y 0.000000 1.645250 0.000000 
#    z -0.022970 0.000000 1.662580 
# 
# From -- ./inp_files/215694.got.cif
#   From: 2010.05.17/outbox.cif.g08.bks.cpg/sg15_108_cif.got.tgz:215694.got - 2010.06.03 18:47:42.
