data_PCOD9271933
_publ_section_title
;
Structure prediction by ZEFSAII (Michael W. Deem and Ramdas Pophale) SiO2 
 PCOD9271933
Probable space group: C 2/C
;
_chemical_formula_sum "Si O2"
_cell_formula_units_Z 52
_cell_length_a 9.263458
_cell_length_b 18.997531
_cell_length_c 18.891772
_cell_angle_alpha 90.000000
_cell_angle_beta 48.397455
_cell_angle_gamma 90.000000
_cell_volume 2486.052056
_symmetry_space_group_name_H-M "C 2/C"
_symmetry_group_IT_number 15
_symmetry_cell_setting 'monoclinic'
loop_
_space_group_symop_operation_xyz
x,y,z
-x,y,1/2-z
-x,-y,-z
x,-y,1/2+z
1/2+x,1/2+y,z
1/2-x,1/2+y,1/2-z
1/2-x,1/2-y,-z
1/2+x,1/2-y,1/2+z
loop_
_atom_site_type_symbol
_atom_site_label
_atom_site_fract_x
_atom_site_fract_y
_atom_site_fract_z
Si Si1 0.186659 0.449502 0.938244
Si Si2 0.334358 0.559084 0.546580
Si Si3 0.524741 0.165408 0.085190
Si Si4 0.000000 0.027806 0.750000
Si Si5 0.729687 0.655505 0.729494
Si Si6 0.000000 0.599097 0.750000
Si Si7 0.500000 0.224677 0.250000
Si Si8 0.952361 0.175025 0.952289
O O1 0.389234 0.480442 0.842955
O O2 0.121138 0.384631 0.909001
O O3 0.227835 0.437524 0.007034
O O4 0.000000 0.500000 0.000000
O O5 0.500000 0.500000 0.500000
O O6 0.437012 0.634022 0.523516
O O7 0.175930 0.553728 0.661278
O O8 0.487943 0.180525 0.181073
O O9 0.544016 0.241283 0.040666
O O10 0.744598 0.139091 0.011445
O O11 0.173142 0.080953 0.714846
O O12 0.925767 0.647589 0.709302
O O13 0.685031 0.721622 0.693205
O O14 0.568693 0.664068 0.842489
#
# Coordination Sequence:
#
# PCOD9271933 Si02
#       8
#     8   8   8   4   8   4   4   8
#     4  12  25  40  61  91 125 164 211 256 305 370
#     4  11  23  40  62  92 125 160 208 260 307 364
#     4  10  21  40  63  88 120 161 205 249 309 367
#     4  11  22  38  59  86 123 161 200 254 310 361
#     4   9  18  37  63  87 112 153 205 251 302 366
#     4  10  20  36  62  92 120 160 206 254 308 360
#     4   9  20  38  61  88 121 157 198 252 308 371
#     4   9  20  39  61  86 118 158 204 253 303 364
#
# _framework density 20.916698
#
# number of rings (size 3 to 8) (size 9 to 14) (size 15 to 20)
#    0.000    1.846    0.000    4.615    0.000    6.769 
#    0.000   15.385    0.000    0.000    0.000    0.000 
#    0.000    0.000    0.000    0.000    0.000    0.000 
#
# Total GULP energy -144929.760093 kJ/mol
# GULP energy per Si atom -5574.221542 kJ/mol
# Density = 2.086909 g / cm^3
# Si number density = 20.916698 Si / 1000 Ang^3
#
#
#
# Elastic Constant Matrix: (Units=GPa)
#
#
# Indices 1 2 3 4 5 6 
#
# 1 142.5886 48.9756 16.6419 0.0000 23.6134 0.0000
# 2 48.9756 62.6535 23.1689 0.0000 15.5210 0.0000
# 3 16.6419 23.1689 77.2158 0.0000 -2.3871 0.0000
# 4 0.0000 0.0000 0.0000 19.8757 0.0000 14.5510
# 5 23.6134 15.5210 -2.3871 0.0000 34.7110 0.0000
# 6 0.0000 0.0000 0.0000 14.5510 0.0000 20.0646
#
#
#
# Elastic Compliance Matrix: (Units=1/GPa)
#
#
# Indices 1 2 3 4 5 6 
#
# 1 0.010000 -0.006794 -0.000234 0.000000 -0.003781 0.000000
# 2 -0.006794 0.025410 -0.006382 0.000000 -0.007179 0.000000
# 3 -0.000234 -0.006382 0.015041 0.000000 0.004047 0.000000
# 4 0.000000 0.000000 0.000000 0.107260 0.000000 -0.077786
# 5 -0.003781 -0.007179 0.004047 0.000000 0.034870 0.000000
# 6 0.000000 0.000000 0.000000 -0.077786 0.000000 0.106251
#
#
# Mechanical properties :
#
#
# Convention : Reuss Voigt Hill
#
# Bulk Modulus (GPa) = 42.31531 51.11453 46.71492
# Shear Modulus (GPa) = 14.99120 27.84168 21.41644
#
# Velocity S-wave (km/s) = 2.68005 3.65235 3.20330
# Velocity P-wave (km/s) = 5.46362 6.50203 6.00532
#
# Compressibility (1/GPa) = 0.02363211
#
# Stress axis : x y z
#
# Youngs Moduli (GPa) = 99.99820 39.35439 66.48429
#
# Poissons Ratio (x) = 0.26737 0.01553
# Poissons Ratio (y) = 0.67938 0.42431
# Poissons Ratio (z) = 0.02336 0.25116
#
# Static dielectric constant tensor:
#      x y z
#    x 1.786130 0.000000 0.054320 
#    y 0.000000 1.833760 0.000000 
#    z 0.054320 0.000000 1.634600 
# 
# From -- ./inp_files/192507.got.cif
#   From: 2010.05.17/outbox.cif.g08.bks.cpg/sg15_97_cif.got.tgz:192507.got - 2010.06.03 18:47:42.
