data_PCOD9271586
_publ_section_title
;
Structure prediction by ZEFSAII (Michael W. Deem and Ramdas Pophale) SiO2 
 PCOD9271586
Probable space group: C 2/C
;
_chemical_formula_sum "Si O2"
_cell_formula_units_Z 48
_cell_length_a 7.659563
_cell_length_b 27.439295
_cell_length_c 19.450058
_cell_angle_alpha 90.000000
_cell_angle_beta 32.940222
_cell_angle_gamma 90.000000
_cell_volume 2222.839378
_symmetry_space_group_name_H-M "C 2/C"
_symmetry_group_IT_number 15
_symmetry_cell_setting 'monoclinic'
loop_
_space_group_symop_operation_xyz
x,y,z
-x,y,1/2-z
-x,-y,-z
x,-y,1/2+z
1/2+x,1/2+y,z
1/2-x,1/2+y,1/2-z
1/2-x,1/2-y,-z
1/2+x,1/2-y,1/2+z
loop_
_atom_site_type_symbol
_atom_site_label
_atom_site_fract_x
_atom_site_fract_y
_atom_site_fract_z
Si Si1 0.710976 0.002386 0.742290
Si Si2 0.305050 0.880331 0.099627
Si Si3 0.311589 0.230194 0.610547
Si Si4 0.724724 0.953916 0.512794
Si Si5 0.718316 0.906405 0.085964
Si Si6 0.289660 0.795024 0.383569
O O1 0.500000 0.980876 0.750000
O O2 0.573621 0.057732 0.795820
O O3 0.074976 0.005829 0.597059
O O4 0.597804 0.975020 0.847759
O O5 0.251908 0.823473 0.099568
O O6 0.321997 0.910780 0.025036
O O7 0.623786 0.892523 0.038985
O O8 0.000000 0.892420 0.250000
O O9 0.529188 0.216661 0.604858
O O10 0.462968 0.265894 0.504758
O O11 0.000000 0.251957 0.750000
O O12 0.968523 0.936099 0.492730
O O13 0.742728 0.853232 0.112334
O O14 0.500000 0.777221 0.250000
#
# Coordination Sequence:
#
# PCOD9271586 Si02
#       6
#     8   8   8   8   8   8
#     4  10  20  37  61  86 119 153 201 245 292 350
#     4  10  20  37  61  86 115 153 206 239 283 366
#     4   9  21  38  58  89 118 150 198 248 289 356
#     4  11  22  39  61  86 116 161 194 250 295 345
#     4  10  20  36  60  87 115 156 201 237 289 358
#     4  10  20  36  62  87 119 153 194 244 301 351
#
# _framework density 21.594004000000002
#
# number of rings (size 3 to 8) (size 9 to 14) (size 15 to 20)
#    0.000    2.000    1.667    3.500    4.667    1.333 
#    0.000    2.500   14.667    0.000    0.000    0.000 
#    0.000    0.000    0.000    0.000    0.000    0.000 
#
# Total GULP energy -133862.287194 kJ/mol
# GULP energy per Si atom -5577.595300 kJ/mol
# Density = 2.154485 g / cm^3
# Si number density = 21.594004 Si / 1000 Ang^3
#
#
#
# Elastic Constant Matrix: (Units=GPa)
#
#
# Indices 1 2 3 4 5 6 
#
# 1 52.9682 23.9601 22.3670 -0.0045 5.1233 0.0001
# 2 23.9601 89.5497 72.8215 -0.0030 22.0649 0.0000
# 3 22.3670 72.8215 141.5632 -0.0144 23.8479 -0.0028
# 4 -0.0045 -0.0030 -0.0144 23.5607 0.0073 -18.2241
# 5 5.1233 22.0649 23.8479 0.0073 22.7915 0.0001
# 6 0.0001 0.0000 -0.0028 -18.2241 0.0001 20.5843
#
#
#
# Elastic Compliance Matrix: (Units=1/GPa)
#
#
# Indices 1 2 3 4 5 6 
#
# 1 0.021552 -0.005389 -0.000845 0.000008 0.001257 0.000006
# 2 -0.005389 0.022635 -0.008868 -0.000003 -0.011423 -0.000003
# 3 -0.000845 -0.008868 0.012481 0.000029 -0.004284 0.000027
# 4 0.000008 -0.000003 0.000029 0.134659 -0.000073 0.119219
# 5 0.001257 -0.011423 -0.004284 -0.000073 0.059135 -0.000065
# 6 0.000006 -0.000003 0.000027 0.119219 -0.000065 0.154129
#
#
# Mechanical properties :
#
#
# Convention : Reuss Voigt Hill
#
# Bulk Modulus (GPa) = 37.78646 58.04204 47.91425
# Shear Modulus (GPa) = 11.27100 24.38280 17.82690
#
# Velocity S-wave (km/s) = 2.28710 3.36392 2.87635
# Velocity P-wave (km/s) = 4.95086 6.48268 5.76785
#
# Compressibility (1/GPa) = 0.02646450
#
# Stress axis : x y z
#
# Youngs Moduli (GPa) = 46.39894 44.17988 80.12282
#
# Poissons Ratio (x) = 0.23810 0.06767
# Poissons Ratio (y) = 0.25006 0.71051
# Poissons Ratio (z) = 0.03919 0.39177
#
# Static dielectric constant tensor:
#      x y z
#    x 1.867640 0.000000 -0.040760 
#    y 0.000000 1.797610 0.000000 
#    z -0.040760 0.000000 1.806230 
# 
# From -- ./inp_files/234740.got.cif
#   From: 2010.05.17/outbox.cif.g08.bks.cpg/sg15_118_cif.got.tgz:234740.got - 2010.06.03 18:47:42.
