data_PCOD9271651
_publ_section_title
;
Structure prediction by ZEFSAII (Michael W. Deem and Ramdas Pophale) SiO2 
 PCOD9271651
Probable space group: C 2/C
;
_chemical_formula_sum "Si O2"
_cell_formula_units_Z 48
_cell_length_a 7.102413
_cell_length_b 21.179048
_cell_length_c 14.713515
_cell_angle_alpha 90.000000
_cell_angle_beta 75.188901
_cell_angle_gamma 90.000000
_cell_volume 2139.704032
_symmetry_space_group_name_H-M "C 2/C"
_symmetry_group_IT_number 15
_symmetry_cell_setting 'monoclinic'
loop_
_space_group_symop_operation_xyz
x,y,z
-x,y,1/2-z
-x,-y,-z
x,-y,1/2+z
1/2+x,1/2+y,z
1/2-x,1/2+y,1/2-z
1/2-x,1/2-y,-z
1/2+x,1/2-y,1/2+z
loop_
_atom_site_type_symbol
_atom_site_label
_atom_site_fract_x
_atom_site_fract_y
_atom_site_fract_z
Si Si1 0.351270 0.650757 0.475626
Si Si2 0.879651 0.545745 0.077579
Si Si3 0.235155 0.520203 0.733428
Si Si4 0.228909 0.339008 0.194728
Si Si5 0.768678 0.797136 0.791059
Si Si6 0.258580 0.105962 0.366356
O O1 0.266492 0.581900 0.468614
O O2 0.268688 0.669990 0.582769
O O3 0.260073 0.687749 0.400044
O O4 0.585553 0.642881 0.440197
O O5 0.753677 0.507939 0.167175
O O6 0.043652 0.591624 0.102882
O O7 0.000000 0.500000 0.000000
O O8 0.308939 0.591452 0.710850
O O9 0.306077 0.464165 0.658782
O O10 0.000000 0.522763 0.750000
O O11 0.306019 0.272635 0.224814
O O12 0.000000 0.341336 0.250000
O O13 0.707388 0.851677 0.728215
O O14 0.000000 0.795389 0.750000
#
# Coordination Sequence:
#
# PCOD9271651 Si02
#       6
#     8   8   8   8   8   8
#     4  11  21  37  65  90 118 166 209 253 308 372
#     4  11  22  36  62  93 122 162 206 256 312 361
#     4   9  18  34  56  86 124 161 198 256 310 359
#     4  10  20  36  60  90 125 160 208 256 314 369
#     4   9  19  36  62  90 120 168 206 250 310 377
#     4  10  21  39  61  93 124 159 214 249 306 380
#
# _framework density 22.433008999999998
#
# number of rings (size 3 to 8) (size 9 to 14) (size 15 to 20)
#    0.000    2.000    1.667    3.500    0.000    2.667 
#    0.000    0.000    0.000   40.000    0.000    0.000 
#    0.000    0.000    0.000    0.000    0.000    0.000 
#
# Total GULP energy -133757.398678 kJ/mol
# GULP energy per Si atom -5573.224945 kJ/mol
# Density = 2.238195 g / cm^3
# Si number density = 22.433009 Si / 1000 Ang^3
#
#
#
# Elastic Constant Matrix: (Units=GPa)
#
#
# Indices 1 2 3 4 5 6 
#
# 1 82.6529 28.3862 41.3483 0.0000 3.2859 0.0000
# 2 28.3862 144.0884 21.5715 0.0000 2.7047 0.0000
# 3 41.3483 21.5715 107.8684 0.0000 -19.1459 0.0000
# 4 0.0000 0.0000 0.0000 394.4922 0.0000 -247.1984
# 5 3.2859 2.7047 -19.1459 0.0000 21.8818 0.0000
# 6 0.0000 0.0000 0.0000 -247.1984 0.0000 170.2655
#
#
#
# Elastic Compliance Matrix: (Units=1/GPa)
#
#
# Indices 1 2 3 4 5 6 
#
# 1 0.017022 -0.002026 -0.007729 0.000000 -0.009069 0.000000
# 2 -0.002026 0.007516 -0.000991 0.000000 -0.001492 0.000000
# 3 -0.007729 -0.000991 0.014987 0.000000 0.014396 0.000000
# 4 0.000000 0.000000 0.000000 0.028090 0.000000 0.040783
# 5 -0.009069 -0.001492 0.014396 0.000000 0.059843 0.000000
# 6 0.000000 0.000000 0.000000 0.040783 0.000000 0.065083
#
#
# Mechanical properties :
#
#
# Convention : Reuss Voigt Hill
#
# Bulk Modulus (GPa) = 55.45894 57.46906 56.46400
# Shear Modulus (GPa) = 22.72270 133.54814 78.13542
#
# Velocity S-wave (km/s) = 3.18608 7.72407 5.90814
# Velocity P-wave (km/s) = 6.18955 10.25778 8.47150
#
# Compressibility (1/GPa) = 0.01803136
#
# Stress axis : x y z
#
# Youngs Moduli (GPa) = 58.74816 133.05453 66.72537
#
# Poissons Ratio (x) = 0.26957 0.51574
# Poissons Ratio (y) = 0.11902 0.06614
# Poissons Ratio (z) = 0.45408 0.13188
#
# Static dielectric constant tensor:
#      x y z
#    x 1.824930 0.000000 0.018240 
#    y 0.000000 1.905320 0.000000 
#    z 0.018240 0.000000 1.808830 
# 
# From -- ./inp_files/135923.got.cif
#   From: 2010.05.17/outbox.cif.g08.bks.cpg/sg15_68_cif.got.tgz:135923.got - 2010.06.03 18:47:42.
