data_PCOD9271709
_publ_section_title
;
Structure prediction by ZEFSAII (Michael W. Deem and Ramdas Pophale) SiO2 
 PCOD9271709
Probable space group: C 2/C
;
_chemical_formula_sum "Si O2"
_cell_formula_units_Z 60
_cell_length_a 7.047767
_cell_length_b 24.319678
_cell_length_c 15.493004
_cell_angle_alpha 90.000000
_cell_angle_beta 80.894751
_cell_angle_gamma 90.000000
_cell_volume 2622.030940
_symmetry_space_group_name_H-M "C 2/C"
_symmetry_group_IT_number 15
_symmetry_cell_setting 'monoclinic'
loop_
_space_group_symop_operation_xyz
x,y,z
-x,y,1/2-z
-x,-y,-z
x,-y,1/2+z
1/2+x,1/2+y,z
1/2-x,1/2+y,1/2-z
1/2-x,1/2-y,-z
1/2+x,1/2-y,1/2+z
loop_
_atom_site_type_symbol
_atom_site_label
_atom_site_fract_x
_atom_site_fract_y
_atom_site_fract_z
Si Si1 0.784171 0.935572 0.960550
Si Si2 0.749927 0.030367 0.829905
Si Si3 0.117038 0.150952 0.652981
Si Si4 0.206171 0.491836 0.139840
Si Si5 0.083882 0.608306 0.091708
Si Si6 0.964457 0.168799 0.024167
Si Si7 0.624746 0.247784 0.826933
Si Si8 0.500000 0.181618 0.250000
O O1 0.562127 0.917499 0.965601
O O2 0.909611 0.880962 0.948464
O O3 0.819853 0.978858 0.881475
O O4 0.808446 0.965334 0.050317
O O5 0.825775 0.087474 0.861938
O O6 0.516678 0.027687 0.848007
O O7 0.794411 0.024825 0.724983
O O8 0.996376 0.174444 0.580515
O O9 0.305906 0.187978 0.649649
O O10 0.000000 0.155751 0.750000
O O11 0.191969 0.557499 0.129960
O O12 0.243292 0.648406 0.042349
O O13 0.963136 0.641733 0.171495
O O14 0.976157 0.220925 0.085900
O O15 0.500000 0.245807 0.750000
O O16 0.817095 0.281993 0.788239
#
# Coordination Sequence:
#
# PCOD9271709 Si02
#       8
#     8   8   8   8   8   8   8   4
#     4  11  21  40  64  96 135 171 217 261 326 400
#     4  10  22  37  62  94 132 175 214 262 327 394
#     4  12  25  45  65  94 136 174 218 275 330 390
#     4  10  20  36  60  97 132 172 213 259 322 395
#     4  10  20  38  65  94 133 171 212 267 324 384
#     4  11  25  43  68  99 129 171 222 276 328 389
#     4  11  25  46  70  95 126 171 226 278 329 382
#     4  10  20  42  66  94 126 166 220 278 326 376
#
# _framework density 22.883023999999999
#
# number of rings (size 3 to 8) (size 9 to 14) (size 15 to 20)
#    0.000    1.333    0.667    6.800    1.867    4.267 
#    2.400    0.667    0.000    0.000    0.000    0.000 
#    0.000    0.000    0.000    0.000    0.000    0.000 
#
# Total GULP energy -168011.662605 kJ/mol
# GULP energy per Si atom -5600.388753 kJ/mol
# Density = 2.283094 g / cm^3
# Si number density = 22.883024 Si / 1000 Ang^3
#
#
#
# Elastic Constant Matrix: (Units=GPa)
#
#
# Indices 1 2 3 4 5 6 
#
# 1 48.8614 24.2215 25.9581 0.0000 19.5735 0.0000
# 2 24.2215 75.3938 27.7827 0.0000 10.2198 0.0000
# 3 25.9581 27.7827 128.5830 0.0000 24.5889 0.0000
# 4 0.0000 0.0000 0.0000 -78.5337 0.0000 83.8481
# 5 19.5735 10.2198 24.5889 0.0000 37.2459 0.0000
# 6 0.0000 0.0000 0.0000 83.8481 0.0000 -25.9655
#
#
#
# Elastic Compliance Matrix: (Units=1/GPa)
#
#
# Indices 1 2 3 4 5 6 
#
# 1 0.030175 -0.007213 -0.002151 0.000000 -0.012459 0.000000
# 2 -0.007213 0.016291 -0.002213 0.000000 0.000782 0.000000
# 3 -0.002151 -0.002213 0.009565 0.000000 -0.004577 0.000000
# 4 0.000000 0.000000 0.000000 0.005202 0.000000 0.016799
# 5 -0.012459 0.000782 -0.004577 0.000000 0.036203 0.000000
# 6 0.000000 0.000000 0.000000 0.016799 0.000000 0.015734
#
#
# Mechanical properties :
#
#
# Convention : Reuss Voigt Hill
#
# Bulk Modulus (GPa) = 30.41682 45.41810 37.91746
# Shear Modulus (GPa) = 33.94850 -1.79227 16.07811
#
# Velocity S-wave (km/s) = 3.85589 -0.88596 2.65358
# Velocity P-wave (km/s) = 5.75717 4.34102 5.09850
#
# Compressibility (1/GPa) = 0.03287655
#
# Stress axis : x y z
#
# Youngs Moduli (GPa) = 33.13994 61.38518 104.55098
#
# Poissons Ratio (x) = 0.44276 0.22487
# Poissons Ratio (y) = 0.23903 0.23140
# Poissons Ratio (z) = 0.07128 0.13586
#
# Static dielectric constant tensor:
#      x y z
#    x 1.864470 0.000000 -0.030340 
#    y 0.000000 1.805380 0.000000 
#    z -0.030340 0.000000 1.876150 
# 
# From -- ./inp_files/137370.got.cif
#   From: 2010.05.17/outbox.cif.g08.bks.cpg/sg15_69_cif.got.tgz:137370.got - 2010.06.03 18:47:42.
