data_PCOD9271897
_publ_section_title
;
Structure prediction by ZEFSAII (Michael W. Deem and Ramdas Pophale) SiO2 
 PCOD9271897
Probable space group: C 2/C
;
_chemical_formula_sum "Si O2"
_cell_formula_units_Z 44
_cell_length_a 28.038569
_cell_length_b 16.055813
_cell_length_c 11.380040
_cell_angle_alpha 90.000000
_cell_angle_beta 157.522373
_cell_angle_gamma 90.000000
_cell_volume 1958.673088
_symmetry_space_group_name_H-M "C 2/C"
_symmetry_group_IT_number 15
_symmetry_cell_setting 'monoclinic'
loop_
_space_group_symop_operation_xyz
x,y,z
-x,y,1/2-z
-x,-y,-z
x,-y,1/2+z
1/2+x,1/2+y,z
1/2-x,1/2+y,1/2-z
1/2-x,1/2-y,-z
1/2+x,1/2-y,1/2+z
loop_
_atom_site_type_symbol
_atom_site_label
_atom_site_fract_x
_atom_site_fract_y
_atom_site_fract_z
Si Si1 0.184920 0.858787 0.852406
Si Si2 0.500000 0.435786 0.250000
Si Si3 0.229960 0.047444 0.699755
Si Si4 0.320921 0.298562 0.263089
Si Si5 0.582435 0.937234 0.263479
Si Si6 0.573832 0.760410 0.267525
O O1 0.142456 0.767877 0.805447
O O2 0.065738 0.884277 0.502852
O O3 0.211147 0.905284 0.035391
O O4 0.299815 0.894961 0.036662
O O5 0.608445 0.492005 0.442513
O O6 0.233752 0.113857 0.816417
O O7 0.352979 0.990190 0.986224
O O8 0.331108 0.245293 0.406900
O O9 0.463379 0.305435 0.541772
O O10 0.250000 0.250000 0.000000
O O11 0.511648 0.851481 0.130597
O O12 0.500000 0.000000 0.000000
#
# Coordination Sequence:
#
# PCOD9271897 Si02
#       6
#     8   4   8   8   8   8
#     4  10  22  39  60  86 120 157 200 249 301 358
#     4  10  20  36  62  90 116 152 198 250 302 354
#     4  10  21  38  61  90 120 153 197 252 300 352
#     4  10  21  38  62  87 118 158 198 241 298 362
#     4  11  24  40  59  88 122 159 199 245 301 357
#     4  10  22  40  61  88 120 156 200 244 293 362
#
# _framework density 22.464188
#
# number of rings (size 3 to 8) (size 9 to 14) (size 15 to 20)
#    0.000    1.818    0.000    4.364    0.000   10.909 
#    0.000    1.818    0.000    0.000    0.000    0.000 
#    0.000    0.000    0.000    0.000    0.000    0.000 
#
# Total GULP energy -122671.036059 kJ/mol
# GULP energy per Si atom -5575.956184 kJ/mol
# Density = 2.241306 g / cm^3
# Si number density = 22.464188 Si / 1000 Ang^3
#
#
#
# Elastic Constant Matrix: (Units=GPa)
#
#
# Indices 1 2 3 4 5 6 
#
# 1 33.1232 -0.1290 3.4374 0.0000 -12.0634 0.0000
# 2 -0.1290 102.0351 20.5238 0.0000 -15.9447 0.0000
# 3 3.4374 20.5238 96.1345 0.0000 -26.0996 0.0000
# 4 0.0000 0.0000 0.0000 21.8584 0.0000 -9.3671
# 5 -12.0634 -15.9447 -26.0996 0.0000 34.7709 0.0000
# 6 0.0000 0.0000 0.0000 -9.3671 0.0000 17.6412
#
#
#
# Elastic Compliance Matrix: (Units=1/GPa)
#
#
# Indices 1 2 3 4 5 6 
#
# 1 0.035391 0.001900 0.002385 0.000000 0.014940 0.000000
# 2 0.001900 0.010767 -0.001064 0.000000 0.004798 0.000000
# 3 0.002385 -0.001064 0.013358 0.000000 0.010367 0.000000
# 4 0.000000 0.000000 0.000000 0.059225 0.000000 0.031447
# 5 0.014940 0.004798 0.010367 0.000000 0.043924 0.000000
# 6 0.000000 0.000000 0.000000 0.031447 0.000000 0.073383
#
#
# Mechanical properties :
#
#
# Convention : Reuss Voigt Hill
#
# Bulk Modulus (GPa) = 15.16122 30.99525 23.07823
# Shear Modulus (GPa) = 19.87332 28.68481 24.27906
#
# Velocity S-wave (km/s) = 2.97756 3.57727 3.29110
# Velocity P-wave (km/s) = 4.31102 5.55788 4.97368
#
# Compressibility (1/GPa) = 0.06595776
#
# Stress axis : x y z
#
# Youngs Moduli (GPa) = 28.25551 92.87912 74.85932
#
# Poissons Ratio (x) = -0.17644 -0.17854
# Poissons Ratio (y) = -0.05368 0.07965
# Poissons Ratio (z) = -0.06739 0.09882
#
# Static dielectric constant tensor:
#      x y z
#    x 1.875470 0.000000 0.064790 
#    y 0.000000 1.939720 0.000000 
#    z 0.064790 0.000000 1.872820 
# 
# From -- ./inp_files/127327.got.cif
#   From: 2010.05.17/outbox.cif.g08.bks.cpg/sg15_64_cif.got.tgz:127327.got - 2010.06.03 18:47:42.
