data_PCOD9271913
_publ_section_title
;
Structure prediction by ZEFSAII (Michael W. Deem and Ramdas Pophale) SiO2 
 PCOD9271913
Probable space group: C 2/C
;
_chemical_formula_sum "Si O2"
_cell_formula_units_Z 40
_cell_length_a 21.414976
_cell_length_b 6.780043
_cell_length_c 13.400934
_cell_angle_alpha 90.000000
_cell_angle_beta 57.067978
_cell_angle_gamma 90.000000
_cell_volume 1633.092157
_symmetry_space_group_name_H-M "C 2/C"
_symmetry_group_IT_number 15
_symmetry_cell_setting 'monoclinic'
loop_
_space_group_symop_operation_xyz
x,y,z
-x,y,1/2-z
-x,-y,-z
x,-y,1/2+z
1/2+x,1/2+y,z
1/2-x,1/2+y,1/2-z
1/2-x,1/2-y,-z
1/2+x,1/2-y,1/2+z
loop_
_atom_site_type_symbol
_atom_site_label
_atom_site_fract_x
_atom_site_fract_y
_atom_site_fract_z
Si Si1 0.823979 0.792986 0.328939
Si Si2 0.577926 0.792917 0.130547
Si Si3 0.367447 0.434200 0.096548
Si Si4 0.657206 0.174771 0.974037
Si Si5 0.785760 0.329424 0.367072
O O1 0.881598 0.857579 0.195329
O O2 0.742878 0.893663 0.385695
O O3 0.843967 0.814654 0.427004
O O4 0.807782 0.559668 0.336110
O O5 0.500000 0.826246 0.250000
O O6 0.632723 0.741009 0.176481
O O7 0.606767 0.991233 0.047764
O O8 0.579129 0.638119 0.038117
O O9 0.286483 0.330937 0.142800
O O10 0.360904 0.672284 0.098140
O O11 0.750000 0.250000 0.500000
#
# Coordination Sequence:
#
# PCOD9271913 Si02
#       5
#     8   8   8   8   8
#     4   9  18  35  60  90 118 144 205 256 290 354
#     4  10  21  38  59  84 122 164 196 240 301 364
#     4  10  20  36  62  91 113 155 203 251 295 348
#     4   9  20  37  55  86 121 151 187 255 301 341
#     4   8  17  36  57  85 116 150 196 248 291 334
#
# _framework density 24.493414000000001
#
# number of rings (size 3 to 8) (size 9 to 14) (size 15 to 20)
#    0.000    2.800    0.000    1.200    5.600    0.800 
#    0.000    4.000    0.000    6.000    0.000    0.000 
#    0.000    0.000    0.000    0.000    0.000    0.000 
#
# Total GULP energy -111380.447062 kJ/mol
# GULP energy per Si atom -5569.022353 kJ/mol
# Density = 2.443767 g / cm^3
# Si number density = 24.493414 Si / 1000 Ang^3
#
#
#
# Elastic Constant Matrix: (Units=GPa)
#
#
# Indices 1 2 3 4 5 6 
#
# 1 16.9019 -20.4835 21.3351 -0.0001 0.7354 0.0003
# 2 -20.4835 71.7700 7.2284 -0.0001 6.0873 0.0004
# 3 21.3351 7.2284 112.8561 0.0000 6.0119 -0.0001
# 4 -0.0001 -0.0001 0.0000 36.2034 0.0000 8.7514
# 5 0.7354 6.0873 6.0119 0.0000 44.4460 0.0000
# 6 0.0003 0.0004 -0.0001 8.7514 0.0000 13.6326
#
#
#
# Elastic Compliance Matrix: (Units=1/GPa)
#
#
# Indices 1 2 3 4 5 6 
#
# 1 0.163087 0.050375 -0.033790 0.000002 -0.005027 -0.000006
# 2 0.050375 0.029731 -0.011247 0.000001 -0.003384 -0.000003
# 3 -0.033790 -0.011247 0.015972 0.000000 -0.000061 0.000001
# 4 0.000002 0.000001 0.000000 0.032695 0.000000 -0.020989
# 5 -0.005027 -0.003384 -0.000061 0.000000 0.023054 0.000000
# 6 -0.000006 -0.000003 0.000001 -0.020989 0.000000 0.086827
#
#
# Mechanical properties :
#
#
# Convention : Reuss Voigt Hill
#
# Bulk Modulus (GPa) = 4.55652 24.18757 14.37205
# Shear Modulus (GPa) = 12.08183 31.75294 21.91738
#
# Velocity S-wave (km/s) = 2.22337 3.60444 2.99461
# Velocity P-wave (km/s) = 2.90784 5.21721 4.22343
#
# Compressibility (1/GPa) = 0.21946589
#
# Stress axis : x y z
#
# Youngs Moduli (GPa) = 6.13171 33.63545 62.60827
#
# Poissons Ratio (x) = -1.69439 2.11552
# Poissons Ratio (y) = -0.30889 0.70417
# Poissons Ratio (z) = 0.20719 0.37831
#
# Static dielectric constant tensor:
#      x y z
#    x 2.097470 0.000000 0.032570 
#    y 0.000000 2.045480 0.000000 
#    z 0.032570 0.000000 1.917070 
# 
# From -- ./inp_files/176047.got.cif
#   From: 2010.05.17/outbox.cif.g08.bks.cpg/sg15_89_cif.got.tgz:176047.got - 2010.06.03 18:47:42.
