data_PCOD9271979
_publ_section_title
;
Structure prediction by ZEFSAII (Michael W. Deem and Ramdas Pophale) SiO2 
 PCOD9271979
Probable space group: C 2/C
;
_chemical_formula_sum "Si O2"
_cell_formula_units_Z 60
_cell_length_a 19.068085
_cell_length_b 5.315902
_cell_length_c 25.310150
_cell_angle_alpha 90.000000
_cell_angle_beta 96.394096
_cell_angle_gamma 90.000000
_cell_volume 2549.580649
_symmetry_space_group_name_H-M "C 2/C"
_symmetry_group_IT_number 15
_symmetry_cell_setting 'monoclinic'
loop_
_space_group_symop_operation_xyz
x,y,z
-x,y,1/2-z
-x,-y,-z
x,-y,1/2+z
1/2+x,1/2+y,z
1/2-x,1/2+y,1/2-z
1/2-x,1/2-y,-z
1/2+x,1/2-y,1/2+z
loop_
_atom_site_type_symbol
_atom_site_label
_atom_site_fract_x
_atom_site_fract_y
_atom_site_fract_z
Si Si1 0.915171 0.984162 0.978865
Si Si2 0.449625 0.984911 0.944479
Si Si3 0.500000 0.976061 0.750000
Si Si4 0.652016 0.107722 0.744014
Si Si5 0.159299 0.907738 0.180328
Si Si6 0.498283 0.685054 0.646294
Si Si7 0.706282 0.981954 0.367619
Si Si8 0.858377 0.010193 0.589305
O O1 0.871483 0.946008 0.028362
O O2 0.910147 0.747628 0.939851
O O3 0.898895 0.252068 0.952324
O O4 0.000000 0.000000 0.000000
O O5 0.493370 0.906352 0.896750
O O6 0.500000 0.000000 0.000000
O O7 0.476021 0.800944 0.699913
O O8 0.567085 0.130150 0.737456
O O9 0.678760 0.369999 0.722903
O O10 0.675663 0.059222 0.805787
O O11 0.668941 0.867013 0.708285
O O12 0.076482 0.922616 0.159953
O O13 0.210718 0.950900 0.135564
O O14 0.437377 0.503855 0.620761
O O15 0.678242 0.753421 0.401098
O O16 0.681713 0.250931 0.388378
#
# Coordination Sequence:
#
# PCOD9271979 Si02
#       8
#     8   8   4   8   8   8   8   8
#     4  10  20  36  62  97 123 154 213 272 318 376
#     4  10  20  37  63  94 125 164 214 265 318 388
#     4  10  24  38  62 108 132 158 210 292 316 380
#     4  11  23  41  65  88 130 176 227 256 323 384
#     4  11  26  43  62  89 132 179 218 260 327 396
#     4  11  24  42  67 100 133 170 215 275 331 378
#     4  12  25  42  64  91 132 175 218 265 322 395
#     4  12  24  39  69  98 124 163 221 275 320 369
#
# _framework density 23.533283000000001
#
# number of rings (size 3 to 8) (size 9 to 14) (size 15 to 20)
#    0.000    1.067    4.000    3.200    5.600    2.667 
#    0.000    0.000    0.000    4.800    0.000    0.000 
#    0.000    0.000    0.000    0.000    0.000    0.000 
#
# Total GULP energy -167898.277204 kJ/mol
# GULP energy per Si atom -5596.609240 kJ/mol
# Density = 2.347972 g / cm^3
# Si number density = 23.533283 Si / 1000 Ang^3
#
#
#
# Elastic Constant Matrix: (Units=GPa)
#
#
# Indices 1 2 3 4 5 6 
#
# 1 90.4234 22.1040 -8.7397 0.0000 -19.9667 0.0000
# 2 22.1040 151.0197 29.1537 0.0000 -9.8345 0.0000
# 3 -8.7397 29.1537 89.9734 0.0000 -14.2538 0.0000
# 4 0.0000 0.0000 0.0000 42.9599 0.0000 -12.2204
# 5 -19.9667 -9.8345 -14.2538 0.0000 31.6778 0.0000
# 6 0.0000 0.0000 0.0000 -12.2204 0.0000 7.6891
#
#
#
# Elastic Compliance Matrix: (Units=1/GPa)
#
#
# Indices 1 2 3 4 5 6 
#
# 1 0.014105 -0.002121 0.003619 0.000000 0.009860 0.000000
# 2 -0.002121 0.007429 -0.002648 0.000000 -0.000222 0.000000
# 3 0.003619 -0.002648 0.013519 0.000000 0.007542 0.000000
# 4 0.000000 0.000000 0.000000 0.042485 0.000000 0.067522
# 5 0.009860 -0.000222 0.007542 0.000000 0.041108 0.000000
# 6 0.000000 0.000000 0.000000 0.067522 0.000000 0.237370
#
#
# Mechanical properties :
#
#
# Convention : Reuss Voigt Hill
#
# Bulk Modulus (GPa) = 30.53187 46.27251 38.40219
# Shear Modulus (GPa) = 13.54160 35.72525 24.63343
#
# Velocity S-wave (km/s) = 2.40140 3.90047 3.23886
# Velocity P-wave (km/s) = 4.54874 6.32378 5.50823
#
# Compressibility (1/GPa) = 0.03275266
#
# Stress axis : x y z
#
# Youngs Moduli (GPa) = 70.89825 134.60974 73.97009
#
# Poissons Ratio (x) = 0.28551 -0.26773
# Poissons Ratio (y) = 0.15038 0.19590
# Poissons Ratio (z) = -0.25661 0.35650
#
# Static dielectric constant tensor:
#      x y z
#    x 1.910110 0.000000 -0.007650 
#    y 0.000000 1.794480 0.000000 
#    z -0.007650 0.000000 1.871560 
# 
# From -- ./inp_files/299897.got.cif
#   From: 2010.05.17/outbox.cif.g08.bks.cpg/sg15_150_cif.got.tgz:299897.got - 2010.06.03 18:47:42.
