data_PCOD9271479
_publ_section_title
;
Structure prediction by ZEFSAII (Michael W. Deem and Ramdas Pophale) SiO2 
 PCOD9271479
Probable space group: C 2/C
;
_chemical_formula_sum "Si O2"
_cell_formula_units_Z 52
_cell_length_a 6.840535
_cell_length_b 18.817717
_cell_length_c 22.194153
_cell_angle_alpha 90.000000
_cell_angle_beta 77.126363
_cell_angle_gamma 90.000000
_cell_volume 2785.091883
_symmetry_space_group_name_H-M "C 2/C"
_symmetry_group_IT_number 15
_symmetry_cell_setting 'monoclinic'
loop_
_space_group_symop_operation_xyz
x,y,z
-x,y,1/2-z
-x,-y,-z
x,-y,1/2+z
1/2+x,1/2+y,z
1/2-x,1/2+y,1/2-z
1/2-x,1/2-y,-z
1/2+x,1/2-y,1/2+z
loop_
_atom_site_type_symbol
_atom_site_label
_atom_site_fract_x
_atom_site_fract_y
_atom_site_fract_z
Si Si1 0.649755 0.333995 0.961787
Si Si2 0.779146 0.129448 0.419748
Si Si3 0.450921 0.920598 0.023656
Si Si4 0.579649 0.621842 0.808753
Si Si5 0.775822 0.484199 0.149154
Si Si6 0.500000 0.943638 0.250000
Si Si7 0.978486 0.240518 0.586695
O O1 0.508907 0.370278 0.922919
O O2 0.814399 0.284185 0.919032
O O3 0.771332 0.388307 0.996117
O O4 0.510204 0.289008 0.016783
O O5 0.646327 0.122244 0.490058
O O6 0.701768 0.202980 0.396812
O O7 0.734793 0.061053 0.381457
O O8 0.389254 0.928501 0.096891
O O9 0.500000 0.000000 0.000000
O O10 0.500000 0.651262 0.750000
O O11 0.443416 0.550968 0.827434
O O12 0.813315 0.602327 0.787500
O O13 0.543788 0.676944 0.864917
O O14 0.899036 0.487181 0.202518
#
# Coordination Sequence:
#
# PCOD9271479 Si02
#       7
#     8   8   8   8   8   4   8
#     4  10  20  36  59  89 129 159 184 249 309 355
#     4  10  22  35  59  93 121 156 191 232 314 366
#     4   9  19  33  55  91 118 147 193 234 294 363
#     4  10  22  41  63  85 113 159 212 250 294 349
#     4  10  21  39  58  87 118 153 202 247 293 357
#     4  10  24  40  66  82 112 158 202 252 296 334
#     4  10  21  38  58  91 123 156 199 243 297 371
#
# _framework density 18.670839000000001
#
# number of rings (size 3 to 8) (size 9 to 14) (size 15 to 20)
#    0.000    2.154    1.538    0.462    2.154    8.615 
#    1.385    0.000    5.077    0.000    0.000    0.000 
#    0.000    0.000    0.000    0.000    0.000    0.000 
#
# Total GULP energy -144957.809126 kJ/mol
# GULP energy per Si atom -5575.300351 kJ/mol
# Density = 1.862834 g / cm^3
# Si number density = 18.670839 Si / 1000 Ang^3
#
#
#
# Elastic Constant Matrix: (Units=GPa)
#
#
# Indices 1 2 3 4 5 6 
#
# 1 110.0568 42.5207 39.4968 0.0000 10.2666 0.0000
# 2 42.5207 78.1522 21.2055 0.0000 7.8035 0.0000
# 3 39.4968 21.2055 64.6974 0.0000 -3.6046 0.0000
# 4 0.0000 0.0000 0.0000 26.8822 0.0000 -4.9640
# 5 10.2666 7.8035 -3.6046 0.0000 19.2100 0.0000
# 6 0.0000 0.0000 0.0000 -4.9640 0.0000 -76.8029
#
#
#
# Elastic Compliance Matrix: (Units=1/GPa)
#
#
# Indices 1 2 3 4 5 6 
#
# 1 0.014411 -0.005097 -0.007519 0.000000 -0.007042 0.000000
# 2 -0.005097 0.016738 -0.002629 0.000000 -0.004569 0.000000
# 3 -0.007519 -0.002629 0.021416 0.000000 0.009105 0.000000
# 4 0.000000 0.000000 0.000000 0.036761 0.000000 -0.002376
# 5 -0.007042 -0.004569 0.009105 0.000000 0.059384 0.000000
# 6 0.000000 0.000000 0.000000 -0.002376 0.000000 -0.012867
#
#
# Mechanical properties :
#
#
# Convention : Reuss Voigt Hill
#
# Bulk Modulus (GPa) = 45.30178 51.03915 48.17046
# Shear Modulus (GPa) = 28.78649 3.83676 16.31162
#
# Velocity S-wave (km/s) = 3.93082 1.43506 2.95895
# Velocity P-wave (km/s) = 6.70208 5.49013 6.12615
#
# Compressibility (1/GPa) = 0.02207419
#
# Stress axis : x y z
#
# Youngs Moduli (GPa) = 69.39147 59.74311 46.69406
#
# Poissons Ratio (x) = 0.30453 0.35111
# Poissons Ratio (y) = 0.35371 0.12276
# Poissons Ratio (z) = 0.52178 0.15706
#
# Static dielectric constant tensor:
#      x y z
#    x 1.658110 0.000000 -0.018000 
#    y 0.000000 1.645460 0.000000 
#    z -0.018000 0.000000 1.670120 
# 
# From -- ./inp_files/227501.got.cif
#   From: 2010.05.17/outbox.cif.g08.bks.cpg/sg15_114_cif.got.tgz:227501.got - 2010.06.03 18:47:42.
