data_PCOD9271083
_publ_section_title
;
Structure prediction by ZEFSAII (Michael W. Deem and Ramdas Pophale) SiO2 
 PCOD9271083
Probable space group: C 2/C
;
_chemical_formula_sum "Si O2"
_cell_formula_units_Z 48
_cell_length_a 7.175460
_cell_length_b 12.757132
_cell_length_c 23.668591
_cell_angle_alpha 90.000000
_cell_angle_beta 79.577481
_cell_angle_gamma 90.000000
_cell_volume 2130.834712
_symmetry_space_group_name_H-M "C 2/C"
_symmetry_group_IT_number 15
_symmetry_cell_setting 'monoclinic'
loop_
_space_group_symop_operation_xyz
x,y,z
-x,y,1/2-z
-x,-y,-z
x,-y,1/2+z
1/2+x,1/2+y,z
1/2-x,1/2+y,1/2-z
1/2-x,1/2-y,-z
1/2+x,1/2-y,1/2+z
loop_
_atom_site_type_symbol
_atom_site_label
_atom_site_fract_x
_atom_site_fract_y
_atom_site_fract_z
Si Si1 0.090867 0.995881 0.844047
Si Si2 0.951387 0.229056 0.688697
Si Si3 0.828255 0.270592 0.093010
Si Si4 0.450094 0.712526 0.311962
Si Si5 0.217267 0.497046 0.942066
Si Si6 0.194171 0.439641 0.561127
O O1 0.899058 0.985777 0.892484
O O2 0.101899 0.105686 0.811924
O O3 0.071068 0.895083 0.805386
O O4 0.259520 0.985880 0.879834
O O5 0.775100 0.296405 0.676981
O O6 0.000000 0.257240 0.750000
O O7 0.132740 0.237648 0.638915
O O8 0.840895 0.380517 0.061292
O O9 0.812784 0.168998 0.054131
O O10 0.987684 0.264733 0.132701
O O11 0.500000 0.769396 0.250000
O O12 0.032245 0.431032 0.935160
O O13 0.260382 0.485915 0.006090
#
# Coordination Sequence:
#
# PCOD9271083 Si02
#       6
#     8   8   8   8   8   8
#     4  10  22  36  56  82 112 144 188 232 282 336
#     4  11  21  37  57  79 111 148 187 233 285 338
#     4  10  21  36  56  82 112 146 185 230 280 336
#     4  11  21  37  57  79 111 148 187 233 285 338
#     4  10  20  36  57  82 112 146 185 229 279 335
#     4  10  20  36  57  82 112 146 185 229 279 335
#
# _framework density 22.526382999999999
#
# number of rings (size 3 to 8) (size 9 to 14) (size 15 to 20)
#    0.000    1.667    1.667    3.500    0.000    0.000 
#    0.000    0.000    0.000   16.000    0.000    0.000 
#    0.000    0.000    0.000    0.000    0.000    0.000 
#
# Total GULP energy -134053.906947 kJ/mol
# GULP energy per Si atom -5585.579456 kJ/mol
# Density = 2.247511 g / cm^3
# Si number density = 22.526383 Si / 1000 Ang^3
#
#
#
# Elastic Constant Matrix: (Units=GPa)
#
#
# Indices 1 2 3 4 5 6 
#
# 1 91.3185 7.6550 42.3772 0.0000 26.0155 0.0000
# 2 7.6550 52.9742 -2.2642 0.0000 15.9928 0.0000
# 3 42.3772 -2.2642 78.0633 0.0000 20.8780 0.0000
# 4 0.0000 0.0000 0.0000 9.2118 0.0000 3.3308
# 5 26.0155 15.9928 20.8780 0.0000 45.9949 0.0000
# 6 0.0000 0.0000 0.0000 3.3308 0.0000 22.9948
#
#
#
# Elastic Compliance Matrix: (Units=1/GPa)
#
#
# Indices 1 2 3 4 5 6 
#
# 1 0.015923 -0.000986 -0.007234 0.000000 -0.005380 0.000000
# 2 -0.000986 0.021757 0.003461 0.000000 -0.008578 0.000000
# 3 -0.007234 0.003461 0.018285 0.000000 -0.005412 0.000000
# 4 0.000000 0.000000 0.000000 0.114557 0.000000 -0.016594
# 5 -0.005380 -0.008578 -0.005412 0.000000 0.030224 0.000000
# 6 0.000000 0.000000 0.000000 -0.016594 0.000000 0.045892
#
#
# Mechanical properties :
#
#
# Convention : Reuss Voigt Hill
#
# Bulk Modulus (GPa) = 21.52999 35.32134 28.42567
# Shear Modulus (GPa) = 18.40692 27.27949 22.84321
#
# Velocity S-wave (km/s) = 2.86165 3.48372 3.18789
# Velocity P-wave (km/s) = 4.52737 5.64763 5.11825
#
# Compressibility (1/GPa) = 0.04644684
#
# Stress axis : x y z
#
# Youngs Moduli (GPa) = 62.80305 45.96164 54.69091
#
# Poissons Ratio (x) = 0.04531 0.39561
# Poissons Ratio (y) = 0.06192 -0.18926
# Poissons Ratio (z) = 0.45429 -0.15905
#
# Static dielectric constant tensor:
#      x y z
#    x 1.820850 0.000000 0.008140 
#    y 0.000000 1.844730 0.000000 
#    z 0.008140 0.000000 1.810040 
# 
# From -- ./inp_files/285561.got.cif
#   From: 2010.05.17/outbox.cif.g08.bks.cpg/sg15_143_cif.got.tgz:285561.got - 2010.06.03 18:47:42.
