data_PCOD9271581
_publ_section_title
;
Structure prediction by ZEFSAII (Michael W. Deem and Ramdas Pophale) SiO2 
 PCOD9271581
Probable space group: C 2/C
;
_chemical_formula_sum "Si O2"
_cell_formula_units_Z 56
_cell_length_a 19.970670
_cell_length_b 6.401123
_cell_length_c 21.068279
_cell_angle_alpha 90.000000
_cell_angle_beta 76.070641
_cell_angle_gamma 90.000000
_cell_volume 2614.057518
_symmetry_space_group_name_H-M "C 2/C"
_symmetry_group_IT_number 15
_symmetry_cell_setting 'monoclinic'
loop_
_space_group_symop_operation_xyz
x,y,z
-x,y,1/2-z
-x,-y,-z
x,-y,1/2+z
1/2+x,1/2+y,z
1/2-x,1/2+y,1/2-z
1/2-x,1/2-y,-z
1/2+x,1/2-y,1/2+z
loop_
_atom_site_type_symbol
_atom_site_label
_atom_site_fract_x
_atom_site_fract_y
_atom_site_fract_z
Si Si1 0.066626 0.492673 0.941393
Si Si2 0.257637 0.563791 0.548368
Si Si3 0.858235 0.278130 0.968920
Si Si4 0.153281 0.163009 0.855271
Si Si5 0.959938 0.161443 0.840323
Si Si6 0.903330 0.613237 0.239030
Si Si7 0.936651 0.793898 0.677944
O O1 0.094030 0.266807 0.913572
O O2 0.054165 0.644259 0.884846
O O3 0.125292 0.589937 0.972370
O O4 0.000000 0.500000 0.000000
O O5 0.250000 0.750000 0.500000
O O6 0.188423 0.425863 0.564725
O O7 0.315529 0.417536 0.503492
O O8 0.282667 0.628985 0.612825
O O9 0.925537 0.202414 0.915733
O O10 0.157678 0.326540 0.795762
O O11 0.123037 0.955389 0.829652
O O12 0.904373 0.241051 0.800938
O O13 0.025036 0.309316 0.810315
O O14 0.994598 0.932671 0.826178
O O15 0.912772 0.363582 0.239445
#
# Coordination Sequence:
#
# PCOD9271581 Si02
#       7
#     8   8   8   8   8   8   8
#     4  11  21  33  57  96 124 152 201 249 310 375
#     4  11  23  40  61  85 125 170 205 252 302 358
#     4  11  23  37  61  92 123 162 208 251 302 365
#     4  10  20  37  59  83 118 165 205 244 305 361
#     4  10  22  39  59  94 126 156 205 246 314 370
#     4   9  21  38  61  89 124 157 202 249 307 377
#     4  10  20  36  60  86 125 161 184 255 306 358
#
# _framework density 21.422636000000001
#
# number of rings (size 3 to 8) (size 9 to 14) (size 15 to 20)
#    0.000    1.714    2.857    2.571    2.000    6.857 
#    0.000    0.000    6.286    0.000    0.000    0.000 
#    0.000    0.000    0.000    0.000    0.000    0.000 
#
# Total GULP energy -156142.385506 kJ/mol
# GULP energy per Si atom -5576.513768 kJ/mol
# Density = 2.137388 g / cm^3
# Si number density = 21.422636 Si / 1000 Ang^3
#
#
#
# Elastic Constant Matrix: (Units=GPa)
#
#
# Indices 1 2 3 4 5 6 
#
# 1 54.5404 31.3134 21.8233 0.0000 34.4916 0.0000
# 2 31.3134 112.7717 17.4906 0.0000 26.1604 0.0000
# 3 21.8233 17.4906 50.4485 0.0000 33.9600 0.0000
# 4 0.0000 0.0000 0.0000 23.9558 0.0000 18.5462
# 5 34.4916 26.1604 33.9600 0.0000 43.3564 0.0000
# 6 0.0000 0.0000 0.0000 18.5462 0.0000 29.2364
#
#
#
# Elastic Compliance Matrix: (Units=1/GPa)
#
#
# Indices 1 2 3 4 5 6 
#
# 1 0.040054 -0.004083 0.008208 0.000000 -0.035830 0.000000
# 2 -0.004083 0.010767 0.000465 0.000000 -0.003613 0.000000
# 3 0.008208 0.000465 0.043777 0.000000 -0.041100 0.000000
# 4 0.000000 0.000000 0.000000 0.082028 0.000000 -0.052035
# 5 -0.035830 -0.003613 -0.041100 0.000000 0.085941 0.000000
# 6 0.000000 0.000000 0.000000 -0.052035 0.000000 0.067212
#
#
# Mechanical properties :
#
#
# Convention : Reuss Voigt Hill
#
# Bulk Modulus (GPa) = 9.63584 39.89059 24.76322
# Shear Modulus (GPa) = 14.07689 29.11861 21.59775
#
# Velocity S-wave (km/s) = 2.56618 3.69079 3.17862
# Velocity P-wave (km/s) = 3.64529 6.06826 5.00559
#
# Compressibility (1/GPa) = 0.10377920
#
# Stress axis : x y z
#
# Youngs Moduli (GPa) = 24.96631 92.87476 22.84291
#
# Poissons Ratio (x) = 0.37922 -0.18750
# Poissons Ratio (y) = 0.10194 -0.01063
# Poissons Ratio (z) = -0.20493 -0.04322
#
# Static dielectric constant tensor:
#      x y z
#    x 1.882300 0.000000 0.105240 
#    y 0.000000 1.823990 0.000000 
#    z 0.105240 0.000000 1.844000 
# 
# From -- ./inp_files/278637.got.cif
#   From: 2010.05.17/outbox.cif.g08.bks.cpg/sg15_140_cif.got.tgz:278637.got - 2010.06.03 18:47:42.
