data_PCOD9271354
_publ_section_title
;
Structure prediction by ZEFSAII (Michael W. Deem and Ramdas Pophale) SiO2 
 PCOD9271354
Probable space group: C 2/C
;
_chemical_formula_sum "Si O2"
_cell_formula_units_Z 60
_cell_length_a 20.775085
_cell_length_b 11.918431
_cell_length_c 11.379528
_cell_angle_alpha 90.000000
_cell_angle_beta 82.964564
_cell_angle_gamma 90.000000
_cell_volume 2796.428954
_symmetry_space_group_name_H-M "C 2/C"
_symmetry_group_IT_number 15
_symmetry_cell_setting 'monoclinic'
loop_
_space_group_symop_operation_xyz
x,y,z
-x,y,1/2-z
-x,-y,-z
x,-y,1/2+z
1/2+x,1/2+y,z
1/2-x,1/2+y,1/2-z
1/2-x,1/2-y,-z
1/2+x,1/2-y,1/2+z
loop_
_atom_site_type_symbol
_atom_site_label
_atom_site_fract_x
_atom_site_fract_y
_atom_site_fract_z
Si Si1 0.138266 0.427034 0.294650
Si Si2 0.000000 0.345967 0.250000
Si Si3 0.375001 0.769322 0.982301
Si Si4 0.052677 0.032508 0.838254
Si Si5 0.246259 0.161518 0.895930
Si Si6 0.680242 0.442579 0.879307
Si Si7 0.008240 0.809642 0.529770
Si Si8 0.309930 0.837485 0.755359
O O1 0.063113 0.414154 0.275322
O O2 0.146909 0.353169 0.409484
O O3 0.186689 0.376162 0.183832
O O4 0.155413 0.556693 0.312883
O O5 0.975014 0.267804 0.363341
O O6 0.348910 0.646762 0.023692
O O7 0.452457 0.756557 0.971691
O O8 0.347626 0.811211 0.866443
O O9 0.000000 0.061338 0.750000
O O10 0.125403 0.988064 0.801304
O O11 0.021788 0.922397 0.906458
O O12 0.057711 0.137875 0.925813
O O13 0.200803 0.224223 0.812428
O O14 0.211548 0.046793 0.940111
O O15 0.250000 0.250000 0.000000
O O16 0.737703 0.381495 0.798707
#
# Coordination Sequence:
#
# PCOD9271354 Si02
#       8
#     8   4   8   8   8   8   8   8
#     4  10  24  43  68  94 127 177 224 266 327 391
#     4  10  20  44  66  88 126 176 220 264 320 390
#     4  10  21  44  66  94 126 173 221 264 334 386
#     4  10  20  36  58  94 129 161 212 268 322 384
#     4  11  26  41  63  99 133 171 217 278 328 390
#     4  10  23  40  64  97 125 174 209 269 335 382
#     4   9  20  36  61  90 122 168 212 263 318 384
#     4  11  24  42  68  94 132 173 220 270 321 399
#
# _framework density 21.455936000000001
#
# number of rings (size 3 to 8) (size 9 to 14) (size 15 to 20)
#    0.000    1.867    2.000    0.400    7.467    1.067 
#    2.400    4.000    0.000    0.000    0.000    0.000 
#    0.000    0.000    0.000    0.000    0.000    0.000 
#
# Total GULP energy -167452.677720 kJ/mol
# GULP energy per Si atom -5581.755924 kJ/mol
# Density = 2.140710 g / cm^3
# Si number density = 21.455936 Si / 1000 Ang^3
#
#
#
# Elastic Constant Matrix: (Units=GPa)
#
#
# Indices 1 2 3 4 5 6 
#
# 1 37.2745 9.3179 12.6260 0.0000 11.8580 0.0000
# 2 9.3179 82.8982 0.3181 0.0000 -2.6503 0.0000
# 3 12.6260 0.3181 42.9736 0.0000 16.2263 0.0000
# 4 0.0000 0.0000 0.0000 16.1814 0.0000 2.3216
# 5 11.8580 -2.6503 16.2263 0.0000 16.3181 0.0000
# 6 0.0000 0.0000 0.0000 2.3216 0.0000 24.0532
#
#
#
# Elastic Compliance Matrix: (Units=1/GPa)
#
#
# Indices 1 2 3 4 5 6 
#
# 1 0.036876 -0.005006 -0.000596 0.000000 -0.027018 0.000000
# 2 -0.005006 0.012854 -0.001259 0.000000 0.006977 0.000000
# 3 -0.000596 -0.001259 0.037417 0.000000 -0.036978 0.000000
# 4 0.000000 0.000000 0.000000 0.062667 0.000000 -0.006049
# 5 -0.027018 0.006977 -0.036978 0.000000 0.118818 0.000000
# 6 0.000000 0.000000 0.000000 -0.006049 0.000000 0.042158
#
#
# Mechanical properties :
#
#
# Convention : Reuss Voigt Hill
#
# Bulk Modulus (GPa) = 13.61940 23.07448 18.34694
# Shear Modulus (GPa) = 14.32713 20.70280 17.51497
#
# Velocity S-wave (km/s) = 2.58688 3.10965 2.86024
# Velocity P-wave (km/s) = 3.90948 4.86528 4.41333
#
# Compressibility (1/GPa) = 0.07342467
#
# Stress axis : x y z
#
# Youngs Moduli (GPa) = 27.11760 77.79906 26.72586
#
# Poissons Ratio (x) = 0.38950 0.01593
# Poissons Ratio (y) = 0.13576 0.03364
# Poissons Ratio (z) = 0.01616 0.09793
#
# Static dielectric constant tensor:
#      x y z
#    x 1.794740 0.000000 -0.004280 
#    y 0.000000 1.755090 0.000000 
#    z -0.004280 0.000000 1.788220 
# 
# From -- ./inp_files/111644.got.cif
#   From: 2010.05.17/outbox.cif.g08.bks.cpg/sg15_56_cif.got.tgz:111644.got - 2010.06.03 18:47:42.
