data_PCOD9271779
_publ_section_title
;
Structure prediction by ZEFSAII (Michael W. Deem and Ramdas Pophale) SiO2 
 PCOD9271779
Probable space group: C 2/C
;
_chemical_formula_sum "Si O2"
_cell_formula_units_Z 52
_cell_length_a 7.880090
_cell_length_b 16.628651
_cell_length_c 20.666235
_cell_angle_alpha 90.000000
_cell_angle_beta 68.964432
_cell_angle_gamma 90.000000
_cell_volume 2527.538103
_symmetry_space_group_name_H-M "C 2/C"
_symmetry_group_IT_number 15
_symmetry_cell_setting 'monoclinic'
loop_
_space_group_symop_operation_xyz
x,y,z
-x,y,1/2-z
-x,-y,-z
x,-y,1/2+z
1/2+x,1/2+y,z
1/2-x,1/2+y,1/2-z
1/2-x,1/2-y,-z
1/2+x,1/2-y,1/2+z
loop_
_atom_site_type_symbol
_atom_site_label
_atom_site_fract_x
_atom_site_fract_y
_atom_site_fract_z
Si Si1 0.304790 0.963078 0.540523
Si Si2 0.886271 0.268639 0.199814
Si Si3 0.075003 0.544329 0.337247
Si Si4 0.855151 0.618219 0.905313
Si Si5 0.000000 0.140368 0.750000
Si Si6 0.015394 0.057075 0.883387
Si Si7 0.735424 0.592420 0.317011
O O1 0.313057 0.934342 0.613842
O O2 0.290209 0.896021 0.487598
O O3 0.500000 0.000000 0.500000
O O4 0.166475 0.037882 0.552429
O O5 0.686227 0.308761 0.231675
O O6 0.853430 0.175175 0.191131
O O7 0.000000 0.281974 0.250000
O O8 0.011718 0.308234 0.127094
O O9 0.198295 0.545131 0.256572
O O10 0.975148 0.459018 0.364018
O O11 0.911215 0.603953 0.339081
O O12 0.668120 0.615786 0.890671
O O13 0.028492 0.086803 0.682333
O O14 0.101621 0.968178 0.870385
#
# Coordination Sequence:
#
# PCOD9271779 Si02
#       7
#     8   8   8   8   4   8   8
#     4  10  20  36  61  91 121 159 209 258 303 367
#     4  12  25  41  60  94 134 158 202 264 316 365
#     4   9  19  38  65  91 122 159 210 256 301 374
#     4  10  21  40  61  92 128 161 204 260 307 367
#     4  12  22  38  64  94 120 166 206 258 322 352
#     4  11  21  37  64  90 118 165 214 253 309 372
#     4  10  22  38  62  92 123 160 204 256 314 360
#
# _framework density 20.573378999999999
#
# number of rings (size 3 to 8) (size 9 to 14) (size 15 to 20)
#    0.000    1.538    1.538    5.077    5.385    0.000 
#    0.000    1.538    0.000    0.000    0.000    0.000 
#    0.000    0.000    0.000    0.000    0.000    0.000 
#
# Total GULP energy -145117.531167 kJ/mol
# GULP energy per Si atom -5581.443506 kJ/mol
# Density = 2.052655 g / cm^3
# Si number density = 20.573379 Si / 1000 Ang^3
#
#
#
# Elastic Constant Matrix: (Units=GPa)
#
#
# Indices 1 2 3 4 5 6 
#
# 1 105.2417 14.9016 10.3925 0.0000 -5.4873 0.0000
# 2 14.9016 28.9498 0.2429 0.0000 -5.3367 0.0000
# 3 10.3925 0.2429 39.4618 0.0000 7.7802 0.0000
# 4 0.0000 0.0000 0.0000 0.8793 0.0000 5.5486
# 5 -5.4873 -5.3367 7.7802 0.0000 44.0204 0.0000
# 6 0.0000 0.0000 0.0000 5.5486 0.0000 25.1448
#
#
#
# Elastic Compliance Matrix: (Units=1/GPa)
#
#
# Indices 1 2 3 4 5 6 
#
# 1 0.010599 -0.005206 -0.003000 0.000000 0.001220 0.000000
# 2 -0.005206 0.037935 0.000372 0.000000 0.003884 0.000000
# 3 -0.003000 0.000372 0.027139 0.000000 -0.005126 0.000000
# 4 0.000000 0.000000 0.000000 -2.897498 0.000000 0.639384
# 5 0.001220 0.003884 -0.005126 0.000000 0.024246 0.000000
# 6 0.000000 0.000000 0.000000 0.639384 0.000000 -0.101322
#
#
# Mechanical properties :
#
#
# Convention : Reuss Voigt Hill
#
# Bulk Modulus (GPa) = 16.66512 24.96970 20.81741
# Shear Modulus (GPa) = -1.74628 23.88331 11.06852
#
# Velocity S-wave (km/s) = -0.92231 3.41087 2.32200
# Velocity P-wave (km/s) = 2.64267 5.26073 4.16287
#
# Compressibility (1/GPa) = 0.06000556
#
# Stress axis : x y z
#
# Youngs Moduli (GPa) = 94.34969 26.36088 36.84701
#
# Poissons Ratio (x) = 0.13722 0.11053
# Poissons Ratio (y) = 0.49114 -0.01369
# Poissons Ratio (z) = 0.28303 -0.00980
#
# Static dielectric constant tensor:
#      x y z
#    x 1.803820 0.000000 0.007940 
#    y 0.000000 1.713060 0.000000 
#    z 0.007940 0.000000 1.776030 
# 
# From -- ./inp_files/232074.got.cif
#   From: 2010.05.17/outbox.cif.g08.bks.cpg/sg15_117_cif.got.tgz:232074.got - 2010.06.03 18:47:42.
