data_PCOD9271704
_publ_section_title
;
Structure prediction by ZEFSAII (Michael W. Deem and Ramdas Pophale) SiO2 
 PCOD9271704
Probable space group: C 2/C
;
_chemical_formula_sum "Si O2"
_cell_formula_units_Z 44
_cell_length_a 14.788608
_cell_length_b 13.718627
_cell_length_c 9.089419
_cell_angle_alpha 90.000000
_cell_angle_beta 107.786642
_cell_angle_gamma 90.000000
_cell_volume 1755.911151
_symmetry_space_group_name_H-M "C 2/C"
_symmetry_group_IT_number 15
_symmetry_cell_setting 'monoclinic'
loop_
_space_group_symop_operation_xyz
x,y,z
-x,y,1/2-z
-x,-y,-z
x,-y,1/2+z
1/2+x,1/2+y,z
1/2-x,1/2+y,1/2-z
1/2-x,1/2-y,-z
1/2+x,1/2-y,1/2+z
loop_
_atom_site_type_symbol
_atom_site_label
_atom_site_fract_x
_atom_site_fract_y
_atom_site_fract_z
Si Si1 0.156769 0.951456 0.928355
Si Si2 0.596990 0.323142 0.387384
Si Si3 0.143962 0.510555 0.572108
Si Si4 0.406465 0.285960 0.779621
Si Si5 0.769100 0.171100 0.793998
Si Si6 0.500000 0.062379 0.250000
O O1 0.100828 0.898690 0.770237
O O2 0.122232 0.062285 0.924104
O O3 0.269081 0.949005 0.950473
O O4 0.150473 0.882692 0.069025
O O5 0.500000 0.308960 0.250000
O O6 0.589516 0.276720 0.543863
O O7 0.678298 0.282031 0.320058
O O8 0.199650 0.588291 0.697981
O O9 0.089335 0.561424 0.410895
O O10 0.073286 0.453890 0.644345
O O11 0.500000 0.241478 0.750000
O O12 0.307061 0.243080 0.673184
#
# Coordination Sequence:
#
# PCOD9271704 Si02
#       6
#     8   8   8   8   8   4
#     4  11  23  43  71  96 130 177 225 278 326 392
#     4  11  24  46  71 100 133 176 230 274 329 397
#     4  10  21  38  64  94 131 170 225 271 323 389
#     4  12  27  43  68 100 134 177 220 275 342 397
#     4  11  24  43  66  98 139 173 214 279 335 396
#     4  10  20  36  60  96 124 174 224 264 322 388
#
# _framework density 25.058214
#
# number of rings (size 3 to 8) (size 9 to 14) (size 15 to 20)
#    0.000    1.091    1.818    4.909    3.818    2.182 
#    1.636    0.000    0.000    0.000    0.000    0.000 
#    0.000    0.000    0.000    0.000    0.000    0.000 
#
# Total GULP energy -122643.648749 kJ/mol
# GULP energy per Si atom -5574.711307 kJ/mol
# Density = 2.500118 g / cm^3
# Si number density = 25.058214 Si / 1000 Ang^3
#
#
#
# Elastic Constant Matrix: (Units=GPa)
#
#
# Indices 1 2 3 4 5 6 
#
# 1 123.7934 -8.1348 -0.9533 0.0000 1.0686 0.0000
# 2 -8.1348 36.6334 -1.9695 0.0000 -1.6813 0.0000
# 3 -0.9533 -1.9695 110.4413 0.0000 8.5231 0.0000
# 4 0.0000 0.0000 0.0000 18.3801 0.0000 -2.0580
# 5 1.0686 -1.6813 8.5231 0.0000 38.5195 0.0000
# 6 0.0000 0.0000 0.0000 -2.0580 0.0000 8.9302
#
#
#
# Elastic Compliance Matrix: (Units=1/GPa)
#
#
# Indices 1 2 3 4 5 6 
#
# 1 0.008200 0.001819 0.000117 0.000000 -0.000174 0.000000
# 2 0.001819 0.027773 0.000429 0.000000 0.001067 0.000000
# 3 0.000117 0.000429 0.009219 0.000000 -0.002024 0.000000
# 4 0.000000 0.000000 0.000000 0.055848 0.000000 0.012871
# 5 -0.000174 0.001067 -0.002024 0.000000 0.026460 0.000000
# 6 0.000000 0.000000 0.000000 0.012871 0.000000 0.114946
#
#
# Mechanical properties :
#
#
# Convention : Reuss Voigt Hill
#
# Bulk Modulus (GPa) = 20.03135 27.63922 23.83528
# Shear Modulus (GPa) = 19.65733 31.96102 25.80917
#
# Velocity S-wave (km/s) = 2.80387 3.57525 3.21279
# Velocity P-wave (km/s) = 4.30041 5.30067 4.82652
#
# Compressibility (1/GPa) = 0.04992176
#
# Stress axis : x y z
#
# Youngs Moduli (GPa) = 121.95247 36.00556 108.46614
#
# Poissons Ratio (x) = -0.06550 -0.01265
# Poissons Ratio (y) = -0.22185 -0.04649
# Poissons Ratio (z) = -0.01422 -0.01543
#
# Static dielectric constant tensor:
#      x y z
#    x 2.014500 0.000000 -0.079720 
#    y 0.000000 2.271960 0.000000 
#    z -0.079720 0.000000 2.004300 
# 
# From -- ./inp_files/39338.got.cif
#   From: 2010.05.17/outbox.cif.g08.bks.cpg/sg15_20_cif.got.tgz:39338.got - 2010.06.03 18:47:42.
