data_PCOD9271688
_publ_section_title
;
Structure prediction by ZEFSAII (Michael W. Deem and Ramdas Pophale) SiO2 
 PCOD9271688
Probable space group: C 2/C
;
_chemical_formula_sum "Si O2"
_cell_formula_units_Z 56
_cell_length_a 12.689025
_cell_length_b 22.922752
_cell_length_c 8.307988
_cell_angle_alpha 90.000000
_cell_angle_beta 91.145806
_cell_angle_gamma 90.000000
_cell_volume 2416.039450
_symmetry_space_group_name_H-M "C 2/C"
_symmetry_group_IT_number 15
_symmetry_cell_setting 'monoclinic'
loop_
_space_group_symop_operation_xyz
x,y,z
-x,y,1/2-z
-x,-y,-z
x,-y,1/2+z
1/2+x,1/2+y,z
1/2-x,1/2+y,1/2-z
1/2-x,1/2-y,-z
1/2+x,1/2-y,1/2+z
loop_
_atom_site_type_symbol
_atom_site_label
_atom_site_fract_x
_atom_site_fract_y
_atom_site_fract_z
Si Si1 0.941381 0.821800 0.905153
Si Si2 0.370672 0.691989 0.897284
Si Si3 0.107491 0.456440 0.172902
Si Si4 0.735001 0.806163 0.725044
Si Si5 0.842734 0.575208 0.196245
Si Si6 0.665827 0.435472 0.221260
Si Si7 0.113712 0.049718 0.085133
O O1 0.818562 0.809236 0.875459
O O2 0.000000 0.797638 0.750000
O O3 0.956541 0.892498 0.904598
O O4 0.007905 0.796452 0.052923
O O5 0.318381 0.743884 0.797535
O O6 0.365594 0.630124 0.811483
O O7 0.303349 0.684544 0.062611
O O8 0.107147 0.527178 0.184919
O O9 0.207187 0.440144 0.290812
O O10 0.000000 0.434649 0.250000
O O11 0.122495 0.435470 0.988872
O O12 0.651297 0.858119 0.747971
O O13 0.716344 0.563158 0.197648
O O14 0.650764 0.450548 0.405090
O O15 0.593560 0.482252 0.125076
#
# Coordination Sequence:
#
# PCOD9271688 Si02
#       7
#     8   8   8   8   8   8   8
#     4   9  19  37  63  91 123 160 206 259 313 371
#     4  10  21  38  64  90 124 172 210 262 309 384
#     4  10  20  36  60  93 129 164 209 265 323 384
#     4   9  20  40  64  89 127 164 215 259 316 371
#     4   9  19  35  62  89 125 168 202 265 323 375
#     4  10  22  36  61  89 125 165 201 255 324 371
#     4   9  20  36  57  91 126 156 199 254 318 377
#
# _framework density 23.178428
#
# number of rings (size 3 to 8) (size 9 to 14) (size 15 to 20)
#    0.000    2.571    0.000    0.429   12.000    1.143 
#    0.000   10.000    9.429    0.000    0.000    0.000 
#    0.000    0.000    0.000    0.000    0.000    0.000 
#
# Total GULP energy -156352.114851 kJ/mol
# GULP energy per Si atom -5584.004102 kJ/mol
# Density = 2.312567 g / cm^3
# Si number density = 23.178428 Si / 1000 Ang^3
#
#
#
# Elastic Constant Matrix: (Units=GPa)
#
#
# Indices 1 2 3 4 5 6 
#
# 1 86.6959 28.9950 22.0545 0.0000 6.7449 0.0000
# 2 28.9950 147.3611 51.3222 0.0000 19.6672 0.0000
# 3 22.0545 51.3222 68.0599 0.0000 0.3427 0.0000
# 4 0.0000 0.0000 0.0000 25.2940 0.0000 9.3902
# 5 6.7449 19.6672 0.3427 0.0000 32.7872 0.0000
# 6 0.0000 0.0000 0.0000 9.3902 0.0000 24.9809
#
#
#
# Elastic Compliance Matrix: (Units=1/GPa)
#
#
# Indices 1 2 3 4 5 6 
#
# 1 0.012908 -0.001121 -0.003328 0.000000 -0.001948 0.000000
# 2 -0.001121 0.010388 -0.007441 0.000000 -0.005923 0.000000
# 3 -0.003328 -0.007441 0.021357 0.000000 0.004925 0.000000
# 4 0.000000 0.000000 0.000000 0.045947 0.000000 -0.017271
# 5 -0.001948 -0.005923 0.004925 0.000000 0.034402 0.000000
# 6 0.000000 0.000000 0.000000 -0.017271 0.000000 0.046523
#
#
# Mechanical properties :
#
#
# Convention : Reuss Voigt Hill
#
# Bulk Modulus (GPa) = 47.90408 56.31782 52.11095
# Shear Modulus (GPa) = 24.72048 29.92877 27.32462
#
# Velocity S-wave (km/s) = 3.26932 3.59727 3.43721
# Velocity P-wave (km/s) = 5.91301 6.45012 6.18740
#
# Compressibility (1/GPa) = 0.02087505
#
# Stress axis : x y z
#
# Youngs Moduli (GPa) = 77.47432 96.26031 46.82238
#
# Poissons Ratio (x) = 0.10788 0.15581
# Poissons Ratio (y) = 0.08683 0.34839
# Poissons Ratio (z) = 0.25781 0.71624
#
# Static dielectric constant tensor:
#      x y z
#    x 1.954240 0.000000 -0.002540 
#    y 0.000000 1.880280 0.000000 
#    z -0.002540 0.000000 1.877840 
# 
# From -- ./inp_files/41222.got.cif
#   From: 2010.05.17/outbox.cif.g08.bks.cpg/sg15_21_cif.got.tgz:41222.got - 2010.06.03 18:47:42.
