data_PCOD9271085
_publ_section_title
;
Structure prediction by ZEFSAII (Michael W. Deem and Ramdas Pophale) SiO2 
 PCOD9271085
Probable space group: C 2/C
;
_chemical_formula_sum "Si O2"
_cell_formula_units_Z 52
_cell_length_a 27.470530
_cell_length_b 9.286070
_cell_length_c 7.995663
_cell_angle_alpha 90.000000
_cell_angle_beta 94.607001
_cell_angle_gamma 90.000000
_cell_volume 2033.049846
_symmetry_space_group_name_H-M "C 2/C"
_symmetry_group_IT_number 15
_symmetry_cell_setting 'monoclinic'
loop_
_space_group_symop_operation_xyz
x,y,z
-x,y,1/2-z
-x,-y,-z
x,-y,1/2+z
1/2+x,1/2+y,z
1/2-x,1/2+y,1/2-z
1/2-x,1/2-y,-z
1/2+x,1/2-y,1/2+z
loop_
_atom_site_type_symbol
_atom_site_label
_atom_site_fract_x
_atom_site_fract_y
_atom_site_fract_z
Si Si1 0.500000 0.636474 0.250000
Si Si2 0.211416 0.459520 0.927356
Si Si3 0.034985 0.366988 0.072116
Si Si4 0.426845 0.428655 0.023623
Si Si5 0.101260 0.429210 0.777996
Si Si6 0.133421 0.842931 0.196423
Si Si7 0.753362 0.198031 0.763819
O O1 0.537665 0.530134 0.356767
O O2 0.537372 0.675583 0.078980
O O3 0.154039 0.446523 0.876972
O O4 0.241029 0.362188 0.797846
O O5 0.225594 0.627297 0.913516
O O6 0.226121 0.383049 0.102977
O O7 0.081352 0.427242 0.190340
O O8 0.000000 0.317034 0.250000
O O9 0.060546 0.360635 0.886456
O O10 0.000000 0.500000 0.000000
O O11 0.396905 0.534401 0.898947
O O12 0.383264 0.359127 0.116711
O O13 0.112095 0.311018 0.635496
O O14 0.190749 0.852308 0.199536
#
# Coordination Sequence:
#
# PCOD9271085 Si02
#       7
#     4   8   8   8   8   8   8
#     4   8  20  40  58  82 108 144 184 226 278 336
#     4  10  21  36  55  82 113 149 186 225 268 323
#     4   9  20  38  57  81 111 144 182 227 275 328
#     4   9  20  38  57  81 111 144 182 227 275 328
#     4  10  20  36  57  82 113 146 184 226 274 323
#     4  10  20  36  57  82 113 146 184 226 274 323
#     4  10  21  36  55  82 113 149 186 225 268 323
#
# _framework density 25.577338999999998
#
# number of rings (size 3 to 8) (size 9 to 14) (size 15 to 20)
#    0.923    1.538    0.000    1.846    0.000    6.769 
#    0.000    0.769    0.000    0.000    0.000    0.000 
#    0.000    0.000    0.000    0.000    0.000    0.000 
#
# Total GULP energy -145100.356583 kJ/mol
# GULP energy per Si atom -5580.782946 kJ/mol
# Density = 2.551912 g / cm^3
# Si number density = 25.577339 Si / 1000 Ang^3
#
#
#
# Elastic Constant Matrix: (Units=GPa)
#
#
# Indices 1 2 3 4 5 6 
#
# 1 104.9114 56.0806 2.4884 0.0000 5.9734 0.0000
# 2 56.0806 147.8988 36.0401 0.0000 8.1935 0.0000
# 3 2.4884 36.0401 64.5809 0.0000 3.5501 0.0000
# 4 0.0000 0.0000 0.0000 58.5893 0.0000 -15.0832
# 5 5.9734 8.1935 3.5501 0.0000 40.4569 0.0000
# 6 0.0000 0.0000 0.0000 -15.0832 0.0000 49.7542
#
#
#
# Elastic Compliance Matrix: (Units=1/GPa)
#
#
# Indices 1 2 3 4 5 6 
#
# 1 0.012322 -0.005226 0.002496 0.000000 -0.000980 0.000000
# 2 -0.005226 0.010101 -0.005392 0.000000 -0.000801 0.000000
# 3 0.002496 -0.005392 0.018446 0.000000 -0.000895 0.000000
# 4 0.000000 0.000000 0.000000 0.018513 0.000000 0.005612
# 5 -0.000980 -0.000801 -0.000895 0.000000 0.025103 0.000000
# 6 0.000000 0.000000 0.000000 0.005612 0.000000 0.021800
#
#
# Mechanical properties :
#
#
# Convention : Reuss Voigt Hill
#
# Bulk Modulus (GPa) = 40.60881 56.28993 48.44937
# Shear Modulus (GPa) = 38.24417 44.61222 41.42819
#
# Velocity S-wave (km/s) = 3.87102 4.18090 4.02894
# Velocity P-wave (km/s) = 5.99092 6.73514 6.37390
#
# Compressibility (1/GPa) = 0.02462520
#
# Stress axis : x y z
#
# Youngs Moduli (GPa) = 81.15495 98.99736 54.21110
#
# Poissons Ratio (x) = 0.51738 -0.13529
# Poissons Ratio (y) = 0.42413 0.29229
# Poissons Ratio (z) = -0.20253 0.53377
#
# Static dielectric constant tensor:
#      x y z
#    x 1.979060 0.000000 -0.142240 
#    y 0.000000 2.312950 0.000000 
#    z -0.142240 0.000000 2.213880 
# 
# From -- ./inp_files/65155.got.cif
#   From: 2010.05.17/outbox.cif.g08.bks.cpg/sg15_33_cif.got.tgz:65155.got - 2010.06.03 18:47:42.
