data_PCOD9271072
_publ_section_title
;
Structure prediction by ZEFSAII (Michael W. Deem and Ramdas Pophale) SiO2 
 PCOD9271072
Probable space group: C 2/C
;
_chemical_formula_sum "Si O2"
_cell_formula_units_Z 48
_cell_length_a 10.156717
_cell_length_b 30.826048
_cell_length_c 10.797866
_cell_angle_alpha 90.000000
_cell_angle_beta 45.025200
_cell_angle_gamma 90.000000
_cell_volume 2391.580846
_symmetry_space_group_name_H-M "C 2/C"
_symmetry_group_IT_number 15
_symmetry_cell_setting 'monoclinic'
loop_
_space_group_symop_operation_xyz
x,y,z
-x,y,1/2-z
-x,-y,-z
x,-y,1/2+z
1/2+x,1/2+y,z
1/2-x,1/2+y,1/2-z
1/2-x,1/2-y,-z
1/2+x,1/2-y,1/2+z
loop_
_atom_site_type_symbol
_atom_site_label
_atom_site_fract_x
_atom_site_fract_y
_atom_site_fract_z
Si Si1 0.282165 0.873690 0.141107
Si Si2 0.050495 0.803550 0.859827
Si Si3 0.862572 0.120349 0.030610
Si Si4 0.226246 0.473301 0.610908
Si Si5 0.183370 0.471181 0.363917
Si Si6 0.344450 0.209052 0.747435
O O1 0.259926 0.868930 0.008819
O O2 0.369900 0.920564 0.110513
O O3 0.376251 0.831113 0.134576
O O4 0.075191 0.878450 0.338730
O O5 0.152712 0.757534 0.808466
O O6 0.000000 0.810543 0.750000
O O7 0.154805 0.843994 0.851429
O O8 0.854639 0.798281 0.058976
O O9 0.805483 0.072125 0.107738
O O10 0.289192 0.476985 0.425131
O O11 0.274093 0.511165 0.676694
O O12 0.000000 0.470511 0.750000
O O13 0.000000 0.500000 0.500000
O O14 0.500000 0.208440 0.750000
#
# Coordination Sequence:
#
# PCOD9271072 Si02
#       6
#     8   8   8   8   8   8
#     4   9  19  36  58  77 107 151 173 225 275 325
#     4  10  20  38  55  81 112 143 180 233 272 330
#     4   9  19  37  55  77 112 139 185 222 272 326
#     4   9  18  35  53  80 108 145 176 230 272 322
#     4   9  18  34  52  76 111 138 185 218 270 321
#     4  10  20  36  57  81 110 144 183 223 281 328
#
# _framework density 20.070406999999999
#
# number of rings (size 3 to 8) (size 9 to 14) (size 15 to 20)
#    0.000    2.667    0.000    2.000    0.000    3.333 
#   24.000    0.000    0.000    0.000    0.000    0.000 
#    0.000    0.000    0.000    0.000    0.000    0.000 
#
# Total GULP energy -133859.221566 kJ/mol
# GULP energy per Si atom -5577.467565 kJ/mol
# Density = 2.002473 g / cm^3
# Si number density = 20.070407 Si / 1000 Ang^3
#
#
#
# Elastic Constant Matrix: (Units=GPa)
#
#
# Indices 1 2 3 4 5 6 
#
# 1 48.5787 74.1551 16.8926 0.0000 15.3246 0.0000
# 2 74.1551 181.6946 32.6866 0.0000 41.7340 0.0000
# 3 16.8926 32.6866 44.9804 0.0000 15.1070 0.0000
# 4 0.0000 0.0000 0.0000 32.7202 0.0000 8.9055
# 5 15.3246 41.7340 15.1070 0.0000 27.7589 0.0000
# 6 0.0000 0.0000 0.0000 8.9055 0.0000 42.8262
#
#
#
# Elastic Compliance Matrix: (Units=1/GPa)
#
#
# Indices 1 2 3 4 5 6 
#
# 1 0.056669 -0.023787 -0.006731 0.000000 0.008141 0.000000
# 2 -0.023787 0.018588 0.000491 0.000000 -0.015081 0.000000
# 3 -0.006731 0.000491 0.028637 0.000000 -0.012607 0.000000
# 4 0.000000 0.000000 0.000000 0.032396 0.000000 -0.006737
# 5 0.008141 -0.015081 -0.012607 0.000000 0.061064 0.000000
# 6 0.000000 0.000000 0.000000 -0.006737 0.000000 0.024751
#
#
# Mechanical properties :
#
#
# Convention : Reuss Voigt Hill
#
# Bulk Modulus (GPa) = 22.81045 58.08025 40.44535
# Shear Modulus (GPa) = 16.84797 30.76235 23.80516
#
# Velocity S-wave (km/s) = 2.90046 3.91925 3.44769
# Velocity P-wave (km/s) = 4.75466 7.03433 6.00369
#
# Compressibility (1/GPa) = 0.04383955
#
# Stress axis : x y z
#
# Youngs Moduli (GPa) = 17.64641 53.79898 34.91973
#
# Poissons Ratio (x) = 1.27974 0.23503
# Poissons Ratio (y) = 0.41976 -0.01715
# Poissons Ratio (z) = 0.11877 -0.02642
#
# Static dielectric constant tensor:
#      x y z
#    x 1.705520 0.000000 -0.000570 
#    y 0.000000 1.709880 0.000000 
#    z -0.000570 0.000000 1.782950 
# 
# From -- ./inp_files/91678.got.cif
#   From: 2010.05.17/outbox.cif.g08.bks.cpg/sg15_46_cif.got.tgz:91678.got - 2010.06.03 18:47:42.
