data_PCOD9271706
_publ_section_title
;
Structure prediction by ZEFSAII (Michael W. Deem and Ramdas Pophale) SiO2 
 PCOD9271706
Probable space group: C 2/C
;
_chemical_formula_sum "Si O2"
_cell_formula_units_Z 44
_cell_length_a 22.021680
_cell_length_b 16.576959
_cell_length_c 8.109983
_cell_angle_alpha 90.000000
_cell_angle_beta 38.609553
_cell_angle_gamma 90.000000
_cell_volume 1847.424629
_symmetry_space_group_name_H-M "C 2/C"
_symmetry_group_IT_number 15
_symmetry_cell_setting 'monoclinic'
loop_
_space_group_symop_operation_xyz
x,y,z
-x,y,1/2-z
-x,-y,-z
x,-y,1/2+z
1/2+x,1/2+y,z
1/2-x,1/2+y,1/2-z
1/2-x,1/2-y,-z
1/2+x,1/2-y,1/2+z
loop_
_atom_site_type_symbol
_atom_site_label
_atom_site_fract_x
_atom_site_fract_y
_atom_site_fract_z
Si Si1 0.500000 0.443832 0.250000
Si Si2 0.606967 0.240362 0.810226
Si Si3 0.699008 0.958149 0.399114
Si Si4 0.000000 0.210428 0.250000
Si Si5 0.000000 0.387248 0.750000
Si Si6 0.379393 0.415262 0.185194
Si Si7 0.236371 0.119183 0.089141
O O1 0.431201 0.404428 0.252866
O O2 0.426300 0.502300 0.510553
O O3 0.519614 0.239724 0.868699
O O4 0.694808 0.196706 0.530402
O O5 0.633663 0.332256 0.801775
O O6 0.574852 0.177719 0.014493
O O7 0.582576 0.944147 0.659831
O O8 0.763492 0.918314 0.408625
O O9 0.729146 0.051672 0.356072
O O10 0.741802 0.922373 0.135837
O O11 0.912627 0.152537 0.486104
#
# Coordination Sequence:
#
# PCOD9271706 Si02
#       7
#     4   8   8   4   4   8   8
#     4   9  20  33  56  93 136 167 210 288 351 399
#     4  10  23  46  64  98 140 192 219 298 352 439
#     4  11  22  43  70 106 132 183 233 301 329 436
#     4  11  22  39  65  90 132 177 228 274 353 425
#     4  10  26  46  71  97 150 182 248 278 364 414
#     4  10  20  36  60  96 132 167 226 284 346 406
#     4  10  23  43  71  96 143 178 239 286 363 402
#
# _framework density 23.816939000000001
#
# number of rings (size 3 to 8) (size 9 to 14) (size 15 to 20)
#    0.000    1.818    1.818    1.091    5.091    5.818 
#    3.273    0.909    0.000    0.000    0.000    0.000 
#    0.000    0.000    0.000    0.000    0.000    0.000 
#
# Total GULP energy -122502.289300 kJ/mol
# GULP energy per Si atom -5568.285877 kJ/mol
# Density = 2.376273 g / cm^3
# Si number density = 23.816939 Si / 1000 Ang^3
#
#
#
# Elastic Constant Matrix: (Units=GPa)
#
#
# Indices 1 2 3 4 5 6 
#
# 1 113.6346 31.0641 49.1317 0.0000 -20.8229 0.0000
# 2 31.0641 103.8237 9.0100 0.0000 -3.4932 0.0000
# 3 49.1317 9.0100 54.1830 0.0000 -10.8714 0.0000
# 4 0.0000 0.0000 0.0000 6.2496 0.0000 -16.2815
# 5 -20.8229 -3.4932 -10.8714 0.0000 45.6164 0.0000
# 6 0.0000 0.0000 0.0000 -16.2815 0.0000 -9.5652
#
#
#
# Elastic Compliance Matrix: (Units=1/GPa)
#
#
# Indices 1 2 3 4 5 6 
#
# 1 0.016292 -0.003580 -0.013381 0.000000 0.003974 0.000000
# 2 -0.003580 0.010566 0.001390 0.000000 -0.000494 0.000000
# 3 -0.013381 0.001390 0.030618 0.000000 0.001295 0.000000
# 4 0.000000 0.000000 0.000000 0.029444 0.000000 -0.050118
# 5 0.003974 -0.000494 0.001295 0.000000 0.024007 0.000000
# 6 0.000000 0.000000 0.000000 -0.050118 0.000000 -0.019238
#
#
# Mechanical properties :
#
#
# Convention : Reuss Voigt Hill
#
# Bulk Modulus (GPa) = 37.97244 50.00589 43.98917
# Shear Modulus (GPa) = 37.99143 20.62253 29.30698
#
# Velocity S-wave (km/s) = 3.99826 2.94577 3.51167
# Velocity P-wave (km/s) = 6.10679 5.71066 5.91204
#
# Compressibility (1/GPa) = 0.02633489
#
# Stress axis : x y z
#
# Youngs Moduli (GPa) = 61.37833 94.64730 32.66036
#
# Poissons Ratio (x) = 0.33882 0.43702
# Poissons Ratio (y) = 0.21972 -0.04540
# Poissons Ratio (z) = 0.82130 -0.13157
#
# Static dielectric constant tensor:
#      x y z
#    x 2.066860 0.000000 -0.177920 
#    y 0.000000 1.891250 0.000000 
#    z -0.177920 0.000000 2.168970 
# 
# From -- ./inp_files/39367.got.cif
#   From: 2010.05.17/outbox.cif.g08.bks.cpg/sg15_20_cif.got.tgz:39367.got - 2010.06.03 18:47:42.
