data_PCOD9271775
_publ_section_title
;
Structure prediction by ZEFSAII (Michael W. Deem and Ramdas Pophale) SiO2 
 PCOD9271775
Probable space group: C 2/C
;
_chemical_formula_sum "Si O2"
_cell_formula_units_Z 48
_cell_length_a 9.881400
_cell_length_b 10.716281
_cell_length_c 17.180647
_cell_angle_alpha 90.000000
_cell_angle_beta 86.937567
_cell_angle_gamma 90.000000
_cell_volume 1816.692546
_symmetry_space_group_name_H-M "C 2/C"
_symmetry_group_IT_number 15
_symmetry_cell_setting 'monoclinic'
loop_
_space_group_symop_operation_xyz
x,y,z
-x,y,1/2-z
-x,-y,-z
x,-y,1/2+z
1/2+x,1/2+y,z
1/2-x,1/2+y,1/2-z
1/2-x,1/2-y,-z
1/2+x,1/2-y,1/2+z
loop_
_atom_site_type_symbol
_atom_site_label
_atom_site_fract_x
_atom_site_fract_y
_atom_site_fract_z
Si Si1 0.859355 0.637998 0.480459
Si Si2 0.104867 0.079503 0.077543
Si Si3 0.045859 0.153554 0.916167
Si Si4 0.485952 0.021890 0.628615
Si Si5 0.692234 0.190214 0.303030
Si Si6 0.580669 0.708647 0.317820
O O1 0.750000 0.750000 0.500000
O O2 0.889874 0.557632 0.556936
O O3 0.993725 0.716468 0.452999
O O4 0.874107 0.536503 0.409164
O O5 0.204139 0.153326 0.130319
O O6 0.954851 0.134548 0.103435
O O7 0.129155 0.097141 0.985828
O O8 0.082314 0.934911 0.095186
O O9 0.122427 0.183804 0.834876
O O10 0.411358 0.924266 0.687326
O O11 0.487911 0.156543 0.668858
O O12 0.767710 0.210301 0.219144
O O13 0.500000 0.642024 0.250000
#
# Coordination Sequence:
#
# PCOD9271775 Si02
#       6
#     8   8   8   8   8   8
#     4  10  20  38  63  90 122 153 199 259 311 358
#     4  10  20  38  58  88 117 153 200 246 300 361
#     4  10  20  36  61  91 114 154 207 245 299 368
#     4  10  21  40  60  89 121 158 202 250 308 369
#     4  10  22  37  62  82 123 158 197 250 304 358
#     4  10  22  41  58  84 120 160 196 244 305 365
#
# _framework density 26.421641999999999
#
# number of rings (size 3 to 8) (size 9 to 14) (size 15 to 20)
#    0.000    2.000    1.667    1.500    2.333    0.000 
#   15.000    0.000    0.000    0.000    0.000    0.000 
#    0.000    0.000    0.000    0.000    0.000    0.000 
#
# Total GULP energy -134006.825167 kJ/mol
# GULP energy per Si atom -5583.617715 kJ/mol
# Density = 2.636150 g / cm^3
# Si number density = 26.421642 Si / 1000 Ang^3
#
#
#
# Elastic Constant Matrix: (Units=GPa)
#
#
# Indices 1 2 3 4 5 6 
#
# 1 84.1733 35.2902 39.2765 0.0000 -24.7101 0.0000
# 2 35.2902 125.7710 40.6581 0.0000 -25.7314 0.0000
# 3 39.2765 40.6581 94.0555 0.0000 -30.8179 0.0000
# 4 0.0000 0.0000 0.0000 27.5510 0.0000 -16.1254
# 5 -24.7101 -25.7314 -30.8179 0.0000 47.8285 0.0000
# 6 0.0000 0.0000 0.0000 -16.1254 0.0000 36.8391
#
#
#
# Elastic Compliance Matrix: (Units=1/GPa)
#
#
# Indices 1 2 3 4 5 6 
#
# 1 0.016114 -0.002231 -0.004348 0.000000 0.004323 0.000000
# 2 -0.002231 0.009914 -0.002515 0.000000 0.002560 0.000000
# 3 -0.004348 -0.002515 0.015662 0.000000 0.006492 0.000000
# 4 0.000000 0.000000 0.000000 0.048798 0.000000 0.021360
# 5 0.004323 0.002560 0.006492 0.000000 0.028702 0.000000
# 6 0.000000 0.000000 0.000000 0.021360 0.000000 0.036495
#
#
# Mechanical properties :
#
#
# Convention : Reuss Voigt Hill
#
# Bulk Modulus (GPa) = 42.55060 59.38324 50.96692
# Shear Modulus (GPa) = 27.51683 35.02872 31.27278
#
# Velocity S-wave (km/s) = 3.23065 3.64505 3.44409
# Velocity P-wave (km/s) = 5.48230 6.34344 5.92852
#
# Compressibility (1/GPa) = 0.02350143
#
# Stress axis : x y z
#
# Youngs Moduli (GPa) = 62.05939 100.86898 63.84874
#
# Poissons Ratio (x) = 0.22508 0.27760
# Poissons Ratio (y) = 0.13848 0.16057
# Poissons Ratio (z) = 0.26982 0.25367
#
# Static dielectric constant tensor:
#      x y z
#    x 2.190130 0.000000 0.028270 
#    y 0.000000 2.068630 0.000000 
#    z 0.028270 0.000000 2.148750 
# 
# From -- ./inp_files/196006.got.cif
#   From: 2010.05.17/outbox.cif.g08.bks.cpg/sg15_99_cif.got.tgz:196006.got - 2010.06.03 18:47:42.
