data_PCOD9271802
_publ_section_title
;
Structure prediction by ZEFSAII (Michael W. Deem and Ramdas Pophale) SiO2 
 PCOD9271802
Probable space group: C 2/C
;
_chemical_formula_sum "Si O2"
_cell_formula_units_Z 40
_cell_length_a 8.820448
_cell_length_b 21.616672
_cell_length_c 15.843157
_cell_angle_alpha 90.000000
_cell_angle_beta 147.526121
_cell_angle_gamma 90.000000
_cell_volume 1621.910116
_symmetry_space_group_name_H-M "C 2/C"
_symmetry_group_IT_number 15
_symmetry_cell_setting 'monoclinic'
loop_
_space_group_symop_operation_xyz
x,y,z
-x,y,1/2-z
-x,-y,-z
x,-y,1/2+z
1/2+x,1/2+y,z
1/2-x,1/2+y,1/2-z
1/2-x,1/2-y,-z
1/2+x,1/2-y,1/2+z
loop_
_atom_site_type_symbol
_atom_site_label
_atom_site_fract_x
_atom_site_fract_y
_atom_site_fract_z
Si Si1 0.669417 0.182554 0.520104
Si Si2 0.756043 0.796032 0.818241
Si Si3 0.813083 0.017485 0.831072
Si Si4 0.367672 0.959547 0.508561
Si Si5 0.802703 0.159324 0.865206
O O1 0.377563 0.202359 0.336505
O O2 0.633859 0.111092 0.521796
O O3 0.298542 0.229149 0.885363
O O4 0.946675 0.181579 0.585502
O O5 0.500000 0.826572 0.750000
O O6 0.028123 0.835713 0.966893
O O7 0.732307 0.089749 0.803416
O O8 0.557224 0.973923 0.681336
O O9 0.051447 0.018151 0.872514
O O10 0.000000 0.000000 0.000000
O O11 0.500000 0.000000 0.500000
O O12 0.500000 0.189283 0.750000
#
# Coordination Sequence:
#
# PCOD9271802 Si02
#       5
#     8   8   8   8   8
#     4  10  23  41  64  90 127 171 215 264 324 388
#     4  10  20  40  63  89 123 169 215 260 318 384
#     4  11  22  40  64  93 131 174 217 264 323 391
#     4  11  24  41  64  97 132 169 214 269 327 387
#     4  10  20  36  61  93 126 167 216 269 322 382
#
# _framework density 24.662279999999999
#
# number of rings (size 3 to 8) (size 9 to 14) (size 15 to 20)
#    0.000    1.600    0.000    6.000    0.000    8.000 
#    0.000   11.000    0.000    0.000    0.000    0.000 
#    0.000    0.000    0.000    0.000    0.000    0.000 
#
# Total GULP energy -111456.798639 kJ/mol
# GULP energy per Si atom -5572.839932 kJ/mol
# Density = 2.460615 g / cm^3
# Si number density = 24.662280 Si / 1000 Ang^3
#
#
#
# Elastic Constant Matrix: (Units=GPa)
#
#
# Indices 1 2 3 4 5 6 
#
# 1 91.2996 22.6641 43.3000 0.0010 11.2749 0.0001
# 2 22.6641 77.2530 -7.0416 0.0015 13.0286 0.0020
# 3 43.3000 -7.0416 155.6454 -0.0010 10.1489 -0.0002
# 4 0.0010 0.0015 -0.0010 26.8931 0.0014 3.5493
# 5 11.2749 13.0286 10.1489 0.0014 49.5647 -0.0017
# 6 0.0001 0.0020 -0.0002 3.5493 -0.0017 18.3280
#
#
#
# Elastic Compliance Matrix: (Units=1/GPa)
#
#
# Indices 1 2 3 4 5 6 
#
# 1 0.014083 -0.004288 -0.004030 0.000000 -0.001251 0.000000
# 2 -0.004288 0.014964 0.002091 0.000000 -0.003386 -0.000002
# 3 -0.004030 0.002091 0.007720 0.000000 -0.001213 0.000000
# 4 0.000000 0.000000 0.000000 0.038160 -0.000001 -0.007390
# 5 -0.001251 -0.003386 -0.001213 -0.000001 0.021599 0.000003
# 6 0.000000 -0.000002 0.000000 -0.007390 0.000003 0.055992
#
#
# Mechanical properties :
#
#
# Convention : Reuss Voigt Hill
#
# Bulk Modulus (GPa) = 41.13213 49.11591 45.12402
# Shear Modulus (GPa) = 28.88882 36.64220 32.76551
#
# Velocity S-wave (km/s) = 3.42625 3.85874 3.64891
# Velocity P-wave (km/s) = 5.68917 6.30966 6.00743
#
# Compressibility (1/GPa) = 0.02431189
#
# Stress axis : x y z
#
# Youngs Moduli (GPa) = 71.00570 66.82652 129.53705
#
# Poissons Ratio (x) = 0.28656 0.52208
# Poissons Ratio (y) = 0.30448 -0.27082
# Poissons Ratio (z) = 0.28618 -0.13971
#
# Static dielectric constant tensor:
#      x y z
#    x 2.140040 0.000000 -0.117890 
#    y 0.000000 2.050840 -0.000010 
#    z -0.117890 -0.000010 2.110710 
# 
# From -- ./inp_files/240834.got.cif
#   From: 2010.05.17/outbox.cif.g08.bks.cpg/sg15_121_cif.got.tgz:240834.got - 2010.06.03 18:47:42.
