data_PCOD9271453
_publ_section_title
;
Structure prediction by ZEFSAII (Michael W. Deem and Ramdas Pophale) SiO2 
 PCOD9271453
Probable space group: C 2/C
;
_chemical_formula_sum "Si O2"
_cell_formula_units_Z 60
_cell_length_a 15.016946
_cell_length_b 8.236678
_cell_length_c 24.353365
_cell_angle_alpha 90.000000
_cell_angle_beta 102.175581
_cell_angle_gamma 90.000000
_cell_volume 2944.503395
_symmetry_space_group_name_H-M "C 2/C"
_symmetry_group_IT_number 15
_symmetry_cell_setting 'monoclinic'
loop_
_space_group_symop_operation_xyz
x,y,z
-x,y,1/2-z
-x,-y,-z
x,-y,1/2+z
1/2+x,1/2+y,z
1/2-x,1/2+y,1/2-z
1/2-x,1/2-y,-z
1/2+x,1/2-y,1/2+z
loop_
_atom_site_type_symbol
_atom_site_label
_atom_site_fract_x
_atom_site_fract_y
_atom_site_fract_z
Si Si1 0.649370 0.969220 0.768143
Si Si2 0.209769 0.082264 0.925540
Si Si3 0.211864 0.470330 0.946638
Si Si4 0.524743 0.512819 0.355651
Si Si5 0.829447 0.956500 0.864815
Si Si6 0.547265 0.895011 0.361630
Si Si7 0.500000 0.703655 0.750000
Si Si8 0.650347 0.916818 0.147400
O O1 0.747680 0.951935 0.809822
O O2 0.587927 0.812591 0.744386
O O3 0.586636 0.041897 0.808783
O O4 0.666973 0.069902 0.714856
O O5 0.201979 0.279035 0.928992
O O6 0.267661 0.019444 0.880139
O O7 0.106341 0.024590 0.907541
O O8 0.260085 0.022468 0.986769
O O9 0.290802 0.529342 0.915835
O O10 0.122532 0.567219 0.917199
O O11 0.423525 0.462745 0.360440
O O12 0.528413 0.706049 0.348186
O O13 0.539505 0.410626 0.302642
O O14 0.854099 0.767478 0.874686
O O15 0.453540 0.979037 0.369313
#
# Coordination Sequence:
#
# PCOD9271453 Si02
#       8
#     8   8   8   8   8   8   4   8
#     4  11  22  39  62  87 123 166 199 245 302 381
#     4  10  22  40  64  92 123 157 207 252 297 356
#     4   9  20  44  66  85 121 166 202 250 297 366
#     4  11  25  38  58  94 123 156 201 259 304 358
#     4   9  22  38  60  87 120 160 201 241 307 354
#     4  10  21  40  61  87 123 162 201 246 312 359
#     4  12  24  38  60  88 126 156 202 258 302 370
#     4  10  20  36  59  88 120 159 199 244 295 368
#
# _framework density 20.376950000000001
#
# number of rings (size 3 to 8) (size 9 to 14) (size 15 to 20)
#    0.000    1.867    1.333    2.400    7.467    1.600 
#    2.400    0.000    0.000    0.000    0.000    0.000 
#    0.000    0.000    0.000    0.000    0.000    0.000 
#
# Total GULP energy -167172.861094 kJ/mol
# GULP energy per Si atom -5572.428703 kJ/mol
# Density = 2.033057 g / cm^3
# Si number density = 20.376950 Si / 1000 Ang^3
#
#
#
# Elastic Constant Matrix: (Units=GPa)
#
#
# Indices 1 2 3 4 5 6 
#
# 1 139.9505 17.8680 38.0060 0.0000 14.3617 0.0000
# 2 17.8680 23.6524 2.9951 0.0000 4.6675 0.0000
# 3 38.0060 2.9951 52.5904 0.0000 7.9105 0.0000
# 4 0.0000 0.0000 0.0000 36.2048 0.0000 1.7199
# 5 14.3617 4.6675 7.9105 0.0000 16.7300 0.0000
# 6 0.0000 0.0000 0.0000 1.7199 0.0000 26.6334
#
#
#
# Elastic Compliance Matrix: (Units=1/GPa)
#
#
# Indices 1 2 3 4 5 6 
#
# 1 0.010031 -0.005999 -0.006313 0.000000 -0.003953 0.000000
# 2 -0.005999 0.048355 0.003053 0.000000 -0.009785 0.000000
# 3 -0.006313 0.003053 0.024456 0.000000 -0.006996 0.000000
# 4 0.000000 0.000000 0.000000 0.027706 0.000000 -0.001789
# 5 -0.003953 -0.009785 -0.006996 0.000000 0.069204 0.000000
# 6 0.000000 0.000000 0.000000 -0.001789 0.000000 0.037662
#
#
# Mechanical properties :
#
#
# Convention : Reuss Voigt Hill
#
# Bulk Modulus (GPa) = 15.54625 37.10353 26.32489
# Shear Modulus (GPa) = 19.42704 26.40191 22.91448
#
# Velocity S-wave (km/s) = 3.09104 3.60345 3.35704
# Velocity P-wave (km/s) = 4.51500 5.96333 5.28898
#
# Compressibility (1/GPa) = 0.06432421
#
# Stress axis : x y z
#
# Youngs Moduli (GPa) = 99.68738 20.68037 40.89017
#
# Poissons Ratio (x) = 0.12405 0.25815
# Poissons Ratio (y) = 0.59799 -0.12484
# Poissons Ratio (z) = 0.62935 -0.06314
#
# Static dielectric constant tensor:
#      x y z
#    x 1.796220 0.000000 -0.006620 
#    y 0.000000 1.761670 0.000000 
#    z -0.006620 0.000000 1.701150 
# 
# From -- ./inp_files/273221.got.cif
#   From: 2010.05.17/outbox.cif.g08.bks.cpg/sg15_137_cif.got.tgz:273221.got - 2010.06.03 18:47:42.
