data_PCOD9271144
_publ_section_title
;
Structure prediction by ZEFSAII (Michael W. Deem and Ramdas Pophale) SiO2 
 PCOD9271144
Probable space group: C 2/C
;
_chemical_formula_sum "Si O2"
_cell_formula_units_Z 40
_cell_length_a 7.825858
_cell_length_b 13.646604
_cell_length_c 17.099926
_cell_angle_alpha 90.000000
_cell_angle_beta 111.717200
_cell_angle_gamma 90.000000
_cell_volume 1696.588676
_symmetry_space_group_name_H-M "C 2/C"
_symmetry_group_IT_number 15
_symmetry_cell_setting 'monoclinic'
loop_
_space_group_symop_operation_xyz
x,y,z
-x,y,1/2-z
-x,-y,-z
x,-y,1/2+z
1/2+x,1/2+y,z
1/2-x,1/2+y,1/2-z
1/2-x,1/2-y,-z
1/2+x,1/2-y,1/2+z
loop_
_atom_site_type_symbol
_atom_site_label
_atom_site_fract_x
_atom_site_fract_y
_atom_site_fract_z
Si Si1 0.160412 0.830376 0.326708
Si Si2 0.484143 0.179565 0.086734
Si Si3 0.022043 0.589859 0.943684
Si Si4 0.805965 0.861968 0.759703
Si Si5 0.317709 0.476387 0.919183
O O1 0.066203 0.785197 0.387758
O O2 0.328546 0.899527 0.369902
O O3 0.241042 0.736002 0.294601
O O4 0.000000 0.877987 0.250000
O O5 0.640219 0.129445 0.168291
O O6 0.298432 0.115035 0.064328
O O7 0.547056 0.180028 0.007631
O O8 0.183498 0.568598 0.911152
O O9 0.000000 0.500000 0.000000
O O10 0.832045 0.945184 0.830848
O O11 0.000000 0.847804 0.750000
O O12 0.500000 0.500000 0.000000
#
# Coordination Sequence:
#
# PCOD9271144 Si02
#       5
#     8   8   8   8   8
#     4   9  19  38  63  91 122 160 213 262 305 370
#     4   9  19  38  62  86 121 167 209 255 310 370
#     4  10  20  37  59  91 125 160 197 251 321 380
#     4  10  20  39  63  87 119 170 217 260 309 364
#     4  10  20  36  57  87 123 159 204 256 312 372
#
# _framework density 23.576723000000001
#
# number of rings (size 3 to 8) (size 9 to 14) (size 15 to 20)
#    0.000    2.400    0.000    3.600    0.000    0.000 
#    0.000   37.000    0.000    0.000    0.000    0.000 
#    0.000    0.000    0.000    0.000    0.000    0.000 
#
# Total GULP energy -111759.857991 kJ/mol
# GULP energy per Si atom -5587.992900 kJ/mol
# Density = 2.352306 g / cm^3
# Si number density = 23.576723 Si / 1000 Ang^3
#
#
#
# Elastic Constant Matrix: (Units=GPa)
#
#
# Indices 1 2 3 4 5 6 
#
# 1 131.9049 29.7222 92.5572 0.0000 31.1904 0.0000
# 2 29.7222 35.6140 38.9968 0.0000 18.6476 0.0000
# 3 92.5572 38.9968 159.1506 0.0000 53.4839 0.0000
# 4 0.0000 0.0000 0.0000 31.3198 0.0000 9.8906
# 5 31.1904 18.6476 53.4839 0.0000 59.7315 0.0000
# 6 0.0000 0.0000 0.0000 9.8906 0.0000 36.8375
#
#
#
# Elastic Compliance Matrix: (Units=1/GPa)
#
#
# Indices 1 2 3 4 5 6 
#
# 1 0.013136 -0.003648 -0.006900 0.000000 0.000457 0.000000
# 2 -0.003648 0.040503 -0.005999 0.000000 -0.005368 0.000000
# 3 -0.006900 -0.005999 0.014198 0.000000 -0.007237 0.000000
# 4 0.000000 0.000000 0.000000 0.034887 0.000000 -0.009367
# 5 0.000457 -0.005368 -0.007237 0.000000 0.024659 0.000000
# 6 0.000000 0.000000 0.000000 -0.009367 0.000000 0.029661
#
#
# Mechanical properties :
#
#
# Convention : Reuss Voigt Hill
#
# Bulk Modulus (GPa) = 28.78131 72.13577 50.45854
# Shear Modulus (GPa) = 24.78703 36.60399 30.69551
#
# Velocity S-wave (km/s) = 3.24595 3.94451 3.61216
# Velocity P-wave (km/s) = 5.12662 7.16995 6.23259
#
# Compressibility (1/GPa) = 0.03474477
#
# Stress axis : x y z
#
# Youngs Moduli (GPa) = 76.12386 24.68972 70.43194
#
# Poissons Ratio (x) = 0.09006 0.48595
# Poissons Ratio (y) = 0.27767 0.42252
# Poissons Ratio (z) = 0.52523 0.14811
#
# Static dielectric constant tensor:
#      x y z
#    x 1.889320 0.000000 -0.063220 
#    y 0.000000 1.998140 0.000000 
#    z -0.063220 0.000000 1.967540 
# 
# From -- ./inp_files/189033.got.cif
#   From: 2010.05.17/outbox.cif.g08.bks.cpg/sg15_95_cif.got.tgz:189033.got - 2010.06.03 18:47:42.
