data_PCOD9271430
_publ_section_title
;
Structure prediction by ZEFSAII (Michael W. Deem and Ramdas Pophale) SiO2 
 PCOD9271430
Probable space group: C 2/C
;
_chemical_formula_sum "Si O2"
_cell_formula_units_Z 48
_cell_length_a 13.617930
_cell_length_b 13.416507
_cell_length_c 20.005487
_cell_angle_alpha 90.000000
_cell_angle_beta 39.550298
_cell_angle_gamma 90.000000
_cell_volume 2327.406779
_symmetry_space_group_name_H-M "C 2/C"
_symmetry_group_IT_number 15
_symmetry_cell_setting 'monoclinic'
loop_
_space_group_symop_operation_xyz
x,y,z
-x,y,1/2-z
-x,-y,-z
x,-y,1/2+z
1/2+x,1/2+y,z
1/2-x,1/2+y,1/2-z
1/2-x,1/2-y,-z
1/2+x,1/2-y,1/2+z
loop_
_atom_site_type_symbol
_atom_site_label
_atom_site_fract_x
_atom_site_fract_y
_atom_site_fract_z
Si Si1 0.620457 0.553809 0.625801
Si Si2 0.854261 0.163776 0.413552
Si Si3 0.647601 0.596102 0.829980
Si Si4 0.173283 0.867911 0.822923
Si Si5 0.157770 0.669316 0.895897
Si Si6 0.676164 0.798859 0.883568
O O1 0.500000 0.527182 0.750000
O O2 0.690457 0.452914 0.558603
O O3 0.512955 0.604035 0.626461
O O4 0.749224 0.621409 0.591934
O O5 0.750000 0.250000 0.500000
O O6 0.826080 0.183618 0.349918
O O7 0.017647 0.165043 0.365214
O O8 0.661534 0.483146 0.848159
O O9 0.779024 0.618981 0.705381
O O10 0.656841 0.681343 0.880268
O O11 0.195444 0.786845 0.868731
O O12 0.303306 0.851874 0.698445
O O13 0.975582 0.659372 0.001140
#
# Coordination Sequence:
#
# PCOD9271430 Si02
#       6
#     8   8   8   8   8   8
#     4   9  19  38  60  79 112 153 187 226 285 346
#     4  11  20  36  56  84 110 150 188 232 279 342
#     4   9  21  38  59  81 111 155 186 228 290 338
#     4  10  21  40  57  82 117 148 190 232 286 344
#     4  10  20  36  59  87 109 145 195 231 276 343
#     4  11  21  35  61  84 115 147 190 244 277 329
#
# _framework density 20.623812999999998
#
# number of rings (size 3 to 8) (size 9 to 14) (size 15 to 20)
#    0.000    2.000    1.667    3.500    0.000    4.000 
#    0.000    0.000    0.000   10.000    0.000    0.000 
#    0.000    0.000    0.000    0.000    0.000    0.000 
#
# Total GULP energy -133919.571768 kJ/mol
# GULP energy per Si atom -5579.982157 kJ/mol
# Density = 2.057687 g / cm^3
# Si number density = 20.623813 Si / 1000 Ang^3
#
#
#
# Elastic Constant Matrix: (Units=GPa)
#
#
# Indices 1 2 3 4 5 6 
#
# 1 70.7983 61.6542 21.3766 0.0000 -13.3105 0.0000
# 2 61.6542 119.7574 17.9059 0.0000 -20.1342 0.0000
# 3 21.3766 17.9059 62.2544 -0.0001 -22.1481 0.0001
# 4 0.0000 0.0000 -0.0001 12.6207 0.0000 2.5160
# 5 -13.3105 -20.1342 -22.1481 0.0000 19.0092 0.0000
# 6 0.0000 0.0000 0.0001 2.5160 0.0000 41.9144
#
#
#
# Elastic Compliance Matrix: (Units=1/GPa)
#
#
# Indices 1 2 3 4 5 6 
#
# 1 0.027413 -0.013610 -0.006487 0.000000 -0.002779 0.000000
# 2 -0.013610 0.017005 0.004782 0.000000 0.014053 0.000000
# 3 -0.006487 0.004782 0.029208 0.000000 0.034554 0.000000
# 4 0.000000 0.000000 0.000000 0.080195 0.000000 -0.004814
# 5 -0.002779 0.014053 0.034554 0.000000 0.105804 0.000000
# 6 0.000000 0.000000 0.000000 -0.004814 0.000000 0.024147
#
#
# Mechanical properties :
#
#
# Convention : Reuss Voigt Hill
#
# Bulk Modulus (GPa) = 23.25820 50.52039 36.88929
# Shear Modulus (GPa) = 15.20978 24.83374 20.02176
#
# Velocity S-wave (km/s) = 2.71862 3.47382 3.11916
# Velocity P-wave (km/s) = 4.59960 6.37489 5.55858
#
# Compressibility (1/GPa) = 0.04299560
#
# Stress axis : x y z
#
# Youngs Moduli (GPa) = 36.47850 58.80691 34.23665
#
# Poissons Ratio (x) = 0.80039 0.22209
# Poissons Ratio (y) = 0.49649 -0.16372
# Poissons Ratio (z) = 0.23664 -0.28121
#
# Static dielectric constant tensor:
#      x y z
#    x 1.721780 0.000000 0.015890 
#    y 0.000000 1.743340 0.000000 
#    z 0.015890 0.000000 1.785750 
# 
# From -- ./inp_files/243898.got.cif
#   From: 2010.05.17/outbox.cif.g08.bks.cpg/sg15_122_cif.got.tgz:243898.got - 2010.06.03 18:47:42.
