data_PCOD9271502
_publ_section_title
;
Structure prediction by ZEFSAII (Michael W. Deem and Ramdas Pophale) SiO2 
 PCOD9271502
Probable space group: C 2/C
;
_chemical_formula_sum "Si O2"
_cell_formula_units_Z 56
_cell_length_a 8.605613
_cell_length_b 24.920338
_cell_length_c 12.622530
_cell_angle_alpha 90.000000
_cell_angle_beta 60.803658
_cell_angle_gamma 90.000000
_cell_volume 2363.051160
_symmetry_space_group_name_H-M "C 2/C"
_symmetry_group_IT_number 15
_symmetry_cell_setting 'monoclinic'
loop_
_space_group_symop_operation_xyz
x,y,z
-x,y,1/2-z
-x,-y,-z
x,-y,1/2+z
1/2+x,1/2+y,z
1/2-x,1/2+y,1/2-z
1/2-x,1/2-y,-z
1/2+x,1/2-y,1/2+z
loop_
_atom_site_type_symbol
_atom_site_label
_atom_site_fract_x
_atom_site_fract_y
_atom_site_fract_z
Si Si1 0.374065 0.296564 0.006395
Si Si2 0.000000 0.216178 0.250000
Si Si3 0.129856 0.896627 0.365064
Si Si4 0.500000 0.977898 0.750000
Si Si5 0.760503 0.969048 0.998927
Si Si6 0.766704 0.082913 0.900081
Si Si7 0.388220 0.896287 0.629902
Si Si8 0.887318 0.270769 0.680970
O O1 0.295078 0.346581 0.095019
O O2 0.485327 0.262219 0.054817
O O3 0.250000 0.250000 0.000000
O O4 0.460942 0.317322 0.869127
O O5 0.177938 0.247580 0.234491
O O6 0.113750 0.945363 0.452615
O O7 0.241570 0.910255 0.223393
O O8 0.932952 0.883491 0.388657
O O9 0.365359 0.936487 0.737040
O O10 0.410473 0.012651 0.872726
O O11 0.721779 0.921910 0.929041
O O12 0.808385 0.021123 0.914894
O O13 0.590248 0.098493 0.020202
O O14 0.367550 0.834338 0.666249
O O15 0.000000 0.262517 0.750000
#
# Coordination Sequence:
#
# PCOD9271502 Si02
#       8
#     8   4   8   4   8   8   8   8
#     4  10  24  45  68  99 133 175 226 282 343 408
#     4  10  24  46  67 100 134 168 231 280 326 414
#     4  11  23  42  65  96 133 171 225 279 333 407
#     4  10  20  36  59  92 128 166 227 268 326 418
#     4  11  20  38  64  89 130 178 215 276 340 396
#     4  10  24  39  61  99 133 172 223 275 335 406
#     4  11  22  40  61  96 130 173 224 271 334 411
#     4  11  25  44  71 102 136 182 225 280 352 407
#
# _framework density 23.698176
#
# number of rings (size 3 to 8) (size 9 to 14) (size 15 to 20)
#    0.000    1.429    0.714    5.571    4.000    2.857 
#    0.000   12.143    0.000    0.000    0.000    0.000 
#    0.000    0.000    0.000    0.000    0.000    0.000 
#
# Total GULP energy -156126.427072 kJ/mol
# GULP energy per Si atom -5575.943824 kJ/mol
# Density = 2.364424 g / cm^3
# Si number density = 23.698176 Si / 1000 Ang^3
#
#
#
# Elastic Constant Matrix: (Units=GPa)
#
#
# Indices 1 2 3 4 5 6 
#
# 1 89.5967 21.7317 39.7253 0.0000 23.5153 0.0000
# 2 21.7317 114.8883 53.3713 0.0000 26.5207 0.0000
# 3 39.7253 53.3713 137.3939 0.0000 47.8991 0.0000
# 4 0.0000 0.0000 0.0000 1.6266 0.0000 34.7496
# 5 23.5153 26.5207 47.8991 0.0000 41.3257 0.0000
# 6 0.0000 0.0000 0.0000 34.7496 0.0000 0.5943
#
#
#
# Elastic Compliance Matrix: (Units=1/GPa)
#
#
# Indices 1 2 3 4 5 6 
#
# 1 0.013476 -0.000470 -0.001923 0.000000 -0.005138 0.000000
# 2 -0.000470 0.010932 -0.002950 0.000000 -0.003329 0.000000
# 3 -0.001923 -0.002950 0.013322 0.000000 -0.012454 0.000000
# 4 0.000000 0.000000 0.000000 -0.000493 0.000000 0.028800
# 5 -0.005138 -0.003329 -0.012454 0.000000 0.043693 0.000000
# 6 0.000000 0.000000 0.000000 0.028800 0.000000 -0.001348
#
#
# Mechanical properties :
#
#
# Convention : Reuss Voigt Hill
#
# Bulk Modulus (GPa) = 36.97576 63.50392 50.23984
# Shear Modulus (GPa) = 50.36155 23.84601 37.10378
#
# Velocity S-wave (km/s) = 4.61491 3.17557 3.96116
# Velocity P-wave (km/s) = 6.63575 6.34829 6.49361
#
# Compressibility (1/GPa) = 0.02704474
#
# Stress axis : x y z
#
# Youngs Moduli (GPa) = 74.20557 91.47546 75.06416
#
# Poissons Ratio (x) = 0.04298 0.14431
# Poissons Ratio (y) = 0.03486 0.22146
# Poissons Ratio (z) = 0.14266 0.26987
#
# Static dielectric constant tensor:
#      x y z
#    x 2.003480 0.000000 -0.065970 
#    y 0.000000 1.922880 0.000000 
#    z -0.065970 0.000000 1.982770 
# 
# From -- ./inp_files/81321.got.cif
#   From: 2010.05.17/outbox.cif.g08.bks.cpg/sg15_41_cif.got.tgz:81321.got - 2010.06.03 18:47:42.
