data_PCOD9271513
_publ_section_title
;
Structure prediction by ZEFSAII (Michael W. Deem and Ramdas Pophale) SiO2 
 PCOD9271513
Probable space group: C 2/C
;
_chemical_formula_sum "Si O2"
_cell_formula_units_Z 56
_cell_length_a 27.487726
_cell_length_b 13.318902
_cell_length_c 22.929218
_cell_angle_alpha 90.000000
_cell_angle_beta 161.694043
_cell_angle_gamma 90.000000
_cell_volume 2636.648283
_symmetry_space_group_name_H-M "C 2/C"
_symmetry_group_IT_number 15
_symmetry_cell_setting 'monoclinic'
loop_
_space_group_symop_operation_xyz
x,y,z
-x,y,1/2-z
-x,-y,-z
x,-y,1/2+z
1/2+x,1/2+y,z
1/2-x,1/2+y,1/2-z
1/2-x,1/2-y,-z
1/2+x,1/2-y,1/2+z
loop_
_atom_site_type_symbol
_atom_site_label
_atom_site_fract_x
_atom_site_fract_y
_atom_site_fract_z
Si Si1 0.722221 0.186078 0.411431
Si Si2 0.448392 0.618153 0.122351
Si Si3 0.750097 0.027871 0.315882
Si Si4 0.420104 0.715062 0.528350
Si Si5 0.101989 0.571300 0.537709
Si Si6 0.538501 0.979013 0.225599
Si Si7 0.316294 0.765011 0.139454
O O1 0.750000 0.250000 0.500000
O O2 0.597075 0.252324 0.233462
O O3 0.868729 0.186389 0.535751
O O4 0.655407 0.075968 0.352970
O O5 0.500000 0.596796 0.250000
O O6 0.588690 0.663107 0.244035
O O7 0.352436 0.532856 0.979878
O O8 0.332534 0.713776 0.991329
O O9 0.855082 0.122571 0.418568
O O10 0.706044 0.967160 0.208436
O O11 0.580461 0.061139 0.148588
O O12 0.349087 0.816707 0.422326
O O13 0.101699 0.511134 0.476379
O O14 0.500000 0.966905 0.250000
O O15 0.599863 0.873660 0.269545
O O16 0.250000 0.750000 0.000000
#
# Coordination Sequence:
#
# PCOD9271513 Si02
#       7
#     8   8   8   8   8   8   8
#     4  11  22  37  63  95 132 171 215 267 328 384
#     4  10  21  39  63  95 129 166 216 264 324 383
#     4  11  22  44  69  92 131 175 216 264 327 395
#     4  11  21  42  62  95 127 169 220 265 316 395
#     4  10  23  42  66  93 128 176 208 260 332 386
#     4  11  20  38  61  91 131 172 212 261 331 388
#     4  10  20  36  59  94 130 166 213 271 318 378
#
# _framework density 21.239086
#
# number of rings (size 3 to 8) (size 9 to 14) (size 15 to 20)
#    0.000    1.429    4.286    3.429    0.000    4.571 
#    0.000    3.571    0.000    0.000    0.000    0.000 
#    0.000    0.000    0.000    0.000    0.000    0.000 
#
# Total GULP energy -155922.782590 kJ/mol
# GULP energy per Si atom -5568.670807 kJ/mol
# Density = 2.119074 g / cm^3
# Si number density = 21.239086 Si / 1000 Ang^3
#
#
#
# Elastic Constant Matrix: (Units=GPa)
#
#
# Indices 1 2 3 4 5 6 
#
# 1 47.6664 6.1850 11.0988 0.0007 -20.2679 0.0005
# 2 6.1850 101.7737 50.4209 0.0004 -22.7521 0.0005
# 3 11.0988 50.4209 83.2309 0.0012 -25.3261 0.0012
# 4 0.0007 0.0004 0.0012 15.7836 0.0013 -1.0150
# 5 -20.2679 -22.7521 -25.3261 0.0013 31.1521 0.0010
# 6 0.0005 0.0005 0.0012 -1.0150 0.0010 38.2725
#
#
#
# Elastic Compliance Matrix: (Units=1/GPa)
#
#
# Indices 1 2 3 4 5 6 
#
# 1 0.029836 0.002545 0.001265 -0.000003 0.022299 -0.000001
# 2 0.002545 0.014734 -0.007290 0.000000 0.006490 0.000000
# 3 0.001265 -0.007290 0.019788 -0.000002 0.011586 -0.000001
# 4 -0.000003 0.000000 -0.000002 0.063465 -0.000007 0.001683
# 5 0.022299 0.006490 0.011586 -0.000007 0.060767 -0.000003
# 6 -0.000001 0.000000 -0.000001 0.001683 -0.000003 0.026173
#
#
# Mechanical properties :
#
#
# Convention : Reuss Voigt Hill
#
# Bulk Modulus (GPa) = 17.42251 40.89780 29.16015
# Shear Modulus (GPa) = 20.75934 28.03939 24.39937
#
# Velocity S-wave (km/s) = 3.12975 3.63737 3.39307
# Velocity P-wave (km/s) = 4.61317 6.07769 5.39535
#
# Compressibility (1/GPa) = 0.05739700
#
# Stress axis : x y z
#
# Youngs Moduli (GPa) = 33.51666 67.87201 50.53618
#
# Poissons Ratio (x) = -0.17275 -0.06391
# Poissons Ratio (y) = -0.08531 0.36842
# Poissons Ratio (z) = -0.04239 0.49480
#
# Static dielectric constant tensor:
#      x y z
#    x 1.796230 0.000000 0.030320 
#    y 0.000000 1.649050 0.000000 
#    z 0.030320 0.000000 1.822490 
# 
# From -- ./inp_files/284626.got.cif
#   From: 2010.05.17/outbox.cif.g08.bks.cpg/sg15_143_cif.got.tgz:284626.got - 2010.06.03 18:47:42.
