data_PCOD9271911
_publ_section_title
;
Structure prediction by ZEFSAII (Michael W. Deem and Ramdas Pophale) SiO2 
 PCOD9271911
Probable space group: C 2/C
;
_chemical_formula_sum "Si O2"
_cell_formula_units_Z 56
_cell_length_a 28.948937
_cell_length_b 12.362634
_cell_length_c 8.565066
_cell_angle_alpha 90.000000
_cell_angle_beta 65.056621
_cell_angle_gamma 90.000000
_cell_volume 2779.392813
_symmetry_space_group_name_H-M "C 2/C"
_symmetry_group_IT_number 15
_symmetry_cell_setting 'monoclinic'
loop_
_space_group_symop_operation_xyz
x,y,z
-x,y,1/2-z
-x,-y,-z
x,-y,1/2+z
1/2+x,1/2+y,z
1/2-x,1/2+y,1/2-z
1/2-x,1/2-y,-z
1/2+x,1/2-y,1/2+z
loop_
_atom_site_type_symbol
_atom_site_label
_atom_site_fract_x
_atom_site_fract_y
_atom_site_fract_z
Si Si1 0.071426 0.099568 0.397597
Si Si2 0.443620 0.768067 0.349231
Si Si3 0.838834 0.619987 0.025131
Si Si4 0.810670 0.612305 0.700554
Si Si5 0.633374 0.690238 0.555636
Si Si6 0.714390 0.698875 0.685264
Si Si7 0.957732 0.866698 0.139239
O O1 0.072794 0.200324 0.279145
O O2 0.119985 0.104568 0.440365
O O3 0.018307 0.115710 0.568663
O O4 0.065878 0.986486 0.318067
O O5 0.500000 0.817828 0.250000
O O6 0.398527 0.850464 0.447649
O O7 0.450598 0.679230 0.474802
O O8 0.828974 0.503341 0.113246
O O9 0.809320 0.709242 0.170193
O O10 0.820100 0.622507 0.872104
O O11 0.841346 0.706409 0.563854
O O12 0.751364 0.625509 0.736705
O O13 0.668729 0.649972 0.646799
O O14 0.577721 0.713064 0.709359
O O15 0.750000 0.750000 0.500000
#
# Coordination Sequence:
#
# PCOD9271911 Si02
#       7
#     8   8   8   8   8   8   8
#     4  10  20  37  59  96 129 177 216 263 335 390
#     4  10  21  39  64  98 134 174 222 268 325 400
#     4  12  23  48  71  93 135 174 216 277 337 382
#     4  11  25  43  69  94 128 177 217 273 329 390
#     4  11  20  39  62  95 132 166 224 261 327 388
#     4  10  23  44  65  98 128 165 219 271 325 388
#     4  10  20  36  62  90 136 172 214 273 327 393
#
# _framework density 20.148285000000001
#
# number of rings (size 3 to 8) (size 9 to 14) (size 15 to 20)
#    0.000    1.429    2.857    3.429    0.000    2.286 
#    7.714    2.143    0.000    0.000    0.000    0.000 
#    0.000    0.000    0.000    0.000    0.000    0.000 
#
# Total GULP energy -156224.537916 kJ/mol
# GULP energy per Si atom -5579.447783 kJ/mol
# Density = 2.010243 g / cm^3
# Si number density = 20.148285 Si / 1000 Ang^3
#
#
#
# Elastic Constant Matrix: (Units=GPa)
#
#
# Indices 1 2 3 4 5 6 
#
# 1 163.2789 68.9774 48.1144 0.0000 12.6126 0.0000
# 2 68.9774 67.9068 26.0930 0.0000 -5.7789 0.0000
# 3 48.1144 26.0930 96.0744 0.0000 -1.2048 0.0000
# 4 0.0000 0.0000 0.0000 25.8396 0.0000 -0.7345
# 5 12.6126 -5.7789 -1.2048 0.0000 33.5018 0.0000
# 6 0.0000 0.0000 0.0000 -0.7345 0.0000 27.7425
#
#
#
# Elastic Compliance Matrix: (Units=1/GPa)
#
#
# Indices 1 2 3 4 5 6 
#
# 1 0.012867 -0.012465 -0.003148 0.000000 -0.007108 0.000000
# 2 -0.012465 0.028762 -0.001448 0.000000 0.009602 0.000000
# 3 -0.003148 -0.001448 0.012396 0.000000 0.001381 0.000000
# 4 0.000000 0.000000 0.000000 0.038729 0.000000 0.001025
# 5 -0.007108 0.009602 0.001381 0.000000 0.034231 0.000000
# 6 0.000000 0.000000 0.000000 0.001025 0.000000 0.036073
#
#
# Mechanical properties :
#
#
# Convention : Reuss Voigt Hill
#
# Bulk Modulus (GPa) = 50.24651 68.18106 59.21379
# Shear Modulus (GPa) = 24.53223 29.68846 27.11034
#
# Velocity S-wave (km/s) = 3.49318 3.84278 3.67214
# Velocity P-wave (km/s) = 6.42357 7.32137 6.88711
#
# Compressibility (1/GPa) = 0.01990188
#
# Stress axis : x y z
#
# Youngs Moduli (GPa) = 77.71829 34.76866 80.67412
#
# Poissons Ratio (x) = 0.43340 0.25392
# Poissons Ratio (y) = 0.96878 0.11684
# Poissons Ratio (z) = 0.24462 0.05036
#
# Static dielectric constant tensor:
#      x y z
#    x 1.767390 0.000000 0.012700 
#    y 0.000000 1.654030 0.000000 
#    z 0.012700 0.000000 1.776660 
# 
# From -- ./inp_files/69051.got.cif
#   From: 2010.05.17/outbox.cif.g08.bks.cpg/sg15_35_cif.got.tgz:69051.got - 2010.06.03 18:47:42.
