data_PCOD9271418
_publ_section_title
;
Structure prediction by ZEFSAII (Michael W. Deem and Ramdas Pophale) SiO2 
 PCOD9271418
Probable space group: C 2/C
;
_chemical_formula_sum "Si O2"
_cell_formula_units_Z 48
_cell_length_a 26.286983
_cell_length_b 16.470626
_cell_length_c 8.462497
_cell_angle_alpha 90.000000
_cell_angle_beta 39.605495
_cell_angle_gamma 90.000000
_cell_volume 2335.759506
_symmetry_space_group_name_H-M "C 2/C"
_symmetry_group_IT_number 15
_symmetry_cell_setting 'monoclinic'
loop_
_space_group_symop_operation_xyz
x,y,z
-x,y,1/2-z
-x,-y,-z
x,-y,1/2+z
1/2+x,1/2+y,z
1/2-x,1/2+y,1/2-z
1/2-x,1/2-y,-z
1/2+x,1/2-y,1/2+z
loop_
_atom_site_type_symbol
_atom_site_label
_atom_site_fract_x
_atom_site_fract_y
_atom_site_fract_z
Si Si1 0.248051 0.380780 0.568724
Si Si2 0.765709 0.964363 0.197254
Si Si3 0.466211 0.259893 0.508895
Si Si4 0.136339 0.744002 0.201470
Si Si5 0.810726 0.313133 0.275378
Si Si6 0.950659 0.930633 0.709227
O O1 0.240098 0.432675 0.428924
O O2 0.240449 0.443485 0.727498
O O3 0.182931 0.309532 0.718347
O O4 0.333814 0.336325 0.354979
O O5 0.727728 0.901284 0.161445
O O6 0.861450 0.961127 0.957258
O O7 0.500000 0.269725 0.250000
O O8 0.542188 0.233355 0.430107
O O9 0.393246 0.197103 0.673883
O O10 0.441102 0.348038 0.631955
O O11 0.168106 0.717293 0.952852
O O12 0.750000 0.250000 0.500000
O O13 0.000000 0.912643 0.750000
O O14 0.000000 0.000000 0.500000
#
# Coordination Sequence:
#
# PCOD9271418 Si02
#       6
#     8   8   8   8   8   8
#     4  10  22  38  60  82 116 155 189 236 287 337
#     4  11  22  37  56  85 113 150 191 233 283 340
#     4  10  20  37  59  81 111 148 187 234 284 339
#     4   9  20  39  60  82 115 154 189 229 294 341
#     4  10  20  36  59  86 112 149 189 234 281 344
#     4  12  23  34  52  81 117 145 185 232 285 341
#
# _framework density 20.550059999999998
#
# number of rings (size 3 to 8) (size 9 to 14) (size 15 to 20)
#    0.000    1.667    1.667    3.500    2.333    1.333 
#    0.000    0.833    0.000    0.000    0.000    0.000 
#    0.000    0.000    0.000    0.000    0.000    0.000 
#
# Total GULP energy -134110.957677 kJ/mol
# GULP energy per Si atom -5587.956570 kJ/mol
# Density = 2.050329 g / cm^3
# Si number density = 20.550060 Si / 1000 Ang^3
#
#
#
# Elastic Constant Matrix: (Units=GPa)
#
#
# Indices 1 2 3 4 5 6 
#
# 1 93.1718 30.2247 10.2464 0.0000 -28.1811 0.0000
# 2 30.2247 82.2868 -3.3213 0.0000 -2.7824 0.0000
# 3 10.2464 -3.3213 20.8193 0.0000 -4.5637 0.0000
# 4 0.0000 0.0000 0.0000 10.5008 0.0000 5.3408
# 5 -28.1811 -2.7824 -4.5637 0.0000 26.8093 0.0000
# 6 0.0000 0.0000 0.0000 5.3408 0.0000 39.9541
#
#
#
# Elastic Compliance Matrix: (Units=1/GPa)
#
#
# Indices 1 2 3 4 5 6 
#
# 1 0.019160 -0.006679 -0.006474 0.000000 0.018345 0.000000
# 2 -0.006679 0.014631 0.004586 0.000000 -0.004721 0.000000
# 3 -0.006474 0.004586 0.052523 0.000000 0.002612 0.000000
# 4 0.000000 0.000000 0.000000 0.102178 0.000000 -0.013658
# 5 0.018345 -0.004721 0.002612 0.000000 0.056539 0.000000
# 6 0.000000 0.000000 0.000000 -0.013658 0.000000 0.026854
#
#
# Mechanical properties :
#
#
# Convention : Reuss Voigt Hill
#
# Bulk Modulus (GPa) = 14.45480 30.06418 22.25949
# Shear Modulus (GPa) = 16.02159 26.06138 21.04149
#
# Velocity S-wave (km/s) = 2.79523 3.56503 3.20334
# Velocity P-wave (km/s) = 4.17935 5.62205 4.95350
#
# Compressibility (1/GPa) = 0.06918119
#
# Stress axis : x y z
#
# Youngs Moduli (GPa) = 52.19154 68.34697 19.03939
#
# Poissons Ratio (x) = 0.45647 0.12326
# Poissons Ratio (y) = 0.34857 -0.08732
# Poissons Ratio (z) = 0.33788 -0.31345
#
# Static dielectric constant tensor:
#      x y z
#    x 1.782230 0.000000 0.006280 
#    y 0.000000 1.717300 0.000000 
#    z 0.006280 0.000000 1.724120 
# 
# From -- ./inp_files/56421.got.cif
#   From: 2010.05.17/outbox.cif.g08.bks.cpg/sg15_29_cif.got.tgz:56421.got - 2010.06.03 18:47:42.
