data_PCOD9271976
_publ_section_title
;
Structure prediction by ZEFSAII (Michael W. Deem and Ramdas Pophale) SiO2 
 PCOD9271976
Probable space group: C 2/C
;
_chemical_formula_sum "Si O2"
_cell_formula_units_Z 56
_cell_length_a 25.443457
_cell_length_b 9.585447
_cell_length_c 18.747695
_cell_angle_alpha 90.000000
_cell_angle_beta 149.369842
_cell_angle_gamma 90.000000
_cell_volume 2329.570109
_symmetry_space_group_name_H-M "C 2/C"
_symmetry_group_IT_number 15
_symmetry_cell_setting 'monoclinic'
loop_
_space_group_symop_operation_xyz
x,y,z
-x,y,1/2-z
-x,-y,-z
x,-y,1/2+z
1/2+x,1/2+y,z
1/2-x,1/2+y,1/2-z
1/2-x,1/2-y,-z
1/2+x,1/2-y,1/2+z
loop_
_atom_site_type_symbol
_atom_site_label
_atom_site_fract_x
_atom_site_fract_y
_atom_site_fract_z
Si Si1 0.453650 0.182716 0.478571
Si Si2 0.360145 0.764061 0.208449
Si Si3 0.348356 0.531550 0.881592
Si Si4 0.206038 0.576983 0.095183
Si Si5 0.029840 0.011136 0.704172
Si Si6 0.829032 0.474421 0.726218
Si Si7 0.229383 0.188715 0.898958
O O1 0.569385 0.212091 0.637923
O O2 0.397552 0.331682 0.403522
O O3 0.393675 0.120476 0.477340
O O4 0.430540 0.084252 0.384293
O O5 0.249724 0.691422 0.091492
O O6 0.426727 0.649169 0.243974
O O7 0.344393 0.928877 0.174519
O O8 0.299742 0.439273 0.762097
O O9 0.247319 0.560480 0.811371
O O10 0.435834 0.479469 0.038327
O O11 0.195338 0.427735 0.045123
O O12 0.000000 0.049337 0.750000
O O13 0.120740 0.108179 0.780714
O O14 0.770636 0.328866 0.646881
O O15 0.250000 0.250000 0.000000
#
# Coordination Sequence:
#
# PCOD9271976 Si02
#       7
#     8   8   8   8   8   8   8
#     4  10  20  36  62  95 126 154 202 259 306 372
#     4  10  22  38  64  89 122 157 205 257 308 368
#     4  10  20  37  67  87 126 164 199 260 301 382
#     4  10  21  40  63  93 122 164 206 245 320 373
#     4  10  23  44  61  87 120 167 217 246 315 379
#     4  11  21  39  58  95 124 154 206 252 320 360
#     4  11  24  42  62  87 126 164 204 255 307 378
#
# _framework density 24.03877
#
# number of rings (size 3 to 8) (size 9 to 14) (size 15 to 20)
#    0.000    1.714    2.857    1.286    2.000    1.714 
#   10.286    2.143    0.000    0.000    0.000    0.000 
#    0.000    0.000    0.000    0.000    0.000    0.000 
#
# Total GULP energy -156310.257269 kJ/mol
# GULP energy per Si atom -5582.509188 kJ/mol
# Density = 2.398406 g / cm^3
# Si number density = 24.038770 Si / 1000 Ang^3
#
#
#
# Elastic Constant Matrix: (Units=GPa)
#
#
# Indices 1 2 3 4 5 6 
#
# 1 71.9015 18.7751 17.0606 0.0000 6.0926 0.0000
# 2 18.7751 102.2940 17.4035 0.0000 12.0921 0.0000
# 3 17.0606 17.4035 67.9706 0.0000 4.8256 0.0000
# 4 0.0000 0.0000 0.0000 24.6491 0.0000 2.2467
# 5 6.0926 12.0921 4.8256 0.0000 33.0431 0.0000
# 6 0.0000 0.0000 0.0000 2.2467 0.0000 39.3978
#
#
#
# Elastic Compliance Matrix: (Units=1/GPa)
#
#
# Indices 1 2 3 4 5 6 
#
# 1 0.015348 -0.002083 -0.003206 0.000000 -0.001600 0.000000
# 2 -0.002083 0.010894 -0.002032 0.000000 -0.003306 0.000000
# 3 -0.003206 -0.002032 0.016109 0.000000 -0.001018 0.000000
# 4 0.000000 0.000000 0.000000 0.040781 0.000000 -0.002326
# 5 -0.001600 -0.003306 -0.001018 0.000000 0.031917 0.000000
# 6 0.000000 0.000000 0.000000 -0.002326 0.000000 0.025515
#
#
# Mechanical properties :
#
#
# Convention : Reuss Voigt Hill
#
# Bulk Modulus (GPa) = 36.08596 38.73827 37.41212
# Shear Modulus (GPa) = 30.40583 32.01314 31.20948
#
# Velocity S-wave (km/s) = 3.56035 3.65325 3.60710
# Velocity P-wave (km/s) = 5.65205 5.82622 5.73979
#
# Compressibility (1/GPa) = 0.02771161
#
# Stress axis : x y z
#
# Youngs Moduli (GPa) = 65.15571 91.78944 62.07564
#
# Poissons Ratio (x) = 0.19115 0.19898
# Poissons Ratio (y) = 0.13569 0.12614
# Poissons Ratio (z) = 0.20886 0.18652
#
# Static dielectric constant tensor:
#      x y z
#    x 1.922150 0.000000 -0.063210 
#    y 0.000000 2.096870 0.000000 
#    z -0.063210 0.000000 2.062980 
# 
# From -- ./inp_files/259032.got.cif
#   From: 2010.05.17/outbox.cif.g08.bks.cpg/sg15_130_cif.got.tgz:259032.got - 2010.06.03 18:47:42.
