data_PCOD9271264
_publ_section_title
;
Structure prediction by ZEFSAII (Michael W. Deem and Ramdas Pophale) SiO2 
 PCOD9271264
Probable space group: C 2/C
;
_chemical_formula_sum "Si O2"
_cell_formula_units_Z 56
_cell_length_a 13.141043
_cell_length_b 15.163191
_cell_length_c 23.694586
_cell_angle_alpha 90.000000
_cell_angle_beta 30.974280
_cell_angle_gamma 90.000000
_cell_volume 2429.876940
_symmetry_space_group_name_H-M "C 2/C"
_symmetry_group_IT_number 15
_symmetry_cell_setting 'monoclinic'
loop_
_space_group_symop_operation_xyz
x,y,z
-x,y,1/2-z
-x,-y,-z
x,-y,1/2+z
1/2+x,1/2+y,z
1/2-x,1/2+y,1/2-z
1/2-x,1/2-y,-z
1/2+x,1/2-y,1/2+z
loop_
_atom_site_type_symbol
_atom_site_label
_atom_site_fract_x
_atom_site_fract_y
_atom_site_fract_z
Si Si1 0.969661 0.356650 0.858531
Si Si2 0.733604 0.704599 0.574068
Si Si3 0.429653 0.448207 0.217985
Si Si4 0.136175 0.130431 0.282555
Si Si5 0.536458 0.051335 0.593472
Si Si6 0.601084 0.853220 0.956041
Si Si7 0.118579 0.290874 0.136282
O O1 0.846573 0.301250 0.871777
O O2 0.205084 0.355068 0.743804
O O3 0.921638 0.456500 0.898588
O O4 0.897267 0.297412 0.946387
O O5 0.554228 0.639173 0.644265
O O6 0.868193 0.659694 0.557463
O O7 0.500000 0.463407 0.250000
O O8 0.477643 0.538402 0.161210
O O9 0.200457 0.438026 0.306046
O O10 0.269266 0.124182 0.161129
O O11 0.000351 0.214010 0.339283
O O12 0.624330 0.068821 0.489849
O O13 0.619082 0.125477 0.596022
O O14 0.682990 0.759846 0.939978
O O15 0.000000 0.312667 0.250000
#
# Coordination Sequence:
#
# PCOD9271264 Si02
#       7
#     8   8   8   8   8   8   8
#     4   9  21  36  57  83 118 155 188 233 295 356
#     4  10  20  37  56  82 121 153 186 239 303 345
#     4  11  20  32  57  89 115 142 187 245 300 341
#     4   9  20  35  58  85 115 148 189 240 297 341
#     4  11  22  36  59  87 114 152 198 241 287 351
#     4  10  20  36  58  86 116 146 196 248 292 337
#     4  10  21  39  59  78 114 157 196 236 285 350
#
# _framework density 23.046434000000001
#
# number of rings (size 3 to 8) (size 9 to 14) (size 15 to 20)
#    0.000    2.000    1.429    2.571    4.000    2.857 
#    0.000    1.429    3.143    0.000    0.000    0.000 
#    0.000    0.000    0.000    0.000    0.000    0.000 
#
# Total GULP energy -156174.627357 kJ/mol
# GULP energy per Si atom -5577.665263 kJ/mol
# Density = 2.299398 g / cm^3
# Si number density = 23.046434 Si / 1000 Ang^3
#
#
#
# Elastic Constant Matrix: (Units=GPa)
#
#
# Indices 1 2 3 4 5 6 
#
# 1 37.6408 33.8595 18.2180 0.0003 -8.7860 0.0000
# 2 33.8595 155.0551 29.9028 0.0037 -16.4404 0.0005
# 3 18.2180 29.9028 59.2644 0.0071 -22.2208 0.0009
# 4 0.0003 0.0037 0.0071 26.5113 0.0008 -9.5008
# 5 -8.7860 -16.4404 -22.2208 0.0008 35.4230 -0.0002
# 6 0.0000 0.0005 0.0009 -9.5008 -0.0002 32.6706
#
#
#
# Elastic Compliance Matrix: (Units=1/GPa)
#
#
# Indices 1 2 3 4 5 6 
#
# 1 0.036162 -0.006321 -0.007406 0.000003 0.001390 0.000001
# 2 -0.006321 0.008301 -0.001816 -0.000001 0.001146 0.000000
# 3 -0.007406 -0.001816 0.024924 -0.000008 0.012955 -0.000003
# 4 0.000003 -0.000001 -0.000008 0.042108 -0.000005 0.012245
# 5 0.001390 0.001146 0.012955 -0.000005 0.037234 -0.000002
# 6 0.000001 0.000000 -0.000003 0.012245 -0.000002 0.034170
#
#
# Mechanical properties :
#
#
# Convention : Reuss Voigt Hill
#
# Bulk Modulus (GPa) = 26.10852 46.21344 36.16098
# Shear Modulus (GPa) = 22.05072 30.25298 26.15185
#
# Velocity S-wave (km/s) = 3.09657 3.62705 3.37225
# Velocity P-wave (km/s) = 4.91307 6.13486 5.55764
#
# Compressibility (1/GPa) = 0.03830167
#
# Stress axis : x y z
#
# Youngs Moduli (GPa) = 27.65357 120.46234 40.12253
#
# Poissons Ratio (x) = 0.76145 0.29713
# Poissons Ratio (y) = 0.17480 0.07286
# Poissons Ratio (z) = 0.20479 0.21874
#
# Static dielectric constant tensor:
#      x y z
#    x 2.029490 0.000000 0.015850 
#    y 0.000000 1.924540 0.000000 
#    z 0.015850 0.000000 1.908730 
# 
# From -- ./inp_files/313691.got.cif
#   From: 2010.05.17/outbox.cif.g08.bks.cpg/sg15_157_cif.got.tgz:313691.got - 2010.06.03 18:47:42.
