data_PCOD9271778
_publ_section_title
;
Structure prediction by ZEFSAII (Michael W. Deem and Ramdas Pophale) SiO2 
 PCOD9271778
Probable space group: C 2/C
;
_chemical_formula_sum "Si O2"
_cell_formula_units_Z 56
_cell_length_a 11.418285
_cell_length_b 22.565885
_cell_length_c 11.929958
_cell_angle_alpha 90.000000
_cell_angle_beta 76.066286
_cell_angle_gamma 90.000000
_cell_volume 2983.467052
_symmetry_space_group_name_H-M "C 2/C"
_symmetry_group_IT_number 15
_symmetry_cell_setting 'monoclinic'
loop_
_space_group_symop_operation_xyz
x,y,z
-x,y,1/2-z
-x,-y,-z
x,-y,1/2+z
1/2+x,1/2+y,z
1/2-x,1/2+y,1/2-z
1/2-x,1/2-y,-z
1/2+x,1/2-y,1/2+z
loop_
_atom_site_type_symbol
_atom_site_label
_atom_site_fract_x
_atom_site_fract_y
_atom_site_fract_z
Si Si1 0.912159 0.851043 0.663378
Si Si2 0.864485 0.090898 0.733329
Si Si3 0.129970 0.980923 0.921994
Si Si4 0.791913 0.685907 0.133429
Si Si5 0.382393 0.690176 0.541563
Si Si6 0.179790 0.542294 0.934251
Si Si7 0.047960 0.570070 0.365405
O O1 0.871928 0.914272 0.623778
O O2 0.801096 0.814510 0.740712
O O3 0.000000 0.862191 0.750000
O O4 0.989057 0.819158 0.548768
O O5 0.856942 0.140161 0.639470
O O6 0.759494 0.090931 0.850151
O O7 0.000000 0.094077 0.750000
O O8 0.847013 0.026785 0.681798
O O9 0.228931 0.985898 0.996123
O O10 0.000000 0.000000 0.000000
O O11 0.867264 0.746071 0.102692
O O12 0.872203 0.627700 0.128994
O O13 0.713648 0.682779 0.037203
O O14 0.124675 0.489415 0.871977
O O15 0.066771 0.569547 0.025741
O O16 0.000000 0.570020 0.250000
#
# Coordination Sequence:
#
# PCOD9271778 Si02
#       7
#     8   8   8   8   8   8   8
#     4  10  20  36  61  91 120 154 203 252 305 366
#     4  12  22  35  59  91 122 148 191 252 309 353
#     4  12  21  36  62  91 125 156 190 254 311 364
#     4  10  22  40  63  81 117 166 205 248 301 362
#     4  10  22  39  58  91 118 151 208 258 298 355
#     4  11  24  39  59  91 122 157 199 245 305 365
#     4  11  24  42  60  83 122 166 205 241 293 379
#
# _framework density 18.770108
#
# number of rings (size 3 to 8) (size 9 to 14) (size 15 to 20)
#    0.000    1.143    2.857    3.857    2.000    2.857 
#    0.000    1.429    0.000    5.143    0.000    0.000 
#    0.000    0.000    0.000    0.000    0.000    0.000 
#
# Total GULP energy -156432.889937 kJ/mol
# GULP energy per Si atom -5586.888926 kJ/mol
# Density = 1.872739 g / cm^3
# Si number density = 18.770108 Si / 1000 Ang^3
#
#
#
# Elastic Constant Matrix: (Units=GPa)
#
#
# Indices 1 2 3 4 5 6 
#
# 1 83.6367 42.4582 45.6045 0.0000 -25.5122 0.0000
# 2 42.4582 112.0675 67.8582 0.0000 -16.7253 0.0000
# 3 45.6045 67.8582 96.7457 0.0000 -28.7999 0.0000
# 4 0.0000 0.0000 0.0000 4.8892 0.0000 -7.1551
# 5 -25.5122 -16.7253 -28.7999 0.0000 31.9299 0.0000
# 6 0.0000 0.0000 0.0000 -7.1551 0.0000 19.6498
#
#
#
# Elastic Compliance Matrix: (Units=1/GPa)
#
#
# Indices 1 2 3 4 5 6 
#
# 1 0.018624 -0.003566 -0.003286 0.000000 0.010048 0.000000
# 2 -0.003566 0.016319 -0.011031 0.000000 -0.004251 0.000000
# 3 -0.003286 -0.011031 0.023405 0.000000 0.012707 0.000000
# 4 0.000000 0.000000 0.000000 0.437855 0.000000 0.159436
# 5 0.010048 -0.004251 0.012707 0.000000 0.048582 0.000000
# 6 0.000000 0.000000 0.000000 0.159436 0.000000 0.108946
#
#
# Mechanical properties :
#
#
# Convention : Reuss Voigt Hill
#
# Bulk Modulus (GPa) = 44.28357 67.14352 55.71354
# Shear Modulus (GPa) = 7.17333 20.39573 13.78453
#
# Velocity S-wave (km/s) = 1.95703 3.29995 2.71290
# Velocity P-wave (km/s) = 5.36195 7.09709 6.28964
#
# Compressibility (1/GPa) = 0.02258174
#
# Stress axis : x y z
#
# Youngs Moduli (GPa) = 53.69416 61.27775 42.72559
#
# Poissons Ratio (x) = 0.21854 0.14041
# Poissons Ratio (y) = 0.19149 0.47129
# Poissons Ratio (z) = 0.17645 0.67593
#
# Static dielectric constant tensor:
#      x y z
#    x 1.650430 0.000000 -0.021490 
#    y 0.000000 1.602780 0.000000 
#    z -0.021490 0.000000 1.673350 
# 
# From -- ./inp_files/88903.got.cif
#   From: 2010.05.17/outbox.cif.g08.bks.cpg/sg15_45_cif.got.tgz:88903.got - 2010.06.03 18:47:42.
