data_PCOD9271974
_publ_section_title
;
Structure prediction by ZEFSAII (Michael W. Deem and Ramdas Pophale) SiO2 
 PCOD9271974
Probable space group: C 2/C
;
_chemical_formula_sum "Si O2"
_cell_formula_units_Z 56
_cell_length_a 28.610780
_cell_length_b 11.672632
_cell_length_c 9.655198
_cell_angle_alpha 90.000000
_cell_angle_beta 113.705909
_cell_angle_gamma 90.000000
_cell_volume 2952.401959
_symmetry_space_group_name_H-M "C 2/C"
_symmetry_group_IT_number 15
_symmetry_cell_setting 'monoclinic'
loop_
_space_group_symop_operation_xyz
x,y,z
-x,y,1/2-z
-x,-y,-z
x,-y,1/2+z
1/2+x,1/2+y,z
1/2-x,1/2+y,1/2-z
1/2-x,1/2-y,-z
1/2+x,1/2-y,1/2+z
loop_
_atom_site_type_symbol
_atom_site_label
_atom_site_fract_x
_atom_site_fract_y
_atom_site_fract_z
Si Si1 0.709061 0.871780 0.642509
Si Si2 0.558856 0.963671 0.856043
Si Si3 0.557475 0.774498 0.352774
Si Si4 0.849519 0.136586 0.970532
Si Si5 0.114711 0.701728 0.629782
Si Si6 0.828218 0.919682 0.761863
Si Si7 0.339537 0.997569 0.175102
O O1 0.688021 0.745757 0.583690
O O2 0.769435 0.883188 0.704179
O O3 0.689771 0.907766 0.772082
O O4 0.684558 0.957702 0.498666
O O5 0.500000 0.941316 0.750000
O O6 0.601664 0.967464 0.785788
O O7 0.558844 0.095284 0.913245
O O8 0.579549 0.866308 0.981926
O O9 0.500000 0.739637 0.250000
O O10 0.593372 0.688297 0.479103
O O11 0.584046 0.782058 0.235036
O O12 0.836667 0.041791 0.842190
O O13 0.843284 0.084725 0.117580
O O14 0.137723 0.823874 0.618966
O O15 0.159725 0.615095 0.727290
#
# Coordination Sequence:
#
# PCOD9271974 Si02
#       7
#     8   8   8   8   8   8   8
#     4  12  23  40  64  91 123 165 201 258 311 360
#     4  10  20  36  62  95 124 157 197 254 319 365
#     4   9  19  37  63  87 117 160 201 253 315 359
#     4  11  23  44  59  91 120 167 206 257 300 367
#     4  10  20  39  56  86 126 156 198 260 296 367
#     4  11  25  40  63  83 126 166 212 247 307 360
#     4  11  21  38  64  91 124 155 206 251 311 365
#
# _framework density 18.967607000000001
#
# number of rings (size 3 to 8) (size 9 to 14) (size 15 to 20)
#    0.000    1.429    5.714    1.286    2.000    7.429 
#    0.000    5.714    0.000    0.000    0.000    0.000 
#    0.000    0.000    0.000    0.000    0.000    0.000 
#
# Total GULP energy -156220.646620 kJ/mol
# GULP energy per Si atom -5579.308808 kJ/mol
# Density = 1.892444 g / cm^3
# Si number density = 18.967607 Si / 1000 Ang^3
#
#
#
# Elastic Constant Matrix: (Units=GPa)
#
#
# Indices 1 2 3 4 5 6 
#
# 1 60.2023 39.6438 34.6646 0.0000 30.3625 0.0000
# 2 39.6438 91.7857 71.1668 0.0000 6.0555 0.0000
# 3 34.6646 71.1668 83.1344 0.0000 11.1917 0.0000
# 4 0.0000 0.0000 0.0000 -17.4383 0.0000 -40.1620
# 5 30.3625 6.0555 11.1917 0.0000 27.9970 0.0000
# 6 0.0000 0.0000 0.0000 -40.1620 0.0000 -9.1145
#
#
#
# Elastic Compliance Matrix: (Units=1/GPa)
#
#
# Indices 1 2 3 4 5 6 
#
# 1 0.067001 -0.029514 0.006606 0.000000 -0.068919 0.000000
# 2 -0.029514 0.045901 -0.031664 0.000000 0.034737 0.000000
# 3 0.006606 -0.031664 0.038494 0.000000 -0.015703 0.000000
# 4 0.000000 0.000000 0.000000 0.006268 0.000000 -0.027621
# 5 -0.068919 0.034737 -0.015703 0.000000 0.109224 0.000000
# 6 0.000000 0.000000 0.000000 -0.027621 0.000000 0.011993
#
#
# Mechanical properties :
#
#
# Convention : Reuss Voigt Hill
#
# Bulk Modulus (GPa) = 23.66705 58.45253 41.05979
# Shear Modulus (GPa) = 12.43441 6.26531 9.34986
#
# Velocity S-wave (km/s) = 2.56317 1.81943 2.22263
# Velocity P-wave (km/s) = 4.61134 5.94119 5.31800
#
# Compressibility (1/GPa) = 0.04225284
#
# Stress axis : x y z
#
# Youngs Moduli (GPa) = 14.92515 21.78581 25.97818
#
# Poissons Ratio (x) = 0.64298 -0.17161
# Poissons Ratio (y) = 0.44050 0.82256
# Poissons Ratio (z) = -0.09859 0.68982
#
# Static dielectric constant tensor:
#      x y z
#    x 1.676950 0.000000 0.011190 
#    y 0.000000 1.670770 0.000000 
#    z 0.011190 0.000000 1.683870 
# 
# From -- ./inp_files/69151.got.cif
#   From: 2010.05.17/outbox.cif.g08.bks.cpg/sg15_35_cif.got.tgz:69151.got - 2010.06.03 18:47:42.
