data_PCOD9271932
_publ_section_title
;
Structure prediction by ZEFSAII (Michael W. Deem and Ramdas Pophale) SiO2 
 PCOD9271932
Probable space group: C 2/C
;
_chemical_formula_sum "Si O2"
_cell_formula_units_Z 56
_cell_length_a 9.604755
_cell_length_b 17.536498
_cell_length_c 19.797468
_cell_angle_alpha 90.000000
_cell_angle_beta 61.577803
_cell_angle_gamma 90.000000
_cell_volume 2932.628148
_symmetry_space_group_name_H-M "C 2/C"
_symmetry_group_IT_number 15
_symmetry_cell_setting 'monoclinic'
loop_
_space_group_symop_operation_xyz
x,y,z
-x,y,1/2-z
-x,-y,-z
x,-y,1/2+z
1/2+x,1/2+y,z
1/2-x,1/2+y,1/2-z
1/2-x,1/2-y,-z
1/2+x,1/2-y,1/2+z
loop_
_atom_site_type_symbol
_atom_site_label
_atom_site_fract_x
_atom_site_fract_y
_atom_site_fract_z
Si Si1 0.320617 0.072924 0.786833
Si Si2 0.111054 0.057122 0.283594
Si Si3 0.186505 0.185703 0.921041
Si Si4 0.903925 0.658313 0.206742
Si Si5 0.579792 0.308328 0.598072
Si Si6 0.615232 0.266251 0.084833
Si Si7 0.219670 0.701528 0.816747
O O1 0.500000 0.043741 0.750000
O O2 0.292666 0.123460 0.859794
O O3 0.303908 0.128280 0.724989
O O4 0.187752 0.008220 0.811449
O O5 0.265762 0.100860 0.218404
O O6 0.000000 0.025858 0.250000
O O7 0.005710 0.120009 0.347428
O O8 0.277302 0.267146 0.895055
O O9 0.023242 0.186996 0.918339
O O10 0.146854 0.172543 0.008626
O O11 0.816206 0.736126 0.250701
O O12 0.000000 0.629802 0.250000
O O13 0.035999 0.685653 0.124167
O O14 0.445266 0.242449 0.625336
O O15 0.682883 0.306680 0.136317
O O16 0.750000 0.250000 0.000000
#
# Coordination Sequence:
#
# PCOD9271932 Si02
#       7
#     8   8   8   8   8   8   8
#     4  12  25  41  64  92 128 169 208 266 327 379
#     4  11  25  40  63  91 128 165 214 261 322 384
#     4  11  22  38  67  92 126 164 215 270 316 373
#     4   9  19  36  60  85 120 161 206 258 304 373
#     4  10  22  42  64  96 121 166 218 260 314 387
#     4  11  20  33  59  94 122 155 198 267 318 358
#     4  10  20  36  62  92 119 155 214 259 308 372
#
# _framework density 19.095500000000001
#
# number of rings (size 3 to 8) (size 9 to 14) (size 15 to 20)
#    0.000    1.429    4.286    1.286    4.000    0.571 
#    0.000    0.000    0.000    1.714    0.000    0.000 
#    0.000    0.000    0.000    0.000    0.000    0.000 
#
# Total GULP energy -156286.156103 kJ/mol
# GULP energy per Si atom -5581.648432 kJ/mol
# Density = 1.905204 g / cm^3
# Si number density = 19.095500 Si / 1000 Ang^3
#
#
#
# Elastic Constant Matrix: (Units=GPa)
#
#
# Indices 1 2 3 4 5 6 
#
# 1 114.4486 24.4620 23.2712 0.0000 -4.0843 0.0000
# 2 24.4620 70.1519 29.0942 0.0000 1.1164 0.0000
# 3 23.2712 29.0942 111.0745 0.0000 -11.7226 0.0000
# 4 0.0000 0.0000 0.0000 7.9138 0.0000 -2.5422
# 5 -4.0843 1.1164 -11.7226 0.0000 25.4053 0.0000
# 6 0.0000 0.0000 0.0000 -2.5422 0.0000 31.9914
#
#
#
# Elastic Compliance Matrix: (Units=1/GPa)
#
#
# Indices 1 2 3 4 5 6 
#
# 1 0.009631 -0.002906 -0.001135 0.000000 0.001152 0.000000
# 2 -0.002906 0.017056 -0.004191 0.000000 -0.003151 0.000000
# 3 -0.001135 -0.004191 0.010868 0.000000 0.005017 0.000000
# 4 0.000000 0.000000 0.000000 0.129672 0.000000 0.010305
# 5 0.001152 -0.003151 0.005017 0.000000 0.042000 0.000000
# 6 0.000000 0.000000 0.000000 0.010305 0.000000 0.032077
#
#
# Mechanical properties :
#
#
# Convention : Reuss Voigt Hill
#
# Bulk Modulus (GPa) = 47.41417 49.92554 48.66985
# Shear Modulus (GPa) = 18.88221 27.65194 23.26707
#
# Velocity S-wave (km/s) = 3.14798 3.80950 3.49443
# Velocity P-wave (km/s) = 6.17227 6.74920 6.46717
#
# Compressibility (1/GPa) = 0.02109074
#
# Stress axis : x y z
#
# Youngs Moduli (GPa) = 103.83658 58.62872 92.01277
#
# Poissons Ratio (x) = 0.17036 0.10443
# Poissons Ratio (y) = 0.30173 0.38566
# Poissons Ratio (z) = 0.11785 0.24574
#
# Static dielectric constant tensor:
#      x y z
#    x 1.697780 0.000000 -0.008830 
#    y 0.000000 1.667980 0.000000 
#    z -0.008830 0.000000 1.684740 
# 
# From -- ./inp_files/232588.got.cif
#   From: 2010.05.17/outbox.cif.g08.bks.cpg/sg15_117_cif.got.tgz:232588.got - 2010.06.03 18:47:42.
