data_PCOD9271534
_publ_section_title
;
Structure prediction by ZEFSAII (Michael W. Deem and Ramdas Pophale) SiO2 
 PCOD9271534
Probable space group: C 2/C
;
_chemical_formula_sum "Si O2"
_cell_formula_units_Z 64
_cell_length_a 8.796402
_cell_length_b 31.678545
_cell_length_c 21.989916
_cell_angle_alpha 90.000000
_cell_angle_beta 35.125910
_cell_angle_gamma 90.000000
_cell_volume 3525.696978
_symmetry_space_group_name_H-M "C 2/C"
_symmetry_group_IT_number 15
_symmetry_cell_setting 'monoclinic'
loop_
_space_group_symop_operation_xyz
x,y,z
-x,y,1/2-z
-x,-y,-z
x,-y,1/2+z
1/2+x,1/2+y,z
1/2-x,1/2+y,1/2-z
1/2-x,1/2-y,-z
1/2+x,1/2-y,1/2+z
loop_
_atom_site_type_symbol
_atom_site_label
_atom_site_fract_x
_atom_site_fract_y
_atom_site_fract_z
Si Si1 0.271605 0.687415 0.007166
Si Si2 0.751378 0.652872 0.624268
Si Si3 0.264930 0.453089 0.625674
Si Si4 0.218380 0.142796 0.374557
Si Si5 0.293109 0.242333 0.135537
Si Si6 0.766484 0.202371 0.470812
Si Si7 0.763380 0.490906 0.994088
Si Si8 0.231497 0.552416 0.876311
O O1 0.287019 0.670854 0.932290
O O2 0.525606 0.716995 0.938242
O O3 0.263103 0.651037 0.059572
O O4 0.005994 0.715522 0.105274
O O5 0.500000 0.660078 0.750000
O O6 0.810635 0.602823 0.604947
O O7 0.997983 0.677590 0.572195
O O8 0.361767 0.405719 0.607437
O O9 0.200627 0.460713 0.575798
O O10 0.488892 0.485262 0.572931
O O11 0.000000 0.460223 0.750000
O O12 0.500000 0.148756 0.250000
O O13 0.011835 0.175837 0.414424
O O14 0.228400 0.209665 0.102866
O O15 0.000000 0.256494 0.250000
O O16 0.750000 0.250000 0.500000
O O17 0.749985 0.465816 0.061588
O O18 0.995023 0.525950 0.922659
O O19 0.500000 0.545773 0.750000
#
# Coordination Sequence:
#
# PCOD9271534 Si02
#       8
#     8   8   8   8   8   8   8   8
#     4  10  21  37  54  79 107 142 186 228 272 329
#     4  10  23  38  57  82 114 148 185 232 279 327
#     4  10  21  36  56  86 115 146 183 225 278 334
#     4  11  22  37  58  83 114 147 185 231 280 327
#     4  10  21  37  54  76 106 140 187 232 273 323
#     4  11  22  37  55  81 110 145 190 229 275 331
#     4  10  20  36  60  83 114 147 181 229 274 330
#     4  10  20  37  58  84 112 147 187 225 276 333
#
# _framework density 18.152438
#
# number of rings (size 3 to 8) (size 9 to 14) (size 15 to 20)
#    0.000    1.750    1.250    3.000    1.750    0.500 
#    0.000    0.000    0.000   18.000    0.000    0.000 
#    0.000    0.000    0.000    0.000    0.000    0.000 
#
# Total GULP energy -178396.808112 kJ/mol
# GULP energy per Si atom -5574.900253 kJ/mol
# Density = 1.811112 g / cm^3
# Si number density = 18.152438 Si / 1000 Ang^3
#
#
#
# Elastic Constant Matrix: (Units=GPa)
#
#
# Indices 1 2 3 4 5 6 
#
# 1 69.8630 33.6498 32.5339 -0.0002 -1.9248 0.0008
# 2 33.6498 107.9010 54.6262 0.0013 -8.9648 0.0003
# 3 32.5339 54.6262 88.2878 -0.0164 -6.8376 0.0033
# 4 -0.0002 0.0013 -0.0164 52.7579 0.0038 -37.4816
# 5 -1.9248 -8.9648 -6.8376 0.0038 22.7082 -0.0004
# 6 0.0008 0.0003 0.0033 -37.4816 -0.0004 6.6083
#
#
#
# Elastic Compliance Matrix: (Units=1/GPa)
#
#
# Indices 1 2 3 4 5 6 
#
# 1 0.018080 -0.003376 -0.004667 0.000000 -0.001205 0.000002
# 2 -0.003376 0.014312 -0.007368 0.000000 0.003145 0.000004
# 3 -0.004667 -0.007368 0.017763 0.000000 0.002044 -0.000008
# 4 0.000000 0.000000 0.000000 -0.006256 0.000000 -0.035486
# 5 -0.001205 0.003145 0.002044 0.000000 0.045792 0.000004
# 6 0.000002 0.000004 -0.000008 -0.035486 0.000004 -0.049949
#
#
# Mechanical properties :
#
#
# Convention : Reuss Voigt Hill
#
# Bulk Modulus (GPa) = 51.72200 56.40796 54.06498
# Shear Modulus (GPa) = 64.92939 26.09766 45.51353
#
# Velocity S-wave (km/s) = 5.98720 3.79581 5.01272
# Velocity P-wave (km/s) = 8.73788 7.09598 7.95938
#
# Compressibility (1/GPa) = 0.01933413
#
# Stress axis : x y z
#
# Youngs Moduli (GPa) = 55.31025 69.87266 56.29598
#
# Poissons Ratio (x) = 0.23587 0.26274
# Poissons Ratio (y) = 0.18671 0.41476
# Poissons Ratio (z) = 0.25814 0.51479
#
# Static dielectric constant tensor:
#      x y z
#    x 1.842660 0.000000 0.035140 
#    y 0.000000 1.612420 0.000000 
#    z 0.035140 0.000000 1.632180 
# 
# From -- ./inp_files/266730.got.cif
#   From: 2010.05.17/outbox.cif.g08.bks.cpg/sg15_134_cif.got.tgz:266730.got - 2010.06.03 18:47:42.
