data_PCOD9271174
_publ_section_title
;
Structure prediction by ZEFSAII (Michael W. Deem and Ramdas Pophale) SiO2 
 PCOD9271174
Probable space group: C 2/C
;
_chemical_formula_sum "Si O2"
_cell_formula_units_Z 44
_cell_length_a 9.225406
_cell_length_b 23.063401
_cell_length_c 12.929917
_cell_angle_alpha 90.000000
_cell_angle_beta 55.702147
_cell_angle_gamma 90.000000
_cell_volume 2272.727682
_symmetry_space_group_name_H-M "C 2/C"
_symmetry_group_IT_number 15
_symmetry_cell_setting 'monoclinic'
loop_
_space_group_symop_operation_xyz
x,y,z
-x,y,1/2-z
-x,-y,-z
x,-y,1/2+z
1/2+x,1/2+y,z
1/2-x,1/2+y,1/2-z
1/2-x,1/2-y,-z
1/2+x,1/2-y,1/2+z
loop_
_atom_site_type_symbol
_atom_site_label
_atom_site_fract_x
_atom_site_fract_y
_atom_site_fract_z
Si Si1 0.994450 0.694301 0.957523
Si Si2 0.828978 0.872149 0.247449
Si Si3 0.138804 0.181041 0.981859
Si Si4 0.543978 0.965132 0.345783
Si Si5 0.369292 0.916689 0.610177
Si Si6 0.500000 0.372376 0.750000
O O1 0.845174 0.687853 0.927884
O O2 0.184516 0.677069 0.836972
O O3 0.956989 0.759096 0.010723
O O4 0.953092 0.646950 0.063862
O O5 0.876960 0.862300 0.107942
O O6 0.723908 0.932726 0.304840
O O7 0.000000 0.869237 0.250000
O O8 0.055934 0.163047 0.125586
O O9 0.500000 0.944604 0.250000
O O10 0.398492 0.943587 0.484444
O O11 0.551395 0.034385 0.348922
O O12 0.166798 0.909590 0.714530
#
# Coordination Sequence:
#
# PCOD9271174 Si02
#       6
#     8   8   8   8   8   4
#     4   9  20  38  64  85 118 159 203 250 287 361
#     4  11  23  38  59  89 123 162 196 248 309 358
#     4  10  21  37  65  91 117 159 204 246 295 356
#     4  10  20  41  63  81 112 166 205 242 293 363
#     4   9  20  37  58  88 119 144 198 253 299 340
#     4  10  20  36  58 100 116 148 198 262 288 356
#
# _framework density 19.359995999999999
#
# number of rings (size 3 to 8) (size 9 to 14) (size 15 to 20)
#    0.000    2.182    0.000    3.818    8.909    0.727 
#    9.818    2.727    0.000    0.000    0.000    0.000 
#    0.000    0.000    0.000    0.000    0.000    0.000 
#
# Total GULP energy -122599.448373 kJ/mol
# GULP energy per Si atom -5572.702199 kJ/mol
# Density = 1.931593 g / cm^3
# Si number density = 19.359996 Si / 1000 Ang^3
#
#
#
# Elastic Constant Matrix: (Units=GPa)
#
#
# Indices 1 2 3 4 5 6 
#
# 1 76.9041 -0.6807 36.7547 0.0000 -10.6303 0.0000
# 2 -0.6807 70.1157 5.4088 0.0000 -7.5847 0.0000
# 3 36.7547 5.4088 80.1112 0.0000 -7.6916 0.0000
# 4 0.0000 0.0000 0.0000 -4.5669 0.0000 -6.4309
# 5 -10.6303 -7.5847 -7.6916 0.0000 25.7308 0.0000
# 6 0.0000 0.0000 0.0000 -6.4309 0.0000 18.7930
#
#
#
# Elastic Compliance Matrix: (Units=1/GPa)
#
#
# Indices 1 2 3 4 5 6 
#
# 1 0.017352 0.001324 -0.007541 0.000000 0.005305 0.000000
# 2 0.001324 0.014860 -0.001171 0.000000 0.004577 0.000000
# 3 -0.007541 -0.001171 0.016153 0.000000 0.001368 0.000000
# 4 0.000000 0.000000 0.000000 -0.147764 0.000000 -0.050564
# 5 0.005305 0.004577 0.001368 0.000000 0.042814 0.000000
# 6 0.000000 0.000000 0.000000 -0.050564 0.000000 0.035908
#
#
# Mechanical properties :
#
#
# Convention : Reuss Voigt Hill
#
# Bulk Modulus (GPa) = 29.77186 34.45520 32.11353
# Shear Modulus (GPa) = 943.79388 20.36792 482.08090
#
# Velocity S-wave (km/s) = 22.10329 3.24707 15.79713
# Velocity P-wave (km/s) = 25.82283 5.64745 18.69107
#
# Compressibility (1/GPa) = 0.03358877
#
# Stress axis : x y z
#
# Youngs Moduli (GPa) = 57.62883 67.29253 61.90818
#
# Poissons Ratio (x) = -0.08910 0.46687
# Poissons Ratio (y) = -0.07630 0.07251
# Poissons Ratio (z) = 0.43460 0.07882
#
# Static dielectric constant tensor:
#      x y z
#    x 1.653310 0.000000 -0.015780 
#    y 0.000000 1.722360 0.000000 
#    z -0.015780 0.000000 1.687540 
# 
# From -- ./inp_files/79663.got.cif
#   From: 2010.05.17/outbox.cif.g08.bks.cpg/sg15_40_cif.got.tgz:79663.got - 2010.06.03 18:47:42.
