data_PCOD9271642
_publ_section_title
;
Structure prediction by ZEFSAII (Michael W. Deem and Ramdas Pophale) SiO2 
 PCOD9271642
Probable space group: C 2/C
;
_chemical_formula_sum "Si O2"
_cell_formula_units_Z 48
_cell_length_a 14.978149
_cell_length_b 35.418216
_cell_length_c 5.369028
_cell_angle_alpha 90.000000
_cell_angle_beta 62.191953
_cell_angle_gamma 90.000000
_cell_volume 2519.335044
_symmetry_space_group_name_H-M "C 2/C"
_symmetry_group_IT_number 15
_symmetry_cell_setting 'monoclinic'
loop_
_space_group_symop_operation_xyz
x,y,z
-x,y,1/2-z
-x,-y,-z
x,-y,1/2+z
1/2+x,1/2+y,z
1/2-x,1/2+y,1/2-z
1/2-x,1/2-y,-z
1/2+x,1/2-y,1/2+z
loop_
_atom_site_type_symbol
_atom_site_label
_atom_site_fract_x
_atom_site_fract_y
_atom_site_fract_z
Si Si1 0.212879 0.604680 0.987431
Si Si2 0.893686 0.230288 0.461937
Si Si3 0.882277 0.524630 0.406154
Si Si4 0.238937 0.289895 0.763114
Si Si5 0.390276 0.342986 0.263784
Si Si6 0.620713 0.141247 0.610487
O O1 0.329889 0.618024 0.805136
O O2 0.155407 0.623904 0.828539
O O3 0.191303 0.560327 0.998750
O O4 0.166419 0.618277 0.313662
O O5 0.837155 0.257350 0.732555
O O6 0.824779 0.229986 0.311044
O O7 0.906920 0.186566 0.518995
O O8 0.000000 0.246691 0.250000
O O9 0.868613 0.500231 0.674847
O O10 0.000000 0.537923 0.250000
O O11 0.302749 0.318807 0.516212
O O12 0.168571 0.317094 0.023163
O O13 0.500000 0.347237 0.250000
O O14 0.500000 0.141630 0.750000
#
# Coordination Sequence:
#
# PCOD9271642 Si02
#       6
#     8   8   8   8   8   8
#     4  11  23  38  61  89 122 156 199 241 290 358
#     4  11  20  37  56  76 111 150 202 254 301 350
#     4  10  20  36  60  90 121 155 186 227 291 359
#     4  10  22  35  54  80 111 151 199 251 299 352
#     4  11  22  39  58  82 113 157 204 251 302 349
#     4  11  21  37  56  87 121 158 194 246 301 351
#
# _framework density 19.052647
#
# number of rings (size 3 to 8) (size 9 to 14) (size 15 to 20)
#    0.000    1.333    3.333    3.500    0.000    1.333 
#    0.000    0.000    0.000    1.000    0.000    0.000 
#    0.000    0.000    0.000    0.000    0.000    0.000 
#
# Total GULP energy -133724.764487 kJ/mol
# GULP energy per Si atom -5571.865187 kJ/mol
# Density = 1.900928 g / cm^3
# Si number density = 19.052647 Si / 1000 Ang^3
#
#
#
# Elastic Constant Matrix: (Units=GPa)
#
#
# Indices 1 2 3 4 5 6 
#
# 1 116.0039 45.7724 38.5518 0.0000 -18.0857 0.0000
# 2 45.7724 107.9715 24.9452 0.0000 -12.6072 0.0000
# 3 38.5518 24.9452 84.1953 0.0000 -6.8996 0.0000
# 4 0.0000 0.0000 0.0000 24.9552 0.0000 -1.4182
# 5 -18.0857 -12.6072 -6.8996 0.0000 37.9518 0.0000
# 6 0.0000 0.0000 0.0000 -1.4182 0.0000 13.9331
#
#
#
# Elastic Compliance Matrix: (Units=1/GPa)
#
#
# Indices 1 2 3 4 5 6 
#
# 1 0.012035 -0.003716 -0.004102 0.000000 0.003755 0.000000
# 2 -0.003716 0.011394 -0.001532 0.000000 0.001736 0.000000
# 3 -0.004102 -0.001532 0.014219 0.000000 0.000121 0.000000
# 4 0.000000 0.000000 0.000000 0.040305 0.000000 0.004103
# 5 0.003755 0.001736 0.000121 0.000000 0.028737 0.000000
# 6 0.000000 0.000000 0.000000 0.004103 0.000000 0.072189
#
#
# Mechanical properties :
#
#
# Convention : Reuss Voigt Hill
#
# Bulk Modulus (GPa) = 52.77562 58.52328 55.64945
# Shear Modulus (GPa) = 24.52236 28.62813 26.57524
#
# Velocity S-wave (km/s) = 3.59149 3.88052 3.73880
# Velocity P-wave (km/s) = 6.70510 7.13170 6.92169
#
# Compressibility (1/GPa) = 0.01894814
#
# Stress axis : x y z
#
# Youngs Moduli (GPa) = 83.08858 87.76873 70.32699
#
# Poissons Ratio (x) = 0.32614 0.28849
# Poissons Ratio (y) = 0.30875 0.10774
# Poissons Ratio (z) = 0.34084 0.13446
#
# Static dielectric constant tensor:
#      x y z
#    x 1.656640 0.000000 -0.011650 
#    y 0.000000 1.747470 0.000000 
#    z -0.011650 0.000000 1.829600 
# 
# From -- ./inp_files/8930.got.cif
#   From: 2010.05.17/outbox.cif.g08.bks.cpg/sg15_5_cif.got.tgz:8930.got - 2010.06.03 18:47:42.
