data_PCOD9271996
_publ_section_title
;
Structure prediction by ZEFSAII (Michael W. Deem and Ramdas Pophale) SiO2 
 PCOD9271996
Probable space group: C 2/C
;
_chemical_formula_sum "Si O2"
_cell_formula_units_Z 56
_cell_length_a 13.630411
_cell_length_b 11.959331
_cell_length_c 18.059050
_cell_angle_alpha 90.000000
_cell_angle_beta 74.658316
_cell_angle_gamma 90.000000
_cell_volume 2838.914175
_symmetry_space_group_name_H-M "C 2/C"
_symmetry_group_IT_number 15
_symmetry_cell_setting 'monoclinic'
loop_
_space_group_symop_operation_xyz
x,y,z
-x,y,1/2-z
-x,-y,-z
x,-y,1/2+z
1/2+x,1/2+y,z
1/2-x,1/2+y,1/2-z
1/2-x,1/2-y,-z
1/2+x,1/2-y,1/2+z
loop_
_atom_site_type_symbol
_atom_site_label
_atom_site_fract_x
_atom_site_fract_y
_atom_site_fract_z
Si Si1 0.204391 0.104601 0.395225
Si Si2 0.556377 0.871466 0.661757
Si Si3 0.801985 0.768730 0.889997
Si Si4 0.995356 0.384436 0.382761
Si Si5 0.938657 0.250763 0.992648
Si Si6 0.400015 0.309111 0.725214
Si Si7 0.133174 0.879215 0.485100
O O1 0.322786 0.110109 0.351026
O O2 0.169222 0.205094 0.456606
O O3 0.136359 0.116821 0.335228
O O4 0.176214 0.989971 0.440857
O O5 0.500000 0.841671 0.750000
O O6 0.551088 0.784548 0.594527
O O7 0.509150 0.987895 0.640430
O O8 0.811703 0.796309 0.802655
O O9 0.693355 0.724892 0.936259
O O10 0.884484 0.671484 0.891618
O O11 0.838234 0.870684 0.934230
O O12 0.028873 0.353338 0.459574
O O13 0.068731 0.311092 0.315202
O O14 0.016035 0.149096 0.995800
O O15 0.500000 0.349094 0.750000
#
# Coordination Sequence:
#
# PCOD9271996 Si02
#       7
#     8   8   8   8   8   8   8
#     4  11  23  41  63  86 122 166 193 243 310 360
#     4  12  24  39  59  91 123 159 198 248 302 362
#     4   9  17  34  60  90 111 148 204 254 275 346
#     4   9  18  38  63  85 111 161 203 247 289 352
#     4  10  23  40  60  85 124 159 200 246 303 357
#     4   9  19  36  63  87 118 148 204 252 295 341
#     4  10  20  36  63  84 115 156 204 239 295 353
#
# _framework density 19.725850999999999
#
# number of rings (size 3 to 8) (size 9 to 14) (size 15 to 20)
#    0.000    2.000    1.429    3.429    2.000    0.000 
#    0.000    2.143    0.000    0.000    0.000    0.000 
#    0.000    0.000    0.000    0.000    0.000    0.000 
#
# Total GULP energy -156246.351904 kJ/mol
# GULP energy per Si atom -5580.226854 kJ/mol
# Density = 1.968095 g / cm^3
# Si number density = 19.725851 Si / 1000 Ang^3
#
#
#
# Elastic Constant Matrix: (Units=GPa)
#
#
# Indices 1 2 3 4 5 6 
#
# 1 66.4734 21.6840 40.0197 0.0000 -3.5139 0.0000
# 2 21.6840 46.8656 34.4170 0.0000 8.0708 0.0000
# 3 40.0197 34.4170 164.2972 0.0000 -1.2649 0.0000
# 4 0.0000 0.0000 0.0000 19.3326 0.0000 -1.5471
# 5 -3.5139 8.0708 -1.2649 0.0000 33.1494 0.0000
# 6 0.0000 0.0000 0.0000 -1.5471 0.0000 11.8757
#
#
#
# Elastic Compliance Matrix: (Units=1/GPa)
#
#
# Indices 1 2 3 4 5 6 
#
# 1 0.019563 -0.007348 -0.003197 0.000000 0.003741 0.000000
# 2 -0.007348 0.029384 -0.004428 0.000000 -0.008102 0.000000
# 3 -0.003197 -0.004428 0.007801 0.000000 0.001037 0.000000
# 4 0.000000 0.000000 0.000000 0.052271 0.000000 0.006809
# 5 0.003741 -0.008102 0.001037 0.000000 0.032575 0.000000
# 6 0.000000 0.000000 0.000000 0.006809 0.000000 0.085092
#
#
# Mechanical properties :
#
#
# Convention : Reuss Voigt Hill
#
# Bulk Modulus (GPa) = 37.31017 52.20863 44.75940
# Shear Modulus (GPa) = 18.82764 24.97259 21.90011
#
# Velocity S-wave (km/s) = 3.09279 3.56193 3.33562
# Velocity P-wave (km/s) = 5.63110 6.59098 6.12985
#
# Compressibility (1/GPa) = 0.02680234
#
# Stress axis : x y z
#
# Youngs Moduli (GPa) = 51.11677 34.03163 128.19074
#
# Poissons Ratio (x) = 0.25006 0.40985
# Poissons Ratio (y) = 0.37559 0.56764
# Poissons Ratio (z) = 0.16343 0.15069
#
# Static dielectric constant tensor:
#      x y z
#    x 1.706880 0.000000 -0.003130 
#    y 0.000000 1.671540 0.000000 
#    z -0.003130 0.000000 1.710910 
# 
# From -- ./inp_files/203932.got.cif
#   From: 2010.05.17/outbox.cif.g08.bks.cpg/sg15_102_cif.got.tgz:203932.got - 2010.06.03 18:47:42.
