data_PCOD9271983
_publ_section_title
;
Structure prediction by ZEFSAII (Michael W. Deem and Ramdas Pophale) SiO2 
 PCOD9271983
Probable space group: C 2/C
;
_chemical_formula_sum "Si O2"
_cell_formula_units_Z 44
_cell_length_a 20.919024
_cell_length_b 12.290754
_cell_length_c 8.658016
_cell_angle_alpha 90.000000
_cell_angle_beta 66.083202
_cell_angle_gamma 90.000000
_cell_volume 2034.926515
_symmetry_space_group_name_H-M "C 2/C"
_symmetry_group_IT_number 15
_symmetry_cell_setting 'monoclinic'
loop_
_space_group_symop_operation_xyz
x,y,z
-x,y,1/2-z
-x,-y,-z
x,-y,1/2+z
1/2+x,1/2+y,z
1/2-x,1/2+y,1/2-z
1/2-x,1/2-y,-z
1/2+x,1/2-y,1/2+z
loop_
_atom_site_type_symbol
_atom_site_label
_atom_site_fract_x
_atom_site_fract_y
_atom_site_fract_z
Si Si1 0.059732 0.572332 0.092072
Si Si2 0.903884 0.129812 0.344010
Si Si3 0.486965 0.723260 0.504767
Si Si4 0.500000 0.439910 0.250000
Si Si5 0.339627 0.043614 0.248379
Si Si6 0.245109 0.625005 0.453279
O O1 0.118811 0.608580 0.158563
O O2 0.000000 0.509490 0.250000
O O3 0.101502 0.506301 0.922645
O O4 0.017270 0.668737 0.051815
O O5 0.920828 0.224654 0.453210
O O6 0.826651 0.095760 0.377876
O O7 0.948058 0.172308 0.154734
O O8 0.941626 0.021659 0.370565
O O9 0.467797 0.638612 0.655640
O O10 0.298621 0.947946 0.381334
O O11 0.287846 0.106649 0.183881
O O12 0.250000 0.750000 0.500000
#
# Coordination Sequence:
#
# PCOD9271983 Si02
#       6
#     8   8   8   4   8   8
#     4  11  22  45  69  92 127 162 223 285 320 384
#     4  10  22  39  63  92 138 171 209 271 327 384
#     4  10  21  38  65  99 121 167 223 260 329 387
#     4  10  20  36  62  98 128 156 232 262 324 380
#     4  10  26  46  64 105 125 174 232 265 335 404
#     4  11  25  45  69  92 144 179 216 273 335 403
#
# _framework density 21.622402999999998
#
# number of rings (size 3 to 8) (size 9 to 14) (size 15 to 20)
#    0.000    1.818    0.909    3.818    7.636    0.000 
#    6.545    2.727    0.000    0.000    0.000    0.000 
#    0.000    0.000    0.000    0.000    0.000    0.000 
#
# Total GULP energy -122760.608709 kJ/mol
# GULP energy per Si atom -5580.027669 kJ/mol
# Density = 2.157319 g / cm^3
# Si number density = 21.622403 Si / 1000 Ang^3
#
#
#
# Elastic Constant Matrix: (Units=GPa)
#
#
# Indices 1 2 3 4 5 6 
#
# 1 152.5385 39.7774 36.8302 0.0000 19.9300 0.0000
# 2 39.7774 74.4135 12.8673 0.0000 17.7763 0.0000
# 3 36.8302 12.8673 81.7042 0.0000 16.3901 0.0000
# 4 0.0000 0.0000 0.0000 22.4281 0.0000 5.2349
# 5 19.9300 17.7763 16.3901 0.0000 46.9470 0.0000
# 6 0.0000 0.0000 0.0000 5.2349 0.0000 17.9673
#
#
#
# Elastic Compliance Matrix: (Units=1/GPa)
#
#
# Indices 1 2 3 4 5 6 
#
# 1 0.008385 -0.003700 -0.002972 0.000000 -0.001121 0.000000
# 2 -0.003700 0.016536 0.000005 0.000000 -0.004692 0.000000
# 3 -0.002972 0.000005 0.014329 0.000000 -0.003743 0.000000
# 4 0.000000 0.000000 0.000000 0.047840 0.000000 -0.013939
# 5 -0.001121 -0.004692 -0.003743 0.000000 0.024860 0.000000
# 6 0.000000 0.000000 0.000000 -0.013939 0.000000 0.059718
#
#
# Mechanical properties :
#
#
# Convention : Reuss Voigt Hill
#
# Bulk Modulus (GPa) = 38.58693 54.17846 46.38270
# Shear Modulus (GPa) = 25.82096 32.08058 28.95077
#
# Velocity S-wave (km/s) = 3.45943 3.85603 3.66310
# Velocity P-wave (km/s) = 5.81734 6.70345 6.27606
#
# Compressibility (1/GPa) = 0.02591551
#
# Stress axis : x y z
#
# Youngs Moduli (GPa) = 119.26504 60.47230 69.78859
#
# Poissons Ratio (x) = 0.22377 0.20741
# Poissons Ratio (y) = 0.44132 -0.00035
# Poissons Ratio (z) = 0.35446 -0.00030
#
# Static dielectric constant tensor:
#      x y z
#    x 1.889400 0.000000 0.016310 
#    y 0.000000 1.823890 0.000000 
#    z 0.016310 0.000000 1.814060 
# 
# From -- ./inp_files/54381.got.cif
#   From: 2010.05.17/outbox.cif.g08.bks.cpg/sg15_28_cif.got.tgz:54381.got - 2010.06.03 18:47:42.
