data_PCOD9271939
_publ_section_title
;
Structure prediction by ZEFSAII (Michael W. Deem and Ramdas Pophale) SiO2 
 PCOD9271939
Probable space group: C 2/C
;
_chemical_formula_sum "Si O2"
_cell_formula_units_Z 44
_cell_length_a 15.861932
_cell_length_b 7.542221
_cell_length_c 15.818757
_cell_angle_alpha 90.000000
_cell_angle_beta 54.571582
_cell_angle_gamma 90.000000
_cell_volume 1542.056316
_symmetry_space_group_name_H-M "C 2/C"
_symmetry_group_IT_number 15
_symmetry_cell_setting 'monoclinic'
loop_
_space_group_symop_operation_xyz
x,y,z
-x,y,1/2-z
-x,-y,-z
x,-y,1/2+z
1/2+x,1/2+y,z
1/2-x,1/2+y,1/2-z
1/2-x,1/2-y,-z
1/2+x,1/2-y,1/2+z
loop_
_atom_site_type_symbol
_atom_site_label
_atom_site_fract_x
_atom_site_fract_y
_atom_site_fract_z
Si Si1 0.416892 0.292379 0.143783
Si Si2 0.500000 0.526720 0.750000
Si Si3 0.107539 0.686126 0.753545
Si Si4 0.237908 0.981463 0.475641
Si Si5 0.910098 0.660919 0.967073
Si Si6 0.286980 0.643353 0.161040
O O1 0.500103 0.347347 0.167010
O O2 0.356539 0.469883 0.145641
O O3 0.331137 0.170297 0.238975
O O4 0.451081 0.193626 0.037857
O O5 0.587054 0.385587 0.729148
O O6 0.185532 0.598198 0.642622
O O7 0.159879 0.707293 0.814028
O O8 0.995848 0.612142 0.847269
O O9 0.139749 0.851201 0.531437
O O10 0.309014 0.962427 0.516181
O O11 0.208677 0.157743 0.442833
#
# Coordination Sequence:
#
# PCOD9271939 Si02
#       6
#     8   4   8   8   8   8
#     4  10  22  40  64  91 122 163 203 255 306 369
#     4  10  22  36  64  88 130 160 204 250 316 354
#     4  11  19  39  62  91 119 164 204 252 302 361
#     4  10  20  36  62  92 123 159 201 257 300 360
#     4  10  20  37  64  94 115 162 218 243 295 378
#     4  10  20  39  63  87 125 164 195 253 314 353
#
# _framework density 28.533329999999999
#
# number of rings (size 3 to 8) (size 9 to 14) (size 15 to 20)
#    0.000    1.818    5.455    0.000    0.000    6.545 
#    3.273    0.909    0.000    8.727    0.000    0.000 
#    0.000    0.000    0.000    0.000    0.000    0.000 
#
# Total GULP energy -122807.211574 kJ/mol
# GULP energy per Si atom -5582.145981 kJ/mol
# Density = 2.846839 g / cm^3
# Si number density = 28.533330 Si / 1000 Ang^3
#
#
#
# Elastic Constant Matrix: (Units=GPa)
#
#
# Indices 1 2 3 4 5 6 
#
# 1 147.3471 3.4470 36.0201 0.0000 40.4197 0.0001
# 2 3.4470 97.4325 12.3060 -0.0001 7.3938 0.0003
# 3 36.0201 12.3060 110.6351 0.0000 -4.5679 0.0000
# 4 0.0000 -0.0001 0.0000 27.7976 0.0000 7.9946
# 5 40.4197 7.3938 -4.5679 0.0000 59.8873 0.0000
# 6 0.0001 0.0003 0.0000 7.9946 0.0000 23.8011
#
#
#
# Elastic Compliance Matrix: (Units=1/GPa)
#
#
# Indices 1 2 3 4 5 6 
#
# 1 0.009451 0.000607 -0.003422 0.000000 -0.006715 0.000000
# 2 0.000607 0.010563 -0.001448 0.000000 -0.001825 0.000000
# 3 -0.003422 -0.001448 0.010449 0.000000 0.003285 0.000000
# 4 0.000000 0.000000 0.000000 0.039821 0.000000 -0.013376
# 5 -0.006715 -0.001825 0.003285 0.000000 0.021706 0.000000
# 6 0.000000 0.000000 0.000000 -0.013376 0.000000 0.046508
#
#
# Mechanical properties :
#
#
# Convention : Reuss Voigt Hill
#
# Bulk Modulus (GPa) = 45.58122 50.99566 48.28844
# Shear Modulus (GPa) = 32.39676 42.53997 37.46836
#
# Velocity S-wave (km/s) = 3.37323 3.86539 3.62766
# Velocity P-wave (km/s) = 5.58399 6.15083 5.87425
#
# Compressibility (1/GPa) = 0.02193886
#
# Stress axis : x y z
#
# Youngs Moduli (GPa) = 105.80986 94.66671 95.69851
#
# Poissons Ratio (x) = -0.05750 0.32746
# Poissons Ratio (y) = -0.06427 0.13858
# Poissons Ratio (z) = 0.36206 0.13708
#
# Static dielectric constant tensor:
#      x y z
#    x 2.349340 0.000000 0.037030 
#    y 0.000000 2.405670 0.000000 
#    z 0.037030 0.000000 2.239950 
# 
# From -- ./inp_files/209427.got.cif
#   From: 2010.05.17/outbox.cif.g08.bks.cpg/sg15_105_cif.got.tgz:209427.got - 2010.06.03 18:47:42.
