data_PCOD9271748
_publ_section_title
;
Structure prediction by ZEFSAII (Michael W. Deem and Ramdas Pophale) SiO2 
 PCOD9271748
Probable space group: C 2/C
;
_chemical_formula_sum "Si O2"
_cell_formula_units_Z 52
_cell_length_a 21.985469
_cell_length_b 14.138097
_cell_length_c 9.104373
_cell_angle_alpha 90.000000
_cell_angle_beta 61.187002
_cell_angle_gamma 90.000000
_cell_volume 2479.583158
_symmetry_space_group_name_H-M "C 2/C"
_symmetry_group_IT_number 15
_symmetry_cell_setting 'monoclinic'
loop_
_space_group_symop_operation_xyz
x,y,z
-x,y,1/2-z
-x,-y,-z
x,-y,1/2+z
1/2+x,1/2+y,z
1/2-x,1/2+y,1/2-z
1/2-x,1/2-y,-z
1/2+x,1/2-y,1/2+z
loop_
_atom_site_type_symbol
_atom_site_label
_atom_site_fract_x
_atom_site_fract_y
_atom_site_fract_z
Si Si1 0.800985 0.023339 0.448720
Si Si2 0.000000 0.464703 0.750000
Si Si3 0.953191 0.061320 0.162291
Si Si4 0.201255 0.783268 0.421482
Si Si5 0.928737 0.738723 0.749205
Si Si6 0.095911 0.558260 0.882173
Si Si7 0.279371 0.093404 0.246254
O O1 0.879842 0.017333 0.299266
O O2 0.791455 0.103278 0.588930
O O3 0.757771 0.060000 0.360286
O O4 0.768144 0.931063 0.558962
O O5 0.040457 0.522383 0.826810
O O6 0.059926 0.418113 0.580200
O O7 0.939662 0.170279 0.131626
O O8 0.000000 0.072957 0.250000
O O9 0.000000 0.000000 0.000000
O O10 0.250000 0.750000 0.500000
O O11 0.122012 0.771424 0.563555
O O12 0.210757 0.706265 0.282707
O O13 0.886182 0.658317 0.711845
O O14 0.000000 0.710339 0.750000
O O15 0.152090 0.474086 0.826937
#
# Coordination Sequence:
#
# PCOD9271748 Si02
#       7
#     8   4   8   8   8   8   8
#     4  10  21  38  62  89 122 160 211 256 312 369
#     4  10  22  32  54  78 122 160 202 246 290 358
#     4  10  21  40  65  91 119 159 209 260 316 371
#     4   9  19  36  58  86 116 164 210 242 303 377
#     4  10  20  36  61  88 119 164 203 249 302 385
#     4  11  20  36  54  86 122 165 203 243 309 361
#     4  11  21  36  62  89 122 167 206 256 302 375
#
# _framework density 20.971267999999998
#
# number of rings (size 3 to 8) (size 9 to 14) (size 15 to 20)
#    0.000    1.846    0.769    4.615    2.154    0.000 
#    1.385    0.769    0.000    0.000    0.000    0.000 
#    0.000    0.000    0.000    0.000    0.000    0.000 
#
# Total GULP energy -144779.803156 kJ/mol
# GULP energy per Si atom -5568.453968 kJ/mol
# Density = 2.092354 g / cm^3
# Si number density = 20.971268 Si / 1000 Ang^3
#
#
#
# Elastic Constant Matrix: (Units=GPa)
#
#
# Indices 1 2 3 4 5 6 
#
# 1 83.3254 1.9654 11.0493 0.0000 -18.8563 0.0000
# 2 1.9654 53.9799 24.8231 0.0000 -12.8335 0.0000
# 3 11.0493 24.8231 71.0651 0.0000 -8.9233 0.0000
# 4 0.0000 0.0000 0.0000 50.2966 0.0000 7.7582
# 5 -18.8563 -12.8335 -8.9233 0.0000 26.9068 0.0000
# 6 0.0000 0.0000 0.0000 7.7582 0.0000 26.4958
#
#
#
# Elastic Compliance Matrix: (Units=1/GPa)
#
#
# Indices 1 2 3 4 5 6 
#
# 1 0.014696 0.002991 -0.001938 0.000000 0.011082 0.000000
# 2 0.002991 0.024620 -0.007645 0.000000 0.011303 0.000000
# 3 -0.001938 -0.007645 0.017128 0.000000 0.000676 0.000000
# 4 0.000000 0.000000 0.000000 0.020823 0.000000 -0.006097
# 5 0.011082 0.011303 0.000676 0.000000 0.050547 0.000000
# 6 0.000000 0.000000 0.000000 -0.006097 0.000000 0.039527
#
#
# Mechanical properties :
#
#
# Convention : Reuss Voigt Hill
#
# Bulk Modulus (GPa) = 23.11687 31.56067 27.33877
# Shear Modulus (GPa) = 25.64831 32.10869 28.87850
#
# Velocity S-wave (km/s) = 3.50097 3.91715 3.71489
# Velocity P-wave (km/s) = 5.23349 5.96162 5.60938
#
# Compressibility (1/GPa) = 0.04325846
#
# Stress axis : x y z
#
# Youngs Moduli (GPa) = 68.04801 40.61807 58.38280
#
# Poissons Ratio (x) = -0.12149 0.11315
# Poissons Ratio (y) = -0.20353 0.44636
# Poissons Ratio (z) = 0.13188 0.31054
#
# Static dielectric constant tensor:
#      x y z
#    x 1.768040 0.000000 -0.045140 
#    y 0.000000 1.873890 0.000000 
#    z -0.045140 0.000000 1.779230 
# 
# From -- ./inp_files/61422.got.cif
#   From: 2010.05.17/outbox.cif.g08.bks.cpg/sg15_31_cif.got.tgz:61422.got - 2010.06.03 18:47:42.
