data_PCOD9271107
_publ_section_title
;
Structure prediction by ZEFSAII (Michael W. Deem and Ramdas Pophale) SiO2 
 PCOD9271107
Probable space group: C 2/C
;
_chemical_formula_sum "Si O2"
_cell_formula_units_Z 56
_cell_length_a 27.340218
_cell_length_b 11.385596
_cell_length_c 24.508538
_cell_angle_alpha 90.000000
_cell_angle_beta 156.860310
_cell_angle_gamma 90.000000
_cell_volume 2998.052190
_symmetry_space_group_name_H-M "C 2/C"
_symmetry_group_IT_number 15
_symmetry_cell_setting 'monoclinic'
loop_
_space_group_symop_operation_xyz
x,y,z
-x,y,1/2-z
-x,-y,-z
x,-y,1/2+z
1/2+x,1/2+y,z
1/2-x,1/2+y,1/2-z
1/2-x,1/2-y,-z
1/2+x,1/2-y,1/2+z
loop_
_atom_site_type_symbol
_atom_site_label
_atom_site_fract_x
_atom_site_fract_y
_atom_site_fract_z
Si Si1 0.118005 0.094109 0.184284
Si Si2 0.623235 0.863705 0.169052
Si Si3 0.195898 0.688007 0.316809
Si Si4 0.033609 0.416185 0.965349
Si Si5 0.148837 0.972626 0.591005
Si Si6 0.146764 0.354348 0.885873
Si Si7 0.772542 0.556202 0.923995
O O1 0.105187 0.234191 0.172768
O O2 0.165487 0.063940 0.171605
O O3 0.206548 0.047225 0.323181
O O4 0.986988 0.026906 0.055248
O O5 0.509623 0.951375 0.066026
O O6 0.748337 0.927925 0.316491
O O7 0.623751 0.865022 0.103733
O O8 0.320945 0.635764 0.418307
O O9 0.162329 0.618497 0.337965
O O10 0.197205 0.823895 0.334054
O O11 0.089680 0.662111 0.163669
O O12 0.098902 0.418273 0.974674
O O13 0.000000 0.326665 0.750000
O O14 0.250000 0.250000 0.000000
O O15 0.195760 0.450743 0.979623
#
# Coordination Sequence:
#
# PCOD9271107 Si02
#       7
#     8   8   8   8   8   8   8
#     4  11  24  36  57  87 122 157 200 248 302 374
#     4  10  22  36  57  84 120 156 197 242 299 371
#     4  10  22  37  59  85 123 152 199 249 305 367
#     4  10  20  36  57  84 116 160 193 240 301 362
#     4  10  23  37  55  84 117 159 189 248 306 355
#     4  10  21  38  61  91 123 162 203 263 314 369
#     4  11  22  35  60  88 116 156 201 245 313 361
#
# _framework density 18.678795000000001
#
# number of rings (size 3 to 8) (size 9 to 14) (size 15 to 20)
#    0.000    1.714    2.857    0.857    8.000    1.143 
#    0.000    0.000    0.000    3.429    7.429    0.000 
#    0.000    0.000    0.000    0.000    0.000    0.000 
#
# Total GULP energy -156060.397354 kJ/mol
# GULP energy per Si atom -5573.585620 kJ/mol
# Density = 1.863628 g / cm^3
# Si number density = 18.678795 Si / 1000 Ang^3
#
#
#
# Elastic Constant Matrix: (Units=GPa)
#
#
# Indices 1 2 3 4 5 6 
#
# 1 73.8875 8.6603 11.0449 -0.0001 -3.2405 0.0000
# 2 8.6603 81.3870 22.0372 -0.0002 -7.7187 -0.0001
# 3 11.0449 22.0372 68.9322 -0.0002 -4.3567 -0.0001
# 4 -0.0001 -0.0002 -0.0002 16.1532 -0.0001 0.6219
# 5 -3.2405 -7.7187 -4.3567 -0.0001 25.1376 -0.0001
# 6 0.0000 -0.0001 -0.0001 0.6219 -0.0001 22.1181
#
#
#
# Elastic Compliance Matrix: (Units=1/GPa)
#
#
# Indices 1 2 3 4 5 6 
#
# 1 0.013970 -0.000861 -0.001887 0.000000 0.001210 0.000000
# 2 -0.000861 0.013802 -0.004058 0.000000 0.003424 0.000000
# 3 -0.001887 -0.004058 0.016190 0.000000 0.001317 0.000000
# 4 0.000000 0.000000 0.000000 0.061974 0.000000 -0.001743
# 5 0.001210 0.003424 0.001317 0.000000 0.041216 0.000000
# 6 0.000000 0.000000 0.000000 -0.001743 0.000000 0.045261
#
#
# Mechanical properties :
#
#
# Convention : Reuss Voigt Hill
#
# Bulk Modulus (GPa) = 32.94837 34.18793 33.56815
# Shear Modulus (GPa) = 23.13295 24.84609 23.98952
#
# Velocity S-wave (km/s) = 3.52299 3.65111 3.58763
# Velocity P-wave (km/s) = 5.85033 6.00974 5.93057
#
# Compressibility (1/GPa) = 0.03035051
#
# Stress axis : x y z
#
# Youngs Moduli (GPa) = 71.58155 72.45271 61.76702
#
# Poissons Ratio (x) = 0.06238 0.11654
# Poissons Ratio (y) = 0.06163 0.25066
# Poissons Ratio (z) = 0.13505 0.29402
#
# Static dielectric constant tensor:
#      x y z
#    x 1.693380 0.000000 0.000060 
#    y 0.000000 1.655260 0.000000 
#    z 0.000060 0.000000 1.689750 
# 
# From -- ./inp_files/304280.got.cif
#   From: 2010.05.17/outbox.cif.g08.bks.cpg/sg15_153_cif.got.tgz:304280.got - 2010.06.03 18:47:42.
