data_PCOD9271679
_publ_section_title
;
Structure prediction by ZEFSAII (Michael W. Deem and Ramdas Pophale) SiO2 
 PCOD9271679
Probable space group: C 2/C
;
_chemical_formula_sum "Si O2"
_cell_formula_units_Z 60
_cell_length_a 20.343249
_cell_length_b 8.910813
_cell_length_c 25.557170
_cell_angle_alpha 90.000000
_cell_angle_beta 143.706879
_cell_angle_gamma 90.000000
_cell_volume 2742.273643
_symmetry_space_group_name_H-M "C 2/C"
_symmetry_group_IT_number 15
_symmetry_cell_setting 'monoclinic'
loop_
_space_group_symop_operation_xyz
x,y,z
-x,y,1/2-z
-x,-y,-z
x,-y,1/2+z
1/2+x,1/2+y,z
1/2-x,1/2+y,1/2-z
1/2-x,1/2-y,-z
1/2+x,1/2-y,1/2+z
loop_
_atom_site_type_symbol
_atom_site_label
_atom_site_fract_x
_atom_site_fract_y
_atom_site_fract_z
Si Si1 0.545276 0.053436 0.837762
Si Si2 0.500000 0.524213 0.750000
Si Si3 0.239997 0.202251 0.566874
Si Si4 0.310321 0.891597 0.222988
Si Si5 0.971510 0.948986 0.615061
Si Si6 0.864614 0.724516 0.042481
Si Si7 0.258262 0.545886 0.619296
Si Si8 0.776403 0.078070 0.244324
O O1 0.500000 0.029872 0.750000
O O2 0.567929 0.898090 0.881450
O O3 0.661283 0.142717 0.907138
O O4 0.442319 0.130730 0.801315
O O5 0.485786 0.431207 0.687285
O O6 0.382711 0.605511 0.685222
O O7 0.259446 0.108381 0.632710
O O8 0.121045 0.158462 0.468294
O O9 0.252023 0.378052 0.589434
O O10 0.256029 0.749741 0.216644
O O11 0.285731 0.031783 0.243424
O O12 0.091086 0.937609 0.665293
O O13 0.926685 0.118398 0.579120
O O14 0.750000 0.750000 0.000000
O O15 0.830870 0.651535 0.965377
O O16 0.245387 0.520426 0.672982
#
# Coordination Sequence:
#
# PCOD9271679 Si02
#       8
#     8   4   8   8   8   8   8   8
#     4  10  23  38  66  95 129 163 213 272 325 380
#     4  10  20  36  60  92 128 168 206 258 320 376
#     4  10  22  42  67  99 130 166 214 273 326 386
#     4  10  24  45  67  95 127 172 224 263 323 386
#     4  11  24  40  64  95 133 169 214 266 324 385
#     4  12  23  38  59 101 130 166 212 266 334 376
#     4  10  23  39  65  91 136 168 214 264 324 390
#     4  10  25  45  66  94 125 179 219 262 325 386
#
# _framework density 21.879653999999999
#
# number of rings (size 3 to 8) (size 9 to 14) (size 15 to 20)
#    0.000    1.600    2.667    0.000   11.200    2.667 
#    0.000    0.667    0.000    0.000    0.000    0.000 
#    0.000    0.000    0.000    0.000    0.000    0.000 
#
# Total GULP energy -167830.945668 kJ/mol
# GULP energy per Si atom -5594.364856 kJ/mol
# Density = 2.182986 g / cm^3
# Si number density = 21.879654 Si / 1000 Ang^3
#
#
#
# Elastic Constant Matrix: (Units=GPa)
#
#
# Indices 1 2 3 4 5 6 
#
# 1 82.6873 19.1131 29.7262 0.0000 -6.2834 0.0000
# 2 19.1131 54.1050 27.7547 0.0000 -14.7874 0.0000
# 3 29.7262 27.7547 114.5866 0.0000 1.3239 0.0000
# 4 0.0000 0.0000 0.0000 26.5254 0.0000 5.0900
# 5 -6.2834 -14.7874 1.3239 0.0000 13.8605 0.0000
# 6 0.0000 0.0000 0.0000 5.0900 0.0000 33.8482
#
#
#
# Elastic Compliance Matrix: (Units=1/GPa)
#
#
# Indices 1 2 3 4 5 6 
#
# 1 0.014066 -0.002131 -0.003184 0.000000 0.004407 0.000000
# 2 -0.002131 0.032689 -0.007765 0.000000 0.034651 0.000000
# 3 -0.003184 -0.007765 0.011559 0.000000 -0.010832 0.000000
# 4 0.000000 0.000000 0.000000 0.038820 0.000000 -0.005838
# 5 0.004407 0.034651 -0.010832 0.000000 0.112148 0.000000
# 6 0.000000 0.000000 0.000000 -0.005838 0.000000 0.030422
#
#
# Mechanical properties :
#
#
# Convention : Reuss Voigt Hill
#
# Bulk Modulus (GPa) = 31.10079 44.95187 38.02633
# Shear Modulus (GPa) = 18.07784 26.49915 22.28850
#
# Velocity S-wave (km/s) = 2.87756 3.48391 3.19515
# Velocity P-wave (km/s) = 5.02850 6.06409 5.57041
#
# Compressibility (1/GPa) = 0.03215353
#
# Stress axis : x y z
#
# Youngs Moduli (GPa) = 71.09444 30.59104 86.51299
#
# Poissons Ratio (x) = 0.06520 0.27543
# Poissons Ratio (y) = 0.15153 0.67180
# Poissons Ratio (z) = 0.22634 0.23755
#
# Static dielectric constant tensor:
#      x y z
#    x 1.781020 0.000000 -0.018260 
#    y 0.000000 1.842530 0.000000 
#    z -0.018260 0.000000 1.800670 
# 
# From -- ./inp_files/318522.got.cif
#   From: 2010.05.17/outbox.cif.g08.bks.cpg/sg15_160_cif.got.tgz:318522.got - 2010.06.03 18:47:42.
