data_PCOD9271964
_publ_section_title
;
Structure prediction by ZEFSAII (Michael W. Deem and Ramdas Pophale) SiO2 
 PCOD9271964
Probable space group: C 2/C
;
_chemical_formula_sum "Si O2"
_cell_formula_units_Z 56
_cell_length_a 8.170504
_cell_length_b 18.467714
_cell_length_c 18.592667
_cell_angle_alpha 90.000000
_cell_angle_beta 96.570963
_cell_angle_gamma 90.000000
_cell_volume 2787.028032
_symmetry_space_group_name_H-M "C 2/C"
_symmetry_group_IT_number 15
_symmetry_cell_setting 'monoclinic'
loop_
_space_group_symop_operation_xyz
x,y,z
-x,y,1/2-z
-x,-y,-z
x,-y,1/2+z
1/2+x,1/2+y,z
1/2-x,1/2+y,1/2-z
1/2-x,1/2-y,-z
1/2+x,1/2-y,1/2+z
loop_
_atom_site_type_symbol
_atom_site_label
_atom_site_fract_x
_atom_site_fract_y
_atom_site_fract_z
Si Si1 0.562206 0.762506 0.179701
Si Si2 0.284874 0.084445 0.956958
Si Si3 0.345565 0.624089 0.392706
Si Si4 0.167063 0.114472 0.798856
Si Si5 0.325201 0.001212 0.209612
Si Si6 0.369360 0.875565 0.093028
Si Si7 0.134512 0.057517 0.475081
O O1 0.500000 0.727168 0.250000
O O2 0.657395 0.705168 0.136059
O O3 0.685362 0.828365 0.206027
O O4 0.407263 0.798740 0.131208
O O5 0.162468 0.106438 0.885165
O O6 0.465771 0.109915 0.944617
O O7 0.277865 0.997166 0.959166
O O8 0.231547 0.115751 0.031381
O O9 0.260898 0.567047 0.335356
O O10 0.536399 0.600207 0.409872
O O11 0.219737 0.037795 0.766592
O O12 0.000000 0.136713 0.750000
O O13 0.500000 0.024212 0.250000
O O14 0.356821 0.937306 0.153262
O O15 0.209382 0.887309 0.036335
O O16 0.000000 0.000000 0.500000
#
# Coordination Sequence:
#
# PCOD9271964 Si02
#       7
#     8   8   8   8   8   8   8
#     4  11  24  45  61  87 134 177 213 266 336 394
#     4  10  21  38  64  96 127 158 216 271 324 375
#     4  11  26  39  62  98 135 161 211 283 321 376
#     4  11  23  38  70  93 122 170 227 263 321 395
#     4  12  21  42  66  95 125 175 222 258 318 396
#     4  11  20  39  69  87 122 172 217 255 324 398
#     4  10  20  36  62  94 126 159 210 276 314 378
#
# _framework density 20.093087000000001
#
# number of rings (size 3 to 8) (size 9 to 14) (size 15 to 20)
#    0.000    1.143    7.143    1.286    2.000    5.143 
#    0.000    1.429    0.000    0.000    0.000    0.000 
#    0.000    0.000    0.000    0.000    0.000    0.000 
#
# Total GULP energy -156291.066005 kJ/mol
# GULP energy per Si atom -5581.823786 kJ/mol
# Density = 2.004735 g / cm^3
# Si number density = 20.093087 Si / 1000 Ang^3
#
#
#
# Elastic Constant Matrix: (Units=GPa)
#
#
# Indices 1 2 3 4 5 6 
#
# 1 52.3481 11.4131 35.5499 0.0000 23.9818 0.0000
# 2 11.4131 69.5911 40.5190 0.0000 8.9772 0.0000
# 3 35.5499 40.5190 114.4334 0.0000 22.7748 0.0000
# 4 0.0000 0.0000 0.0000 24.9700 0.0000 2.9591
# 5 23.9818 8.9772 22.7748 0.0000 41.0819 0.0000
# 6 0.0000 0.0000 0.0000 2.9591 0.0000 13.9256
#
#
#
# Elastic Compliance Matrix: (Units=1/GPa)
#
#
# Indices 1 2 3 4 5 6 
#
# 1 0.029907 0.000865 -0.006839 0.000000 -0.013856 0.000000
# 2 0.000865 0.018134 -0.006520 0.000000 -0.000853 0.000000
# 3 -0.006839 -0.006520 0.013594 0.000000 -0.002119 0.000000
# 4 0.000000 0.000000 0.000000 0.041083 0.000000 -0.008730
# 5 -0.013856 -0.000853 -0.002119 0.000000 0.033791 0.000000
# 6 0.000000 0.000000 0.000000 -0.008730 0.000000 0.073665
#
#
# Mechanical properties :
#
#
# Convention : Reuss Voigt Hill
#
# Bulk Modulus (GPa) = 27.28861 45.70405 36.49633
# Shear Modulus (GPa) = 20.21206 25.92153 23.06680
#
# Velocity S-wave (km/s) = 3.17507 3.59565 3.39189
# Velocity P-wave (km/s) = 5.20115 6.32723 5.79162
#
# Compressibility (1/GPa) = 0.03664532
#
# Stress axis : x y z
#
# Youngs Moduli (GPa) = 33.43748 55.14502 73.56359
#
# Poissons Ratio (x) = -0.04769 0.50313
# Poissons Ratio (y) = -0.02892 0.47962
# Poissons Ratio (z) = 0.22869 0.35954
#
# Static dielectric constant tensor:
#      x y z
#    x 1.747000 0.000000 -0.012750 
#    y 0.000000 1.705210 0.000000 
#    z -0.012750 0.000000 1.755670 
# 
# From -- ./inp_files/191697.got.cif
#   From: 2010.05.17/outbox.cif.g08.bks.cpg/sg15_96_cif.got.tgz:191697.got - 2010.06.03 18:47:42.
