data_PCOD9271447
_publ_section_title
;
Structure prediction by ZEFSAII (Michael W. Deem and Ramdas Pophale) SiO2 
 PCOD9271447
Probable space group: C 2/C
;
_chemical_formula_sum "Si O2"
_cell_formula_units_Z 60
_cell_length_a 26.430050
_cell_length_b 21.811310
_cell_length_c 13.542662
_cell_angle_alpha 90.000000
_cell_angle_beta 157.308670
_cell_angle_gamma 90.000000
_cell_volume 3011.675785
_symmetry_space_group_name_H-M "C 2/C"
_symmetry_group_IT_number 15
_symmetry_cell_setting 'monoclinic'
loop_
_space_group_symop_operation_xyz
x,y,z
-x,y,1/2-z
-x,-y,-z
x,-y,1/2+z
1/2+x,1/2+y,z
1/2-x,1/2+y,1/2-z
1/2-x,1/2-y,-z
1/2+x,1/2-y,1/2+z
loop_
_atom_site_type_symbol
_atom_site_label
_atom_site_fract_x
_atom_site_fract_y
_atom_site_fract_z
Si Si1 0.000000 0.963534 0.250000
Si Si2 0.881255 0.180817 0.188530
Si Si3 0.872810 0.740232 0.147650
Si Si4 0.522397 0.068588 0.504684
Si Si5 0.428673 0.807265 0.333294
Si Si6 0.191726 0.926501 0.078356
Si Si7 0.955033 0.866540 0.330010
Si Si8 0.282092 0.115449 0.948954
O O1 0.015415 0.919552 0.372203
O O2 0.118509 0.009071 0.437548
O O3 0.943696 0.249070 0.286015
O O4 0.947782 0.155050 0.408029
O O5 0.726154 0.188892 0.927190
O O6 0.887964 0.128783 0.117300
O O7 0.914588 0.807623 0.190545
O O8 0.993659 0.714272 0.429038
O O9 0.750000 0.750000 0.000000
O O10 0.823881 0.684849 0.991808
O O11 0.519082 0.122817 0.582629
O O12 0.666210 0.071918 0.716407
O O13 0.500000 0.000000 0.500000
O O14 0.412426 0.083999 0.225141
O O15 0.214820 0.914813 0.234891
O O16 0.822019 0.884417 0.148759
#
# Coordination Sequence:
#
# PCOD9271447 Si02
#       8
#     4   8   8   8   8   8   8   8
#     4  12  26  40  54  90 124 160 208 250 310 392
#     4   9  18  36  56  82 116 153 197 247 299 347
#     4   8  16  34  59  85 111 149 197 249 307 352
#     4  10  20  36  59  88 117 160 196 249 313 364
#     4   8  16  32  56  84 113 146 199 244 294 359
#     4  11  23  36  57  88 119 157 204 243 296 376
#     4  10  21  39  59  84 119 159 196 255 308 368
#     4  10  20  38  62  87 116 155 204 256 304 366
#
# _framework density 19.922463
#
# number of rings (size 3 to 8) (size 9 to 14) (size 15 to 20)
#    0.000    2.400    0.000    2.000    0.000    4.267 
#   14.400    0.000    0.000    0.000   24.267    0.000 
#    0.000    0.000    0.000    0.000    0.000    0.000 
#
# Total GULP energy -167101.761949 kJ/mol
# GULP energy per Si atom -5570.058732 kJ/mol
# Density = 1.987712 g / cm^3
# Si number density = 19.922463 Si / 1000 Ang^3
#
#
#
# Elastic Constant Matrix: (Units=GPa)
#
#
# Indices 1 2 3 4 5 6 
#
# 1 55.6009 35.9202 17.3695 0.0000 4.9037 0.0000
# 2 35.9202 159.4871 25.7265 0.0000 -12.5029 0.0000
# 3 17.3695 25.7265 84.0181 0.0000 4.9677 0.0000
# 4 0.0000 0.0000 0.0000 27.7077 0.0000 5.4108
# 5 4.9037 -12.5029 4.9677 0.0000 18.6444 0.0000
# 6 0.0000 0.0000 0.0000 5.4108 0.0000 11.3945
#
#
#
# Elastic Compliance Matrix: (Units=1/GPa)
#
#
# Indices 1 2 3 4 5 6 
#
# 1 0.023151 -0.005515 -0.002559 0.000000 -0.009106 0.000000
# 2 -0.005515 0.008411 -0.001884 0.000000 0.007593 0.000000
# 3 -0.002559 -0.001884 0.013252 0.000000 -0.004122 0.000000
# 4 0.000000 0.000000 0.000000 0.039780 0.000000 -0.018890
# 5 -0.009106 0.007593 -0.004122 0.000000 0.062221 0.000000
# 6 0.000000 0.000000 0.000000 -0.018890 0.000000 0.096731
#
#
# Mechanical properties :
#
#
# Convention : Reuss Voigt Hill
#
# Bulk Modulus (GPa) = 40.16522 50.79318 45.47920
# Shear Modulus (GPa) = 18.39843 26.22196 22.31020
#
# Velocity S-wave (km/s) = 3.04221 3.63188 3.35005
# Velocity P-wave (km/s) = 5.70479 6.56797 6.15154
#
# Compressibility (1/GPa) = 0.02489716
#
# Stress axis : x y z
#
# Youngs Moduli (GPa) = 43.19509 118.88501 75.46075
#
# Poissons Ratio (x) = 0.65567 0.19310
# Poissons Ratio (y) = 0.23823 0.14220
# Poissons Ratio (z) = 0.11053 0.22403
#
# Static dielectric constant tensor:
#      x y z
#    x 1.684650 0.000000 0.026510 
#    y 0.000000 1.781800 0.000000 
#    z 0.026510 0.000000 1.683660 
# 
# From -- ./inp_files/183094.got.cif
#   From: 2010.05.17/outbox.cif.g08.bks.cpg/sg15_92_cif.got.tgz:183094.got - 2010.06.03 18:47:42.
