data_PCOD9271505
_publ_section_title
;
Structure prediction by ZEFSAII (Michael W. Deem and Ramdas Pophale) SiO2 
 PCOD9271505
Probable space group: C 2/C
;
_chemical_formula_sum "Si O2"
_cell_formula_units_Z 48
_cell_length_a 19.801546
_cell_length_b 17.983185
_cell_length_c 17.320008
_cell_angle_alpha 90.000000
_cell_angle_beta 22.604067
_cell_angle_gamma 90.000000
_cell_volume 2370.570897
_symmetry_space_group_name_H-M "C 2/C"
_symmetry_group_IT_number 15
_symmetry_cell_setting 'monoclinic'
loop_
_space_group_symop_operation_xyz
x,y,z
-x,y,1/2-z
-x,-y,-z
x,-y,1/2+z
1/2+x,1/2+y,z
1/2-x,1/2+y,1/2-z
1/2-x,1/2-y,-z
1/2+x,1/2-y,1/2+z
loop_
_atom_site_type_symbol
_atom_site_label
_atom_site_fract_x
_atom_site_fract_y
_atom_site_fract_z
Si Si1 0.939098 0.698004 0.969999
Si Si2 0.616119 0.916572 0.550074
Si Si3 0.145190 0.330502 0.766517
Si Si4 0.963267 0.180577 0.698161
Si Si5 0.311098 0.084557 0.991135
Si Si6 0.292998 0.685967 0.519270
O O1 0.895808 0.699686 0.104940
O O2 0.929112 0.775168 0.933026
O O3 0.808491 0.640203 0.066060
O O4 0.133482 0.670254 0.746073
O O5 0.500000 0.902769 0.750000
O O6 0.479122 0.899839 0.625411
O O7 0.787943 0.865159 0.362749
O O8 0.688714 0.000331 0.481483
O O9 0.082574 0.265302 0.774866
O O10 0.353636 0.342744 0.536003
O O11 0.000000 0.173184 0.750000
O O12 0.500000 0.096444 0.750000
O O13 0.183146 0.113477 0.058823
O O14 0.250000 0.750000 0.500000
#
# Coordination Sequence:
#
# PCOD9271505 Si02
#       6
#     8   8   8   8   8   8
#     4  10  20  36  59  93 122 153 199 252 313 367
#     4  11  22  40  63  85 122 161 205 256 302 368
#     4  12  23  36  62  91 123 156 200 262 310 361
#     4  12  23  39  59  90 113 158 211 249 302 361
#     4   8  18  37  62  84 116 164 201 241 307 374
#     4   9  17  35  62  87 119 157 205 247 293 371
#
# _framework density 20.248287999999999
#
# number of rings (size 3 to 8) (size 9 to 14) (size 15 to 20)
#    0.000    1.667    3.333    3.500    0.000    0.667 
#    0.000    4.167    0.000    0.000    0.000    0.000 
#    0.000    0.000    0.000    0.000    0.000    0.000 
#
# Total GULP energy -133781.896212 kJ/mol
# GULP energy per Si atom -5574.245675 kJ/mol
# Density = 2.020220 g / cm^3
# Si number density = 20.248288 Si / 1000 Ang^3
#
#
#
# Elastic Constant Matrix: (Units=GPa)
#
#
# Indices 1 2 3 4 5 6 
#
# 1 54.2108 18.4220 31.0713 -0.0005 -11.0132 -0.0015
# 2 18.4220 93.1120 15.0584 -0.0119 -16.2104 0.0056
# 3 31.0713 15.0584 109.5371 -0.0004 -22.1177 -0.0008
# 4 -0.0005 -0.0119 -0.0004 13.8146 0.0026 -3.8271
# 5 -11.0132 -16.2104 -22.1177 0.0026 22.9550 -0.0010
# 6 -0.0015 0.0056 -0.0008 -3.8271 -0.0010 23.0643
#
#
#
# Elastic Compliance Matrix: (Units=1/GPa)
#
#
# Indices 1 2 3 4 5 6 
#
# 1 0.023386 -0.003086 -0.005443 -0.000002 0.003797 0.000002
# 2 -0.003086 0.012653 0.000796 0.000009 0.008222 -0.000001
# 3 -0.005443 0.000796 0.012602 -0.000001 0.010093 0.000000
# 4 -0.000002 0.000009 -0.000001 0.075875 -0.000004 0.012590
# 5 0.003797 0.008222 0.010093 -0.000004 0.060916 0.000001
# 6 0.000002 -0.000001 0.000000 0.012590 0.000001 0.045446
#
#
# Mechanical properties :
#
#
# Convention : Reuss Voigt Hill
#
# Bulk Modulus (GPa) = 30.14263 42.88481 36.51372
# Shear Modulus (GPa) = 19.42495 24.78734 22.10614
#
# Velocity S-wave (km/s) = 3.10068 3.50261 3.30775
# Velocity P-wave (km/s) = 5.26667 6.13051 5.71493
#
# Compressibility (1/GPa) = 0.03317560
#
# Stress axis : x y z
#
# Youngs Moduli (GPa) = 42.76066 79.03331 79.35389
#
# Poissons Ratio (x) = 0.24387 0.43191
# Poissons Ratio (y) = 0.13194 -0.06316
# Poissons Ratio (z) = 0.23274 -0.06291
#
# Static dielectric constant tensor:
#      x y z
#    x 1.745280 0.000000 -0.047880 
#    y 0.000000 1.767380 0.000010 
#    z -0.047880 0.000010 1.765230 
# 
# From -- ./inp_files/163202.got.cif
#   From: 2010.05.17/outbox.cif.g08.bks.cpg/sg15_82_cif.got.tgz:163202.got - 2010.06.03 18:47:42.
