data_PCOD9271763
_publ_section_title
;
Structure prediction by ZEFSAII (Michael W. Deem and Ramdas Pophale) SiO2 
 PCOD9271763
Probable space group: C 2/C
;
_chemical_formula_sum "Si O2"
_cell_formula_units_Z 60
_cell_length_a 24.712580
_cell_length_b 11.769582
_cell_length_c 9.579843
_cell_angle_alpha 90.000000
_cell_angle_beta 60.442186
_cell_angle_gamma 90.000000
_cell_volume 2423.740213
_symmetry_space_group_name_H-M "C 2/C"
_symmetry_group_IT_number 15
_symmetry_cell_setting 'monoclinic'
loop_
_space_group_symop_operation_xyz
x,y,z
-x,y,1/2-z
-x,-y,-z
x,-y,1/2+z
1/2+x,1/2+y,z
1/2-x,1/2+y,1/2-z
1/2-x,1/2-y,-z
1/2+x,1/2-y,1/2+z
loop_
_atom_site_type_symbol
_atom_site_label
_atom_site_fract_x
_atom_site_fract_y
_atom_site_fract_z
Si Si1 0.393016 0.022785 0.249267
Si Si2 0.564483 0.781970 0.344595
Si Si3 0.334077 0.278046 0.020242
Si Si4 0.189920 0.526902 0.397516
Si Si5 0.000000 0.926817 0.250000
Si Si6 0.114652 0.910826 0.956662
Si Si7 0.064171 0.769847 0.394733
Si Si8 0.808356 0.999733 0.900801
O O1 0.422996 0.143731 0.180863
O O2 0.435539 0.917561 0.150503
O O3 0.370709 0.006273 0.435559
O O4 0.330217 0.010225 0.235450
O O5 0.612288 0.751737 0.160835
O O6 0.591965 0.715564 0.444618
O O7 0.494016 0.739339 0.425348
O O8 0.297633 0.161628 0.095590
O O9 0.297463 0.384812 0.006722
O O10 0.372426 0.305229 0.110933
O O11 0.248382 0.463454 0.389341
O O12 0.040923 0.851275 0.302613
O O13 0.946083 0.981813 0.412977
O O14 0.141971 0.961440 0.779571
O O15 0.164586 0.915511 0.017418
#
# Coordination Sequence:
#
# PCOD9271763 Si02
#       8
#     8   8   8   8   4   8   8   8
#     4  10  21  36  62  90 122 162 196 242 310 371
#     4   9  19  39  57  90 125 157 197 250 302 365
#     4   9  20  37  61  85 118 161 210 247 299 361
#     4  10  21  38  60  89 120 157 206 255 295 358
#     4  10  24  42  58  92 128 154 198 266 306 364
#     4  10  24  40  63  86 121 158 205 254 303 360
#     4  10  20  36  61  89 125 157 197 247 313 371
#     4  11  22  42  62  86 118 164 208 252 302 353
#
# _framework density 24.755127000000002
#
# number of rings (size 3 to 8) (size 9 to 14) (size 15 to 20)
#    0.000    2.133    0.000    2.000    5.600    0.533 
#    7.200    0.667    0.000    0.000    0.000    0.000 
#    0.000    0.000    0.000    0.000    0.000    0.000 
#
# Total GULP energy -167823.892267 kJ/mol
# GULP energy per Si atom -5594.129742 kJ/mol
# Density = 2.469878 g / cm^3
# Si number density = 24.755127 Si / 1000 Ang^3
#
#
#
# Elastic Constant Matrix: (Units=GPa)
#
#
# Indices 1 2 3 4 5 6 
#
# 1 83.5252 -1.0143 -0.7172 0.0000 26.4911 0.0000
# 2 -1.0143 47.1834 0.9292 0.0000 -4.2987 0.0000
# 3 -0.7172 0.9292 88.4791 0.0000 10.6160 0.0000
# 4 0.0000 0.0000 0.0000 11.6817 0.0000 2.4371
# 5 26.4911 -4.2987 10.6160 0.0000 35.4467 0.0000
# 6 0.0000 0.0000 0.0000 2.4371 0.0000 29.7271
#
#
#
# Elastic Compliance Matrix: (Units=1/GPa)
#
#
# Indices 1 2 3 4 5 6 
#
# 1 0.015943 -0.000829 0.001638 0.000000 -0.012506 0.000000
# 2 -0.000829 0.021500 -0.000643 0.000000 0.003419 0.000000
# 3 0.001638 -0.000643 0.011906 0.000000 -0.004868 0.000000
# 4 0.000000 0.000000 0.000000 0.087094 0.000000 -0.007140
# 5 -0.012506 0.003419 -0.004868 0.000000 0.039431 0.000000
# 6 0.000000 0.000000 0.000000 -0.007140 0.000000 0.034225
#
#
# Mechanical properties :
#
#
# Convention : Reuss Voigt Hill
#
# Bulk Modulus (GPa) = 20.12761 24.17588 22.15175
# Shear Modulus (GPa) = 22.09202 30.03708 26.06455
#
# Velocity S-wave (km/s) = 2.99058 3.48712 3.24835
# Velocity P-wave (km/s) = 4.48030 5.09908 4.79967
#
# Compressibility (1/GPa) = 0.04968301
#
# Stress axis : x y z
#
# Youngs Moduli (GPa) = 62.72362 46.51104 83.98951
#
# Poissons Ratio (x) = 0.03855 -0.13761
# Poissons Ratio (y) = 0.05199 0.05399
# Poissons Ratio (z) = -0.10277 0.02990
#
# Static dielectric constant tensor:
#      x y z
#    x 1.943700 0.000000 -0.026300 
#    y 0.000000 1.959560 0.000000 
#    z -0.026300 0.000000 1.979910 
# 
# From -- ./inp_files/61545.got.cif
#   From: 2010.05.17/outbox.cif.g08.bks.cpg/sg15_31_cif.got.tgz:61545.got - 2010.06.03 18:47:42.
