data_PCOD9271158
_publ_section_title
;
Structure prediction by ZEFSAII (Michael W. Deem and Ramdas Pophale) SiO2 
 PCOD9271158
Probable space group: C 2/C
;
_chemical_formula_sum "Si O2"
_cell_formula_units_Z 48
_cell_length_a 10.749283
_cell_length_b 29.971512
_cell_length_c 17.642322
_cell_angle_alpha 90.000000
_cell_angle_beta 26.341940
_cell_angle_gamma 90.000000
_cell_volume 2522.086837
_symmetry_space_group_name_H-M "C 2/C"
_symmetry_group_IT_number 15
_symmetry_cell_setting 'monoclinic'
loop_
_space_group_symop_operation_xyz
x,y,z
-x,y,1/2-z
-x,-y,-z
x,-y,1/2+z
1/2+x,1/2+y,z
1/2-x,1/2+y,1/2-z
1/2-x,1/2-y,-z
1/2+x,1/2-y,1/2+z
loop_
_atom_site_type_symbol
_atom_site_label
_atom_site_fract_x
_atom_site_fract_y
_atom_site_fract_z
Si Si1 0.957693 0.217483 0.100662
Si Si2 0.607900 0.878369 0.347910
Si Si3 0.113884 0.693159 0.433457
Si Si4 0.000000 0.663755 0.750000
Si Si5 0.000000 0.333770 0.750000
Si Si6 0.322003 0.044586 0.591696
Si Si7 0.753181 0.867862 0.465478
O O1 0.859191 0.210200 0.242212
O O2 0.721264 0.196317 0.175174
O O3 0.002771 0.268250 0.049466
O O4 0.246778 0.193085 0.921638
O O5 0.364509 0.850586 0.524470
O O6 0.603693 0.865958 0.263081
O O7 0.607631 0.930138 0.368102
O O8 0.911415 0.864947 0.216976
O O9 0.881275 0.675282 0.501192
O O10 0.842533 0.364480 0.896061
O O11 0.360263 0.086107 0.510635
O O12 0.000000 0.032345 0.750000
O O13 0.500000 0.000000 0.500000
#
# Coordination Sequence:
#
# PCOD9271158 Si02
#       7
#     8   8   8   4   4   8   8
#     4  11  24  35  59  84 122 159 203 250 286 345
#     4  10  21  40  62  84 124 156 197 239 302 353
#     4  10  22  38  58  87 114 160 208 248 292 335
#     4  12  24  42  57  84 126 164 193 244 298 346
#     4  10  20  36  57  90 114 156 203 240 290 332
#     4   9  19  40  64  91 114 150 190 239 294 356
#     4   9  19  38  63  86 117 154 195 247 290 353
#
# _framework density 19.031858
#
# number of rings (size 3 to 8) (size 9 to 14) (size 15 to 20)
#    0.000    2.000    1.667    2.500    2.333    4.667 
#    9.000    0.833    0.000    4.000    0.000    0.000 
#    0.000    0.000    0.000    0.000    0.000    0.000 
#
# Total GULP energy -133702.956913 kJ/mol
# GULP energy per Si atom -5570.956538 kJ/mol
# Density = 1.898854 g / cm^3
# Si number density = 19.031858 Si / 1000 Ang^3
#
#
#
# Elastic Constant Matrix: (Units=GPa)
#
#
# Indices 1 2 3 4 5 6 
#
# 1 87.6201 50.6301 27.3167 0.0001 8.2906 -0.0001
# 2 50.6301 126.7816 61.5431 0.0000 -6.6292 0.0000
# 3 27.3167 61.5431 118.7197 0.0003 13.2518 -0.0002
# 4 0.0001 0.0000 0.0003 29.9335 -0.0002 -5.2464
# 5 8.2906 -6.6292 13.2518 -0.0002 34.2633 0.0001
# 6 -0.0001 0.0000 -0.0002 -5.2464 0.0001 22.6953
#
#
#
# Elastic Compliance Matrix: (Units=1/GPa)
#
#
# Indices 1 2 3 4 5 6 
#
# 1 0.015676 -0.006779 0.000499 0.000000 -0.005298 0.000000
# 2 -0.006779 0.014127 -0.006534 0.000000 0.006901 0.000000
# 3 0.000499 -0.006534 0.012385 0.000000 -0.006175 0.000000
# 4 0.000000 0.000000 0.000000 0.034818 0.000000 0.008049
# 5 -0.005298 0.006901 -0.006175 0.000000 0.034191 0.000000
# 6 0.000000 0.000000 0.000000 0.008049 0.000000 0.045923
#
#
# Mechanical properties :
#
#
# Convention : Reuss Voigt Hill
#
# Bulk Modulus (GPa) = 60.38930 68.01124 64.20027
# Shear Modulus (GPa) = 26.55777 30.28716 28.42246
#
# Velocity S-wave (km/s) = 3.73961 3.99355 3.86867
# Velocity P-wave (km/s) = 7.10252 7.55498 7.33224
#
# Compressibility (1/GPa) = 0.01655923
#
# Stress axis : x y z
#
# Youngs Moduli (GPa) = 63.79178 70.78417 80.74390
#
# Poissons Ratio (x) = 0.47986 -0.04027
# Poissons Ratio (y) = 0.43246 0.52758
# Poissons Ratio (z) = -0.03181 0.46250
#
# Static dielectric constant tensor:
#      x y z
#    x 1.719640 0.000000 0.018370 
#    y 0.000000 1.639550 0.000000 
#    z 0.018370 0.000000 1.736830 
# 
# From -- ./inp_files/201104.got.cif
#   From: 2010.05.17/outbox.cif.g08.bks.cpg/sg15_101_cif.got.tgz:201104.got - 2010.06.03 18:47:42.
