data_PCOD9271120
_publ_section_title
;
Structure prediction by ZEFSAII (Michael W. Deem and Ramdas Pophale) SiO2 
 PCOD9271120
Probable space group: C 2/C
;
_chemical_formula_sum "Si O2"
_cell_formula_units_Z 64
_cell_length_a 20.321769
_cell_length_b 26.954452
_cell_length_c 14.305766
_cell_angle_alpha 90.000000
_cell_angle_beta 158.125830
_cell_angle_gamma 90.000000
_cell_volume 2919.512810
_symmetry_space_group_name_H-M "C 2/C"
_symmetry_group_IT_number 15
_symmetry_cell_setting 'monoclinic'
loop_
_space_group_symop_operation_xyz
x,y,z
-x,y,1/2-z
-x,-y,-z
x,-y,1/2+z
1/2+x,1/2+y,z
1/2-x,1/2+y,1/2-z
1/2-x,1/2-y,-z
1/2+x,1/2-y,1/2+z
loop_
_atom_site_type_symbol
_atom_site_label
_atom_site_fract_x
_atom_site_fract_y
_atom_site_fract_z
Si Si1 0.412801 0.726305 0.421429
Si Si2 0.289070 0.549675 0.180584
Si Si3 0.688729 0.502231 0.495310
Si Si4 0.811769 0.732357 0.979632
Si Si5 0.681240 0.685107 0.529088
Si Si6 0.151584 0.912939 0.103288
Si Si7 0.450758 0.035785 0.076714
Si Si8 0.810090 0.344780 0.999631
O O1 0.621912 0.715434 0.688438
O O2 0.367900 0.728605 0.472702
O O3 0.328516 0.777486 0.265816
O O4 0.314108 0.684926 0.233111
O O5 0.492713 0.567449 0.460746
O O6 0.180590 0.599909 0.028142
O O7 0.292668 0.524623 0.083586
O O8 0.187666 0.510786 0.112393
O O9 0.668295 0.547972 0.539661
O O10 0.871152 0.472652 0.747152
O O11 0.500000 0.474160 0.250000
O O12 0.750000 0.750000 0.000000
O O13 0.000000 0.704616 0.250000
O O14 0.626604 0.641365 0.528205
O O15 0.753635 0.657168 0.532752
O O16 0.500000 0.709633 0.250000
O O17 0.338722 0.916709 0.400411
O O18 0.500000 0.039449 0.250000
O O19 0.000000 0.320682 0.250000
#
# Coordination Sequence:
#
# PCOD9271120 Si02
#       8
#     8   8   8   8   8   8   8   8
#     4  11  22  37  63  98 122 167 210 253 309 370
#     4  10  20  36  57  85 119 160 200 255 319 382
#     4   9  17  34  57  84 112 151 199 244 313 385
#     4   9  20  41  64  85 114 159 219 260 297 354
#     4  12  22  38  59  91 132 163 199 256 320 386
#     4  11  20  36  57  83 115 162 210 246 317 382
#     4  10  21  36  58  83 115 155 212 263 315 364
#     4  12  22  36  58  92 136 163 197 251 320 390
#
# _framework density 21.921465999999999
#
# number of rings (size 3 to 8) (size 9 to 14) (size 15 to 20)
#    0.000    1.500    2.500    4.500    0.000    0.000 
#    0.000    1.875    0.000    0.750    0.000    2.625 
#    0.000    0.000    0.000    0.000    0.000    0.000 
#
# Total GULP energy -178324.962408 kJ/mol
# GULP energy per Si atom -5572.655075 kJ/mol
# Density = 2.187157 g / cm^3
# Si number density = 21.921466 Si / 1000 Ang^3
#
#
#
# Elastic Constant Matrix: (Units=GPa)
#
#
# Indices 1 2 3 4 5 6 
#
# 1 93.0237 16.9574 29.4342 0.0000 0.7275 0.0000
# 2 16.9574 51.1757 40.7170 0.0000 -5.4210 0.0000
# 3 29.4342 40.7170 199.6424 0.0000 20.1502 0.0000
# 4 0.0000 0.0000 0.0000 35.3178 0.0000 9.9498
# 5 0.7275 -5.4210 20.1502 0.0000 29.8106 0.0000
# 6 0.0000 0.0000 0.0000 9.9498 0.0000 7.6432
#
#
#
# Elastic Compliance Matrix: (Units=1/GPa)
#
#
# Indices 1 2 3 4 5 6 
#
# 1 0.011644 -0.002994 -0.001097 0.000000 -0.000087 0.000000
# 2 -0.002994 0.026022 -0.005742 0.000000 0.008687 0.000000
# 3 -0.001097 -0.005742 0.006916 0.000000 -0.005693 0.000000
# 4 0.000000 0.000000 0.000000 0.044712 0.000000 -0.058205
# 5 -0.000087 0.008687 -0.005693 0.000000 0.038975 0.000000
# 6 0.000000 0.000000 0.000000 -0.058205 0.000000 0.206604
#
#
# Mechanical properties :
#
#
# Convention : Reuss Voigt Hill
#
# Bulk Modulus (GPa) = 40.13843 57.56210 48.85026
# Shear Modulus (GPa) = 13.77998 31.66987 22.72492
#
# Velocity S-wave (km/s) = 2.50992 3.80504 3.22320
# Velocity P-wave (km/s) = 5.17199 6.75424 6.01537
#
# Compressibility (1/GPa) = 0.02491378
#
# Stress axis : x y z
#
# Youngs Moduli (GPa) = 85.88366 38.42939 144.58326
#
# Poissons Ratio (x) = 0.11508 0.15863
# Poissons Ratio (y) = 0.25718 0.83025
# Poissons Ratio (z) = 0.09423 0.22068
#
# Static dielectric constant tensor:
#      x y z
#    x 1.811000 0.000000 0.011610 
#    y 0.000000 1.764850 0.000000 
#    z 0.011610 0.000000 1.964220 
# 
# From -- ./inp_files/170112.got.cif
#   From: 2010.05.17/outbox.cif.g08.bks.cpg/sg15_86_cif.got.tgz:170112.got - 2010.06.03 18:47:42.
