data_PCOD9271914
_publ_section_title
;
Structure prediction by ZEFSAII (Michael W. Deem and Ramdas Pophale) SiO2 
 PCOD9271914
Probable space group: C 2/C
;
_chemical_formula_sum "Si O2"
_cell_formula_units_Z 56
_cell_length_a 13.016476
_cell_length_b 30.033885
_cell_length_c 8.763995
_cell_angle_alpha 90.000000
_cell_angle_beta 56.910988
_cell_angle_gamma 90.000000
_cell_volume 2870.513267
_symmetry_space_group_name_H-M "C 2/C"
_symmetry_group_IT_number 15
_symmetry_cell_setting 'monoclinic'
loop_
_space_group_symop_operation_xyz
x,y,z
-x,y,1/2-z
-x,-y,-z
x,-y,1/2+z
1/2+x,1/2+y,z
1/2-x,1/2+y,1/2-z
1/2-x,1/2-y,-z
1/2+x,1/2-y,1/2+z
loop_
_atom_site_type_symbol
_atom_site_label
_atom_site_fract_x
_atom_site_fract_y
_atom_site_fract_z
Si Si1 0.626918 0.854371 0.566475
Si Si2 0.500000 0.009051 0.250000
Si Si3 0.613800 0.755771 0.538530
Si Si4 0.857624 0.093558 0.355103
Si Si5 0.500000 0.395544 0.250000
Si Si6 0.826787 0.473676 0.643910
Si Si7 0.269590 0.573759 0.763005
Si Si8 0.144828 0.163074 0.393220
O O1 0.500000 0.864636 0.750000
O O2 0.609915 0.807216 0.491624
O O3 0.673130 0.893188 0.419459
O O4 0.729125 0.844900 0.614649
O O5 0.597779 0.037599 0.265451
O O6 0.424779 0.978425 0.428141
O O7 0.500000 0.750201 0.750000
O O8 0.750000 0.750000 0.500000
O O9 0.608263 0.714855 0.425575
O O10 0.780127 0.059691 0.313158
O O11 0.803189 0.091308 0.568228
O O12 0.849509 0.140851 0.276648
O O13 0.000000 0.080333 0.250000
O O14 0.610897 0.424245 0.226032
O O15 0.453280 0.364265 0.425245
O O16 0.776432 0.523432 0.709734
#
# Coordination Sequence:
#
# PCOD9271914 Si02
#       8
#     8   4   8   8   4   8   8   8
#     4   9  21  38  63  97 122 163 214 262 308 374
#     4  10  24  44  62  85 116 162 215 252 314 386
#     4   9  17  34  62  93 125 159 215 265 309 379
#     4  12  26  42  61  95 132 167 211 269 328 380
#     4  10  20  36  62  91 114 164 209 254 308 382
#     4  11  25  43  63  89 120 169 212 265 322 377
#     4  11  24  40  61  92 126 162 210 266 322 378
#     4  10  20  37  62  90 124 164 209 253 321 374
#
# _framework density 19.508707000000001
#
# number of rings (size 3 to 8) (size 9 to 14) (size 15 to 20)
#    0.000    1.714    3.571    0.000    6.000    1.714 
#    0.000    0.714    0.000    0.000    0.000    0.000 
#    0.000    0.000    0.000    0.000    0.000    0.000 
#
# Total GULP energy -156381.219133 kJ/mol
# GULP energy per Si atom -5585.043540 kJ/mol
# Density = 1.946430 g / cm^3
# Si number density = 19.508707 Si / 1000 Ang^3
#
#
#
# Elastic Constant Matrix: (Units=GPa)
#
#
# Indices 1 2 3 4 5 6 
#
# 1 106.1037 53.6509 34.5358 0.0000 -7.0858 0.0000
# 2 53.6509 125.6897 52.8668 0.0000 0.6721 0.0000
# 3 34.5358 52.8668 103.0368 0.0000 -6.8437 0.0000
# 4 0.0000 0.0000 0.0000 13.6545 0.0000 7.1312
# 5 -7.0858 0.6721 -6.8437 0.0000 35.2179 0.0000
# 6 0.0000 0.0000 0.0000 7.1312 0.0000 -10.1815
#
#
#
# Elastic Compliance Matrix: (Units=1/GPa)
#
#
# Indices 1 2 3 4 5 6 
#
# 1 0.012457 -0.004638 -0.001645 0.000000 0.002275 0.000000
# 2 -0.004638 0.011924 -0.004702 0.000000 -0.002074 0.000000
# 3 -0.001645 -0.004702 0.012818 0.000000 0.002250 0.000000
# 4 0.000000 0.000000 0.000000 0.053621 0.000000 0.037557
# 5 0.002275 -0.002074 0.002250 0.000000 0.029329 0.000000
# 6 0.000000 0.000000 0.000000 0.037557 0.000000 -0.071913
#
#
# Mechanical properties :
#
#
# Convention : Reuss Voigt Hill
#
# Bulk Modulus (GPa) = 65.65208 68.54856 67.10032
# Shear Modulus (GPa) = 66.41620 20.65665 43.53642
#
# Velocity S-wave (km/s) = 5.84109 3.25752 4.72915
# Velocity P-wave (km/s) = 8.90038 7.02583 8.01808
#
# Compressibility (1/GPa) = 0.01523181
#
# Stress axis : x y z
#
# Youngs Moduli (GPa) = 80.27587 83.86218 78.01381
#
# Poissons Ratio (x) = 0.38893 0.12831
# Poissons Ratio (y) = 0.37230 0.36678
# Poissons Ratio (z) = 0.13203 0.39428
#
# Static dielectric constant tensor:
#      x y z
#    x 1.641820 0.000000 0.015720 
#    y 0.000000 1.685320 0.000000 
#    z 0.015720 0.000000 1.664150 
# 
# From -- ./inp_files/44523.got.cif
#   From: 2010.05.17/outbox.cif.g08.bks.cpg/sg15_23_cif.got.tgz:44523.got - 2010.06.03 18:47:42.
