data_PCOD9271634
_publ_section_title
;
Structure prediction by ZEFSAII (Michael W. Deem and Ramdas Pophale) SiO2 
 PCOD9271634
Probable space group: C 2/C
;
_chemical_formula_sum "Si O2"
_cell_formula_units_Z 52
_cell_length_a 10.697813
_cell_length_b 21.831553
_cell_length_c 18.443820
_cell_angle_alpha 90.000000
_cell_angle_beta 142.129996
_cell_angle_gamma 90.000000
_cell_volume 2644.285466
_symmetry_space_group_name_H-M "C 2/C"
_symmetry_group_IT_number 15
_symmetry_cell_setting 'monoclinic'
loop_
_space_group_symop_operation_xyz
x,y,z
-x,y,1/2-z
-x,-y,-z
x,-y,1/2+z
1/2+x,1/2+y,z
1/2-x,1/2+y,1/2-z
1/2-x,1/2-y,-z
1/2+x,1/2-y,1/2+z
loop_
_atom_site_type_symbol
_atom_site_label
_atom_site_fract_x
_atom_site_fract_y
_atom_site_fract_z
Si Si1 0.363608 0.199965 0.003258
Si Si2 0.388940 0.041812 0.620804
Si Si3 0.533380 0.253481 0.940837
Si Si4 0.545144 0.619705 0.512261
Si Si5 0.610766 0.093791 0.378149
Si Si6 0.698519 0.142040 0.730740
Si Si7 0.500000 0.636768 0.750000
O O1 0.176694 0.173600 0.871218
O O2 0.250000 0.250000 0.000000
O O3 0.522426 0.226655 0.018033
O O4 0.449685 0.147041 0.094210
O O5 0.500000 0.037083 0.750000
O O6 0.156150 0.062712 0.524759
O O7 0.503616 0.097941 0.635394
O O8 0.415549 0.974165 0.601286
O O9 0.487393 0.325295 0.931580
O O10 0.750000 0.250000 0.000000
O O11 0.371980 0.210315 0.824413
O O12 0.347343 0.601514 0.466336
O O13 0.711986 0.643111 0.647273
O O14 0.500000 0.099622 0.250000
O O15 0.869112 0.110762 0.757000
#
# Coordination Sequence:
#
# PCOD9271634 Si02
#       7
#     8   8   8   8   8   8   4
#     4  11  22  38  61  92 122 160 207 257 312 363
#     4   9  20  37  62  89 120 161 208 257 307 373
#     4  11  22  36  61  94 123 158 204 256 314 373
#     4  11  20  39  61  88 122 164 206 255 311 373
#     4  11  23  39  62  93 123 161 215 265 304 362
#     4  10  20  37  63  90 120 160 207 249 314 374
#     4  10  20  36  60  90 116 162 202 248 302 390
#
# _framework density 19.665047000000001
#
# number of rings (size 3 to 8) (size 9 to 14) (size 15 to 20)
#    0.000    1.538    4.615    0.462    1.077    1.231 
#    0.000    3.077    0.000    0.000    4.000    0.000 
#    0.000    0.000    0.000    0.000    0.000    0.000 
#
# Total GULP energy -144862.410910 kJ/mol
# GULP energy per Si atom -5571.631189 kJ/mol
# Density = 1.962029 g / cm^3
# Si number density = 19.665047 Si / 1000 Ang^3
#
#
#
# Elastic Constant Matrix: (Units=GPa)
#
#
# Indices 1 2 3 4 5 6 
#
# 1 90.3434 8.8478 1.1631 -0.0003 12.5434 -0.0001
# 2 8.8478 98.8265 16.3422 -0.0005 -13.8773 -0.0002
# 3 1.1631 16.3422 54.3119 -0.0005 -6.0699 -0.0002
# 4 -0.0003 -0.0005 -0.0005 44.9518 -0.0004 18.7150
# 5 12.5434 -13.8773 -6.0699 -0.0004 29.5877 -0.0001
# 6 -0.0001 -0.0002 -0.0002 18.7150 -0.0001 34.3140
#
#
#
# Elastic Compliance Matrix: (Units=1/GPa)
#
#
# Indices 1 2 3 4 5 6 
#
# 1 0.012103 -0.001876 -0.000375 0.000000 -0.006088 0.000000
# 2 -0.001876 0.011541 -0.002803 0.000000 0.005634 0.000000
# 3 -0.000375 -0.002803 0.019583 0.000000 0.002862 0.000000
# 4 0.000000 0.000000 0.000000 0.028781 0.000000 -0.015698
# 5 -0.006088 0.005634 0.002862 0.000000 0.039608 0.000000
# 6 0.000000 0.000000 0.000000 -0.015698 0.000000 0.037704
#
#
# Mechanical properties :
#
#
# Convention : Reuss Voigt Hill
#
# Bulk Modulus (GPa) = 30.19425 32.90979 31.55202
# Shear Modulus (GPa) = 29.33078 36.24593 32.78836
#
# Velocity S-wave (km/s) = 3.86621 4.29787 4.08774
# Velocity P-wave (km/s) = 5.94287 6.43431 6.19347
#
# Compressibility (1/GPa) = 0.03311889
#
# Stress axis : x y z
#
# Youngs Moduli (GPa) = 82.62609 86.64531 51.06353
#
# Poissons Ratio (x) = 0.16258 0.01915
# Poissons Ratio (y) = 0.15504 0.14313
# Poissons Ratio (z) = 0.03098 0.24286
#
# Static dielectric constant tensor:
#      x y z
#    x 1.759000 0.000000 -0.008390 
#    y 0.000000 1.719010 0.000000 
#    z -0.008390 0.000000 1.683590 
# 
# From -- ./inp_files/88833.got.cif
#   From: 2010.05.17/outbox.cif.g08.bks.cpg/sg15_45_cif.got.tgz:88833.got - 2010.06.03 18:47:42.
