data_PCOD9271451
_publ_section_title
;
Structure prediction by ZEFSAII (Michael W. Deem and Ramdas Pophale) SiO2 
 PCOD9271451
Probable space group: C 2/C
;
_chemical_formula_sum "Si O2"
_cell_formula_units_Z 40
_cell_length_a 19.072305
_cell_length_b 6.924335
_cell_length_c 14.122471
_cell_angle_alpha 90.000000
_cell_angle_beta 120.972136
_cell_angle_gamma 90.000000
_cell_volume 1599.132229
_symmetry_space_group_name_H-M "C 2/C"
_symmetry_group_IT_number 15
_symmetry_cell_setting 'monoclinic'
loop_
_space_group_symop_operation_xyz
x,y,z
-x,y,1/2-z
-x,-y,-z
x,-y,1/2+z
1/2+x,1/2+y,z
1/2-x,1/2+y,1/2-z
1/2-x,1/2-y,-z
1/2+x,1/2-y,1/2+z
loop_
_atom_site_type_symbol
_atom_site_label
_atom_site_fract_x
_atom_site_fract_y
_atom_site_fract_z
Si Si1 0.533647 0.417981 0.674216
Si Si2 0.217612 0.559261 0.423892
Si Si3 0.077010 0.515691 0.190085
Si Si4 0.120790 0.020531 0.556968
Si Si5 0.600829 0.066097 0.493018
O O1 0.500000 0.498128 0.750000
O O2 0.576118 0.211136 0.719567
O O3 0.594917 0.537797 0.649171
O O4 0.452287 0.385880 0.554249
O O5 0.250000 0.750000 0.500000
O O6 0.146646 0.612555 0.300415
O O7 0.287874 0.444429 0.417059
O O8 0.169427 0.464528 0.477556
O O9 0.095829 0.532499 0.091483
O O10 0.982055 0.571265 0.125906
O O11 0.114294 0.789869 0.530064
#
# Coordination Sequence:
#
# PCOD9271451 Si02
#       5
#     8   8   8   8   8
#     4  10  20  37  57  78 112 152 189 237 294 347
#     4  10  20  36  59  88 120 153 196 249 300 351
#     4  10  20  37  60  86 116 154 198 240 294 357
#     4   9  21  37  54  84 114 146 198 241 286 352
#     4   9  19  37  60  84 115 157 198 239 290 355
#
# _framework density 25.013566000000001
#
# number of rings (size 3 to 8) (size 9 to 14) (size 15 to 20)
#    0.000    2.400    0.000    1.800    0.000    4.800 
#    0.000   26.000    0.000    0.000    0.000    0.000 
#    0.000    0.000    0.000    0.000    0.000    0.000 
#
# Total GULP energy -111738.745892 kJ/mol
# GULP energy per Si atom -5586.937295 kJ/mol
# Density = 2.495663 g / cm^3
# Si number density = 25.013566 Si / 1000 Ang^3
#
#
#
# Elastic Constant Matrix: (Units=GPa)
#
#
# Indices 1 2 3 4 5 6 
#
# 1 246.0671 12.4954 70.3863 0.0000 -16.5134 0.0000
# 2 12.4954 65.3669 49.7116 0.0000 -0.5117 0.0000
# 3 70.3863 49.7116 139.6559 0.0000 -11.2044 0.0000
# 4 0.0000 0.0000 0.0000 34.7881 0.0000 4.0870
# 5 -16.5134 -0.5117 -11.2044 0.0000 35.3860 0.0000
# 6 0.0000 0.0000 0.0000 4.0870 0.0000 11.5614
#
#
#
# Elastic Compliance Matrix: (Units=1/GPa)
#
#
# Indices 1 2 3 4 5 6 
#
# 1 0.004893 0.001185 -0.002774 0.000000 0.001422 0.000000
# 2 0.001185 0.021419 -0.008365 0.000000 -0.001786 0.000000
# 3 -0.002774 -0.008365 0.011720 0.000000 0.002296 0.000000
# 4 0.000000 0.000000 0.000000 0.029991 0.000000 -0.010602
# 5 0.001422 -0.001786 0.002296 0.000000 0.029624 0.000000
# 6 0.000000 0.000000 0.000000 -0.010602 0.000000 0.090243
#
#
# Mechanical properties :
#
#
# Convention : Reuss Voigt Hill
#
# Bulk Modulus (GPa) = 55.17183 79.58627 67.37905
# Shear Modulus (GPa) = 23.38209 37.58020 30.48115
#
# Velocity S-wave (km/s) = 3.06073 3.88028 3.49461
# Velocity P-wave (km/s) = 5.88178 7.20845 6.57864
#
# Compressibility (1/GPa) = 0.01812519
#
# Stress axis : x y z
#
# Youngs Moduli (GPa) = 204.39146 46.68690 85.32328
#
# Poissons Ratio (x) = -0.05534 0.23666
# Poissons Ratio (y) = -0.24225 0.71373
# Poissons Ratio (z) = 0.56691 0.39054
#
# Static dielectric constant tensor:
#      x y z
#    x 2.089280 0.000000 -0.027980 
#    y 0.000000 2.063140 0.000000 
#    z -0.027980 0.000000 1.901670 
# 
# From -- ./inp_files/166500.got.cif
#   From: 2010.05.17/outbox.cif.g08.bks.cpg/sg15_84_cif.got.tgz:166500.got - 2010.06.03 18:47:42.
