data_PCOD9271982
_publ_section_title
;
Structure prediction by ZEFSAII (Michael W. Deem and Ramdas Pophale) SiO2 
 PCOD9271982
Probable space group: C 2/C
;
_chemical_formula_sum "Si O2"
_cell_formula_units_Z 48
_cell_length_a 9.251471
_cell_length_b 27.145584
_cell_length_c 11.996908
_cell_angle_alpha 90.000000
_cell_angle_beta 126.420207
_cell_angle_gamma 90.000000
_cell_volume 2424.403624
_symmetry_space_group_name_H-M "C 2/C"
_symmetry_group_IT_number 15
_symmetry_cell_setting 'monoclinic'
loop_
_space_group_symop_operation_xyz
x,y,z
-x,y,1/2-z
-x,-y,-z
x,-y,1/2+z
1/2+x,1/2+y,z
1/2-x,1/2+y,1/2-z
1/2-x,1/2-y,-z
1/2+x,1/2-y,1/2+z
loop_
_atom_site_type_symbol
_atom_site_label
_atom_site_fract_x
_atom_site_fract_y
_atom_site_fract_z
Si Si1 0.500000 0.419410 0.250000
Si Si2 0.641122 0.772824 0.216680
Si Si3 0.893613 0.639819 0.526538
Si Si4 0.389645 0.048720 0.977119
Si Si5 0.623855 0.356430 0.090405
Si Si6 0.500000 0.094624 0.250000
Si Si7 0.299478 0.336743 0.782141
O O1 0.320978 0.451206 0.147367
O O2 0.551948 0.386304 0.164856
O O3 0.500000 0.759110 0.250000
O O4 0.525761 0.812753 0.094239
O O5 0.813637 0.802228 0.341197
O O6 0.703622 0.721526 0.194658
O O7 0.802754 0.627270 0.604081
O O8 0.737316 0.653996 0.366147
O O9 0.013127 0.594290 0.540746
O O10 0.409326 0.060993 0.115892
O O11 0.500000 0.000000 0.000000
O O12 0.473342 0.355498 0.926943
O O13 0.358046 0.131109 0.238662
#
# Coordination Sequence:
#
# PCOD9271982 Si02
#       7
#     4   8   8   8   8   4   8
#     4  12  24  45  68 100 126 174 217 282 344 398
#     4  10  20  36  62  97 134 182 225 266 325 399
#     4  10  22  41  65  96 134 179 222 279 327 394
#     4  11  25  49  71  95 136 171 224 284 346 399
#     4  11  22  39  65  92 136 174 227 271 325 394
#     4  10  24  45  64 102 140 172 217 290 334 392
#     4  11  21  38  63  95 139 175 223 269 331 390
#
# _framework density 19.798681999999999
#
# number of rings (size 3 to 8) (size 9 to 14) (size 15 to 20)
#    0.000    1.333    3.333    2.500    0.000    4.667 
#    6.000    5.000    0.000    0.000    0.000    0.000 
#    0.000    0.000    0.000    0.000    0.000    0.000 
#
# Total GULP energy -133852.560867 kJ/mol
# GULP energy per Si atom -5577.190036 kJ/mol
# Density = 1.975362 g / cm^3
# Si number density = 19.798682 Si / 1000 Ang^3
#
#
#
# Elastic Constant Matrix: (Units=GPa)
#
#
# Indices 1 2 3 4 5 6 
#
# 1 82.9310 44.3492 57.9187 0.0000 6.3488 0.0000
# 2 44.3492 101.5490 47.4548 0.0000 3.8554 0.0000
# 3 57.9187 47.4548 121.8009 0.0000 17.4105 0.0000
# 4 0.0000 0.0000 0.0000 20.4858 0.0000 9.7939
# 5 6.3488 3.8554 17.4105 0.0000 40.9069 0.0000
# 6 0.0000 0.0000 0.0000 9.7939 0.0000 29.4936
#
#
#
# Elastic Compliance Matrix: (Units=1/GPa)
#
#
# Indices 1 2 3 4 5 6 
#
# 1 0.020145 -0.005262 -0.007617 0.000000 0.000611 0.000000
# 2 -0.005262 0.013446 -0.002845 0.000000 0.000760 0.000000
# 3 -0.007617 -0.002845 0.013558 0.000000 -0.004320 0.000000
# 4 0.000000 0.000000 0.000000 0.058026 0.000000 -0.019269
# 5 0.000611 0.000760 -0.004320 0.000000 0.026118 0.000000
# 6 0.000000 0.000000 0.000000 -0.019269 0.000000 0.040304
#
#
# Mechanical properties :
#
#
# Convention : Reuss Voigt Hill
#
# Bulk Modulus (GPa) = 63.68749 67.30291 65.49520
# Shear Modulus (GPa) = 24.00633 28.61447 26.31040
#
# Velocity S-wave (km/s) = 3.48591 3.80580 3.64936
# Velocity P-wave (km/s) = 6.95984 7.30613 7.13509
#
# Compressibility (1/GPa) = 0.01570167
#
# Stress axis : x y z
#
# Youngs Moduli (GPa) = 49.64123 74.37049 73.75676
#
# Poissons Ratio (x) = 0.39131 0.56177
# Poissons Ratio (y) = 0.26119 0.20987
# Poissons Ratio (z) = 0.37809 0.21162
#
# Static dielectric constant tensor:
#      x y z
#    x 1.761610 0.000000 -0.035520 
#    y 0.000000 1.652480 0.000000 
#    z -0.035520 0.000000 1.764610 
# 
# From -- ./inp_files/80954.got.cif
#   From: 2010.05.17/outbox.cif.g08.bks.cpg/sg15_41_cif.got.tgz:80954.got - 2010.06.03 18:47:42.
