data_PCOD9271771
_publ_section_title
;
Structure prediction by ZEFSAII (Michael W. Deem and Ramdas Pophale) SiO2 
 PCOD9271771
Probable space group: C 2/C
;
_chemical_formula_sum "Si O2"
_cell_formula_units_Z 64
_cell_length_a 17.072834
_cell_length_b 9.390905
_cell_length_c 21.785739
_cell_angle_alpha 90.000000
_cell_angle_beta 131.202955
_cell_angle_gamma 90.000000
_cell_volume 2627.986586
_symmetry_space_group_name_H-M "C 2/C"
_symmetry_group_IT_number 15
_symmetry_cell_setting 'monoclinic'
loop_
_space_group_symop_operation_xyz
x,y,z
-x,y,1/2-z
-x,-y,-z
x,-y,1/2+z
1/2+x,1/2+y,z
1/2-x,1/2+y,1/2-z
1/2-x,1/2-y,-z
1/2+x,1/2-y,1/2+z
loop_
_atom_site_type_symbol
_atom_site_label
_atom_site_fract_x
_atom_site_fract_y
_atom_site_fract_z
Si Si1 0.102631 0.648696 0.448139
Si Si2 0.717273 0.891756 0.446950
Si Si3 0.909459 0.000504 0.397853
Si Si4 0.602996 0.543550 0.916156
Si Si5 0.798868 0.703275 0.866208
Si Si6 0.913613 0.554557 0.409171
Si Si7 0.380056 0.502124 0.706854
Si Si8 0.241283 0.261002 0.338766
O O1 0.139361 0.500291 0.439159
O O2 0.122550 0.788842 0.419052
O O3 0.158328 0.678321 0.542268
O O4 0.978700 0.641926 0.394008
O O5 0.750000 0.750000 0.500000
O O6 0.682848 0.845065 0.361922
O O7 0.822664 0.982907 0.492493
O O8 0.842260 0.145021 0.368910
O O9 0.819339 0.878088 0.348592
O O10 0.000000 0.000000 0.500000
O O11 0.985366 0.986777 0.377096
O O12 0.651132 0.471413 0.880700
O O13 0.856433 0.583698 0.854340
O O14 0.680767 0.645277 0.804562
O O15 0.833043 0.649995 0.404639
O O16 0.000000 0.500000 0.500000
O O17 0.500000 0.527377 0.750000
O O18 0.342572 0.361186 0.724892
#
# Coordination Sequence:
#
# PCOD9271771 Si02
#       8
#     8   8   8   8   8   8   8   8
#     4  11  20  33  56  97 131 153 185 251 325 378
#     4  12  21  31  56  94 129 152 196 247 316 377
#     4  12  21  34  64 101 133 146 187 252 333 375
#     4  12  23  37  60  95 127 159 195 253 314 370
#     4  10  20  36  61  90 124 162 198 244 305 373
#     4   9  17  31  51  83 125 161 182 222 311 382
#     4  11  26  47  63  78 120 179 221 246 288 355
#     4  11  21  38  57  90 121 160 193 256 307 364
#
# _framework density 24.353244
#
# number of rings (size 3 to 8) (size 9 to 14) (size 15 to 20)
#    0.000    1.000    6.250    2.625    3.500    0.000 
#    0.000    1.875    0.000    0.000    0.000    0.000 
#    0.000    0.000    0.000    0.000    0.000    0.000 
#
# Total GULP energy -178199.469516 kJ/mol
# GULP energy per Si atom -5568.733422 kJ/mol
# Density = 2.429781 g / cm^3
# Si number density = 24.353244 Si / 1000 Ang^3
#
#
#
# Elastic Constant Matrix: (Units=GPa)
#
#
# Indices 1 2 3 4 5 6 
#
# 1 129.2532 59.7193 26.5444 0.0000 29.2773 0.0000
# 2 59.7193 165.0525 31.3162 0.0000 22.8055 0.0000
# 3 26.5444 31.3162 59.8352 0.0000 28.2215 0.0000
# 4 0.0000 0.0000 0.0000 12.7477 0.0000 14.3389
# 5 29.2773 22.8055 28.2215 0.0000 41.4728 0.0000
# 6 0.0000 0.0000 0.0000 14.3389 0.0000 52.4003
#
#
#
# Elastic Compliance Matrix: (Units=1/GPa)
#
#
# Indices 1 2 3 4 5 6 
#
# 1 0.010417 -0.002921 -0.000562 0.000000 -0.005365 0.000000
# 2 -0.002921 0.007651 -0.002499 0.000000 -0.000445 0.000000
# 3 -0.000562 -0.002499 0.025675 0.000000 -0.015701 0.000000
# 4 0.000000 0.000000 0.000000 0.113328 0.000000 -0.031011
# 5 -0.005365 -0.000445 -0.015701 0.000000 0.038828 0.000000
# 6 0.000000 0.000000 0.000000 -0.031011 0.000000 0.027570
#
#
# Mechanical properties :
#
#
# Convention : Reuss Voigt Hill
#
# Bulk Modulus (GPa) = 31.46693 65.47785 48.47239
# Shear Modulus (GPa) = 20.32310 37.09490 28.70900
#
# Velocity S-wave (km/s) = 2.89193 3.90706 3.43717
# Velocity P-wave (km/s) = 4.90918 6.87739 5.97489
#
# Compressibility (1/GPa) = 0.03177940
#
# Stress axis : x y z
#
# Youngs Moduli (GPa) = 95.99598 130.69884 38.94862
#
# Poissons Ratio (x) = 0.38180 0.02189
# Poissons Ratio (y) = 0.28042 0.09732
# Poissons Ratio (z) = 0.05394 0.32658
#
# Static dielectric constant tensor:
#      x y z
#    x 1.782290 0.000000 0.206110 
#    y 0.000000 1.688790 0.000000 
#    z 0.206110 0.000000 1.851890 
# 
# From -- ./inp_files/315728.got.cif
#   From: 2010.05.17/outbox.cif.g08.bks.cpg/sg15_158_cif.got.tgz:315728.got - 2010.06.03 18:47:42.
