data_PCOD9271941
_publ_section_title
;
Structure prediction by ZEFSAII (Michael W. Deem and Ramdas Pophale) SiO2 
 PCOD9271941
Probable space group: C 2/C
;
_chemical_formula_sum "Si O2"
_cell_formula_units_Z 48
_cell_length_a 14.773058
_cell_length_b 18.570862
_cell_length_c 17.653641
_cell_angle_alpha 90.000000
_cell_angle_beta 30.420175
_cell_angle_gamma 90.000000
_cell_volume 2452.318073
_symmetry_space_group_name_H-M "C 2/C"
_symmetry_group_IT_number 15
_symmetry_cell_setting 'monoclinic'
loop_
_space_group_symop_operation_xyz
x,y,z
-x,y,1/2-z
-x,-y,-z
x,-y,1/2+z
1/2+x,1/2+y,z
1/2-x,1/2+y,1/2-z
1/2-x,1/2-y,-z
1/2+x,1/2-y,1/2+z
loop_
_atom_site_type_symbol
_atom_site_label
_atom_site_fract_x
_atom_site_fract_y
_atom_site_fract_z
Si Si1 0.874923 0.347515 0.770330
Si Si2 0.155806 0.406513 0.185690
Si Si3 0.021985 0.887219 0.825145
Si Si4 0.538558 0.755398 0.521832
Si Si5 0.311907 0.481466 0.674927
Si Si6 0.144595 0.274321 0.282934
O O1 0.714488 0.292304 0.907251
O O2 0.778827 0.415523 0.803464
O O3 0.000000 0.365243 0.750000
O O4 0.997930 0.309488 0.618505
O O5 0.195940 0.449573 0.234492
O O6 0.084518 0.328760 0.262653
O O7 0.000000 0.443753 0.250000
O O8 0.331977 0.396589 0.006201
O O9 0.145873 0.950825 0.771713
O O10 0.102832 0.808897 0.791448
O O11 0.000000 0.890542 0.750000
O O12 0.355279 0.711433 0.643724
O O13 0.557534 0.791231 0.426164
O O14 0.500000 0.500000 0.500000
#
# Coordination Sequence:
#
# PCOD9271941 Si02
#       6
#     8   8   8   8   8   8
#     4  11  21  38  64  92 128 169 216 261 315 377
#     4  11  24  38  61  94 126 163 208 256 317 380
#     4  11  23  40  66  88 120 165 209 261 314 374
#     4  10  20  36  62  92 123 166 209 263 314 364
#     4  10  21  43  61  85 126 171 204 253 322 380
#     4  11  20  39  62  94 128 164 209 259 323 369
#
# _framework density 19.573318
#
# number of rings (size 3 to 8) (size 9 to 14) (size 15 to 20)
#    0.000    1.333    5.000    2.500    2.333    1.333 
#    0.000    6.667    0.000    5.000    0.000    0.000 
#    0.000    0.000    0.000    0.000    0.000    0.000 
#
# Total GULP energy -133798.860955 kJ/mol
# GULP energy per Si atom -5574.952540 kJ/mol
# Density = 1.952877 g / cm^3
# Si number density = 19.573318 Si / 1000 Ang^3
#
#
#
# Elastic Constant Matrix: (Units=GPa)
#
#
# Indices 1 2 3 4 5 6 
#
# 1 135.2902 38.4287 28.0390 -0.0051 5.4864 0.0062
# 2 38.4287 78.6125 26.3541 0.0132 7.7970 0.0048
# 3 28.0390 26.3541 82.4518 0.0099 8.3267 0.0095
# 4 -0.0051 0.0132 0.0099 13.5540 -0.0030 4.2629
# 5 5.4864 7.7970 8.3267 -0.0030 21.7228 -0.0066
# 6 0.0062 0.0048 0.0095 4.2629 -0.0066 25.3979
#
#
#
# Elastic Compliance Matrix: (Units=1/GPa)
#
#
# Indices 1 2 3 4 5 6 
#
# 1 0.008820 -0.003687 -0.001799 0.000009 -0.000215 -0.000002
# 2 -0.003687 0.016050 -0.003525 -0.000016 -0.003478 0.000001
# 3 -0.001799 -0.003525 0.014245 -0.000007 -0.003741 -0.000004
# 4 0.000009 -0.000016 -0.000007 0.077891 0.000013 -0.013074
# 5 -0.000215 -0.003478 -0.003741 0.000013 0.048771 0.000013
# 6 -0.000002 0.000001 -0.000004 -0.013074 0.000013 0.041568
#
#
# Mechanical properties :
#
#
# Convention : Reuss Voigt Hill
#
# Bulk Modulus (GPa) = 47.41131 53.55534 50.48333
# Shear Modulus (GPa) = 21.51480 25.70378 23.60929
#
# Velocity S-wave (km/s) = 3.31900 3.62775 3.47680
# Velocity P-wave (km/s) = 6.24201 6.70583 6.47807
#
# Compressibility (1/GPa) = 0.02109201
#
# Stress axis : x y z
#
# Youngs Moduli (GPa) = 113.37231 62.30617 70.20223
#
# Poissons Ratio (x) = 0.22974 0.12632
# Poissons Ratio (y) = 0.41804 0.24745
# Poissons Ratio (z) = 0.20399 0.21962
#
# Static dielectric constant tensor:
#      x y z
#    x 1.707020 0.000000 -0.004270 
#    y 0.000000 1.710880 0.000010 
#    z -0.004270 0.000010 1.719700 
# 
# From -- ./inp_files/39613.got.cif
#   From: 2010.05.17/outbox.cif.g08.bks.cpg/sg15_20_cif.got.tgz:39613.got - 2010.06.03 18:47:42.
