data_PCOD9271183
_publ_section_title
;
Structure prediction by ZEFSAII (Michael W. Deem and Ramdas Pophale) SiO2 
 PCOD9271183
Probable space group: C 2/C
;
_chemical_formula_sum "Si O2"
_cell_formula_units_Z 56
_cell_length_a 14.819197
_cell_length_b 21.093505
_cell_length_c 16.378672
_cell_angle_alpha 90.000000
_cell_angle_beta 153.024362
_cell_angle_gamma 90.000000
_cell_volume 2322.395945
_symmetry_space_group_name_H-M "C 2/C"
_symmetry_group_IT_number 15
_symmetry_cell_setting 'monoclinic'
loop_
_space_group_symop_operation_xyz
x,y,z
-x,y,1/2-z
-x,-y,-z
x,-y,1/2+z
1/2+x,1/2+y,z
1/2-x,1/2+y,1/2-z
1/2-x,1/2-y,-z
1/2+x,1/2-y,1/2+z
loop_
_atom_site_type_symbol
_atom_site_label
_atom_site_fract_x
_atom_site_fract_y
_atom_site_fract_z
Si Si1 0.704721 0.162129 0.658071
Si Si2 0.310699 0.778178 0.634305
Si Si3 0.123074 0.105288 0.273727
Si Si4 0.550393 0.130737 0.698478
Si Si5 0.856400 0.038251 0.706731
Si Si6 0.263690 0.131486 0.225517
Si Si7 0.569013 0.987781 0.715576
O O1 0.819167 0.218154 0.702786
O O2 0.666039 0.171780 0.723647
O O3 0.817166 0.095059 0.737171
O O4 0.487219 0.154270 0.435631
O O5 0.500000 0.815481 0.750000
O O6 0.250000 0.750000 0.500000
O O7 0.194267 0.828035 0.593325
O O8 0.346036 0.113818 0.486804
O O9 0.118309 0.139616 0.183997
O O10 0.000000 0.130493 0.250000
O O11 0.062872 0.031982 0.208020
O O12 0.500000 0.154204 0.750000
O O13 0.642864 0.060051 0.782154
O O14 0.635090 0.020057 0.498906
O O15 0.000000 0.062400 0.750000
O O16 0.282733 0.059462 0.210315
O O17 0.500000 0.967649 0.750000
#
# Coordination Sequence:
#
# PCOD9271183 Si02
#       7
#     8   8   8   8   8   8   8
#     4  10  20  36  58  79 110 149 187 227 276 328
#     4  12  24  41  59  82 112 145 188 233 273 324
#     4   9  18  35  57  83 114 144 181 229 277 331
#     4   9  18  35  56  84 112 143 183 228 275 331
#     4   9  17  31  54  84 113 145 179 223 279 328
#     4  10  20  36  58  80 109 151 189 224 276 332
#     4   9  17  30  55  82 112 146 181 220 275 338
#
# _framework density 24.113028
#
# number of rings (size 3 to 8) (size 9 to 14) (size 15 to 20)
#    0.000    2.286    1.429    1.714    2.000    3.429 
#    2.571    0.714    0.000   10.286    0.000    0.000 
#    0.000    0.000    0.000    0.000    0.000    0.000 
#
# Total GULP energy -156118.165395 kJ/mol
# GULP energy per Si atom -5575.648764 kJ/mol
# Density = 2.405815 g / cm^3
# Si number density = 24.113028 Si / 1000 Ang^3
#
#
#
# Elastic Constant Matrix: (Units=GPa)
#
#
# Indices 1 2 3 4 5 6 
#
# 1 236.7339 50.7653 12.9972 -0.0001 -25.8195 -0.0002
# 2 50.7653 29.4150 12.7926 0.0003 -6.0037 0.0006
# 3 12.9972 12.7926 42.4744 0.0023 -8.4888 0.0045
# 4 -0.0001 0.0003 0.0023 4.4059 0.0010 -18.2091
# 5 -25.8195 -6.0037 -8.4888 0.0010 26.5004 0.0018
# 6 -0.0002 0.0006 0.0045 -18.2091 0.0018 14.5461
#
#
#
# Elastic Compliance Matrix: (Units=1/GPa)
#
#
# Indices 1 2 3 4 5 6 
#
# 1 0.007399 -0.012869 0.002639 0.000001 0.005139 0.000001
# 2 -0.012869 0.062248 -0.015489 -0.000003 -0.003397 -0.000002
# 3 0.002639 -0.015489 0.029075 0.000013 0.008375 0.000007
# 4 0.000001 -0.000003 0.000013 -0.054382 0.000011 -0.068076
# 5 0.005139 -0.003397 0.008375 0.000011 0.044656 0.000006
# 6 0.000001 -0.000002 0.000007 -0.068076 0.000006 -0.016472
#
#
# Mechanical properties :
#
#
# Convention : Reuss Voigt Hill
#
# Bulk Modulus (GPa) = 21.14867 51.30370 36.22618
# Shear Modulus (GPa) = 35.78458 24.56169 30.17314
#
# Velocity S-wave (km/s) = 3.85650 3.19502 3.54124
# Velocity P-wave (km/s) = 5.34974 5.91045 5.63707
#
# Compressibility (1/GPa) = 0.04728431
#
# Stress axis : x y z
#
# Youngs Moduli (GPa) = 135.14717 16.06468 34.39364
#
# Poissons Ratio (x) = 0.20673 -0.09075
# Poissons Ratio (y) = 1.73917 0.53273
# Poissons Ratio (z) = -0.35661 0.24883
#
# Static dielectric constant tensor:
#      x y z
#    x 1.909050 0.000000 0.037060 
#    y 0.000000 1.889090 0.000000 
#    z 0.037060 0.000000 2.068100 
# 
# From -- ./inp_files/148560.got.cif
#   From: 2010.05.17/outbox.cif.g08.bks.cpg/sg15_75_cif.got.tgz:148560.got - 2010.06.03 18:47:42.
