data_PCOD9271082
_publ_section_title
;
Structure prediction by ZEFSAII (Michael W. Deem and Ramdas Pophale) SiO2 
 PCOD9271082
Probable space group: C 2/C
;
_chemical_formula_sum "Si O2"
_cell_formula_units_Z 52
_cell_length_a 11.922594
_cell_length_b 14.775623
_cell_length_c 20.465962
_cell_angle_alpha 90.000000
_cell_angle_beta 127.285351
_cell_angle_gamma 90.000000
_cell_volume 2868.527327
_symmetry_space_group_name_H-M "C 2/C"
_symmetry_group_IT_number 15
_symmetry_cell_setting 'monoclinic'
loop_
_space_group_symop_operation_xyz
x,y,z
-x,y,1/2-z
-x,-y,-z
x,-y,1/2+z
1/2+x,1/2+y,z
1/2-x,1/2+y,1/2-z
1/2-x,1/2-y,-z
1/2+x,1/2-y,1/2+z
loop_
_atom_site_type_symbol
_atom_site_label
_atom_site_fract_x
_atom_site_fract_y
_atom_site_fract_z
Si Si1 0.195661 0.343045 0.621695
Si Si2 0.733701 0.037205 0.352657
Si Si3 0.714748 0.649183 0.566945
Si Si4 0.538127 0.948087 0.662169
Si Si5 0.948606 0.808625 0.881494
Si Si6 0.500000 0.647588 0.250000
Si Si7 0.019494 0.621095 0.931785
O O1 0.220916 0.236948 0.615598
O O2 0.108182 0.359519 0.656370
O O3 0.346159 0.394028 0.680026
O O4 0.103281 0.377714 0.528788
O O5 0.620962 0.065816 0.368720
O O6 0.634368 0.017637 0.255506
O O7 0.839158 0.116411 0.368263
O O8 0.808204 0.945176 0.403305
O O9 0.596199 0.667266 0.470020
O O10 0.863614 0.640389 0.582921
O O11 0.543168 0.025163 0.608888
O O12 0.964741 0.808171 0.808510
O O13 0.915143 0.706510 0.892401
#
# Coordination Sequence:
#
# PCOD9271082 Si02
#       7
#     8   8   8   8   8   4   8
#     4  11  20  36  57  84 110 137 182 229 275 312
#     4  10  22  35  55  79 110 148 182 216 266 327
#     4  10  20  36  57  82 107 143 183 223 271 324
#     4  10  22  35  55  79 110 148 182 216 266 327
#     4  11  20  36  57  84 110 137 182 229 275 312
#     4  12  20  30  62  88 106 136 176 240 274 302
#     4  10  20  36  57  82 107 143 183 223 271 324
#
# _framework density 18.127768
#
# number of rings (size 3 to 8) (size 9 to 14) (size 15 to 20)
#    0.000    1.538    4.615    1.846    2.154    0.000 
#    0.000    3.077    3.385    0.000    0.000    0.000 
#    0.000    0.000    0.000    0.000    0.000    0.000 
#
# Total GULP energy -144800.872410 kJ/mol
# GULP energy per Si atom -5569.264323 kJ/mol
# Density = 1.808651 g / cm^3
# Si number density = 18.127768 Si / 1000 Ang^3
#
#
#
# Elastic Constant Matrix: (Units=GPa)
#
#
# Indices 1 2 3 4 5 6 
#
# 1 55.6766 40.2178 14.3765 0.0000 -7.4976 0.0000
# 2 40.2178 80.7851 26.5017 0.0000 -5.1391 0.0000
# 3 14.3765 26.5017 71.1729 0.0000 -11.7392 0.0000
# 4 0.0000 0.0000 0.0000 14.2433 0.0000 -1.9149
# 5 -7.4976 -5.1391 -11.7392 0.0000 26.1397 0.0000
# 6 0.0000 0.0000 0.0000 -1.9149 0.0000 25.6249
#
#
#
# Elastic Compliance Matrix: (Units=1/GPa)
#
#
# Indices 1 2 3 4 5 6 
#
# 1 0.028818 -0.014107 0.000364 0.000000 0.005656 0.000000
# 2 -0.014107 0.021011 -0.005357 0.000000 -0.002321 0.000000
# 3 0.000364 -0.005357 0.017080 0.000000 0.006722 0.000000
# 4 0.000000 0.000000 0.000000 0.070921 0.000000 0.005300
# 5 0.005656 -0.002321 0.006722 0.000000 0.042441 0.000000
# 6 0.000000 0.000000 0.000000 0.005300 0.000000 0.039421
#
#
# Mechanical properties :
#
#
# Convention : Reuss Voigt Hill
#
# Bulk Modulus (GPa) = 34.82958 41.09183 37.96071
# Shear Modulus (GPa) = 18.69435 21.63747 20.16591
#
# Velocity S-wave (km/s) = 3.21480 3.45861 3.33893
# Velocity P-wave (km/s) = 5.74761 6.21823 5.98755
#
# Compressibility (1/GPa) = 0.02871123
#
# Stress axis : x y z
#
# Youngs Moduli (GPa) = 34.70025 47.59413 58.54767
#
# Poissons Ratio (x) = 0.67139 -0.02134
# Poissons Ratio (y) = 0.48950 0.31364
# Poissons Ratio (z) = -0.01265 0.25496
#
# Static dielectric constant tensor:
#      x y z
#    x 1.633810 0.000000 0.000510 
#    y 0.000000 1.631830 0.000000 
#    z 0.000510 0.000000 1.641760 
# 
# From -- ./inp_files/197249.got.cif
#   From: 2010.05.17/outbox.cif.g08.bks.cpg/sg15_99_cif.got.tgz:197249.got - 2010.06.03 18:47:42.
