data_PCOD9271703
_publ_section_title
;
Structure prediction by ZEFSAII (Michael W. Deem and Ramdas Pophale) SiO2 
 PCOD9271703
Probable space group: C 2/C
;
_chemical_formula_sum "Si O2"
_cell_formula_units_Z 60
_cell_length_a 16.262340
_cell_length_b 13.140061
_cell_length_c 12.627210
_cell_angle_alpha 90.000000
_cell_angle_beta 75.313495
_cell_angle_gamma 90.000000
_cell_volume 2610.125280
_symmetry_space_group_name_H-M "C 2/C"
_symmetry_group_IT_number 15
_symmetry_cell_setting 'monoclinic'
loop_
_space_group_symop_operation_xyz
x,y,z
-x,y,1/2-z
-x,-y,-z
x,-y,1/2+z
1/2+x,1/2+y,z
1/2-x,1/2+y,1/2-z
1/2-x,1/2-y,-z
1/2+x,1/2-y,1/2+z
loop_
_atom_site_type_symbol
_atom_site_label
_atom_site_fract_x
_atom_site_fract_y
_atom_site_fract_z
Si Si1 0.355436 0.120544 0.641983
Si Si2 0.384203 0.948913 0.473630
Si Si3 0.595314 0.249633 0.413044
Si Si4 0.398972 0.623147 0.792191
Si Si5 0.716277 0.796704 0.141115
Si Si6 0.100735 0.895809 0.747010
Si Si7 0.000000 0.541817 0.750000
Si Si8 0.915911 0.823050 0.519700
O O1 0.279070 0.153271 0.742556
O O2 0.432072 0.104049 0.701997
O O3 0.382593 0.212527 0.560148
O O4 0.343985 0.025400 0.569993
O O5 0.427054 0.863022 0.536373
O O6 0.321779 0.883505 0.421200
O O7 0.444736 0.004139 0.365706
O O8 0.606762 0.279695 0.285739
O O9 0.688945 0.272005 0.426146
O O10 0.518570 0.319913 0.477619
O O11 0.500000 0.602450 0.750000
O O12 0.364904 0.508387 0.788081
O O13 0.378334 0.650063 0.919071
O O14 0.656309 0.696645 0.177821
O O15 0.000000 0.880742 0.750000
O O16 0.107371 0.889516 0.871987
#
# Coordination Sequence:
#
# PCOD9271703 Si02
#       8
#     8   8   8   8   8   8   4   8
#     4  10  22  40  62  95 130 167 211 260 322 385
#     4  11  22  38  63  94 130 166 212 263 318 377
#     4  11  22  40  62  94 130 159 211 263 325 388
#     4   9  22  39  61  94 120 163 211 268 317 372
#     4  10  24  40  62  94 126 170 215 256 322 394
#     4  10  21  40  66  86 120 167 221 263 302 379
#     4  10  20  36  60  96 120 160 214 258 306 384
#     4  10  21  40  65  92 125 164 212 268 323 371
#
# _framework density 22.987403
#
# number of rings (size 3 to 8) (size 9 to 14) (size 15 to 20)
#    0.000    1.867    1.333    1.600    6.533    9.067 
#    2.400    6.667    0.000    1.600    0.000    0.000 
#    0.000    0.000    0.000    0.000    0.000    0.000 
#
# Total GULP energy -167210.004198 kJ/mol
# GULP energy per Si atom -5573.666807 kJ/mol
# Density = 2.293508 g / cm^3
# Si number density = 22.987403 Si / 1000 Ang^3
#
#
#
# Elastic Constant Matrix: (Units=GPa)
#
#
# Indices 1 2 3 4 5 6 
#
# 1 37.1079 13.9652 22.7339 0.0000 -9.6869 0.0000
# 2 13.9652 70.7495 81.6819 0.0000 9.1650 0.0000
# 3 22.7339 81.6819 182.9748 0.0000 7.0835 0.0000
# 4 0.0000 0.0000 0.0000 24.4017 0.0000 3.2277
# 5 -9.6869 9.1650 7.0835 0.0000 26.2993 0.0000
# 6 0.0000 0.0000 0.0000 3.2277 0.0000 15.8044
#
#
#
# Elastic Compliance Matrix: (Units=1/GPa)
#
#
# Indices 1 2 3 4 5 6 
#
# 1 0.034717 -0.006599 -0.001972 0.000000 0.015618 0.000000
# 2 -0.006599 0.031648 -0.012922 0.000000 -0.009979 0.000000
# 3 -0.001972 -0.012922 0.011452 0.000000 0.000692 0.000000
# 4 0.000000 0.000000 0.000000 0.042118 0.000000 -0.008602
# 5 0.015618 -0.009979 0.000692 0.000000 0.047068 0.000000
# 6 0.000000 0.000000 0.000000 -0.008602 0.000000 0.065030
#
#
# Mechanical properties :
#
#
# Convention : Reuss Voigt Hill
#
# Bulk Modulus (GPa) = 28.70993 58.62159 43.66576
# Shear Modulus (GPa) = 17.44403 24.79784 21.12093
#
# Velocity S-wave (km/s) = 2.75771 3.28801 3.03447
# Velocity P-wave (km/s) = 4.75989 6.32231 5.59590
#
# Compressibility (1/GPa) = 0.03483116
#
# Stress axis : x y z
#
# Youngs Moduli (GPa) = 28.80404 31.59714 87.32119
#
# Poissons Ratio (x) = 0.20851 0.17221
# Poissons Ratio (y) = 0.19008 1.12836
# Poissons Ratio (z) = 0.05681 0.40830
#
# Static dielectric constant tensor:
#      x y z
#    x 1.962430 0.000000 0.007710 
#    y 0.000000 1.878210 0.000000 
#    z 0.007710 0.000000 1.896450 
# 
# From -- ./inp_files/105340.got.cif
#   From: 2010.05.17/outbox.cif.g08.bks.cpg/sg15_53_cif.got.tgz:105340.got - 2010.06.03 18:47:42.
