data_PCOD9271148
_publ_section_title
;
Structure prediction by ZEFSAII (Michael W. Deem and Ramdas Pophale) SiO2 
 PCOD9271148
Probable space group: C 2/C
;
_chemical_formula_sum "Si O2"
_cell_formula_units_Z 40
_cell_length_a 9.434227
_cell_length_b 13.906831
_cell_length_c 16.532366
_cell_angle_alpha 90.000000
_cell_angle_beta 123.368812
_cell_angle_gamma 90.000000
_cell_volume 1811.476212
_symmetry_space_group_name_H-M "C 2/C"
_symmetry_group_IT_number 15
_symmetry_cell_setting 'monoclinic'
loop_
_space_group_symop_operation_xyz
x,y,z
-x,y,1/2-z
-x,-y,-z
x,-y,1/2+z
1/2+x,1/2+y,z
1/2-x,1/2+y,1/2-z
1/2-x,1/2-y,-z
1/2+x,1/2-y,1/2+z
loop_
_atom_site_type_symbol
_atom_site_label
_atom_site_fract_x
_atom_site_fract_y
_atom_site_fract_z
Si Si1 0.051371 0.021738 0.671273
Si Si2 0.542351 0.324908 0.901890
Si Si3 0.388723 0.810455 0.930101
Si Si4 0.743281 0.800456 0.239436
Si Si5 0.248635 0.157514 0.942727
O O1 0.892299 0.078792 0.582548
O O2 0.000000 0.007439 0.750000
O O3 0.212753 0.092336 0.717007
O O4 0.073586 0.918827 0.637368
O O5 0.716596 0.353408 0.912518
O O6 0.447972 0.239465 0.823802
O O7 0.578876 0.281825 0.001227
O O8 0.350601 0.771831 0.828791
O O9 0.555183 0.875565 0.991335
O O10 0.792145 0.805016 0.160393
O O11 0.250000 0.250000 0.000000
#
# Coordination Sequence:
#
# PCOD9271148 Si02
#       5
#     8   8   8   8   8
#     4  10  20  36  61  86 117 155 192 239 289 349
#     4  10  22  38  60  89 115 155 194 236 294 345
#     4  10  20  37  60  84 121 153 188 245 287 342
#     4  10  20  36  59  82 121 152 193 240 288 338
#     4  10  20  36  57  88 115 156 192 236 290 342
#
# _framework density 22.081437000000001
#
# number of rings (size 3 to 8) (size 9 to 14) (size 15 to 20)
#    0.000    2.000    2.000    1.800    0.000    1.600 
#    0.000    4.000    0.000    4.800    0.000    0.000 
#    0.000    0.000    0.000    0.000    0.000    0.000 
#
# Total GULP energy -111627.658883 kJ/mol
# GULP energy per Si atom -5581.382944 kJ/mol
# Density = 2.203118 g / cm^3
# Si number density = 22.081437 Si / 1000 Ang^3
#
#
#
# Elastic Constant Matrix: (Units=GPa)
#
#
# Indices 1 2 3 4 5 6 
#
# 1 50.8748 6.3950 10.2367 0.0000 23.7150 0.0000
# 2 6.3950 78.8570 26.3073 0.0000 9.2296 0.0000
# 3 10.2367 26.3073 121.2941 0.0000 9.5575 0.0000
# 4 0.0000 0.0000 0.0000 36.6790 0.0000 8.5506
# 5 23.7150 9.2296 9.5575 0.0000 35.9375 0.0000
# 6 0.0000 0.0000 0.0000 8.5506 0.0000 15.7566
#
#
#
# Elastic Compliance Matrix: (Units=1/GPa)
#
#
# Indices 1 2 3 4 5 6 
#
# 1 0.028496 0.000193 -0.000982 0.000000 -0.018593 0.000000
# 2 0.000193 0.013949 -0.002808 0.000000 -0.002963 0.000000
# 3 -0.000982 -0.002808 0.009017 0.000000 -0.001029 0.000000
# 4 0.000000 0.000000 0.000000 0.031212 0.000000 -0.016938
# 5 -0.018593 -0.002963 -0.001029 0.000000 0.041130 0.000000
# 6 0.000000 0.000000 0.000000 -0.016938 0.000000 0.072657
#
#
# Mechanical properties :
#
#
# Convention : Reuss Voigt Hill
#
# Bulk Modulus (GPa) = 22.58937 37.43377 30.01157
# Shear Modulus (GPa) = 22.89240 31.54707 27.21974
#
# Velocity S-wave (km/s) = 3.22332 3.78387 3.51479
# Velocity P-wave (km/s) = 4.90971 6.00664 5.48566
#
# Compressibility (1/GPa) = 0.04426861
#
# Stress axis : x y z
#
# Youngs Moduli (GPa) = 35.09207 71.68884 110.89627
#
# Poissons Ratio (x) = -0.01381 0.10887
# Poissons Ratio (y) = -0.00676 0.31142
# Poissons Ratio (z) = 0.03445 0.20132
#
# Static dielectric constant tensor:
#      x y z
#    x 1.929380 0.000000 0.033420 
#    y 0.000000 1.801370 0.000000 
#    z 0.033420 0.000000 1.831670 
# 
# From -- ./inp_files/197476.got.cif
#   From: 2010.05.17/outbox.cif.g08.bks.cpg/sg15_99_cif.got.tgz:197476.got - 2010.06.03 18:47:42.
