data_PCOD9271193
_publ_section_title
;
Structure prediction by ZEFSAII (Michael W. Deem and Ramdas Pophale) SiO2 
 PCOD9271193
Probable space group: C 2/C
;
_chemical_formula_sum "Si O2"
_cell_formula_units_Z 32
_cell_length_a 5.038055
_cell_length_b 19.725357
_cell_length_c 15.971372
_cell_angle_alpha 90.000000
_cell_angle_beta 89.115813
_cell_angle_gamma 90.000000
_cell_volume 1587.004970
_symmetry_space_group_name_H-M "C 2/C"
_symmetry_group_IT_number 15
_symmetry_cell_setting 'monoclinic'
loop_
_space_group_symop_operation_xyz
x,y,z
-x,y,1/2-z
-x,-y,-z
x,-y,1/2+z
1/2+x,1/2+y,z
1/2-x,1/2+y,1/2-z
1/2-x,1/2-y,-z
1/2+x,1/2-y,1/2+z
loop_
_atom_site_type_symbol
_atom_site_label
_atom_site_fract_x
_atom_site_fract_y
_atom_site_fract_z
Si Si1 0.756138 0.629080 0.689283
Si Si2 0.118193 0.577221 0.155179
Si Si3 0.244504 0.220118 0.310469
Si Si4 0.877189 0.997325 0.908823
O O1 0.500000 0.629626 0.750000
O O2 0.797347 0.704907 0.652161
O O3 0.715205 0.570835 0.622057
O O4 0.000000 0.613860 0.750000
O O5 0.204654 0.654269 0.133750
O O6 0.380738 0.531420 0.148462
O O7 0.000000 0.575899 0.250000
O O8 0.881262 0.550161 0.098310
O O9 0.500000 0.225911 0.250000
O O10 0.000000 0.204849 0.250000
O O11 0.000000 0.000000 0.000000
#
# Coordination Sequence:
#
# PCOD9271193 Si02
#       4
#     8   8   8   8
#     4  10  20  36  58  81 108 144 186 229 275 327
#     4  11  21  38  61  82 106 146 192 231 272 328
#     4   9  18  33  56  84 106 133 185 240 273 315
#     4  12  24  37  54  85 120 149 182 228 278 330
#
# _framework density 20.163768999999998
#
# number of rings (size 3 to 8) (size 9 to 14) (size 15 to 20)
#    0.000    1.500    0.000    8.250    0.000    0.000 
#    0.000    2.500    0.000    0.000    0.000    0.000 
#    0.000    0.000    0.000    0.000    0.000    0.000 
#
# Total GULP energy -89371.851425 kJ/mol
# GULP energy per Si atom -5585.740714 kJ/mol
# Density = 2.011788 g / cm^3
# Si number density = 20.163769 Si / 1000 Ang^3
#
#
#
# Elastic Constant Matrix: (Units=GPa)
#
#
# Indices 1 2 3 4 5 6 
#
# 1 153.3438 56.0404 25.2932 0.0000 33.3045 0.0000
# 2 56.0404 197.7232 63.1611 0.0000 40.9139 0.0000
# 3 25.2932 63.1611 55.7731 0.0000 28.3436 0.0000
# 4 0.0000 0.0000 0.0000 -4.8188 0.0000 9.5174
# 5 33.3045 40.9139 28.3436 0.0000 36.9693 0.0000
# 6 0.0000 0.0000 0.0000 9.5174 0.0000 35.8272
#
#
#
# Elastic Compliance Matrix: (Units=1/GPa)
#
#
# Indices 1 2 3 4 5 6 
#
# 1 0.008315 -0.001315 0.001286 0.000000 -0.007022 0.000000
# 2 -0.001315 0.008354 -0.007812 0.000000 -0.002073 0.000000
# 3 0.001286 -0.007812 0.036680 0.000000 -0.020635 0.000000
# 4 0.000000 0.000000 0.000000 -0.136108 0.000000 0.036157
# 5 -0.007022 -0.002073 -0.020635 0.000000 0.051490 0.000000
# 6 0.000000 0.000000 0.000000 0.036157 0.000000 0.018307
#
#
# Mechanical properties :
#
#
# Convention : Reuss Voigt Hill
#
# Bulk Modulus (GPa) = 26.54698 77.31441 51.93070
# Shear Modulus (GPa) = 327.38136 31.08522 179.23329
#
# Velocity S-wave (km/s) = 12.75593 3.93063 9.43831
# Velocity P-wave (km/s) = 15.17056 7.68286 12.02439
#
# Compressibility (1/GPa) = 0.03766907
#
# Stress axis : x y z
#
# Youngs Moduli (GPa) = 120.27087 119.69770 27.26312
#
# Poissons Ratio (x) = 0.15735 -0.03507
# Poissons Ratio (y) = 0.15810 0.21297
# Poissons Ratio (z) = -0.15473 0.93504
#
# Static dielectric constant tensor:
#      x y z
#    x 1.667320 0.000000 -0.015070 
#    y 0.000000 1.797500 0.000000 
#    z -0.015070 0.000000 1.677790 
# 
# From -- ./inp_files/72228.got.cif
#   From: 2010.05.17/outbox.cif.g08.bks.cpg/sg15_37_cif.got.tgz:72228.got - 2010.06.03 18:47:42.
