data_PCOD9271202
_publ_section_title
;
Structure prediction by ZEFSAII (Michael W. Deem and Ramdas Pophale) SiO2 
 PCOD9271202
Probable space group: C 2/C
;
_chemical_formula_sum "Si O2"
_cell_formula_units_Z 36
_cell_length_a 16.177247
_cell_length_b 24.288103
_cell_length_c 15.326164
_cell_angle_alpha 90.000000
_cell_angle_beta 161.720768
_cell_angle_gamma 90.000000
_cell_volume 1888.750598
_symmetry_space_group_name_H-M "C 2/C"
_symmetry_group_IT_number 15
_symmetry_cell_setting 'monoclinic'
loop_
_space_group_symop_operation_xyz
x,y,z
-x,y,1/2-z
-x,-y,-z
x,-y,1/2+z
1/2+x,1/2+y,z
1/2-x,1/2+y,1/2-z
1/2-x,1/2-y,-z
1/2+x,1/2-y,1/2+z
loop_
_atom_site_type_symbol
_atom_site_label
_atom_site_fract_x
_atom_site_fract_y
_atom_site_fract_z
Si Si1 0.119522 0.451562 0.680023
Si Si2 0.532940 0.711656 0.973924
Si Si3 0.000000 0.210106 0.750000
Si Si4 0.740025 0.040807 0.931719
Si Si5 0.640609 0.603241 0.627366
O O1 0.160190 0.480967 0.813061
O O2 0.000000 0.500000 0.500000
O O3 0.900807 0.404300 0.448553
O O4 0.400427 0.432768 0.924987
O O5 0.507197 0.682389 0.852148
O O6 0.461918 0.665478 0.972604
O O7 0.318437 0.760515 0.765206
O O8 0.750000 0.250000 0.500000
O O9 0.500000 0.061473 0.750000
O O10 0.792536 0.080246 0.901456
O O11 0.000000 0.036594 0.250000
#
# Coordination Sequence:
#
# PCOD9271202 Si02
#       5
#     8   8   4   8   8
#     4  10  20  37  56  80 112 148 186 232 280 331
#     4  10  20  36  58  82 110 145 187 232 278 334
#     4   8  16  32  52  72 102 134 170 224 274 314
#     4  11  21  36  57  82 116 150 187 230 281 338
#     4  11  21  37  60  83 113 153 190 230 282 338
#
# _framework density 19.060217999999999
#
# number of rings (size 3 to 8) (size 9 to 14) (size 15 to 20)
#    0.000    1.778    0.000    8.000    0.000    0.000 
#    6.000    0.000    0.000    4.000    0.000    0.000 
#    0.000    0.000    0.000    0.000    0.000    0.000 
#
# Total GULP energy -100405.806387 kJ/mol
# GULP energy per Si atom -5578.100355 kJ/mol
# Density = 1.901684 g / cm^3
# Si number density = 19.060218 Si / 1000 Ang^3
#
#
#
# Elastic Constant Matrix: (Units=GPa)
#
#
# Indices 1 2 3 4 5 6 
#
# 1 102.3618 28.5207 38.5291 -0.0042 8.4705 0.0154
# 2 28.5207 41.7076 -3.2495 0.0024 0.7673 -0.0054
# 3 38.5291 -3.2495 108.6056 0.0095 9.0781 -0.0263
# 4 -0.0042 0.0024 0.0095 16.1215 -0.0032 41.1877
# 5 8.4705 0.7673 9.0781 -0.0032 37.2519 0.0128
# 6 0.0154 -0.0054 -0.0263 41.1877 0.0128 -167.8074
#
#
#
# Elastic Compliance Matrix: (Units=1/GPa)
#
#
# Indices 1 2 3 4 5 6 
#
# 1 0.014931 -0.010602 -0.005460 0.000001 -0.001846 0.000003
# 2 -0.010602 0.031577 0.004654 -0.000002 0.000626 -0.000003
# 3 -0.005460 0.004654 0.011421 -0.000002 -0.001638 -0.000003
# 4 0.000001 -0.000002 -0.000002 0.038123 0.000000 0.009357
# 5 -0.001846 0.000626 -0.001638 0.000000 0.027650 0.000002
# 6 0.000003 -0.000003 -0.000003 0.009357 0.000002 -0.003663
#
#
# Mechanical properties :
#
#
# Convention : Reuss Voigt Hill
#
# Bulk Modulus (GPa) = 28.47951 42.25284 35.36618
# Shear Modulus (GPa) = 32.34993 -10.29516 11.02738
#
# Velocity S-wave (km/s) = 4.12424 -2.32661 2.40793
# Velocity P-wave (km/s) = 6.13624 3.87282 5.13089
#
# Compressibility (1/GPa) = 0.03511296
#
# Stress axis : x y z
#
# Youngs Moduli (GPa) = 66.97463 31.66843 87.56038
#
# Poissons Ratio (x) = 0.33574 0.47807
# Poissons Ratio (y) = 0.71004 -0.40746
# Poissons Ratio (z) = 0.36567 -0.14737
#
# Static dielectric constant tensor:
#      x y z
#    x 1.687900 0.000000 -0.017230 
#    y 0.000000 1.671900 0.000000 
#    z -0.017230 0.000000 1.654090 
# 
# From -- ./inp_files/7213.got.cif
#   From: 2010.05.17/outbox.cif.g08.bks.cpg/sg15_4_cif.got.tgz:7213.got - 2010.06.03 18:47:42.
