data_PCOD9271427
_publ_section_title
;
Structure prediction by ZEFSAII (Michael W. Deem and Ramdas Pophale) SiO2 
 PCOD9271427
Probable space group: C 2/C
;
_chemical_formula_sum "Si O2"
_cell_formula_units_Z 56
_cell_length_a 15.162375
_cell_length_b 11.595697
_cell_length_c 14.550297
_cell_angle_alpha 90.000000
_cell_angle_beta 81.171644
_cell_angle_gamma 90.000000
_cell_volume 2527.900319
_symmetry_space_group_name_H-M "C 2/C"
_symmetry_group_IT_number 15
_symmetry_cell_setting 'monoclinic'
loop_
_space_group_symop_operation_xyz
x,y,z
-x,y,1/2-z
-x,-y,-z
x,-y,1/2+z
1/2+x,1/2+y,z
1/2-x,1/2+y,1/2-z
1/2-x,1/2-y,-z
1/2+x,1/2-y,1/2+z
loop_
_atom_site_type_symbol
_atom_site_label
_atom_site_fract_x
_atom_site_fract_y
_atom_site_fract_z
Si Si1 0.780916 0.953599 0.146952
Si Si2 0.575405 0.630155 0.310253
Si Si3 0.160211 0.507974 0.340913
Si Si4 0.786705 0.789846 0.861486
Si Si5 0.004591 0.686454 0.347948
Si Si6 0.633481 0.031555 0.037688
Si Si7 0.445773 0.774763 0.460614
O O1 0.779987 0.816782 0.136723
O O2 0.728159 0.004599 0.068334
O O3 0.870722 0.024757 0.151865
O O4 0.713253 0.966235 0.244495
O O5 0.500000 0.588174 0.250000
O O6 0.649735 0.698031 0.238253
O O7 0.523063 0.716208 0.386843
O O8 0.227418 0.598014 0.377829
O O9 0.137481 0.427608 0.431078
O O10 0.074170 0.580479 0.324384
O O11 0.854004 0.776004 0.934950
O O12 0.912320 0.627462 0.392253
O O13 0.000000 0.747944 0.250000
O O14 0.034267 0.750016 0.436141
O O15 0.573050 0.913437 0.047230
#
# Coordination Sequence:
#
# PCOD9271427 Si02
#       7
#     8   8   8   8   8   8   8
#     4  10  20  36  59  86 118 153 192 251 286 344
#     4   9  19  37  61  88 118 154 204 240 287 352
#     4  10  20  37  57  86 119 149 200 244 287 350
#     4   9  20  35  61  87 112 158 201 240 285 348
#     4  11  21  34  55  85 121 147 188 243 306 342
#     4  10  21  34  59  85 111 156 188 247 296 346
#     4   9  19  34  57  86 111 155 197 241 279 353
#
# _framework density 22.152771000000001
#
# number of rings (size 3 to 8) (size 9 to 14) (size 15 to 20)
#    0.000    2.286    1.429    1.714    4.000    5.714 
#    0.000    2.857    0.000   19.714    0.000    0.000 
#    0.000    1.143    0.000    0.000    0.000    0.000 
#
# Total GULP energy -156342.503831 kJ/mol
# GULP energy per Si atom -5583.660851 kJ/mol
# Density = 2.210235 g / cm^3
# Si number density = 22.152771 Si / 1000 Ang^3
#
#
#
# Elastic Constant Matrix: (Units=GPa)
#
#
# Indices 1 2 3 4 5 6 
#
# 1 96.0051 35.0606 25.7288 0.0000 10.0099 0.0000
# 2 35.0606 44.0088 25.0923 0.0000 7.0816 0.0000
# 3 25.7288 25.0923 142.4406 0.0000 16.5063 0.0000
# 4 0.0000 0.0000 0.0000 9.7530 0.0000 4.6311
# 5 10.0099 7.0816 16.5063 0.0000 39.0567 0.0000
# 6 0.0000 0.0000 0.0000 4.6311 0.0000 30.3769
#
#
#
# Elastic Compliance Matrix: (Units=1/GPa)
#
#
# Indices 1 2 3 4 5 6 
#
# 1 0.014832 -0.011275 -0.000514 0.000000 -0.001540 0.000000
# 2 -0.011275 0.034134 -0.003779 0.000000 -0.001702 0.000000
# 3 -0.000514 -0.003779 0.008080 0.000000 -0.002598 0.000000
# 4 0.000000 0.000000 0.000000 0.110534 0.000000 -0.016851
# 5 -0.001540 -0.001702 -0.002598 0.000000 0.027405 0.000000
# 6 0.000000 0.000000 0.000000 -0.016851 0.000000 0.035489
#
#
# Mechanical properties :
#
#
# Convention : Reuss Voigt Hill
#
# Bulk Modulus (GPa) = 38.59727 50.46866 44.53296
# Shear Modulus (GPa) = 18.50150 28.94219 23.72185
#
# Velocity S-wave (km/s) = 2.89308 3.61845 3.27590
# Velocity P-wave (km/s) = 5.34985 6.34737 5.86984
#
# Compressibility (1/GPa) = 0.02590857
#
# Stress axis : x y z
#
# Youngs Moduli (GPa) = 67.42090 29.29621 123.75981
#
# Poissons Ratio (x) = 0.33032 0.06367
# Poissons Ratio (y) = 0.76019 0.46771
# Poissons Ratio (z) = 0.03468 0.11072
#
# Static dielectric constant tensor:
#      x y z
#    x 1.831640 0.000000 -0.040500 
#    y 0.000000 1.809960 0.000000 
#    z -0.040500 0.000000 1.886170 
# 
# From -- ./inp_files/152591.got.cif
#   From: 2010.05.17/outbox.cif.g08.bks.cpg/sg15_77_cif.got.tgz:152591.got - 2010.06.03 18:47:42.
