data_PCOD9271225
_publ_section_title
;
Structure prediction by ZEFSAII (Michael W. Deem and Ramdas Pophale) SiO2 
 PCOD9271225
Probable space group: C 2/C
;
_chemical_formula_sum "Si O2"
_cell_formula_units_Z 44
_cell_length_a 29.291778
_cell_length_b 10.931920
_cell_length_c 16.480258
_cell_angle_alpha 90.000000
_cell_angle_beta 25.823121
_cell_angle_gamma 90.000000
_cell_volume 2298.732571
_symmetry_space_group_name_H-M "C 2/C"
_symmetry_group_IT_number 15
_symmetry_cell_setting 'monoclinic'
loop_
_space_group_symop_operation_xyz
x,y,z
-x,y,1/2-z
-x,-y,-z
x,-y,1/2+z
1/2+x,1/2+y,z
1/2-x,1/2+y,1/2-z
1/2-x,1/2-y,-z
1/2+x,1/2-y,1/2+z
loop_
_atom_site_type_symbol
_atom_site_label
_atom_site_fract_x
_atom_site_fract_y
_atom_site_fract_z
Si Si1 0.000000 0.523143 0.250000
Si Si2 0.760228 0.686082 0.861534
Si Si3 0.110849 0.951422 0.113161
Si Si4 0.638520 0.100902 0.650031
Si Si5 0.294281 0.372748 0.388091
Si Si6 0.193048 0.296511 0.400717
O O1 0.032879 0.439072 0.273832
O O2 0.902749 0.610257 0.428453
O O3 0.858286 0.655166 0.764205
O O4 0.788677 0.709655 0.723627
O O5 0.683499 0.569531 0.987831
O O6 0.699021 0.800430 0.998017
O O7 0.107445 0.913768 0.214367
O O8 0.000000 0.974905 0.250000
O O9 0.161514 0.835783 0.985794
O O10 0.709522 0.979298 0.537996
O O11 0.250000 0.250000 0.500000
O O12 0.291900 0.345726 0.295924
#
# Coordination Sequence:
#
# PCOD9271225 Si02
#       6
#     4   8   8   8   8   8
#     4  10  20  36  60  82 110 150 194 236 270 334
#     4  10  22  37  58  82 116 152 184 228 295 337
#     4  10  20  37  57  81 114 148 186 235 282 331
#     4   9  20  38  57  81 116 150 184 235 283 332
#     4   8  17  35  58  77 111 150 182 223 284 328
#     4  10  20  36  58  84 110 150 191 231 278 341
#
# _framework density 19.140982999999999
#
# number of rings (size 3 to 8) (size 9 to 14) (size 15 to 20)
#    0.000    2.545    0.909    0.000    6.364    0.727 
#    0.000    2.727    0.000    0.000    0.000    0.000 
#    0.000    0.000    0.000    0.000    0.000    0.000 
#
# Total GULP energy -122546.318699 kJ/mol
# GULP energy per Si atom -5570.287214 kJ/mol
# Density = 1.909742 g / cm^3
# Si number density = 19.140983 Si / 1000 Ang^3
#
#
#
# Elastic Constant Matrix: (Units=GPa)
#
#
# Indices 1 2 3 4 5 6 
#
# 1 178.8859 45.4686 41.7603 0.0000 11.0198 0.0000
# 2 45.4686 104.9059 14.8104 0.0000 -0.1236 0.0000
# 3 41.7603 14.8104 20.6832 0.0000 9.5229 0.0000
# 4 0.0000 0.0000 0.0000 7.2105 0.0000 -1.0127
# 5 11.0198 -0.1236 9.5229 0.0000 39.9735 0.0000
# 6 0.0000 0.0000 0.0000 -1.0127 0.0000 35.4515
#
#
#
# Elastic Compliance Matrix: (Units=1/GPa)
#
#
# Indices 1 2 3 4 5 6 
#
# 1 0.011040 -0.001659 -0.022126 0.000000 0.002222 0.000000
# 2 -0.001659 0.011008 -0.005346 0.000000 0.001765 0.000000
# 3 -0.022126 -0.005346 0.105636 0.000000 -0.019083 0.000000
# 4 0.000000 0.000000 0.000000 0.139246 0.000000 0.003978
# 5 0.002222 0.001765 -0.019083 0.000000 0.028955 0.000000
# 6 0.000000 0.000000 0.000000 0.003978 0.000000 0.028321
#
#
# Mechanical properties :
#
#
# Convention : Reuss Voigt Hill
#
# Bulk Modulus (GPa) = 14.40455 56.50595 35.45525
# Shear Modulus (GPa) = 12.32716 30.02280 21.17498
#
# Velocity S-wave (km/s) = 2.54051 3.96474 3.32966
# Velocity P-wave (km/s) = 4.01838 7.10942 5.77457
#
# Compressibility (1/GPa) = 0.06942251
#
# Stress axis : x y z
#
# Youngs Moduli (GPa) = 90.57915 90.84232 9.46651
#
# Poissons Ratio (x) = 0.15068 0.20946
# Poissons Ratio (y) = 0.15025 0.05061
# Poissons Ratio (z) = 2.00414 0.48564
#
# Static dielectric constant tensor:
#      x y z
#    x 1.753910 0.000000 -0.010760 
#    y 0.000000 1.652660 0.000000 
#    z -0.010760 0.000000 1.627760 
# 
# From -- ./inp_files/118104.got.cif
#   From: 2010.05.17/outbox.cif.g08.bks.cpg/sg15_60_cif.got.tgz:118104.got - 2010.06.03 18:47:42.
