data_PCOD9271620
_publ_section_title
;
Structure prediction by ZEFSAII (Michael W. Deem and Ramdas Pophale) SiO2 
 PCOD9271620
Probable space group: C 2/C
;
_chemical_formula_sum "Si O2"
_cell_formula_units_Z 56
_cell_length_a 11.338207
_cell_length_b 20.022033
_cell_length_c 18.941019
_cell_angle_alpha 90.000000
_cell_angle_beta 48.474358
_cell_angle_gamma 90.000000
_cell_volume 3219.141013
_symmetry_space_group_name_H-M "C 2/C"
_symmetry_group_IT_number 15
_symmetry_cell_setting 'monoclinic'
loop_
_space_group_symop_operation_xyz
x,y,z
-x,y,1/2-z
-x,-y,-z
x,-y,1/2+z
1/2+x,1/2+y,z
1/2-x,1/2+y,1/2-z
1/2-x,1/2-y,-z
1/2+x,1/2-y,1/2+z
loop_
_atom_site_type_symbol
_atom_site_label
_atom_site_fract_x
_atom_site_fract_y
_atom_site_fract_z
Si Si1 0.000000 0.491285 0.250000
Si Si2 0.656454 0.104644 0.280232
Si Si3 0.194002 0.395382 0.070946
Si Si4 0.806632 0.257286 0.057492
Si Si5 0.124807 0.756274 0.638671
Si Si6 0.410379 0.143046 0.039750
Si Si7 0.000000 0.282605 0.750000
Si Si8 0.472923 0.348313 0.583240
O O1 0.098165 0.539598 0.262420
O O2 0.113612 0.446906 0.155825
O O3 0.625676 0.100856 0.375697
O O4 0.555175 0.167823 0.290902
O O5 0.835257 0.119553 0.185220
O O6 0.157770 0.321058 0.113921
O O7 0.121486 0.396182 0.020515
O O8 0.384221 0.398207 0.990968
O O9 0.649969 0.259930 0.167351
O O10 0.894975 0.189348 0.047791
O O11 0.750000 0.250000 0.000000
O O12 0.921106 0.320297 0.023249
O O13 0.281988 0.797173 0.592756
O O14 0.000000 0.765463 0.750000
O O15 0.051312 0.789203 0.598151
#
# Coordination Sequence:
#
# PCOD9271620 Si02
#       8
#     4   8   8   8   8   8   4   8
#     4  11  26  42  54  80 114 164 203 230 278 347
#     4  10  21  38  57  79 112 155 203 227 276 339
#     4  11  22  37  59  88 120 149 191 239 295 344
#     4  11  19  32  54  90 121 150 183 227 303 354
#     4  11  18  33  60  96 119 140 179 236 308 352
#     4  11  20  35  61  90 115 147 187 246 291 354
#     4   9  20  32  52  80 120 154 179 234 276 355
#     4  10  20  36  60  89 116 145 186 245 295 350
#
# _framework density 17.395945000000001
#
# number of rings (size 3 to 8) (size 9 to 14) (size 15 to 20)
#    0.000    1.429    6.429    0.857    0.000    1.143 
#    2.571    0.000    0.000    0.000    0.000    0.000 
#    0.000    0.000    0.000    0.000    0.000    0.000 
#
# Total GULP energy -156262.939284 kJ/mol
# GULP energy per Si atom -5580.819260 kJ/mol
# Density = 1.735635 g / cm^3
# Si number density = 17.395945 Si / 1000 Ang^3
#
#
#
# Elastic Constant Matrix: (Units=GPa)
#
#
# Indices 1 2 3 4 5 6 
#
# 1 105.4021 33.9908 63.3532 0.0001 -2.4844 0.0000
# 2 33.9908 73.7983 53.5955 0.0000 -3.9823 0.0000
# 3 63.3532 53.5955 138.9982 0.0000 -5.0554 0.0000
# 4 0.0001 0.0000 0.0000 16.6176 0.0000 5.1146
# 5 -2.4844 -3.9823 -5.0554 0.0000 42.3959 0.0000
# 6 0.0000 0.0000 0.0000 5.1146 0.0000 3.7902
#
#
#
# Elastic Compliance Matrix: (Units=1/GPa)
#
#
# Indices 1 2 3 4 5 6 
#
# 1 0.013368 -0.002408 -0.005167 0.000000 -0.000059 0.000000
# 2 -0.002408 0.019289 -0.006307 0.000000 0.000919 0.000000
# 3 -0.005167 -0.006307 0.012000 0.000000 0.000536 0.000000
# 4 0.000000 0.000000 0.000000 0.102924 0.000000 -0.138887
# 5 -0.000059 0.000919 0.000536 0.000000 0.023734 -0.000001
# 6 0.000000 0.000000 0.000000 -0.138887 -0.000001 0.451254
#
#
# Mechanical properties :
#
#
# Convention : Reuss Voigt Hill
#
# Bulk Modulus (GPa) = 59.18884 68.89752 64.04318
# Shear Modulus (GPa) = 7.62237 23.71134 15.66685
#
# Velocity S-wave (km/s) = 2.09552 3.69594 3.00426
# Velocity P-wave (km/s) = 6.32086 7.60952 6.99493
#
# Compressibility (1/GPa) = 0.01689508
#
# Stress axis : x y z
#
# Youngs Moduli (GPa) = 74.80477 51.84195 83.33063
#
# Poissons Ratio (x) = 0.12485 0.43053
# Poissons Ratio (y) = 0.18015 0.52554
# Poissons Ratio (z) = 0.38648 0.32695
#
# Static dielectric constant tensor:
#      x y z
#    x 1.617280 0.000000 -0.001350 
#    y 0.000000 1.559440 0.000000 
#    z -0.001350 0.000000 1.613690 
# 
# From -- ./inp_files/146192.got.cif
#   From: 2010.05.17/outbox.cif.g08.bks.cpg/sg15_74_cif.got.tgz:146192.got - 2010.06.03 18:47:42.
