data_PCOD9271321
_publ_section_title
;
Structure prediction by ZEFSAII (Michael W. Deem and Ramdas Pophale) SiO2 
 PCOD9271321
Probable space group: C 2/C
;
_chemical_formula_sum "Si O2"
_cell_formula_units_Z 60
_cell_length_a 11.206980
_cell_length_b 23.450767
_cell_length_c 17.104090
_cell_angle_alpha 90.000000
_cell_angle_beta 42.114194
_cell_angle_gamma 90.000000
_cell_volume 3014.504331
_symmetry_space_group_name_H-M "C 2/C"
_symmetry_group_IT_number 15
_symmetry_cell_setting 'monoclinic'
loop_
_space_group_symop_operation_xyz
x,y,z
-x,y,1/2-z
-x,-y,-z
x,-y,1/2+z
1/2+x,1/2+y,z
1/2-x,1/2+y,1/2-z
1/2-x,1/2-y,-z
1/2+x,1/2-y,1/2+z
loop_
_atom_site_type_symbol
_atom_site_label
_atom_site_fract_x
_atom_site_fract_y
_atom_site_fract_z
Si Si1 0.440742 0.853657 0.114232
Si Si2 0.942184 0.201921 0.689001
Si Si3 0.514785 0.621421 0.961255
Si Si4 0.792494 0.184370 0.499996
Si Si5 0.869096 0.687740 0.135781
Si Si6 0.829008 0.413640 0.777731
Si Si7 0.649738 0.044917 0.745612
Si Si8 0.000000 0.184226 0.250000
O O1 0.264546 0.816962 0.213389
O O2 0.397187 0.919295 0.153500
O O3 0.596965 0.841365 0.100131
O O4 0.522445 0.834649 0.991768
O O5 0.038597 0.152260 0.593266
O O6 0.966110 0.262485 0.635658
O O7 0.000000 0.204569 0.750000
O O8 0.669286 0.574905 0.873025
O O9 0.597034 0.671289 0.976497
O O10 0.346696 0.595324 0.085535
O O11 0.750000 0.250000 0.500000
O O12 0.903858 0.156876 0.373065
O O13 0.833654 0.633889 0.208406
O O14 0.675221 0.712227 0.203099
O O15 0.828737 0.478299 0.747286
O O16 0.000000 0.405889 0.750000
O O17 0.500000 0.049256 0.750000
#
# Coordination Sequence:
#
# PCOD9271321 Si02
#       8
#     8   8   8   8   8   8   8   4
#     4  10  23  39  65  93 127 169 210 268 326 383
#     4  11  26  41  62  91 135 171 210 264 327 402
#     4  11  22  42  68  92 128 171 219 269 326 395
#     4  11  20  35  63  96 127 158 204 264 329 389
#     4  11  23  40  63  95 129 167 211 268 326 393
#     4  11  25  41  66  93 128 176 223 265 318 392
#     4  10  21  43  66  94 126 168 221 272 324 383
#     4  10  20  36  58  90 128 154 204 256 324 372
#
# _framework density 19.903770999999999
#
# number of rings (size 3 to 8) (size 9 to 14) (size 15 to 20)
#    0.000    1.333    2.667    3.200    3.733    2.133 
#    0.000    0.000    5.867    0.000    0.000    0.000 
#    0.000    0.000    0.000    0.000    0.000    0.000 
#
# Total GULP energy -167383.019079 kJ/mol
# GULP energy per Si atom -5579.433969 kJ/mol
# Density = 1.985847 g / cm^3
# Si number density = 19.903771 Si / 1000 Ang^3
#
#
#
# Elastic Constant Matrix: (Units=GPa)
#
#
# Indices 1 2 3 4 5 6 
#
# 1 72.2387 35.8392 14.3793 -0.0001 10.3763 0.0000
# 2 35.8392 124.1063 39.9091 0.0000 3.4171 0.0000
# 3 14.3793 39.9091 83.7477 -0.0006 -3.2642 0.0003
# 4 -0.0001 0.0000 -0.0006 18.2850 0.0004 4.5793
# 5 10.3763 3.4171 -3.2642 0.0004 30.6960 -0.0001
# 6 0.0000 0.0000 0.0003 4.5793 -0.0001 17.7757
#
#
#
# Elastic Compliance Matrix: (Units=1/GPa)
#
#
# Indices 1 2 3 4 5 6 
#
# 1 0.017019 -0.004440 -0.001015 0.000000 -0.005367 0.000000
# 2 -0.004440 0.010748 -0.004366 0.000000 -0.000160 0.000000
# 3 -0.001015 -0.004366 0.014287 0.000000 0.002348 0.000000
# 4 0.000000 0.000000 0.000000 0.058461 -0.000001 -0.015060
# 5 -0.005367 -0.000160 0.002348 -0.000001 0.034659 0.000000
# 6 0.000000 0.000000 0.000000 -0.015060 0.000000 0.060136
#
#
# Mechanical properties :
#
#
# Convention : Reuss Voigt Hill
#
# Bulk Modulus (GPa) = 44.62059 51.14978 47.88518
# Shear Modulus (GPa) = 22.47955 26.01567 24.24761
#
# Velocity S-wave (km/s) = 3.36432 3.61927 3.49412
# Velocity P-wave (km/s) = 6.12849 6.57418 6.35524
#
# Compressibility (1/GPa) = 0.02241118
#
# Stress axis : x y z
#
# Youngs Moduli (GPa) = 58.75804 93.03858 69.99406
#
# Poissons Ratio (x) = 0.41314 0.07106
# Poissons Ratio (y) = 0.26091 0.30558
# Poissons Ratio (z) = 0.05965 0.40618
#
# Static dielectric constant tensor:
#      x y z
#    x 1.716280 0.000000 0.003070 
#    y 0.000000 1.700470 0.000000 
#    z 0.003070 0.000000 1.722210 
# 
# From -- ./inp_files/148091.got.cif
#   From: 2010.05.17/outbox.cif.g08.bks.cpg/sg15_75_cif.got.tgz:148091.got - 2010.06.03 18:47:42.
