data_PCOD9271968
_publ_section_title
;
Structure prediction by ZEFSAII (Michael W. Deem and Ramdas Pophale) SiO2 
 PCOD9271968
Probable space group: C 2/C
;
_chemical_formula_sum "Si O2"
_cell_formula_units_Z 52
_cell_length_a 14.981287
_cell_length_b 19.138840
_cell_length_c 17.382580
_cell_angle_alpha 90.000000
_cell_angle_beta 149.162677
_cell_angle_gamma 90.000000
_cell_volume 2554.815340
_symmetry_space_group_name_H-M "C 2/C"
_symmetry_group_IT_number 15
_symmetry_cell_setting 'monoclinic'
loop_
_space_group_symop_operation_xyz
x,y,z
-x,y,1/2-z
-x,-y,-z
x,-y,1/2+z
1/2+x,1/2+y,z
1/2-x,1/2+y,1/2-z
1/2-x,1/2-y,-z
1/2+x,1/2-y,1/2+z
loop_
_atom_site_type_symbol
_atom_site_label
_atom_site_fract_x
_atom_site_fract_y
_atom_site_fract_z
Si Si1 0.601114 0.194037 0.404722
Si Si2 0.500000 0.489345 0.750000
Si Si3 0.000000 0.523053 0.750000
Si Si4 0.500000 0.276382 0.750000
Si Si5 0.201884 0.614296 0.025788
Si Si6 0.407667 0.207744 0.841707
Si Si7 0.296709 0.420320 0.983979
Si Si8 0.990745 0.200180 0.945577
O O1 0.500000 0.190127 0.250000
O O2 0.750000 0.250000 0.500000
O O3 0.693161 0.119360 0.477014
O O4 0.499444 0.229651 0.398681
O O5 0.662164 0.442283 0.842323
O O6 0.561143 0.534189 0.867503
O O7 0.907690 0.573288 0.620024
O O8 0.843907 0.470740 0.660976
O O9 0.662869 0.324285 0.898287
O O10 0.437429 0.231185 0.775800
O O11 0.057027 0.651173 0.970870
O O12 0.211840 0.179780 0.704181
O O13 0.440560 0.273864 0.921376
O O14 0.388473 0.361353 0.999630
#
# Coordination Sequence:
#
# PCOD9271968 Si02
#       8
#     8   4   4   4   8   8   8   8
#     4  10  20  36  62  94 130 171 204 258 321 379
#     4   9  22  40  68  88 126 181 224 238 304 411
#     4  10  21  40  72  88 125 180 222 244 306 406
#     4  11  23  44  68  92 123 167 218 276 332 377
#     4  10  22  42  66  91 120 171 222 260 312 386
#     4  12  24  42  65 100 125 165 212 282 331 369
#     4  10  21  40  65  95 128 176 210 255 315 398
#     4  11  25  37  65 102 135 157 211 279 328 368
#
# _framework density 20.353721
#
# number of rings (size 3 to 8) (size 9 to 14) (size 15 to 20)
#    0.000    1.538    2.308    2.769    8.615    0.000 
#    0.000    1.538    0.000    0.000    0.000    0.000 
#    0.000    0.000    0.000    0.000    0.000    0.000 
#
# Total GULP energy -144948.927413 kJ/mol
# GULP energy per Si atom -5574.958747 kJ/mol
# Density = 2.030739 g / cm^3
# Si number density = 20.353721 Si / 1000 Ang^3
#
#
#
# Elastic Constant Matrix: (Units=GPa)
#
#
# Indices 1 2 3 4 5 6 
#
# 1 89.4646 39.0528 37.7324 0.0011 10.4152 0.0011
# 2 39.0528 103.6565 54.1462 0.0009 7.9706 0.0015
# 3 37.7324 54.1462 136.1259 0.0000 24.1821 0.0018
# 4 0.0011 0.0009 0.0000 43.6574 0.0018 10.8223
# 5 10.4152 7.9706 24.1821 0.0018 30.9982 0.0015
# 6 0.0011 0.0015 0.0018 10.8223 0.0015 24.8348
#
#
#
# Elastic Compliance Matrix: (Units=1/GPa)
#
#
# Indices 1 2 3 4 5 6 
#
# 1 0.014024 -0.004150 -0.001845 0.000000 -0.002206 0.000000
# 2 -0.004150 0.013421 -0.004438 0.000000 0.001405 0.000000
# 3 -0.001845 -0.004438 0.010807 0.000000 -0.006670 0.000000
# 4 0.000000 0.000000 0.000000 0.025680 -0.000001 -0.011190
# 5 -0.002206 0.001405 -0.006670 -0.000001 0.037843 -0.000001
# 6 0.000000 0.000000 0.000000 -0.011190 -0.000001 0.045143
#
#
# Mechanical properties :
#
#
# Convention : Reuss Voigt Hill
#
# Bulk Modulus (GPa) = 57.51326 65.67888 61.59607
# Shear Modulus (GPa) = 28.80536 33.11912 30.96224
#
# Velocity S-wave (km/s) = 3.76605 4.03821 3.90450
# Velocity P-wave (km/s) = 6.87234 7.35402 7.11725
#
# Compressibility (1/GPa) = 0.01738729
#
# Stress axis : x y z
#
# Youngs Moduli (GPa) = 71.30580 74.51060 92.52857
#
# Poissons Ratio (x) = 0.30926 0.17067
# Poissons Ratio (y) = 0.29595 0.41060
# Poissons Ratio (z) = 0.13153 0.33065
#
# Static dielectric constant tensor:
#      x y z
#    x 1.722720 0.000000 -0.003030 
#    y 0.000000 1.755880 0.000000 
#    z -0.003030 0.000000 1.733820 
# 
# From -- ./inp_files/40849.got.cif
#   From: 2010.05.17/outbox.cif.g08.bks.cpg/sg15_21_cif.got.tgz:40849.got - 2010.06.03 18:47:42.
