data_PCOD9271484
_publ_section_title
;
Structure prediction by ZEFSAII (Michael W. Deem and Ramdas Pophale) SiO2 
 PCOD9271484
Probable space group: C 2/C
;
_chemical_formula_sum "Si O2"
_cell_formula_units_Z 64
_cell_length_a 12.126321
_cell_length_b 27.967381
_cell_length_c 16.755652
_cell_angle_alpha 90.000000
_cell_angle_beta 144.684506
_cell_angle_gamma 90.000000
_cell_volume 3284.950740
_symmetry_space_group_name_H-M "C 2/C"
_symmetry_group_IT_number 15
_symmetry_cell_setting 'monoclinic'
loop_
_space_group_symop_operation_xyz
x,y,z
-x,y,1/2-z
-x,-y,-z
x,-y,1/2+z
1/2+x,1/2+y,z
1/2-x,1/2+y,1/2-z
1/2-x,1/2-y,-z
1/2+x,1/2-y,1/2+z
loop_
_atom_site_type_symbol
_atom_site_label
_atom_site_fract_x
_atom_site_fract_y
_atom_site_fract_z
Si Si1 0.574721 0.141613 0.921308
Si Si2 0.672302 0.772725 0.294726
Si Si3 0.726064 0.170395 0.176828
Si Si4 0.410436 0.646944 0.007882
Si Si5 0.434386 0.097662 0.071963
Si Si6 0.305986 0.940344 0.330635
Si Si7 0.577712 0.416589 0.464094
Si Si8 0.166119 0.482207 0.790604
O O1 0.434924 0.185630 0.817589
O O2 0.444644 0.097909 0.870662
O O3 0.707917 0.159031 0.072441
O O4 0.715938 0.127633 0.932936
O O5 0.500000 0.754634 0.250000
O O6 0.757893 0.727142 0.301392
O O7 0.841431 0.799919 0.441502
O O8 0.538790 0.144961 0.102323
O O9 0.915525 0.148581 0.327751
O O10 0.482671 0.616030 0.976170
O O11 0.255324 0.106667 0.023150
O O12 0.587386 0.068379 0.212980
O O13 0.372797 0.062723 0.962016
O O14 0.308918 0.986036 0.273551
O O15 0.087099 0.924903 0.197303
O O16 0.654632 0.466071 0.549428
O O17 0.000000 0.502886 0.750000
#
# Coordination Sequence:
#
# PCOD9271484 Si02
#       8
#     8   8   8   8   8   8   8   8
#     4  10  22  36  58  93 121 155 192 253 306 351
#     4  10  20  36  59  90 122 155 199 248 305 355
#     4  11  21  37  60  84 122 162 196 243 301 356
#     4  11  21  36  62  86 123 154 199 244 302 358
#     4  10  23  42  59  86 120 162 198 243 294 351
#     4  11  22  39  65  85 122 152 201 248 296 349
#     4  11  22  40  62  85 117 163 201 237 297 352
#     4  10  22  39  64  90 117 152 200 246 298 357
#
# _framework density 19.482787999999999
#
# number of rings (size 3 to 8) (size 9 to 14) (size 15 to 20)
#    0.000    1.500    2.500    3.000    1.750    2.000 
#    0.000    0.625    2.750    1.500    0.000    0.000 
#    0.000    0.000    0.000    0.000    0.000    0.000 
#
# Total GULP energy -178500.808712 kJ/mol
# GULP energy per Si atom -5578.150272 kJ/mol
# Density = 1.943844 g / cm^3
# Si number density = 19.482788 Si / 1000 Ang^3
#
#
#
# Elastic Constant Matrix: (Units=GPa)
#
#
# Indices 1 2 3 4 5 6 
#
# 1 95.7199 27.8961 15.1712 0.0000 10.2616 0.0000
# 2 27.8961 39.5878 7.5155 0.0000 12.9072 0.0000
# 3 15.1712 7.5155 98.1690 0.0000 -4.3216 0.0002
# 4 0.0000 0.0000 0.0000 16.4812 0.0000 1.5571
# 5 10.2616 12.9072 -4.3216 0.0000 31.8574 0.0001
# 6 0.0000 0.0000 0.0002 1.5571 0.0001 20.8539
#
#
#
# Elastic Compliance Matrix: (Units=1/GPa)
#
#
# Indices 1 2 3 4 5 6 
#
# 1 0.013346 -0.008836 -0.001426 0.000000 -0.000912 0.000000
# 2 -0.008836 0.035720 -0.001892 0.000000 -0.011883 0.000000
# 3 -0.001426 -0.001892 0.010669 0.000000 0.002673 0.000000
# 4 0.000000 0.000000 0.000000 0.061106 0.000000 -0.004563
# 5 -0.000912 -0.011883 0.002673 0.000000 0.036861 0.000000
# 6 0.000000 0.000000 0.000000 -0.004563 0.000000 0.048293
#
#
# Mechanical properties :
#
#
# Convention : Reuss Voigt Hill
#
# Bulk Modulus (GPa) = 28.22736 37.18247 32.70491
# Shear Modulus (GPa) = 20.65133 26.03142 23.34137
#
# Velocity S-wave (km/s) = 3.25926 3.65927 3.46504
# Velocity P-wave (km/s) = 5.35570 6.08111 5.72990
#
# Compressibility (1/GPa) = 0.03542662
#
# Stress axis : x y z
#
# Youngs Moduli (GPa) = 74.92744 27.99513 93.72542
#
# Poissons Ratio (x) = 0.24738 0.13367
# Poissons Ratio (y) = 0.66209 0.17734
# Poissons Ratio (z) = 0.10686 0.05297
#
# Static dielectric constant tensor:
#      x y z
#    x 1.685220 0.000000 -0.021150 
#    y 0.000000 1.672630 0.000000 
#    z -0.021150 0.000000 1.696140 
# 
# From -- ./inp_files/52806.got.cif
#   From: 2010.05.17/outbox.cif.g08.bks.cpg/sg15_27_cif.got.tgz:52806.got - 2010.06.03 18:47:42.
