data_PCOD9271910
_publ_section_title
;
Structure prediction by ZEFSAII (Michael W. Deem and Ramdas Pophale) SiO2 
 PCOD9271910
Probable space group: C 2/C
;
_chemical_formula_sum "Si O2"
_cell_formula_units_Z 52
_cell_length_a 16.915294
_cell_length_b 13.036174
_cell_length_c 15.423424
_cell_angle_alpha 90.000000
_cell_angle_beta 146.401846
_cell_angle_gamma 90.000000
_cell_volume 1882.010138
_symmetry_space_group_name_H-M "C 2/C"
_symmetry_group_IT_number 15
_symmetry_cell_setting 'monoclinic'
loop_
_space_group_symop_operation_xyz
x,y,z
-x,y,1/2-z
-x,-y,-z
x,-y,1/2+z
1/2+x,1/2+y,z
1/2-x,1/2+y,1/2-z
1/2-x,1/2-y,-z
1/2+x,1/2-y,1/2+z
loop_
_atom_site_type_symbol
_atom_site_label
_atom_site_fract_x
_atom_site_fract_y
_atom_site_fract_z
Si Si1 0.726990 0.564363 0.041977
Si Si2 0.500000 0.283480 0.250000
Si Si3 0.377312 0.729422 0.207866
Si Si4 0.982878 0.957580 0.888923
Si Si5 0.184190 0.721593 0.258121
Si Si6 0.799218 0.433071 0.424752
Si Si7 0.083255 0.352475 0.485460
O O1 0.757356 0.609613 0.164128
O O2 0.623281 0.651178 0.907337
O O3 0.631116 0.465294 0.972286
O O4 0.835064 0.559561 0.060423
O O5 0.571941 0.228752 0.234695
O O6 0.500000 0.703897 0.250000
O O7 0.418125 0.654299 0.325247
O O8 0.213730 0.693506 0.043203
O O9 0.432372 0.837094 0.298196
O O10 0.864881 0.027881 0.734133
O O11 0.000000 0.000000 0.000000
O O12 0.287573 0.820987 0.368819
O O13 0.111623 0.712860 0.098760
O O14 0.889744 0.527730 0.470398
#
# Coordination Sequence:
#
# PCOD9271910 Si02
#       7
#     8   4   8   8   8   8   8
#     4  11  19  36  63  92 124 170 220 281 334 394
#     4  10  20  36  62  90 132 164 218 278 334 390
#     4  11  24  43  68  97 136 185 228 276 341 411
#     4  11  19  33  63  95 124 164 229 289 326 390
#     4  11  23  38  69  99 132 172 227 287 345 395
#     4  10  20  40  61  93 125 172 220 282 335 401
#     4  11  25  43  71  99 137 177 229 283 337 409
#
# _framework density 27.630030999999999
#
# number of rings (size 3 to 8) (size 9 to 14) (size 15 to 20)
#    0.000    1.231    3.077    6.923    2.154    0.000 
#    0.000    0.769   13.538    0.000    0.000    0.000 
#    0.000    0.000    0.000    0.000    0.000    0.000 
#
# Total GULP energy -145227.915205 kJ/mol
# GULP energy per Si atom -5585.689046 kJ/mol
# Density = 2.756714 g / cm^3
# Si number density = 27.630031 Si / 1000 Ang^3
#
#
#
# Elastic Constant Matrix: (Units=GPa)
#
#
# Indices 1 2 3 4 5 6 
#
# 1 110.8966 -4.4412 -1.2108 0.0000 0.2230 0.0000
# 2 -4.4412 91.2418 5.0746 0.0000 14.8468 0.0000
# 3 -1.2108 5.0746 71.9131 0.0000 15.3880 0.0000
# 4 0.0000 0.0000 0.0000 42.9897 0.0000 3.4818
# 5 0.2230 14.8468 15.3880 0.0000 33.9466 0.0000
# 6 0.0000 0.0000 0.0000 3.4818 0.0000 0.9811
#
#
#
# Elastic Compliance Matrix: (Units=1/GPa)
#
#
# Indices 1 2 3 4 5 6 
#
# 1 0.009040 0.000488 0.000195 0.000000 -0.000361 0.000000
# 2 0.000488 0.011832 0.000311 0.000000 -0.005319 0.000000
# 3 0.000195 0.000311 0.015411 0.000000 -0.007123 0.000000
# 4 0.000000 0.000000 0.000000 0.032644 0.000000 -0.115846
# 5 -0.000361 -0.005319 -0.007123 0.000000 0.035016 0.000000
# 6 0.000000 0.000000 0.000000 -0.115846 0.000000 1.430338
#
#
# Mechanical properties :
#
#
# Convention : Reuss Voigt Hill
#
# Bulk Modulus (GPa) = 26.12881 30.32185 28.22533
# Shear Modulus (GPa) = 3.23614 33.89207 18.56411
#
# Velocity S-wave (km/s) = 1.08341 3.50614 2.59488
# Velocity P-wave (km/s) = 3.32299 5.23343 4.38355
#
# Compressibility (1/GPa) = 0.03827193
#
# Stress axis : x y z
#
# Youngs Moduli (GPa) = 110.62182 84.51763 64.88761
#
# Poissons Ratio (x) = -0.04124 -0.01266
# Poissons Ratio (y) = -0.05398 -0.02021
# Poissons Ratio (z) = -0.02158 -0.02633
#
# Static dielectric constant tensor:
#      x y z
#    x 2.262780 0.000000 0.024930 
#    y 0.000000 2.246470 0.000000 
#    z 0.024930 0.000000 2.240850 
# 
# From -- ./inp_files/162611.got.cif
#   From: 2010.05.17/outbox.cif.g08.bks.cpg/sg15_82_cif.got.tgz:162611.got - 2010.06.03 18:47:42.
