data_PCOD9271582
_publ_section_title
;
Structure prediction by ZEFSAII (Michael W. Deem and Ramdas Pophale) SiO2 
 PCOD9271582
Probable space group: C 2/C
;
_chemical_formula_sum "Si O2"
_cell_formula_units_Z 60
_cell_length_a 21.502778
_cell_length_b 7.610840
_cell_length_c 17.711405
_cell_angle_alpha 90.000000
_cell_angle_beta 81.858375
_cell_angle_gamma 90.000000
_cell_volume 2869.331519
_symmetry_space_group_name_H-M "C 2/C"
_symmetry_group_IT_number 15
_symmetry_cell_setting 'monoclinic'
loop_
_space_group_symop_operation_xyz
x,y,z
-x,y,1/2-z
-x,-y,-z
x,-y,1/2+z
1/2+x,1/2+y,z
1/2-x,1/2+y,1/2-z
1/2-x,1/2-y,-z
1/2+x,1/2-y,1/2+z
loop_
_atom_site_type_symbol
_atom_site_label
_atom_site_fract_x
_atom_site_fract_y
_atom_site_fract_z
Si Si1 0.871593 0.765345 0.507238
Si Si2 0.828742 0.926286 0.253457
Si Si3 0.431877 0.917682 0.495004
Si Si4 0.000000 0.395488 0.750000
Si Si5 0.931613 0.090550 0.847953
Si Si6 0.387329 0.920279 0.667559
Si Si7 0.792814 0.258309 0.155856
Si Si8 0.491087 0.374520 0.573657
O O1 0.884042 0.566576 0.477033
O O2 0.891871 0.881287 0.432303
O O3 0.807694 0.784309 0.565053
O O4 0.923697 0.794404 0.565696
O O5 0.885521 0.995210 0.295654
O O6 0.855846 0.754345 0.206709
O O7 0.774653 0.843445 0.315762
O O8 0.804051 0.081797 0.203412
O O9 0.407642 0.859399 0.580504
O O10 0.451119 0.762084 0.437063
O O11 0.500000 0.000000 0.500000
O O12 0.956716 0.274926 0.811626
O O13 0.948983 0.482580 0.703696
O O14 0.996000 0.988057 0.855280
O O15 0.339730 0.082649 0.670898
O O16 0.500000 0.500000 0.500000
#
# Coordination Sequence:
#
# PCOD9271582 Si02
#       8
#     8   8   8   4   8   8   8   8
#     4   9  20  36  61  86 118 159 201 247 307 363
#     4  11  24  42  63  85 123 163 216 254 306 360
#     4   9  17  33  56  84 117 157 195 235 303 377
#     4  10  20  36  60  86 134 154 186 258 322 354
#     4  10  22  37  59  94 123 158 197 254 306 364
#     4  10  21  39  62  88 120 161 200 252 306 368
#     4  11  23  43  65  85 115 170 215 250 302 370
#     4   9  17  31  54  86 122 150 188 237 303 369
#
# _framework density 20.910793000000002
#
# number of rings (size 3 to 8) (size 9 to 14) (size 15 to 20)
#    0.000    2.133    1.333    2.400    7.467    0.533 
#   12.000    0.000    0.000    2.400    0.000    0.000 
#    0.000    0.000    0.000    0.000    0.000    0.000 
#
# Total GULP energy -167169.029131 kJ/mol
# GULP energy per Si atom -5572.300971 kJ/mol
# Density = 2.086320 g / cm^3
# Si number density = 20.910793 Si / 1000 Ang^3
#
#
#
# Elastic Constant Matrix: (Units=GPa)
#
#
# Indices 1 2 3 4 5 6 
#
# 1 45.5322 -1.3334 11.1494 0.0000 -5.4516 0.0000
# 2 -1.3334 48.5593 5.3208 0.0000 -0.7409 0.0000
# 3 11.1494 5.3208 74.2734 0.0000 -21.1770 0.0000
# 4 0.0000 0.0000 0.0000 14.7636 0.0000 -0.8772
# 5 -5.4516 -0.7409 -21.1770 0.0000 32.0322 0.0000
# 6 0.0000 0.0000 0.0000 -0.8772 0.0000 22.1372
#
#
#
# Elastic Compliance Matrix: (Units=1/GPa)
#
#
# Indices 1 2 3 4 5 6 
#
# 1 0.022951 0.000984 -0.002952 0.000000 0.001977 0.000000
# 2 0.000984 0.020808 -0.001791 0.000000 -0.000535 0.000000
# 3 -0.002952 -0.001791 0.017104 0.000000 0.010764 0.000000
# 4 0.000000 0.000000 0.000000 0.067894 0.000000 0.002690
# 5 0.001977 -0.000535 0.010764 0.000000 0.038659 0.000000
# 6 0.000000 0.000000 0.000000 0.002690 0.000000 0.045280
#
#
# Mechanical properties :
#
#
# Convention : Reuss Voigt Hill
#
# Bulk Modulus (GPa) = 18.74577 22.07095 20.40836
# Shear Modulus (GPa) = 21.00872 24.00180 22.50526
#
# Velocity S-wave (km/s) = 3.17311 3.39162 3.28419
# Velocity P-wave (km/s) = 4.73381 5.09070 4.91549
#
# Compressibility (1/GPa) = 0.05334537
#
# Stress axis : x y z
#
# Youngs Moduli (GPa) = 43.57136 48.05734 58.46489
#
# Poissons Ratio (x) = -0.04728 0.17259
# Poissons Ratio (y) = -0.04287 0.10471
# Poissons Ratio (z) = 0.12862 0.08607
#
# Static dielectric constant tensor:
#      x y z
#    x 1.788210 0.000000 0.009240 
#    y 0.000000 1.810350 0.000000 
#    z 0.009240 0.000000 1.791980 
# 
# From -- ./inp_files/213848.got.cif
#   From: 2010.05.17/outbox.cif.g08.bks.cpg/sg15_107_cif.got.tgz:213848.got - 2010.06.03 18:47:42.
