data_PCOD9271227
_publ_section_title
;
Structure prediction by ZEFSAII (Michael W. Deem and Ramdas Pophale) SiO2 
 PCOD9271227
Probable space group: C 2/C
;
_chemical_formula_sum "Si O2"
_cell_formula_units_Z 48
_cell_length_a 6.767858
_cell_length_b 13.364664
_cell_length_c 22.582087
_cell_angle_alpha 90.000000
_cell_angle_beta 128.325895
_cell_angle_gamma 90.000000
_cell_volume 1602.375115
_symmetry_space_group_name_H-M "C 2/C"
_symmetry_group_IT_number 15
_symmetry_cell_setting 'monoclinic'
loop_
_space_group_symop_operation_xyz
x,y,z
-x,y,1/2-z
-x,-y,-z
x,-y,1/2+z
1/2+x,1/2+y,z
1/2-x,1/2+y,1/2-z
1/2-x,1/2-y,-z
1/2+x,1/2-y,1/2+z
loop_
_atom_site_type_symbol
_atom_site_label
_atom_site_fract_x
_atom_site_fract_y
_atom_site_fract_z
Si Si1 0.732342 0.870216 0.260071
Si Si2 0.479901 0.093023 0.426634
Si Si3 0.530234 0.587225 0.575496
Si Si4 0.029584 0.856881 0.601837
Si Si5 0.768600 0.594992 0.267411
Si Si6 0.539404 0.141660 0.602732
O O1 0.500000 0.814416 0.250000
O O2 0.646511 0.983610 0.230871
O O3 0.740967 0.841352 0.193378
O O4 0.937702 0.880607 0.349612
O O5 0.755007 0.115167 0.502012
O O6 0.252870 0.135347 0.423406
O O7 0.445163 0.134077 0.352864
O O8 0.437232 0.971187 0.418442
O O9 0.559344 0.465904 0.577253
O O10 0.762894 0.633644 0.582829
O O11 0.213473 0.859129 0.693490
O O12 0.048514 0.750054 0.573381
O O13 0.500000 0.584271 0.250000
#
# Coordination Sequence:
#
# PCOD9271227 Si02
#       6
#     8   8   8   8   8   8
#     4   8  16  31  53  76 103 141 179 217 265 320
#     4  10  20  36  58  84 114 144 182 233 278 324
#     4  10  20  36  58  84 114 144 182 233 278 324
#     4  10  21  38  59  81 110 150 187 223 275 332
#     4   8  16  31  53  76 103 141 179 217 265 320
#     4  10  21  38  59  81 110 150 187 223 275 332
#
# _framework density 29.955534
#
# number of rings (size 3 to 8) (size 9 to 14) (size 15 to 20)
#    0.000    2.667    0.000    1.000    0.000    7.333 
#    0.000    1.667    0.000   90.000    0.000    0.000 
#    0.000    0.000    0.000    0.000    0.000    0.000 
#
# Total GULP energy -134498.085045 kJ/mol
# GULP energy per Si atom -5604.086877 kJ/mol
# Density = 2.988735 g / cm^3
# Si number density = 29.955534 Si / 1000 Ang^3
#
#
#
# Elastic Constant Matrix: (Units=GPa)
#
#
# Indices 1 2 3 4 5 6 
#
# 1 98.0348 40.1483 35.2554 0.0000 1.7236 0.0000
# 2 40.1483 205.2307 6.3100 0.0000 -3.0074 0.0000
# 3 35.2554 6.3100 255.9597 0.0000 27.7284 0.0000
# 4 0.0000 0.0000 0.0000 20.5459 0.0000 0.5832
# 5 1.7236 -3.0074 27.7284 0.0000 59.2820 0.0000
# 6 0.0000 0.0000 0.0000 0.5832 0.0000 9.9073
#
#
#
# Elastic Compliance Matrix: (Units=1/GPa)
#
#
# Indices 1 2 3 4 5 6 
#
# 1 0.011679 -0.002232 -0.001585 0.000000 0.000289 0.000000
# 2 -0.002232 0.005309 0.000148 0.000000 0.000265 0.000000
# 3 -0.001585 0.000148 0.004335 0.000000 -0.001974 0.000000
# 4 0.000000 0.000000 0.000000 0.048753 0.000000 -0.002870
# 5 0.000289 0.000265 -0.001974 0.000000 0.017797 0.000000
# 6 0.000000 0.000000 0.000000 -0.002870 0.000000 0.101104
#
#
# Mechanical properties :
#
#
# Convention : Reuss Voigt Hill
#
# Bulk Modulus (GPa) = 71.50306 80.29473 75.89890
# Shear Modulus (GPa) = 24.87842 49.78115 37.32979
#
# Velocity S-wave (km/s) = 2.88499 4.08098 3.53395
# Velocity P-wave (km/s) = 5.91769 7.00491 6.48413
#
# Compressibility (1/GPa) = 0.01398542
#
# Stress axis : x y z
#
# Youngs Moduli (GPa) = 85.62112 188.37699 230.65934
#
# Poissons Ratio (x) = 0.42042 0.36558
# Poissons Ratio (y) = 0.19109 -0.03410
# Poissons Ratio (z) = 0.13570 -0.02785
#
# Static dielectric constant tensor:
#      x y z
#    x 2.412090 0.000000 -0.029610 
#    y 0.000000 2.227150 0.000000 
#    z -0.029610 0.000000 2.371610 
# 
# From -- ./inp_files/308113.got.cif
#   From: 2010.05.17/outbox.cif.g08.bks.cpg/sg15_155_cif.got.tgz:308113.got - 2010.06.03 18:47:42.
