data_PCOD9271249
_publ_section_title
;
Structure prediction by ZEFSAII (Michael W. Deem and Ramdas Pophale) SiO2 
 PCOD9271249
Probable space group: C 2/C
;
_chemical_formula_sum "Si O2"
_cell_formula_units_Z 48
_cell_length_a 24.661955
_cell_length_b 8.581511
_cell_length_c 14.812334
_cell_angle_alpha 90.000000
_cell_angle_beta 46.006268
_cell_angle_gamma 90.000000
_cell_volume 2255.250181
_symmetry_space_group_name_H-M "C 2/C"
_symmetry_group_IT_number 15
_symmetry_cell_setting 'monoclinic'
loop_
_space_group_symop_operation_xyz
x,y,z
-x,y,1/2-z
-x,-y,-z
x,-y,1/2+z
1/2+x,1/2+y,z
1/2-x,1/2+y,1/2-z
1/2-x,1/2-y,-z
1/2+x,1/2-y,1/2+z
loop_
_atom_site_type_symbol
_atom_site_label
_atom_site_fract_x
_atom_site_fract_y
_atom_site_fract_z
Si Si1 0.083256 0.850218 0.615473
Si Si2 0.814156 0.017969 0.868822
Si Si3 0.435747 0.995677 0.436534
Si Si4 0.160567 0.363526 0.587295
Si Si5 0.581373 0.578229 0.916613
Si Si6 0.905968 0.562328 0.158108
O O1 0.078558 0.668877 0.594806
O O2 0.100550 0.932698 0.500014
O O3 0.000000 0.896085 0.750000
O O4 0.147887 0.887093 0.612940
O O5 0.829098 0.181147 0.905074
O O6 0.857272 0.011491 0.723708
O O7 0.724711 0.037428 0.961889
O O8 0.389355 0.021385 0.583154
O O9 0.413856 0.119951 0.386931
O O10 0.520426 0.997643 0.376450
O O11 0.155971 0.435544 0.692927
O O12 0.576486 0.760074 0.892784
O O13 0.500000 0.500000 0.000000
#
# Coordination Sequence:
#
# PCOD9271249 Si02
#       6
#     8   8   8   8   8   8
#     4  11  21  35  58  86 115 144 196 247 285 336
#     4  10  23  38  56  85 116 154 193 236 287 351
#     4  10  21  37  60  86 113 151 192 240 288 340
#     4  10  21  39  58  80 119 157 191 228 293 354
#     4  10  20  36  58  85 114 146 192 242 288 340
#     4   9  20  37  60  85 115 149 194 238 286 346
#
# _framework density 21.283670000000001
#
# number of rings (size 3 to 8) (size 9 to 14) (size 15 to 20)
#    0.000    2.000    1.667    1.500    2.333    2.000 
#    0.000    0.000    0.000    0.000    0.000    0.000 
#    0.000    0.000    0.000    0.000    0.000    0.000 
#
# Total GULP energy -133839.813776 kJ/mol
# GULP energy per Si atom -5576.658907 kJ/mol
# Density = 2.123523 g / cm^3
# Si number density = 21.283670 Si / 1000 Ang^3
#
#
#
# Elastic Constant Matrix: (Units=GPa)
#
#
# Indices 1 2 3 4 5 6 
#
# 1 74.8358 17.7417 25.9574 -0.0002 16.8294 0.0000
# 2 17.7417 8.4285 14.4637 -0.0016 9.5197 0.0009
# 3 25.9574 14.4637 131.9494 -0.0009 13.2493 0.0005
# 4 -0.0002 -0.0016 -0.0009 17.1518 0.0002 2.6950
# 5 16.8294 9.5197 13.2493 0.0002 31.3209 0.0000
# 6 0.0000 0.0009 0.0005 2.6950 0.0000 36.7510
#
#
#
# Elastic Compliance Matrix: (Units=1/GPa)
#
#
# Indices 1 2 3 4 5 6 
#
# 1 0.027205 -0.064449 0.001268 -0.000006 0.004435 0.000002
# 2 -0.064449 0.366677 -0.020680 0.000034 -0.068070 -0.000011
# 3 0.001268 -0.020680 0.009434 -0.000001 0.001614 0.000000
# 4 -0.000006 0.000034 -0.000001 0.058983 -0.000007 -0.004325
# 5 0.004435 -0.068070 0.001614 -0.000007 0.049551 0.000002
# 6 0.000002 -0.000011 0.000000 -0.004325 0.000002 0.027527
#
#
# Mechanical properties :
#
#
# Convention : Reuss Voigt Hill
#
# Bulk Modulus (GPa) = 4.24461 36.83771 20.54116
# Shear Modulus (GPa) = 6.36430 27.51477 16.93954
#
# Velocity S-wave (km/s) = 1.73110 3.59940 2.82422
# Velocity P-wave (km/s) = 2.44832 5.88386 4.50633
#
# Compressibility (1/GPa) = 0.23559306
#
# Stress axis : x y z
#
# Youngs Moduli (GPa) = 36.75793 2.72719 105.99815
#
# Poissons Ratio (x) = 0.17577 -0.13435
# Poissons Ratio (y) = 2.36903 2.19203
# Poissons Ratio (z) = -0.04659 0.05640
#
# Static dielectric constant tensor:
#      x y z
#    x 1.753560 0.000000 -0.023480 
#    y 0.000000 1.790210 0.000000 
#    z -0.023480 0.000000 1.868930 
# 
# From -- ./inp_files/176914.got.cif
#   From: 2010.05.17/outbox.cif.g08.bks.cpg/sg15_89_cif.got.tgz:176914.got - 2010.06.03 18:47:42.
