data_PCOD9271702
_publ_section_title
;
Structure prediction by ZEFSAII (Michael W. Deem and Ramdas Pophale) SiO2 
 PCOD9271702
Probable space group: C 2/C
;
_chemical_formula_sum "Si O2"
_cell_formula_units_Z 56
_cell_length_a 18.293752
_cell_length_b 8.152588
_cell_length_c 25.449999
_cell_angle_alpha 90.000000
_cell_angle_beta 142.976710
_cell_angle_gamma 90.000000
_cell_volume 2285.510643
_symmetry_space_group_name_H-M "C 2/C"
_symmetry_group_IT_number 15
_symmetry_cell_setting 'monoclinic'
loop_
_space_group_symop_operation_xyz
x,y,z
-x,y,1/2-z
-x,-y,-z
x,-y,1/2+z
1/2+x,1/2+y,z
1/2-x,1/2+y,1/2-z
1/2-x,1/2-y,-z
1/2+x,1/2-y,1/2+z
loop_
_atom_site_type_symbol
_atom_site_label
_atom_site_fract_x
_atom_site_fract_y
_atom_site_fract_z
Si Si1 0.883973 0.363618 0.010890
Si Si2 0.706597 0.714708 0.110609
Si Si3 0.833794 0.097799 0.593381
Si Si4 0.583072 0.508023 0.960587
Si Si5 0.000000 0.500000 0.500000
Si Si6 0.796277 0.990890 0.795767
Si Si7 0.765740 0.195927 0.176561
Si Si8 0.500000 0.374229 0.750000
O O1 0.779868 0.473170 0.975433
O O2 0.851523 0.344556 0.928070
O O3 0.892080 0.183573 0.038619
O O4 0.003420 0.465797 0.068619
O O5 0.744437 0.661642 0.190507
O O6 0.806679 0.785765 0.127344
O O7 0.595513 0.841300 0.046297
O O8 0.655424 0.548204 0.054824
O O9 0.865818 0.141224 0.552091
O O10 0.949954 0.989786 0.675711
O O11 0.440585 0.517119 0.885858
O O12 0.779288 0.953285 0.724716
O O13 0.738036 0.148286 0.788865
O O14 0.880794 0.214271 0.203747
#
# Coordination Sequence:
#
# PCOD9271702 Si02
#       8
#     8   8   8   8   4   8   8   4
#     4  10  21  39  66  93 134 163 219 263 321 386
#     4  11  23  40  65  96 135 162 219 277 324 384
#     4  10  23  39  68  94 131 179 214 265 324 402
#     4  12  21  43  66 100 130 172 214 279 334 376
#     4  10  20  36  60  96 118 172 200 260 324 378
#     4  12  25  41  69  99 133 172 221 272 331 391
#     4  11  25  43  66  94 129 176 216 267 326 397
#     4  10  22  48  64  88 136 180 216 260 334 400
#
# _framework density 24.502184
#
# number of rings (size 3 to 8) (size 9 to 14) (size 15 to 20)
#    0.000    1.143    4.286    2.143    6.000    0.000 
#    0.000    2.143    0.000    0.000    0.000    0.000 
#    0.000    0.000    0.000    0.000    0.000    0.000 
#
# Total GULP energy -156082.358406 kJ/mol
# GULP energy per Si atom -5574.369943 kJ/mol
# Density = 2.444642 g / cm^3
# Si number density = 24.502184 Si / 1000 Ang^3
#
#
#
# Elastic Constant Matrix: (Units=GPa)
#
#
# Indices 1 2 3 4 5 6 
#
# 1 130.7434 9.2003 19.2432 0.0000 -9.0772 0.0000
# 2 9.2003 72.2070 -13.3910 0.0000 6.6339 -0.0001
# 3 19.2432 -13.3910 41.7117 0.0000 -7.6044 0.0000
# 4 0.0000 0.0000 0.0000 18.0921 0.0000 -13.3182
# 5 -9.0772 6.6339 -7.6044 0.0000 37.4832 0.0000
# 6 0.0000 -0.0001 0.0000 -13.3182 0.0000 39.3889
#
#
#
# Elastic Compliance Matrix: (Units=1/GPa)
#
#
# Indices 1 2 3 4 5 6 
#
# 1 0.008533 -0.002028 -0.004305 0.000000 0.001552 0.000000
# 2 -0.002028 0.015314 0.005471 0.000000 -0.002092 0.000000
# 3 -0.004305 0.005471 0.028400 0.000000 0.003751 0.000000
# 4 0.000000 0.000000 0.000000 0.073589 0.000000 0.024882
# 5 0.001552 -0.002092 0.003751 0.000000 0.028186 0.000000
# 6 0.000000 0.000000 0.000000 0.024882 0.000000 0.033801
#
#
# Mechanical properties :
#
#
# Convention : Reuss Voigt Hill
#
# Bulk Modulus (GPa) = 19.79292 30.52968 25.16130
# Shear Modulus (GPa) = 24.22625 34.30014 29.26320
#
# Velocity S-wave (km/s) = 3.14783 3.74556 3.45963
# Velocity P-wave (km/s) = 4.61599 5.58504 5.12348
#
# Compressibility (1/GPa) = 0.05052312
#
# Stress axis : x y z
#
# Youngs Moduli (GPa) = 117.19772 65.29889 35.21114
#
# Poissons Ratio (x) = 0.13243 0.15157
# Poissons Ratio (y) = 0.23768 -0.19263
# Poissons Ratio (z) = 0.50448 -0.35723
#
# Static dielectric constant tensor:
#      x y z
#    x 1.627740 0.000000 -0.329360 
#    y 0.000000 1.688900 0.000000 
#    z -0.329360 0.000000 1.747250 
# 
# From -- ./inp_files/276539.got.cif
#   From: 2010.05.17/outbox.cif.g08.bks.cpg/sg15_139_cif.got.tgz:276539.got - 2010.06.03 18:47:42.
