data_PCOD9271856
_publ_section_title
;
Structure prediction by ZEFSAII (Michael W. Deem and Ramdas Pophale) SiO2 
 PCOD9271856
Probable space group: C 2/C
;
_chemical_formula_sum "Si O2"
_cell_formula_units_Z 40
_cell_length_a 16.710618
_cell_length_b 11.910628
_cell_length_c 8.765331
_cell_angle_alpha 90.000000
_cell_angle_beta 114.451002
_cell_angle_gamma 90.000000
_cell_volume 1588.135178
_symmetry_space_group_name_H-M "C 2/C"
_symmetry_group_IT_number 15
_symmetry_cell_setting 'monoclinic'
loop_
_space_group_symop_operation_xyz
x,y,z
-x,y,1/2-z
-x,-y,-z
x,-y,1/2+z
1/2+x,1/2+y,z
1/2-x,1/2+y,1/2-z
1/2-x,1/2-y,-z
1/2+x,1/2-y,1/2+z
loop_
_atom_site_type_symbol
_atom_site_label
_atom_site_fract_x
_atom_site_fract_y
_atom_site_fract_z
Si Si1 0.636363 0.402426 0.918207
Si Si2 0.145166 0.409974 0.839136
Si Si3 0.462692 0.693041 0.405722
Si Si4 0.742519 0.555304 0.790750
Si Si5 0.000000 0.597984 0.750000
Si Si6 0.500000 0.733077 0.750000
O O1 0.702127 0.382812 0.111224
O O2 0.623176 0.316709 0.766955
O O3 0.540052 0.391979 0.916161
O O4 0.667539 0.509677 0.846244
O O5 0.208011 0.449555 0.751388
O O6 0.084300 0.481176 0.322488
O O7 0.078894 0.310335 0.748826
O O8 0.193225 0.384152 0.038391
O O9 0.494628 0.818585 0.389498
O O10 0.454889 0.670835 0.575805
#
# Coordination Sequence:
#
# PCOD9271856 Si02
#       6
#     8   8   8   8   4   4
#     4   9  22  40  59  83 114 148 191 235 286 338
#     4  10  20  36  62  86 114 152 192 234 272 336
#     4  10  22  39  59  85 116 154 188 232 282 338
#     4  10  20  38  60  88 112 144 192 238 286 332
#     4   9  18  38  60  85 116 152 192 227 278 334
#     4  11  22  38  58  85 116 154 196 227 274 340
#
# _framework density 25.186775000000001
#
# number of rings (size 3 to 8) (size 9 to 14) (size 15 to 20)
#    0.000    2.400    0.000    2.400    0.000    9.600 
#    0.000   38.000    0.000    0.000    0.000    0.000 
#    0.000    0.000    0.000    0.000    0.000    0.000 
#
# Total GULP energy -111585.771582 kJ/mol
# GULP energy per Si atom -5579.288579 kJ/mol
# Density = 2.512945 g / cm^3
# Si number density = 25.186775 Si / 1000 Ang^3
#
#
#
# Elastic Constant Matrix: (Units=GPa)
#
#
# Indices 1 2 3 4 5 6 
#
# 1 86.1064 37.0497 25.1956 0.0000 -2.4711 0.0000
# 2 37.0497 42.7077 22.4285 0.0000 -2.7382 0.0000
# 3 25.1956 22.4285 237.3928 0.0000 -6.3970 0.0000
# 4 0.0000 0.0000 0.0000 17.8441 0.0000 -7.6313
# 5 -2.4711 -2.7382 -6.3970 0.0000 28.1814 0.0000
# 6 0.0000 0.0000 0.0000 -7.6313 0.0000 7.6470
#
#
#
# Elastic Compliance Matrix: (Units=1/GPa)
#
#
# Indices 1 2 3 4 5 6 
#
# 1 0.018581 -0.015872 -0.000473 0.000000 -0.000020 0.000000
# 2 -0.015872 0.038295 -0.001882 0.000000 0.001902 0.000000
# 3 -0.000473 -0.001882 0.004462 0.000000 0.000788 0.000000
# 4 0.000000 0.000000 0.000000 0.097766 0.000000 0.097565
# 5 -0.000020 0.001902 0.000788 0.000000 0.035846 0.000000
# 6 0.000000 0.000000 0.000000 0.097565 0.000000 0.228134
#
#
# Mechanical properties :
#
#
# Convention : Reuss Voigt Hill
#
# Bulk Modulus (GPa) = 40.18875 59.50604 49.84739
# Shear Modulus (GPa) = 10.68760 29.50339 20.09550
#
# Velocity S-wave (km/s) = 2.06217 3.42626 2.82770
# Velocity P-wave (km/s) = 4.65414 6.27133 5.52225
#
# Compressibility (1/GPa) = 0.02488258
#
# Stress axis : x y z
#
# Youngs Moduli (GPa) = 53.81915 26.11335 224.12952
#
# Poissons Ratio (x) = 0.41447 0.10602
# Poissons Ratio (y) = 0.85422 0.42186
# Poissons Ratio (z) = 0.02546 0.04915
#
# Static dielectric constant tensor:
#      x y z
#    x 2.035300 0.000000 -0.004910 
#    y 0.000000 2.020700 0.000000 
#    z -0.004910 0.000000 2.043360 
# 
# From -- ./inp_files/47292.got.cif
#   From: 2010.05.17/outbox.cif.g08.bks.cpg/sg15_24_cif.got.tgz:47292.got - 2010.06.03 18:47:42.
