data_PCOD9271461
_publ_section_title
;
Structure prediction by ZEFSAII (Michael W. Deem and Ramdas Pophale) SiO2 
 PCOD9271461
Probable space group: C 2/C
;
_chemical_formula_sum "Si O2"
_cell_formula_units_Z 52
_cell_length_a 11.708721
_cell_length_b 23.360416
_cell_length_c 9.657892
_cell_angle_alpha 90.000000
_cell_angle_beta 100.926740
_cell_angle_gamma 90.000000
_cell_volume 2593.740493
_symmetry_space_group_name_H-M "C 2/C"
_symmetry_group_IT_number 15
_symmetry_cell_setting 'monoclinic'
loop_
_space_group_symop_operation_xyz
x,y,z
-x,y,1/2-z
-x,-y,-z
x,-y,1/2+z
1/2+x,1/2+y,z
1/2-x,1/2+y,1/2-z
1/2-x,1/2-y,-z
1/2+x,1/2-y,1/2+z
loop_
_atom_site_type_symbol
_atom_site_label
_atom_site_fract_x
_atom_site_fract_y
_atom_site_fract_z
Si Si1 0.307181 0.548374 0.840995
Si Si2 0.500000 0.214240 0.750000
Si Si3 0.708362 0.563918 0.986355
Si Si4 0.027617 0.551910 0.406436
Si Si5 0.142780 0.627606 0.979096
Si Si6 0.499641 0.646258 0.590358
Si Si7 0.839986 0.206751 0.091512
O O1 0.294844 0.542170 0.673504
O O2 0.196069 0.581432 0.882498
O O3 0.415175 0.591079 0.887651
O O4 0.327061 0.488262 0.921398
O O5 0.558712 0.172227 0.877131
O O6 0.606294 0.260458 0.764586
O O7 0.625363 0.619329 0.976450
O O8 0.842579 0.575050 0.050074
O O9 0.000000 0.529491 0.250000
O O10 0.000000 0.500000 0.500000
O O11 0.937315 0.600306 0.424819
O O12 0.256508 0.652319 0.083714
O O13 0.500000 0.668635 0.750000
O O14 0.557713 0.689451 0.493451
O O15 0.750000 0.250000 0.000000
#
# Coordination Sequence:
#
# PCOD9271461 Si02
#       7
#     8   4   8   8   8   8   8
#     4  10  20  36  59  88 127 167 199 242 304 368
#     4  10  20  38  64  84 108 150 210 250 306 352
#     4  11  21  35  57  88 129 169 202 239 301 371
#     4  12  25  38  58  90 130 169 205 244 298 371
#     4  10  21  38  62  86 122 161 202 256 305 365
#     4   9  20  38  60  90 123 159 200 254 312 364
#     4   9  20  40  63  88 111 156 210 261 307 357
#
# _framework density 20.048265000000001
#
# number of rings (size 3 to 8) (size 9 to 14) (size 15 to 20)
#    0.000    1.846    1.538    2.308    1.077    2.462 
#    2.769    3.077    0.000   26.769    0.000    0.000 
#    0.000    0.000    0.000    0.000    0.000    0.000 
#
# Total GULP energy -144833.768462 kJ/mol
# GULP energy per Si atom -5570.529556 kJ/mol
# Density = 2.000263 g / cm^3
# Si number density = 20.048265 Si / 1000 Ang^3
#
#
#
# Elastic Constant Matrix: (Units=GPa)
#
#
# Indices 1 2 3 4 5 6 
#
# 1 110.6290 21.4011 37.4926 0.0000 10.5781 0.0000
# 2 21.4011 52.4637 29.3850 0.0000 0.4469 0.0000
# 3 37.4926 29.3850 79.4763 0.0000 3.2448 0.0000
# 4 0.0000 0.0000 0.0000 18.9116 0.0000 11.1347
# 5 10.5781 0.4469 3.2448 0.0000 30.3543 0.0000
# 6 0.0000 0.0000 0.0000 11.1347 0.0000 28.5158
#
#
#
# Elastic Compliance Matrix: (Units=1/GPa)
#
#
# Indices 1 2 3 4 5 6 
#
# 1 0.011263 -0.002103 -0.004396 0.000000 -0.003424 0.000000
# 2 -0.002103 0.024443 -0.008096 0.000000 0.001238 0.000000
# 3 -0.004396 -0.008096 0.017659 0.000000 -0.000237 0.000000
# 4 0.000000 0.000000 0.000000 0.068664 0.000000 -0.026812
# 5 -0.003424 0.001238 -0.000237 0.000000 0.034145 0.000000
# 6 0.000000 0.000000 0.000000 -0.026812 0.000000 0.045538
#
#
# Mechanical properties :
#
#
# Convention : Reuss Voigt Hill
#
# Bulk Modulus (GPa) = 41.36450 46.56960 43.96705
# Shear Modulus (GPa) = 20.92410 25.84235 23.38323
#
# Velocity S-wave (km/s) = 3.23412 3.59417 3.41889
# Velocity P-wave (km/s) = 5.88415 6.36422 6.12889
#
# Compressibility (1/GPa) = 0.02417532
#
# Stress axis : x y z
#
# Youngs Moduli (GPa) = 88.78376 40.91228 56.62827
#
# Poissons Ratio (x) = 0.08605 0.24894
# Poissons Ratio (y) = 0.18673 0.45844
# Poissons Ratio (z) = 0.39029 0.33121
#
# Static dielectric constant tensor:
#      x y z
#    x 1.735310 0.000000 0.011770 
#    y 0.000000 2.119510 0.000000 
#    z 0.011770 0.000000 1.702510 
# 
# From -- ./inp_files/33626.got.cif
#   From: 2010.05.17/outbox.cif.g08.bks.cpg/sg15_17_cif.got.tgz:33626.got - 2010.06.03 18:47:42.
