data_PCOD9271571
_publ_section_title
;
Structure prediction by ZEFSAII (Michael W. Deem and Ramdas Pophale) SiO2 
 PCOD9271571
Probable space group: C 2/C
;
_chemical_formula_sum "Si O2"
_cell_formula_units_Z 56
_cell_length_a 9.082407
_cell_length_b 25.841537
_cell_length_c 17.440644
_cell_angle_alpha 90.000000
_cell_angle_beta 46.183183
_cell_angle_gamma 90.000000
_cell_volume 2953.605507
_symmetry_space_group_name_H-M "C 2/C"
_symmetry_group_IT_number 15
_symmetry_cell_setting 'monoclinic'
loop_
_space_group_symop_operation_xyz
x,y,z
-x,y,1/2-z
-x,-y,-z
x,-y,1/2+z
1/2+x,1/2+y,z
1/2-x,1/2+y,1/2-z
1/2-x,1/2-y,-z
1/2+x,1/2-y,1/2+z
loop_
_atom_site_type_symbol
_atom_site_label
_atom_site_fract_x
_atom_site_fract_y
_atom_site_fract_z
Si Si1 0.388409 0.941331 0.652477
Si Si2 0.877243 0.822984 0.966719
Si Si3 0.664118 0.173211 0.258656
Si Si4 0.265213 0.742191 0.362054
Si Si5 0.500000 0.017987 0.750000
Si Si6 0.140637 0.067499 0.968707
Si Si7 0.660077 0.541980 0.543221
Si Si8 0.000000 0.005481 0.750000
O O1 0.347691 0.883464 0.697117
O O2 0.603555 0.944292 0.529914
O O3 0.425701 0.979603 0.710628
O O4 0.195934 0.967654 0.681038
O O5 0.767970 0.797755 0.932623
O O6 0.115334 0.820832 0.860198
O O7 0.825751 0.792954 0.064181
O O8 0.815471 0.882145 0.998919
O O9 0.500000 0.177270 0.250000
O O10 0.651270 0.216358 0.330737
O O11 0.500000 0.750699 0.250000
O O12 0.318839 0.053375 0.845692
O O13 0.934308 0.074236 0.993422
O O14 0.128976 0.017061 0.025797
O O15 0.528779 0.542798 0.667044
#
# Coordination Sequence:
#
# PCOD9271571 Si02
#       8
#     8   8   8   8   4   8   8   4
#     4  11  22  36  59  87 120 159 197 245 286 355
#     4  10  21  39  65  87 115 154 198 250 294 347
#     4  11  22  38  64  89 116 155 195 244 301 353
#     4   9  22  41  61  90 116 145 201 253 296 348
#     4  10  20  38  56  87 123 162 196 230 294 352
#     4  10  20  36  60  86 117 161 196 238 294 355
#     4  10  22  37  55  87 125 157 197 239 291 352
#     4  12  22  36  56  83 123 160 198 248 280 344
#
# _framework density 18.959876999999999
#
# number of rings (size 3 to 8) (size 9 to 14) (size 15 to 20)
#    0.000    1.714    2.143    2.143    8.000    0.571 
#    0.000    0.000    1.571    0.000    0.000    0.000 
#    0.000    0.000    0.000    0.000    0.000    0.000 
#
# Total GULP energy -156263.223043 kJ/mol
# GULP energy per Si atom -5580.829394 kJ/mol
# Density = 1.891672 g / cm^3
# Si number density = 18.959877 Si / 1000 Ang^3
#
#
#
# Elastic Constant Matrix: (Units=GPa)
#
#
# Indices 1 2 3 4 5 6 
#
# 1 59.8066 -2.8627 -0.9857 0.0000 1.1996 0.0000
# 2 -2.8627 48.0456 10.5343 0.0000 7.5886 0.0000
# 3 -0.9857 10.5343 81.3999 0.0000 11.1951 0.0000
# 4 0.0000 0.0000 0.0000 16.5231 0.0000 5.3712
# 5 1.1996 7.5886 11.1951 0.0000 24.0620 0.0000
# 6 0.0000 0.0000 0.0000 5.3712 0.0000 14.0179
#
#
#
# Elastic Compliance Matrix: (Units=1/GPa)
#
#
# Indices 1 2 3 4 5 6 
#
# 1 0.016806 0.001157 0.000234 0.000000 -0.001312 0.000000
# 2 0.001157 0.022298 -0.002026 0.000000 -0.006147 0.000000
# 3 0.000234 -0.002026 0.013316 0.000000 -0.005568 0.000000
# 4 0.000000 0.000000 0.000000 0.069132 0.000000 -0.026489
# 5 -0.001312 -0.006147 -0.005568 0.000000 0.046154 0.000000
# 6 0.000000 0.000000 0.000000 -0.026489 0.000000 0.081487
#
#
# Mechanical properties :
#
#
# Convention : Reuss Voigt Hill
#
# Bulk Modulus (GPa) = 19.55034 22.51377 21.03206
# Shear Modulus (GPa) = 18.69073 23.09169 20.89121
#
# Velocity S-wave (km/s) = 3.14316 3.49366 3.32304
# Velocity P-wave (km/s) = 4.84834 5.30796 5.08335
#
# Compressibility (1/GPa) = 0.05115001
#
# Stress axis : x y z
#
# Youngs Moduli (GPa) = 59.50212 44.84769 75.09839
#
# Poissons Ratio (x) = -0.05190 -0.01759
# Poissons Ratio (y) = -0.06886 0.15216
# Poissons Ratio (z) = -0.01393 0.09087
#
# Static dielectric constant tensor:
#      x y z
#    x 1.692910 0.000000 -0.005070 
#    y 0.000000 1.634060 0.000000 
#    z -0.005070 0.000000 1.683520 
# 
# From -- ./inp_files/193226.got.cif
#   From: 2010.05.17/outbox.cif.g08.bks.cpg/sg15_97_cif.got.tgz:193226.got - 2010.06.03 18:47:42.
