data_PCOD9271099
_publ_section_title
;
Structure prediction by ZEFSAII (Michael W. Deem and Ramdas Pophale) SiO2 
 PCOD9271099
Probable space group: C 2/C
;
_chemical_formula_sum "Si O2"
_cell_formula_units_Z 48
_cell_length_a 10.348786
_cell_length_b 19.743457
_cell_length_c 9.593645
_cell_angle_alpha 90.000000
_cell_angle_beta 111.750266
_cell_angle_gamma 90.000000
_cell_volume 1820.631773
_symmetry_space_group_name_H-M "C 2/C"
_symmetry_group_IT_number 15
_symmetry_cell_setting 'monoclinic'
loop_
_space_group_symop_operation_xyz
x,y,z
-x,y,1/2-z
-x,-y,-z
x,-y,1/2+z
1/2+x,1/2+y,z
1/2-x,1/2+y,1/2-z
1/2-x,1/2-y,-z
1/2+x,1/2-y,1/2+z
loop_
_atom_site_type_symbol
_atom_site_label
_atom_site_fract_x
_atom_site_fract_y
_atom_site_fract_z
Si Si1 0.911875 0.662290 0.597484
Si Si2 0.803858 0.478404 0.058188
Si Si3 0.376555 0.878554 0.559223
Si Si4 0.666336 0.703069 0.848684
Si Si5 0.245812 0.183461 0.278959
Si Si6 0.366314 0.547683 0.278339
O O1 0.867837 0.589864 0.644261
O O2 0.776563 0.681104 0.454571
O O3 0.000000 0.701072 0.750000
O O4 0.018310 0.653979 0.508758
O O5 0.678219 0.505876 0.104512
O O6 0.904497 0.542470 0.086842
O O7 0.756761 0.460394 0.883268
O O8 0.225895 0.868788 0.420765
O O9 0.356457 0.847156 0.706404
O O10 0.500000 0.704080 0.750000
O O11 0.738793 0.737055 0.745635
O O12 0.750000 0.750000 0.000000
O O13 0.123939 0.129671 0.194667
O O14 0.500000 0.523129 0.250000
#
# Coordination Sequence:
#
# PCOD9271099 Si02
#       6
#     8   8   8   8   8   8
#     4  11  21  36  58  90 132 169 215 277 339 400
#     4  10  21  35  56  88 123 164 213 269 330 397
#     4  10  20  36  60  90 121 165 213 268 332 401
#     4  10  20  39  67  97 127 169 227 283 333 396
#     4   9  20  38  60  86 117 164 220 272 329 393
#     4  10  20  36  57  83 119 163 210 265 329 395
#
# _framework density 26.364474000000001
#
# number of rings (size 3 to 8) (size 9 to 14) (size 15 to 20)
#    0.000    2.000    0.000    4.500    0.000    3.333 
#    0.000   13.333    0.000    0.000    0.000    0.000 
#    0.000    0.000    0.000    0.000    0.000    0.000 
#
# Total GULP energy -133657.378854 kJ/mol
# GULP energy per Si atom -5569.057452 kJ/mol
# Density = 2.630447 g / cm^3
# Si number density = 26.364474 Si / 1000 Ang^3
#
#
#
# Elastic Constant Matrix: (Units=GPa)
#
#
# Indices 1 2 3 4 5 6 
#
# 1 83.6447 -0.1133 -3.7613 0.0000 -9.0211 0.0000
# 2 -0.1133 69.5438 16.4760 0.0000 3.5104 0.0000
# 3 -3.7613 16.4760 125.6110 0.0000 2.7309 0.0000
# 4 0.0000 0.0000 0.0000 19.3838 0.0000 -10.0900
# 5 -9.0211 3.5104 2.7309 0.0000 46.4847 0.0000
# 6 0.0000 0.0000 0.0000 -10.0900 0.0000 22.6565
#
#
#
# Elastic Compliance Matrix: (Units=1/GPa)
#
#
# Indices 1 2 3 4 5 6 
#
# 1 0.012225 -0.000180 0.000338 0.000000 0.002366 0.000000
# 2 -0.000180 0.014891 -0.001936 0.000000 -0.001046 0.000000
# 3 0.000338 -0.001936 0.008231 0.000000 -0.000272 0.000000
# 4 0.000000 0.000000 0.000000 0.067158 0.000000 0.029909
# 5 0.002366 -0.001046 -0.000272 0.000000 0.022067 0.000000
# 6 0.000000 0.000000 0.000000 0.029909 0.000000 0.057457
#
#
# Mechanical properties :
#
#
# Convention : Reuss Voigt Hill
#
# Bulk Modulus (GPa) = 31.45387 33.77803 32.61595
# Shear Modulus (GPa) = 25.48670 35.45154 30.46912
#
# Velocity S-wave (km/s) = 3.11256 3.67095 3.40323
# Velocity P-wave (km/s) = 4.98735 5.55046 5.27643
#
# Compressibility (1/GPa) = 0.03179259
#
# Stress axis : x y z
#
# Youngs Moduli (GPa) = 81.79626 67.15670 121.49139
#
# Poissons Ratio (x) = 0.01206 -0.04109
# Poissons Ratio (y) = 0.01469 0.23518
# Poissons Ratio (z) = -0.02766 0.13000
#
# Static dielectric constant tensor:
#      x y z
#    x 2.169590 0.000000 0.053660 
#    y 0.000000 2.256790 0.000000 
#    z 0.053660 0.000000 2.070800 
# 
# From -- ./inp_files/32621.got.cif
#   From: 2010.05.17/outbox.cif.g08.bks.cpg/sg15_17_cif.got.tgz:32621.got - 2010.06.03 18:47:42.
