data_PCOD9271087
_publ_section_title
;
Structure prediction by ZEFSAII (Michael W. Deem and Ramdas Pophale) SiO2 
 PCOD9271087
Probable space group: C 2/C
;
_chemical_formula_sum "Si O2"
_cell_formula_units_Z 40
_cell_length_a 9.426207
_cell_length_b 7.272455
_cell_length_c 23.377814
_cell_angle_alpha 90.000000
_cell_angle_beta 91.703733
_cell_angle_gamma 90.000000
_cell_volume 1601.879639
_symmetry_space_group_name_H-M "C 2/C"
_symmetry_group_IT_number 15
_symmetry_cell_setting 'monoclinic'
loop_
_space_group_symop_operation_xyz
x,y,z
-x,y,1/2-z
-x,-y,-z
x,-y,1/2+z
1/2+x,1/2+y,z
1/2-x,1/2+y,1/2-z
1/2-x,1/2-y,-z
1/2+x,1/2-y,1/2+z
loop_
_atom_site_type_symbol
_atom_site_label
_atom_site_fract_x
_atom_site_fract_y
_atom_site_fract_z
Si Si1 0.171214 0.026592 0.617659
Si Si2 0.174524 0.957492 0.997631
Si Si3 0.325132 0.046369 0.384803
Si Si4 0.436528 0.964409 0.689168
Si Si5 0.068895 0.020091 0.809527
O O1 0.225705 0.951393 0.557981
O O2 0.144477 0.239949 0.604486
O O3 0.025521 0.946920 0.639172
O O4 0.277704 0.017534 0.671885
O O5 0.250000 0.750000 0.000000
O O6 0.242141 0.029522 0.938926
O O7 0.000000 0.000000 0.000000
O O8 0.472288 0.966259 0.364109
O O9 0.226678 0.034984 0.327223
O O10 0.500000 0.029243 0.750000
O O11 0.438028 0.741979 0.690834
O O12 0.000000 0.955260 0.750000
#
# Coordination Sequence:
#
# PCOD9271087 Si02
#       5
#     8   8   8   8   8
#     4  10  21  37  59  82 117 158 201 253 318 377
#     4  10  20  39  64  89 126 168 215 269 330 398
#     4  10  21  37  59  83 118 156 204 254 314 378
#     4  10  22  38  56  87 121 152 201 260 310 382
#     4  10  20  36  57  82 115 155 195 251 313 376
#
# _framework density 24.970665
#
# number of rings (size 3 to 8) (size 9 to 14) (size 15 to 20)
#    0.000    2.000    2.000    1.200    0.000    3.200 
#    0.000    1.000    0.000    0.000    0.000    0.000 
#    0.000    0.000    0.000    0.000    0.000    0.000 
#
# Total GULP energy -111435.684059 kJ/mol
# GULP energy per Si atom -5571.784203 kJ/mol
# Density = 2.491383 g / cm^3
# Si number density = 24.970665 Si / 1000 Ang^3
#
#
#
# Elastic Constant Matrix: (Units=GPa)
#
#
# Indices 1 2 3 4 5 6 
#
# 1 84.2358 4.1080 -3.6631 0.0000 -13.8501 0.0000
# 2 4.1080 127.8233 4.2030 0.0000 -10.6291 0.0000
# 3 -3.6631 4.2030 102.8481 0.0000 -8.5797 0.0000
# 4 0.0000 0.0000 0.0000 -22.6655 0.0000 -0.7634
# 5 -13.8501 -10.6291 -8.5797 0.0000 35.4002 0.0000
# 6 0.0000 0.0000 0.0000 -0.7634 0.0000 10.3301
#
#
#
# Elastic Compliance Matrix: (Units=1/GPa)
#
#
# Indices 1 2 3 4 5 6 
#
# 1 0.012767 -0.000006 0.000889 0.000000 0.005209 0.000000
# 2 -0.000006 0.008025 -0.000130 0.000000 0.002376 0.000000
# 3 0.000889 -0.000130 0.009988 0.000000 0.002730 0.000000
# 4 0.000000 0.000000 0.000000 -0.044010 0.000000 -0.003252
# 5 0.005209 0.002376 0.002730 0.000000 0.031661 0.000000
# 6 0.000000 0.000000 0.000000 -0.003252 0.000000 0.096564
#
#
# Mechanical properties :
#
#
# Convention : Reuss Voigt Hill
#
# Bulk Modulus (GPa) = 30.97318 36.02257 33.49787
# Shear Modulus (GPa) = 40.24109 25.29689 32.76899
#
# Velocity S-wave (km/s) = 4.01875 3.18632 3.62650
# Velocity P-wave (km/s) = 5.82791 5.29095 5.56591
#
# Compressibility (1/GPa) = 0.03228599
#
# Stress axis : x y z
#
# Youngs Moduli (GPa) = 78.32799 124.60554 100.12238
#
# Poissons Ratio (x) = 0.00080 -0.08906
# Poissons Ratio (y) = 0.00050 0.01302
# Poissons Ratio (z) = -0.06967 0.01620
#
# Static dielectric constant tensor:
#      x y z
#    x 1.913870 0.000000 -0.052020 
#    y 0.000000 1.990100 0.000000 
#    z -0.052020 0.000000 2.045120 
# 
# From -- ./inp_files/262415.got.cif
#   From: 2010.05.17/outbox.cif.g08.bks.cpg/sg15_132_cif.got.tgz:262415.got - 2010.06.03 18:47:42.
