data_PCOD9271127
_publ_section_title
;
Structure prediction by ZEFSAII (Michael W. Deem and Ramdas Pophale) SiO2 
 PCOD9271127
Probable space group: C 2/C
;
_chemical_formula_sum "Si O2"
_cell_formula_units_Z 40
_cell_length_a 23.968212
_cell_length_b 6.163274
_cell_length_c 13.217992
_cell_angle_alpha 90.000000
_cell_angle_beta 80.195574
_cell_angle_gamma 90.000000
_cell_volume 1924.078738
_symmetry_space_group_name_H-M "C 2/C"
_symmetry_group_IT_number 15
_symmetry_cell_setting 'monoclinic'
loop_
_space_group_symop_operation_xyz
x,y,z
-x,y,1/2-z
-x,-y,-z
x,-y,1/2+z
1/2+x,1/2+y,z
1/2-x,1/2+y,1/2-z
1/2-x,1/2-y,-z
1/2+x,1/2-y,1/2+z
loop_
_atom_site_type_symbol
_atom_site_label
_atom_site_fract_x
_atom_site_fract_y
_atom_site_fract_z
Si Si1 0.627491 0.687486 0.653226
Si Si2 0.727621 0.059957 0.079588
Si Si3 0.431577 0.440151 0.125632
Si Si4 0.166062 0.823964 0.481016
Si Si5 0.960615 0.693674 0.473806
O O1 0.682272 0.829056 0.667521
O O2 0.592468 0.588296 0.755752
O O3 0.648539 0.490746 0.575532
O O4 0.587461 0.839797 0.595495
O O5 0.693696 0.886691 0.021812
O O6 0.750000 0.250000 0.000000
O O7 0.784069 0.939579 0.099921
O O8 0.495315 0.357328 0.094106
O O9 0.389879 0.296832 0.067963
O O10 0.432155 0.680631 0.077190
O O11 0.000000 0.500000 0.500000
#
# Coordination Sequence:
#
# PCOD9271127 Si02
#       5
#     8   8   8   8   8
#     4  10  20  36  57  86 115 150 200 245 297 361
#     4   9  18  36  56  77 112 154 192 238 293 349
#     4  10  21  37  57  88 115 151 200 247 300 362
#     4   9  19  37  56  80 117 153 190 246 296 351
#     4  10  21  38  60  83 119 158 194 249 306 363
#
# _framework density 20.789171
#
# number of rings (size 3 to 8) (size 9 to 14) (size 15 to 20)
#    0.000    2.400    0.000    1.800    0.000    1.600 
#   10.800    6.000    0.000    0.000    0.000    0.000 
#    0.000    0.000    0.000    0.000    0.000    0.000 
#
# Total GULP energy -111507.694729 kJ/mol
# GULP energy per Si atom -5575.384736 kJ/mol
# Density = 2.074185 g / cm^3
# Si number density = 20.789171 Si / 1000 Ang^3
#
#
#
# Elastic Constant Matrix: (Units=GPa)
#
#
# Indices 1 2 3 4 5 6 
#
# 1 85.2380 12.7882 25.9313 0.0000 -18.5970 0.0000
# 2 12.7882 53.2179 23.6865 0.0000 -4.6183 0.0000
# 3 25.9313 23.6865 105.7531 0.0000 -22.0526 0.0000
# 4 0.0000 0.0000 0.0000 15.3780 0.0000 -9.4790
# 5 -18.5970 -4.6183 -22.0526 0.0000 23.1245 0.0000
# 6 0.0000 0.0000 0.0000 -9.4790 0.0000 49.9998
#
#
#
# Elastic Compliance Matrix: (Units=1/GPa)
#
#
# Indices 1 2 3 4 5 6 
#
# 1 0.014619 -0.002200 -0.000914 0.000000 0.010446 0.000000
# 2 -0.002200 0.021205 -0.004613 0.000000 -0.001934 0.000000
# 3 -0.000914 -0.004613 0.012942 0.000000 0.010686 0.000000
# 4 0.000000 0.000000 0.000000 0.073633 0.000000 0.013959
# 5 0.010446 -0.001934 0.010686 0.000000 0.061449 0.000000
# 6 0.000000 0.000000 0.000000 0.013959 0.000000 0.022646
#
#
# Mechanical properties :
#
#
# Convention : Reuss Voigt Hill
#
# Bulk Modulus (GPa) = 30.01921 41.00231 35.51076
# Shear Modulus (GPa) = 21.45455 29.82065 25.63760
#
# Velocity S-wave (km/s) = 3.21597 3.79150 3.51553
# Velocity P-wave (km/s) = 5.31612 6.23963 5.79630
#
# Compressibility (1/GPa) = 0.03331201
#
# Stress axis : x y z
#
# Youngs Moduli (GPa) = 68.40434 47.15927 77.27065
#
# Poissons Ratio (x) = 0.10374 0.07060
# Poissons Ratio (y) = 0.15047 0.35647
# Poissons Ratio (z) = 0.06250 0.21756
#
# Static dielectric constant tensor:
#      x y z
#    x 1.751580 0.000000 -0.017320 
#    y 0.000000 1.775230 0.000000 
#    z -0.017320 0.000000 1.708100 
# 
# From -- ./inp_files/120736.got.cif
#   From: 2010.05.17/outbox.cif.g08.bks.cpg/sg15_61_cif.got.tgz:120736.got - 2010.06.03 18:47:42.
