data_PCOD9271686
_publ_section_title
;
Structure prediction by ZEFSAII (Michael W. Deem and Ramdas Pophale) SiO2 
 PCOD9271686
Probable space group: C 2/C
;
_chemical_formula_sum "Si O2"
_cell_formula_units_Z 56
_cell_length_a 15.556067
_cell_length_b 13.763141
_cell_length_c 12.702287
_cell_angle_alpha 90.000000
_cell_angle_beta 103.394090
_cell_angle_gamma 90.000000
_cell_volume 2645.591264
_symmetry_space_group_name_H-M "C 2/C"
_symmetry_group_IT_number 15
_symmetry_cell_setting 'monoclinic'
loop_
_space_group_symop_operation_xyz
x,y,z
-x,y,1/2-z
-x,-y,-z
x,-y,1/2+z
1/2+x,1/2+y,z
1/2-x,1/2+y,1/2-z
1/2-x,1/2-y,-z
1/2+x,1/2-y,1/2+z
loop_
_atom_site_type_symbol
_atom_site_label
_atom_site_fract_x
_atom_site_fract_y
_atom_site_fract_z
Si Si1 0.057503 0.560294 0.868701
Si Si2 0.802935 0.390247 0.539871
Si Si3 0.543483 0.207192 0.534846
Si Si4 0.786336 0.897090 0.198302
Si Si5 0.239467 0.385879 0.739466
Si Si6 0.926122 0.743151 0.316140
Si Si7 0.636297 0.767966 0.263689
O O1 0.133351 0.483599 0.919417
O O2 0.101259 0.661845 0.843316
O O3 0.000000 0.526955 0.750000
O O4 0.992313 0.599509 0.941162
O O5 0.870452 0.310476 0.512997
O O6 0.729379 0.406781 0.430672
O O7 0.758305 0.360029 0.636021
O O8 0.473458 0.259658 0.440843
O O9 0.565906 0.256981 0.652501
O O10 0.872121 0.836830 0.258775
O O11 0.706261 0.834044 0.221362
O O12 0.766906 0.003317 0.237972
O O13 0.141330 0.347297 0.684688
O O14 0.308903 0.325804 0.689704
O O15 0.000000 0.717612 0.250000
#
# Coordination Sequence:
#
# PCOD9271686 Si02
#       7
#     8   8   8   8   8   8   8
#     4  10  20  36  60  93 127 149 197 256 311 369
#     4  11  21  35  64  88 121 160 199 251 317 358
#     4  10  21  36  59  91 119 159 199 252 311 359
#     4  10  23  41  57  91 122 160 207 251 304 370
#     4  11  22  40  62  86 124 161 206 249 309 368
#     4  11  23  39  63  89 121 157 209 260 298 361
#     4   9  21  39  61  86 123 162 198 248 309 370
#
# _framework density 21.167290000000001
#
# number of rings (size 3 to 8) (size 9 to 14) (size 15 to 20)
#    0.000    1.714    2.857    1.286    4.000    1.714 
#    2.571    5.000    0.000    0.000    0.000    0.000 
#    0.000    0.000    0.000    0.000    0.000    0.000 
#
# Total GULP energy -156247.282663 kJ/mol
# GULP energy per Si atom -5580.260095 kJ/mol
# Density = 2.111911 g / cm^3
# Si number density = 21.167290 Si / 1000 Ang^3
#
#
#
# Elastic Constant Matrix: (Units=GPa)
#
#
# Indices 1 2 3 4 5 6 
#
# 1 65.8856 33.1495 18.6730 0.0000 11.6079 0.0000
# 2 33.1495 93.6697 12.4308 0.0000 12.7737 0.0000
# 3 18.6730 12.4308 61.1398 0.0000 13.8591 0.0000
# 4 0.0000 0.0000 0.0000 3.8094 0.0000 -2.0128
# 5 11.6079 12.7737 13.8591 0.0000 31.9861 0.0000
# 6 0.0000 0.0000 0.0000 -2.0128 0.0000 20.7124
#
#
#
# Elastic Compliance Matrix: (Units=1/GPa)
#
#
# Indices 1 2 3 4 5 6 
#
# 1 0.019959 -0.006100 -0.004176 0.000000 -0.002998 0.000000
# 2 -0.006100 0.013266 -0.000150 0.000000 -0.003019 0.000000
# 3 -0.004176 -0.000150 0.019189 0.000000 -0.006739 0.000000
# 4 0.000000 0.000000 0.000000 0.276719 0.000000 0.026891
# 5 -0.002998 -0.003019 -0.006739 0.000000 0.036477 0.000000
# 6 0.000000 0.000000 0.000000 0.026891 0.000000 0.050894
#
#
# Mechanical properties :
#
#
# Convention : Reuss Voigt Hill
#
# Bulk Modulus (GPa) = 31.68324 38.80019 35.24172
# Shear Modulus (GPa) = 11.16377 21.73104 16.44741
#
# Velocity S-wave (km/s) = 2.29903 3.20759 2.79053
# Velocity P-wave (km/s) = 4.69552 5.66465 5.20270
#
# Compressibility (1/GPa) = 0.03156242
#
# Stress axis : x y z
#
# Youngs Moduli (GPa) = 50.10324 75.37885 52.11205
#
# Poissons Ratio (x) = 0.45984 0.21762
# Poissons Ratio (y) = 0.30565 0.00780
# Poissons Ratio (z) = 0.20923 0.01129
#
# Static dielectric constant tensor:
#      x y z
#    x 1.825360 0.000000 0.033100 
#    y 0.000000 1.841910 0.000000 
#    z 0.033100 0.000000 1.807550 
# 
# From -- ./inp_files/105423.got.cif
#   From: 2010.05.17/outbox.cif.g08.bks.cpg/sg15_53_cif.got.tgz:105423.got - 2010.06.03 18:47:42.
