data_PCOD9271033
_publ_section_title
;
Structure prediction by ZEFSAII (Michael W. Deem and Ramdas Pophale) SiO2 
 PCOD9271033
Probable space group: C 2/C
;
_chemical_formula_sum "Si O2"
_cell_formula_units_Z 60
_cell_length_a 20.847725
_cell_length_b 6.635808
_cell_length_c 24.421469
_cell_angle_alpha 90.000000
_cell_angle_beta 122.966680
_cell_angle_gamma 90.000000
_cell_volume 2834.520345
_symmetry_space_group_name_H-M "C 2/C"
_symmetry_group_IT_number 15
_symmetry_cell_setting 'monoclinic'
loop_
_space_group_symop_operation_xyz
x,y,z
-x,y,1/2-z
-x,-y,-z
x,-y,1/2+z
1/2+x,1/2+y,z
1/2-x,1/2+y,1/2-z
1/2-x,1/2-y,-z
1/2+x,1/2-y,1/2+z
loop_
_atom_site_type_symbol
_atom_site_label
_atom_site_fract_x
_atom_site_fract_y
_atom_site_fract_z
Si Si1 0.166856 0.444400 0.753475
Si Si2 0.530442 0.353119 0.935414
Si Si3 0.243652 0.184062 0.883162
Si Si4 0.998684 0.481669 0.156725
Si Si5 0.500000 0.354389 0.750000
Si Si6 0.623064 0.515070 0.079559
Si Si7 0.903417 0.128778 0.631818
Si Si8 0.759123 0.700281 0.319679
O O1 0.190327 0.298613 0.813551
O O2 0.081793 0.417540 0.691580
O O3 0.223951 0.405715 0.729796
O O4 0.181485 0.672283 0.780305
O O5 0.531616 0.127794 0.911757
O O6 0.442738 0.395964 0.911922
O O7 0.562870 0.508132 0.904716
O O8 0.580832 0.391196 0.012383
O O9 0.320903 0.315804 0.920727
O O10 0.188020 0.154819 0.909031
O O11 0.261299 0.965550 0.867399
O O12 0.009928 0.298602 0.204315
O O13 0.940929 0.650774 0.150416
O O14 0.432140 0.501094 0.698011
O O15 0.676598 0.366015 0.138349
#
# Coordination Sequence:
#
# PCOD9271033 Si02
#       8
#     8   8   8   8   4   8   8   8
#     4  11  21  35  59  92 127 158 205 251 318 378
#     4  10  24  44  64  89 124 161 220 262 305 378
#     4  11  23  39  61  92 128 159 207 260 318 378
#     4  11  22  37  64  90 125 170 205 256 315 375
#     4  10  20  36  56  88 128 158 204 250 316 382
#     4  10  24  44  64  89 120 167 210 263 315 374
#     4  11  23  39  61  92 125 165 207 263 319 379
#     4  11  22  37  62  92 127 163 200 259 316 373
#
# _framework density 21.167603
#
# number of rings (size 3 to 8) (size 9 to 14) (size 15 to 20)
#    0.000    1.333    1.333    4.400    1.867    6.933 
#    0.000    4.667    0.000    0.000    0.000    0.000 
#    0.000    0.000    0.000    0.000    0.000    0.000 
#
# Total GULP energy -167605.171018 kJ/mol
# GULP energy per Si atom -5586.839034 kJ/mol
# Density = 2.111942 g / cm^3
# Si number density = 21.167603 Si / 1000 Ang^3
#
#
#
# Elastic Constant Matrix: (Units=GPa)
#
#
# Indices 1 2 3 4 5 6 
#
# 1 105.4701 19.5873 9.2672 0.0000 11.9479 0.0000
# 2 19.5873 70.7346 3.6252 0.0001 5.2069 0.0001
# 3 9.2672 3.6252 32.7635 0.0000 0.3060 0.0000
# 4 0.0000 0.0001 0.0000 20.4713 0.0000 -5.4181
# 5 11.9479 5.2069 0.3060 0.0000 21.2547 0.0000
# 6 0.0000 0.0001 0.0000 -5.4181 0.0000 27.5284
#
#
#
# Elastic Compliance Matrix: (Units=1/GPa)
#
#
# Indices 1 2 3 4 5 6 
#
# 1 0.010791 -0.002449 -0.002731 0.000000 -0.005427 0.000000
# 2 -0.002449 0.015033 -0.000949 0.000000 -0.002293 0.000000
# 3 -0.002731 -0.000949 0.031387 0.000000 0.001316 0.000000
# 4 0.000000 0.000000 0.000000 0.051533 0.000000 0.010143
# 5 -0.005427 -0.002293 0.001316 0.000000 0.050642 0.000000
# 6 0.000000 0.000000 0.000000 0.010143 0.000000 0.038322
#
#
# Mechanical properties :
#
#
# Convention : Reuss Voigt Hill
#
# Bulk Modulus (GPa) = 22.24528 30.43639 26.34084
# Shear Modulus (GPa) = 22.22720 25.61676 23.92198
#
# Velocity S-wave (km/s) = 3.24397 3.48255 3.36538
# Velocity P-wave (km/s) = 4.95612 5.52999 5.25090
#
# Compressibility (1/GPa) = 0.04495335
#
# Stress axis : x y z
#
# Youngs Moduli (GPa) = 92.67162 66.52100 31.86044
#
# Poissons Ratio (x) = 0.16289 0.08700
# Poissons Ratio (y) = 0.22692 0.03025
# Poissons Ratio (z) = 0.25305 0.06315
#
# Static dielectric constant tensor:
#      x y z
#    x 1.799750 0.000000 -0.006000 
#    y 0.000000 1.738490 0.000000 
#    z -0.006000 0.000000 1.758790 
# 
# From -- ./inp_files/300142.got.cif
#   From: 2010.05.17/outbox.cif.g08.bks.cpg/sg15_151_cif.got.tgz:300142.got - 2010.06.03 18:47:42.
