data_PCOD9271064
_publ_section_title
;
Structure prediction by ZEFSAII (Michael W. Deem and Ramdas Pophale) SiO2 
 PCOD9271064
Probable space group: C 2/C
;
_chemical_formula_sum "Si O2"
_cell_formula_units_Z 64
_cell_length_a 15.754038
_cell_length_b 9.598971
_cell_length_c 27.803421
_cell_angle_alpha 90.000000
_cell_angle_beta 122.077956
_cell_angle_gamma 90.000000
_cell_volume 3562.587136
_symmetry_space_group_name_H-M "C 2/C"
_symmetry_group_IT_number 15
_symmetry_cell_setting 'monoclinic'
loop_
_space_group_symop_operation_xyz
x,y,z
-x,y,1/2-z
-x,-y,-z
x,-y,1/2+z
1/2+x,1/2+y,z
1/2-x,1/2+y,1/2-z
1/2-x,1/2-y,-z
1/2+x,1/2-y,1/2+z
loop_
_atom_site_type_symbol
_atom_site_label
_atom_site_fract_x
_atom_site_fract_y
_atom_site_fract_z
Si Si1 0.447405 0.923443 0.528133
Si Si2 0.912762 0.417752 0.837575
Si Si3 0.054925 0.105988 0.654876
Si Si4 0.886607 0.922219 0.644485
Si Si5 0.967120 0.856537 0.464291
Si Si6 0.303207 0.167622 0.472680
Si Si7 0.538815 0.181651 0.708710
Si Si8 0.676502 0.424045 0.766436
O O1 0.525233 0.930560 0.594967
O O2 0.442687 0.758143 0.514648
O O3 0.500000 0.000000 0.500000
O O4 0.353292 0.024749 0.508048
O O5 0.935540 0.264307 0.825154
O O6 0.949333 0.540483 0.815238
O O7 0.794301 0.433478 0.808678
O O8 0.069568 0.107716 0.601279
O O9 0.133410 0.017030 0.710048
O O10 0.945828 0.042807 0.634295
O O11 0.780069 0.882474 0.590486
O O12 0.875745 0.956862 0.697915
O O13 0.958780 0.787711 0.661588
O O14 0.882894 0.771161 0.469801
O O15 0.000000 0.000000 0.500000
O O16 0.250000 0.250000 0.500000
O O17 0.500000 0.153383 0.750000
O O18 0.642216 0.267065 0.743645
#
# Coordination Sequence:
#
# PCOD9271064 Si02
#       8
#     8   8   8   8   8   8   8   8
#     4   9  20  36  55  80 109 144 183 223 274 335
#     4  11  20  35  56  81 109 138 180 235 276 320
#     4  10  21  36  56  83 113 144 181 232 285 331
#     4  10  20  38  57  78 111 150 187 224 275 343
#     4  10  21  39  59  82 114 147 186 238 284 333
#     4  11  21  37  62  85 111 152 194 232 286 348
#     4   9  20  35  54  78 108 144 183 225 275 334
#     4  10  20  36  57  79 107 149 188 221 274 342
#
# _framework density 17.964472000000001
#
# number of rings (size 3 to 8) (size 9 to 14) (size 15 to 20)
#    0.000    2.000    0.000    5.625    0.000    5.000 
#    0.000    8.125    0.000    0.000    0.000    0.000 
#    0.000    0.000    0.000    0.000    0.000    0.000 
#
# Total GULP energy -178355.823512 kJ/mol
# GULP energy per Si atom -5573.619485 kJ/mol
# Density = 1.792358 g / cm^3
# Si number density = 17.964472 Si / 1000 Ang^3
#
#
#
# Elastic Constant Matrix: (Units=GPa)
#
#
# Indices 1 2 3 4 5 6 
#
# 1 76.4341 73.0024 33.9636 0.0000 6.9888 0.0000
# 2 73.0024 129.8620 52.1900 0.0000 -14.8021 0.0000
# 3 33.9636 52.1900 85.9743 0.0000 1.4483 0.0000
# 4 0.0000 0.0000 0.0000 14.6890 0.0000 6.3161
# 5 6.9888 -14.8021 1.4483 0.0000 31.6675 0.0000
# 6 0.0000 0.0000 0.0000 6.3161 0.0000 7.2312
#
#
#
# Elastic Compliance Matrix: (Units=1/GPa)
#
#
# Indices 1 2 3 4 5 6 
#
# 1 0.036277 -0.022295 -0.000487 0.000000 -0.018405 0.000000
# 2 -0.022295 0.024763 -0.006508 0.000000 0.016793 0.000000
# 3 -0.000487 -0.006508 0.015836 0.000000 -0.003659 0.000000
# 4 0.000000 0.000000 0.000000 0.109026 0.000000 -0.095230
# 5 -0.018405 0.016793 -0.003659 0.000000 0.043657 0.000000
# 6 0.000000 0.000000 0.000000 -0.095230 0.000000 0.221470
#
#
# Mechanical properties :
#
#
# Convention : Reuss Voigt Hill
#
# Bulk Modulus (GPa) = 54.65538 67.84249 61.24894
# Shear Modulus (GPa) = 9.69542 19.59181 14.64362
#
# Velocity S-wave (km/s) = 2.32566 3.30599 2.85817
# Velocity P-wave (km/s) = 6.14018 7.24013 6.71272
#
# Compressibility (1/GPa) = 0.01829646
#
# Stress axis : x y z
#
# Youngs Moduli (GPa) = 27.56590 40.38212 63.14866
#
# Poissons Ratio (x) = 0.90034 0.03073
# Poissons Ratio (y) = 0.61459 0.41095
# Poissons Ratio (z) = 0.01341 0.26279
#
# Static dielectric constant tensor:
#      x y z
#    x 1.626160 0.000000 0.011430 
#    y 0.000000 1.624230 0.000000 
#    z 0.011430 0.000000 1.663550 
# 
# From -- ./inp_files/312926.got.cif
#   From: 2010.05.17/outbox.cif.g08.bks.cpg/sg15_157_cif.got.tgz:312926.got - 2010.06.03 18:47:42.
