data_PCOD9271767
_publ_section_title
;
Structure prediction by ZEFSAII (Michael W. Deem and Ramdas Pophale) SiO2 
 PCOD9271767
Probable space group: C 2/C
;
_chemical_formula_sum "Si O2"
_cell_formula_units_Z 48
_cell_length_a 14.516716
_cell_length_b 9.954698
_cell_length_c 15.893559
_cell_angle_alpha 90.000000
_cell_angle_beta 109.524442
_cell_angle_gamma 90.000000
_cell_volume 2164.704046
_symmetry_space_group_name_H-M "C 2/C"
_symmetry_group_IT_number 15
_symmetry_cell_setting 'monoclinic'
loop_
_space_group_symop_operation_xyz
x,y,z
-x,y,1/2-z
-x,-y,-z
x,-y,1/2+z
1/2+x,1/2+y,z
1/2-x,1/2+y,1/2-z
1/2-x,1/2-y,-z
1/2+x,1/2-y,1/2+z
loop_
_atom_site_type_symbol
_atom_site_label
_atom_site_fract_x
_atom_site_fract_y
_atom_site_fract_z
Si Si1 0.218478 0.655177 0.914525
Si Si2 0.672786 0.991617 0.668182
Si Si3 0.641170 0.502885 0.656184
Si Si4 0.403277 0.244906 0.771705
Si Si5 0.475541 0.757257 0.840456
Si Si6 0.904859 0.455287 0.523969
O O1 0.304407 0.555874 0.910213
O O2 0.182764 0.743457 0.824421
O O3 0.128586 0.562541 0.916887
O O4 0.250000 0.750000 0.000000
O O5 0.775213 0.011013 0.746038
O O6 0.600055 0.096355 0.691878
O O7 0.678017 0.037076 0.572927
O O8 0.619609 0.848564 0.665054
O O9 0.609129 0.349296 0.655881
O O10 0.553716 0.605121 0.648321
O O11 0.500000 0.277293 0.750000
O O12 0.500000 0.772407 0.750000
O O13 0.564505 0.817733 0.922074
O O14 0.000000 0.500000 0.500000
#
# Coordination Sequence:
#
# PCOD9271767 Si02
#       6
#     8   8   8   8   8   8
#     4  11  22  40  65  90 121 163 206 251 303 363
#     4  10  20  39  62  86 115 155 205 250 296 363
#     4  11  23  38  58  89 123 155 195 250 307 360
#     4  11  22  39  61  89 123 159 196 248 309 361
#     4  11  21  38  60  84 115 158 203 246 296 365
#     4  10  20  36  61  90 114 152 205 251 293 360
#
# _framework density 22.173932000000001
#
# number of rings (size 3 to 8) (size 9 to 14) (size 15 to 20)
#    0.000    1.333    0.000   10.000    0.000    0.000 
#    0.000    8.333    0.000    0.000    0.000    0.000 
#    0.000    0.000    0.000    0.000    0.000    0.000 
#
# Total GULP energy -134102.605188 kJ/mol
# GULP energy per Si atom -5587.608550 kJ/mol
# Density = 2.212346 g / cm^3
# Si number density = 22.173932 Si / 1000 Ang^3
#
#
#
# Elastic Constant Matrix: (Units=GPa)
#
#
# Indices 1 2 3 4 5 6 
#
# 1 55.4016 6.1305 -12.9208 0.0000 -16.7789 0.0000
# 2 6.1305 65.2204 -12.4870 0.0000 -8.3345 0.0000
# 3 -12.9208 -12.4870 52.6336 0.0000 -16.2708 0.0000
# 4 0.0000 0.0000 0.0000 35.0568 0.0000 -7.3071
# 5 -16.7789 -8.3345 -16.2708 0.0000 30.9083 0.0000
# 6 0.0000 0.0000 0.0000 -7.3071 0.0000 30.7912
#
#
#
# Elastic Compliance Matrix: (Units=1/GPa)
#
#
# Indices 1 2 3 4 5 6 
#
# 1 0.028773 0.003423 0.015514 0.000000 0.024710 0.000000
# 2 0.003423 0.018103 0.008622 0.000000 0.011279 0.000000
# 3 0.015514 0.008622 0.033652 0.000000 0.028462 0.000000
# 4 0.000000 0.000000 0.000000 0.030010 0.000000 0.007122
# 5 0.024710 0.011279 0.028462 0.000000 0.063792 0.000000
# 6 0.000000 0.000000 0.000000 0.007122 0.000000 0.034167
#
#
# Mechanical properties :
#
#
# Convention : Reuss Voigt Hill
#
# Bulk Modulus (GPa) = 7.37208 14.96677 11.16942
# Shear Modulus (GPa) = 25.17711 32.18679 28.68195
#
# Velocity S-wave (km/s) = 3.37328 3.81407 3.60043
# Velocity P-wave (km/s) = 4.30162 5.11474 4.72570
#
# Compressibility (1/GPa) = 0.13564697
#
# Stress axis : x y z
#
# Youngs Moduli (GPa) = 34.75465 55.23992 29.71602
#
# Poissons Ratio (x) = -0.18911 -0.46102
# Poissons Ratio (y) = -0.11898 -0.25621
# Poissons Ratio (z) = -0.53919 -0.47627
#
# Static dielectric constant tensor:
#      x y z
#    x 1.833500 0.000000 0.049830 
#    y 0.000000 1.818310 0.000000 
#    z 0.049830 0.000000 1.867430 
# 
# From -- ./inp_files/152102.got.cif
#   From: 2010.05.17/outbox.cif.g08.bks.cpg/sg15_77_cif.got.tgz:152102.got - 2010.06.03 18:47:42.
