data_PCOD9271595
_publ_section_title
;
Structure prediction by ZEFSAII (Michael W. Deem and Ramdas Pophale) SiO2 
 PCOD9271595
Probable space group: C 2/C
;
_chemical_formula_sum "Si O2"
_cell_formula_units_Z 64
_cell_length_a 6.395079
_cell_length_b 24.007541
_cell_length_c 22.124344
_cell_angle_alpha 90.000000
_cell_angle_beta 117.683606
_cell_angle_gamma 90.000000
_cell_volume 3007.915309
_symmetry_space_group_name_H-M "C 2/C"
_symmetry_group_IT_number 15
_symmetry_cell_setting 'monoclinic'
loop_
_space_group_symop_operation_xyz
x,y,z
-x,y,1/2-z
-x,-y,-z
x,-y,1/2+z
1/2+x,1/2+y,z
1/2-x,1/2+y,1/2-z
1/2-x,1/2-y,-z
1/2+x,1/2-y,1/2+z
loop_
_atom_site_type_symbol
_atom_site_label
_atom_site_fract_x
_atom_site_fract_y
_atom_site_fract_z
Si Si1 0.421293 0.304079 0.148480
Si Si2 0.111392 0.401180 0.122192
Si Si3 0.608688 0.343412 0.043776
Si Si4 0.671960 0.002463 0.390768
Si Si5 0.899111 0.624618 0.169272
Si Si6 0.236195 0.787091 0.818068
Si Si7 0.163053 0.050925 0.967056
Si Si8 0.488043 0.286892 0.906774
O O1 0.324326 0.359393 0.168556
O O2 0.502959 0.322061 0.092538
O O3 0.637107 0.264958 0.199156
O O4 0.202837 0.261926 0.113977
O O5 0.182511 0.423857 0.065619
O O6 0.874739 0.364459 0.087200
O O7 0.027217 0.455642 0.147817
O O8 0.449132 0.398224 0.009466
O O9 0.590685 0.301601 0.985781
O O10 0.933172 0.980109 0.408644
O O11 0.616684 0.061251 0.353628
O O12 0.698951 0.012949 0.466744
O O13 0.652786 0.657538 0.133102
O O14 0.000000 0.627339 0.250000
O O15 0.082497 0.661723 0.155317
O O16 0.000000 0.801088 0.750000
O O17 0.167575 0.772581 0.877410
#
# Coordination Sequence:
#
# PCOD9271595 Si02
#       8
#     8   8   8   8   8   8   8   8
#     4  10  23  38  60  88 129 163 204 256 304 378
#     4  10  21  36  58  90 125 158 204 242 304 366
#     4  10  20  36  60  93 130 159 201 250 311 380
#     4  10  20  36  60  87 121 160 199 250 307 370
#     4  11  23  41  63  92 122 155 206 263 311 372
#     4  11  24  41  63  91 119 163 214 257 321 369
#     4   9  19  35  56  90 123 161 197 243 309 370
#     4  11  22  38  62  91 127 160 201 256 320 366
#
# _framework density 21.277197000000001
#
# number of rings (size 3 to 8) (size 9 to 14) (size 15 to 20)
#    0.000    1.750    2.500    1.500    1.750    4.000 
#    0.000    0.000    0.000   18.000    0.000    0.000 
#    0.000    0.000    0.000    0.000    0.000    0.000 
#
# Total GULP energy -178698.077501 kJ/mol
# GULP energy per Si atom -5584.314922 kJ/mol
# Density = 2.122877 g / cm^3
# Si number density = 21.277197 Si / 1000 Ang^3
#
#
#
# Elastic Constant Matrix: (Units=GPa)
#
#
# Indices 1 2 3 4 5 6 
#
# 1 112.5642 52.6182 14.7772 0.0000 -11.9519 0.0000
# 2 52.6182 129.0759 10.8609 0.0000 6.9687 0.0000
# 3 14.7772 10.8609 31.1792 0.0000 -4.2513 0.0000
# 4 0.0000 0.0000 0.0000 19.6850 0.0000 -1.6444
# 5 -11.9519 6.9687 -4.2513 0.0000 15.1649 0.0000
# 6 0.0000 0.0000 0.0000 -1.6444 0.0000 17.7581
#
#
#
# Elastic Compliance Matrix: (Units=1/GPa)
#
#
# Indices 1 2 3 4 5 6 
#
# 1 0.013288 -0.005874 -0.002553 0.000000 0.012456 0.000000
# 2 -0.005874 0.010903 -0.002421 0.000000 -0.010319 0.000000
# 3 -0.002553 -0.002421 0.035355 0.000000 0.009012 0.000000
# 4 0.000000 0.000000 0.000000 0.051196 0.000000 0.004741
# 5 0.012456 -0.010319 0.009012 0.000000 0.083027 0.000000
# 6 0.000000 0.000000 0.000000 0.004741 0.000000 0.056751
#
#
# Mechanical properties :
#
#
# Convention : Reuss Voigt Hill
#
# Bulk Modulus (GPa) = 26.42073 47.70355 37.06214
# Shear Modulus (GPa) = 17.55421 23.49244 20.52332
#
# Velocity S-wave (km/s) = 2.87544 3.32642 3.10912
# Velocity P-wave (km/s) = 4.84444 6.10100 5.50866
#
# Compressibility (1/GPa) = 0.03784907
#
# Stress axis : x y z
#
# Youngs Moduli (GPa) = 75.25864 91.71886 28.28484
#
# Poissons Ratio (x) = 0.53879 0.07221
# Poissons Ratio (y) = 0.44210 0.06847
# Poissons Ratio (z) = 0.19212 0.22203
#
# Static dielectric constant tensor:
#      x y z
#    x 1.766340 0.000000 0.015670 
#    y 0.000000 1.821410 0.000000 
#    z 0.015670 0.000000 1.743290 
# 
# From -- ./inp_files/261823.got.cif
#   From: 2010.05.17/outbox.cif.g08.bks.cpg/sg15_131_cif.got.tgz:261823.got - 2010.06.03 18:47:42.
