data_PCOD9271184
_publ_section_title
;
Structure prediction by ZEFSAII (Michael W. Deem and Ramdas Pophale) SiO2 
 PCOD9271184
Probable space group: C 2/C
;
_chemical_formula_sum "Si O2"
_cell_formula_units_Z 44
_cell_length_a 18.954009
_cell_length_b 16.720519
_cell_length_c 5.100965
_cell_angle_alpha 90.000000
_cell_angle_beta 84.538047
_cell_angle_gamma 90.000000
_cell_volume 1609.262273
_symmetry_space_group_name_H-M "C 2/C"
_symmetry_group_IT_number 15
_symmetry_cell_setting 'monoclinic'
loop_
_space_group_symop_operation_xyz
x,y,z
-x,y,1/2-z
-x,-y,-z
x,-y,1/2+z
1/2+x,1/2+y,z
1/2-x,1/2+y,1/2-z
1/2-x,1/2-y,-z
1/2+x,1/2-y,1/2+z
loop_
_atom_site_type_symbol
_atom_site_label
_atom_site_fract_x
_atom_site_fract_y
_atom_site_fract_z
Si Si1 0.216514 0.543801 0.778840
Si Si2 0.073630 0.443196 0.164898
Si Si3 0.861130 0.100847 0.514480
Si Si4 0.000000 0.913101 0.750000
Si Si5 0.932434 0.781761 0.390386
Si Si6 0.298697 0.729616 0.228913
O O1 0.206358 0.468059 0.588568
O O2 0.151458 0.595192 0.683542
O O3 0.297753 0.564735 0.702022
O O4 0.071582 0.515329 0.381863
O O5 0.000000 0.397582 0.250000
O O6 0.890392 0.177502 0.664434
O O7 0.820949 0.137578 0.277786
O O8 0.930277 0.049045 0.410321
O O9 0.966726 0.854761 0.542695
O O10 0.876293 0.740557 0.599802
O O11 0.000000 0.734786 0.250000
O O12 0.250000 0.750000 0.500000
O O13 0.250000 0.750000 0.000000
#
# Coordination Sequence:
#
# PCOD9271184 Si02
#       6
#     8   8   8   4   8   8
#     4  10  22  34  53  82 111 149 193 236 287 331
#     4   8  14  28  48  71  96 127 175 223 262 321
#     4  10  20  36  58  79 118 148 194 242 281 339
#     4   8  18  32  56  80 106 152 196 236 274 336
#     4   9  18  35  58  82 110 152 195 234 279 349
#     4  11  21  35  57  88 110 139 186 238 293 343
#
# _framework density 27.341716999999999
#
# number of rings (size 3 to 8) (size 9 to 14) (size 15 to 20)
#    0.000    2.545    1.818    0.000    5.091    0.000 
#    0.000    0.909    0.000    2.182    0.000    1.273 
#    0.000    0.000    0.000    0.000    0.000    0.000 
#
# Total GULP energy -122671.399671 kJ/mol
# GULP energy per Si atom -5575.972712 kJ/mol
# Density = 2.727949 g / cm^3
# Si number density = 27.341717 Si / 1000 Ang^3
#
#
#
# Elastic Constant Matrix: (Units=GPa)
#
#
# Indices 1 2 3 4 5 6 
#
# 1 264.7163 25.8880 82.3090 0.0000 -68.8036 0.0000
# 2 25.8880 28.9712 32.6642 0.0000 -3.0033 0.0000
# 3 82.3090 32.6642 194.5153 0.0000 -28.0425 0.0000
# 4 0.0000 0.0000 0.0000 31.8541 0.0000 -7.0224
# 5 -68.8036 -3.0033 -28.0425 0.0000 90.3962 0.0000
# 6 0.0000 0.0000 0.0000 -7.0224 0.0000 15.9043
#
#
#
# Elastic Compliance Matrix: (Units=1/GPa)
#
#
# Indices 1 2 3 4 5 6 
#
# 1 0.005408 -0.003042 -0.001255 0.000000 0.003626 0.000000
# 2 -0.003042 0.044350 -0.006576 0.000000 -0.002882 0.000000
# 3 -0.001255 -0.006576 0.006916 0.000000 0.000972 0.000000
# 4 0.000000 0.000000 0.000000 0.034779 0.000000 0.015356
# 5 0.003626 -0.002882 0.000972 0.000000 0.014028 0.000000
# 6 0.000000 0.000000 0.000000 0.015356 0.000000 0.069657
#
#
# Mechanical properties :
#
#
# Convention : Reuss Voigt Hill
#
# Bulk Modulus (GPa) = 28.62890 85.54723 57.08807
# Shear Modulus (GPa) = 23.97795 50.78702 37.38248
#
# Velocity S-wave (km/s) = 2.96459 4.31454 3.70162
# Velocity P-wave (km/s) = 4.71295 7.49509 6.26052
#
# Compressibility (1/GPa) = 0.03492974
#
# Stress axis : x y z
#
# Youngs Moduli (GPa) = 184.92607 22.54774 144.58487
#
# Poissons Ratio (x) = 0.06858 0.18142
# Poissons Ratio (y) = 0.56245 0.95079
# Poissons Ratio (z) = 0.23204 0.14827
#
# Static dielectric constant tensor:
#      x y z
#    x 2.270970 0.000000 -0.065350 
#    y 0.000000 1.882200 0.000000 
#    z -0.065350 0.000000 2.136480 
# 
# From -- ./inp_files/8017.got.cif
#   From: 2010.05.17/outbox.cif.g08.bks.cpg/sg15_5_cif.got.tgz:8017.got - 2010.06.03 18:47:42.
