data_PCOD9271258
_publ_section_title
;
Structure prediction by ZEFSAII (Michael W. Deem and Ramdas Pophale) SiO2 
 PCOD9271258
Probable space group: C 2/C
;
_chemical_formula_sum "Si O2"
_cell_formula_units_Z 56
_cell_length_a 17.675183
_cell_length_b 9.886857
_cell_length_c 22.072118
_cell_angle_alpha 90.000000
_cell_angle_beta 51.917069
_cell_angle_gamma 90.000000
_cell_volume 3036.032883
_symmetry_space_group_name_H-M "C 2/C"
_symmetry_group_IT_number 15
_symmetry_cell_setting 'monoclinic'
loop_
_space_group_symop_operation_xyz
x,y,z
-x,y,1/2-z
-x,-y,-z
x,-y,1/2+z
1/2+x,1/2+y,z
1/2-x,1/2+y,1/2-z
1/2-x,1/2-y,-z
1/2+x,1/2-y,1/2+z
loop_
_atom_site_type_symbol
_atom_site_label
_atom_site_fract_x
_atom_site_fract_y
_atom_site_fract_z
Si Si1 0.190848 0.928470 0.906119
Si Si2 0.054764 0.118434 0.286380
Si Si3 0.467019 0.613130 0.910564
Si Si4 0.332301 0.219537 0.688434
Si Si5 0.259992 0.008001 0.142586
Si Si6 0.688747 0.275023 0.090129
Si Si7 0.335024 0.282795 0.134282
O O1 0.156932 0.840225 0.865380
O O2 0.288042 0.853021 0.879254
O O3 0.200658 0.083128 0.882459
O O4 0.111751 0.915889 0.998454
O O5 0.083976 0.258681 0.304067
O O6 0.000000 0.132419 0.250000
O O7 0.157121 0.046054 0.222642
O O8 0.998575 0.024201 0.361417
O O9 0.418038 0.700077 0.881018
O O10 0.557002 0.686915 0.897387
O O11 0.324617 0.079983 0.656449
O O12 0.231421 0.234407 0.773529
O O13 0.231903 0.908142 0.101674
O O14 0.315542 0.148495 0.104402
O O15 0.750000 0.250000 0.000000
#
# Coordination Sequence:
#
# PCOD9271258 Si02
#       7
#     8   8   8   8   8   8   8
#     4  10  21  38  62  87 119 154 196 243 292 349
#     4  11  20  34  61  88 113 151 202 245 283 349
#     4  11  20  37  63  90 113 153 207 238 286 357
#     4  10  20  37  56  85 121 153 189 243 295 347
#     4  10  20  36  58  85 117 151 196 235 298 347
#     4   9  20  38  58  82 120 155 186 242 297 347
#     4  11  20  35  60  90 111 153 200 241 285 355
#
# _framework density 18.445122999999999
#
# number of rings (size 3 to 8) (size 9 to 14) (size 15 to 20)
#    0.000    1.714    4.286    1.286    0.000    0.000 
#    0.000   12.143    0.000    0.000    0.000    0.000 
#    0.000    0.000    0.000    0.000    0.000    0.000 
#
# Total GULP energy -156058.391796 kJ/mol
# GULP energy per Si atom -5573.513993 kJ/mol
# Density = 1.840314 g / cm^3
# Si number density = 18.445123 Si / 1000 Ang^3
#
#
#
# Elastic Constant Matrix: (Units=GPa)
#
#
# Indices 1 2 3 4 5 6 
#
# 1 100.7339 63.8499 23.1493 0.0000 9.6547 0.0000
# 2 63.8499 133.7181 20.0962 0.0000 9.9279 0.0000
# 3 23.1493 20.0962 54.1193 0.0000 11.7160 0.0000
# 4 0.0000 0.0000 0.0000 -0.6504 0.0000 -3.5801
# 5 9.6547 9.9279 11.7160 0.0000 21.2335 0.0000
# 6 0.0000 0.0000 0.0000 -3.5801 0.0000 31.0171
#
#
#
# Elastic Compliance Matrix: (Units=1/GPa)
#
#
# Indices 1 2 3 4 5 6 
#
# 1 0.015063 -0.006513 -0.003636 0.000000 -0.001798 0.000000
# 2 -0.006513 0.010842 -0.000890 0.000000 -0.001617 0.000000
# 3 -0.003636 -0.000890 0.022617 0.000000 -0.010410 0.000000
# 4 0.000000 0.000000 0.000000 -0.940164 0.000000 -0.108518
# 5 -0.001798 -0.001617 -0.010410 0.000000 0.054413 0.000000
# 6 0.000000 0.000000 0.000000 -0.108518 0.000000 0.019715
#
#
# Mechanical properties :
#
#
# Convention : Reuss Voigt Hill
#
# Bulk Modulus (GPa) = 37.81407 55.86245 46.83826
# Shear Modulus (GPa) = -6.35629 22.41843 8.03107
#
# Velocity S-wave (km/s) = -1.85837 3.49006 2.08890
# Velocity P-wave (km/s) = 3.99257 6.82585 5.59164
#
# Compressibility (1/GPa) = 0.02644518
#
# Stress axis : x y z
#
# Youngs Moduli (GPa) = 66.38802 92.23392 44.21462
#
# Poissons Ratio (x) = 0.60069 0.16074
# Poissons Ratio (y) = 0.43236 0.03936
# Poissons Ratio (z) = 0.24136 0.08211
#
# Static dielectric constant tensor:
#      x y z
#    x 1.676050 0.000000 0.014180 
#    y 0.000000 1.651990 0.000000 
#    z 0.014180 0.000000 1.625890 
# 
# From -- ./inp_files/276518.got.cif
#   From: 2010.05.17/outbox.cif.g08.bks.cpg/sg15_139_cif.got.tgz:276518.got - 2010.06.03 18:47:42.
