data_PCOD9271314
_publ_section_title
;
Structure prediction by ZEFSAII (Michael W. Deem and Ramdas Pophale) SiO2 
 PCOD9271314
Probable space group: C 2/C
;
_chemical_formula_sum "Si O2"
_cell_formula_units_Z 48
_cell_length_a 18.026754
_cell_length_b 6.853134
_cell_length_c 21.067796
_cell_angle_alpha 90.000000
_cell_angle_beta 118.561065
_cell_angle_gamma 90.000000
_cell_volume 2285.981603
_symmetry_space_group_name_H-M "C 2/C"
_symmetry_group_IT_number 15
_symmetry_cell_setting 'monoclinic'
loop_
_space_group_symop_operation_xyz
x,y,z
-x,y,1/2-z
-x,-y,-z
x,-y,1/2+z
1/2+x,1/2+y,z
1/2-x,1/2+y,1/2-z
1/2-x,1/2-y,-z
1/2+x,1/2-y,1/2+z
loop_
_atom_site_type_symbol
_atom_site_label
_atom_site_fract_x
_atom_site_fract_y
_atom_site_fract_z
Si Si1 0.671786 0.714684 0.665457
Si Si2 0.585772 0.824223 0.321931
Si Si3 0.786266 0.368967 0.680571
Si Si4 0.268212 0.520070 0.103162
Si Si5 0.007372 0.785195 0.029027
Si Si6 0.894919 0.479649 0.033179
O O1 0.703850 0.503862 0.654841
O O2 0.697582 0.753736 0.747799
O O3 0.716163 0.878608 0.639751
O O4 0.572432 0.726044 0.613960
O O5 0.500000 0.774535 0.250000
O O6 0.643962 0.636798 0.362218
O O7 0.574530 0.935709 0.383832
O O8 0.640308 0.973381 0.301491
O O9 0.781039 0.206943 0.623885
O O10 0.205253 0.548436 0.017907
O O11 0.920607 0.691421 0.017166
O O12 0.051937 0.662051 0.991322
O O13 0.000000 0.000000 0.000000
#
# Coordination Sequence:
#
# PCOD9271314 Si02
#       6
#     8   8   8   8   8   8
#     4  10  20  36  58  90 119 152 206 248 301 361
#     4  11  25  40  58  91 125 160 203 252 307 364
#     4  11  21  37  62  87 119 160 199 253 302 362
#     4  10  22  39  62  86 118 166 201 249 304 355
#     4  10  21  37  62  88 116 162 200 253 303 353
#     4  10  22  41  59  88 126 156 207 251 296 372
#
# _framework density 20.997544999999999
#
# number of rings (size 3 to 8) (size 9 to 14) (size 15 to 20)
#    0.000    1.667    1.667    2.500    0.000    4.000 
#    0.000    0.000    0.000    0.000    0.000    0.000 
#    0.000    0.000    0.000    0.000    0.000    0.000 
#
# Total GULP energy -134085.832548 kJ/mol
# GULP energy per Si atom -5586.909689 kJ/mol
# Density = 2.094975 g / cm^3
# Si number density = 20.997545 Si / 1000 Ang^3
#
#
#
# Elastic Constant Matrix: (Units=GPa)
#
#
# Indices 1 2 3 4 5 6 
#
# 1 56.3770 23.5523 26.3273 0.0000 22.1226 0.0000
# 2 23.5523 107.8959 4.9111 0.0000 12.1552 0.0000
# 3 26.3273 4.9111 87.1532 0.0000 18.6704 0.0000
# 4 0.0000 0.0000 0.0000 22.4984 0.0000 -0.7827
# 5 22.1226 12.1552 18.6704 0.0000 28.6440 0.0000
# 6 0.0000 0.0000 0.0000 -0.7827 0.0000 18.0907
#
#
#
# Elastic Compliance Matrix: (Units=1/GPa)
#
#
# Indices 1 2 3 4 5 6 
#
# 1 0.028320 -0.004041 -0.004660 0.000000 -0.017120 0.000000
# 2 -0.004041 0.010322 0.001056 0.000000 -0.001948 0.000000
# 3 -0.004660 0.001056 0.014119 0.000000 -0.006052 0.000000
# 4 0.000000 0.000000 0.000000 0.044515 0.000000 0.001926
# 5 -0.017120 -0.001948 -0.006052 0.000000 0.052905 0.000000
# 6 0.000000 0.000000 0.000000 0.001926 0.000000 0.055360
#
#
# Mechanical properties :
#
#
# Convention : Reuss Voigt Hill
#
# Bulk Modulus (GPa) = 26.68692 40.11196 33.39944
# Shear Modulus (GPa) = 21.42983 26.95565 24.19274
#
# Velocity S-wave (km/s) = 3.19813 3.58684 3.39805
# Velocity P-wave (km/s) = 5.13561 6.02482 5.59790
#
# Compressibility (1/GPa) = 0.03747154
#
# Stress axis : x y z
#
# Youngs Moduli (GPa) = 35.31069 96.88396 70.82848
#
# Poissons Ratio (x) = 0.39152 0.33003
# Poissons Ratio (y) = 0.14269 -0.07482
# Poissons Ratio (z) = 0.16453 -0.10234
#
# Static dielectric constant tensor:
#      x y z
#    x 1.739920 0.000000 0.007990 
#    y 0.000000 1.757760 0.000000 
#    z 0.007990 0.000000 1.746480 
# 
# From -- ./inp_files/278722.got.cif
#   From: 2010.05.17/outbox.cif.g08.bks.cpg/sg15_140_cif.got.tgz:278722.got - 2010.06.03 18:47:42.
