data_PCOD9271279
_publ_section_title
;
Structure prediction by ZEFSAII (Michael W. Deem and Ramdas Pophale) SiO2 
 PCOD9271279
Probable space group: C 2/C
;
_chemical_formula_sum "Si O2"
_cell_formula_units_Z 48
_cell_length_a 30.469303
_cell_length_b 12.829357
_cell_length_c 13.505907
_cell_angle_alpha 90.000000
_cell_angle_beta 26.963022
_cell_angle_gamma 90.000000
_cell_volume 2393.797415
_symmetry_space_group_name_H-M "C 2/C"
_symmetry_group_IT_number 15
_symmetry_cell_setting 'monoclinic'
loop_
_space_group_symop_operation_xyz
x,y,z
-x,y,1/2-z
-x,-y,-z
x,-y,1/2+z
1/2+x,1/2+y,z
1/2-x,1/2+y,1/2-z
1/2-x,1/2-y,-z
1/2+x,1/2-y,1/2+z
loop_
_atom_site_type_symbol
_atom_site_label
_atom_site_fract_x
_atom_site_fract_y
_atom_site_fract_z
Si Si1 0.144247 0.870630 0.877824
Si Si2 0.480267 0.569665 0.400383
Si Si3 0.692346 0.716450 0.713183
Si Si4 0.822543 0.653055 0.632854
Si Si5 0.310589 0.585805 0.430081
Si Si6 0.801706 0.434601 0.725944
O O1 0.217703 0.913283 0.813817
O O2 0.114315 0.754150 0.969467
O O3 0.196622 0.872929 0.665849
O O4 0.058529 0.952908 0.037791
O O5 0.500000 0.612336 0.250000
O O6 0.347817 0.824198 0.657523
O O7 0.578007 0.571668 0.265525
O O8 0.395498 0.636414 0.621234
O O9 0.750000 0.750000 0.500000
O O10 0.769327 0.667955 0.635727
O O11 0.861686 0.535295 0.567306
O O12 0.738101 0.656461 0.886875
O O13 0.252050 0.478911 0.567724
#
# Coordination Sequence:
#
# PCOD9271279 Si02
#       6
#     8   8   8   8   8   8
#     4  11  19  33  55  84 114 146 190 241 282 350
#     4  12  20  38  56  90 119 146 192 248 299 341
#     4  11  21  36  58  86 119 154 194 242 290 353
#     4   9  20  36  55  85 111 148 198 234 284 345
#     4  10  20  36  58  87 111 151 190 238 293 334
#     4   9  20  34  56  85 112 151 194 237 279 344
#
# _framework density 20.051822000000001
#
# number of rings (size 3 to 8) (size 9 to 14) (size 15 to 20)
#    1.000    0.667    5.000    2.000    0.000    0.000 
#    0.000    0.000    0.000    2.000    4.333    0.000 
#    0.000    0.000    0.000    0.000    0.000    0.000 
#
# Total GULP energy -133743.290497 kJ/mol
# GULP energy per Si atom -5572.637104 kJ/mol
# Density = 2.000618 g / cm^3
# Si number density = 20.051822 Si / 1000 Ang^3
#
#
#
# Elastic Constant Matrix: (Units=GPa)
#
#
# Indices 1 2 3 4 5 6 
#
# 1 19.5358 3.5960 0.0717 0.0000 11.4194 0.0000
# 2 3.5960 139.3184 8.2664 0.0000 -16.7255 0.0000
# 3 0.0717 8.2664 51.1982 0.0000 10.0835 0.0000
# 4 0.0000 0.0000 0.0000 17.9336 0.0000 8.6222
# 5 11.4194 -16.7255 10.0835 0.0000 33.0214 0.0000
# 6 0.0000 0.0000 0.0000 8.6222 0.0000 19.5637
#
#
#
# Elastic Compliance Matrix: (Units=1/GPa)
#
#
# Indices 1 2 3 4 5 6 
#
# 1 0.068942 -0.005601 0.006450 0.000000 -0.028648 0.000000
# 2 -0.005601 0.008321 -0.002710 0.000000 0.006979 0.000000
# 3 0.006450 -0.002710 0.021993 0.000000 -0.010319 0.000000
# 4 0.000000 0.000000 0.000000 0.070754 0.000000 -0.031183
# 5 -0.028648 0.006979 -0.010319 0.000000 0.046877 0.000000
# 6 0.000000 0.000000 0.000000 -0.031183 0.000000 0.064858
#
#
# Mechanical properties :
#
#
# Convention : Reuss Voigt Hill
#
# Bulk Modulus (GPa) = 10.46767 25.99118 18.22942
# Shear Modulus (GPa) = 15.75739 27.31161 21.53450
#
# Velocity S-wave (km/s) = 2.80631 3.69460 3.28066
# Velocity P-wave (km/s) = 3.96638 5.58482 4.84368
#
# Compressibility (1/GPa) = 0.09553225
#
# Stress axis : x y z
#
# Youngs Moduli (GPa) = 14.50505 120.17656 45.46929
#
# Poissons Ratio (x) = 0.67317 -0.29328
# Poissons Ratio (y) = 0.08125 0.12323
# Poissons Ratio (z) = -0.09356 0.32571
#
# Static dielectric constant tensor:
#      x y z
#    x 1.681370 0.000000 0.051330 
#    y 0.000000 1.781170 0.000000 
#    z 0.051330 0.000000 1.704460 
# 
# From -- ./inp_files/123452.got.cif
#   From: 2010.05.17/outbox.cif.g08.bks.cpg/sg15_62_cif.got.tgz:123452.got - 2010.06.03 18:47:42.
