data_PCOD9271111
_publ_section_title
;
Structure prediction by ZEFSAII (Michael W. Deem and Ramdas Pophale) SiO2 
 PCOD9271111
Probable space group: C 2/C
;
_chemical_formula_sum "Si O2"
_cell_formula_units_Z 56
_cell_length_a 24.016311
_cell_length_b 10.216776
_cell_length_c 17.831412
_cell_angle_alpha 90.000000
_cell_angle_beta 37.119423
_cell_angle_gamma 90.000000
_cell_volume 2640.386996
_symmetry_space_group_name_H-M "C 2/C"
_symmetry_group_IT_number 15
_symmetry_cell_setting 'monoclinic'
loop_
_space_group_symop_operation_xyz
x,y,z
-x,y,1/2-z
-x,-y,-z
x,-y,1/2+z
1/2+x,1/2+y,z
1/2-x,1/2+y,1/2-z
1/2-x,1/2-y,-z
1/2+x,1/2-y,1/2+z
loop_
_atom_site_type_symbol
_atom_site_label
_atom_site_fract_x
_atom_site_fract_y
_atom_site_fract_z
Si Si1 0.461613 0.317628 0.374516
Si Si2 0.599229 0.031113 0.430039
Si Si3 0.591140 0.604147 0.020790
Si Si4 0.296985 0.058598 0.811462
Si Si5 0.390710 0.690158 0.655765
Si Si6 0.743039 0.263697 0.918245
Si Si7 0.493679 0.868974 0.169693
O O1 0.500000 0.288227 0.250000
O O2 0.442995 0.472986 0.402440
O O3 0.527387 0.283317 0.373262
O O4 0.362748 0.252270 0.490327
O O5 0.624994 0.177971 0.375641
O O6 0.570162 0.039249 0.547211
O O7 0.500000 0.000000 0.500000
O O8 0.674210 0.942811 0.307646
O O9 0.698665 0.628781 0.926992
O O10 0.590166 0.587355 0.930984
O O11 0.525195 0.722451 0.114752
O O12 0.389001 0.108207 0.754003
O O13 0.278334 0.909785 0.858930
O O14 0.305713 0.665639 0.802795
O O15 0.750000 0.250000 0.000000
O O16 0.500000 0.890708 0.250000
#
# Coordination Sequence:
#
# PCOD9271111 Si02
#       7
#     8   8   8   8   8   8   8
#     4  11  21  37  60  87 120 150 189 253 297 342
#     4   8  17  36  56  77 115 149 188 238 294 339
#     4  10  22  38  60  82 119 159 196 237 298 353
#     4   9  20  39  58  83 122 154 194 251 292 348
#     4  10  20  36  57  85 112 153 201 233 288 368
#     4  10  20  38  57  86 118 152 191 243 305 346
#     4  10  20  38  59  87 114 152 202 238 295 354
#
# _framework density 21.209012000000001
#
# number of rings (size 3 to 8) (size 9 to 14) (size 15 to 20)
#    0.000    2.286    1.429    0.857    0.000    4.000 
#   10.286    2.857    0.000    0.000    0.000    0.000 
#    0.000    0.000    0.000    0.000    0.000    0.000 
#
# Total GULP energy -156168.865454 kJ/mol
# GULP energy per Si atom -5577.459480 kJ/mol
# Density = 2.116074 g / cm^3
# Si number density = 21.209012 Si / 1000 Ang^3
#
#
#
# Elastic Constant Matrix: (Units=GPa)
#
#
# Indices 1 2 3 4 5 6 
#
# 1 127.4609 5.1990 64.5220 0.0001 5.5901 -0.0001
# 2 5.1990 32.2587 12.3074 0.0004 -6.6989 -0.0003
# 3 64.5220 12.3074 134.0379 0.0002 13.2165 -0.0001
# 4 0.0001 0.0004 0.0002 22.4305 -0.0001 -5.2025
# 5 5.5901 -6.6989 13.2165 -0.0001 50.2269 0.0001
# 6 -0.0001 -0.0003 -0.0001 -5.2025 0.0001 20.8988
#
#
#
# Elastic Compliance Matrix: (Units=1/GPa)
#
#
# Indices 1 2 3 4 5 6 
#
# 1 0.010377 0.000296 -0.005043 0.000000 0.000212 0.000000
# 2 0.000296 0.033510 -0.003754 -0.000001 0.005424 0.000000
# 3 -0.005043 -0.003754 0.010499 0.000000 -0.002702 0.000000
# 4 0.000000 -0.000001 0.000000 0.047314 0.000000 0.011778
# 5 0.000212 0.005424 -0.002702 0.000000 0.021321 0.000000
# 6 0.000000 0.000000 0.000000 0.011778 0.000000 0.050782
#
#
# Mechanical properties :
#
#
# Convention : Reuss Voigt Hill
#
# Bulk Modulus (GPa) = 26.74975 50.86825 38.80900
# Shear Modulus (GPa) = 24.59806 32.82653 28.71230
#
# Velocity S-wave (km/s) = 3.40927 3.93843 3.68336
# Velocity P-wave (km/s) = 5.30446 6.68715 6.03553
#
# Compressibility (1/GPa) = 0.03738353
#
# Stress axis : x y z
#
# Youngs Moduli (GPa) = 96.36545 29.84141 95.24360
#
# Poissons Ratio (x) = -0.00882 0.48034
# Poissons Ratio (y) = -0.02848 0.35755
# Poissons Ratio (z) = 0.48600 0.11203
#
# Static dielectric constant tensor:
#      x y z
#    x 1.782000 0.000000 0.018220 
#    y 0.000000 1.827670 0.000000 
#    z 0.018220 0.000000 1.793210 
# 
# From -- ./inp_files/219067.got.cif
#   From: 2010.05.17/outbox.cif.g08.bks.cpg/sg15_110_cif.got.tgz:219067.got - 2010.06.03 18:47:42.
