data_PCOD9271230
_publ_section_title
;
Structure prediction by ZEFSAII (Michael W. Deem and Ramdas Pophale) SiO2 
 PCOD9271230
Probable space group: C 2/C
;
_chemical_formula_sum "Si O2"
_cell_formula_units_Z 52
_cell_length_a 20.933515
_cell_length_b 19.776179
_cell_length_c 9.598816
_cell_angle_alpha 90.000000
_cell_angle_beta 45.220468
_cell_angle_gamma 90.000000
_cell_volume 2820.667638
_symmetry_space_group_name_H-M "C 2/C"
_symmetry_group_IT_number 15
_symmetry_cell_setting 'monoclinic'
loop_
_space_group_symop_operation_xyz
x,y,z
-x,y,1/2-z
-x,-y,-z
x,-y,1/2+z
1/2+x,1/2+y,z
1/2-x,1/2+y,1/2-z
1/2-x,1/2-y,-z
1/2+x,1/2-y,1/2+z
loop_
_atom_site_type_symbol
_atom_site_label
_atom_site_fract_x
_atom_site_fract_y
_atom_site_fract_z
Si Si1 0.107687 0.562194 0.099235
Si Si2 0.198914 0.827816 0.945540
Si Si3 0.500000 0.343223 0.250000
Si Si4 0.653080 0.409661 0.528785
Si Si5 0.286993 0.032151 0.280803
Si Si6 0.499150 0.578287 0.033082
Si Si7 0.238536 0.678529 0.836025
O O1 0.143883 0.547927 0.199689
O O2 0.000000 0.557812 0.250000
O O3 0.158668 0.506600 0.924227
O O4 0.144995 0.636628 0.997357
O O5 0.237318 0.896998 0.820292
O O6 0.245949 0.759366 0.823147
O O7 0.213311 0.838504 0.089757
O O8 0.095078 0.808984 0.078421
O O9 0.517188 0.386521 0.360577
O O10 0.709356 0.479325 0.447612
O O11 0.596489 0.399405 0.755616
O O12 0.576868 0.411882 0.526529
O O13 0.718170 0.352006 0.370002
O O14 0.500000 0.500000 0.000000
#
# Coordination Sequence:
#
# PCOD9271230 Si02
#       7
#     8   8   4   8   8   8   8
#     4  10  21  37  61  83 109 145 197 245 284 329
#     4  10  20  36  58  84 115 149 193 235 288 347
#     4  12  22  32  58  90 112 144 196 232 286 348
#     4  10  21  37  56  83 118 156 186 229 294 345
#     4  10  21  36  60  84 112 150 188 237 289 344
#     4  11  21  33  55  86 122 144 183 233 285 352
#     4   9  20  39  58  79 114 155 192 233 288 347
#
# _framework density 18.435352000000002
#
# number of rings (size 3 to 8) (size 9 to 14) (size 15 to 20)
#    0.000    1.846    1.538    3.231    7.538    0.000 
#    0.000    0.769    3.385    0.000    0.000    0.000 
#    0.000    0.000    0.000    0.000    0.000    0.000 
#
# Total GULP energy -144824.574524 kJ/mol
# GULP energy per Si atom -5570.175943 kJ/mol
# Density = 1.839339 g / cm^3
# Si number density = 18.435352 Si / 1000 Ang^3
#
#
#
# Elastic Constant Matrix: (Units=GPa)
#
#
# Indices 1 2 3 4 5 6 
#
# 1 71.6127 9.1971 19.1826 0.0000 -14.8679 0.0000
# 2 9.1971 85.7770 25.8705 0.0000 -2.4379 0.0000
# 3 19.1826 25.8705 71.2130 0.0000 -8.8238 0.0000
# 4 0.0000 0.0000 0.0000 -29.5770 0.0000 12.8450
# 5 -14.8679 -2.4379 -8.8238 0.0000 32.6221 0.0000
# 6 0.0000 0.0000 0.0000 12.8450 0.0000 12.1166
#
#
#
# Elastic Compliance Matrix: (Units=1/GPa)
#
#
# Indices 1 2 3 4 5 6 
#
# 1 0.016283 -0.000540 -0.003389 0.000000 0.006464 0.000000
# 2 -0.000540 0.013114 -0.004685 0.000000 -0.000533 0.000000
# 3 -0.003389 -0.004685 0.016992 0.000000 0.002701 0.000000
# 4 0.000000 0.000000 0.000000 -0.023151 0.000000 0.024543
# 5 0.006464 -0.000533 0.002701 0.000000 0.034291 0.000000
# 6 0.000000 0.000000 0.000000 0.024543 0.000000 0.056513
#
#
# Mechanical properties :
#
#
# Convention : Reuss Voigt Hill
#
# Bulk Modulus (GPa) = 34.29182 37.45587 35.87385
# Shear Modulus (GPa) = 35.46360 14.65583 25.05971
#
# Velocity S-wave (km/s) = 4.39073 2.82261 3.69091
# Velocity P-wave (km/s) = 6.65929 5.56636 6.13720
#
# Compressibility (1/GPa) = 0.02916147
#
# Stress axis : x y z
#
# Youngs Moduli (GPa) = 61.41279 76.25572 58.85180
#
# Poissons Ratio (x) = 0.04118 0.19945
# Poissons Ratio (y) = 0.03316 0.27570
# Poissons Ratio (z) = 0.20813 0.35723
#
# Static dielectric constant tensor:
#      x y z
#    x 1.652210 0.000000 -0.014560 
#    y 0.000000 1.225420 0.000000 
#    z -0.014560 0.000000 1.638290 
# 
# From -- ./inp_files/40895.got.cif
#   From: 2010.05.17/outbox.cif.g08.bks.cpg/sg15_21_cif.got.tgz:40895.got - 2010.06.03 18:47:42.
