data_PCOD9271217
_publ_section_title
;
Structure prediction by ZEFSAII (Michael W. Deem and Ramdas Pophale) SiO2 
 PCOD9271217
Probable space group: C 2/C
;
_chemical_formula_sum "Si O2"
_cell_formula_units_Z 48
_cell_length_a 22.141386
_cell_length_b 10.972413
_cell_length_c 13.112764
_cell_angle_alpha 90.000000
_cell_angle_beta 48.431408
_cell_angle_gamma 90.000000
_cell_volume 2383.399240
_symmetry_space_group_name_H-M "C 2/C"
_symmetry_group_IT_number 15
_symmetry_cell_setting 'monoclinic'
loop_
_space_group_symop_operation_xyz
x,y,z
-x,y,1/2-z
-x,-y,-z
x,-y,1/2+z
1/2+x,1/2+y,z
1/2-x,1/2+y,1/2-z
1/2-x,1/2-y,-z
1/2+x,1/2-y,1/2+z
loop_
_atom_site_type_symbol
_atom_site_label
_atom_site_fract_x
_atom_site_fract_y
_atom_site_fract_z
Si Si1 0.199080 0.943201 0.882699
Si Si2 0.307804 0.888426 0.374261
Si Si3 0.908541 0.922073 0.311368
Si Si4 0.441552 0.311175 0.718314
Si Si5 0.293456 0.176770 0.103905
Si Si6 0.910987 0.161389 0.583784
O O1 0.224641 0.859604 0.760292
O O2 0.283193 0.998030 0.832551
O O3 0.139024 0.047123 0.906184
O O4 0.152152 0.885589 0.030807
O O5 0.387138 0.807842 0.264091
O O6 0.307517 0.916590 0.495522
O O7 0.235698 0.796481 0.423577
O O8 0.902887 0.846664 0.213903
O O9 0.000000 0.917113 0.250000
O O10 0.893321 0.065094 0.300534
O O11 0.500000 0.289806 0.750000
O O12 0.497709 0.343432 0.559163
O O13 0.371441 0.218015 0.079298
#
# Coordination Sequence:
#
# PCOD9271217 Si02
#       6
#     8   8   8   8   8   8
#     4  11  21  36  56  83 113 147 184 226 277 326
#     4  10  20  36  58  83 110 145 189 225 267 331
#     4  11  22  33  55  88 116 140 178 234 285 328
#     4  11  18  35  60  85 108 143 186 232 275 323
#     4  10  21  36  57  81 113 149 185 223 271 333
#     4  11  21  36  57  83 113 146 183 230 277 328
#
# _framework density 20.139303000000002
#
# number of rings (size 3 to 8) (size 9 to 14) (size 15 to 20)
#    0.000    1.333    5.000    4.500    2.333    0.667 
#    0.000    0.833    0.000    0.000    0.000    0.000 
#    0.000    0.000    0.000    0.000    0.000    0.000 
#
# Total GULP energy -133918.378291 kJ/mol
# GULP energy per Si atom -5579.932429 kJ/mol
# Density = 2.009346 g / cm^3
# Si number density = 20.139303 Si / 1000 Ang^3
#
#
#
# Elastic Constant Matrix: (Units=GPa)
#
#
# Indices 1 2 3 4 5 6 
#
# 1 84.9121 19.7137 30.7473 0.0000 19.8070 0.0000
# 2 19.7137 14.3804 27.1392 0.0000 4.6590 0.0000
# 3 30.7473 27.1392 149.4044 0.0000 20.6619 0.0000
# 4 0.0000 0.0000 0.0000 24.4667 0.0000 -5.4982
# 5 19.8070 4.6590 20.6619 0.0000 37.3265 0.0000
# 6 0.0000 0.0000 0.0000 -5.4982 0.0000 15.5221
#
#
#
# Elastic Compliance Matrix: (Units=1/GPa)
#
#
# Indices 1 2 3 4 5 6 
#
# 1 0.019381 -0.028207 0.002242 0.000000 -0.008005 0.000000
# 2 -0.028207 0.147134 -0.022147 0.000000 0.008862 0.000000
# 3 0.002242 -0.022147 0.010869 0.000000 -0.004442 0.000000
# 4 0.000000 0.000000 0.000000 0.044407 0.000000 0.015730
# 5 -0.008005 0.008862 -0.004442 0.000000 0.032391 0.000000
# 6 0.000000 0.000000 0.000000 0.015730 0.000000 0.069996
#
#
# Mechanical properties :
#
#
# Convention : Reuss Voigt Hill
#
# Bulk Modulus (GPa) = 12.32142 44.87747 28.59944
# Shear Modulus (GPa) = 11.17431 26.86951 19.02191
#
# Velocity S-wave (km/s) = 2.35808 3.65661 3.07663
# Velocity P-wave (km/s) = 3.68041 6.33716 5.18194
#
# Compressibility (1/GPa) = 0.08115948
#
# Stress axis : x y z
#
# Youngs Moduli (GPa) = 51.59724 6.79654 92.00358
#
# Poissons Ratio (x) = 0.19171 -0.20629
# Poissons Ratio (y) = 1.45540 2.03763
# Poissons Ratio (z) = -0.11569 0.15053
#
# Static dielectric constant tensor:
#      x y z
#    x 1.759070 0.000000 0.006440 
#    y 0.000000 1.733630 0.000000 
#    z 0.006440 0.000000 1.737590 
# 
# From -- ./inp_files/104254.got.cif
#   From: 2010.05.17/outbox.cif.g08.bks.cpg/sg15_53_cif.got.tgz:104254.got - 2010.06.03 18:47:42.
