data_PCOD9271242
_publ_section_title
;
Structure prediction by ZEFSAII (Michael W. Deem and Ramdas Pophale) SiO2 
 PCOD9271242
Probable space group: C 2/C
;
_chemical_formula_sum "Si O2"
_cell_formula_units_Z 36
_cell_length_a 16.921665
_cell_length_b 4.766233
_cell_length_c 25.346770
_cell_angle_alpha 90.000000
_cell_angle_beta 138.203712
_cell_angle_gamma 90.000000
_cell_volume 1362.482166
_symmetry_space_group_name_H-M "C 2/C"
_symmetry_group_IT_number 15
_symmetry_cell_setting 'monoclinic'
loop_
_space_group_symop_operation_xyz
x,y,z
-x,y,1/2-z
-x,-y,-z
x,-y,1/2+z
1/2+x,1/2+y,z
1/2-x,1/2+y,1/2-z
1/2-x,1/2-y,-z
1/2+x,1/2-y,1/2+z
loop_
_atom_site_type_symbol
_atom_site_label
_atom_site_fract_x
_atom_site_fract_y
_atom_site_fract_z
Si Si1 0.598568 0.213340 0.486949
Si Si2 0.351671 0.687533 0.920633
Si Si3 0.460990 0.251867 0.159301
Si Si4 0.705797 0.559319 0.257102
Si Si5 0.500000 0.285133 0.750000
O O1 0.680950 0.406446 0.564743
O O2 0.467222 0.320605 0.439891
O O3 0.611113 0.229714 0.430756
O O4 0.613840 0.902736 0.516267
O O5 0.248749 0.787296 0.831009
O O6 0.583144 0.404242 0.203260
O O7 0.414983 0.474641 0.179751
O O8 0.493409 0.949731 0.199716
O O9 0.704412 0.808502 0.213582
#
# Coordination Sequence:
#
# PCOD9271242 Si02
#       5
#     8   8   8   8   4
#     4  10  20  36  58  84 124 158 189 234 292 377
#     4  10  21  34  55  92 126 151 183 230 319 371
#     4  11  22  41  63  85 118 159 208 248 286 346
#     4  12  23  36  60  95 127 152 183 254 316 356
#     4  10  24  40  62  84 110 166 220 244 272 340
#
# _framework density 26.422364000000002
#
# number of rings (size 3 to 8) (size 9 to 14) (size 15 to 20)
#    0.000    1.333    2.222    4.000    6.222    0.000 
#    0.000    0.000    0.000   26.667    0.000    0.000 
#    0.000    0.000    0.000    0.000    0.000    0.000 
#
# Total GULP energy -100653.563245 kJ/mol
# GULP energy per Si atom -5591.864625 kJ/mol
# Density = 2.636223 g / cm^3
# Si number density = 26.422364 Si / 1000 Ang^3
#
#
#
# Elastic Constant Matrix: (Units=GPa)
#
#
# Indices 1 2 3 4 5 6 
#
# 1 69.7214 39.6990 49.8796 0.0003 -24.4859 -0.0049
# 2 39.6990 192.1357 43.6772 -0.0031 -18.6147 0.0042
# 3 49.8796 43.6772 139.1317 -0.0003 -34.7429 0.0023
# 4 0.0003 -0.0031 -0.0003 41.3108 0.0009 -7.1777
# 5 -24.4859 -18.6147 -34.7429 0.0009 43.3117 -0.0007
# 6 -0.0049 0.0042 0.0023 -7.1777 -0.0007 28.7849
#
#
#
# Elastic Compliance Matrix: (Units=1/GPa)
#
#
# Indices 1 2 3 4 5 6 
#
# 1 0.022184 -0.002682 -0.005336 0.000000 0.007108 0.000005
# 2 -0.002682 0.005983 -0.000817 0.000000 0.000400 -0.000001
# 3 -0.005336 -0.000817 0.010649 0.000000 0.005174 -0.000002
# 4 0.000000 0.000000 0.000000 0.025303 0.000000 0.006310
# 5 0.007108 0.000400 0.005174 0.000000 0.031430 0.000001
# 6 0.000005 -0.000001 -0.000002 0.006310 0.000001 0.036314
#
#
# Mechanical properties :
#
#
# Convention : Reuss Voigt Hill
#
# Bulk Modulus (GPa) = 47.28966 74.16671 60.72818
# Shear Modulus (GPa) = 31.93234 40.53037 36.23136
#
# Velocity S-wave (km/s) = 3.48017 3.92081 3.70704
# Velocity P-wave (km/s) = 5.83825 6.97335 6.43089
#
# Compressibility (1/GPa) = 0.02114627
#
# Stress axis : x y z
#
# Youngs Moduli (GPa) = 45.07800 167.13322 93.90536
#
# Poissons Ratio (x) = 0.44823 0.50108
# Poissons Ratio (y) = 0.12089 0.07671
# Poissons Ratio (z) = 0.24054 0.13654
#
# Static dielectric constant tensor:
#      x y z
#    x 2.461950 0.000000 0.098260 
#    y 0.000000 1.982680 0.000000 
#    z 0.098260 0.000000 2.087210 
# 
# From -- ./inp_files/299799.got.cif
#   From: 2010.05.17/outbox.cif.g08.bks.cpg/sg15_150_cif.got.tgz:299799.got - 2010.06.03 18:47:42.
