data_PCOD9271805
_publ_section_title
;
Structure prediction by ZEFSAII (Michael W. Deem and Ramdas Pophale) SiO2 
 PCOD9271805
Probable space group: C 2/C
;
_chemical_formula_sum "Si O2"
_cell_formula_units_Z 64
_cell_length_a 9.477734
_cell_length_b 19.086689
_cell_length_c 23.833814
_cell_angle_alpha 90.000000
_cell_angle_beta 131.975630
_cell_angle_gamma 90.000000
_cell_volume 3205.297683
_symmetry_space_group_name_H-M "C 2/C"
_symmetry_group_IT_number 15
_symmetry_cell_setting 'monoclinic'
loop_
_space_group_symop_operation_xyz
x,y,z
-x,y,1/2-z
-x,-y,-z
x,-y,1/2+z
1/2+x,1/2+y,z
1/2-x,1/2+y,1/2-z
1/2-x,1/2-y,-z
1/2+x,1/2-y,1/2+z
loop_
_atom_site_type_symbol
_atom_site_label
_atom_site_fract_x
_atom_site_fract_y
_atom_site_fract_z
Si Si1 0.337471 0.808545 0.562162
Si Si2 0.506409 0.315794 0.547927
Si Si3 0.937968 0.843329 0.814684
Si Si4 0.299476 0.480349 0.712625
Si Si5 0.630711 0.894495 0.229098
Si Si6 0.426914 0.840810 0.062141
Si Si7 0.852359 0.608885 0.421550
Si Si8 0.888631 0.771187 0.279698
O O1 0.250000 0.750000 0.500000
O O2 0.468698 0.859441 0.562165
O O3 0.467310 0.770702 0.642730
O O4 0.154761 0.841837 0.542369
O O5 0.557847 0.356747 0.618074
O O6 0.520489 0.232000 0.564840
O O7 0.287285 0.324908 0.475124
O O8 0.851103 0.906957 0.756589
O O9 0.804813 0.775867 0.772268
O O10 0.165101 0.840591 0.862998
O O11 0.500000 0.515470 0.750000
O O12 0.187495 0.526918 0.727084
O O13 0.200503 0.461046 0.627069
O O14 0.500000 0.889688 0.250000
O O15 0.534916 0.867992 0.145302
O O16 0.816950 0.845429 0.284366
O O17 0.401078 0.890672 0.000651
O O18 0.000000 0.778173 0.250000
#
# Coordination Sequence:
#
# PCOD9271805 Si02
#       8
#     8   8   8   8   8   8   8   8
#     4  12  23  33  59 100 130 162 206 266 319 372
#     4  10  20  36  61  93 133 164 202 268 313 381
#     4  10  20  40  68  92 122 169 215 261 318 378
#     4  10  23  45  66  92 124 171 222 263 319 386
#     4  12  28  41  65  92 130 173 214 273 323 383
#     4  10  21  41  60  91 130 167 209 253 332 381
#     4  10  22  38  68  94 125 169 211 264 316 393
#     4  12  24  39  63  99 130 171 210 270 324 380
#
# _framework density 19.966944999999999
#
# number of rings (size 3 to 8) (size 9 to 14) (size 15 to 20)
#    0.000    1.250    5.000    0.375    3.500    2.000 
#    0.000    0.000    0.000    7.500    0.000    0.000 
#    0.000    0.000    0.000    0.000    0.000    0.000 
#
# Total GULP energy -178456.366732 kJ/mol
# GULP energy per Si atom -5576.761460 kJ/mol
# Density = 1.992150 g / cm^3
# Si number density = 19.966945 Si / 1000 Ang^3
#
#
#
# Elastic Constant Matrix: (Units=GPa)
#
#
# Indices 1 2 3 4 5 6 
#
# 1 136.2430 20.1769 -4.2149 0.0000 -0.0088 0.0000
# 2 20.1769 37.2510 -3.9499 0.0000 -0.7016 0.0000
# 3 -4.2149 -3.9499 31.1155 0.0000 -2.1929 0.0000
# 4 0.0000 0.0000 0.0000 14.2848 0.0000 -6.5609
# 5 -0.0088 -0.7016 -2.1929 0.0000 25.5061 0.0000
# 6 0.0000 0.0000 0.0000 -6.5609 0.0000 29.8400
#
#
#
# Elastic Compliance Matrix: (Units=1/GPa)
#
#
# Indices 1 2 3 4 5 6 
#
# 1 0.007989 -0.004272 0.000535 0.000000 -0.000069 0.000000
# 2 -0.004272 0.029523 0.003246 0.000000 0.001090 0.000000
# 3 0.000535 0.003246 0.032828 0.000000 0.002912 0.000000
# 4 0.000000 0.000000 0.000000 0.077868 0.000000 0.017121
# 5 -0.000069 0.001090 0.002912 0.000000 0.039487 0.000000
# 6 0.000000 0.000000 0.000000 0.017121 0.000000 0.037276
#
#
# Mechanical properties :
#
#
# Convention : Reuss Voigt Hill
#
# Bulk Modulus (GPa) = 14.41774 25.40373 19.91074
# Shear Modulus (GPa) = 20.07445 26.76599 23.42022
#
# Velocity S-wave (km/s) = 3.17422 3.66528 3.42855
# Velocity P-wave (km/s) = 4.54650 5.53740 5.06624
#
# Compressibility (1/GPa) = 0.06935901
#
# Stress axis : x y z
#
# Youngs Moduli (GPa) = 125.17200 33.87141 30.46170
#
# Poissons Ratio (x) = 0.14469 -0.01630
# Poissons Ratio (y) = 0.53471 -0.09888
# Poissons Ratio (z) = -0.06698 -0.10994
#
# Static dielectric constant tensor:
#      x y z
#    x 1.670360 0.000000 0.002880 
#    y 0.000000 1.774320 0.000000 
#    z 0.002880 0.000000 1.728220 
# 
# From -- ./inp_files/266136.got.cif
#   From: 2010.05.17/outbox.cif.g08.bks.cpg/sg15_134_cif.got.tgz:266136.got - 2010.06.03 18:47:42.
