data_PCOD9271112
_publ_section_title
;
Structure prediction by ZEFSAII (Michael W. Deem and Ramdas Pophale) SiO2 
 PCOD9271112
Probable space group: C 2/C
;
_chemical_formula_sum "Si O2"
_cell_formula_units_Z 64
_cell_length_a 23.304654
_cell_length_b 16.810353
_cell_length_c 26.670137
_cell_angle_alpha 90.000000
_cell_angle_beta 161.763302
_cell_angle_gamma 90.000000
_cell_volume 3269.718875
_symmetry_space_group_name_H-M "C 2/C"
_symmetry_group_IT_number 15
_symmetry_cell_setting 'monoclinic'
loop_
_space_group_symop_operation_xyz
x,y,z
-x,y,1/2-z
-x,-y,-z
x,-y,1/2+z
1/2+x,1/2+y,z
1/2-x,1/2+y,1/2-z
1/2-x,1/2-y,-z
1/2+x,1/2-y,1/2+z
loop_
_atom_site_type_symbol
_atom_site_label
_atom_site_fract_x
_atom_site_fract_y
_atom_site_fract_z
Si Si1 0.729057 0.517026 0.564222
Si Si2 0.307927 0.703063 0.109762
Si Si3 0.921194 0.631736 0.937516
Si Si4 0.991123 0.828309 0.863048
Si Si5 0.942773 0.492974 0.026543
Si Si6 0.659009 0.555912 0.108193
Si Si7 0.765404 0.212551 0.273149
Si Si8 0.149347 0.544107 0.940250
O O1 0.579571 0.586128 0.445213
O O2 0.673677 0.453068 0.560211
O O3 0.756426 0.497708 0.527893
O O4 0.931666 0.549236 0.748199
O O5 0.500000 0.736934 0.250000
O O6 0.353133 0.670464 0.202270
O O7 0.153809 0.768243 0.985207
O O8 0.243175 0.630226 0.021504
O O9 0.067668 0.681626 0.091554
O O10 0.854733 0.557576 0.916016
O O11 0.024890 0.588973 0.976956
O O12 0.774006 0.696546 0.798165
O O13 0.892782 0.795085 0.830210
O O14 0.839878 0.488947 0.994224
O O15 0.149259 0.522235 0.210495
O O16 0.653355 0.647371 0.120773
O O17 0.500000 0.500000 0.000000
#
# Coordination Sequence:
#
# PCOD9271112 Si02
#       8
#     8   8   8   8   8   8   8   8
#     4  10  21  35  56  77 105 145 188 228 277 334
#     4  12  24  35  49  74 113 149 187 230 270 335
#     4  10  22  38  58  86 111 152 188 236 288 339
#     4  12  22  33  49  74 107 149 182 226 275 329
#     4   9  20  39  60  81 117 150 189 231 291 346
#     4  10  20  36  57  85 113 146 190 239 282 335
#     4  11  22  36  57  82 114 145 191 233 285 341
#     4  10  20  37  55  76 105 146 188 225 280 340
#
# _framework density 19.573549
#
# number of rings (size 3 to 8) (size 9 to 14) (size 15 to 20)
#    0.000    1.500    2.500    3.375    3.500    1.000 
#    0.000    0.000    0.000    0.750    0.000    0.000 
#    0.000    0.000    0.000    0.000    0.000    0.000 
#
# Total GULP energy -178723.338228 kJ/mol
# GULP energy per Si atom -5585.104320 kJ/mol
# Density = 1.952900 g / cm^3
# Si number density = 19.573549 Si / 1000 Ang^3
#
#
#
# Elastic Constant Matrix: (Units=GPa)
#
#
# Indices 1 2 3 4 5 6 
#
# 1 103.0621 15.0043 17.4844 -0.0031 -27.5719 -0.0103
# 2 15.0043 65.0596 14.8590 0.0139 -18.2783 0.0141
# 3 17.4844 14.8590 31.0290 0.0206 -5.2050 0.0221
# 4 -0.0031 0.0139 0.0206 27.3370 0.0087 -10.5833
# 5 -27.5719 -18.2783 -5.2050 0.0087 24.2621 -0.0007
# 6 -0.0103 0.0141 0.0221 -10.5833 -0.0007 17.7643
#
#
#
# Elastic Compliance Matrix: (Units=1/GPa)
#
#
# Indices 1 2 3 4 5 6 
#
# 1 0.015351 0.003246 -0.007124 0.000007 0.018362 0.000020
# 2 0.003246 0.021832 -0.009239 -0.000014 0.018154 -0.000012
# 3 -0.007124 -0.009239 0.039565 -0.000054 -0.006568 -0.000079
# 4 0.000007 -0.000014 -0.000054 0.047547 -0.000030 0.028327
# 5 0.018362 0.018154 -0.006568 -0.000030 0.074352 -0.000010
# 6 0.000020 -0.000012 -0.000079 0.028327 -0.000010 0.073169
#
#
# Mechanical properties :
#
#
# Convention : Reuss Voigt Hill
#
# Bulk Modulus (GPa) = 19.79649 32.64958 26.22304
# Shear Modulus (GPa) = 15.87860 23.99286 19.93573
#
# Velocity S-wave (km/s) = 2.85130 3.50491 3.19486
# Velocity P-wave (km/s) = 4.57992 5.75290 5.19960
#
# Compressibility (1/GPa) = 0.05051400
#
# Stress axis : x y z
#
# Youngs Moduli (GPa) = 65.14040 45.80353 25.27500
#
# Poissons Ratio (x) = -0.14866 0.18007
# Poissons Ratio (y) = -0.21142 0.23350
# Poissons Ratio (z) = 0.46408 0.42316
#
# Static dielectric constant tensor:
#      x y z
#    x 1.729650 -0.000010 -0.032430 
#    y -0.000010 1.670300 -0.000040 
#    z -0.032430 -0.000040 1.713680 
# 
# From -- ./inp_files/302438.got.cif
#   From: 2010.05.17/outbox.cif.g08.bks.cpg/sg15_152_cif.got.tgz:302438.got - 2010.06.03 18:47:42.
