data_PCOD9271362
_publ_section_title
;
Structure prediction by ZEFSAII (Michael W. Deem and Ramdas Pophale) SiO2 
 PCOD9271362
Probable space group: C 2/C
;
_chemical_formula_sum "Si O2"
_cell_formula_units_Z 36
_cell_length_a 22.889806
_cell_length_b 16.520738
_cell_length_c 5.173504
_cell_angle_alpha 90.000000
_cell_angle_beta 121.174840
_cell_angle_gamma 90.000000
_cell_volume 1673.874470
_symmetry_space_group_name_H-M "C 2/C"
_symmetry_group_IT_number 15
_symmetry_cell_setting 'monoclinic'
loop_
_space_group_symop_operation_xyz
x,y,z
-x,y,1/2-z
-x,-y,-z
x,-y,1/2+z
1/2+x,1/2+y,z
1/2-x,1/2+y,1/2-z
1/2-x,1/2-y,-z
1/2+x,1/2-y,1/2+z
loop_
_atom_site_type_symbol
_atom_site_label
_atom_site_fract_x
_atom_site_fract_y
_atom_site_fract_z
Si Si1 0.763609 0.451371 0.388687
Si Si2 0.900969 0.045452 0.999031
Si Si3 0.407718 0.722568 0.206554
Si Si4 0.640460 0.194135 0.421371
Si Si5 0.000000 0.677077 0.250000
O O1 0.786186 0.511095 0.211871
O O2 0.681639 0.449669 0.194599
O O3 0.794665 0.362962 0.420165
O O4 0.922032 0.021866 0.758204
O O5 0.922226 0.131649 0.158494
O O6 0.361870 0.736853 0.361336
O O7 0.476707 0.765984 0.460840
O O8 0.371329 0.767141 0.884922
O O9 0.572194 0.139577 0.331743
#
# Coordination Sequence:
#
# PCOD9271362 Si02
#       5
#     8   8   8   8   4
#     4  10  21  37  56  83 116 142 174 224 277 327
#     4  10  21  37  56  83 116 142 174 224 277 327
#     4  10  20  36  59  79 110 145 184 224 269 316
#     4  10  20  36  59  79 110 145 184 224 269 316
#     4   8  22  36  56  80 110 140 188 234 258 308
#
# _framework density 21.506989000000001
#
# number of rings (size 3 to 8) (size 9 to 14) (size 15 to 20)
#    1.333    0.889    0.000    3.333    0.000    1.778 
#    0.000    2.222    0.000    0.000    0.000    0.000 
#    0.000    0.000    0.000    0.000    0.000    0.000 
#
# Total GULP energy -100351.486118 kJ/mol
# GULP energy per Si atom -5575.082562 kJ/mol
# Density = 2.145804 g / cm^3
# Si number density = 21.506989 Si / 1000 Ang^3
#
#
#
# Elastic Constant Matrix: (Units=GPa)
#
#
# Indices 1 2 3 4 5 6 
#
# 1 23.0987 -2.9463 27.8994 0.0000 -8.1193 0.0000
# 2 -2.9463 28.5147 -0.9781 0.0000 8.7509 0.0000
# 3 27.8994 -0.9781 64.5104 0.0000 -21.6978 0.0000
# 4 0.0000 0.0000 0.0000 10.2452 0.0000 -11.7277
# 5 -8.1193 8.7509 -21.6978 0.0000 28.7544 0.0000
# 6 0.0000 0.0000 0.0000 -11.7277 0.0000 19.2111
#
#
#
# Elastic Compliance Matrix: (Units=1/GPa)
#
#
# Indices 1 2 3 4 5 6 
#
# 1 0.094373 0.011311 -0.044007 0.000000 -0.010002 0.000000
# 2 0.011311 0.041048 -0.009913 0.000000 -0.016778 0.000000
# 3 -0.044007 -0.009913 0.041837 0.000000 0.022160 0.000000
# 4 0.000000 0.000000 0.000000 0.324061 0.000000 0.197828
# 5 -0.010002 -0.016778 0.022160 0.000000 0.053781 0.000000
# 6 0.000000 0.000000 0.000000 0.197828 0.000000 0.172820
#
#
# Mechanical properties :
#
#
# Convention : Reuss Voigt Hill
#
# Bulk Modulus (GPa) = 10.86486 18.23043 14.54765
# Shear Modulus (GPa) = 5.92546 17.78536 11.85541
#
# Velocity S-wave (km/s) = 1.66166 2.87881 2.35039
# Velocity P-wave (km/s) = 2.95706 4.42097 3.76093
#
# Compressibility (1/GPa) = 0.09203984
#
# Stress axis : x y z
#
# Youngs Moduli (GPa) = 10.59630 24.36201 23.90255
#
# Poissons Ratio (x) = -0.27556 1.05187
# Poissons Ratio (y) = -0.11986 0.23694
# Poissons Ratio (z) = 0.46631 0.24150
#
# Static dielectric constant tensor:
#      x y z
#    x 1.864790 0.000000 0.008120 
#    y 0.000000 1.741850 0.000000 
#    z 0.008120 0.000000 1.755340 
# 
# From -- ./inp_files/9722.got.cif
#   From: 2010.05.17/outbox.cif.g08.bks.cpg/sg15_5_cif.got.tgz:9722.got - 2010.06.03 18:47:42.
