data_PCOD9271370
_publ_section_title
;
Structure prediction by ZEFSAII (Michael W. Deem and Ramdas Pophale) SiO2 
 PCOD9271370
Probable space group: C 2/C
;
_chemical_formula_sum "Si O2"
_cell_formula_units_Z 64
_cell_length_a 9.155724
_cell_length_b 21.100239
_cell_length_c 14.561410
_cell_angle_alpha 90.000000
_cell_angle_beta 95.203976
_cell_angle_gamma 90.000000
_cell_volume 2801.493907
_symmetry_space_group_name_H-M "C 2/C"
_symmetry_group_IT_number 15
_symmetry_cell_setting 'monoclinic'
loop_
_space_group_symop_operation_xyz
x,y,z
-x,y,1/2-z
-x,-y,-z
x,-y,1/2+z
1/2+x,1/2+y,z
1/2-x,1/2+y,1/2-z
1/2-x,1/2-y,-z
1/2+x,1/2-y,1/2+z
loop_
_atom_site_type_symbol
_atom_site_label
_atom_site_fract_x
_atom_site_fract_y
_atom_site_fract_z
Si Si1 0.836786 0.018162 0.260975
Si Si2 0.568265 0.186401 0.152715
Si Si3 0.358935 0.273720 0.587404
Si Si4 0.194709 0.528498 0.923972
Si Si5 0.127319 0.649067 0.813285
Si Si6 0.394164 0.708245 0.529008
Si Si7 0.598294 0.050678 0.114015
Si Si8 0.149041 0.875463 0.311111
O O1 0.812037 0.007634 0.367976
O O2 0.821583 0.949108 0.209736
O O3 0.000000 0.042360 0.250000
O O4 0.699327 0.054478 0.209792
O O5 0.500000 0.181749 0.250000
O O6 0.745085 0.193733 0.151072
O O7 0.491831 0.246307 0.100128
O O8 0.533803 0.121081 0.096673
O O9 0.250000 0.250000 0.500000
O O10 0.423798 0.211028 0.638149
O O11 0.497747 0.308166 0.549636
O O12 0.198524 0.600650 0.888105
O O13 0.036239 0.498034 0.890474
O O14 0.199524 0.530773 0.033607
O O15 0.237330 0.666796 0.738780
O O16 0.000000 0.614568 0.750000
O O17 0.250000 0.750000 0.500000
O O18 0.354554 0.645740 0.584591
O O19 0.000000 0.862495 0.250000
#
# Coordination Sequence:
#
# PCOD9271370 Si02
#       8
#     8   8   8   8   8   8   8   8
#     4  10  22  39  61  89 119 157 206 260 309 360
#     4  11  23  40  60  83 122 168 198 235 307 382
#     4  10  21  36  56  83 119 159 199 242 301 371
#     4  10  21  38  63  91 117 157 206 255 309 363
#     4  11  20  35  60  87 114 148 203 257 295 348
#     4  11  22  37  59  90 122 152 200 256 304 361
#     4  11  23  41  64  89 123 163 206 252 307 378
#     4  10  20  36  59  82 114 153 194 246 302 352
#
# _framework density 22.844953
#
# number of rings (size 3 to 8) (size 9 to 14) (size 15 to 20)
#    0.000    1.500    0.000    7.500    0.000    4.500 
#    0.000    3.125    0.000    0.000    0.000    0.000 
#    0.000    0.000    0.000    0.000    0.000    0.000 
#
# Total GULP energy -178667.185122 kJ/mol
# GULP energy per Si atom -5583.349535 kJ/mol
# Density = 2.279296 g / cm^3
# Si number density = 22.844953 Si / 1000 Ang^3
#
#
#
# Elastic Constant Matrix: (Units=GPa)
#
#
# Indices 1 2 3 4 5 6 
#
# 1 76.1969 -7.0240 30.9251 0.0000 -33.3615 0.0000
# 2 -7.0240 42.5154 -4.8112 0.0000 -7.0083 0.0000
# 3 30.9251 -4.8112 70.6879 0.0000 -36.2862 0.0000
# 4 0.0000 0.0000 0.0000 47.0263 0.0000 3.3606
# 5 -33.3615 -7.0083 -36.2862 0.0000 45.8068 0.0000
# 6 0.0000 0.0000 0.0000 3.3606 0.0000 22.9828
#
#
#
# Elastic Compliance Matrix: (Units=1/GPa)
#
#
# Indices 1 2 3 4 5 6 
#
# 1 0.020706 0.005867 -0.000771 0.000000 0.015367 0.000000
# 2 0.005867 0.027381 0.006136 0.000000 0.013322 0.000000
# 3 -0.000771 0.006136 0.025440 0.000000 0.020530 0.000000
# 4 0.000000 0.000000 0.000000 0.021489 0.000000 -0.003142
# 5 0.015367 0.013322 0.020530 0.000000 0.051324 0.000000
# 6 0.000000 0.000000 0.000000 -0.003142 0.000000 0.043970
#
#
# Mechanical properties :
#
#
# Convention : Reuss Voigt Hill
#
# Bulk Modulus (GPa) = 10.41772 25.28665 17.85218
# Shear Modulus (GPa) = 25.01957 34.51720 29.76839
#
# Velocity S-wave (km/s) = 3.31296 3.89129 3.61371
# Velocity P-wave (km/s) = 4.38227 5.59306 5.02427
#
# Compressibility (1/GPa) = 0.09599033
#
# Stress axis : x y z
#
# Youngs Moduli (GPa) = 48.29558 36.52218 39.30787
#
# Poissons Ratio (x) = -0.21427 0.03030
# Poissons Ratio (y) = -0.28334 -0.24119
# Poissons Ratio (z) = 0.03722 -0.22409
#
# Static dielectric constant tensor:
#      x y z
#    x -1.079770 0.000000 -0.635510 
#    y 0.000000 1.892320 0.000000 
#    z -0.635510 0.000000 1.754700 
# 
# From -- ./inp_files/137862.got.cif
#   From: 2010.05.17/outbox.cif.g08.bks.cpg/sg15_69_cif.got.tgz:137862.got - 2010.06.03 18:47:42.
