data_PCOD9271003
_publ_section_title
;
Structure prediction by ZEFSAII (Michael W. Deem and Ramdas Pophale) SiO2 
 PCOD9271003
Probable space group: C 2/C
;
_chemical_formula_sum "Si O2"
_cell_formula_units_Z 52
_cell_length_a 26.143816
_cell_length_b 9.576140
_cell_length_c 10.560270
_cell_angle_alpha 90.000000
_cell_angle_beta 76.275320
_cell_angle_gamma 90.000000
_cell_volume 2568.346437
_symmetry_space_group_name_H-M "C 2/C"
_symmetry_group_IT_number 15
_symmetry_cell_setting 'monoclinic'
loop_
_space_group_symop_operation_xyz
x,y,z
-x,y,1/2-z
-x,-y,-z
x,-y,1/2+z
1/2+x,1/2+y,z
1/2-x,1/2+y,1/2-z
1/2-x,1/2-y,-z
1/2+x,1/2-y,1/2+z
loop_
_atom_site_type_symbol
_atom_site_label
_atom_site_fract_x
_atom_site_fract_y
_atom_site_fract_z
Si Si1 0.709646 0.089229 0.655466
Si Si2 0.553726 0.523963 0.045489
Si Si3 0.737762 0.868062 0.850396
Si Si4 0.000000 0.742713 0.750000
Si Si5 0.407757 0.938271 0.355692
Si Si6 0.939115 0.264855 0.823761
Si Si7 0.375434 0.259232 0.105238
O O1 0.732941 0.074498 0.497995
O O2 0.715744 0.254202 0.683520
O O3 0.647912 0.052890 0.682932
O O4 0.735899 0.989309 0.745895
O O5 0.533366 0.646541 0.148900
O O6 0.569956 0.378025 0.096867
O O7 0.500000 0.500000 0.000000
O O8 0.603628 0.587437 0.943488
O O9 0.686310 0.770367 0.857422
O O10 0.952960 0.634246 0.742760
O O11 0.397037 0.845473 0.485765
O O12 0.426925 0.088001 0.394771
O O13 0.903085 0.268915 0.721234
O O14 0.000000 0.261614 0.750000
#
# Coordination Sequence:
#
# PCOD9271003 Si02
#       7
#     8   8   8   4   8   8   8
#     4  10  22  45  67  96 132 168 217 272 329 381
#     4  11  21  37  54  84 127 165 204 256 309 374
#     4  10  22  45  68  94 132 167 219 277 320 391
#     4  10  20  36  56  84 124 164 198 248 312 370
#     4  10  22  38  63  90 125 168 210 260 317 381
#     4  12  21  37  61  89 124 166 211 255 307 390
#     4  10  22  41  59  87 128 165 210 262 321 379
#
# _framework density 20.246490999999999
#
# number of rings (size 3 to 8) (size 9 to 14) (size 15 to 20)
#    0.000    1.538    4.615    0.000    0.000    2.462 
#   13.846    0.000    0.000    0.000    0.000    0.000 
#    0.000    0.000    0.000    0.000    0.000    0.000 
#
# Total GULP energy -144853.454953 kJ/mol
# GULP energy per Si atom -5571.286729 kJ/mol
# Density = 2.020041 g / cm^3
# Si number density = 20.246491 Si / 1000 Ang^3
#
#
#
# Elastic Constant Matrix: (Units=GPa)
#
#
# Indices 1 2 3 4 5 6 
#
# 1 33.7635 32.4507 26.8969 0.0000 4.2666 0.0000
# 2 32.4507 138.1085 31.4680 0.0000 -0.2931 0.0000
# 3 26.8969 31.4680 50.0800 0.0000 15.8440 0.0000
# 4 0.0000 0.0000 0.0000 46.6762 0.0000 3.9212
# 5 4.2666 -0.2931 15.8440 0.0000 33.7854 0.0000
# 6 0.0000 0.0000 0.0000 3.9212 0.0000 37.5319
#
#
#
# Elastic Compliance Matrix: (Units=1/GPa)
#
#
# Indices 1 2 3 4 5 6 
#
# 1 0.058915 -0.007212 -0.029046 0.000000 0.006119 0.000000
# 2 -0.007212 0.009602 -0.002906 0.000000 0.002357 0.000000
# 3 -0.029046 -0.002906 0.042555 0.000000 -0.016314 0.000000
# 4 0.000000 0.000000 0.000000 0.021614 0.000000 -0.002258
# 5 0.006119 0.002357 -0.016314 0.000000 0.036497 0.000000
# 6 0.000000 0.000000 0.000000 -0.002258 0.000000 0.026880
#
#
# Mechanical properties :
#
#
# Convention : Reuss Voigt Hill
#
# Bulk Modulus (GPa) = 30.53932 44.84256 37.69094
# Shear Modulus (GPa) = 17.52502 32.34114 24.93308
#
# Velocity S-wave (km/s) = 2.94527 4.00105 3.51305
# Velocity P-wave (km/s) = 5.16553 6.59855 5.92552
#
# Compressibility (1/GPa) = 0.03274467
#
# Stress axis : x y z
#
# Youngs Moduli (GPa) = 16.97361 104.14121 23.49876
#
# Poissons Ratio (x) = 0.75105 0.68255
# Poissons Ratio (y) = 0.12241 0.06829
# Poissons Ratio (z) = 0.49302 0.30264
#
# Static dielectric constant tensor:
#      x y z
#    x 1.725430 0.000000 -0.004620 
#    y 0.000000 1.831990 0.000000 
#    z -0.004620 0.000000 1.756170 
# 
# From -- ./inp_files/121416.got.cif
#   From: 2010.05.17/outbox.cif.g08.bks.cpg/sg15_61_cif.got.tgz:121416.got - 2010.06.03 18:47:42.
