data_PCOD9271607
_publ_section_title
;
Structure prediction by ZEFSAII (Michael W. Deem and Ramdas Pophale) SiO2 
 PCOD9271607
Probable space group: C 2/C
;
_chemical_formula_sum "Si O2"
_cell_formula_units_Z 48
_cell_length_a 30.450422
_cell_length_b 9.156070
_cell_length_c 18.907570
_cell_angle_alpha 90.000000
_cell_angle_beta 156.482693
_cell_angle_gamma 90.000000
_cell_volume 2103.484900
_symmetry_space_group_name_H-M "C 2/C"
_symmetry_group_IT_number 15
_symmetry_cell_setting 'monoclinic'
loop_
_space_group_symop_operation_xyz
x,y,z
-x,y,1/2-z
-x,-y,-z
x,-y,1/2+z
1/2+x,1/2+y,z
1/2-x,1/2+y,1/2-z
1/2-x,1/2-y,-z
1/2+x,1/2-y,1/2+z
loop_
_atom_site_type_symbol
_atom_site_label
_atom_site_fract_x
_atom_site_fract_y
_atom_site_fract_z
Si Si1 0.332529 0.570523 0.408064
Si Si2 0.448797 0.569855 0.853819
Si Si3 0.481853 0.875491 0.530141
Si Si4 0.793092 0.443740 0.016897
Si Si5 0.727512 0.859065 0.363329
Si Si6 0.161886 0.409077 0.056086
O O1 0.459009 0.556199 0.570884
O O2 0.300957 0.470799 0.427922
O O3 0.256041 0.509101 0.231470
O O4 0.308573 0.738370 0.392398
O O5 0.334514 0.493324 0.668615
O O6 0.500000 0.500000 0.000000
O O7 0.432656 0.743758 0.841260
O O8 0.368256 0.804247 0.330683
O O9 0.445252 0.930939 0.552939
O O10 0.500000 0.000000 0.500000
O O11 0.795551 0.278734 0.991251
O O12 0.849348 0.545347 0.041673
O O13 0.827079 0.436154 0.148759
#
# Coordination Sequence:
#
# PCOD9271607 Si02
#       6
#     8   8   8   8   8   8
#     4  10  21  37  59  87 120 158 203 248 298 375
#     4  11  20  36  62  90 116 156 209 243 299 363
#     4  10  22  39  60  91 118 157 203 252 295 371
#     4  11  22  40  62  89 122 160 202 259 303 368
#     4  10  23  40  59  88 125 156 205 249 317 356
#     4  10  20  36  60  88 116 158 204 245 304 360
#
# _framework density 22.819274
#
# number of rings (size 3 to 8) (size 9 to 14) (size 15 to 20)
#    0.000    1.667    3.333    2.000    4.667    2.667 
#    0.000    0.833    0.000    0.000    0.000    0.000 
#    0.000    0.000    0.000    0.000    0.000    0.000 
#
# Total GULP energy -134225.806745 kJ/mol
# GULP energy per Si atom -5592.741948 kJ/mol
# Density = 2.276734 g / cm^3
# Si number density = 22.819274 Si / 1000 Ang^3
#
#
#
# Elastic Constant Matrix: (Units=GPa)
#
#
# Indices 1 2 3 4 5 6 
#
# 1 145.2313 63.1206 31.8582 0.0000 -18.2608 0.0000
# 2 63.1206 144.0102 13.4542 0.0000 5.8717 0.0000
# 3 31.8582 13.4542 64.8549 0.0000 -17.5526 0.0000
# 4 0.0000 0.0000 0.0000 18.1269 0.0000 2.0289
# 5 -18.2608 5.8717 -17.5526 0.0000 29.9294 0.0000
# 6 0.0000 0.0000 0.0000 2.0289 0.0000 51.7915
#
#
#
# Elastic Compliance Matrix: (Units=1/GPa)
#
#
# Indices 1 2 3 4 5 6 
#
# 1 0.010040 -0.004388 -0.002533 0.000000 0.005501 0.000000
# 2 -0.004388 0.009184 -0.001143 0.000000 -0.005150 0.000000
# 3 -0.002533 -0.001143 0.019664 0.000000 0.010211 0.000000
# 4 0.000000 0.000000 0.000000 0.055410 0.000000 -0.002171
# 5 0.005501 -0.005150 0.010211 0.000000 0.043767 0.000000
# 6 0.000000 0.000000 0.000000 -0.002171 0.000000 0.019393
#
#
# Mechanical properties :
#
#
# Convention : Reuss Voigt Hill
#
# Bulk Modulus (GPa) = 43.93766 63.44026 53.68896
# Shear Modulus (GPa) = 27.59780 36.34712 31.97246
#
# Velocity S-wave (km/s) = 3.48143 3.99535 3.74721
# Velocity P-wave (km/s) = 5.95457 7.01037 6.50393
#
# Compressibility (1/GPa) = 0.02275952
#
# Stress axis : x y z
#
# Youngs Moduli (GPa) = 99.60044 108.88285 50.85445
#
# Poissons Ratio (x) = 0.47781 0.12880
# Poissons Ratio (y) = 0.43708 0.05815
# Poissons Ratio (z) = 0.25225 0.12450
#
# Static dielectric constant tensor:
#      x y z
#    x 1.856350 0.000000 0.008480 
#    y 0.000000 1.848270 0.000000 
#    z 0.008480 0.000000 1.848380 
# 
# From -- ./inp_files/176891.got.cif
#   From: 2010.05.17/outbox.cif.g08.bks.cpg/sg15_89_cif.got.tgz:176891.got - 2010.06.03 18:47:42.
