data_PCOD9271065
_publ_section_title
;
Structure prediction by ZEFSAII (Michael W. Deem and Ramdas Pophale) SiO2 
 PCOD9271065
Probable space group: C 2/C
;
_chemical_formula_sum "Si O2"
_cell_formula_units_Z 64
_cell_length_a 7.910064
_cell_length_b 19.807249
_cell_length_c 18.665062
_cell_angle_alpha 90.000000
_cell_angle_beta 77.647289
_cell_angle_gamma 90.000000
_cell_volume 2856.676818
_symmetry_space_group_name_H-M "C 2/C"
_symmetry_group_IT_number 15
_symmetry_cell_setting 'monoclinic'
loop_
_space_group_symop_operation_xyz
x,y,z
-x,y,1/2-z
-x,-y,-z
x,-y,1/2+z
1/2+x,1/2+y,z
1/2-x,1/2+y,1/2-z
1/2-x,1/2-y,-z
1/2+x,1/2-y,1/2+z
loop_
_atom_site_type_symbol
_atom_site_label
_atom_site_fract_x
_atom_site_fract_y
_atom_site_fract_z
Si Si1 0.653122 0.957550 0.024300
Si Si2 0.073114 0.690405 0.491327
Si Si3 0.556202 0.472513 0.084496
Si Si4 0.986573 0.831757 0.464292
Si Si5 0.711724 0.793325 0.364870
Si Si6 0.704409 0.424895 0.211326
Si Si7 0.296073 0.012240 0.332761
Si Si8 0.801707 0.654827 0.389053
O O1 0.828693 0.997299 0.988563
O O2 0.671494 0.880584 0.994998
O O3 0.623753 0.966406 0.111604
O O4 0.500000 0.000000 0.000000
O O5 0.116460 0.769257 0.466786
O O6 0.964943 0.699943 0.574672
O O7 0.947356 0.670323 0.435791
O O8 0.458370 0.403149 0.072682
O O9 0.697236 0.454791 0.132411
O O10 0.410982 0.518494 0.132691
O O11 0.852869 0.808297 0.414601
O O12 0.871762 0.847953 0.545140
O O13 0.724272 0.849182 0.302529
O O14 0.759558 0.717134 0.340254
O O15 0.500000 0.419804 0.250000
O O16 0.801506 0.474059 0.257045
O O17 0.355783 0.088319 0.341142
#
# Coordination Sequence:
#
# PCOD9271065 Si02
#       8
#     8   8   8   8   8   8   8   8
#     4  12  20  32  54  86 118 139 177 236 287 325
#     4   9  17  30  53  83 112 137 179 231 281 322
#     4  10  20  36  57  79 109 149 189 230 279 331
#     4   8  14  29  53  79 101 138 185 217 265 334
#     4   8  15  31  55  76 101 145 188 222 265 334
#     4   9  19  35  55  75 104 148 191 229 265 329
#     4  11  21  33  56  83 113 146 189 224 281 345
#     4   9  15  29  55  81 103 138 186 220 263 338
#
# _framework density 22.403655000000001
#
# number of rings (size 3 to 8) (size 9 to 14) (size 15 to 20)
#    0.000    2.500    2.500    3.375    0.000    0.000 
#    0.000    3.125   11.000    6.000    0.000    0.000 
#    0.000    0.000    0.000    0.000    0.000    0.000 
#
# Total GULP energy -178397.245246 kJ/mol
# GULP energy per Si atom -5574.913914 kJ/mol
# Density = 2.235266 g / cm^3
# Si number density = 22.403655 Si / 1000 Ang^3
#
#
#
# Elastic Constant Matrix: (Units=GPa)
#
#
# Indices 1 2 3 4 5 6 
#
# 1 43.1799 11.5422 -1.0687 0.0000 3.7251 0.0000
# 2 11.5422 174.4601 59.0638 0.0000 12.3523 0.0000
# 3 -1.0687 59.0638 93.2976 0.0000 15.9319 0.0000
# 4 0.0000 0.0000 0.0000 42.4957 0.0000 4.0046
# 5 3.7251 12.3523 15.9319 0.0000 23.5589 0.0000
# 6 0.0000 0.0000 0.0000 4.0046 0.0000 29.0539
#
#
#
# Elastic Compliance Matrix: (Units=1/GPa)
#
#
# Indices 1 2 3 4 5 6 
#
# 1 0.024144 -0.002081 0.002329 0.000000 -0.004301 0.000000
# 2 -0.002081 0.007488 -0.004692 0.000000 -0.000424 0.000000
# 3 0.002329 -0.004692 0.015102 0.000000 -0.008121 0.000000
# 4 0.000000 0.000000 0.000000 0.023841 0.000000 -0.003286
# 5 -0.004301 -0.000424 -0.008121 0.000000 0.048841 0.000000
# 6 0.000000 0.000000 0.000000 -0.003286 0.000000 0.034872
#
#
# Mechanical properties :
#
#
# Convention : Reuss Voigt Hill
#
# Bulk Modulus (GPa) = 26.42348 50.00136 38.21242
# Shear Modulus (GPa) = 28.44257 35.11504 31.77881
#
# Velocity S-wave (km/s) = 3.56694 3.96331 3.77034
# Velocity P-wave (km/s) = 5.36507 6.58108 6.00394
#
# Compressibility (1/GPa) = 0.03784512
#
# Stress axis : x y z
#
# Youngs Moduli (GPa) = 41.41832 133.54437 66.21574
#
# Poissons Ratio (x) = 0.27792 -0.15418
# Poissons Ratio (y) = 0.08620 0.31068
# Poissons Ratio (z) = -0.09644 0.62658
#
# Static dielectric constant tensor:
#      x y z
#    x 1.912290 0.000000 0.033840 
#    y 0.000000 1.896480 0.000000 
#    z 0.033840 0.000000 1.825780 
# 
# From -- ./inp_files/233541.got.cif
#   From: 2010.05.17/outbox.cif.g08.bks.cpg/sg15_117_cif.got.tgz:233541.got - 2010.06.03 18:47:42.
