data_PCOD9271937
_publ_section_title
;
Structure prediction by ZEFSAII (Michael W. Deem and Ramdas Pophale) SiO2 
 PCOD9271937
Probable space group: C 2/C
;
_chemical_formula_sum "Si O2"
_cell_formula_units_Z 56
_cell_length_a 8.991284
_cell_length_b 17.744953
_cell_length_c 19.523253
_cell_angle_alpha 90.000000
_cell_angle_beta 123.885735
_cell_angle_gamma 90.000000
_cell_volume 2585.865372
_symmetry_space_group_name_H-M "C 2/C"
_symmetry_group_IT_number 15
_symmetry_cell_setting 'monoclinic'
loop_
_space_group_symop_operation_xyz
x,y,z
-x,y,1/2-z
-x,-y,-z
x,-y,1/2+z
1/2+x,1/2+y,z
1/2-x,1/2+y,1/2-z
1/2-x,1/2-y,-z
1/2+x,1/2-y,1/2+z
loop_
_atom_site_type_symbol
_atom_site_label
_atom_site_fract_x
_atom_site_fract_y
_atom_site_fract_z
Si Si1 0.156500 0.813945 0.867250
Si Si2 0.501409 0.262816 0.003373
Si Si3 0.423296 0.419350 0.552484
Si Si4 0.000000 0.599537 0.250000
Si Si5 0.231618 0.775708 0.731106
Si Si6 0.278742 0.035032 0.075513
Si Si7 0.000000 0.851491 0.250000
Si Si8 0.316785 0.651477 0.570704
O O1 0.325220 0.788098 0.953705
O O2 0.106489 0.898748 0.876266
O O3 0.218795 0.802806 0.806103
O O4 0.979371 0.764846 0.837021
O O5 0.458661 0.294776 0.068495
O O6 0.535466 0.338979 0.971199
O O7 0.333380 0.210247 0.942297
O O8 0.251102 0.457885 0.473697
O O9 0.602902 0.465001 0.580300
O O10 0.831131 0.655640 0.217792
O O11 0.945388 0.551969 0.168254
O O12 0.348749 0.702910 0.744437
O O13 0.258720 0.098000 0.009720
O O14 0.905912 0.888991 0.159301
#
# Coordination Sequence:
#
# PCOD9271937 Si02
#       8
#     8   8   8   4   8   8   4   8
#     4  11  19  37  58  94 126 157 202 282 313 382
#     4  10  20  36  62  92 122 160 212 264 334 378
#     4  10  21  38  61  88 125 166 207 266 330 388
#     4  11  20  42  64  90 118 175 216 266 300 421
#     4  10  22  32  60  94 125 159 214 256 327 375
#     4  10  22  40  65  89 124 172 221 257 324 400
#     4  11  20  38  58  90 130 167 212 268 316 389
#     4  10  21  37  63  95 122 173 216 263 316 401
#
# _framework density 21.656192000000001
#
# number of rings (size 3 to 8) (size 9 to 14) (size 15 to 20)
#    0.000    1.714    2.857    2.143    8.000    0.000 
#    0.000    5.714    9.429    0.000    0.000    0.000 
#    0.000    0.000    0.000    0.000    0.000    0.000 
#
# Total GULP energy -156002.787535 kJ/mol
# GULP energy per Si atom -5571.528126 kJ/mol
# Density = 2.160690 g / cm^3
# Si number density = 21.656192 Si / 1000 Ang^3
#
#
#
# Elastic Constant Matrix: (Units=GPa)
#
#
# Indices 1 2 3 4 5 6 
#
# 1 83.3285 11.0434 11.1362 0.0000 -3.4273 0.0000
# 2 11.0434 38.5670 13.2113 0.0000 -2.7987 0.0000
# 3 11.1362 13.2113 114.5936 0.0000 -5.3131 0.0000
# 4 0.0000 0.0000 0.0000 20.7690 0.0000 2.5898
# 5 -3.4273 -2.7987 -5.3131 0.0000 25.1836 0.0000
# 6 0.0000 0.0000 0.0000 2.5898 0.0000 13.9353
#
#
#
# Elastic Compliance Matrix: (Units=1/GPa)
#
#
# Indices 1 2 3 4 5 6 
#
# 1 0.012586 -0.003246 -0.000794 0.000000 0.001185 0.000000
# 2 -0.003246 0.027973 -0.002813 0.000000 0.002073 0.000000
# 3 -0.000794 -0.002813 0.009198 0.000000 0.001520 0.000000
# 4 0.000000 0.000000 0.000000 0.049291 0.000000 -0.009160
# 5 0.001185 0.002073 0.001520 0.000000 0.040421 0.000000
# 6 0.000000 0.000000 0.000000 -0.009160 0.000000 0.073463
#
#
# Mechanical properties :
#
#
# Convention : Reuss Voigt Hill
#
# Bulk Modulus (GPa) = 27.73898 34.14119 30.94008
# Shear Modulus (GPa) = 20.95082 25.38412 23.16747
#
# Velocity S-wave (km/s) = 3.11373 3.42737 3.27431
# Velocity P-wave (km/s) = 5.07579 5.60908 5.34909
#
# Compressibility (1/GPa) = 0.03605036
#
# Stress axis : x y z
#
# Youngs Moduli (GPa) = 79.45532 35.74934 108.71388
#
# Poissons Ratio (x) = 0.11604 0.08631
# Poissons Ratio (y) = 0.25790 0.30585
# Poissons Ratio (z) = 0.06308 0.10057
#
# Static dielectric constant tensor:
#      x y z
#    x 1.823180 0.000000 -0.067970 
#    y 0.000000 1.774830 0.000000 
#    z -0.067970 0.000000 1.927130 
# 
# From -- ./inp_files/233962.got.cif
#   From: 2010.05.17/outbox.cif.g08.bks.cpg/sg15_117_cif.got.tgz:233962.got - 2010.06.03 18:47:42.
