data_PCOD9271575
_publ_section_title
;
Structure prediction by ZEFSAII (Michael W. Deem and Ramdas Pophale) SiO2 
 PCOD9271575
Probable space group: C 2/C
;
_chemical_formula_sum "Si O2"
_cell_formula_units_Z 56
_cell_length_a 10.691542
_cell_length_b 9.642780
_cell_length_c 30.965104
_cell_angle_alpha 90.000000
_cell_angle_beta 123.629895
_cell_angle_gamma 90.000000
_cell_volume 2658.082444
_symmetry_space_group_name_H-M "C 2/C"
_symmetry_group_IT_number 15
_symmetry_cell_setting 'monoclinic'
loop_
_space_group_symop_operation_xyz
x,y,z
-x,y,1/2-z
-x,-y,-z
x,-y,1/2+z
1/2+x,1/2+y,z
1/2-x,1/2+y,1/2-z
1/2-x,1/2-y,-z
1/2+x,1/2-y,1/2+z
loop_
_atom_site_type_symbol
_atom_site_label
_atom_site_fract_x
_atom_site_fract_y
_atom_site_fract_z
Si Si1 0.688318 0.480789 0.154823
Si Si2 0.357624 0.417298 0.454810
Si Si3 0.000000 0.942220 0.250000
Si Si4 0.500000 0.114419 0.750000
Si Si5 0.171779 0.837338 0.726683
Si Si6 0.015114 0.757028 0.180117
Si Si7 0.468455 0.160713 0.006241
Si Si8 0.674666 0.159619 0.430771
O O1 0.657442 0.453965 0.098880
O O2 0.863284 0.463649 0.200925
O O3 0.640111 0.620566 0.171150
O O4 0.596302 0.361187 0.162258
O O5 0.500000 0.500000 0.500000
O O6 0.386613 0.259077 0.473299
O O7 0.222242 0.501794 0.449674
O O8 0.881612 0.036370 0.252653
O O9 0.071228 0.846516 0.300520
O O10 0.578338 0.209038 0.727924
O O11 0.347581 0.816051 0.769223
O O12 0.907446 0.666389 0.130525
O O13 0.316684 0.232611 0.956879
O O14 0.434186 0.190731 0.050301
O O15 0.500000 0.000000 0.000000
#
# Coordination Sequence:
#
# PCOD9271575 Si02
#       8
#     8   8   4   4   8   8   8   8
#     4  10  20  38  60  84 122 160 197 254 304 360
#     4  10  22  41  63  91 123 158 210 260 306 367
#     4   9  20  35  52  84 116 151 195 240 290 358
#     4   9  20  37  54  86 118 155 199 240 302 360
#     4   9  20  36  54  82 119 152 197 246 290 368
#     4  10  20  36  60  86 118 158 201 242 305 364
#     4  10  22  44  64  88 122 161 206 257 312 363
#     4  10  22  39  63  91 121 159 204 257 308 365
#
# _framework density 21.067817999999999
#
# number of rings (size 3 to 8) (size 9 to 14) (size 15 to 20)
#    0.000    2.286    1.429    0.000    4.000    1.714 
#    5.143    2.857    0.000    0.000    0.000    0.000 
#    0.000    0.000    0.000    0.000    0.000    0.000 
#
# Total GULP energy -156034.627076 kJ/mol
# GULP energy per Si atom -5572.665253 kJ/mol
# Density = 2.101987 g / cm^3
# Si number density = 21.067818 Si / 1000 Ang^3
#
#
#
# Elastic Constant Matrix: (Units=GPa)
#
#
# Indices 1 2 3 4 5 6 
#
# 1 44.3066 23.1075 8.0474 0.0000 4.6205 0.0000
# 2 23.1075 86.2624 21.0451 0.0000 3.4688 0.0000
# 3 8.0474 21.0451 86.3138 0.0000 -6.8309 0.0000
# 4 0.0000 0.0000 0.0000 17.8990 0.0000 -6.3906
# 5 4.6205 3.4688 -6.8309 0.0000 11.0702 0.0000
# 6 0.0000 0.0000 0.0000 -6.3906 0.0000 20.4127
#
#
#
# Elastic Compliance Matrix: (Units=1/GPa)
#
#
# Indices 1 2 3 4 5 6 
#
# 1 0.027367 -0.006468 -0.001806 0.000000 -0.010511 0.000000
# 2 -0.006468 0.014247 -0.003165 0.000000 -0.003717 0.000000
# 3 -0.001806 -0.003165 0.013314 0.000000 0.009961 0.000000
# 4 0.000000 0.000000 0.000000 0.062900 0.000000 0.019692
# 5 -0.010511 -0.003717 0.009961 0.000000 0.102031 0.000000
# 6 0.000000 0.000000 0.000000 0.019692 0.000000 0.055154
#
#
# Mechanical properties :
#
#
# Convention : Reuss Voigt Hill
#
# Bulk Modulus (GPa) = 31.20108 35.69810 33.44959
# Shear Modulus (GPa) = 16.20356 20.85523 18.52940
#
# Velocity S-wave (km/s) = 2.77630 3.14970 2.96887
# Velocity P-wave (km/s) = 5.01190 5.49624 5.25964
#
# Compressibility (1/GPa) = 0.03205017
#
# Stress axis : x y z
#
# Youngs Moduli (GPa) = 36.53988 70.19190 75.10871
#
# Poissons Ratio (x) = 0.45398 0.13568
# Poissons Ratio (y) = 0.23633 0.23771
# Poissons Ratio (z) = 0.06601 0.22214
#
# Static dielectric constant tensor:
#      x y z
#    x 1.773510 0.000000 -0.010060 
#    y 0.000000 1.833400 0.000000 
#    z -0.010060 0.000000 1.723140 
# 
# From -- ./inp_files/310253.got.cif
#   From: 2010.05.17/outbox.cif.g08.bks.cpg/sg15_156_cif.got.tgz:310253.got - 2010.06.03 18:47:42.
