data_PCOD9271389
_publ_section_title
;
Structure prediction by ZEFSAII (Michael W. Deem and Ramdas Pophale) SiO2 
 PCOD9271389
Probable space group: C 2/C
;
_chemical_formula_sum "Si O2"
_cell_formula_units_Z 64
_cell_length_a 12.424865
_cell_length_b 8.546943
_cell_length_c 23.838427
_cell_angle_alpha 90.000000
_cell_angle_beta 95.715463
_cell_angle_gamma 90.000000
_cell_volume 2518.927694
_symmetry_space_group_name_H-M "C 2/C"
_symmetry_group_IT_number 15
_symmetry_cell_setting 'monoclinic'
loop_
_space_group_symop_operation_xyz
x,y,z
-x,y,1/2-z
-x,-y,-z
x,-y,1/2+z
1/2+x,1/2+y,z
1/2-x,1/2+y,1/2-z
1/2-x,1/2-y,-z
1/2+x,1/2-y,1/2+z
loop_
_atom_site_type_symbol
_atom_site_label
_atom_site_fract_x
_atom_site_fract_y
_atom_site_fract_z
Si Si1 0.215224 0.784100 0.693812
Si Si2 0.060188 0.887150 0.313062
Si Si3 0.756484 0.982962 0.392272
Si Si4 0.017937 0.361751 0.114431
Si Si5 0.154325 0.876232 0.495928
Si Si6 0.818613 0.193574 0.057393
Si Si7 0.598293 0.268751 0.798098
Si Si8 0.034164 0.675366 0.412972
O O1 0.325408 0.696042 0.688355
O O2 0.218434 0.959227 0.668885
O O3 0.194933 0.774421 0.759128
O O4 0.123711 0.708329 0.648814
O O5 0.005236 0.788006 0.359705
O O6 0.000000 0.882362 0.250000
O O7 0.084329 0.067677 0.330253
O O8 0.844357 0.041465 0.443195
O O9 0.649677 0.082876 0.407714
O O10 0.741393 0.795875 0.397301
O O11 0.941377 0.259964 0.069688
O O12 0.937776 0.375107 0.165053
O O13 0.044125 0.527083 0.087576
O O14 0.250000 0.750000 0.500000
O O15 0.051454 0.781506 0.467980
O O16 0.178481 0.008889 0.450720
O O17 0.750000 0.250000 0.000000
O O18 0.500000 0.275406 0.750000
#
# Coordination Sequence:
#
# PCOD9271389 Si02
#       8
#     8   8   8   8   8   8   8   8
#     4  10  21  37  59  87 119 154 201 257 301 355
#     4  10  21  36  56  83 115 151 192 246 306 360
#     4   8  17  33  54  83 115 151 195 243 292 355
#     4  10  20  36  59  84 116 160 204 245 300 361
#     4   9  16  31  57  84 114 152 196 246 297 351
#     4   9  17  32  57  86 114 156 200 236 292 360
#     4   9  20  37  56  79 112 156 198 243 301 360
#     4   9  18  32  54  82 111 150 197 242 294 358
#
# _framework density 25.407637000000001
#
# number of rings (size 3 to 8) (size 9 to 14) (size 15 to 20)
#    0.000    2.750    0.000    1.500    0.000    5.500 
#    0.000    3.125    0.000   21.000    0.000    0.000 
#    0.000    0.000    0.000    0.000    0.000    0.000 
#
# Total GULP energy -178549.151521 kJ/mol
# GULP energy per Si atom -5579.660985 kJ/mol
# Density = 2.534981 g / cm^3
# Si number density = 25.407637 Si / 1000 Ang^3
#
#
#
# Elastic Constant Matrix: (Units=GPa)
#
#
# Indices 1 2 3 4 5 6 
#
# 1 57.4501 23.2363 35.0600 0.0000 12.0621 0.0000
# 2 23.2363 166.2832 52.0650 0.0000 9.6079 0.0000
# 3 35.0600 52.0650 101.2928 0.0000 13.0345 0.0000
# 4 0.0000 0.0000 0.0000 45.4858 0.0000 15.3828
# 5 12.0621 9.6079 13.0345 0.0000 35.8597 0.0000
# 6 0.0000 0.0000 0.0000 15.3828 0.0000 22.5046
#
#
#
# Elastic Compliance Matrix: (Units=1/GPa)
#
#
# Indices 1 2 3 4 5 6 
#
# 1 0.022990 -0.000755 -0.006924 0.000000 -0.005014 0.000000
# 2 -0.000755 0.007205 -0.003385 0.000000 -0.000446 0.000000
# 3 -0.006924 -0.003385 0.014259 0.000000 -0.001947 0.000000
# 4 0.000000 0.000000 0.000000 0.028595 0.000000 -0.019546
# 5 -0.005014 -0.000446 -0.001947 0.000000 0.030400 0.000000
# 6 0.000000 0.000000 0.000000 -0.019546 0.000000 0.057796
#
#
# Mechanical properties :
#
#
# Convention : Reuss Voigt Hill
#
# Bulk Modulus (GPa) = 44.78923 60.63873 52.71398
# Shear Modulus (GPa) = 26.20335 35.08100 30.64218
#
# Velocity S-wave (km/s) = 3.21490 3.71984 3.47655
# Velocity P-wave (km/s) = 5.60779 6.50906 6.07516
#
# Compressibility (1/GPa) = 0.02232679
#
# Stress axis : x y z
#
# Youngs Moduli (GPa) = 43.49703 138.79505 70.12973
#
# Poissons Ratio (x) = 0.10477 0.48559
# Poissons Ratio (y) = 0.03283 0.23736
# Poissons Ratio (z) = 0.30118 0.46977
#
# Static dielectric constant tensor:
#      x y z
#    x 2.149610 0.000000 0.009840 
#    y 0.000000 2.076390 0.000000 
#    z 0.009840 0.000000 2.204300 
# 
# From -- ./inp_files/295168.got.cif
#   From: 2010.05.17/outbox.cif.g08.bks.cpg/sg15_148_cif.got.tgz:295168.got - 2010.06.03 18:47:42.
