data_PCOD9271477
_publ_section_title
;
Structure prediction by ZEFSAII (Michael W. Deem and Ramdas Pophale) SiO2 
 PCOD9271477
Probable space group: C 2/C
;
_chemical_formula_sum "Si O2"
_cell_formula_units_Z 56
_cell_length_a 19.625808
_cell_length_b 5.487649
_cell_length_c 28.747696
_cell_angle_alpha 90.000000
_cell_angle_beta 119.794514
_cell_angle_gamma 90.000000
_cell_volume 2686.847908
_symmetry_space_group_name_H-M "C 2/C"
_symmetry_group_IT_number 15
_symmetry_cell_setting 'monoclinic'
loop_
_space_group_symop_operation_xyz
x,y,z
-x,y,1/2-z
-x,-y,-z
x,-y,1/2+z
1/2+x,1/2+y,z
1/2-x,1/2+y,1/2-z
1/2-x,1/2-y,-z
1/2+x,1/2-y,1/2+z
loop_
_atom_site_type_symbol
_atom_site_label
_atom_site_fract_x
_atom_site_fract_y
_atom_site_fract_z
Si Si1 0.139531 0.225225 0.423990
Si Si2 0.853691 0.688539 0.182710
Si Si3 0.657538 0.230817 0.480136
Si Si4 0.021573 0.944352 0.807938
Si Si5 0.777033 0.494109 0.916053
Si Si6 0.150723 0.966999 0.225799
Si Si7 0.757678 0.202269 0.827120
O O1 0.129035 0.491340 0.442587
O O2 0.081306 0.198054 0.360738
O O3 0.229079 0.179250 0.435949
O O4 0.123233 0.990101 0.451997
O O5 0.853489 0.744620 0.238246
O O6 0.813352 0.426741 0.169329
O O7 0.935004 0.796769 0.190018
O O8 0.789944 0.841406 0.131151
O O9 0.750000 0.250000 0.500000
O O10 0.660199 0.155364 0.535145
O O11 0.000000 0.833509 0.750000
O O12 0.939207 0.954656 0.805993
O O13 0.807453 0.340431 0.883029
O O14 0.184430 0.947633 0.185751
O O15 0.211511 0.135493 0.274130
#
# Coordination Sequence:
#
# PCOD9271477 Si02
#       7
#     8   8   8   8   8   8   8
#     4  10  21  37  58  89 126 159 206 256 319 378
#     4   9  19  35  56  84 119 152 199 253 298 370
#     4  10  20  36  59  89 124 160 202 267 318 366
#     4   9  20  41  55  87 124 160 203 249 313 374
#     4   9  20  31  56  85 115 152 204 252 312 356
#     4  10  20  38  55  85 120 162 204 245 313 376
#     4  11  20  34  62  85 121 158 208 253 307 383
#
# _framework density 20.842268000000001
#
# number of rings (size 3 to 8) (size 9 to 14) (size 15 to 20)
#    0.000    2.286    1.429    2.571    8.000    0.000 
#    5.143    2.857    0.000    1.714    0.000    0.000 
#    0.000    0.000    0.000    0.000    0.000    0.000 
#
# Total GULP energy -155896.739102 kJ/mol
# GULP energy per Si atom -5567.740682 kJ/mol
# Density = 2.079483 g / cm^3
# Si number density = 20.842268 Si / 1000 Ang^3
#
#
#
# Elastic Constant Matrix: (Units=GPa)
#
#
# Indices 1 2 3 4 5 6 
#
# 1 73.3428 6.5900 28.4579 -0.0002 -6.1576 0.0001
# 2 6.5900 64.8437 44.5679 0.0007 -8.5942 0.0010
# 3 28.4579 44.5679 112.2723 0.0001 -2.8696 0.0001
# 4 -0.0002 0.0007 0.0001 6.5303 0.0000 -7.3593
# 5 -6.1576 -8.5942 -2.8696 0.0000 21.9146 -0.0001
# 6 0.0001 0.0010 0.0001 -7.3593 -0.0001 8.0345
#
#
#
# Elastic Compliance Matrix: (Units=1/GPa)
#
#
# Indices 1 2 3 4 5 6 
#
# 1 0.015670 0.002305 -0.004767 0.000008 0.004683 0.000007
# 2 0.002305 0.022757 -0.009405 0.000168 0.008341 0.000151
# 3 -0.004767 -0.009405 0.013766 -0.000061 -0.003225 -0.000055
# 4 0.000008 0.000168 -0.000061 -4.748175 0.000048 -4.349150
# 5 0.004683 0.008341 -0.003225 0.000048 0.049796 0.000043
# 6 0.000007 0.000151 -0.000055 -4.349150 0.000043 -3.859195
#
#
# Mechanical properties :
#
#
# Convention : Reuss Voigt Hill
#
# Bulk Modulus (GPa) = 35.13831 45.52117 40.32974
# Shear Modulus (GPa) = -0.59017 18.68542 9.04762
#
# Velocity S-wave (km/s) = -0.53270 2.99744 2.08577
# Velocity P-wave (km/s) = 4.06416 5.81960 5.01922
#
# Compressibility (1/GPa) = 0.02845897
#
# Stress axis : x y z
#
# Youngs Moduli (GPa) = 63.81464 43.94295 72.64228
#
# Poissons Ratio (x) = -0.10127 0.34630
# Poissons Ratio (y) = -0.14706 0.68317
# Poissons Ratio (z) = 0.30421 0.41326
#
# Static dielectric constant tensor:
#      x y z
#    x 1.726760 0.000000 -0.035920 
#    y 0.000000 1.937010 0.000000 
#    z -0.035920 0.000000 1.800290 
# 
# From -- ./inp_files/299976.got.cif
#   From: 2010.05.17/outbox.cif.g08.bks.cpg/sg15_150_cif.got.tgz:299976.got - 2010.06.03 18:47:42.
