data_PCOD9271882
_publ_section_title
;
Structure prediction by ZEFSAII (Michael W. Deem and Ramdas Pophale) SiO2 
 PCOD9271882
Probable space group: C 2/C
;
_chemical_formula_sum "Si O2"
_cell_formula_units_Z 32
_cell_length_a 8.815088
_cell_length_b 17.710657
_cell_length_c 9.307108
_cell_angle_alpha 90.000000
_cell_angle_beta 54.163630
_cell_angle_gamma 90.000000
_cell_volume 1177.964348
_symmetry_space_group_name_H-M "C 2/C"
_symmetry_group_IT_number 15
_symmetry_cell_setting 'monoclinic'
loop_
_space_group_symop_operation_xyz
x,y,z
-x,y,1/2-z
-x,-y,-z
x,-y,1/2+z
1/2+x,1/2+y,z
1/2-x,1/2+y,1/2-z
1/2-x,1/2-y,-z
1/2+x,1/2-y,1/2+z
loop_
_atom_site_type_symbol
_atom_site_label
_atom_site_fract_x
_atom_site_fract_y
_atom_site_fract_z
Si Si1 0.222894 0.603027 0.096292
Si Si2 0.997652 0.219584 0.426702
Si Si3 0.224065 0.498311 0.349304
Si Si4 0.339664 0.131319 0.937556
O O1 0.334603 0.676321 0.089662
O O2 0.273693 0.528107 0.164516
O O3 0.000000 0.612786 0.250000
O O4 0.277485 0.577384 0.904131
O O5 0.807058 0.177187 0.576529
O O6 0.950799 0.307925 0.474353
O O7 0.000000 0.213190 0.250000
O O8 0.279258 0.571464 0.411087
O O9 0.000000 0.500000 0.500000
O O10 0.500000 0.096272 0.750000
#
# Coordination Sequence:
#
# PCOD9271882 Si02
#       4
#     8   8   8   8
#     4  10  21  39  64  97 131 169 214 271 328 383
#     4  10  20  38  63  93 120 174 218 258 316 394
#     4  10  20  38  64  93 128 171 208 268 330 382
#     4  10  20  36  62  88 127 169 217 250 319 395
#
# _framework density 27.165505
#
# number of rings (size 3 to 8) (size 9 to 14) (size 15 to 20)
#    0.000    2.000    2.500    2.250    0.000    1.000 
#    0.000    5.000    0.000    0.000    0.000    0.000 
#    0.000    0.250    0.000    0.000    0.000    0.000 
#
# Total GULP energy -89382.181187 kJ/mol
# GULP energy per Si atom -5586.386324 kJ/mol
# Density = 2.710368 g / cm^3
# Si number density = 27.165505 Si / 1000 Ang^3
#
#
#
# Elastic Constant Matrix: (Units=GPa)
#
#
# Indices 1 2 3 4 5 6 
#
# 1 112.3972 69.3212 35.0567 0.0000 -13.2413 0.0000
# 2 69.3212 116.9611 8.4228 0.0000 7.0835 0.0000
# 3 35.0567 8.4228 67.9974 0.0000 -4.9192 0.0000
# 4 0.0000 0.0000 0.0000 10.5493 0.0000 23.1361
# 5 -13.2413 7.0835 -4.9192 0.0000 43.9855 0.0000
# 6 0.0000 0.0000 0.0000 23.1361 0.0000 37.5080
#
#
#
# Elastic Compliance Matrix: (Units=1/GPa)
#
#
# Indices 1 2 3 4 5 6 
#
# 1 0.018987 -0.011082 -0.007938 0.000000 0.006613 0.000000
# 2 -0.011082 0.015197 0.003440 0.000000 -0.005399 0.000000
# 3 -0.007938 0.003440 0.018308 0.000000 -0.000896 0.000000
# 4 0.000000 0.000000 0.000000 -0.268687 0.000000 0.165734
# 5 0.006613 -0.005399 -0.000896 0.000000 0.025495 0.000000
# 6 0.000000 0.000000 0.000000 0.165734 0.000000 -0.075569
#
#
# Mechanical properties :
#
#
# Convention : Reuss Voigt Hill
#
# Bulk Modulus (GPa) = 46.87538 58.10635 52.49087
# Shear Modulus (GPa) = -21.92984 30.71223 4.39119
#
# Velocity S-wave (km/s) = -2.84433 3.36603 1.27278
# Velocity P-wave (km/s) = 2.55069 6.04508 4.63945
#
# Compressibility (1/GPa) = 0.02133316
#
# Stress axis : x y z
#
# Youngs Moduli (GPa) = 52.66873 65.80171 54.62158
#
# Poissons Ratio (x) = 0.72921 0.43357
# Poissons Ratio (y) = 0.58367 -0.18792
# Poissons Ratio (z) = 0.41807 -0.22638
#
# Static dielectric constant tensor:
#      x y z
#    x 2.344980 0.000000 0.134870 
#    y 0.000000 2.272680 0.000000 
#    z 0.134870 0.000000 2.239070 
# 
# From -- ./inp_files/76246.got.cif
#   From: 2010.05.17/outbox.cif.g08.bks.cpg/sg15_39_cif.got.tgz:76246.got - 2010.06.03 18:47:42.
