data_PCOD9271826
_publ_section_title
;
Structure prediction by ZEFSAII (Michael W. Deem and Ramdas Pophale) SiO2 
 PCOD9271826
Probable space group: C 2/C
;
_chemical_formula_sum "Si O2"
_cell_formula_units_Z 56
_cell_length_a 20.151609
_cell_length_b 8.108151
_cell_length_c 19.483595
_cell_angle_alpha 90.000000
_cell_angle_beta 126.603246
_cell_angle_gamma 90.000000
_cell_volume 2555.637152
_symmetry_space_group_name_H-M "C 2/C"
_symmetry_group_IT_number 15
_symmetry_cell_setting 'monoclinic'
loop_
_space_group_symop_operation_xyz
x,y,z
-x,y,1/2-z
-x,-y,-z
x,-y,1/2+z
1/2+x,1/2+y,z
1/2-x,1/2+y,1/2-z
1/2-x,1/2-y,-z
1/2+x,1/2-y,1/2+z
loop_
_atom_site_type_symbol
_atom_site_label
_atom_site_fract_x
_atom_site_fract_y
_atom_site_fract_z
Si Si1 0.791259 0.105282 0.352510
Si Si2 0.522911 0.555361 0.837259
Si Si3 0.007498 0.657996 0.091842
Si Si4 0.704156 0.664380 0.910356
Si Si5 0.925796 0.860728 0.501214
Si Si6 0.340852 0.957982 0.965011
Si Si7 0.154756 0.575825 0.683736
O O1 0.734327 0.226234 0.364427
O O2 0.835338 0.231564 0.326812
O O3 0.864016 0.001762 0.434193
O O4 0.726279 0.979571 0.279255
O O5 0.500000 0.476629 0.750000
O O6 0.473700 0.715181 0.834937
O O7 0.610876 0.635108 0.871825
O O8 0.523770 0.440633 0.905054
O O9 0.028935 0.760843 0.034093
O O10 0.063295 0.496150 0.140937
O O11 0.912814 0.592743 0.027389
O O12 0.750532 0.490707 0.936674
O O13 0.750000 0.750000 0.000000
O O14 0.872544 0.719028 0.503525
O O15 0.329088 0.975309 0.876435
#
# Coordination Sequence:
#
# PCOD9271826 Si02
#       7
#     8   8   8   8   8   8   8
#     4  11  22  40  66  96 128 171 212 264 329 382
#     4  12  25  42  65  96 131 171 218 265 327 390
#     4  11  22  42  66  94 127 172 216 269 327 384
#     4  11  21  44  66  88 126 178 213 254 325 397
#     4  11  23  41  68  94 130 170 216 270 322 387
#     4  10  22  41  68  94 125 169 219 264 326 388
#     4  10  20  36  61  97 126 155 214 269 314 378
#
# _framework density 21.912344999999998
#
# number of rings (size 3 to 8) (size 9 to 14) (size 15 to 20)
#    0.000    1.143    2.857    5.571    0.000    2.857 
#    0.000    3.571    0.000    0.000    0.000    0.000 
#    0.000    0.000    0.000    0.000    0.000    0.000 
#
# Total GULP energy -156050.700637 kJ/mol
# GULP energy per Si atom -5573.239308 kJ/mol
# Density = 2.186247 g / cm^3
# Si number density = 21.912345 Si / 1000 Ang^3
#
#
#
# Elastic Constant Matrix: (Units=GPa)
#
#
# Indices 1 2 3 4 5 6 
#
# 1 47.7815 16.7998 8.9425 0.0000 1.3126 0.0000
# 2 16.7998 100.4749 20.9226 0.0000 -4.7936 0.0000
# 3 8.9425 20.9226 96.6184 0.0000 6.4703 0.0000
# 4 0.0000 0.0000 0.0000 19.7983 0.0000 10.9585
# 5 1.3126 -4.7936 6.4703 0.0000 11.2824 0.0000
# 6 0.0000 0.0000 0.0000 10.9585 0.0000 33.1719
#
#
#
# Elastic Compliance Matrix: (Units=1/GPa)
#
#
# Indices 1 2 3 4 5 6 
#
# 1 0.022531 -0.003723 -0.001037 0.000000 -0.003608 0.000000
# 2 -0.003723 0.011437 -0.002586 0.000000 0.006775 0.000000
# 3 -0.001037 -0.002586 0.011514 0.000000 -0.007581 0.000000
# 4 0.000000 0.000000 0.000000 0.061812 0.000000 -0.020420
# 5 -0.003608 0.006775 -0.007581 0.000000 0.096280 0.000000
# 6 0.000000 0.000000 0.000000 -0.020420 0.000000 0.036892
#
#
# Mechanical properties :
#
#
# Convention : Reuss Voigt Hill
#
# Bulk Modulus (GPa) = 32.47970 37.57829 35.02899
# Shear Modulus (GPa) = 18.83796 26.06450 22.45123
#
# Velocity S-wave (km/s) = 2.93524 3.45264 3.20440
# Velocity P-wave (km/s) = 5.13247 5.75160 5.45083
#
# Compressibility (1/GPa) = 0.03078846
#
# Stress axis : x y z
#
# Youngs Moduli (GPa) = 44.38327 87.43539 86.85354
#
# Poissons Ratio (x) = 0.32556 0.09010
# Poissons Ratio (y) = 0.16526 0.22459
# Poissons Ratio (z) = 0.04604 0.22609
#
# Static dielectric constant tensor:
#      x y z
#    x 1.688080 0.000000 -0.044860 
#    y 0.000000 1.747700 0.000000 
#    z -0.044860 0.000000 1.811650 
# 
# From -- ./inp_files/214001.got.cif
#   From: 2010.05.17/outbox.cif.g08.bks.cpg/sg15_108_cif.got.tgz:214001.got - 2010.06.03 18:47:42.
