data_PCOD9271965
_publ_section_title
;
Structure prediction by ZEFSAII (Michael W. Deem and Ramdas Pophale) SiO2 
 PCOD9271965
Probable space group: C 2/C
;
_chemical_formula_sum "Si O2"
_cell_formula_units_Z 44
_cell_length_a 17.103588
_cell_length_b 7.841429
_cell_length_c 14.188284
_cell_angle_alpha 90.000000
_cell_angle_beta 122.077664
_cell_angle_gamma 90.000000
_cell_volume 1612.368825
_symmetry_space_group_name_H-M "C 2/C"
_symmetry_group_IT_number 15
_symmetry_cell_setting 'monoclinic'
loop_
_space_group_symop_operation_xyz
x,y,z
-x,y,1/2-z
-x,-y,-z
x,-y,1/2+z
1/2+x,1/2+y,z
1/2-x,1/2+y,1/2-z
1/2-x,1/2-y,-z
1/2+x,1/2-y,1/2+z
loop_
_atom_site_type_symbol
_atom_site_label
_atom_site_fract_x
_atom_site_fract_y
_atom_site_fract_z
Si Si1 0.773794 0.838101 0.183706
Si Si2 0.068007 0.393984 0.669835
Si Si3 0.376822 0.393749 0.882325
Si Si4 0.328073 0.537146 0.055139
Si Si5 0.500000 0.614066 0.750000
Si Si6 0.556284 0.802065 0.448832
O O1 0.838006 0.665913 0.217015
O O2 0.679883 0.779918 0.172746
O O3 0.754538 0.937689 0.073265
O O4 0.829817 0.957911 0.291476
O O5 0.003302 0.239804 0.663673
O O6 0.006292 0.561201 0.645908
O O7 0.083065 0.377398 0.567720
O O8 0.482952 0.351098 0.926162
O O9 0.348079 0.439719 0.970714
O O10 0.413546 0.503249 0.180140
O O11 0.351014 0.732908 0.042114
#
# Coordination Sequence:
#
# PCOD9271965 Si02
#       6
#     8   8   8   8   4   8
#     4  11  25  42  67  98 142 187 229 281 359 416
#     4  10  21  38  63  97 130 173 230 287 340 412
#     4  12  23  43  65  95 138 184 230 287 348 418
#     4  11  22  41  66  98 130 180 229 286 344 413
#     4  10  20  36  62  94 126 168 230 280 340 392
#     4  11  21  39  69  96 130 177 234 290 341 408
#
# _framework density 27.289042999999999
#
# number of rings (size 3 to 8) (size 9 to 14) (size 15 to 20)
#    0.000    1.091    3.636    4.364    0.000    2.182 
#    0.000    0.909    0.000    0.000    0.000    0.000 
#    0.000    0.000    0.000    0.000    0.000    0.000 
#
# Total GULP energy -122897.421835 kJ/mol
# GULP energy per Si atom -5586.246447 kJ/mol
# Density = 2.722693 g / cm^3
# Si number density = 27.289043 Si / 1000 Ang^3
#
#
#
# Elastic Constant Matrix: (Units=GPa)
#
#
# Indices 1 2 3 4 5 6 
#
# 1 99.2388 8.6317 11.2427 0.0000 1.8703 0.0000
# 2 8.6317 102.2238 21.3912 0.0000 6.8939 0.0000
# 3 11.2427 21.3912 92.1219 0.0000 -19.2007 0.0000
# 4 0.0000 0.0000 0.0000 50.1290 0.0000 19.4308
# 5 1.8703 6.8939 -19.2007 0.0000 32.4349 0.0000
# 6 0.0000 0.0000 0.0000 19.4308 0.0000 35.4644
#
#
#
# Elastic Compliance Matrix: (Units=1/GPa)
#
#
# Indices 1 2 3 4 5 6 
#
# 1 0.010305 -0.000482 -0.001424 0.000000 -0.001335 0.000000
# 2 -0.000482 0.010807 -0.003335 0.000000 -0.004244 0.000000
# 3 -0.001424 -0.003335 0.013653 0.000000 0.008873 0.000000
# 4 0.000000 0.000000 0.000000 0.025327 0.000000 -0.013877
# 5 -0.001335 -0.004244 0.008873 0.000000 0.037063 0.000000
# 6 0.000000 0.000000 0.000000 -0.013877 0.000000 0.035800
#
#
# Mechanical properties :
#
#
# Convention : Reuss Voigt Hill
#
# Bulk Modulus (GPa) = 41.18141 41.79062 41.48602
# Shear Modulus (GPa) = 32.99634 40.42691 36.71163
#
# Velocity S-wave (km/s) = 3.48105 3.85312 3.67180
# Velocity P-wave (km/s) = 5.59290 5.92812 5.76295
#
# Compressibility (1/GPa) = 0.02428280
#
# Stress axis : x y z
#
# Youngs Moduli (GPa) = 97.03924 92.53044 73.24524
#
# Poissons Ratio (x) = 0.04462 0.10429
# Poissons Ratio (y) = 0.04679 0.24428
# Poissons Ratio (z) = 0.13817 0.30860
#
# Static dielectric constant tensor:
#      x y z
#    x 2.307710 0.000000 -0.036870 
#    y 0.000000 2.257190 0.000000 
#    z -0.036870 0.000000 2.092550 
# 
# From -- ./inp_files/166470.got.cif
#   From: 2010.05.17/outbox.cif.g08.bks.cpg/sg15_84_cif.got.tgz:166470.got - 2010.06.03 18:47:42.
