data_PCOD9271359
_publ_section_title
;
Structure prediction by ZEFSAII (Michael W. Deem and Ramdas Pophale) SiO2 
 PCOD9271359
Probable space group: C 2/C
;
_chemical_formula_sum "Si O2"
_cell_formula_units_Z 52
_cell_length_a 10.823012
_cell_length_b 29.038466
_cell_length_c 14.266703
_cell_angle_alpha 90.000000
_cell_angle_beta 36.098713
_cell_angle_gamma 90.000000
_cell_volume 2641.752370
_symmetry_space_group_name_H-M "C 2/C"
_symmetry_group_IT_number 15
_symmetry_cell_setting 'monoclinic'
loop_
_space_group_symop_operation_xyz
x,y,z
-x,y,1/2-z
-x,-y,-z
x,-y,1/2+z
1/2+x,1/2+y,z
1/2-x,1/2+y,1/2-z
1/2-x,1/2-y,-z
1/2+x,1/2-y,1/2+z
loop_
_atom_site_type_symbol
_atom_site_label
_atom_site_fract_x
_atom_site_fract_y
_atom_site_fract_z
Si Si1 0.596763 0.877126 0.293594
Si Si2 0.898781 0.113979 0.998216
Si Si3 0.547302 0.973238 0.066572
Si Si4 0.500000 0.340863 0.250000
Si Si5 0.825600 0.300154 0.774746
Si Si6 0.901971 0.707756 0.578832
Si Si7 0.786386 0.010405 0.079086
O O1 0.500000 0.880945 0.250000
O O2 0.492880 0.918638 0.417368
O O3 0.544225 0.827045 0.369580
O O4 0.849298 0.886041 0.135688
O O5 0.782958 0.151804 0.132059
O O6 0.784882 0.065340 0.074060
O O7 0.886135 0.129372 0.897931
O O8 0.759108 0.987003 0.993292
O O9 0.381625 0.991176 0.244809
O O10 0.500000 0.000000 0.000000
O O11 0.329357 0.309749 0.305691
O O12 0.641059 0.261849 0.881408
O O13 0.000000 0.290728 0.750000
O O14 0.945798 0.299868 0.602359
O O15 0.000000 0.000000 0.000000
#
# Coordination Sequence:
#
# PCOD9271359 Si02
#       7
#     8   8   8   4   8   8   8
#     4  11  23  48  64  89 132 182 219 275 318 388
#     4  11  24  37  67  92 132 164 222 259 336 386
#     4  11  25  39  65  95 133 169 228 265 330 382
#     4  10  20  36  58  98 124 170 196 262 318 386
#     4  12  23  41  63 104 135 160 209 281 337 398
#     4  11  23  38  67  92 131 169 211 259 338 387
#     4  11  23  43  62  94 133 178 216 268 323 391
#
# _framework density 19.683903000000001
#
# number of rings (size 3 to 8) (size 9 to 14) (size 15 to 20)
#    0.000    0.923    5.385    2.308    8.615    0.615 
#    0.000    3.846    0.000    0.000    0.000    0.000 
#    0.000    0.000    0.000    0.000    0.000    0.000 
#
# Total GULP energy -145052.947627 kJ/mol
# GULP energy per Si atom -5578.959524 kJ/mol
# Density = 1.963910 g / cm^3
# Si number density = 19.683903 Si / 1000 Ang^3
#
#
#
# Elastic Constant Matrix: (Units=GPa)
#
#
# Indices 1 2 3 4 5 6 
#
# 1 83.3839 -6.1006 -7.6790 0.0000 3.2306 0.0000
# 2 -6.1006 114.2626 9.5723 0.0000 -4.2134 0.0000
# 3 -7.6790 9.5723 49.1811 0.0000 8.5916 0.0000
# 4 0.0000 0.0000 0.0000 -7.6908 0.0000 -55.6901
# 5 3.2306 -4.2134 8.5916 0.0000 23.3961 0.0000
# 6 0.0000 0.0000 0.0000 -55.6901 0.0000 -86.4857
#
#
#
# Elastic Compliance Matrix: (Units=1/GPa)
#
#
# Indices 1 2 3 4 5 6 
#
# 1 0.012326 0.000376 0.002284 0.000000 -0.002473 0.000000
# 2 0.000376 0.009035 -0.002111 0.000000 0.002350 0.000000
# 3 0.002284 -0.002111 0.022677 0.000000 -0.009023 0.000000
# 4 0.000000 0.000000 0.000000 0.035500 0.000000 -0.022859
# 5 -0.002473 0.002350 -0.009023 0.000000 0.046820 0.000000
# 6 0.000000 0.000000 0.000000 -0.022859 0.000000 0.003157
#
#
# Mechanical properties :
#
#
# Convention : Reuss Voigt Hill
#
# Bulk Modulus (GPa) = 22.15555 26.49032 24.32293
# Shear Modulus (GPa) = 34.85227 2.57959 18.71593
#
# Velocity S-wave (km/s) = 4.21241 1.14602 3.08689
# Velocity P-wave (km/s) = 5.91095 3.90361 5.00887
#
# Compressibility (1/GPa) = 0.04513542
#
# Stress axis : x y z
#
# Youngs Moduli (GPa) = 81.12726 110.67698 44.09839
#
# Poissons Ratio (x) = -0.04157 -0.10070
# Poissons Ratio (y) = -0.03047 0.09307
# Poissons Ratio (z) = -0.18525 0.23359
#
# Static dielectric constant tensor:
#      x y z
#    x 1.749090 0.000000 -0.033110 
#    y 0.000000 1.792270 0.000000 
#    z -0.033110 0.000000 1.678310 
# 
# From -- ./inp_files/148360.got.cif
#   From: 2010.05.17/outbox.cif.g08.bks.cpg/sg15_75_cif.got.tgz:148360.got - 2010.06.03 18:47:42.
