data_PCOD9271953
_publ_section_title
;
Structure prediction by ZEFSAII (Michael W. Deem and Ramdas Pophale) SiO2 
 PCOD9271953
Probable space group: C 2/C
;
_chemical_formula_sum "Si O2"
_cell_formula_units_Z 56
_cell_length_a 12.413807
_cell_length_b 15.033024
_cell_length_c 13.068679
_cell_angle_alpha 90.000000
_cell_angle_beta 109.661014
_cell_angle_gamma 90.000000
_cell_volume 2296.653417
_symmetry_space_group_name_H-M "C 2/C"
_symmetry_group_IT_number 15
_symmetry_cell_setting 'monoclinic'
loop_
_space_group_symop_operation_xyz
x,y,z
-x,y,1/2-z
-x,-y,-z
x,-y,1/2+z
1/2+x,1/2+y,z
1/2-x,1/2+y,1/2-z
1/2-x,1/2-y,-z
1/2+x,1/2-y,1/2+z
loop_
_atom_site_type_symbol
_atom_site_label
_atom_site_fract_x
_atom_site_fract_y
_atom_site_fract_z
Si Si1 0.227231 0.019860 0.070904
Si Si2 0.303419 0.663059 0.816672
Si Si3 0.961621 0.289818 0.952289
Si Si4 0.900010 0.248785 0.146500
Si Si5 0.675584 0.940637 0.690933
Si Si6 0.090284 0.955380 0.861367
Si Si7 0.831026 0.389541 0.411639
O O1 0.228840 0.921208 0.122273
O O2 0.262924 0.075488 0.181375
O O3 0.109300 0.014035 0.968310
O O4 0.310402 0.058157 0.010445
O O5 0.427729 0.699583 0.884395
O O6 0.214574 0.739518 0.824828
O O7 0.277973 0.642545 0.690008
O O8 0.917850 0.368454 0.866267
O O9 0.889103 0.296243 0.034575
O O10 0.088676 0.307598 0.032692
O O11 0.938098 0.148358 0.128887
O O12 0.000000 0.286317 0.250000
O O13 0.785158 0.945769 0.650913
O O14 0.617073 0.037305 0.650964
O O15 0.000000 0.990637 0.750000
#
# Coordination Sequence:
#
# PCOD9271953 Si02
#       7
#     8   8   8   8   8   8   8
#     4  10  22  42  61  92 135 179 216 279 335 408
#     4  11  21  38  64  95 129 175 227 273 331 400
#     4  12  21  37  63  95 133 178 222 277 333 398
#     4  11  19  33  61  95 123 159 217 284 330 373
#     4  10  22  38  62  94 133 175 220 278 341 399
#     4  10  20  36  62  93 126 166 226 278 327 387
#     4  10  23  40  61  96 139 169 221 277 343 400
#
# _framework density 24.383305
#
# number of rings (size 3 to 8) (size 9 to 14) (size 15 to 20)
#    0.000    1.429    4.286    2.571    0.000    1.143 
#    0.000    0.714    0.000    1.714    0.000    0.000 
#    0.000    0.000    0.000    0.000    0.000    0.000 
#
# Total GULP energy -156092.691906 kJ/mol
# GULP energy per Si atom -5574.738997 kJ/mol
# Density = 2.432781 g / cm^3
# Si number density = 24.383305 Si / 1000 Ang^3
#
#
#
# Elastic Constant Matrix: (Units=GPa)
#
#
# Indices 1 2 3 4 5 6 
#
# 1 37.1059 10.1574 30.5940 0.0000 15.1216 0.0000
# 2 10.1574 57.5503 48.1730 0.0000 17.3973 0.0000
# 3 30.5940 48.1730 179.1687 0.0000 16.8171 0.0000
# 4 0.0000 0.0000 0.0000 30.2663 0.0000 15.3089
# 5 15.1216 17.3973 16.8171 0.0000 28.6498 0.0000
# 6 0.0000 0.0000 0.0000 15.3089 0.0000 24.5130
#
#
#
# Elastic Compliance Matrix: (Units=1/GPa)
#
#
# Indices 1 2 3 4 5 6 
#
# 1 0.038544 0.003902 -0.005819 0.000000 -0.019297 0.000000
# 2 0.003902 0.026386 -0.006417 0.000000 -0.014316 0.000000
# 3 -0.005819 -0.006417 0.008092 0.000000 0.002218 0.000000
# 4 0.000000 0.000000 0.000000 0.048296 0.000000 -0.030162
# 5 -0.019297 -0.014316 0.002218 0.000000 0.052480 0.000000
# 6 0.000000 0.000000 0.000000 -0.030162 0.000000 0.059632
#
#
# Mechanical properties :
#
#
# Convention : Reuss Voigt Hill
#
# Bulk Modulus (GPa) = 17.74520 50.18598 33.96559
# Shear Modulus (GPa) = 18.59533 29.01250 23.80391
#
# Velocity S-wave (km/s) = 2.76456 3.45316 3.12787
# Velocity P-wave (km/s) = 4.18136 6.04367 5.19662
#
# Compressibility (1/GPa) = 0.05635328
#
# Stress axis : x y z
#
# Youngs Moduli (GPa) = 25.94433 37.89822 123.57610
#
# Poissons Ratio (x) = -0.14787 0.71914
# Poissons Ratio (y) = -0.10123 0.79300
# Poissons Ratio (z) = 0.15098 0.24320
#
# Static dielectric constant tensor:
#      x y z
#    x 2.026720 0.000000 -0.026190 
#    y 0.000000 2.077570 0.000000 
#    z -0.026190 0.000000 1.983950 
# 
# From -- ./inp_files/98391.got.cif
#   From: 2010.05.17/outbox.cif.g08.bks.cpg/sg15_50_cif.got.tgz:98391.got - 2010.06.03 18:47:42.
