data_PCOD9271511
_publ_section_title
;
Structure prediction by ZEFSAII (Michael W. Deem and Ramdas Pophale) SiO2 
 PCOD9271511
Probable space group: C 2/C
;
_chemical_formula_sum "Si O2"
_cell_formula_units_Z 48
_cell_length_a 28.058809
_cell_length_b 9.781620
_cell_length_c 12.646622
_cell_angle_alpha 90.000000
_cell_angle_beta 138.909762
_cell_angle_gamma 90.000000
_cell_volume 2281.303506
_symmetry_space_group_name_H-M "C 2/C"
_symmetry_group_IT_number 15
_symmetry_cell_setting 'monoclinic'
loop_
_space_group_symop_operation_xyz
x,y,z
-x,y,1/2-z
-x,-y,-z
x,-y,1/2+z
1/2+x,1/2+y,z
1/2-x,1/2+y,1/2-z
1/2-x,1/2-y,-z
1/2+x,1/2-y,1/2+z
loop_
_atom_site_type_symbol
_atom_site_label
_atom_site_fract_x
_atom_site_fract_y
_atom_site_fract_z
Si Si1 0.402231 0.913249 0.291020
Si Si2 0.321106 0.325497 0.571788
Si Si3 0.256240 0.746082 0.344591
Si Si4 0.778440 0.531286 0.746407
Si Si5 0.855176 0.121339 0.694938
Si Si6 0.518379 0.819090 0.656481
O O1 0.379364 0.794493 0.172066
O O2 0.333428 0.974596 0.240292
O O3 0.451128 0.842150 0.463801
O O4 0.438502 0.039171 0.291830
O O5 0.250000 0.250000 0.500000
O O6 0.293518 0.392430 0.417025
O O7 0.350134 0.456841 0.686020
O O8 0.237269 0.618834 0.237663
O O9 0.305791 0.864030 0.379334
O O10 0.183862 0.815465 0.268236
O O11 0.301238 0.672728 0.511930
O O12 0.931975 0.191955 0.799561
O O13 0.500000 0.803558 0.750000
#
# Coordination Sequence:
#
# PCOD9271511 Si02
#       6
#     8   8   8   8   8   8
#     4  10  22  41  59  91 122 158 212 249 298 367
#     4   9  21  38  61  88 122 153 193 257 312 355
#     4  10  21  34  61  91 122 154 198 251 315 363
#     4  10  20  36  59  94 119 153 200 249 313 365
#     4  10  21  40  58  89 125 161 199 255 302 362
#     4  11  23  41  64  84 122 170 207 247 297 361
#
# _framework density 21.040602
#
# number of rings (size 3 to 8) (size 9 to 14) (size 15 to 20)
#    0.000    2.000    1.667    1.000    7.000    2.000 
#    0.000    0.833    0.000    0.000    0.000    0.000 
#    0.000    0.000    0.000    0.000    0.000    0.000 
#
# Total GULP energy -133837.785351 kJ/mol
# GULP energy per Si atom -5576.574390 kJ/mol
# Density = 2.099271 g / cm^3
# Si number density = 21.040602 Si / 1000 Ang^3
#
#
#
# Elastic Constant Matrix: (Units=GPa)
#
#
# Indices 1 2 3 4 5 6 
#
# 1 65.3070 8.1421 6.4423 0.0000 -5.9151 0.0000
# 2 8.1421 120.5557 15.4656 0.0000 -0.1609 0.0000
# 3 6.4423 15.4656 57.8844 0.0000 8.1890 0.0000
# 4 0.0000 0.0000 0.0000 32.2867 0.0000 1.5016
# 5 -5.9151 -0.1609 8.1890 0.0000 17.5111 0.0000
# 6 0.0000 0.0000 0.0000 1.5016 0.0000 26.1460
#
#
#
# Elastic Compliance Matrix: (Units=1/GPa)
#
#
# Indices 1 2 3 4 5 6 
#
# 1 0.016264 -0.000762 -0.002552 0.000000 0.006680 0.000000
# 2 -0.000762 0.008650 -0.002357 0.000000 0.000924 0.000000
# 3 -0.002552 -0.002357 0.019612 0.000000 -0.010055 0.000000
# 4 0.000000 0.000000 0.000000 0.031055 0.000000 -0.001784
# 5 0.006680 0.000924 -0.010055 0.000000 0.064074 0.000000
# 6 0.000000 0.000000 0.000000 -0.001784 0.000000 0.038349
#
#
# Mechanical properties :
#
#
# Convention : Reuss Voigt Hill
#
# Bulk Modulus (GPa) = 30.13447 33.76079 31.94763
# Shear Modulus (GPa) = 24.94914 29.43522 27.19218
#
# Velocity S-wave (km/s) = 3.44722 3.74434 3.59885
# Velocity P-wave (km/s) = 5.49524 5.89693 5.69963
#
# Compressibility (1/GPa) = 0.03318458
#
# Stress axis : x y z
#
# Youngs Moduli (GPa) = 61.48525 115.60680 50.98906
#
# Poissons Ratio (x) = 0.08812 0.13010
# Poissons Ratio (y) = 0.04686 0.12018
# Poissons Ratio (z) = 0.15688 0.27249
#
# Static dielectric constant tensor:
#      x y z
#    x 1.762890 0.000000 -0.031840 
#    y 0.000000 1.845830 0.000000 
#    z -0.031840 0.000000 1.849080 
# 
# From -- ./inp_files/176850.got.cif
#   From: 2010.05.17/outbox.cif.g08.bks.cpg/sg15_89_cif.got.tgz:176850.got - 2010.06.03 18:47:42.
