data_PCOD9271289
_publ_section_title
;
Structure prediction by ZEFSAII (Michael W. Deem and Ramdas Pophale) SiO2 
 PCOD9271289
Probable space group: C 2/C
;
_chemical_formula_sum "Si O2"
_cell_formula_units_Z 60
_cell_length_a 12.647197
_cell_length_b 10.447964
_cell_length_c 31.716747
_cell_angle_alpha 90.000000
_cell_angle_beta 40.643133
_cell_angle_gamma 90.000000
_cell_volume 2729.770193
_symmetry_space_group_name_H-M "C 2/C"
_symmetry_group_IT_number 15
_symmetry_cell_setting 'monoclinic'
loop_
_space_group_symop_operation_xyz
x,y,z
-x,y,1/2-z
-x,-y,-z
x,-y,1/2+z
1/2+x,1/2+y,z
1/2-x,1/2+y,1/2-z
1/2-x,1/2-y,-z
1/2+x,1/2-y,1/2+z
loop_
_atom_site_type_symbol
_atom_site_label
_atom_site_fract_x
_atom_site_fract_y
_atom_site_fract_z
Si Si1 0.990747 0.807056 0.930130
Si Si2 0.710170 0.741649 0.289683
Si Si3 0.552017 0.985722 0.425060
Si Si4 0.390160 0.011133 0.190538
Si Si5 0.500000 0.367927 0.250000
Si Si6 0.202068 0.964854 0.015629
Si Si7 0.262026 0.129808 0.408248
Si Si8 0.141794 0.926822 0.123263
O O1 0.048814 0.794560 0.864292
O O2 0.002741 0.663688 0.944220
O O3 0.126687 0.889336 0.913892
O O4 0.826752 0.885718 0.986297
O O5 0.669970 0.871599 0.276563
O O6 0.784366 0.626088 0.241023
O O7 0.846482 0.780647 0.283441
O O8 0.621370 0.005652 0.356950
O O9 0.694304 0.006257 0.415459
O O10 0.385236 0.063269 0.475720
O O11 0.579689 0.039763 0.142718
O O12 0.531744 0.448107 0.197795
O O13 0.091123 0.944699 0.090265
O O14 0.182625 0.888656 0.978421
O O15 0.324732 0.274683 0.384984
#
# Coordination Sequence:
#
# PCOD9271289 Si02
#       8
#     8   8   8   8   4   8   8   8
#     4  10  20  36  58  87 118 165 199 235 309 363
#     4  11  21  37  64  87 120 157 206 247 298 361
#     4   9  20  39  56  83 123 159 197 242 302 358
#     4  10  20  36  62  90 115 159 204 249 296 355
#     4  12  20  40  64  82 114 162 208 238 284 390
#     4  11  22  33  60  89 117 151 202 258 289 340
#     4  10  20  38  57  82 122 153 203 244 291 361
#     4  11  21  37  59  88 113 163 201 241 295 357
#
# _framework density 21.979873000000001
#
# number of rings (size 3 to 8) (size 9 to 14) (size 15 to 20)
#    0.000    1.600    5.333    1.600    1.867    0.000 
#    0.000    0.000    0.000   15.200    0.000    0.000 
#    0.000    0.000    0.000    0.000    0.000    0.000 
#
# Total GULP energy -167329.620046 kJ/mol
# GULP energy per Si atom -5577.654002 kJ/mol
# Density = 2.192985 g / cm^3
# Si number density = 21.979873 Si / 1000 Ang^3
#
#
#
# Elastic Constant Matrix: (Units=GPa)
#
#
# Indices 1 2 3 4 5 6 
#
# 1 54.4252 25.6386 5.9710 0.0000 2.3960 0.0000
# 2 25.6386 73.9214 23.7568 0.0000 3.0183 0.0000
# 3 5.9710 23.7568 69.3988 0.0000 23.5917 0.0000
# 4 0.0000 0.0000 0.0000 24.8897 0.0000 4.8590
# 5 2.3960 3.0183 23.5917 0.0000 35.1290 0.0000
# 6 0.0000 0.0000 0.0000 4.8590 0.0000 19.9965
#
#
#
# Elastic Compliance Matrix: (Units=1/GPa)
#
#
# Indices 1 2 3 4 5 6 
#
# 1 0.022089 -0.008061 0.001471 0.000000 -0.001802 0.000000
# 2 -0.008061 0.018363 -0.006794 0.000000 0.003535 0.000000
# 3 0.001471 -0.006794 0.021309 0.000000 -0.013827 0.000000
# 4 0.000000 0.000000 0.000000 0.042178 0.000000 -0.010249
# 5 -0.001802 0.003535 -0.013827 0.000000 0.037572 0.000000
# 6 0.000000 0.000000 0.000000 -0.010249 0.000000 0.052499
#
#
# Mechanical properties :
#
#
# Convention : Reuss Voigt Hill
#
# Bulk Modulus (GPa) = 28.57599 34.27536 31.42567
# Shear Modulus (GPa) = 21.51086 25.49499 23.50293
#
# Velocity S-wave (km/s) = 3.13175 3.40946 3.27355
# Velocity P-wave (km/s) = 5.10944 5.57916 5.34946
#
# Compressibility (1/GPa) = 0.03499441
#
# Stress axis : x y z
#
# Youngs Moduli (GPa) = 45.27164 54.45826 46.92824
#
# Poissons Ratio (x) = 0.43896 -0.06905
# Poissons Ratio (y) = 0.36491 0.31883
# Poissons Ratio (z) = -0.06661 0.36999
#
# Static dielectric constant tensor:
#      x y z
#    x 1.845990 0.000000 -0.044950 
#    y 0.000000 1.822690 0.000000 
#    z -0.044950 0.000000 1.899060 
# 
# From -- ./inp_files/310785.got.cif
#   From: 2010.05.17/outbox.cif.g08.bks.cpg/sg15_156_cif.got.tgz:310785.got - 2010.06.03 18:47:42.
