data_PCOD9271584
_publ_section_title
;
Structure prediction by ZEFSAII (Michael W. Deem and Ramdas Pophale) SiO2 
 PCOD9271584
Probable space group: C 2/C
;
_chemical_formula_sum "Si O2"
_cell_formula_units_Z 64
_cell_length_a 28.718570
_cell_length_b 15.013924
_cell_length_c 13.380560
_cell_angle_alpha 90.000000
_cell_angle_beta 141.943682
_cell_angle_gamma 90.000000
_cell_volume 3556.469799
_symmetry_space_group_name_H-M "C 2/C"
_symmetry_group_IT_number 15
_symmetry_cell_setting 'monoclinic'
loop_
_space_group_symop_operation_xyz
x,y,z
-x,y,1/2-z
-x,-y,-z
x,-y,1/2+z
1/2+x,1/2+y,z
1/2-x,1/2+y,1/2-z
1/2-x,1/2-y,-z
1/2+x,1/2-y,1/2+z
loop_
_atom_site_type_symbol
_atom_site_label
_atom_site_fract_x
_atom_site_fract_y
_atom_site_fract_z
Si Si1 0.932394 0.830941 0.215906
Si Si2 0.850353 0.028251 0.452372
Si Si3 0.326167 0.997642 0.862074
Si Si4 0.087029 0.350861 0.361701
Si Si5 0.087563 0.631845 0.361103
Si Si6 0.416960 0.649124 0.158917
Si Si7 0.956404 0.908951 0.948090
Si Si8 0.083913 0.487653 0.184820
O O1 0.898103 0.733571 0.143590
O O2 0.000000 0.839632 0.250000
O O3 0.977966 0.844912 0.395852
O O4 0.873423 0.906811 0.083749
O O5 0.762133 0.021379 0.281497
O O6 0.895152 0.066727 0.430869
O O7 0.875808 0.930026 0.530354
O O8 0.355168 0.004912 0.798623
O O9 0.368324 0.916518 0.989262
O O10 0.355738 0.088969 0.963086
O O11 0.114530 0.249024 0.407599
O O12 0.090020 0.396492 0.257788
O O13 0.000000 0.352119 0.250000
O O14 0.095218 0.568240 0.279866
O O15 0.000000 0.625358 0.250000
O O16 0.500000 0.649742 0.250000
O O17 0.423127 0.627035 0.287688
O O18 0.000000 0.000000 0.000000
O O19 0.000000 0.500000 0.000000
#
# Coordination Sequence:
#
# PCOD9271584 Si02
#       8
#     8   8   8   8   8   8   8   8
#     4   9  20  37  61  88 111 150 200 240 281 347
#     4  11  23  40  58  87 124 155 192 238 298 351
#     4  11  23  39  58  85 126 157 186 249 295 340
#     4  10  22  38  60  92 119 150 205 247 287 352
#     4  10  20  36  60  87 112 149 206 243 280 345
#     4  11  22  38  63  93 116 153 202 246 291 350
#     4  11  20  39  65  83 114 153 194 240 287 339
#     4  11  19  36  60  83 113 157 198 235 294 344
#
# _framework density 17.995372
#
# number of rings (size 3 to 8) (size 9 to 14) (size 15 to 20)
#    0.000    1.500    5.000    1.125    1.750    4.000 
#    0.000    1.875    0.000    0.000    0.000    0.000 
#    0.000    0.000    0.000    0.000    0.000    0.000 
#
# Total GULP energy -178474.005600 kJ/mol
# GULP energy per Si atom -5577.312675 kJ/mol
# Density = 1.795441 g / cm^3
# Si number density = 17.995372 Si / 1000 Ang^3
#
#
#
# Elastic Constant Matrix: (Units=GPa)
#
#
# Indices 1 2 3 4 5 6 
#
# 1 89.4170 31.7585 44.5297 0.0000 -7.8511 0.0000
# 2 31.7585 145.7653 44.2160 0.0000 3.9565 0.0000
# 3 44.5297 44.2160 76.1060 0.0000 2.1806 0.0000
# 4 0.0000 0.0000 0.0000 6.0591 0.0000 -2.7275
# 5 -7.8511 3.9565 2.1806 0.0000 33.5583 0.0000
# 6 0.0000 0.0000 0.0000 -2.7275 0.0000 7.7791
#
#
#
# Elastic Compliance Matrix: (Units=1/GPa)
#
#
# Indices 1 2 3 4 5 6 
#
# 1 0.016526 -0.000913 -0.009270 0.000000 0.004576 0.000000
# 2 -0.000913 0.008393 -0.004316 0.000000 -0.000923 0.000000
# 3 -0.009270 -0.004316 0.021158 0.000000 -0.003035 0.000000
# 4 0.000000 0.000000 0.000000 0.195970 0.000000 0.068710
# 5 0.004576 -0.000923 -0.003035 0.000000 0.031176 0.000000
# 6 0.000000 0.000000 0.000000 0.068710 0.000000 0.152640
#
#
# Mechanical properties :
#
#
# Convention : Reuss Voigt Hill
#
# Bulk Modulus (GPa) = 58.54917 61.36630 59.95773
# Shear Modulus (GPa) = 10.85648 22.19825 16.52736
#
# Velocity S-wave (km/s) = 2.45887 3.51601 3.03384
# Velocity P-wave (km/s) = 6.37712 7.11746 6.75744
#
# Compressibility (1/GPa) = 0.01707966
#
# Stress axis : x y z
#
# Youngs Moduli (GPa) = 60.50994 119.14080 47.26342
#
# Poissons Ratio (x) = 0.10875 0.43815
# Poissons Ratio (y) = 0.05524 0.20398
# Poissons Ratio (z) = 0.56095 0.51420
#
# Static dielectric constant tensor:
#      x y z
#    x 1.629390 0.000000 -0.049780 
#    y 0.000000 1.632000 0.000000 
#    z -0.049780 0.000000 1.710810 
# 
# From -- ./inp_files/126890.got.cif
#   From: 2010.05.17/outbox.cif.g08.bks.cpg/sg15_64_cif.got.tgz:126890.got - 2010.06.03 18:47:42.
