data_PCOD9271349
_publ_section_title
;
Structure prediction by ZEFSAII (Michael W. Deem and Ramdas Pophale) SiO2 
 PCOD9271349
Probable space group: C 2/C
;
_chemical_formula_sum "Si O2"
_cell_formula_units_Z 60
_cell_length_a 11.674401
_cell_length_b 19.000538
_cell_length_c 14.271886
_cell_angle_alpha 90.000000
_cell_angle_beta 56.005877
_cell_angle_gamma 90.000000
_cell_volume 2624.739036
_symmetry_space_group_name_H-M "C 2/C"
_symmetry_group_IT_number 15
_symmetry_cell_setting 'monoclinic'
loop_
_space_group_symop_operation_xyz
x,y,z
-x,y,1/2-z
-x,-y,-z
x,-y,1/2+z
1/2+x,1/2+y,z
1/2-x,1/2+y,1/2-z
1/2-x,1/2-y,-z
1/2+x,1/2-y,1/2+z
loop_
_atom_site_type_symbol
_atom_site_label
_atom_site_fract_x
_atom_site_fract_y
_atom_site_fract_z
Si Si1 0.220381 0.166325 0.320935
Si Si2 0.583103 0.994022 0.557971
Si Si3 0.500000 0.112949 0.250000
Si Si4 0.378527 0.800259 0.579529
Si Si5 0.618705 0.854124 0.124088
Si Si6 0.349649 0.642423 0.665862
Si Si7 0.852572 0.094968 0.971967
Si Si8 0.182216 0.682587 0.917300
O O1 0.372040 0.163116 0.295869
O O2 0.252780 0.163727 0.195476
O O3 0.150317 0.104428 0.413139
O O4 0.161060 0.240535 0.381151
O O5 0.507008 0.940593 0.661445
O O6 0.743268 0.964434 0.487184
O O7 0.500000 0.000000 0.500000
O O8 0.573129 0.071275 0.605223
O O9 0.356032 0.804772 0.477957
O O10 0.390408 0.723799 0.623705
O O11 0.528933 0.835755 0.520766
O O12 0.500000 0.826312 0.250000
O O13 0.756586 0.872371 0.118337
O O14 0.485032 0.596171 0.624027
O O15 0.248593 0.639611 0.801153
O O16 0.788489 0.165856 0.952412
#
# Coordination Sequence:
#
# PCOD9271349 Si02
#       8
#     8   8   4   8   8   8   8   8
#     4  10  21  34  60  94 133 165 214 273 331 395
#     4  11  24  42  68  92 126 172 229 278 319 400
#     4  10  20  36  58  94 122 168 216 266 320 382
#     4  11  22  41  64  99 132 175 223 276 337 404
#     4  12  24  45  68  94 129 182 232 274 331 410
#     4  11  25  40  65 100 135 177 219 279 345 403
#     4  11  23  40  63  99 136 173 215 277 343 390
#     4  11  21  37  63  98 137 172 217 268 337 406
#
# _framework density 22.859416
#
# number of rings (size 3 to 8) (size 9 to 14) (size 15 to 20)
#    0.000    1.067    3.333    4.400    3.733    0.533 
#    0.000    0.667    0.000    1.600    0.000    0.000 
#    0.000    0.000    0.000    0.000    0.000    0.000 
#
# Total GULP energy -167289.901097 kJ/mol
# GULP energy per Si atom -5576.330037 kJ/mol
# Density = 2.280739 g / cm^3
# Si number density = 22.859416 Si / 1000 Ang^3
#
#
#
# Elastic Constant Matrix: (Units=GPa)
#
#
# Indices 1 2 3 4 5 6 
#
# 1 82.4747 -0.3679 34.4900 0.0000 5.6507 0.0000
# 2 -0.3679 37.8466 37.2196 0.0000 -0.7961 0.0000
# 3 34.4900 37.2196 133.3935 0.0000 22.1144 0.0000
# 4 0.0000 0.0000 0.0000 21.7527 0.0000 4.8629
# 5 5.6507 -0.7961 22.1144 0.0000 33.1130 0.0000
# 6 0.0000 0.0000 0.0000 4.8629 0.0000 31.5668
#
#
#
# Elastic Compliance Matrix: (Units=1/GPa)
#
#
# Indices 1 2 3 4 5 6 
#
# 1 0.014352 0.005564 -0.005487 0.000000 0.001349 0.000000
# 2 0.005564 0.040897 -0.014456 0.000000 0.009688 0.000000
# 3 -0.005487 -0.014456 0.014451 0.000000 -0.009062 0.000000
# 4 0.000000 0.000000 0.000000 0.047611 0.000000 -0.007335
# 5 0.001349 0.009688 -0.009062 0.000000 0.036255 0.000000
# 6 0.000000 0.000000 0.000000 -0.007335 0.000000 0.032809
#
#
# Mechanical properties :
#
#
# Convention : Reuss Voigt Hill
#
# Bulk Modulus (GPa) = 24.42470 44.04425 34.23447
# Shear Modulus (GPa) = 21.85518 29.44471 25.64994
#
# Velocity S-wave (km/s) = 3.09539 3.59287 3.35337
# Velocity P-wave (km/s) = 4.84595 6.04325 5.47741
#
# Compressibility (1/GPa) = 0.04094217
#
# Stress axis : x y z
#
# Youngs Moduli (GPa) = 69.67728 24.45194 69.19868
#
# Poissons Ratio (x) = -0.13605 0.37969
# Poissons Ratio (y) = -0.38768 1.00032
# Poissons Ratio (z) = 0.38231 0.35347
#
# Static dielectric constant tensor:
#      x y z
#    x 1.860020 0.000000 0.021180 
#    y 0.000000 1.935730 0.000000 
#    z 0.021180 0.000000 1.988580 
# 
# From -- ./inp_files/147102.got.cif
#   From: 2010.05.17/outbox.cif.g08.bks.cpg/sg15_74_cif.got.tgz:147102.got - 2010.06.03 18:47:42.
