data_PCOD9271876
_publ_section_title
;
Structure prediction by ZEFSAII (Michael W. Deem and Ramdas Pophale) SiO2 
 PCOD9271876
Probable space group: C 2/C
;
_chemical_formula_sum "Si O2"
_cell_formula_units_Z 48
_cell_length_a 8.411212
_cell_length_b 17.063469
_cell_length_c 16.291210
_cell_angle_alpha 90.000000
_cell_angle_beta 113.669831
_cell_angle_gamma 90.000000
_cell_volume 2141.484977
_symmetry_space_group_name_H-M "C 2/C"
_symmetry_group_IT_number 15
_symmetry_cell_setting 'monoclinic'
loop_
_space_group_symop_operation_xyz
x,y,z
-x,y,1/2-z
-x,-y,-z
x,-y,1/2+z
1/2+x,1/2+y,z
1/2-x,1/2+y,1/2-z
1/2-x,1/2-y,-z
1/2+x,1/2-y,1/2+z
loop_
_atom_site_type_symbol
_atom_site_label
_atom_site_fract_x
_atom_site_fract_y
_atom_site_fract_z
Si Si1 0.965610 0.270750 0.460350
Si Si2 0.500000 0.109252 0.250000
Si Si3 0.000000 0.878649 0.250000
Si Si4 0.281755 0.070985 0.923873
Si Si5 0.755968 0.760072 0.756052
Si Si6 0.756155 0.180142 0.902977
Si Si7 0.122296 0.518187 0.898286
O O1 0.843202 0.341497 0.465775
O O2 0.869133 0.233616 0.361898
O O3 0.046658 0.207479 0.539110
O O4 0.139939 0.311875 0.461263
O O5 0.370583 0.165964 0.272417
O O6 0.397814 0.053536 0.167295
O O7 0.900908 0.926240 0.159859
O O8 0.855589 0.819296 0.254223
O O9 0.429731 0.045007 0.888629
O O10 0.285286 0.011998 0.000263
O O11 0.825149 0.740086 0.680125
O O12 0.721319 0.089829 0.875678
#
# Coordination Sequence:
#
# PCOD9271876 Si02
#       7
#     8   4   4   8   8   8   8
#     4   9  19  36  62  84 114 158 204 242 289 354
#     4  11  24  38  58  90 123 160 198 247 308 354
#     4   9  20  36  62  82 109 162 204 239 292 356
#     4   9  19  40  60  87 122 159 198 248 302 360
#     4  10  21  38  58  85 119 158 203 244 292 357
#     4  10  20  36  62  88 115 157 205 242 292 357
#     4  10  22  37  62  87 125 161 194 248 312 354
#
# _framework density 22.414352999999998
#
# number of rings (size 3 to 8) (size 9 to 14) (size 15 to 20)
#    0.000    2.333    0.000    1.500    7.000    2.667 
#    3.000    6.667    0.000    0.000    0.000    0.000 
#    0.000    0.000    0.000    0.000    0.000    0.000 
#
# Total GULP energy -133970.542039 kJ/mol
# GULP energy per Si atom -5582.105918 kJ/mol
# Density = 2.236334 g / cm^3
# Si number density = 22.414353 Si / 1000 Ang^3
#
#
#
# Elastic Constant Matrix: (Units=GPa)
#
#
# Indices 1 2 3 4 5 6 
#
# 1 35.2734 22.1263 23.7448 0.0000 4.9085 0.0000
# 2 22.1263 125.0525 57.4355 0.0000 4.7826 0.0000
# 3 23.7448 57.4355 138.8310 0.0000 31.7777 0.0000
# 4 0.0000 0.0000 0.0000 30.2158 0.0000 -19.3852
# 5 4.9085 4.7826 31.7777 0.0000 35.8032 0.0000
# 6 0.0000 0.0000 0.0000 -19.3852 0.0000 -15.3548
#
#
#
# Elastic Compliance Matrix: (Units=1/GPa)
#
#
# Indices 1 2 3 4 5 6 
#
# 1 0.033659 -0.004137 -0.003910 0.000000 -0.000592 0.000000
# 2 -0.004137 0.010626 -0.004384 0.000000 0.003039 0.000000
# 3 -0.003910 -0.004384 0.011833 0.000000 -0.009381 0.000000
# 4 0.000000 0.000000 0.000000 0.018285 0.000000 -0.023085
# 5 -0.000592 0.003039 -0.009381 0.000000 0.035932 0.000000
# 6 0.000000 0.000000 0.000000 -0.023085 0.000000 -0.035982
#
#
# Mechanical properties :
#
#
# Convention : Reuss Voigt Hill
#
# Bulk Modulus (GPa) = 31.99404 56.19669 44.09537
# Shear Modulus (GPa) = 45.60650 23.18951 34.39800
#
# Velocity S-wave (km/s) = 4.51566 3.21998 3.92170
# Velocity P-wave (km/s) = 6.44152 6.24104 6.34207
#
# Compressibility (1/GPa) = 0.03125582
#
# Stress axis : x y z
#
# Youngs Moduli (GPa) = 29.70931 94.10892 84.51213
#
# Poissons Ratio (x) = 0.38934 0.33044
# Poissons Ratio (y) = 0.12291 0.37051
# Poissons Ratio (z) = 0.11616 0.41258
#
# Static dielectric constant tensor:
#      x y z
#    x 1.931350 0.000000 -0.058610 
#    y 0.000000 1.830980 0.000000 
#    z -0.058610 0.000000 1.886250 
# 
# From -- ./inp_files/135518.got.cif
#   From: 2010.05.17/outbox.cif.g08.bks.cpg/sg15_68_cif.got.tgz:135518.got - 2010.06.03 18:47:42.
