data_PCOD9271843
_publ_section_title
;
Structure prediction by ZEFSAII (Michael W. Deem and Ramdas Pophale) SiO2 
 PCOD9271843
Probable space group: C 2/C
;
_chemical_formula_sum "Si O2"
_cell_formula_units_Z 52
_cell_length_a 11.349779
_cell_length_b 17.685235
_cell_length_c 18.838687
_cell_angle_alpha 90.000000
_cell_angle_beta 143.793160
_cell_angle_gamma 90.000000
_cell_volume 2233.661255
_symmetry_space_group_name_H-M "C 2/C"
_symmetry_group_IT_number 15
_symmetry_cell_setting 'monoclinic'
loop_
_space_group_symop_operation_xyz
x,y,z
-x,y,1/2-z
-x,-y,-z
x,-y,1/2+z
1/2+x,1/2+y,z
1/2-x,1/2+y,1/2-z
1/2-x,1/2-y,-z
1/2+x,1/2-y,1/2+z
loop_
_atom_site_type_symbol
_atom_site_label
_atom_site_fract_x
_atom_site_fract_y
_atom_site_fract_z
Si Si1 0.523813 0.369090 0.388027
Si Si2 0.782223 0.727791 0.284300
Si Si3 0.488970 0.528522 0.074508
Si Si4 0.349854 0.943997 0.998602
Si Si5 0.000000 0.144849 0.250000
Si Si6 0.778444 0.637498 0.155671
Si Si7 0.110890 0.379189 0.020022
O O1 0.346050 0.314261 0.322060
O O2 0.467377 0.457055 0.354931
O O3 0.668495 0.362465 0.527516
O O4 0.667445 0.351718 0.391493
O O5 0.587435 0.699899 0.231583
O O6 0.779346 0.715622 0.198119
O O7 0.961116 0.676656 0.405428
O O8 0.269865 0.560675 0.985501
O O9 0.664171 0.588332 0.159471
O O10 0.500000 0.500000 0.000000
O O11 0.174953 0.910538 0.862351
O O12 0.535344 0.892539 0.064003
O O13 0.398665 0.033120 0.013085
O O14 0.000000 0.609410 0.250000
#
# Coordination Sequence:
#
# PCOD9271843 Si02
#       7
#     8   8   8   8   4   8   8
#     4  10  21  38  61  88 123 157 197 260 310 367
#     4  11  21  38  61  85 124 160 202 252 321 368
#     4   9  19  37  60  84 116 155 204 255 297 359
#     4   9  17  33  56  87 113 150 204 242 303 353
#     4  10  20  36  62  82 120 162 206 252 306 378
#     4  11  21  36  62  87 113 160 210 243 305 379
#     4   9  18  32  57  84 115 152 191 248 302 359
#
# _framework density 23.280163000000002
#
# number of rings (size 3 to 8) (size 9 to 14) (size 15 to 20)
#    0.000    2.154    3.077    0.462    0.000    0.000 
#    1.385    3.846    3.385    0.000    0.000    0.000 
#    0.000    0.000    0.000    0.000    0.000    0.000 
#
# Total GULP energy -144968.783810 kJ/mol
# GULP energy per Si atom -5575.722454 kJ/mol
# Density = 2.322718 g / cm^3
# Si number density = 23.280163 Si / 1000 Ang^3
#
#
#
# Elastic Constant Matrix: (Units=GPa)
#
#
# Indices 1 2 3 4 5 6 
#
# 1 173.3074 32.0424 9.3554 0.0001 8.8604 0.0000
# 2 32.0424 71.1604 16.8459 0.0000 6.2554 0.0000
# 3 9.3554 16.8459 48.5036 0.0013 -0.5338 0.0001
# 4 0.0001 0.0000 0.0013 14.9626 0.0001 5.1437
# 5 8.8604 6.2554 -0.5338 0.0001 16.3175 0.0000
# 6 0.0000 0.0000 0.0001 5.1437 0.0000 36.2724
#
#
#
# Elastic Compliance Matrix: (Units=1/GPa)
#
#
# Indices 1 2 3 4 5 6 
#
# 1 0.006393 -0.002572 -0.000367 0.000000 -0.002497 0.000000
# 2 -0.002572 0.016967 -0.005455 0.000001 -0.005286 0.000000
# 3 -0.000367 -0.005455 0.022616 -0.000002 0.003030 0.000000
# 4 0.000000 0.000001 -0.000002 0.070258 -0.000001 -0.009963
# 5 -0.002497 -0.005286 0.003030 -0.000001 0.064766 0.000000
# 6 0.000000 0.000000 0.000000 -0.009963 0.000000 0.028982
#
#
# Mechanical properties :
#
#
# Convention : Reuss Voigt Hill
#
# Bulk Modulus (GPa) = 34.26161 45.49542 39.87852
# Shear Modulus (GPa) = 21.14168 29.15901 25.15034
#
# Velocity S-wave (km/s) = 3.01681 3.54294 3.29041
# Velocity P-wave (km/s) = 5.18497 6.02674 5.62163
#
# Compressibility (1/GPa) = 0.02918719
#
# Stress axis : x y z
#
# Youngs Moduli (GPa) = 156.41660 58.93782 44.21698
#
# Poissons Ratio (x) = 0.15160 0.01624
# Poissons Ratio (y) = 0.40235 0.24120
# Poissons Ratio (z) = 0.05744 0.32150
#
# Static dielectric constant tensor:
#      x y z
#    x 1.932210 0.000000 0.004540 
#    y 0.000000 1.975420 0.000000 
#    z 0.004540 0.000000 1.926180 
# 
# From -- ./inp_files/239861.got.cif
#   From: 2010.05.17/outbox.cif.g08.bks.cpg/sg15_120_cif.got.tgz:239861.got - 2010.06.03 18:47:42.
