data_PCOD9271385
_publ_section_title
;
Structure prediction by ZEFSAII (Michael W. Deem and Ramdas Pophale) SiO2 
 PCOD9271385
Probable space group: C 2/C
;
_chemical_formula_sum "Si O2"
_cell_formula_units_Z 56
_cell_length_a 17.220214
_cell_length_b 8.058690
_cell_length_c 17.240543
_cell_angle_alpha 90.000000
_cell_angle_beta 72.080288
_cell_angle_gamma 90.000000
_cell_volume 2276.446905
_symmetry_space_group_name_H-M "C 2/C"
_symmetry_group_IT_number 15
_symmetry_cell_setting 'monoclinic'
loop_
_space_group_symop_operation_xyz
x,y,z
-x,y,1/2-z
-x,-y,-z
x,-y,1/2+z
1/2+x,1/2+y,z
1/2-x,1/2+y,1/2-z
1/2-x,1/2-y,-z
1/2+x,1/2-y,1/2+z
loop_
_atom_site_type_symbol
_atom_site_label
_atom_site_fract_x
_atom_site_fract_y
_atom_site_fract_z
Si Si1 0.076464 0.680568 0.469046
Si Si2 0.232838 0.719761 0.214598
Si Si3 0.256646 0.626770 0.632169
Si Si4 0.989592 0.936169 0.913236
Si Si5 0.666529 0.037771 0.041497
Si Si6 0.171536 0.896347 0.096601
Si Si7 0.052136 0.230681 0.812295
O O1 0.160326 0.792380 0.428614
O O2 0.022997 0.746373 0.558345
O O3 0.112207 0.507052 0.485376
O O4 0.030422 0.685604 0.401386
O O5 0.270040 0.563557 0.158064
O O6 0.271509 0.771776 0.283612
O O7 0.219599 0.879463 0.162735
O O8 0.138765 0.687915 0.266343
O O9 0.180870 0.612750 0.596608
O O10 0.906327 0.992745 0.896023
O O11 0.053951 0.035091 0.839327
O O12 0.000000 0.000000 0.000000
O O13 0.642932 0.207955 0.089132
O O14 0.759545 0.060397 0.985506
O O15 0.000000 0.243066 0.750000
#
# Coordination Sequence:
#
# PCOD9271385 Si02
#       7
#     8   8   8   8   8   8   8
#     4  10  21  37  61  90 116 153 204 255 289 353
#     4  10  22  35  58  88 120 158 192 245 305 365
#     4  10  21  36  56  92 120 149 192 247 310 354
#     4  10  20  36  59  84 114 159 205 240 276 353
#     4  10  21  37  60  92 120 152 195 251 314 343
#     4  10  20  36  60  88 122 156 195 248 301 364
#     4  10  20  38  57  82 116 163 201 230 294 356
#
# _framework density 24.599737999999999
#
# number of rings (size 3 to 8) (size 9 to 14) (size 15 to 20)
#    0.000    2.000    2.857    0.429    4.000    0.000 
#    0.000    2.857    0.000    3.429    0.000    0.000 
#    0.000    0.000    0.000    0.000    0.000    0.000 
#
# Total GULP energy -156016.795192 kJ/mol
# GULP energy per Si atom -5572.028400 kJ/mol
# Density = 2.454375 g / cm^3
# Si number density = 24.599738 Si / 1000 Ang^3
#
#
#
# Elastic Constant Matrix: (Units=GPa)
#
#
# Indices 1 2 3 4 5 6 
#
# 1 65.4285 25.7723 30.9382 0.0000 12.1076 0.0000
# 2 25.7723 56.2702 37.5306 0.0000 11.3261 0.0000
# 3 30.9382 37.5306 103.4635 0.0000 25.6665 0.0000
# 4 0.0000 0.0000 0.0000 39.0544 0.0000 1.8846
# 5 12.1076 11.3261 25.6665 0.0000 35.3431 0.0000
# 6 0.0000 0.0000 0.0000 1.8846 0.0000 28.3652
#
#
#
# Elastic Compliance Matrix: (Units=1/GPa)
#
#
# Indices 1 2 3 4 5 6 
#
# 1 0.019713 -0.006603 -0.002865 0.000000 -0.002556 0.000000
# 2 -0.006603 0.025732 -0.007166 0.000000 -0.000780 0.000000
# 3 -0.002865 -0.007166 0.015013 0.000000 -0.007625 0.000000
# 4 0.000000 0.000000 0.000000 0.025688 0.000000 -0.001707
# 5 -0.002556 -0.000780 -0.007625 0.000000 0.034957 0.000000
# 6 0.000000 0.000000 0.000000 -0.001707 0.000000 0.035368
#
#
# Mechanical properties :
#
#
# Convention : Reuss Voigt Hill
#
# Bulk Modulus (GPa) = 36.77969 45.96049 41.37009
# Shear Modulus (GPa) = 25.15062 29.28062 27.21562
#
# Velocity S-wave (km/s) = 3.20096 3.45379 3.32977
# Velocity P-wave (km/s) = 5.35212 5.88462 5.62468
#
# Compressibility (1/GPa) = 0.02718892
#
# Stress axis : x y z
#
# Youngs Moduli (GPa) = 50.72871 38.86164 66.60909
#
# Poissons Ratio (x) = 0.25660 0.19085
# Poissons Ratio (y) = 0.33496 0.47734
# Poissons Ratio (z) = 0.14535 0.27849
#
# Static dielectric constant tensor:
#      x y z
#    x 2.000550 0.000000 -0.013680 
#    y 0.000000 2.077860 0.000000 
#    z -0.013680 0.000000 2.024190 
# 
# From -- ./inp_files/213382.got.cif
#   From: 2010.05.17/outbox.cif.g08.bks.cpg/sg15_107_cif.got.tgz:213382.got - 2010.06.03 18:47:42.
