data_PCOD9271445
_publ_section_title
;
Structure prediction by ZEFSAII (Michael W. Deem and Ramdas Pophale) SiO2 
 PCOD9271445
Probable space group: C 2/C
;
_chemical_formula_sum "Si O2"
_cell_formula_units_Z 44
_cell_length_a 25.981299
_cell_length_b 17.196671
_cell_length_c 14.761649
_cell_angle_alpha 90.000000
_cell_angle_beta 162.568110
_cell_angle_gamma 90.000000
_cell_volume 1975.791611
_symmetry_space_group_name_H-M "C 2/C"
_symmetry_group_IT_number 15
_symmetry_cell_setting 'monoclinic'
loop_
_space_group_symop_operation_xyz
x,y,z
-x,y,1/2-z
-x,-y,-z
x,-y,1/2+z
1/2+x,1/2+y,z
1/2-x,1/2+y,1/2-z
1/2-x,1/2-y,-z
1/2+x,1/2-y,1/2+z
loop_
_atom_site_type_symbol
_atom_site_label
_atom_site_fract_x
_atom_site_fract_y
_atom_site_fract_z
Si Si1 0.129086 0.377729 0.174689
Si Si2 0.621503 0.486310 0.615964
Si Si3 0.358956 0.626017 0.655151
Si Si4 0.115442 0.708698 0.360221
Si Si5 0.107118 0.504255 0.786726
Si Si6 0.500000 0.597257 0.250000
O O1 0.100503 0.412240 0.227272
O O2 0.328221 0.358981 0.493741
O O3 0.004719 0.310302 0.929143
O O4 0.064479 0.453118 0.007215
O O5 0.500000 0.500000 0.500000
O O6 0.553702 0.401634 0.473207
O O7 0.567576 0.544558 0.446684
O O8 0.808761 0.489818 0.973695
O O9 0.287723 0.659211 0.632048
O O10 0.338183 0.700918 0.557412
O O11 0.236730 0.550238 0.441595
O O12 0.000000 0.684245 0.250000
#
# Coordination Sequence:
#
# PCOD9271445 Si02
#       6
#     8   8   8   8   8   4
#     4  10  21  34  56  91 110 155 189 250 286 357
#     4  10  20  36  59  88 115 152 190 256 287 348
#     4   9  19  38  55  83 114 160 195 240 294 361
#     4  10  22  34  58  84 119 156 200 240 295 368
#     4   9  19  39  60  80 124 144 198 246 302 331
#     4  12  22  32  64  88 114 154 200 240 306 346
#
# _framework density 22.269555
#
# number of rings (size 3 to 8) (size 9 to 14) (size 15 to 20)
#    0.000    2.182    3.636    0.000    8.909    0.000 
#    0.000    0.909    0.000    4.364    0.000    0.000 
#    0.000    0.000    0.000    0.000    0.000    0.000 
#
# Total GULP energy -122468.603298 kJ/mol
# GULP energy per Si atom -5566.754695 kJ/mol
# Density = 2.221887 g / cm^3
# Si number density = 22.269555 Si / 1000 Ang^3
#
#
#
# Elastic Constant Matrix: (Units=GPa)
#
#
# Indices 1 2 3 4 5 6 
#
# 1 50.1396 -5.5942 8.3186 0.0000 -8.2110 0.0000
# 2 -5.5942 46.7088 7.0230 0.0000 -2.9507 0.0000
# 3 8.3186 7.0230 117.2162 0.0000 -3.2936 0.0000
# 4 0.0000 0.0000 0.0000 19.3674 0.0000 0.6593
# 5 -8.2110 -2.9507 -3.2936 0.0000 41.2222 0.0000
# 6 0.0000 0.0000 0.0000 0.6593 0.0000 7.9670
#
#
#
# Elastic Compliance Matrix: (Units=1/GPa)
#
#
# Indices 1 2 3 4 5 6 
#
# 1 0.021254 0.003055 -0.001570 0.000000 0.004327 0.000000
# 2 0.003055 0.022129 -0.001484 0.000000 0.002074 0.000000
# 3 -0.001570 -0.001484 0.008739 0.000000 0.000279 0.000000
# 4 0.000000 0.000000 0.000000 0.051779 0.000000 -0.004285
# 5 0.004327 0.002074 0.000279 0.000000 0.025291 0.000000
# 6 0.000000 0.000000 0.000000 -0.004285 0.000000 0.125873
#
#
# Mechanical properties :
#
#
# Convention : Reuss Voigt Hill
#
# Bulk Modulus (GPa) = 19.18490 25.95105 22.56797
# Shear Modulus (GPa) = 18.35267 27.33245 22.84256
#
# Velocity S-wave (km/s) = 2.87385 3.50715 3.20618
# Velocity P-wave (km/s) = 4.43234 5.29892 4.88488
#
# Compressibility (1/GPa) = 0.05212432
#
# Stress axis : x y z
#
# Youngs Moduli (GPa) = 47.04959 45.18891 114.42382
#
# Poissons Ratio (x) = -0.13805 0.17962
# Poissons Ratio (y) = -0.14373 0.16985
# Poissons Ratio (z) = 0.07386 0.06708
#
# Static dielectric constant tensor:
#      x y z
#    x 1.892740 0.000000 0.018040 
#    y 0.000000 1.857950 0.000000 
#    z 0.018040 0.000000 1.963880 
# 
# From -- ./inp_files/178811.got.cif
#   From: 2010.05.17/outbox.cif.g08.bks.cpg/sg15_90_cif.got.tgz:178811.got - 2010.06.03 18:47:42.
