data_PCOD9271863
_publ_section_title
;
Structure prediction by ZEFSAII (Michael W. Deem and Ramdas Pophale) SiO2 
 PCOD9271863
Probable space group: C 2/C
;
_chemical_formula_sum "Si O2"
_cell_formula_units_Z 48
_cell_length_a 18.702908
_cell_length_b 10.610933
_cell_length_c 10.380815
_cell_angle_alpha 90.000000
_cell_angle_beta 92.502738
_cell_angle_gamma 90.000000
_cell_volume 2058.162712
_symmetry_space_group_name_H-M "C 2/C"
_symmetry_group_IT_number 15
_symmetry_cell_setting 'monoclinic'
loop_
_space_group_symop_operation_xyz
x,y,z
-x,y,1/2-z
-x,-y,-z
x,-y,1/2+z
1/2+x,1/2+y,z
1/2-x,1/2+y,1/2-z
1/2-x,1/2-y,-z
1/2+x,1/2-y,1/2+z
loop_
_atom_site_type_symbol
_atom_site_label
_atom_site_fract_x
_atom_site_fract_y
_atom_site_fract_z
Si Si1 0.539299 0.821104 0.381363
Si Si2 0.310372 0.399892 0.891150
Si Si3 0.551058 0.114468 0.370157
Si Si4 0.655201 0.655536 0.531877
Si Si5 0.288412 0.892113 0.854919
Si Si6 0.324087 0.141201 0.959254
O O1 0.500000 0.774232 0.250000
O O2 0.488557 0.846548 0.500781
O O3 0.599713 0.724438 0.433665
O O4 0.563227 0.964563 0.352817
O O5 0.363391 0.515822 0.918386
O O6 0.256512 0.433043 0.772214
O O7 0.339146 0.259343 0.868627
O O8 0.259521 0.374295 0.011417
O O9 0.500000 0.157830 0.250000
O O10 0.630354 0.163345 0.407989
O O11 0.671367 0.758474 0.643372
O O12 0.729117 0.629320 0.461789
O O13 0.341348 0.005419 0.898821
#
# Coordination Sequence:
#
# PCOD9271863 Si02
#       6
#     8   8   8   8   8   8
#     4  10  22  39  63  89 119 162 207 251 296 359
#     4  10  22  36  60  87 123 156 191 254 308 357
#     4  10  22  39  61  91 120 163 204 251 298 359
#     4  10  21  38  56  93 118 153 207 244 305 361
#     4  10  20  36  62  86 118 160 194 255 301 355
#     4  10  21  38  57  90 117 155 203 242 304 361
#
# _framework density 23.321771999999999
#
# number of rings (size 3 to 8) (size 9 to 14) (size 15 to 20)
#    0.000    2.000    1.667    1.000    4.667    1.333 
#    0.000    1.667    0.000    0.000    0.000    0.000 
#    0.000    0.000    0.000    0.000    0.000    0.000 
#
# Total GULP energy -133881.891284 kJ/mol
# GULP energy per Si atom -5578.412137 kJ/mol
# Density = 2.326869 g / cm^3
# Si number density = 23.321772 Si / 1000 Ang^3
#
#
#
# Elastic Constant Matrix: (Units=GPa)
#
#
# Indices 1 2 3 4 5 6 
#
# 1 54.4142 31.5221 26.6469 0.0000 13.7920 0.0000
# 2 31.5221 164.4452 47.4601 0.0000 19.2942 0.0000
# 3 26.6469 47.4601 129.8617 0.0000 29.4980 0.0000
# 4 0.0000 0.0000 0.0000 17.7484 0.0000 15.8285
# 5 13.7920 19.2942 29.4980 0.0000 45.2110 0.0000
# 6 0.0000 0.0000 0.0000 15.8285 0.0000 16.5857
#
#
#
# Elastic Compliance Matrix: (Units=1/GPa)
#
#
# Indices 1 2 3 4 5 6 
#
# 1 0.022413 -0.003098 -0.002599 0.000000 -0.003819 0.000000
# 2 -0.003098 0.007314 -0.001812 0.000000 -0.000994 0.000000
# 3 -0.002599 -0.001812 0.010026 0.000000 -0.004975 0.000000
# 4 0.000000 0.000000 0.000000 0.378420 0.000000 -0.361144
# 5 -0.003819 -0.000994 -0.004975 0.000000 0.026954 0.000000
# 6 0.000000 0.000000 0.000000 -0.361144 0.000000 0.404949
#
#
# Mechanical properties :
#
#
# Convention : Reuss Voigt Hill
#
# Bulk Modulus (GPa) = 40.42702 62.21991 51.32347
# Shear Modulus (GPa) = 5.72515 32.11515 18.92015
#
# Velocity S-wave (km/s) = 1.56850 3.71488 2.85136
# Velocity P-wave (km/s) = 4.54448 6.71843 5.73540
#
# Compressibility (1/GPa) = 0.02473593
#
# Stress axis : x y z
#
# Youngs Moduli (GPa) = 44.61657 136.71614 99.73950
#
# Poissons Ratio (x) = 0.42355 0.25925
# Poissons Ratio (y) = 0.13822 0.18069
# Poissons Ratio (z) = 0.11597 0.24767
#
# Static dielectric constant tensor:
#      x y z
#    x 1.927340 0.000000 -0.056260 
#    y 0.000000 1.971680 0.000000 
#    z -0.056260 0.000000 1.901100 
# 
# From -- ./inp_files/110686.got.cif
#   From: 2010.05.17/outbox.cif.g08.bks.cpg/sg15_56_cif.got.tgz:110686.got - 2010.06.03 18:47:42.
