data_PCOD9271462
_publ_section_title
;
Structure prediction by ZEFSAII (Michael W. Deem and Ramdas Pophale) SiO2 
 PCOD9271462
Probable space group: C 2/C
;
_chemical_formula_sum "Si O2"
_cell_formula_units_Z 48
_cell_length_a 15.324732
_cell_length_b 17.459087
_cell_length_c 8.887012
_cell_angle_alpha 90.000000
_cell_angle_beta 93.156910
_cell_angle_gamma 90.000000
_cell_volume 2374.163509
_symmetry_space_group_name_H-M "C 2/C"
_symmetry_group_IT_number 15
_symmetry_cell_setting 'monoclinic'
loop_
_space_group_symop_operation_xyz
x,y,z
-x,y,1/2-z
-x,-y,-z
x,-y,1/2+z
1/2+x,1/2+y,z
1/2-x,1/2+y,1/2-z
1/2-x,1/2-y,-z
1/2+x,1/2-y,1/2+z
loop_
_atom_site_type_symbol
_atom_site_label
_atom_site_fract_x
_atom_site_fract_y
_atom_site_fract_z
Si Si1 0.699805 0.459831 0.959128
Si Si2 0.976327 0.097912 0.915265
Si Si3 0.142422 0.914356 0.629051
Si Si4 0.812278 0.679945 0.562234
Si Si5 0.670432 0.763163 0.107596
Si Si6 0.506142 0.218290 0.078173
O O1 0.667605 0.454227 0.786088
O O2 0.620147 0.425603 0.049340
O O3 0.707856 0.547672 0.012994
O O4 0.777540 0.401411 0.999228
O O5 0.982495 0.189811 0.913233
O O6 0.000000 0.070969 0.750000
O O7 0.046819 0.072955 0.047490
O O8 0.149464 0.823931 0.657511
O O9 0.750000 0.750000 0.500000
O O10 0.809716 0.687514 0.742743
O O11 0.909672 0.690341 0.505885
O O12 0.750000 0.750000 0.000000
O O13 0.585399 0.795267 0.014591
O O14 0.500000 0.189908 0.250000
#
# Coordination Sequence:
#
# PCOD9271462 Si02
#       6
#     8   8   8   8   8   8
#     4  12  24  38  61  88 132 166 208 253 316 386
#     4  10  20  36  59  88 129 167 204 251 313 380
#     4  11  24  38  57  89 126 169 206 255 315 370
#     4  12  22  40  63  94 127 167 208 256 313 374
#     4  11  24  40  67  93 123 160 214 265 315 367
#     4  10  21  38  63  94 126 160 210 262 312 366
#
# _framework density 20.217648000000001
#
# number of rings (size 3 to 8) (size 9 to 14) (size 15 to 20)
#    0.000    1.000    3.333    3.500    7.000    2.667 
#    0.000    0.000    0.000    1.000    0.000    0.000 
#    0.000    0.000    0.000    0.000    0.000    0.000 
#
# Total GULP energy -134108.084275 kJ/mol
# GULP energy per Si atom -5587.836845 kJ/mol
# Density = 2.017163 g / cm^3
# Si number density = 20.217648 Si / 1000 Ang^3
#
#
#
# Elastic Constant Matrix: (Units=GPa)
#
#
# Indices 1 2 3 4 5 6 
#
# 1 128.0903 5.7100 52.5542 0.0000 -2.4234 0.0000
# 2 5.7100 35.4162 9.5774 0.0000 17.3362 0.0000
# 3 52.5542 9.5774 159.5814 0.0000 8.4724 0.0000
# 4 0.0000 0.0000 0.0000 22.3386 0.0000 -2.8596
# 5 -2.4234 17.3362 8.4724 0.0000 31.8071 0.0000
# 6 0.0000 0.0000 0.0000 -2.8596 0.0000 31.2158
#
#
#
# Elastic Compliance Matrix: (Units=1/GPa)
#
#
# Indices 1 2 3 4 5 6 
#
# 1 0.009191 -0.001906 -0.003048 0.000000 0.002551 0.000000
# 2 -0.001906 0.039139 -0.000589 0.000000 -0.021320 0.000000
# 3 -0.003048 -0.000589 0.007405 0.000000 -0.001884 0.000000
# 4 0.000000 0.000000 0.000000 0.045297 0.000000 0.004150
# 5 0.002551 -0.021320 -0.001884 0.000000 0.043756 0.000000
# 6 0.000000 0.000000 0.000000 0.004150 0.000000 0.032415
#
#
# Mechanical properties :
#
#
# Convention : Reuss Voigt Hill
#
# Bulk Modulus (GPa) = 22.39730 50.97458 36.68594
# Shear Modulus (GPa) = 24.60963 34.08871 29.34917
#
# Velocity S-wave (km/s) = 3.49267 4.11065 3.81420
# Velocity P-wave (km/s) = 5.23137 6.91358 6.13045
#
# Compressibility (1/GPa) = 0.04464823
#
# Stress axis : x y z
#
# Youngs Moduli (GPa) = 108.80553 25.55015 135.03544
#
# Poissons Ratio (x) = 0.04871 0.41156
# Poissons Ratio (y) = 0.20742 0.07956
# Poissons Ratio (z) = 0.33161 0.01505
#
# Static dielectric constant tensor:
#      x y z
#    x 1.707560 0.000000 -0.007080 
#    y 0.000000 1.814900 0.000000 
#    z -0.007080 0.000000 1.731500 
# 
# From -- ./inp_files/39622.got.cif
#   From: 2010.05.17/outbox.cif.g08.bks.cpg/sg15_20_cif.got.tgz:39622.got - 2010.06.03 18:47:42.
