data_PCOD9271178
_publ_section_title
;
Structure prediction by ZEFSAII (Michael W. Deem and Ramdas Pophale) SiO2 
 PCOD9271178
Probable space group: C 2/C
;
_chemical_formula_sum "Si O2"
_cell_formula_units_Z 48
_cell_length_a 10.310287
_cell_length_b 16.631950
_cell_length_c 14.291426
_cell_angle_alpha 90.000000
_cell_angle_beta 87.179526
_cell_angle_gamma 90.000000
_cell_volume 2447.727542
_symmetry_space_group_name_H-M "C 2/C"
_symmetry_group_IT_number 15
_symmetry_cell_setting 'monoclinic'
loop_
_space_group_symop_operation_xyz
x,y,z
-x,y,1/2-z
-x,-y,-z
x,-y,1/2+z
1/2+x,1/2+y,z
1/2-x,1/2+y,1/2-z
1/2-x,1/2-y,-z
1/2+x,1/2-y,1/2+z
loop_
_atom_site_type_symbol
_atom_site_label
_atom_site_fract_x
_atom_site_fract_y
_atom_site_fract_z
Si Si1 0.963229 0.195530 0.088123
Si Si2 0.547337 0.850454 0.521108
Si Si3 0.114464 0.607249 0.313403
Si Si4 0.610251 0.551688 0.170434
Si Si5 0.800000 0.739397 0.314035
Si Si6 0.311422 0.393882 0.425988
O O1 0.851414 0.216774 0.167752
O O2 0.070030 0.135621 0.123900
O O3 0.007176 0.280342 0.043474
O O4 0.888276 0.148983 0.007457
O O5 0.434839 0.897641 0.578713
O O6 0.624918 0.806627 0.604000
O O7 0.660093 0.897767 0.462287
O O8 0.247581 0.561609 0.290372
O O9 0.143902 0.700022 0.281717
O O10 0.000000 0.577547 0.250000
O O11 0.500000 0.533795 0.250000
O O12 0.625151 0.478543 0.098529
O O13 0.817340 0.833048 0.336866
#
# Coordination Sequence:
#
# PCOD9271178 Si02
#       6
#     8   8   8   8   8   8
#     4   9  17  35  55  82 109 138 186 235 281 324
#     4   8  17  33  59  76 103 150 186 219 267 342
#     4  10  20  36  58  77 108 152 192 218 275 345
#     4  12  23  33  55  86 116 143 180 244 291 318
#     4   8  15  34  58  78 105 147 186 217 266 338
#     4   9  19  34  56  83 112 144 183 231 282 334
#
# _framework density 19.610025
#
# number of rings (size 3 to 8) (size 9 to 14) (size 15 to 20)
#    0.000    2.667    1.667    2.500    0.000    4.667 
#    0.000    0.000    7.333    0.000    0.000    0.000 
#    0.000    0.000    0.000    0.000    0.000    0.000 
#
# Total GULP energy -133763.577646 kJ/mol
# GULP energy per Si atom -5573.482402 kJ/mol
# Density = 1.956539 g / cm^3
# Si number density = 19.610025 Si / 1000 Ang^3
#
#
#
# Elastic Constant Matrix: (Units=GPa)
#
#
# Indices 1 2 3 4 5 6 
#
# 1 100.8895 25.6308 21.8177 0.0000 -11.5702 0.0000
# 2 25.6308 37.7176 11.1934 0.0000 -2.0687 0.0000
# 3 21.8177 11.1934 43.9944 0.0000 -17.2785 0.0000
# 4 0.0000 0.0000 0.0000 14.1676 0.0000 6.3256
# 5 -11.5702 -2.0687 -17.2785 0.0000 27.5971 0.0000
# 6 0.0000 0.0000 0.0000 6.3256 0.0000 14.4549
#
#
#
# Elastic Compliance Matrix: (Units=1/GPa)
#
#
# Indices 1 2 3 4 5 6 
#
# 1 0.012888 -0.007602 -0.003393 0.000000 0.002709 0.000000
# 2 -0.007602 0.033378 -0.006619 0.000000 -0.004829 0.000000
# 3 -0.003393 -0.006619 0.033607 0.000000 0.019123 0.000000
# 4 0.000000 0.000000 0.000000 0.087724 0.000000 -0.038389
# 5 0.002709 -0.004829 0.019123 0.000000 0.048982 0.000000
# 6 0.000000 0.000000 0.000000 -0.038389 0.000000 0.085980
#
#
# Mechanical properties :
#
#
# Convention : Reuss Voigt Hill
#
# Bulk Modulus (GPa) = 22.39909 33.32057 27.85983
# Shear Modulus (GPa) = 14.17761 19.50790 16.84276
#
# Velocity S-wave (km/s) = 2.69174 3.15745 2.93385
# Velocity P-wave (km/s) = 4.59431 5.50647 5.07094
#
# Compressibility (1/GPa) = 0.04464466
#
# Stress axis : x y z
#
# Youngs Moduli (GPa) = 77.59422 29.95964 29.75547
#
# Poissons Ratio (x) = 0.22776 0.10096
# Poissons Ratio (y) = 0.58988 0.19695
# Poissons Ratio (z) = 0.26329 0.19830
#
# Static dielectric constant tensor:
#      x y z
#    x 1.715620 0.000000 -0.010550 
#    y 0.000000 1.703580 0.000000 
#    z -0.010550 0.000000 1.724530 
# 
# From -- ./inp_files/134861.got.cif
#   From: 2010.05.17/outbox.cif.g08.bks.cpg/sg15_68_cif.got.tgz:134861.got - 2010.06.03 18:47:42.
