data_PCOD9271220
_publ_section_title
;
Structure prediction by ZEFSAII (Michael W. Deem and Ramdas Pophale) SiO2 
 PCOD9271220
Probable space group: C 2/C
;
_chemical_formula_sum "Si O2"
_cell_formula_units_Z 48
_cell_length_a 17.321131
_cell_length_b 8.401054
_cell_length_c 18.225510
_cell_angle_alpha 90.000000
_cell_angle_beta 50.763501
_cell_angle_gamma 90.000000
_cell_volume 2054.161207
_symmetry_space_group_name_H-M "C 2/C"
_symmetry_group_IT_number 15
_symmetry_cell_setting 'monoclinic'
loop_
_space_group_symop_operation_xyz
x,y,z
-x,y,1/2-z
-x,-y,-z
x,-y,1/2+z
1/2+x,1/2+y,z
1/2-x,1/2+y,1/2-z
1/2-x,1/2-y,-z
1/2+x,1/2-y,1/2+z
loop_
_atom_site_type_symbol
_atom_site_label
_atom_site_fract_x
_atom_site_fract_y
_atom_site_fract_z
Si Si1 0.986551 0.247343 0.886654
Si Si2 0.164776 0.383327 0.869114
Si Si3 0.781113 0.989960 0.419788
Si Si4 0.183180 0.391636 0.232615
Si Si5 0.779967 0.142882 0.075597
Si Si6 0.000000 0.497875 0.250000
Si Si7 0.500000 0.501960 0.750000
O O1 0.070890 0.290355 0.894367
O O2 0.968759 0.388211 0.837448
O O3 0.017363 0.104019 0.814092
O O4 0.890580 0.202262 0.991575
O O5 0.186574 0.425831 0.939788
O O6 0.158471 0.548182 0.828709
O O7 0.259793 0.272455 0.796012
O O8 0.761986 0.972092 0.516845
O O9 0.785038 0.804764 0.389050
O O10 0.889011 0.065111 0.335624
O O11 0.255211 0.532563 0.158693
O O12 0.088912 0.399876 0.234584
#
# Coordination Sequence:
#
# PCOD9271220 Si02
#       7
#     8   8   8   8   8   4   4
#     4   9  18  34  57  82 111 149 186 225 277 333
#     4  11  23  38  58  84 114 146 185 234 280 325
#     4  10  20  36  59  84 111 148 188 227 275 331
#     4  11  22  38  58  83 114 147 187 232 278 330
#     4  10  20  36  58  83 113 149 186 225 277 337
#     4   9  18  35  58  82 110 150 192 226 274 340
#     4   9  16  33  58  80 108 148 188 220 272 340
#
# _framework density 23.367201000000001
#
# number of rings (size 3 to 8) (size 9 to 14) (size 15 to 20)
#    0.000    2.000    0.000    7.000    0.000    2.667 
#    0.000    1.667    0.000    0.000    0.000    0.000 
#    0.000    0.000    0.000    0.000    0.000    0.000 
#
# Total GULP energy -133907.039744 kJ/mol
# GULP energy per Si atom -5579.459989 kJ/mol
# Density = 2.331402 g / cm^3
# Si number density = 23.367201 Si / 1000 Ang^3
#
#
#
# Elastic Constant Matrix: (Units=GPa)
#
#
# Indices 1 2 3 4 5 6 
#
# 1 179.9097 12.2293 41.0779 0.0000 4.6251 0.0000
# 2 12.2293 21.9518 -9.3367 0.0000 9.2416 0.0000
# 3 41.0779 -9.3367 48.1288 0.0000 -3.3330 0.0000
# 4 0.0000 0.0000 0.0000 15.7418 0.0000 10.9092
# 5 4.6251 9.2416 -3.3330 0.0000 28.0997 0.0000
# 6 0.0000 0.0000 0.0000 10.9092 0.0000 27.8977
#
#
#
# Elastic Compliance Matrix: (Units=1/GPa)
#
#
# Indices 1 2 3 4 5 6 
#
# 1 0.008030 -0.008215 -0.008421 0.000000 0.000381 0.000000
# 2 -0.008215 0.065582 0.018486 0.000000 -0.018024 0.000000
# 3 -0.008421 0.018486 0.031484 0.000000 -0.000959 0.000000
# 4 0.000000 0.000000 0.000000 0.087139 0.000000 -0.034075
# 5 0.000381 -0.018024 -0.000959 0.000000 0.041339 0.000000
# 6 0.000000 0.000000 0.000000 -0.034075 0.000000 0.049170
#
#
# Mechanical properties :
#
#
# Convention : Reuss Voigt Hill
#
# Bulk Modulus (GPa) = 9.19152 37.54792 23.36972
# Shear Modulus (GPa) = 15.85748 28.08251 21.97000
#
# Velocity S-wave (km/s) = 2.60786 3.47045 3.06961
# Velocity P-wave (km/s) = 3.60694 5.67117 4.75248
#
# Compressibility (1/GPa) = 0.10879595
#
# Stress axis : x y z
#
# Youngs Moduli (GPa) = 124.53928 15.24812 31.76194
#
# Poissons Ratio (x) = 0.12527 0.26745
# Poissons Ratio (y) = 1.02314 -0.58715
# Poissons Ratio (z) = 1.04869 -0.28188
#
# Static dielectric constant tensor:
#      x y z
#    x 1.906330 0.000000 -0.032980 
#    y 0.000000 1.909010 0.000000 
#    z -0.032980 0.000000 1.845780 
# 
# From -- ./inp_files/208976.got.cif
#   From: 2010.05.17/outbox.cif.g08.bks.cpg/sg15_105_cif.got.tgz:208976.got - 2010.06.03 18:47:42.
