data_PCOD9271170
_publ_section_title
;
Structure prediction by ZEFSAII (Michael W. Deem and Ramdas Pophale) SiO2 
 PCOD9271170
Probable space group: C 2/C
;
_chemical_formula_sum "Si O2"
_cell_formula_units_Z 44
_cell_length_a 10.172124
_cell_length_b 25.049331
_cell_length_c 11.998643
_cell_angle_alpha 90.000000
_cell_angle_beta 38.962817
_cell_angle_gamma 90.000000
_cell_volume 1922.487106
_symmetry_space_group_name_H-M "C 2/C"
_symmetry_group_IT_number 15
_symmetry_cell_setting 'monoclinic'
loop_
_space_group_symop_operation_xyz
x,y,z
-x,y,1/2-z
-x,-y,-z
x,-y,1/2+z
1/2+x,1/2+y,z
1/2-x,1/2+y,1/2-z
1/2-x,1/2-y,-z
1/2+x,1/2-y,1/2+z
loop_
_atom_site_type_symbol
_atom_site_label
_atom_site_fract_x
_atom_site_fract_y
_atom_site_fract_z
Si Si1 0.500000 0.373085 0.750000
Si Si2 0.223333 0.043328 0.234320
Si Si3 0.756925 0.300464 0.413568
Si Si4 0.025627 0.931286 0.379626
Si Si5 0.184598 0.818572 0.219383
Si Si6 0.406210 0.890902 0.929616
O O1 0.320150 0.414671 0.833973
O O2 0.590518 0.339113 0.586607
O O3 0.452264 0.060033 0.122695
O O4 0.066748 0.057806 0.437964
O O5 0.160877 0.982425 0.255040
O O6 0.750000 0.250000 0.500000
O O7 0.702990 0.284420 0.319973
O O8 0.000000 0.320471 0.250000
O O9 0.149547 0.876540 0.299794
O O10 0.176989 0.915115 0.059150
O O11 0.000000 0.805358 0.250000
O O12 0.386032 0.836438 0.014518
O O13 0.500000 0.874172 0.750000
#
# Coordination Sequence:
#
# PCOD9271170 Si02
#       6
#     4   8   8   8   8   8
#     4  12  24  42  70  98 142 182 234 284 358 422
#     4  10  20  36  57  94 134 185 233 273 339 411
#     4  12  26  49  74 101 137 182 231 300 365 422
#     4   9  19  37  58  90 141 180 226 283 330 406
#     4  10  21  42  68  99 135 177 231 288 348 413
#     4   9  19  36  60  90 134 185 229 281 336 400
#
# _framework density 22.88702
#
# number of rings (size 3 to 8) (size 9 to 14) (size 15 to 20)
#    0.000    1.818    2.727    1.091    3.818    0.727 
#    3.273    0.909    0.000    0.000    0.000    0.000 
#    0.000    0.000    0.000    0.000    0.000    0.000 
#
# Total GULP energy -122547.623287 kJ/mol
# GULP energy per Si atom -5570.346513 kJ/mol
# Density = 2.283493 g / cm^3
# Si number density = 22.887020 Si / 1000 Ang^3
#
#
#
# Elastic Constant Matrix: (Units=GPa)
#
#
# Indices 1 2 3 4 5 6 
#
# 1 75.6418 20.5584 39.2799 0.0000 23.4504 0.0000
# 2 20.5584 58.5948 17.2475 0.0000 9.5021 0.0000
# 3 39.2799 17.2475 132.5198 0.0000 14.7484 0.0000
# 4 0.0000 0.0000 0.0000 -4.0452 0.0000 3.6118
# 5 23.4504 9.5021 14.7484 0.0000 44.4529 0.0000
# 6 0.0000 0.0000 0.0000 3.6118 0.0000 17.6076
#
#
#
# Elastic Compliance Matrix: (Units=1/GPa)
#
#
# Indices 1 2 3 4 5 6 
#
# 1 0.018922 -0.004151 -0.004212 0.000000 -0.007697 0.000000
# 2 -0.004151 0.019090 -0.001084 0.000000 -0.001531 0.000000
# 3 -0.004212 -0.001084 0.008995 0.000000 -0.000531 0.000000
# 4 0.000000 0.000000 0.000000 -0.208940 0.000000 0.042859
# 5 -0.007697 -0.001531 -0.000531 0.000000 0.027060 0.000000
# 6 0.000000 0.000000 0.000000 0.042859 0.000000 0.048002
#
#
# Mechanical properties :
#
#
# Convention : Reuss Voigt Hill
#
# Bulk Modulus (GPa) = 35.56994 46.76978 41.16986
# Shear Modulus (GPa) = -85.31276 24.24777 -30.53250
#
# Velocity S-wave (km/s) = -6.11200 3.25846 -3.65643
# Velocity P-wave (km/s) = 5.85093 5.88525 0.44873
#
# Compressibility (1/GPa) = 0.02811363
#
# Stress axis : x y z
#
# Youngs Moduli (GPa) = 52.84942 52.38322 111.17863
#
# Poissons Ratio (x) = 0.21744 0.46825
# Poissons Ratio (y) = 0.21937 0.12050
# Poissons Ratio (z) = 0.22258 0.05677
#
# Static dielectric constant tensor:
#      x y z
#    x 1.998120 0.000000 0.030640 
#    y 0.000000 1.869990 0.000000 
#    z 0.030640 0.000000 2.029390 
# 
# From -- ./inp_files/91938.got.cif
#   From: 2010.05.17/outbox.cif.g08.bks.cpg/sg15_46_cif.got.tgz:91938.got - 2010.06.03 18:47:42.
