data_PCOD9271598
_publ_section_title
;
Structure prediction by ZEFSAII (Michael W. Deem and Ramdas Pophale) SiO2 
 PCOD9271598
Probable space group: C 2/C
;
_chemical_formula_sum "Si O2"
_cell_formula_units_Z 60
_cell_length_a 17.085711
_cell_length_b 11.936048
_cell_length_c 14.888886
_cell_angle_alpha 90.000000
_cell_angle_beta 103.373009
_cell_angle_gamma 90.000000
_cell_volume 2954.046309
_symmetry_space_group_name_H-M "C 2/C"
_symmetry_group_IT_number 15
_symmetry_cell_setting 'monoclinic'
loop_
_space_group_symop_operation_xyz
x,y,z
-x,y,1/2-z
-x,-y,-z
x,-y,1/2+z
1/2+x,1/2+y,z
1/2-x,1/2+y,1/2-z
1/2-x,1/2-y,-z
1/2+x,1/2-y,1/2+z
loop_
_atom_site_type_symbol
_atom_site_label
_atom_site_fract_x
_atom_site_fract_y
_atom_site_fract_z
Si Si1 0.404091 0.875801 0.789493
Si Si2 0.510585 0.931631 0.094727
Si Si3 0.640299 0.216333 0.539792
Si Si4 0.276482 0.114757 0.112526
Si Si5 0.549522 0.432161 0.437916
Si Si6 0.500000 0.322945 0.250000
Si Si7 0.803736 0.924780 0.510621
Si Si8 0.139124 0.322361 0.519704
O O1 0.326279 0.913755 0.714308
O O2 0.428689 0.767592 0.737165
O O3 0.391708 0.832931 0.887261
O O4 0.466425 0.977514 0.824295
O O5 0.587393 0.852802 0.096371
O O6 0.426794 0.863143 0.071596
O O7 0.500000 0.000000 0.000000
O O8 0.668642 0.141356 0.461733
O O9 0.718795 0.276220 0.602593
O O10 0.584320 0.316841 0.488162
O O11 0.221529 0.007822 0.075953
O O12 0.500000 0.500000 0.500000
O O13 0.499057 0.397020 0.338199
O O14 0.625320 0.505656 0.423724
O O15 0.839042 0.805865 0.491881
O O16 0.720125 0.896370 0.537082
#
# Coordination Sequence:
#
# PCOD9271598 Si02
#       8
#     8   8   8   8   8   4   8   8
#     4  11  23  37  62  95 124 163 219 279 319 387
#     4  10  20  36  60  87 121 166 212 258 326 389
#     4  10  20  39  61  90 126 166 211 261 329 396
#     4  10  21  36  61  92 124 164 213 266 321 388
#     4  11  22  42  68  96 128 175 218 272 344 401
#     4  12  24  40  66  98 128 164 228 274 320 414
#     4  10  22  41  64  86 126 174 212 259 333 407
#     4  10  22  41  62  89 126 173 213 266 337 395
#
# _framework density 20.311124
#
# number of rings (size 3 to 8) (size 9 to 14) (size 15 to 20)
#    0.000    1.600    1.333    4.800    1.867    1.067 
#    7.200    0.000    5.867    0.000    0.000    0.000 
#    0.000    0.000    0.000    0.000    0.000    0.000 
#
# Total GULP energy -167295.990220 kJ/mol
# GULP energy per Si atom -5576.533007 kJ/mol
# Density = 2.026489 g / cm^3
# Si number density = 20.311124 Si / 1000 Ang^3
#
#
#
# Elastic Constant Matrix: (Units=GPa)
#
#
# Indices 1 2 3 4 5 6 
#
# 1 76.0866 33.1313 18.5472 0.0000 1.5149 0.0000
# 2 33.1313 106.0599 30.2303 0.0000 1.1229 0.0000
# 3 18.5472 30.2303 76.5919 0.0000 13.8555 0.0000
# 4 0.0000 0.0000 0.0000 9.0911 0.0000 2.4078
# 5 1.5149 1.1229 13.8555 0.0000 31.1278 0.0000
# 6 0.0000 0.0000 0.0000 2.4078 0.0000 45.5133
#
#
#
# Elastic Compliance Matrix: (Units=1/GPa)
#
#
# Indices 1 2 3 4 5 6 
#
# 1 0.015503 -0.004235 -0.002147 0.000000 0.000354 0.000000
# 2 -0.004235 0.011856 -0.003930 0.000000 0.001528 0.000000
# 3 -0.002147 -0.003930 0.016404 0.000000 -0.007055 0.000000
# 4 0.000000 0.000000 0.000000 0.111561 0.000000 -0.005902
# 5 0.000354 0.001528 -0.007055 0.000000 0.035194 0.000000
# 6 0.000000 0.000000 0.000000 -0.005902 0.000000 0.022284
#
#
# Mechanical properties :
#
#
# Convention : Reuss Voigt Hill
#
# Bulk Modulus (GPa) = 43.21743 46.95068 45.08406
# Shear Modulus (GPa) = 20.73511 28.93508 24.83509
#
# Velocity S-wave (km/s) = 3.19858 3.77847 3.50055
# Velocity P-wave (km/s) = 5.91313 6.49629 6.21156
#
# Compressibility (1/GPa) = 0.02313881
#
# Stress axis : x y z
#
# Youngs Moduli (GPa) = 64.50289 84.34864 60.96235
#
# Poissons Ratio (x) = 0.35720 0.13087
# Poissons Ratio (y) = 0.27316 0.23959
# Poissons Ratio (z) = 0.13847 0.33151
#
# Static dielectric constant tensor:
#      x y z
#    x 1.850410 0.000000 0.009790 
#    y 0.000000 1.734980 0.000000 
#    z 0.009790 0.000000 1.676970 
# 
# From -- ./inp_files/160969.got.cif
#   From: 2010.05.17/outbox.cif.g08.bks.cpg/sg15_81_cif.got.tgz:160969.got - 2010.06.03 18:47:42.
