data_PCOD9271615
_publ_section_title
;
Structure prediction by ZEFSAII (Michael W. Deem and Ramdas Pophale) SiO2 
 PCOD9271615
Probable space group: C 2/C
;
_chemical_formula_sum "Si O2"
_cell_formula_units_Z 64
_cell_length_a 17.129588
_cell_length_b 15.513144
_cell_length_c 13.561020
_cell_angle_alpha 90.000000
_cell_angle_beta 57.537303
_cell_angle_gamma 90.000000
_cell_volume 3040.523000
_symmetry_space_group_name_H-M "C 2/C"
_symmetry_group_IT_number 15
_symmetry_cell_setting 'monoclinic'
loop_
_space_group_symop_operation_xyz
x,y,z
-x,y,1/2-z
-x,-y,-z
x,-y,1/2+z
1/2+x,1/2+y,z
1/2-x,1/2+y,1/2-z
1/2-x,1/2-y,-z
1/2+x,1/2-y,1/2+z
loop_
_atom_site_type_symbol
_atom_site_label
_atom_site_fract_x
_atom_site_fract_y
_atom_site_fract_z
Si Si1 0.564566 0.627115 0.497198
Si Si2 0.755975 0.910845 0.726717
Si Si3 0.004088 0.696207 0.987125
Si Si4 0.794474 0.279174 0.576465
Si Si5 0.221323 0.091356 0.880027
Si Si6 0.957421 0.431896 0.675702
Si Si7 0.922811 0.375733 0.234001
Si Si8 0.541459 0.544192 0.116018
O O1 0.673127 0.630884 0.398965
O O2 0.519161 0.719160 0.540953
O O3 0.520681 0.588566 0.425973
O O4 0.541199 0.558213 0.596723
O O5 0.756074 0.857418 0.830035
O O6 0.650141 0.907420 0.762634
O O7 0.782075 0.014144 0.699021
O O8 0.084805 0.688816 0.851545
O O9 0.903840 0.698258 0.001345
O O10 0.009170 0.614179 0.052842
O O11 0.750000 0.250000 0.500000
O O12 0.793732 0.190245 0.640954
O O13 0.326965 0.095404 0.846582
O O14 0.145691 0.072089 0.015475
O O15 0.965531 0.534867 0.666071
O O16 0.000000 0.404018 0.750000
O O17 0.000000 0.335481 0.250000
O O18 0.500000 0.566334 0.250000
#
# Coordination Sequence:
#
# PCOD9271615 Si02
#       8
#     8   8   8   8   8   8   8   8
#     4  10  21  38  59  86 123 156 206 250 313 374
#     4   9  21  38  61  88 125 165 203 267 319 377
#     4  11  21  36  60  90 124 167 202 258 313 363
#     4  11  22  36  59  97 128 162 221 264 316 382
#     4  10  20  40  59  88 129 164 206 257 322 376
#     4   9  20  39  61  82 121 165 209 255 305 368
#     4  10  20  36  60  88 126 160 204 257 308 373
#     4  10  22  39  62  87 122 163 202 250 311 377
#
# _framework density 21.049009999999999
#
# number of rings (size 3 to 8) (size 9 to 14) (size 15 to 20)
#    0.000    2.000    1.250    1.875    1.750    1.000 
#    0.000    0.625    5.500    0.000    0.000    0.000 
#    0.000    0.000    0.000    0.000    0.000    0.000 
#
# Total GULP energy -178271.756608 kJ/mol
# GULP energy per Si atom -5570.992394 kJ/mol
# Density = 2.100110 g / cm^3
# Si number density = 21.049010 Si / 1000 Ang^3
#
#
#
# Elastic Constant Matrix: (Units=GPa)
#
#
# Indices 1 2 3 4 5 6 
#
# 1 42.2830 -1.0335 28.1281 0.0000 6.7059 0.0000
# 2 -1.0335 75.4290 31.6866 0.0000 8.5479 0.0000
# 3 28.1281 31.6866 96.2424 0.0000 -7.3319 0.0000
# 4 0.0000 0.0000 0.0000 26.0388 0.0000 -1.2741
# 5 6.7059 8.5479 -7.3319 0.0000 24.1917 0.0000
# 6 0.0000 0.0000 0.0000 -1.2741 0.0000 26.4129
#
#
#
# Elastic Compliance Matrix: (Units=1/GPa)
#
#
# Indices 1 2 3 4 5 6 
#
# 1 0.036645 0.008807 -0.014966 0.000000 -0.017806 0.000000
# 2 0.008807 0.018808 -0.009682 0.000000 -0.012021 0.000000
# 3 -0.014966 -0.009682 0.018967 0.000000 0.013318 0.000000
# 4 0.000000 0.000000 0.000000 0.038495 0.000000 0.001857
# 5 -0.017806 -0.012021 0.013318 0.000000 0.054556 0.000000
# 6 0.000000 0.000000 0.000000 0.001857 0.000000 0.037950
#
#
# Mechanical properties :
#
#
# Convention : Reuss Voigt Hill
#
# Bulk Modulus (GPa) = 23.39861 36.83520 30.11691
# Shear Modulus (GPa) = 19.89264 25.67353 22.78309
#
# Velocity S-wave (km/s) = 3.07752 3.49621 3.29353
# Velocity P-wave (km/s) = 4.87530 5.81685 5.36676
#
# Compressibility (1/GPa) = 0.04273758
#
# Stress axis : x y z
#
# Youngs Moduli (GPa) = 27.28855 53.16972 52.72385
#
# Poissons Ratio (x) = -0.46827 0.78907
# Poissons Ratio (y) = -0.24033 0.51047
# Poissons Ratio (z) = 0.40841 0.51479
#
# Static dielectric constant tensor:
#      x y z
#    x 1.783320 0.000000 -0.017660 
#    y 0.000000 1.795270 0.000000 
#    z -0.017660 0.000000 1.801470 
# 
# From -- ./inp_files/162264.got.cif
#   From: 2010.05.17/outbox.cif.g08.bks.cpg/sg15_82_cif.got.tgz:162264.got - 2010.06.03 18:47:42.
