data_PCOD9271658
_publ_section_title
;
Structure prediction by ZEFSAII (Michael W. Deem and Ramdas Pophale) SiO2 
 PCOD9271658
Probable space group: C 2/C
;
_chemical_formula_sum "Si O2"
_cell_formula_units_Z 60
_cell_length_a 16.335313
_cell_length_b 14.212396
_cell_length_c 21.806832
_cell_angle_alpha 90.000000
_cell_angle_beta 141.039679
_cell_angle_gamma 90.000000
_cell_volume 3183.372564
_symmetry_space_group_name_H-M "C 2/C"
_symmetry_group_IT_number 15
_symmetry_cell_setting 'monoclinic'
loop_
_space_group_symop_operation_xyz
x,y,z
-x,y,1/2-z
-x,-y,-z
x,-y,1/2+z
1/2+x,1/2+y,z
1/2-x,1/2+y,1/2-z
1/2-x,1/2-y,-z
1/2+x,1/2-y,1/2+z
loop_
_atom_site_type_symbol
_atom_site_label
_atom_site_fract_x
_atom_site_fract_y
_atom_site_fract_z
Si Si1 0.728014 0.842170 0.241096
Si Si2 0.500000 0.934948 0.750000
Si Si3 0.973545 0.268852 0.163515
Si Si4 0.823076 0.650213 0.250111
Si Si5 0.900635 0.995298 0.385977
Si Si6 0.947865 0.044971 0.149502
Si Si7 0.067431 0.509051 0.102841
Si Si8 0.659853 0.952241 0.436962
O O1 0.602806 0.798805 0.201973
O O2 0.790473 0.758787 0.238619
O O3 0.825136 0.895453 0.343832
O O4 0.677305 0.929750 0.171705
O O5 0.569924 0.872303 0.739115
O O6 0.385383 0.999359 0.653310
O O7 0.952456 0.158160 0.144392
O O8 0.857590 0.339551 0.077538
O O9 0.000000 0.287042 0.250000
O O10 0.699362 0.582691 0.165556
O O11 0.875246 0.609769 0.345521
O O12 0.000000 0.000000 0.500000
O O13 0.967475 0.003169 0.357508
O O14 0.000000 0.023911 0.250000
O O15 0.797669 0.018935 0.046267
O O16 0.957372 0.485162 0.088012
O O17 0.000000 0.500000 0.000000
#
# Coordination Sequence:
#
# PCOD9271658 Si02
#       8
#     8   4   8   8   8   8   8   8
#     4  10  22  40  61  88 123 162 204 258 307 372
#     4  10  20  40  66  90 114 166 212 264 302 364
#     4  10  20  36  60  91 119 157 200 255 318 371
#     4  10  21  41  61  88 121 154 215 253 304 374
#     4  11  24  41  64  91 126 169 206 261 314 372
#     4  11  24  38  58  93 130 160 199 260 323 374
#     4   9  21  36  61  86 115 165 200 248 307 359
#     4  10  20  36  61  87 121 159 204 251 312 378
#
# _framework density 18.847935
#
# number of rings (size 3 to 8) (size 9 to 14) (size 15 to 20)
#    0.000    1.867    2.000    2.000    5.600    1.067 
#    1.200    0.000    0.000    4.000    0.000    0.000 
#    0.000    0.000    0.000    0.000    0.000    0.000 
#
# Total GULP energy -167234.475175 kJ/mol
# GULP energy per Si atom -5574.482506 kJ/mol
# Density = 1.880504 g / cm^3
# Si number density = 18.847935 Si / 1000 Ang^3
#
#
#
# Elastic Constant Matrix: (Units=GPa)
#
#
# Indices 1 2 3 4 5 6 
#
# 1 59.8321 29.2400 30.9827 0.0000 -4.2185 0.0000
# 2 29.2400 67.9870 20.6978 0.0000 8.0452 0.0000
# 3 30.9827 20.6978 126.6239 0.0001 1.6363 0.0000
# 4 0.0000 0.0000 0.0001 8.5562 0.0000 -1.7346
# 5 -4.2185 8.0452 1.6363 0.0000 30.1732 0.0000
# 6 0.0000 0.0000 0.0000 -1.7346 0.0000 11.3948
#
#
#
# Elastic Compliance Matrix: (Units=1/GPa)
#
#
# Indices 1 2 3 4 5 6 
#
# 1 0.024234 -0.009821 -0.004405 0.000000 0.006246 0.000000
# 2 -0.009821 0.019955 -0.000773 0.000000 -0.006652 0.000000
# 3 -0.004405 -0.000773 0.009113 0.000000 -0.000904 0.000000
# 4 0.000000 0.000000 0.000000 0.120597 0.000000 0.018358
# 5 0.006246 -0.006652 -0.000904 0.000000 0.035838 0.000000
# 6 0.000000 0.000000 0.000000 0.018358 0.000000 0.090554
#
#
# Mechanical properties :
#
#
# Convention : Reuss Voigt Hill
#
# Bulk Modulus (GPa) = 42.90937 46.25378 44.58157
# Shear Modulus (GPa) = 14.79043 21.59300 18.19172
#
# Velocity S-wave (km/s) = 2.80433 3.38841 3.11011
# Velocity P-wave (km/s) = 5.77072 6.31682 6.04993
#
# Compressibility (1/GPa) = 0.02330494
#
# Stress axis : x y z
#
# Youngs Moduli (GPa) = 41.26385 50.11318 109.72987
#
# Poissons Ratio (x) = 0.49215 0.48338
# Poissons Ratio (y) = 0.40524 0.08481
# Poissons Ratio (z) = 0.18177 0.03873
#
# Static dielectric constant tensor:
#      x y z
#    x 1.677840 0.000000 -0.020480 
#    y 0.000000 1.643060 0.000000 
#    z -0.020480 0.000000 1.724360 
# 
# From -- ./inp_files/244716.got.cif
#   From: 2010.05.17/outbox.cif.g08.bks.cpg/sg15_123_cif.got.tgz:244716.got - 2010.06.03 18:47:42.
