data_PCOD9271756
_publ_section_title
;
Structure prediction by ZEFSAII (Michael W. Deem and Ramdas Pophale) SiO2 
 PCOD9271756
Probable space group: C 2/C
;
_chemical_formula_sum "Si O2"
_cell_formula_units_Z 52
_cell_length_a 32.903562
_cell_length_b 7.588567
_cell_length_c 17.944685
_cell_angle_alpha 90.000000
_cell_angle_beta 35.383922
_cell_angle_gamma 90.000000
_cell_volume 2594.516299
_symmetry_space_group_name_H-M "C 2/C"
_symmetry_group_IT_number 15
_symmetry_cell_setting 'monoclinic'
loop_
_space_group_symop_operation_xyz
x,y,z
-x,y,1/2-z
-x,-y,-z
x,-y,1/2+z
1/2+x,1/2+y,z
1/2-x,1/2+y,1/2-z
1/2-x,1/2-y,-z
1/2+x,1/2-y,1/2+z
loop_
_atom_site_type_symbol
_atom_site_label
_atom_site_fract_x
_atom_site_fract_y
_atom_site_fract_z
Si Si1 0.000000 0.730189 0.250000
Si Si2 0.958607 0.821500 0.153169
Si Si3 0.643306 0.064706 0.030479
Si Si4 0.360419 0.018148 0.801676
Si Si5 0.397490 0.360893 0.652894
Si Si6 0.758287 0.876212 0.620692
Si Si7 0.723163 0.540798 0.758309
O O1 0.974824 0.840615 0.216642
O O2 0.935915 0.606471 0.373190
O O3 0.918062 0.636200 0.205401
O O4 0.912581 0.976039 0.185668
O O5 0.032627 0.826236 0.999531
O O6 0.645262 0.949093 0.101705
O O7 0.677073 0.255682 0.002040
O O8 0.697121 0.999122 0.887711
O O9 0.287075 0.949061 0.878356
O O10 0.380523 0.189579 0.725905
O O11 0.333186 0.411606 0.694799
O O12 0.713265 0.733855 0.736940
O O13 0.780989 0.021798 0.646939
#
# Coordination Sequence:
#
# PCOD9271756 Si02
#       7
#     4   8   8   8   8   8   8
#     4  10  20  40  66  80 128 168 200 264 318 362
#     4  10  22  41  61  94 124 169 210 253 314 374
#     4   9  22  38  61  92 121 166 208 257 318 371
#     4  11  21  40  64  90 126 165 204 263 311 370
#     4  11  22  39  64  91 127 166 212 253 312 377
#     4  10  20  36  61  88 127 160 208 260 310 368
#     4  10  21  38  58  92 122 162 211 253 311 369
#
# _framework density 20.042271
#
# number of rings (size 3 to 8) (size 9 to 14) (size 15 to 20)
#    0.923    0.923    1.538    2.769    2.154    0.615 
#    0.000    7.692    0.000    0.000    0.000    0.000 
#    0.000    0.000    0.000    0.000    0.000    0.000 
#
# Total GULP energy -145029.346463 kJ/mol
# GULP energy per Si atom -5578.051787 kJ/mol
# Density = 1.999665 g / cm^3
# Si number density = 20.042271 Si / 1000 Ang^3
#
#
#
# Elastic Constant Matrix: (Units=GPa)
#
#
# Indices 1 2 3 4 5 6 
#
# 1 71.7859 -9.0169 12.9124 -0.0003 -4.5816 -0.0013
# 2 -9.0169 30.0201 1.9864 0.0062 -5.6016 0.0031
# 3 12.9124 1.9864 64.6683 0.0007 -21.1274 0.0009
# 4 -0.0003 0.0062 0.0007 5.3594 0.0002 1.8245
# 5 -4.5816 -5.6016 -21.1274 0.0002 28.0162 -0.0013
# 6 -0.0013 0.0031 0.0009 1.8245 -0.0013 16.6741
#
#
#
# Elastic Compliance Matrix: (Units=1/GPa)
#
#
# Indices 1 2 3 4 5 6 
#
# 1 0.015136 0.004993 -0.002708 -0.000005 0.001431 0.000001
# 2 0.004993 0.036372 0.000701 -0.000042 0.008618 -0.000001
# 3 -0.002708 0.000701 0.021076 -0.000004 0.015591 0.000000
# 4 -0.000005 -0.000042 -0.000004 0.193806 -0.000015 -0.021206
# 5 0.001431 0.008618 0.015591 -0.000015 0.049409 0.000003
# 6 0.000001 -0.000001 0.000000 -0.021206 0.000003 0.062294
#
#
# Mechanical properties :
#
#
# Convention : Reuss Voigt Hill
#
# Bulk Modulus (GPa) = 12.72972 19.80424 16.26698
# Shear Modulus (GPa) = 12.55314 20.71610 16.63462
#
# Velocity S-wave (km/s) = 2.50538 3.21848 2.88406
# Velocity P-wave (km/s) = 3.83855 4.86972 4.38456
#
# Compressibility (1/GPa) = 0.07855631
#
# Stress axis : x y z
#
# Youngs Moduli (GPa) = 66.06834 27.49351 47.44625
#
# Poissons Ratio (x) = -0.13726 0.12848
# Poissons Ratio (y) = -0.32985 -0.03327
# Poissons Ratio (z) = 0.17891 -0.01928
#
# Static dielectric constant tensor:
#      x y z
#    x 1.693870 0.000000 -0.010930 
#    y 0.000000 1.707540 0.000000 
#    z -0.010930 0.000000 1.695590 
# 
# From -- ./inp_files/221824.got.cif
#   From: 2010.05.17/outbox.cif.g08.bks.cpg/sg15_111_cif.got.tgz:221824.got - 2010.06.03 18:47:42.
