data_PCOD9271353
_publ_section_title
;
Structure prediction by ZEFSAII (Michael W. Deem and Ramdas Pophale) SiO2 
 PCOD9271353
Probable space group: C 2/C
;
_chemical_formula_sum "Si O2"
_cell_formula_units_Z 64
_cell_length_a 23.038125
_cell_length_b 23.468044
_cell_length_c 11.335913
_cell_angle_alpha 90.000000
_cell_angle_beta 150.346638
_cell_angle_gamma 90.000000
_cell_volume 3032.268148
_symmetry_space_group_name_H-M "C 2/C"
_symmetry_group_IT_number 15
_symmetry_cell_setting 'monoclinic'
loop_
_space_group_symop_operation_xyz
x,y,z
-x,y,1/2-z
-x,-y,-z
x,-y,1/2+z
1/2+x,1/2+y,z
1/2-x,1/2+y,1/2-z
1/2-x,1/2-y,-z
1/2+x,1/2-y,1/2+z
loop_
_atom_site_type_symbol
_atom_site_label
_atom_site_fract_x
_atom_site_fract_y
_atom_site_fract_z
Si Si1 0.975221 0.674852 0.367901
Si Si2 0.205945 0.257543 0.234212
Si Si3 0.760224 0.388676 0.402902
Si Si4 0.508404 0.082570 0.624660
Si Si5 0.307158 0.008824 0.145603
Si Si6 0.366700 0.574081 0.054562
Si Si7 0.372804 0.679954 0.215029
Si Si8 0.369089 0.278832 0.305370
O O1 0.011075 0.640149 0.550415
O O2 0.894392 0.728957 0.258235
O O3 0.090436 0.703492 0.516496
O O4 0.895659 0.630508 0.154854
O O5 0.285478 0.288421 0.472172
O O6 0.164436 0.198217 0.219143
O O7 0.283966 0.254987 0.256133
O O8 0.753787 0.449240 0.454032
O O9 0.685649 0.338665 0.333661
O O10 0.706737 0.394022 0.178195
O O11 0.500000 0.093024 0.750000
O O12 0.395754 0.046202 0.381801
O O13 0.618053 0.042317 0.782122
O O14 0.204645 0.982091 0.041766
O O15 0.500000 0.565368 0.250000
O O16 0.369433 0.614333 0.174404
O O17 0.502391 0.704350 0.419878
#
# Coordination Sequence:
#
# PCOD9271353 Si02
#       8
#     8   8   8   8   8   8   8   8
#     4  10  24  39  64  97 130 166 212 263 328 391
#     4  10  20  36  61  95 124 165 210 257 312 383
#     4  11  23  43  64  90 131 169 210 274 323 382
#     4  10  21  42  63  95 128 165 208 273 331 378
#     4  10  24  41  64  95 128 162 223 271 321 387
#     4  12  22  41  68  91 121 175 219 265 326 383
#     4  10  20  36  58  94 128 156 217 266 300 378
#     4  11  21  40  64  89 132 174 204 258 327 388
#
# _framework density 21.106311999999999
#
# number of rings (size 3 to 8) (size 9 to 14) (size 15 to 20)
#    0.000    1.500    2.500    2.250    0.000    5.000 
#    6.750    0.000    5.500    0.000    0.000    0.000 
#    0.000    0.000    0.000    0.000    0.000    0.000 
#
# Total GULP energy -178831.455303 kJ/mol
# GULP energy per Si atom -5588.482978 kJ/mol
# Density = 2.105827 g / cm^3
# Si number density = 21.106312 Si / 1000 Ang^3
#
#
#
# Elastic Constant Matrix: (Units=GPa)
#
#
# Indices 1 2 3 4 5 6 
#
# 1 76.0353 15.2411 33.8377 0.0000 15.3742 0.0000
# 2 15.2411 80.1364 17.7293 0.0000 6.4455 0.0000
# 3 33.8377 17.7293 98.5591 0.0000 16.4280 0.0000
# 4 0.0000 0.0000 0.0000 36.2426 0.0000 -1.8985
# 5 15.3742 6.4455 16.4280 0.0000 36.1620 0.0000
# 6 0.0000 0.0000 0.0000 -1.8985 0.0000 32.4151
#
#
#
# Elastic Compliance Matrix: (Units=1/GPa)
#
#
# Indices 1 2 3 4 5 6 
#
# 1 0.016469 -0.001750 -0.004571 0.000000 -0.004614 0.000000
# 2 -0.001750 0.013244 -0.001636 0.000000 -0.000873 0.000000
# 3 -0.004571 -0.001636 0.012591 0.000000 -0.003485 0.000000
# 4 0.000000 0.000000 0.000000 0.027677 0.000000 0.001621
# 5 -0.004614 -0.000873 -0.003485 0.000000 0.031354 0.000000
# 6 0.000000 0.000000 0.000000 0.001621 0.000000 0.030945
#
#
# Mechanical properties :
#
#
# Convention : Reuss Voigt Hill
#
# Bulk Modulus (GPa) = 37.89216 43.14966 40.52091
# Shear Modulus (GPa) = 31.84939 33.49214 32.67076
#
# Velocity S-wave (km/s) = 3.88880 3.98783 3.93862
# Velocity P-wave (km/s) = 6.17702 6.45694 6.31853
#
# Compressibility (1/GPa) = 0.02639068
#
# Stress axis : x y z
#
# Youngs Moduli (GPa) = 60.71843 75.50737 79.42473
#
# Poissons Ratio (x) = 0.13214 0.36301
# Poissons Ratio (y) = 0.10626 0.12993
# Poissons Ratio (z) = 0.27752 0.12353
#
# Static dielectric constant tensor:
#      x y z
#    x 1.772190 0.000000 -0.012760 
#    y 0.000000 1.761010 0.000000 
#    z -0.012760 0.000000 1.796550 
# 
# From -- ./inp_files/120269.got.cif
#   From: 2010.05.17/outbox.cif.g08.bks.cpg/sg15_61_cif.got.tgz:120269.got - 2010.06.03 18:47:42.
