data_PCOD9271247
_publ_section_title
;
Structure prediction by ZEFSAII (Michael W. Deem and Ramdas Pophale) SiO2 
 PCOD9271247
Probable space group: C 2/C
;
_chemical_formula_sum "Si O2"
_cell_formula_units_Z 64
_cell_length_a 22.673715
_cell_length_b 15.057965
_cell_length_c 15.907735
_cell_angle_alpha 90.000000
_cell_angle_beta 142.236008
_cell_angle_gamma 90.000000
_cell_volume 3326.134742
_symmetry_space_group_name_H-M "C 2/C"
_symmetry_group_IT_number 15
_symmetry_cell_setting 'monoclinic'
loop_
_space_group_symop_operation_xyz
x,y,z
-x,y,1/2-z
-x,-y,-z
x,-y,1/2+z
1/2+x,1/2+y,z
1/2-x,1/2+y,1/2-z
1/2-x,1/2-y,-z
1/2+x,1/2-y,1/2+z
loop_
_atom_site_type_symbol
_atom_site_label
_atom_site_fract_x
_atom_site_fract_y
_atom_site_fract_z
Si Si1 0.501404 0.016089 0.600833
Si Si2 0.442789 0.456478 0.097107
Si Si3 0.700777 0.905654 0.398281
Si Si4 0.090631 0.674627 0.914456
Si Si5 0.101745 0.841101 0.197511
Si Si6 0.859329 0.856440 0.447698
Si Si7 0.054948 0.331186 0.730397
Si Si8 0.729601 0.597881 0.996628
O O1 0.601971 0.058481 0.745701
O O2 0.422303 0.086187 0.543714
O O3 0.500000 0.000000 0.500000
O O4 0.497312 0.920078 0.640404
O O5 0.500000 0.460766 0.250000
O O6 0.512085 0.407148 0.110204
O O7 0.418563 0.555489 0.039685
O O8 0.344618 0.401925 0.007935
O O9 0.678906 0.840161 0.450289
O O10 0.762754 0.864974 0.393420
O O11 0.753103 0.992534 0.494904
O O12 0.000000 0.679744 0.750000
O O13 0.094126 0.763663 0.971812
O O14 0.151204 0.854620 0.164031
O O15 0.060476 0.742264 0.164446
O O16 0.176076 0.859622 0.357091
O O17 0.165977 0.358618 0.872711
O O18 0.000000 0.292771 0.750000
#
# Coordination Sequence:
#
# PCOD9271247 Si02
#       8
#     8   8   8   8   8   8   8   8
#     4  10  20  36  58  85 112 139 181 234 277 320
#     4   9  19  38  59  79 108 146 181 219 272 334
#     4   9  20  36  56  79 107 147 183 219 274 335
#     4  10  20  37  56  78 108 147 185 219 269 336
#     4  11  22  35  54  84 112 142 183 231 271 315
#     4  11  21  35  56  82 111 140 181 231 275 316
#     4  11  21  36  58  81 110 151 185 218 273 337
#     4   9  19  37  57  78 108 146 183 219 270 335
#
# _framework density 19.241553
#
# number of rings (size 3 to 8) (size 9 to 14) (size 15 to 20)
#    0.000    2.000    0.000    5.250    0.000    2.000 
#    0.000    3.750    0.000    0.000    0.000    0.000 
#    0.000    0.000    0.000    0.000    0.000    0.000 
#
# Total GULP energy -178554.266650 kJ/mol
# GULP energy per Si atom -5579.820833 kJ/mol
# Density = 1.919776 g / cm^3
# Si number density = 19.241553 Si / 1000 Ang^3
#
#
#
# Elastic Constant Matrix: (Units=GPa)
#
#
# Indices 1 2 3 4 5 6 
#
# 1 117.5484 53.2677 12.9642 0.0000 -7.7625 0.0000
# 2 53.2677 101.1524 22.4874 0.0000 -5.8025 0.0000
# 3 12.9642 22.4874 16.1399 0.0000 -5.8376 0.0000
# 4 0.0000 0.0000 0.0000 7.0077 0.0000 -0.4556
# 5 -7.7625 -5.8025 -5.8376 0.0000 28.4467 0.0000
# 6 0.0000 0.0000 0.0000 -0.4556 0.0000 28.9509
#
#
#
# Elastic Compliance Matrix: (Units=1/GPa)
#
#
# Indices 1 2 3 4 5 6 
#
# 1 0.011274 -0.005746 -0.000391 0.000000 0.001824 0.000000
# 2 -0.005746 0.017293 -0.020275 0.000000 -0.002201 0.000000
# 3 -0.000391 -0.020275 0.096120 0.000000 0.015483 0.000000
# 4 0.000000 0.000000 0.000000 0.142847 0.000000 0.002248
# 5 0.001824 -0.002201 0.015483 0.000000 0.038379 0.000000
# 6 0.000000 0.000000 0.000000 0.002248 0.000000 0.034577
#
#
# Mechanical properties :
#
#
# Convention : Reuss Voigt Hill
#
# Bulk Modulus (GPa) = 13.91501 45.80880 29.86191
# Shear Modulus (GPa) = 11.98272 22.62247 17.30260
#
# Velocity S-wave (km/s) = 2.49821 3.43258 3.00197
# Velocity P-wave (km/s) = 3.94574 6.29039 5.25061
#
# Compressibility (1/GPa) = 0.07186482
#
# Stress axis : x y z
#
# Youngs Moduli (GPa) = 88.69662 57.82756 10.40366
#
# Poissons Ratio (x) = 0.33226 0.00407
# Poissons Ratio (y) = 0.50962 0.21093
# Poissons Ratio (z) = 0.03468 1.17243
#
# Static dielectric constant tensor:
#      x y z
#    x 1.688970 0.000000 0.032930 
#    y 0.000000 1.682080 0.000000 
#    z 0.032930 0.000000 1.647660 
# 
# From -- ./inp_files/162590.got.cif
#   From: 2010.05.17/outbox.cif.g08.bks.cpg/sg15_82_cif.got.tgz:162590.got - 2010.06.03 18:47:42.
