data_PCOD9271823
_publ_section_title
;
Structure prediction by ZEFSAII (Michael W. Deem and Ramdas Pophale) SiO2 
 PCOD9271823
Probable space group: C 2/C
;
_chemical_formula_sum "Si O2"
_cell_formula_units_Z 52
_cell_length_a 14.909815
_cell_length_b 17.611976
_cell_length_c 16.136372
_cell_angle_alpha 90.000000
_cell_angle_beta 37.664427
_cell_angle_gamma 90.000000
_cell_volume 2589.123739
_symmetry_space_group_name_H-M "C 2/C"
_symmetry_group_IT_number 15
_symmetry_cell_setting 'monoclinic'
loop_
_space_group_symop_operation_xyz
x,y,z
-x,y,1/2-z
-x,-y,-z
x,-y,1/2+z
1/2+x,1/2+y,z
1/2-x,1/2+y,1/2-z
1/2-x,1/2-y,-z
1/2+x,1/2-y,1/2+z
loop_
_atom_site_type_symbol
_atom_site_label
_atom_site_fract_x
_atom_site_fract_y
_atom_site_fract_z
Si Si1 0.970914 0.323763 0.012976
Si Si2 0.928839 0.567680 0.929405
Si Si3 0.000000 0.696317 0.750000
Si Si4 0.212754 0.337299 0.513576
Si Si5 0.811472 0.214923 0.252643
Si Si6 0.108995 0.065301 0.238781
Si Si7 0.000000 0.074644 0.750000
Si Si8 0.500000 0.939083 0.750000
O O1 0.136368 0.290995 0.889964
O O2 0.910885 0.340144 0.966720
O O3 0.975841 0.400328 0.064402
O O4 0.864897 0.264041 0.136204
O O5 0.993454 0.496469 0.832933
O O6 0.919544 0.639267 0.872955
O O7 0.767171 0.551328 0.081747
O O8 0.114263 0.744748 0.721253
O O9 0.250000 0.250000 0.500000
O O10 0.359546 0.376909 0.374480
O O11 0.141737 0.384684 0.640801
O O12 0.869986 0.128089 0.206774
O O13 0.000000 0.100993 0.250000
O O14 0.037132 0.982434 0.299639
#
# Coordination Sequence:
#
# PCOD9271823 Si02
#       8
#     8   8   4   8   8   8   4   4
#     4  10  25  40  61 100 131 167 213 267 306 374
#     4   9  19  37  62  96 126 157 207 261 318 380
#     4   9  17  30  61  93 134 168 198 247 315 396
#     4  12  27  45  68  85 123 173 223 263 317 379
#     4  10  20  36  61  96 136 167 205 253 321 379
#     4   9  17  33  60  91 123 160 201 249 316 372
#     4  10  22  42  64  90 116 160 218 266 306 382
#     4  11  21  44  69  91 116 170 208 263 329 384
#
# _framework density 20.084015999999998
#
# number of rings (size 3 to 8) (size 9 to 14) (size 15 to 20)
#    0.462    1.538    2.308    0.462    6.462    2.462 
#    2.769    0.000    0.000    1.846    0.000    0.000 
#    0.000    0.000    0.000    0.000    0.000    0.000 
#
# Total GULP energy -144996.347855 kJ/mol
# GULP energy per Si atom -5576.782610 kJ/mol
# Density = 2.003830 g / cm^3
# Si number density = 20.084016 Si / 1000 Ang^3
#
#
#
# Elastic Constant Matrix: (Units=GPa)
#
#
# Indices 1 2 3 4 5 6 
#
# 1 61.9482 33.6944 27.0432 0.0003 -5.9218 0.0000
# 2 33.6944 143.3548 44.5411 0.0010 -9.2611 0.0002
# 3 27.0432 44.5411 57.3078 0.0018 -15.2306 0.0004
# 4 0.0003 0.0010 0.0018 27.9763 -0.0009 -7.4333
# 5 -5.9218 -9.2611 -15.2306 -0.0009 22.3159 0.0001
# 6 0.0000 0.0002 0.0004 -7.4333 0.0001 10.4789
#
#
#
# Elastic Compliance Matrix: (Units=1/GPa)
#
#
# Indices 1 2 3 4 5 6 
#
# 1 0.020983 -0.002420 -0.008317 0.000001 -0.001112 0.000001
# 2 -0.002420 0.009506 -0.006559 0.000000 -0.001173 0.000000
# 3 -0.008317 -0.006559 0.030737 -0.000002 0.016049 -0.000003
# 4 0.000001 0.000000 -0.000002 0.044046 0.000000 0.031245
# 5 -0.001112 -0.001173 0.016049 0.000000 0.054983 -0.000001
# 6 0.000001 0.000000 -0.000003 0.031245 -0.000001 0.117593
#
#
# Mechanical properties :
#
#
# Convention : Reuss Voigt Hill
#
# Bulk Modulus (GPa) = 37.54240 52.57424 45.05832
# Shear Modulus (GPa) = 15.56093 22.64303 19.10198
#
# Velocity S-wave (km/s) = 2.78653 3.36134 3.08734
# Velocity P-wave (km/s) = 5.39317 6.42642 5.93233
#
# Compressibility (1/GPa) = 0.02663655
#
# Stress axis : x y z
#
# Youngs Moduli (GPa) = 47.65787 105.19207 32.53402
#
# Poissons Ratio (x) = 0.25453 0.27057
# Poissons Ratio (y) = 0.11532 0.21338
# Poissons Ratio (z) = 0.39635 0.68991
#
# Static dielectric constant tensor:
#      x y z
#    x 1.708070 0.000000 0.023120 
#    y 0.000000 1.744720 0.000000 
#    z 0.023120 0.000000 1.685720 
# 
# From -- ./inp_files/155458.got.cif
#   From: 2010.05.17/outbox.cif.g08.bks.cpg/sg15_78_cif.got.tgz:155458.got - 2010.06.03 18:47:42.
