data_PCOD9271265
_publ_section_title
;
Structure prediction by ZEFSAII (Michael W. Deem and Ramdas Pophale) SiO2 
 PCOD9271265
Probable space group: C 2/C
;
_chemical_formula_sum "Si O2"
_cell_formula_units_Z 60
_cell_length_a 9.148265
_cell_length_b 30.792789
_cell_length_c 11.839348
_cell_angle_alpha 90.000000
_cell_angle_beta 95.001009
_cell_angle_gamma 90.000000
_cell_volume 3322.454985
_symmetry_space_group_name_H-M "C 2/C"
_symmetry_group_IT_number 15
_symmetry_cell_setting 'monoclinic'
loop_
_space_group_symop_operation_xyz
x,y,z
-x,y,1/2-z
-x,-y,-z
x,-y,1/2+z
1/2+x,1/2+y,z
1/2-x,1/2+y,1/2-z
1/2-x,1/2-y,-z
1/2+x,1/2-y,1/2+z
loop_
_atom_site_type_symbol
_atom_site_label
_atom_site_fract_x
_atom_site_fract_y
_atom_site_fract_z
Si Si1 0.000000 0.204822 0.250000
Si Si2 0.191436 0.207857 0.055041
Si Si3 0.487304 0.053932 0.383358
Si Si4 0.250055 0.496693 0.500801
Si Si5 0.237405 0.198727 0.466203
Si Si6 0.020371 0.346812 0.885919
Si Si7 0.989550 0.054909 0.882842
Si Si8 0.531738 0.657068 0.618892
O O1 0.885584 0.222862 0.333612
O O2 0.879287 0.187807 0.145095
O O3 0.321202 0.173852 0.083922
O O4 0.250000 0.250000 0.000000
O O5 0.080620 0.185066 0.961854
O O6 0.500000 0.054203 0.250000
O O7 0.620095 0.024381 0.436627
O O8 0.505659 0.103464 0.425642
O O9 0.333239 0.033545 0.413782
O O10 0.370519 0.529898 0.557275
O O11 0.341783 0.466640 0.421444
O O12 0.250000 0.250000 0.500000
O O13 0.394529 0.181927 0.435199
O O14 0.185226 0.173544 0.576063
O O15 0.000000 0.346742 0.750000
O O16 0.988717 0.106112 0.907952
O O17 0.000000 0.049594 0.750000
O O18 0.500000 0.663721 0.750000
#
# Coordination Sequence:
#
# PCOD9271265 Si02
#       8
#     4   8   8   8   8   8   8   8
#     4  10  22  40  58  86 110 152 194 242 290 344
#     4  11  23  39  62  84 118 155 199 245 296 347
#     4  10  21  35  57  85 117 148 187 233 288 342
#     4  10  20  36  58  86 116 148 192 230 284 350
#     4  11  23  39  62  84 118 155 199 245 296 347
#     4  11  21  38  60  86 117 152 195 245 294 341
#     4  10  20  37  60  82 118 152 192 235 289 340
#     4  10  23  40  58  87 118 158 197 247 290 351
#
# _framework density 18.058935999999999
#
# number of rings (size 3 to 8) (size 9 to 14) (size 15 to 20)
#    0.000    1.600    1.333    4.000    1.867    1.067 
#    0.000    0.000    8.800    4.800    0.000    0.000 
#    0.000    0.000    0.000    0.000    0.000    0.000 
#
# Total GULP energy -167080.601465 kJ/mol
# GULP energy per Si atom -5569.353382 kJ/mol
# Density = 1.801783 g / cm^3
# Si number density = 18.058936 Si / 1000 Ang^3
#
#
#
# Elastic Constant Matrix: (Units=GPa)
#
#
# Indices 1 2 3 4 5 6 
#
# 1 97.5129 36.3594 32.5787 0.0000 -33.9186 0.0000
# 2 36.3594 119.6989 54.4983 0.0000 -28.0048 0.0000
# 3 32.5787 54.4983 89.3597 0.0000 -32.7948 0.0000
# 4 0.0000 0.0000 0.0000 33.3081 0.0000 -12.8987
# 5 -33.9186 -28.0048 -32.7948 0.0000 40.0773 0.0000
# 6 0.0000 0.0000 0.0000 -12.8987 0.0000 27.3874
#
#
#
# Elastic Compliance Matrix: (Units=1/GPa)
#
#
# Indices 1 2 3 4 5 6 
#
# 1 0.014882 -0.001807 -0.000235 0.000000 0.011140 0.000000
# 2 -0.001807 0.012099 -0.005972 0.000000 0.002038 0.000000
# 3 -0.000235 -0.005972 0.019029 0.000000 0.011199 0.000000
# 4 0.000000 0.000000 0.000000 0.036720 0.000000 0.017294
# 5 0.011140 0.002038 0.011199 0.000000 0.044968 0.000000
# 6 0.000000 0.000000 0.000000 0.017294 0.000000 0.044658
#
#
# Mechanical properties :
#
#
# Convention : Reuss Voigt Hill
#
# Bulk Modulus (GPa) = 33.35444 61.49380 47.42412
# Shear Modulus (GPa) = 25.20428 32.36356 28.78392
#
# Velocity S-wave (km/s) = 3.73992 4.23792 3.99668
# Velocity P-wave (km/s) = 6.09583 7.62052 6.90042
#
# Compressibility (1/GPa) = 0.02998102
#
# Stress axis : x y z
#
# Youngs Moduli (GPa) = 67.19329 82.65030 52.55237
#
# Poissons Ratio (x) = 0.14936 0.01237
# Poissons Ratio (y) = 0.12143 0.31385
# Poissons Ratio (z) = 0.01581 0.49360
#
# Static dielectric constant tensor:
#      x y z
#    x 1.589440 0.000000 0.003370 
#    y 0.000000 1.613300 0.000000 
#    z 0.003370 0.000000 1.609330 
# 
# From -- ./inp_files/82219.got.cif
#   From: 2010.05.17/outbox.cif.g08.bks.cpg/sg15_42_cif.got.tgz:82219.got - 2010.06.03 18:47:42.
