data_PCOD9271052
_publ_section_title
;
Structure prediction by ZEFSAII (Michael W. Deem and Ramdas Pophale) SiO2 
 PCOD9271052
Probable space group: C 2/C
;
_chemical_formula_sum "Si O2"
_cell_formula_units_Z 56
_cell_length_a 20.149431
_cell_length_b 13.143249
_cell_length_c 11.431157
_cell_angle_alpha 90.000000
_cell_angle_beta 75.147970
_cell_angle_gamma 90.000000
_cell_volume 2926.162689
_symmetry_space_group_name_H-M "C 2/C"
_symmetry_group_IT_number 15
_symmetry_cell_setting 'monoclinic'
loop_
_space_group_symop_operation_xyz
x,y,z
-x,y,1/2-z
-x,-y,-z
x,-y,1/2+z
1/2+x,1/2+y,z
1/2-x,1/2+y,1/2-z
1/2-x,1/2-y,-z
1/2+x,1/2-y,1/2+z
loop_
_atom_site_type_symbol
_atom_site_label
_atom_site_fract_x
_atom_site_fract_y
_atom_site_fract_z
Si Si1 0.310306 0.280036 0.313791
Si Si2 0.332366 0.330591 0.566841
Si Si3 0.685466 0.816771 0.076716
Si Si4 0.968979 0.538246 0.637820
Si Si5 0.660462 0.088680 0.349170
Si Si6 0.564091 0.733139 0.290502
Si Si7 0.773347 0.031371 0.689837
O O1 0.339465 0.300524 0.428810
O O2 0.229625 0.244871 0.360908
O O3 0.343846 0.184123 0.235464
O O4 0.316811 0.381456 0.233645
O O5 0.399543 0.319349 0.615863
O O6 0.308243 0.447219 0.592336
O O7 0.627765 0.755380 0.173621
O O8 0.718549 0.904657 0.140371
O O9 0.750000 0.750000 0.000000
O O10 0.649448 0.869991 0.983288
O O11 0.892749 0.495239 0.665274
O O12 0.965719 0.659887 0.648059
O O13 0.000000 0.503832 0.750000
O O14 0.000000 0.500000 0.500000
O O15 0.734978 0.036860 0.304608
O O16 0.500000 0.683622 0.250000
#
# Coordination Sequence:
#
# PCOD9271052 Si02
#       7
#     8   8   8   8   8   8   8
#     4  10  20  36  56  93 119 155 209 268 316 367
#     4  10  21  36  62  87 123 166 205 266 318 372
#     4  12  21  39  63  92 127 170 215 269 323 387
#     4  11  24  39  60  91 127 173 210 254 329 403
#     4  11  21  34  60  84 123 157 202 262 313 374
#     4  11  23  42  62  93 135 170 213 259 328 408
#     4  11  20  37  59  93 122 157 208 264 321 377
#
# _framework density 19.137692999999999
#
# number of rings (size 3 to 8) (size 9 to 14) (size 15 to 20)
#    0.000    1.143    4.286    3.429    2.000    1.143 
#    0.000    0.000    0.000    4.286    0.000    0.000 
#    0.000    0.000    0.000    0.000    0.000    0.000 
#
# Total GULP energy -156197.026471 kJ/mol
# GULP energy per Si atom -5578.465231 kJ/mol
# Density = 1.909413 g / cm^3
# Si number density = 19.137693 Si / 1000 Ang^3
#
#
#
# Elastic Constant Matrix: (Units=GPa)
#
#
# Indices 1 2 3 4 5 6 
#
# 1 90.9319 5.7593 24.1324 0.0000 24.9738 0.0000
# 2 5.7593 58.1422 9.3877 0.0000 1.2666 0.0000
# 3 24.1324 9.3877 83.0500 0.0000 12.3754 0.0000
# 4 0.0000 0.0000 0.0000 -4.0573 0.0000 5.4088
# 5 24.9738 1.2666 12.3754 0.0000 30.6205 0.0000
# 6 0.0000 0.0000 0.0000 5.4088 0.0000 26.8585
#
#
#
# Elastic Compliance Matrix: (Units=1/GPa)
#
#
# Indices 1 2 3 4 5 6 
#
# 1 0.014735 -0.000808 -0.002559 0.000000 -0.010950 0.000000
# 2 -0.000808 0.017563 -0.001852 0.000000 0.000681 0.000000
# 3 -0.002559 -0.001852 0.013483 0.000000 -0.003286 0.000000
# 4 0.000000 0.000000 0.000000 -0.194305 0.000000 0.039129
# 5 -0.010950 0.000681 -0.003286 0.000000 0.042889 0.000000
# 6 0.000000 0.000000 0.000000 0.039129 0.000000 0.029352
#
#
# Mechanical properties :
#
#
# Convention : Reuss Voigt Hill
#
# Bulk Modulus (GPa) = 28.29284 34.52031 31.40657
# Shear Modulus (GPa) = -92.48331 23.54066 -34.47133
#
# Velocity S-wave (km/s) = -6.95918 3.51104 -4.24869
# Velocity P-wave (km/s) = 7.05391 5.87482 2.76080
#
# Compressibility (1/GPa) = 0.03534463
#
# Stress axis : x y z
#
# Youngs Moduli (GPa) = 67.86660 56.93645 74.16529
#
# Poissons Ratio (x) = 0.04600 0.18976
# Poissons Ratio (y) = 0.05483 0.13736
# Poissons Ratio (z) = 0.17364 0.10545
#
# Static dielectric constant tensor:
#      x y z
#    x 1.687870 0.000000 -0.019740 
#    y 0.000000 1.656590 0.000000 
#    z -0.019740 0.000000 1.704300 
# 
# From -- ./inp_files/111556.got.cif
#   From: 2010.05.17/outbox.cif.g08.bks.cpg/sg15_56_cif.got.tgz:111556.got - 2010.06.03 18:47:42.
