data_PCOD9271736
_publ_section_title
;
Structure prediction by ZEFSAII (Michael W. Deem and Ramdas Pophale) SiO2 
 PCOD9271736
Probable space group: C 2/C
;
_chemical_formula_sum "Si O2"
_cell_formula_units_Z 44
_cell_length_a 9.586508
_cell_length_b 15.583970
_cell_length_c 16.886489
_cell_angle_alpha 90.000000
_cell_angle_beta 128.160515
_cell_angle_gamma 90.000000
_cell_volume 1983.611982
_symmetry_space_group_name_H-M "C 2/C"
_symmetry_group_IT_number 15
_symmetry_cell_setting 'monoclinic'
loop_
_space_group_symop_operation_xyz
x,y,z
-x,y,1/2-z
-x,-y,-z
x,-y,1/2+z
1/2+x,1/2+y,z
1/2-x,1/2+y,1/2-z
1/2-x,1/2-y,-z
1/2+x,1/2-y,1/2+z
loop_
_atom_site_type_symbol
_atom_site_label
_atom_site_fract_x
_atom_site_fract_y
_atom_site_fract_z
Si Si1 0.843988 0.737276 0.149993
Si Si2 0.500000 0.542758 0.250000
Si Si3 0.177769 0.548645 0.043586
Si Si4 0.330487 0.592538 0.928741
Si Si5 0.030387 0.275450 0.545949
Si Si6 0.823479 0.073408 0.346939
O O1 0.817273 0.645671 0.183684
O O2 0.000000 0.788106 0.250000
O O3 0.928737 0.722585 0.093699
O O4 0.642328 0.772893 0.073592
O O5 0.338980 0.500113 0.144779
O O6 0.408765 0.591225 0.291684
O O7 0.149489 0.642615 0.070098
O O8 0.216616 0.563097 0.964761
O O9 0.000000 0.500000 0.000000
O O10 0.339477 0.692960 0.912232
O O11 0.279553 0.527693 0.840180
O O12 0.532558 0.582699 0.031979
#
# Coordination Sequence:
#
# PCOD9271736 Si02
#       6
#     8   4   8   8   8   8
#     4  10  20  36  61  86 122 163 203 256 309 376
#     4  10  22  38  66  84 118 160 204 262 306 372
#     4  11  22  40  63  89 119 165 208 257 309 377
#     4   9  19  36  59  85 121 158 195 255 310 366
#     4  10  21  38  59  90 124 161 203 259 313 368
#     4   9  18  36  59  87 114 158 205 246 307 368
#
# _framework density 22.181757999999999
#
# number of rings (size 3 to 8) (size 9 to 14) (size 15 to 20)
#    0.000    2.182    0.000    2.727    0.000    4.364 
#    6.545    0.000    2.000    0.000    0.000    0.000 
#    0.000    0.000    0.000    0.000    0.000    0.000 
#
# Total GULP energy -122514.481566 kJ/mol
# GULP energy per Si atom -5568.840071 kJ/mol
# Density = 2.213127 g / cm^3
# Si number density = 22.181758 Si / 1000 Ang^3
#
#
#
# Elastic Constant Matrix: (Units=GPa)
#
#
# Indices 1 2 3 4 5 6 
#
# 1 99.9190 15.2051 32.5356 0.0000 9.5814 0.0000
# 2 15.2051 82.9682 13.3066 0.0000 2.5524 0.0000
# 3 32.5356 13.3066 76.3316 0.0000 8.1261 0.0000
# 4 0.0000 0.0000 0.0000 9.7306 0.0000 10.2745
# 5 9.5814 2.5524 8.1261 0.0000 27.2670 0.0000
# 6 0.0000 0.0000 0.0000 10.2745 0.0000 21.8068
#
#
#
# Elastic Compliance Matrix: (Units=1/GPa)
#
#
# Indices 1 2 3 4 5 6 
#
# 1 0.011966 -0.001376 -0.004572 0.000000 -0.002714 0.000000
# 2 -0.001376 0.012565 -0.001580 0.000000 -0.000222 0.000000
# 3 -0.004572 -0.001580 0.015634 0.000000 -0.002905 0.000000
# 4 0.000000 0.000000 0.000000 0.204513 0.000000 -0.096359
# 5 -0.002714 -0.000222 -0.002905 0.000000 0.038514 0.000000
# 6 0.000000 0.000000 0.000000 -0.096359 0.000000 0.091258
#
#
# Mechanical properties :
#
#
# Convention : Reuss Voigt Hill
#
# Bulk Modulus (GPa) = 39.82596 42.36816 41.09706
# Shear Modulus (GPa) = 12.56668 24.97231 18.76950
#
# Velocity S-wave (km/s) = 2.38278 3.35894 2.91205
# Velocity P-wave (km/s) = 5.05604 5.84681 5.46574
#
# Compressibility (1/GPa) = 0.02510925
#
# Stress axis : x y z
#
# Youngs Moduli (GPa) = 83.56718 79.58424 63.96265
#
# Poissons Ratio (x) = 0.10953 0.29242
# Poissons Ratio (y) = 0.11501 0.10108
# Poissons Ratio (z) = 0.38205 0.12576
#
# Static dielectric constant tensor:
#      x y z
#    x 1.772710 0.000000 0.012530 
#    y 0.000000 1.913490 0.000000 
#    z 0.012530 0.000000 1.970170 
# 
# From -- ./inp_files/134742.got.cif
#   From: 2010.05.17/outbox.cif.g08.bks.cpg/sg15_68_cif.got.tgz:134742.got - 2010.06.03 18:47:42.
