data_PCOD9271344
_publ_section_title
;
Structure prediction by ZEFSAII (Michael W. Deem and Ramdas Pophale) SiO2 
 PCOD9271344
Probable space group: C 2/C
;
_chemical_formula_sum "Si O2"
_cell_formula_units_Z 52
_cell_length_a 19.805702
_cell_length_b 9.321106
_cell_length_c 16.494816
_cell_angle_alpha 90.000000
_cell_angle_beta 133.210713
_cell_angle_gamma 90.000000
_cell_volume 2219.410986
_symmetry_space_group_name_H-M "C 2/C"
_symmetry_group_IT_number 15
_symmetry_cell_setting 'monoclinic'
loop_
_space_group_symop_operation_xyz
x,y,z
-x,y,1/2-z
-x,-y,-z
x,-y,1/2+z
1/2+x,1/2+y,z
1/2-x,1/2+y,1/2-z
1/2-x,1/2-y,-z
1/2+x,1/2-y,1/2+z
loop_
_atom_site_type_symbol
_atom_site_label
_atom_site_fract_x
_atom_site_fract_y
_atom_site_fract_z
Si Si1 0.689583 0.842373 0.072622
Si Si2 0.500000 0.693256 0.250000
Si Si3 0.170635 0.046102 0.105305
Si Si4 0.044079 0.520009 0.867523
Si Si5 0.349812 0.475625 0.730362
Si Si6 0.635109 0.031024 0.700705
Si Si7 0.247924 0.715127 0.904557
O O1 0.651814 0.680511 0.032801
O O2 0.799536 0.877323 0.162563
O O3 0.656660 0.882905 0.136943
O O4 0.639223 0.944691 0.967010
O O5 0.455126 0.807819 0.148429
O O6 0.572494 0.589404 0.264107
O O7 0.120872 0.027982 0.151009
O O8 0.279288 0.076219 0.218523
O O9 0.174008 0.894581 0.061908
O O10 0.155798 0.631170 0.796769
O O11 0.970003 0.486086 0.877354
O O12 0.263612 0.363564 0.651222
O O13 0.500000 0.956132 0.750000
O O14 0.250000 0.750000 0.000000
#
# Coordination Sequence:
#
# PCOD9271344 Si02
#       7
#     8   4   8   8   8   8   8
#     4  11  21  35  68  95 131 170 222 278 336 389
#     4  10  20  36  58  92 144 172 228 272 326 412
#     4   9  19  40  62  97 130 164 221 280 327 404
#     4  10  21  36  57  96 128 174 225 275 319 398
#     4  11  20  37  65  98 126 180 217 270 334 400
#     4   9  19  38  62  92 130 170 223 264 331 402
#     4  10  20  36  66  93 129 171 223 268 322 403
#
# _framework density 23.429639999999999
#
# number of rings (size 3 to 8) (size 9 to 14) (size 15 to 20)
#    1.385    0.615    3.077    0.462    4.308    0.000 
#    0.000    3.077    5.077    0.923    4.000    0.000 
#    0.000    0.154    0.000    0.000    0.000    0.000 
#
# Total GULP energy -144785.872160 kJ/mol
# GULP energy per Si atom -5568.687391 kJ/mol
# Density = 2.337631 g / cm^3
# Si number density = 23.429640 Si / 1000 Ang^3
#
#
#
# Elastic Constant Matrix: (Units=GPa)
#
#
# Indices 1 2 3 4 5 6 
#
# 1 108.7733 20.7903 19.2841 0.0000 -16.2199 0.0000
# 2 20.7903 39.4120 31.7731 0.0000 -16.0299 0.0000
# 3 19.2841 31.7731 90.4018 0.0000 -25.5713 0.0000
# 4 0.0000 0.0000 0.0000 27.7071 0.0000 -4.1981
# 5 -16.2199 -16.0299 -25.5713 0.0000 30.6233 0.0000
# 6 0.0000 0.0000 0.0000 -4.1981 0.0000 25.5031
#
#
#
# Elastic Compliance Matrix: (Units=1/GPa)
#
#
# Indices 1 2 3 4 5 6 
#
# 1 0.010497 -0.004328 0.000280 0.000000 0.003528 0.000000
# 2 -0.004328 0.040063 -0.010309 0.000000 0.010070 0.000000
# 3 0.000280 -0.010309 0.017204 0.000000 0.009118 0.000000
# 4 0.000000 0.000000 0.000000 0.037015 0.000000 0.006093
# 5 0.003528 0.010070 0.009118 0.000000 0.047409 0.000000
# 6 0.000000 0.000000 0.000000 0.006093 0.000000 0.040214
#
#
# Mechanical properties :
#
#
# Convention : Reuss Voigt Hill
#
# Bulk Modulus (GPa) = 25.60795 42.47578 34.04186
# Shear Modulus (GPa) = 21.35535 27.88266 24.61901
#
# Velocity S-wave (km/s) = 3.02233 3.45347 3.24506
# Velocity P-wave (km/s) = 4.80965 5.83698 5.34804
#
# Compressibility (1/GPa) = 0.03905038
#
# Stress axis : x y z
#
# Youngs Moduli (GPa) = 95.26398 24.96079 58.12445
#
# Poissons Ratio (x) = 0.10803 -0.01627
# Poissons Ratio (y) = 0.41231 0.59920
# Poissons Ratio (z) = -0.02667 0.25732
#
# Static dielectric constant tensor:
#      x y z
#    x 1.953480 0.000000 0.040010 
#    y 0.000000 1.945540 0.000000 
#    z 0.040010 0.000000 1.932130 
# 
# From -- ./inp_files/209725.got.cif
#   From: 2010.05.17/outbox.cif.g08.bks.cpg/sg15_105_cif.got.tgz:209725.got - 2010.06.03 18:47:42.
