data_PCOD9271310
_publ_section_title
;
Structure prediction by ZEFSAII (Michael W. Deem and Ramdas Pophale) SiO2 
 PCOD9271310
Probable space group: C 2/C
;
_chemical_formula_sum "Si O2"
_cell_formula_units_Z 60
_cell_length_a 17.551673
_cell_length_b 5.803133
_cell_length_c 29.385038
_cell_angle_alpha 90.000000
_cell_angle_beta 107.662370
_cell_angle_gamma 90.000000
_cell_volume 2851.916666
_symmetry_space_group_name_H-M "C 2/C"
_symmetry_group_IT_number 15
_symmetry_cell_setting 'monoclinic'
loop_
_space_group_symop_operation_xyz
x,y,z
-x,y,1/2-z
-x,-y,-z
x,-y,1/2+z
1/2+x,1/2+y,z
1/2-x,1/2+y,1/2-z
1/2-x,1/2-y,-z
1/2+x,1/2-y,1/2+z
loop_
_atom_site_type_symbol
_atom_site_label
_atom_site_fract_x
_atom_site_fract_y
_atom_site_fract_z
Si Si1 0.500000 0.237258 0.250000
Si Si2 0.271627 0.881149 0.078307
Si Si3 0.820962 0.473429 0.994919
Si Si4 0.128361 0.548271 0.818140
Si Si5 0.855985 0.223934 0.417310
Si Si6 0.726573 0.211982 0.683598
Si Si7 0.358849 0.563396 0.254098
Si Si8 0.484735 0.251576 0.521847
O O1 0.430252 0.381696 0.262309
O O2 0.453447 0.091677 0.202992
O O3 0.296466 0.048199 0.040960
O O4 0.342871 0.864254 0.127454
O O5 0.192384 0.983740 0.088620
O O6 0.247538 0.652434 0.046856
O O7 0.891451 0.283811 0.015073
O O8 0.849745 0.673210 0.966768
O O9 0.201481 0.384604 0.815848
O O10 0.121607 0.749028 0.780358
O O11 0.809935 0.371112 0.370751
O O12 0.950604 0.228644 0.425853
O O13 0.656106 0.332350 0.699067
O O14 0.771118 0.029418 0.723344
O O15 0.500000 0.500000 0.500000
O O16 0.500000 0.000000 0.500000
#
# Coordination Sequence:
#
# PCOD9271310 Si02
#       8
#     4   8   8   8   8   8   8   8
#     4  10  24  40  60  86 126 160 200 256 328 368
#     4  10  20  36  62  85 117 156 209 244 310 374
#     4  10  20  36  58  89 118 159 201 257 307 373
#     4  10  21  40  62  89 122 160 202 260 308 379
#     4  10  20  37  58  85 120 157 203 253 313 376
#     4  10  21  36  65  92 114 159 213 251 319 375
#     4  11  20  41  61  87 121 157 201 263 313 379
#     4  10  20  38  59  84 124 161 202 257 318 366
#
# _framework density 21.038481999999998
#
# number of rings (size 3 to 8) (size 9 to 14) (size 15 to 20)
#    0.000    1.867    2.667    1.600    0.000    0.000 
#    4.800    2.667    0.000    0.000    0.000    0.000 
#    0.000    0.000    0.000    0.000    0.000    0.000 
#
# Total GULP energy -167014.495605 kJ/mol
# GULP energy per Si atom -5567.149853 kJ/mol
# Density = 2.099060 g / cm^3
# Si number density = 21.038482 Si / 1000 Ang^3
#
#
#
# Elastic Constant Matrix: (Units=GPa)
#
#
# Indices 1 2 3 4 5 6 
#
# 1 84.9992 14.4588 36.7452 0.0000 27.5148 0.0000
# 2 14.4588 39.3193 0.9104 0.0001 18.8110 0.0001
# 3 36.7452 0.9104 86.0098 0.0000 24.3416 0.0000
# 4 0.0000 0.0001 0.0000 31.5459 0.0000 15.8889
# 5 27.5148 18.8110 24.3416 0.0000 34.5710 0.0000
# 6 0.0000 0.0001 0.0000 15.8889 0.0000 38.6052
#
#
#
# Elastic Compliance Matrix: (Units=1/GPa)
#
#
# Indices 1 2 3 4 5 6 
#
# 1 0.017104 -0.001654 -0.004610 0.000000 -0.009467 0.000000
# 2 -0.001654 0.037370 0.007110 0.000000 -0.024024 0.000000
# 3 -0.004610 0.007110 0.016956 0.000000 -0.012138 0.000000
# 4 0.000000 0.000000 0.000000 0.039990 0.000000 -0.016459
# 5 -0.009467 -0.024024 -0.012138 0.000000 0.058079 0.000000
# 6 0.000000 0.000000 0.000000 -0.016459 0.000000 0.032677
#
#
# Mechanical properties :
#
#
# Convention : Reuss Voigt Hill
#
# Bulk Modulus (GPa) = 13.67592 34.95077 24.31335
# Shear Modulus (GPa) = 22.23631 31.49202 26.86416
#
# Velocity S-wave (km/s) = 3.25458 3.87315 3.57726
# Velocity P-wave (km/s) = 4.54286 6.05397 5.35202
#
# Compressibility (1/GPa) = 0.07312122
#
# Stress axis : x y z
#
# Youngs Moduli (GPa) = 58.46719 26.75965 58.97544
#
# Poissons Ratio (x) = 0.04425 0.27190
# Poissons Ratio (y) = 0.09669 -0.41931
# Poissons Ratio (z) = 0.26955 -0.19026
#
# Static dielectric constant tensor:
#      x y z
#    x 1.799460 0.000000 0.077280 
#    y 0.000000 1.860210 0.000000 
#    z 0.077280 0.000000 1.608090 
# 
# From -- ./inp_files/299899.got.cif
#   From: 2010.05.17/outbox.cif.g08.bks.cpg/sg15_150_cif.got.tgz:299899.got - 2010.06.03 18:47:42.
