data_PCOD9271944
_publ_section_title
;
Structure prediction by ZEFSAII (Michael W. Deem and Ramdas Pophale) SiO2 
 PCOD9271944
Probable space group: C 2/C
;
_chemical_formula_sum "Si O2"
_cell_formula_units_Z 56
_cell_length_a 13.800664
_cell_length_b 8.976745
_cell_length_c 17.785549
_cell_angle_alpha 90.000000
_cell_angle_beta 73.064773
_cell_angle_gamma 90.000000
_cell_volume 2107.813896
_symmetry_space_group_name_H-M "C 2/C"
_symmetry_group_IT_number 15
_symmetry_cell_setting 'monoclinic'
loop_
_space_group_symop_operation_xyz
x,y,z
-x,y,1/2-z
-x,-y,-z
x,-y,1/2+z
1/2+x,1/2+y,z
1/2-x,1/2+y,1/2-z
1/2-x,1/2-y,-z
1/2+x,1/2-y,1/2+z
loop_
_atom_site_type_symbol
_atom_site_label
_atom_site_fract_x
_atom_site_fract_y
_atom_site_fract_z
Si Si1 0.657455 0.060924 0.272434
Si Si2 0.906877 0.000702 0.121858
Si Si3 0.423745 0.714612 0.986637
Si Si4 0.712440 0.793443 0.179101
Si Si5 0.620189 0.996132 0.933068
Si Si6 0.677273 0.309513 0.144539
Si Si7 0.000000 0.983447 0.750000
Si Si8 0.250000 0.250000 0.000000
O O1 0.757491 0.139876 0.288121
O O2 0.657160 0.165160 0.199561
O O3 0.638700 0.896174 0.243751
O O4 0.584256 0.073955 0.361537
O O5 0.958556 0.082670 0.180938
O O6 0.811902 0.899952 0.164842
O O7 0.877132 0.114487 0.063662
O O8 0.983906 0.884514 0.065271
O O9 0.348384 0.729008 0.934916
O O10 0.448801 0.876129 0.013679
O O11 0.694225 0.773978 0.095071
O O12 0.715739 0.103722 0.881814
O O13 0.673575 0.875408 0.975541
O O14 0.591251 0.418207 0.196878
#
# Coordination Sequence:
#
# PCOD9271944 Si02
#       8
#     8   8   8   8   8   8   4   4
#     4  11  21  35  62  92 123 166 211 267 326 386
#     4  10  20  38  62  93 127 171 214 274 321 408
#     4  10  22  36  64  91 125 168 221 266 335 389
#     4  11  21  39  61  92 127 164 212 272 328 392
#     4  11  21  38  60  97 126 170 214 278 325 399
#     4  11  20  37  62  91 122 166 216 264 324 397
#     4  10  20  36  62  92 124 166 212 258 324 382
#     4  10  24  38  62  94 132 164 218 270 338 392
#
# _framework density 26.567810999999999
#
# number of rings (size 3 to 8) (size 9 to 14) (size 15 to 20)
#    0.000    1.429    2.857    3.000    0.000    0.000 
#    0.000    2.857    3.143    0.000    0.000    0.000 
#    0.000    0.000    0.000    0.000    0.000    0.000 
#
# Total GULP energy -155901.961341 kJ/mol
# GULP energy per Si atom -5567.927191 kJ/mol
# Density = 2.650734 g / cm^3
# Si number density = 26.567811 Si / 1000 Ang^3
#
#
#
# Elastic Constant Matrix: (Units=GPa)
#
#
# Indices 1 2 3 4 5 6 
#
# 1 26.7673 17.9407 30.9611 0.0000 6.9151 0.0000
# 2 17.9407 127.4815 57.8214 0.0000 23.9474 0.0000
# 3 30.9611 57.8214 184.1634 0.0000 47.0814 0.0000
# 4 0.0000 0.0000 0.0000 50.5613 0.0000 -1.2453
# 5 6.9151 23.9474 47.0814 0.0000 39.6410 0.0000
# 6 0.0000 0.0000 0.0000 -1.2453 0.0000 27.5808
#
#
#
# Elastic Compliance Matrix: (Units=1/GPa)
#
#
# Indices 1 2 3 4 5 6 
#
# 1 0.047990 -0.003861 -0.007628 0.000000 0.003021 0.000000
# 2 -0.003861 0.009719 -0.001542 0.000000 -0.003367 0.000000
# 3 -0.007628 -0.001542 0.009504 0.000000 -0.009026 0.000000
# 4 0.000000 0.000000 0.000000 0.019800 0.000000 0.000894
# 5 0.003021 -0.003367 -0.009026 0.000000 0.037453 0.000000
# 6 0.000000 0.000000 0.000000 0.000894 0.000000 0.036297
#
#
# Mechanical properties :
#
#
# Convention : Reuss Voigt Hill
#
# Bulk Modulus (GPa) = 24.30065 61.31763 42.80914
# Shear Modulus (GPa) = 24.93240 39.00255 31.96747
#
# Velocity S-wave (km/s) = 3.06673 3.83565 3.47254
# Velocity P-wave (km/s) = 4.65900 6.53805 5.67681
#
# Compressibility (1/GPa) = 0.04115116
#
# Stress axis : x y z
#
# Youngs Moduli (GPa) = 20.83782 102.88682 105.22140
#
# Poissons Ratio (x) = 0.39728 0.80261
# Poissons Ratio (y) = 0.08046 0.16222
# Poissons Ratio (z) = 0.15895 0.15862
#
# Static dielectric constant tensor:
#      x y z
#    x 2.203480 0.000000 -0.075520 
#    y 0.000000 2.129570 0.000000 
#    z -0.075520 0.000000 2.141080 
# 
# From -- ./inp_files/209565.got.cif
#   From: 2010.05.17/outbox.cif.g08.bks.cpg/sg15_105_cif.got.tgz:209565.got - 2010.06.03 18:47:42.
