data_PCOD9271117
_publ_section_title
;
Structure prediction by ZEFSAII (Michael W. Deem and Ramdas Pophale) SiO2 
 PCOD9271117
Probable space group: C 2/C
;
_chemical_formula_sum "Si O2"
_cell_formula_units_Z 64
_cell_length_a 8.692571
_cell_length_b 17.923587
_cell_length_c 23.702207
_cell_angle_alpha 90.000000
_cell_angle_beta 110.450890
_cell_angle_gamma 90.000000
_cell_volume 3460.099463
_symmetry_space_group_name_H-M "C 2/C"
_symmetry_group_IT_number 15
_symmetry_cell_setting 'monoclinic'
loop_
_space_group_symop_operation_xyz
x,y,z
-x,y,1/2-z
-x,-y,-z
x,-y,1/2+z
1/2+x,1/2+y,z
1/2-x,1/2+y,1/2-z
1/2-x,1/2-y,-z
1/2+x,1/2-y,1/2+z
loop_
_atom_site_type_symbol
_atom_site_label
_atom_site_fract_x
_atom_site_fract_y
_atom_site_fract_z
Si Si1 0.494559 0.747926 0.816271
Si Si2 0.809938 0.656122 0.888907
Si Si3 0.490962 0.071685 0.817193
Si Si4 0.446075 0.090757 0.177529
Si Si5 0.107937 0.234813 0.436864
Si Si6 0.707402 0.328771 0.124533
Si Si7 0.596053 0.576502 0.950951
Si Si8 0.087870 0.079625 0.081131
O O1 0.500000 0.748974 0.750000
O O2 0.663817 0.713493 0.859121
O O3 0.485629 0.832149 0.838059
O O4 0.350793 0.696454 0.821460
O O5 0.857340 0.617555 0.835496
O O6 0.741632 0.599115 0.927113
O O7 0.964680 0.704507 0.928656
O O8 0.500000 0.077469 0.750000
O O9 0.665559 0.103856 0.858962
O O10 0.478583 0.986086 0.834299
O O11 0.500000 0.092012 0.250000
O O12 0.249715 0.086936 0.141126
O O13 0.250000 0.250000 0.500000
O O14 0.197536 0.259393 0.390663
O O15 0.027776 0.152708 0.426689
O O16 0.545299 0.359527 0.072598
O O17 0.514177 0.497173 0.923376
O O18 0.645541 0.575156 0.022946
#
# Coordination Sequence:
#
# PCOD9271117 Si02
#       8
#     8   8   8   8   8   8   8   8
#     4  10  20  36  58  84 116 150 194 241 293 344
#     4  10  22  37  58  90 116 147 202 241 280 355
#     4  10  20  37  60  81 117 155 192 235 288 342
#     4  10  21  37  60  84 116 154 197 233 293 349
#     4  11  22  37  58  85 117 150 191 239 290 344
#     4  10  20  36  57  85 115 149 196 237 287 352
#     4  10  22  37  61  87 116 154 195 238 297 347
#     4  11  21  40  61  83 120 159 187 244 299 342
#
# _framework density 18.496578
#
# number of rings (size 3 to 8) (size 9 to 14) (size 15 to 20)
#    0.000    1.750    3.750    0.750    0.000    2.500 
#    0.000    1.250    0.000    3.000    0.000    0.000 
#    0.000    0.000    0.000    0.000    0.000    0.000 
#
# Total GULP energy -178275.469564 kJ/mol
# GULP energy per Si atom -5571.108424 kJ/mol
# Density = 1.845448 g / cm^3
# Si number density = 18.496578 Si / 1000 Ang^3
#
#
#
# Elastic Constant Matrix: (Units=GPa)
#
#
# Indices 1 2 3 4 5 6 
#
# 1 76.3224 26.1957 34.5862 0.0000 -7.8002 0.0000
# 2 26.1957 109.6283 21.5136 0.0000 -5.7764 0.0000
# 3 34.5862 21.5136 79.0461 0.0000 7.0303 0.0000
# 4 0.0000 0.0000 0.0000 20.6583 0.0000 8.0607
# 5 -7.8002 -5.7764 7.0303 0.0000 28.8321 0.0000
# 6 0.0000 0.0000 0.0000 8.0607 0.0000 -26.8542
#
#
#
# Elastic Compliance Matrix: (Units=1/GPa)
#
#
# Indices 1 2 3 4 5 6 
#
# 1 0.018143 -0.002466 -0.007830 0.000000 0.006324 0.000000
# 2 -0.002466 0.010170 -0.001851 0.000000 0.001822 0.000000
# 3 -0.007830 -0.001851 0.017174 0.000000 -0.006677 0.000000
# 4 0.000000 0.000000 0.000000 0.043332 0.000000 0.013007
# 5 0.006324 0.001822 -0.006677 0.000000 0.038387 0.000000
# 6 0.000000 0.000000 0.000000 0.013007 0.000000 -0.033334
#
#
# Mechanical properties :
#
#
# Convention : Reuss Voigt Hill
#
# Bulk Modulus (GPa) = 47.18206 47.73196 47.45701
# Shear Modulus (GPa) = 39.92648 16.70733 28.31690
#
# Velocity S-wave (km/s) = 4.65110 3.00870 3.91695
# Velocity P-wave (km/s) = 7.37615 6.15886 6.79482
#
# Compressibility (1/GPa) = 0.02119450
#
# Stress axis : x y z
#
# Youngs Moduli (GPa) = 55.11801 98.32685 58.22642
#
# Poissons Ratio (x) = 0.24243 0.45589
# Poissons Ratio (y) = 0.13590 0.10779
# Poissons Ratio (z) = 0.43156 0.18202
#
# Static dielectric constant tensor:
#      x y z
#    x 1.593470 0.000000 -0.015030 
#    y 0.000000 1.665100 0.000000 
#    z -0.015030 0.000000 1.644200 
# 
# From -- ./inp_files/288812.got.cif
#   From: 2010.05.17/outbox.cif.g08.bks.cpg/sg15_145_cif.got.tgz:288812.got - 2010.06.03 18:47:42.
