data_PCOD9271089
_publ_section_title
;
Structure prediction by ZEFSAII (Michael W. Deem and Ramdas Pophale) SiO2 
 PCOD9271089
Probable space group: C 2/C
;
_chemical_formula_sum "Si O2"
_cell_formula_units_Z 48
_cell_length_a 12.932566
_cell_length_b 25.853576
_cell_length_c 7.989729
_cell_angle_alpha 90.000000
_cell_angle_beta 125.345099
_cell_angle_gamma 90.000000
_cell_volume 2179.006442
_symmetry_space_group_name_H-M "C 2/C"
_symmetry_group_IT_number 15
_symmetry_cell_setting 'monoclinic'
loop_
_space_group_symop_operation_xyz
x,y,z
-x,y,1/2-z
-x,-y,-z
x,-y,1/2+z
1/2+x,1/2+y,z
1/2-x,1/2+y,1/2-z
1/2-x,1/2-y,-z
1/2+x,1/2-y,1/2+z
loop_
_atom_site_type_symbol
_atom_site_label
_atom_site_fract_x
_atom_site_fract_y
_atom_site_fract_z
Si Si1 0.137339 0.418952 0.911239
Si Si2 0.871820 0.742351 0.232743
Si Si3 0.145500 0.294459 0.434185
Si Si4 0.619069 0.449161 0.970821
Si Si5 0.719784 0.981672 0.665899
Si Si6 0.699288 0.350045 0.193869
O O1 0.180534 0.443336 0.775770
O O2 0.000000 0.396166 0.750000
O O3 0.131568 0.469749 0.028975
O O4 0.229339 0.377423 0.083512
O O5 0.853372 0.700099 0.362969
O O6 0.875154 0.798372 0.326878
O O7 0.000000 0.733512 0.250000
O O8 0.750000 0.750000 0.000000
O O9 0.250000 0.250000 0.500000
O O10 0.196038 0.337452 0.351610
O O11 0.000000 0.281499 0.250000
O O12 0.500000 0.462710 0.750000
O O13 0.741561 0.451331 0.963933
O O14 0.655490 0.489173 0.147980
O O15 0.604665 0.392687 0.033443
#
# Coordination Sequence:
#
# PCOD9271089 Si02
#       6
#     8   8   8   8   8   8
#     4  10  20  37  58  85 120 156 196 245 293 348
#     4  11  24  43  65  89 119 158 201 251 307 368
#     4  10  22  43  65  87 119 157 197 245 306 370
#     4  10  20  36  57  82 116 154 192 241 291 345
#     4   9  20  36  56  83 114 157 201 233 288 352
#     4  10  24  37  57  92 118 150 200 245 299 359
#
# _framework density 22.028386999999999
#
# number of rings (size 3 to 8) (size 9 to 14) (size 15 to 20)
#    0.000    2.000    0.000    3.000    0.000   10.000 
#    0.000    3.333    0.000    0.000    0.000    0.000 
#    0.000    0.000    0.000    0.000    0.000    0.000 
#
# Total GULP energy -133902.918646 kJ/mol
# GULP energy per Si atom -5579.288277 kJ/mol
# Density = 2.197825 g / cm^3
# Si number density = 22.028387 Si / 1000 Ang^3
#
#
#
# Elastic Constant Matrix: (Units=GPa)
#
#
# Indices 1 2 3 4 5 6 
#
# 1 98.5483 12.1617 21.5167 0.0000 -16.9723 0.0000
# 2 12.1617 56.1266 -12.4848 0.0000 -16.1126 0.0000
# 3 21.5167 -12.4848 87.5022 0.0000 -6.3492 0.0000
# 4 0.0000 0.0000 0.0000 12.8725 0.0000 -18.8361
# 5 -16.9723 -16.1126 -6.3492 0.0000 42.7296 0.0000
# 6 0.0000 0.0000 0.0000 -18.8361 0.0000 17.0723
#
#
#
# Elastic Compliance Matrix: (Units=1/GPa)
#
#
# Indices 1 2 3 4 5 6 
#
# 1 0.011638 -0.002212 -0.002934 0.000000 0.003353 0.000000
# 2 -0.002212 0.021476 0.004177 0.000000 0.007840 0.000000
# 3 -0.002934 0.004177 0.012915 0.000000 0.002329 0.000000
# 4 0.000000 0.000000 0.000000 -0.126428 0.000000 -0.139490
# 5 0.003353 0.007840 0.002329 0.000000 0.028037 0.000000
# 6 0.000000 0.000000 0.000000 -0.139490 0.000000 -0.095327
#
#
# Mechanical properties :
#
#
# Convention : Reuss Voigt Hill
#
# Bulk Modulus (GPa) = 22.68050 31.61825 27.14938
# Shear Modulus (GPa) = -38.15225 29.26710 -4.44257
#
# Velocity S-wave (km/s) = -4.16620 3.64896 -1.42166
# Velocity P-wave (km/s) = 3.58113 5.66902 3.10751
#
# Compressibility (1/GPa) = 0.04409073
#
# Stress axis : x y z
#
# Youngs Moduli (GPa) = 85.92287 46.56346 77.43085
#
# Poissons Ratio (x) = 0.10300 0.22720
# Poissons Ratio (y) = 0.19007 -0.32343
# Poissons Ratio (z) = 0.25211 -0.19450
#
# Static dielectric constant tensor:
#      x y z
#    x 1.410490 0.000000 -1.526270 
#    y 0.000000 1.814720 0.000000 
#    z -1.526270 0.000000 -3.493890 
# 
# From -- ./inp_files/33776.got.cif
#   From: 2010.05.17/outbox.cif.g08.bks.cpg/sg15_17_cif.got.tgz:33776.got - 2010.06.03 18:47:42.
