data_PCOD9271682
_publ_section_title
;
Structure prediction by ZEFSAII (Michael W. Deem and Ramdas Pophale) SiO2 
 PCOD9271682
Probable space group: C 2/C
;
_chemical_formula_sum "Si O2"
_cell_formula_units_Z 44
_cell_length_a 18.349005
_cell_length_b 11.323092
_cell_length_c 31.424777
_cell_angle_alpha 90.000000
_cell_angle_beta 163.625965
_cell_angle_gamma 90.000000
_cell_volume 1840.581885
_symmetry_space_group_name_H-M "C 2/C"
_symmetry_group_IT_number 15
_symmetry_cell_setting 'monoclinic'
loop_
_space_group_symop_operation_xyz
x,y,z
-x,y,1/2-z
-x,-y,-z
x,-y,1/2+z
1/2+x,1/2+y,z
1/2-x,1/2+y,1/2-z
1/2-x,1/2-y,-z
1/2+x,1/2-y,1/2+z
loop_
_atom_site_type_symbol
_atom_site_label
_atom_site_fract_x
_atom_site_fract_y
_atom_site_fract_z
Si Si1 0.500000 0.081493 0.250000
Si Si2 0.140749 0.262112 0.696272
Si Si3 0.540662 0.384490 0.697523
Si Si4 0.244769 0.443700 0.975786
Si Si5 0.500000 0.000000 0.000000
Si Si6 0.051417 0.223696 0.044435
Si Si7 0.500000 0.783658 0.250000
O O1 0.396442 0.025704 0.147613
O O2 0.259833 0.160164 0.131746
O O3 0.285603 0.304904 0.735814
O O4 0.333953 0.265120 0.844184
O O5 0.929996 0.360544 0.591997
O O6 0.998345 0.137334 0.609617
O O7 0.323163 0.442877 0.546376
O O8 0.711044 0.488726 0.814322
O O9 0.423177 0.303860 0.668489
O O10 0.488733 0.143325 0.993811
O O11 0.771860 0.159175 0.888686
#
# Coordination Sequence:
#
# PCOD9271682 Si02
#       7
#     4   8   8   8   4   8   4
#     4  10  22  43  69  92 128 180 224 271 325 408
#     4  10  22  40  62  96 132 177 219 281 333 397
#     4  11  23  38  63  96 133 172 222 276 339 395
#     4  10  21  40  64  94 131 172 227 275 331 398
#     4  10  20  36  60  92 130 164 216 276 318 390
#     4  10  21  40  63  98 132 170 223 268 341 388
#     4  10  24  39  61 102 130 172 214 283 343 382
#
# _framework density 23.905481999999999
#
# number of rings (size 3 to 8) (size 9 to 14) (size 15 to 20)
#    0.000    1.818    1.818    2.182    5.091    3.636 
#    0.000    6.364    0.000    0.000    0.000    0.000 
#    0.000    0.000    0.000    0.000    0.000    0.000 
#
# Total GULP energy -122614.783747 kJ/mol
# GULP energy per Si atom -5573.399261 kJ/mol
# Density = 2.385107 g / cm^3
# Si number density = 23.905482 Si / 1000 Ang^3
#
#
#
# Elastic Constant Matrix: (Units=GPa)
#
#
# Indices 1 2 3 4 5 6 
#
# 1 121.9965 29.1095 47.8521 0.0202 -7.9530 -0.0090
# 2 29.1095 50.6858 16.1997 0.0096 5.6628 -0.0002
# 3 47.8521 16.1997 134.1284 0.0628 6.1254 -0.0100
# 4 0.0202 0.0096 0.0628 24.6559 -0.0057 1.6265
# 5 -7.9530 5.6628 6.1254 -0.0057 38.5553 -0.0080
# 6 -0.0090 -0.0002 -0.0100 1.6265 -0.0080 7.1336
#
#
#
# Elastic Compliance Matrix: (Units=1/GPa)
#
#
# Indices 1 2 3 4 5 6 
#
# 1 0.011158 -0.005715 -0.003459 0.000002 0.003691 0.000013
# 2 -0.005715 0.023719 -0.000617 -0.000003 -0.004564 -0.000012
# 3 -0.003459 -0.000617 0.008857 -0.000021 -0.002030 0.000011
# 4 0.000002 -0.000003 -0.000021 0.041178 0.000008 -0.009389
# 5 0.003691 -0.004564 -0.002030 0.000008 0.027691 0.000031
# 6 0.000013 -0.000012 0.000011 -0.009389 0.000031 0.142322
#
#
# Mechanical properties :
#
#
# Convention : Reuss Voigt Hill
#
# Bulk Modulus (GPa) = 41.40622 54.79256 48.09939
# Shear Modulus (GPa) = 17.69549 28.31225 23.00387
#
# Velocity S-wave (km/s) = 2.72366 3.44516 3.10544
# Velocity P-wave (km/s) = 5.22011 6.22862 5.74653
#
# Compressibility (1/GPa) = 0.02415096
#
# Stress axis : x y z
#
# Youngs Moduli (GPa) = 89.62201 42.16061 112.90651
#
# Poissons Ratio (x) = 0.24095 0.39055
# Poissons Ratio (y) = 0.51218 0.06970
# Poissons Ratio (z) = 0.31001 0.02603
#
# Static dielectric constant tensor:
#      x y z
#    x 1.888710 0.000000 0.014210 
#    y 0.000000 1.874940 -0.000010 
#    z 0.014210 -0.000010 1.986620 
# 
# From -- ./inp_files/110851.got.cif
#   From: 2010.05.17/outbox.cif.g08.bks.cpg/sg15_56_cif.got.tgz:110851.got - 2010.06.03 18:47:42.
