data_PCOD9271622
_publ_section_title
;
Structure prediction by ZEFSAII (Michael W. Deem and Ramdas Pophale) SiO2 
 PCOD9271622
Probable space group: C 2/C
;
_chemical_formula_sum "Si O2"
_cell_formula_units_Z 64
_cell_length_a 14.756036
_cell_length_b 10.273490
_cell_length_c 20.446769
_cell_angle_alpha 90.000000
_cell_angle_beta 94.931255
_cell_angle_gamma 90.000000
_cell_volume 3088.174970
_symmetry_space_group_name_H-M "C 2/C"
_symmetry_group_IT_number 15
_symmetry_cell_setting 'monoclinic'
loop_
_space_group_symop_operation_xyz
x,y,z
-x,y,1/2-z
-x,-y,-z
x,-y,1/2+z
1/2+x,1/2+y,z
1/2-x,1/2+y,1/2-z
1/2-x,1/2-y,-z
1/2+x,1/2-y,1/2+z
loop_
_atom_site_type_symbol
_atom_site_label
_atom_site_fract_x
_atom_site_fract_y
_atom_site_fract_z
Si Si1 0.843579 0.441540 0.022346
Si Si2 0.247443 0.346616 0.060440
Si Si3 0.725085 0.014311 0.281790
Si Si4 0.776349 0.738394 0.628918
Si Si5 0.096372 0.852419 0.755909
Si Si6 0.609033 0.176074 0.372110
Si Si7 0.577964 0.865794 0.601278
Si Si8 0.617446 0.878267 0.164468
O O1 0.807619 0.319689 0.061423
O O2 0.872508 0.560373 0.072433
O O3 0.767837 0.510100 0.970257
O O4 0.919842 0.391571 0.976424
O O5 0.333844 0.305319 0.107844
O O6 0.162874 0.318235 0.103001
O O7 0.250000 0.250000 0.000000
O O8 0.821005 0.082459 0.277910
O O9 0.650018 0.112630 0.308243
O O10 0.735754 0.892604 0.329846
O O11 0.693241 0.952959 0.211707
O O12 0.856804 0.816076 0.671733
O O13 0.678716 0.810200 0.622466
O O14 0.074868 0.724328 0.710599
O O15 0.000000 0.925501 0.750000
O O16 0.504420 0.215564 0.374428
O O17 0.557456 0.004648 0.634368
#
# Coordination Sequence:
#
# PCOD9271622 Si02
#       8
#     8   8   8   8   8   8   8   8
#     4   9  20  37  60  82 122 154 195 242 289 344
#     4   9  18  37  59  83 116 159 191 239 298 344
#     4  10  21  41  57  84 121 153 195 245 293 350
#     4  10  22  41  58  86 122 156 191 243 298 348
#     4  11  23  41  62  84 114 157 200 243 293 354
#     4  10  20  36  60  89 117 153 200 240 291 348
#     4  11  21  36  59  92 120 153 193 239 296 348
#     4  10  21  36  61  85 117 150 198 245 294 342
#
# _framework density 20.724214
#
# number of rings (size 3 to 8) (size 9 to 14) (size 15 to 20)
#    0.000    2.000    2.500    0.750    5.250    0.000 
#    2.250    0.625    0.000    0.000    0.000    0.000 
#    0.000    0.000    0.000    0.000    0.000    0.000 
#
# Total GULP energy -178292.990626 kJ/mol
# GULP energy per Si atom -5571.655957 kJ/mol
# Density = 2.067705 g / cm^3
# Si number density = 20.724214 Si / 1000 Ang^3
#
#
#
# Elastic Constant Matrix: (Units=GPa)
#
#
# Indices 1 2 3 4 5 6 
#
# 1 98.3730 14.7143 14.8834 0.0000 -10.4826 0.0000
# 2 14.7143 24.7031 14.5816 0.0000 -5.3580 0.0000
# 3 14.8834 14.5816 68.8667 0.0000 -11.2864 0.0000
# 4 0.0000 0.0000 0.0000 27.5830 0.0000 5.3583
# 5 -10.4826 -5.3580 -11.2864 0.0000 19.8467 0.0000
# 6 0.0000 0.0000 0.0000 5.3583 0.0000 13.1622
#
#
#
# Elastic Compliance Matrix: (Units=1/GPa)
#
#
# Indices 1 2 3 4 5 6 
#
# 1 0.011547 -0.005595 -0.000616 0.000000 0.004238 0.000000
# 2 -0.005595 0.050046 -0.008444 0.000000 0.005754 0.000000
# 3 -0.000616 -0.008444 0.017661 0.000000 0.007438 0.000000
# 4 0.000000 0.000000 0.000000 0.039367 0.000000 -0.016026
# 5 0.004238 0.005754 0.007438 0.000000 0.058408 0.000000
# 6 0.000000 0.000000 0.000000 -0.016026 0.000000 0.082499
#
#
# Mechanical properties :
#
#
# Convention : Reuss Voigt Hill
#
# Bulk Modulus (GPa) = 20.02300 31.14459 25.58379
# Shear Modulus (GPa) = 16.36728 21.96930 19.16829
#
# Velocity S-wave (km/s) = 2.81333 3.25942 3.04455
# Velocity P-wave (km/s) = 4.49841 5.40609 4.97300
#
# Compressibility (1/GPa) = 0.04994257
#
# Stress axis : x y z
#
# Youngs Moduli (GPa) = 86.60170 19.98166 56.62186
#
# Poissons Ratio (x) = 0.11180 0.03490
# Poissons Ratio (y) = 0.48454 0.47814
# Poissons Ratio (z) = 0.05338 0.16873
#
# Static dielectric constant tensor:
#      x y z
#    x 1.826640 0.000000 0.036080 
#    y 0.000000 1.761560 0.000000 
#    z 0.036080 0.000000 1.814140 
# 
# From -- ./inp_files/268866.got.cif
#   From: 2010.05.17/outbox.cif.g08.bks.cpg/sg15_135_cif.got.tgz:268866.got - 2010.06.03 18:47:42.
