data_PCOD9271531
_publ_section_title
;
Structure prediction by ZEFSAII (Michael W. Deem and Ramdas Pophale) SiO2 
 PCOD9271531
Probable space group: C 2/C
;
_chemical_formula_sum "Si O2"
_cell_formula_units_Z 44
_cell_length_a 6.556225
_cell_length_b 25.668365
_cell_length_c 13.702210
_cell_angle_alpha 90.000000
_cell_angle_beta 121.771755
_cell_angle_gamma 90.000000
_cell_volume 1960.376288
_symmetry_space_group_name_H-M "C 2/C"
_symmetry_group_IT_number 15
_symmetry_cell_setting 'monoclinic'
loop_
_space_group_symop_operation_xyz
x,y,z
-x,y,1/2-z
-x,-y,-z
x,-y,1/2+z
1/2+x,1/2+y,z
1/2-x,1/2+y,1/2-z
1/2-x,1/2-y,-z
1/2+x,1/2-y,1/2+z
loop_
_atom_site_type_symbol
_atom_site_label
_atom_site_fract_x
_atom_site_fract_y
_atom_site_fract_z
Si Si1 0.500000 0.998652 0.750000
Si Si2 0.777273 0.141572 0.976927
Si Si3 0.733351 0.091087 0.426928
Si Si4 0.516895 0.300214 0.144721
Si Si5 0.514927 0.187794 0.082276
Si Si6 0.102291 0.549501 0.587093
O O1 0.328252 0.961000 0.645457
O O2 0.657494 0.029670 0.709771
O O3 0.596523 0.093510 0.940997
O O4 0.798335 0.169012 0.877244
O O5 0.696524 0.182225 0.038457
O O6 0.040054 0.118921 0.062112
O O7 0.511188 0.131944 0.371290
O O8 0.778789 0.076043 0.552605
O O9 0.500000 0.320191 0.250000
O O10 0.577167 0.238665 0.159329
O O11 0.253408 0.305042 0.029617
O O12 0.000000 0.500000 0.500000
#
# Coordination Sequence:
#
# PCOD9271531 Si02
#       6
#     4   8   8   8   8   8
#     4  10  20  36  60  82 114 160 200 250 304 356
#     4  10  20  38  60  82 119 158 193 245 302 350
#     4   9  20  38  59  82 117 154 195 249 300 354
#     4  10  21  36  62  88 118 158 195 241 299 359
#     4   9  20  39  58  86 124 151 192 247 295 356
#     4   9  20  37  54  80 114 150 195 246 288 350
#
# _framework density 22.444671
#
# number of rings (size 3 to 8) (size 9 to 14) (size 15 to 20)
#    0.000    2.545    0.000    0.545    1.273    8.000 
#    0.000   13.636    0.000    0.000    0.000    0.000 
#    0.000    0.000    0.000    0.000    0.000    0.000 
#
# Total GULP energy -122765.279345 kJ/mol
# GULP energy per Si atom -5580.239970 kJ/mol
# Density = 2.239359 g / cm^3
# Si number density = 22.444671 Si / 1000 Ang^3
#
#
#
# Elastic Constant Matrix: (Units=GPa)
#
#
# Indices 1 2 3 4 5 6 
#
# 1 113.8189 28.6509 31.5055 0.0000 -35.7215 0.0000
# 2 28.6509 81.1379 21.3372 0.0000 -19.7275 0.0000
# 3 31.5055 21.3372 64.7046 0.0000 -36.0056 0.0000
# 4 0.0000 0.0000 0.0000 -5.8696 0.0000 8.1749
# 5 -35.7215 -19.7275 -36.0056 0.0000 34.0019 0.0000
# 6 0.0000 0.0000 0.0000 8.1749 0.0000 9.8175
#
#
#
# Elastic Compliance Matrix: (Units=1/GPa)
#
#
# Indices 1 2 3 4 5 6 
#
# 1 0.013539 -0.001561 0.003246 0.000000 0.016756 0.000000
# 2 -0.001561 0.014530 -0.000616 0.000000 0.006139 0.000000
# 3 0.003246 -0.000616 0.038409 0.000000 0.043725 0.000000
# 4 0.000000 0.000000 0.000000 -0.078885 0.000000 0.065686
# 5 0.016756 0.006139 0.043725 0.000000 0.096877 0.000000
# 6 0.000000 0.000000 0.000000 0.065686 0.000000 0.047163
#
#
# Mechanical properties :
#
#
# Convention : Reuss Voigt Hill
#
# Bulk Modulus (GPa) = 14.57347 46.96096 30.76721
# Shear Modulus (GPa) = 32.81589 19.46782 26.14186
#
# Velocity S-wave (km/s) = 3.82786 2.94831 3.41651
# Velocity P-wave (km/s) = 5.10332 5.70600 5.41305
#
# Compressibility (1/GPa) = 0.06861784
#
# Stress axis : x y z
#
# Youngs Moduli (GPa) = 73.86176 68.82218 26.03577
#
# Poissons Ratio (x) = 0.10740 -0.08452
# Poissons Ratio (y) = 0.11526 0.01603
# Poissons Ratio (z) = -0.23977 0.04237
#
# Static dielectric constant tensor:
#      x y z
#    x 1.813320 0.000000 -0.000700 
#    y 0.000000 1.877390 0.000000 
#    z -0.000700 0.000000 1.873560 
# 
# From -- ./inp_files/129876.got.cif
#   From: 2010.05.17/outbox.cif.g08.bks.cpg/sg15_65_cif.got.tgz:129876.got - 2010.06.03 18:47:42.
