data_PCOD9271787
_publ_section_title
;
Structure prediction by ZEFSAII (Michael W. Deem and Ramdas Pophale) SiO2 
 PCOD9271787
Probable space group: C 2/C
;
_chemical_formula_sum "Si O2"
_cell_formula_units_Z 40
_cell_length_a 27.377881
_cell_length_b 8.017828
_cell_length_c 10.019191
_cell_angle_alpha 90.000000
_cell_angle_beta 132.450468
_cell_angle_gamma 90.000000
_cell_volume 1622.795675
_symmetry_space_group_name_H-M "C 2/C"
_symmetry_group_IT_number 15
_symmetry_cell_setting 'monoclinic'
loop_
_space_group_symop_operation_xyz
x,y,z
-x,y,1/2-z
-x,-y,-z
x,-y,1/2+z
1/2+x,1/2+y,z
1/2-x,1/2+y,1/2-z
1/2-x,1/2-y,-z
1/2+x,1/2-y,1/2+z
loop_
_atom_site_type_symbol
_atom_site_label
_atom_site_fract_x
_atom_site_fract_y
_atom_site_fract_z
Si Si1 0.415748 0.560505 0.505460
Si Si2 0.062363 0.390769 0.075737
Si Si3 0.863004 0.503428 0.048760
Si Si4 0.223608 0.906428 0.867316
Si Si5 0.880369 0.862776 0.210791
O O1 0.457366 0.712051 0.522034
O O2 0.419935 0.536987 0.669391
O O3 0.340122 0.632090 0.341449
O O4 0.415899 0.395984 0.417182
O O5 0.105379 0.370734 0.289768
O O6 0.102094 0.481762 0.029155
O O7 0.000000 0.500000 0.000000
O O8 0.785185 0.471050 0.895664
O O9 0.874743 0.675676 0.151089
O O10 0.191604 0.050400 0.901634
O O11 0.250000 0.750000 0.000000
#
# Coordination Sequence:
#
# PCOD9271787 Si02
#       5
#     8   8   8   8   8
#     4   9  21  38  60  91 126 160 200 256 309 373
#     4  11  24  43  62  87 122 166 216 249 300 371
#     4  11  22  38  63  91 121 166 200 260 304 365
#     4  10  20  36  61  91 134 153 202 247 319 372
#     4   9  21  35  58  93 129 154 200 246 322 366
#
# _framework density 24.648819
#
# number of rings (size 3 to 8) (size 9 to 14) (size 15 to 20)
#    1.200    0.800    2.000    1.200    2.800    3.200 
#    0.000    1.000    0.000    7.200    0.000    0.000 
#    0.000    0.000    0.000    0.000    0.000    0.000 
#
# Total GULP energy -111820.599738 kJ/mol
# GULP energy per Si atom -5591.029987 kJ/mol
# Density = 2.459272 g / cm^3
# Si number density = 24.648819 Si / 1000 Ang^3
#
#
#
# Elastic Constant Matrix: (Units=GPa)
#
#
# Indices 1 2 3 4 5 6 
#
# 1 166.6700 40.0737 31.2539 0.0000 7.5170 0.0000
# 2 40.0737 71.7590 1.8777 0.0000 7.8636 0.0000
# 3 31.2539 1.8777 86.5649 0.0000 -1.8993 0.0000
# 4 0.0000 0.0000 0.0000 35.9595 0.0000 3.6883
# 5 7.5170 7.8636 -1.8993 0.0000 30.7881 0.0000
# 6 0.0000 0.0000 0.0000 3.6883 0.0000 40.3938
#
#
#
# Elastic Compliance Matrix: (Units=1/GPa)
#
#
# Indices 1 2 3 4 5 6 
#
# 1 0.007505 -0.004016 -0.002644 0.000000 -0.000970 0.000000
# 2 -0.004016 0.016499 0.001022 0.000000 -0.003170 0.000000
# 3 -0.002644 0.001022 0.012510 0.000000 0.001156 0.000000
# 4 0.000000 0.000000 0.000000 0.028072 0.000000 -0.002563
# 5 -0.000970 -0.003170 0.001156 0.000000 0.033598 0.000000
# 6 0.000000 0.000000 0.000000 -0.002563 0.000000 0.024990
#
#
# Mechanical properties :
#
#
# Convention : Reuss Voigt Hill
#
# Bulk Modulus (GPa) = 39.62074 52.37829 45.99951
# Shear Modulus (GPa) = 34.99909 38.21418 36.60663
#
# Velocity S-wave (km/s) = 3.77226 3.94171 3.85792
# Velocity P-wave (km/s) = 5.92302 6.48167 6.20864
#
# Compressibility (1/GPa) = 0.02523931
#
# Stress axis : x y z
#
# Youngs Moduli (GPa) = 133.24641 60.61064 79.93772
#
# Poissons Ratio (x) = 0.24339 0.21134
# Poissons Ratio (y) = 0.53507 -0.08173
# Poissons Ratio (z) = 0.35227 -0.06197
#
# Static dielectric constant tensor:
#      x y z
#    x 1.953340 0.000000 0.029980 
#    y 0.000000 1.972140 0.000000 
#    z 0.029980 0.000000 2.001150 
# 
# From -- ./inp_files/116556.got.cif
#   From: 2010.05.17/outbox.cif.g08.bks.cpg/sg15_59_cif.got.tgz:116556.got - 2010.06.03 18:47:42.
