data_PCOD9271650
_publ_section_title
;
Structure prediction by ZEFSAII (Michael W. Deem and Ramdas Pophale) SiO2 
 PCOD9271650
Probable space group: C 2/C
;
_chemical_formula_sum "Si O2"
_cell_formula_units_Z 52
_cell_length_a 13.214321
_cell_length_b 11.567643
_cell_length_c 16.896747
_cell_angle_alpha 90.000000
_cell_angle_beta 98.533857
_cell_angle_gamma 90.000000
_cell_volume 2554.216211
_symmetry_space_group_name_H-M "C 2/C"
_symmetry_group_IT_number 15
_symmetry_cell_setting 'monoclinic'
loop_
_space_group_symop_operation_xyz
x,y,z
-x,y,1/2-z
-x,-y,-z
x,-y,1/2+z
1/2+x,1/2+y,z
1/2-x,1/2+y,1/2-z
1/2-x,1/2-y,-z
1/2+x,1/2-y,1/2+z
loop_
_atom_site_type_symbol
_atom_site_label
_atom_site_fract_x
_atom_site_fract_y
_atom_site_fract_z
Si Si1 0.901593 0.113144 0.297252
Si Si2 0.776874 0.298411 0.112888
Si Si3 0.607845 0.130205 0.719037
Si Si4 0.000000 0.745527 0.250000
Si Si5 0.876277 0.881186 0.524587
Si Si6 0.679725 0.893483 0.693351
Si Si7 0.511153 0.581375 0.897587
O O1 0.895065 0.246033 0.324200
O O2 0.793628 0.092436 0.242019
O O3 0.000000 0.107692 0.250000
O O4 0.924961 0.012709 0.361702
O O5 0.811972 0.356252 0.198333
O O6 0.868058 0.225087 0.084211
O O7 0.694335 0.198765 0.125113
O O8 0.724931 0.377688 0.041306
O O9 0.500000 0.110875 0.750000
O O10 0.637573 0.020375 0.670680
O O11 0.901217 0.666847 0.256879
O O12 0.020949 0.827799 0.328144
O O13 0.970604 0.867664 0.475129
O O14 0.891644 0.000401 0.573372
#
# Coordination Sequence:
#
# PCOD9271650 Si02
#       7
#     8   8   8   4   8   8   8
#     4  10  21  35  60  90 116 155 208 254 297 351
#     4  10  21  37  59  88 119 167 207 241 300 377
#     4  10  20  36  60  90 125 156 202 253 300 359
#     4  12  24  38  60  96 122 158 210 256 316 350
#     4  10  21  36  60  87 125 159 201 251 308 361
#     4  11  22  37  61  89 127 154 195 261 307 354
#     4  11  21  38  62  89 120 158 205 263 295 362
#
# _framework density 20.358497
#
# number of rings (size 3 to 8) (size 9 to 14) (size 15 to 20)
#    0.000    1.538    3.077    3.692    2.154    0.000 
#    0.000    0.000    0.000   36.923    0.000    0.000 
#    0.000    0.000    0.000    0.000    0.000    0.000 
#
# Total GULP energy -145085.601494 kJ/mol
# GULP energy per Si atom -5580.215442 kJ/mol
# Density = 2.031216 g / cm^3
# Si number density = 20.358497 Si / 1000 Ang^3
#
#
#
# Elastic Constant Matrix: (Units=GPa)
#
#
# Indices 1 2 3 4 5 6 
#
# 1 76.1330 25.2489 7.7707 0.0000 -5.1519 0.0000
# 2 25.2489 74.0105 5.2328 0.0000 -13.2885 0.0000
# 3 7.7707 5.2328 53.5466 0.0000 -9.0438 0.0000
# 4 0.0000 0.0000 0.0000 10.5483 0.0000 -6.4804
# 5 -5.1519 -13.2885 -9.0438 0.0000 28.8110 0.0000
# 6 0.0000 0.0000 0.0000 -6.4804 0.0000 33.4675
#
#
#
# Elastic Compliance Matrix: (Units=1/GPa)
#
#
# Indices 1 2 3 4 5 6 
#
# 1 0.014961 -0.005014 -0.001711 0.000000 -0.000174 0.000000
# 2 -0.005014 0.016417 0.000265 0.000000 0.006758 0.000000
# 3 -0.001711 0.000265 0.019923 0.000000 0.006070 0.000000
# 4 0.000000 0.000000 0.000000 0.107602 0.000000 0.020835
# 5 -0.000174 0.006758 0.006070 0.000000 0.039700 0.000000
# 6 0.000000 0.000000 0.000000 0.020835 0.000000 0.033914
#
#
# Mechanical properties :
#
#
# Convention : Reuss Voigt Hill
#
# Bulk Modulus (GPa) = 26.05490 31.13279 28.59385
# Shear Modulus (GPa) = 19.36252 25.59455 22.47853
#
# Velocity S-wave (km/s) = 3.08730 3.54954 3.32646
# Velocity P-wave (km/s) = 5.05316 5.66784 5.36930
#
# Compressibility (1/GPa) = 0.03838049
#
# Stress axis : x y z
#
# Youngs Moduli (GPa) = 66.84211 60.91259 50.19356
#
# Poissons Ratio (x) = 0.30543 0.08586
# Poissons Ratio (y) = 0.33516 -0.01329
# Poissons Ratio (z) = 0.11434 -0.01613
#
# Static dielectric constant tensor:
#      x y z
#    x 1.769940 0.000000 0.004070 
#    y 0.000000 1.740980 0.000000 
#    z 0.004070 0.000000 1.741530 
# 
# From -- ./inp_files/203587.got.cif
#   From: 2010.05.17/outbox.cif.g08.bks.cpg/sg15_102_cif.got.tgz:203587.got - 2010.06.03 18:47:42.
