data_PCOD9271438
_publ_section_title
;
Structure prediction by ZEFSAII (Michael W. Deem and Ramdas Pophale) SiO2 
 PCOD9271438
Probable space group: C 2/C
;
_chemical_formula_sum "Si O2"
_cell_formula_units_Z 56
_cell_length_a 20.387492
_cell_length_b 8.721592
_cell_length_c 28.616440
_cell_angle_alpha 90.000000
_cell_angle_beta 144.252133
_cell_angle_gamma 90.000000
_cell_volume 2972.700717
_symmetry_space_group_name_H-M "C 2/C"
_symmetry_group_IT_number 15
_symmetry_cell_setting 'monoclinic'
loop_
_space_group_symop_operation_xyz
x,y,z
-x,y,1/2-z
-x,-y,-z
x,-y,1/2+z
1/2+x,1/2+y,z
1/2-x,1/2+y,1/2-z
1/2-x,1/2-y,-z
1/2+x,1/2-y,1/2+z
loop_
_atom_site_type_symbol
_atom_site_label
_atom_site_fract_x
_atom_site_fract_y
_atom_site_fract_z
Si Si1 0.069040 0.779952 0.832929
Si Si2 0.598573 0.988122 0.241531
Si Si3 0.906361 0.586022 0.416294
Si Si4 0.329521 0.823058 0.312390
Si Si5 0.074000 0.746289 0.164223
Si Si6 0.215746 0.841154 0.090368
Si Si7 0.977514 0.082136 0.092593
O O1 0.195548 0.754847 0.889345
O O2 0.060826 0.856273 0.878818
O O3 0.000000 0.857810 0.750000
O O4 0.003990 0.617930 0.801505
O O5 0.641183 0.912301 0.218005
O O6 0.704754 0.964867 0.337203
O O7 0.555070 0.155318 0.201540
O O8 0.826742 0.449136 0.351742
O O9 0.965455 0.653103 0.404068
O O10 0.843568 0.722375 0.407740
O O11 0.000000 0.500000 0.500000
O O12 0.208503 0.750205 0.237568
O O13 0.425184 0.693613 0.371702
O O14 0.026502 0.915160 0.131247
O O15 0.122645 0.914210 0.002897
#
# Coordination Sequence:
#
# PCOD9271438 Si02
#       7
#     8   8   8   8   8   8   8
#     4   9  21  40  65  84 114 164 211 237 296 370
#     4   9  20  39  59  83 118 162 200 244 290 358
#     4  11  22  38  59  93 124 156 193 252 308 357
#     4  10  20  36  59  87 121 156 200 240 297 367
#     4  11  23  37  61  88 124 158 201 248 303 361
#     4  11  21  39  65  88 121 160 207 248 307 362
#     4  11  22  38  63  93 119 156 203 257 302 356
#
# _framework density 18.838090000000001
#
# number of rings (size 3 to 8) (size 9 to 14) (size 15 to 20)
#    0.000    1.714    2.857    2.143    4.000    1.714 
#    0.000    2.857    0.000    0.000    0.000    0.000 
#    0.000    0.000    0.000    0.000    0.000    0.000 
#
# Total GULP energy -156119.332515 kJ/mol
# GULP energy per Si atom -5575.690447 kJ/mol
# Density = 1.879521 g / cm^3
# Si number density = 18.838090 Si / 1000 Ang^3
#
#
#
# Elastic Constant Matrix: (Units=GPa)
#
#
# Indices 1 2 3 4 5 6 
#
# 1 64.0689 21.6987 27.6249 0.0000 -11.2510 0.0000
# 2 21.6987 97.0512 51.5638 0.0000 -15.2977 -0.0001
# 3 27.6249 51.5638 124.8729 0.0000 -10.6641 0.0000
# 4 0.0000 0.0000 0.0000 30.0075 0.0000 -9.4062
# 5 -11.2510 -15.2977 -10.6641 0.0000 23.8882 0.0000
# 6 0.0000 -0.0001 0.0000 -9.4062 0.0000 8.6411
#
#
#
# Elastic Compliance Matrix: (Units=1/GPa)
#
#
# Indices 1 2 3 4 5 6 
#
# 1 0.018521 -0.001594 -0.002891 0.000000 0.006411 0.000000
# 2 -0.001594 0.014303 -0.005027 0.000000 0.006164 0.000000
# 3 -0.002891 -0.005027 0.010742 0.000000 0.000214 0.000000
# 4 0.000000 0.000000 0.000000 0.050586 0.000000 0.055064
# 5 0.006411 0.006164 0.000214 0.000000 0.048925 0.000000
# 6 0.000000 0.000000 0.000000 0.055064 0.000000 0.175665
#
#
# Mechanical properties :
#
#
# Convention : Reuss Voigt Hill
#
# Bulk Modulus (GPa) = 40.74909 54.19641 47.47275
# Shear Modulus (GPa) = 14.45313 24.84773 19.65043
#
# Velocity S-wave (km/s) = 2.77290 3.63577 3.23324
# Velocity P-wave (km/s) = 5.65067 6.81594 6.26048
#
# Compressibility (1/GPa) = 0.02454043
#
# Stress axis : x y z
#
# Youngs Moduli (GPa) = 53.99378 69.91659 93.09340
#
# Poissons Ratio (x) = 0.11145 0.26918
# Poissons Ratio (y) = 0.08607 0.46798
# Poissons Ratio (z) = 0.15612 0.35147
#
# Static dielectric constant tensor:
#      x y z
#    x 1.674880 0.000000 -0.045380 
#    y 0.000000 1.689980 0.000000 
#    z -0.045380 0.000000 1.684560 
# 
# From -- ./inp_files/298566.got.cif
#   From: 2010.05.17/outbox.cif.g08.bks.cpg/sg15_150_cif.got.tgz:298566.got - 2010.06.03 18:47:42.
