data_PCOD9271626
_publ_section_title
;
Structure prediction by ZEFSAII (Michael W. Deem and Ramdas Pophale) SiO2 
 PCOD9271626
Probable space group: C 2/C
;
_chemical_formula_sum "Si O2"
_cell_formula_units_Z 48
_cell_length_a 17.204465
_cell_length_b 5.646907
_cell_length_c 23.105713
_cell_angle_alpha 90.000000
_cell_angle_beta 80.257879
_cell_angle_gamma 90.000000
_cell_volume 2212.395529
_symmetry_space_group_name_H-M "C 2/C"
_symmetry_group_IT_number 15
_symmetry_cell_setting 'monoclinic'
loop_
_space_group_symop_operation_xyz
x,y,z
-x,y,1/2-z
-x,-y,-z
x,-y,1/2+z
1/2+x,1/2+y,z
1/2-x,1/2+y,1/2-z
1/2-x,1/2-y,-z
1/2+x,1/2-y,1/2+z
loop_
_atom_site_type_symbol
_atom_site_label
_atom_site_fract_x
_atom_site_fract_y
_atom_site_fract_z
Si Si1 0.702045 0.979136 0.751846
Si Si2 0.658776 0.238464 0.140675
Si Si3 0.312456 0.945250 0.624686
Si Si4 0.564322 0.479093 0.579014
Si Si5 0.716012 0.150227 0.563262
Si Si6 0.560370 0.197923 0.967407
O O1 0.739713 0.245584 0.747793
O O2 0.650030 0.952930 0.816672
O O3 0.659099 0.932328 0.696069
O O4 0.728093 0.425879 0.143788
O O5 0.575731 0.349671 0.132471
O O6 0.690316 0.114876 0.077967
O O7 0.364971 0.071044 0.569963
O O8 0.284413 0.696302 0.602249
O O9 0.634156 0.291680 0.579594
O O10 0.483415 0.344449 0.577606
O O11 0.577915 0.623461 0.517618
O O12 0.750000 0.250000 0.500000
O O13 0.500000 0.000000 0.000000
#
# Coordination Sequence:
#
# PCOD9271626 Si02
#       6
#     8   8   8   8   8   8
#     4  10  20  39  62  97 124 157 206 273 326 376
#     4  10  20  36  60  89 120 154 207 267 322 377
#     4  10  21  35  59  92 117 158 207 263 320 380
#     4  10  22  36  56  85 121 165 199 254 317 383
#     4  11  19  33  58  88 118 149 199 260 323 367
#     4  11  22  39  57  84 126 166 210 252 317 395
#
# _framework density 21.695941000000001
#
# number of rings (size 3 to 8) (size 9 to 14) (size 15 to 20)
#    0.000    1.667    1.667    4.000    0.000    4.000 
#    0.000    0.000    0.000    6.000    0.000    0.000 
#    0.000    0.000    0.000    0.000    0.000    0.000 
#
# Total GULP energy -133706.291370 kJ/mol
# GULP energy per Si atom -5571.095474 kJ/mol
# Density = 2.164656 g / cm^3
# Si number density = 21.695941 Si / 1000 Ang^3
#
#
#
# Elastic Constant Matrix: (Units=GPa)
#
#
# Indices 1 2 3 4 5 6 
#
# 1 69.6426 22.9142 12.6010 0.0000 20.3054 0.0000
# 2 22.9142 66.8246 1.4046 0.0000 11.2022 0.0000
# 3 12.6010 1.4046 56.6164 0.0000 18.9735 0.0000
# 4 0.0000 0.0000 0.0000 29.9201 0.0000 14.8565
# 5 20.3054 11.2022 18.9735 0.0000 22.9272 0.0000
# 6 0.0000 0.0000 0.0000 14.8565 0.0000 37.9236
#
#
#
# Elastic Compliance Matrix: (Units=1/GPa)
#
#
# Indices 1 2 3 4 5 6 
#
# 1 0.020514 -0.004177 0.001304 0.000000 -0.017207 0.000000
# 2 -0.004177 0.017562 0.002947 0.000000 -0.007320 0.000000
# 3 0.001304 0.002947 0.025142 0.000000 -0.023401 0.000000
# 4 0.000000 0.000000 0.000000 0.041494 0.000000 -0.016255
# 5 -0.017207 -0.007320 -0.023401 0.000000 0.081798 0.000000
# 6 0.000000 0.000000 0.000000 -0.016255 0.000000 0.032737
#
#
# Mechanical properties :
#
#
# Convention : Reuss Voigt Hill
#
# Bulk Modulus (GPa) = 15.78129 29.65815 22.71972
# Shear Modulus (GPa) = 20.81424 28.56509 24.68967
#
# Velocity S-wave (km/s) = 3.10072 3.63245 3.37706
# Velocity P-wave (km/s) = 4.48429 5.59397 5.06958
#
# Compressibility (1/GPa) = 0.06336618
#
# Stress axis : x y z
#
# Youngs Moduli (GPa) = 48.74626 56.94063 39.77475
#
# Poissons Ratio (x) = 0.23786 -0.05187
# Poissons Ratio (y) = 0.20363 -0.11723
# Poissons Ratio (z) = -0.06357 -0.16782
#
# Static dielectric constant tensor:
#      x y z
#    x 1.859890 0.000000 0.090940 
#    y 0.000000 1.932290 0.000000 
#    z 0.090940 0.000000 1.868870 
# 
# From -- ./inp_files/275612.got.cif
#   From: 2010.05.17/outbox.cif.g08.bks.cpg/sg15_138_cif.got.tgz:275612.got - 2010.06.03 18:47:42.
