data_PCOD9271188
_publ_section_title
;
Structure prediction by ZEFSAII (Michael W. Deem and Ramdas Pophale) SiO2 
 PCOD9271188
Probable space group: C 2/C
;
_chemical_formula_sum "Si O2"
_cell_formula_units_Z 56
_cell_length_a 24.588149
_cell_length_b 7.014471
_cell_length_c 21.964365
_cell_angle_alpha 90.000000
_cell_angle_beta 142.830849
_cell_angle_gamma 90.000000
_cell_volume 2288.751731
_symmetry_space_group_name_H-M "C 2/C"
_symmetry_group_IT_number 15
_symmetry_cell_setting 'monoclinic'
loop_
_space_group_symop_operation_xyz
x,y,z
-x,y,1/2-z
-x,-y,-z
x,-y,1/2+z
1/2+x,1/2+y,z
1/2-x,1/2+y,1/2-z
1/2-x,1/2-y,-z
1/2+x,1/2-y,1/2+z
loop_
_atom_site_type_symbol
_atom_site_label
_atom_site_fract_x
_atom_site_fract_y
_atom_site_fract_z
Si Si1 0.216978 0.671877 0.533566
Si Si2 0.412546 0.706089 0.143551
Si Si3 0.296203 0.174220 0.332383
Si Si4 0.826998 0.229928 0.386845
Si Si5 0.754402 0.277824 0.084567
Si Si6 0.476883 0.180809 0.434518
Si Si7 0.985680 0.585915 0.165524
O O1 0.250000 0.750000 0.500000
O O2 0.235252 0.799826 0.608927
O O3 0.248873 0.453752 0.568961
O O4 0.110031 0.675749 0.435377
O O5 0.500000 0.596088 0.250000
O O6 0.351448 0.817731 0.140487
O O7 0.464363 0.861072 0.149157
O O8 0.331749 0.633585 0.027978
O O9 0.219511 0.152877 0.214201
O O10 0.259999 0.293805 0.356867
O O11 0.385375 0.260037 0.381375
O O12 0.321410 0.962039 0.377077
O O13 0.933467 0.189108 0.484339
O O14 0.458986 0.129365 0.346866
O O15 0.500000 0.000000 0.500000
O O16 0.000000 0.637928 0.250000
#
# Coordination Sequence:
#
# PCOD9271188 Si02
#       7
#     8   8   8   8   8   8   8
#     4   9  18  34  52  70 110 140 173 224 270 323
#     4   9  17  32  53  77 111 135 178 223 274 320
#     4  10  20  36  58  80 113 149 184 231 278 331
#     4   9  20  36  54  82 107 144 188 224 280 328
#     4   9  19  34  51  81 111 138 178 228 272 323
#     4   9  18  34  55  77 112 146 185 227 277 332
#     4   9  18  30  51  83 100 133 188 231 261 325
#
# _framework density 24.467486000000001
#
# number of rings (size 3 to 8) (size 9 to 14) (size 15 to 20)
#    0.000    2.857    0.000    2.571    2.000    5.714 
#    5.143    1.429    3.143    0.000    0.000    0.000 
#    0.000    0.000    0.000    0.000    0.000    0.000 
#
# Total GULP energy -155990.664169 kJ/mol
# GULP energy per Si atom -5571.095149 kJ/mol
# Density = 2.441180 g / cm^3
# Si number density = 24.467486 Si / 1000 Ang^3
#
#
#
# Elastic Constant Matrix: (Units=GPa)
#
#
# Indices 1 2 3 4 5 6 
#
# 1 166.6079 9.5971 57.6660 0.0000 -25.3891 0.0000
# 2 9.5971 61.4100 1.0505 0.0002 -4.2986 0.0001
# 3 57.6660 1.0505 122.1223 0.0000 -6.8558 0.0000
# 4 0.0000 0.0002 0.0000 13.7220 0.0000 -4.9352
# 5 -25.3891 -4.2986 -6.8558 0.0000 52.4457 0.0000
# 6 0.0000 0.0001 0.0000 -4.9352 0.0000 4.3710
#
#
#
# Elastic Compliance Matrix: (Units=1/GPa)
#
#
# Indices 1 2 3 4 5 6 
#
# 1 0.007747 -0.000926 -0.003469 0.000000 0.003221 0.000000
# 2 -0.000926 0.016489 0.000349 -0.000001 0.000949 -0.000001
# 3 -0.003469 0.000349 0.009803 0.000000 -0.000369 0.000000
# 4 0.000000 -0.000001 0.000000 0.122705 0.000000 0.138546
# 5 0.003221 0.000949 -0.000369 0.000000 0.020656 0.000000
# 6 0.000000 -0.000001 0.000000 0.138546 0.000000 0.385212
#
#
# Mechanical properties :
#
#
# Convention : Reuss Voigt Hill
#
# Bulk Modulus (GPa) = 38.54166 54.08528 46.31347
# Shear Modulus (GPa) = 8.63029 32.89616 20.76322
#
# Velocity S-wave (km/s) = 1.88013 3.67070 2.91624
# Velocity P-wave (km/s) = 4.52765 6.33390 5.50536
#
# Compressibility (1/GPa) = 0.02594595
#
# Stress axis : x y z
#
# Youngs Moduli (GPa) = 129.08039 60.64597 102.00948
#
# Poissons Ratio (x) = 0.05615 0.35391
# Poissons Ratio (y) = 0.11952 -0.03556
# Poissons Ratio (z) = 0.44783 -0.02114
#
# Static dielectric constant tensor:
#      x y z
#    x 2.018520 0.000000 -0.077100 
#    y 0.000000 2.016670 0.000000 
#    z -0.077100 0.000000 1.992280 
# 
# From -- ./inp_files/255303.got.cif
#   From: 2010.05.17/outbox.cif.g08.bks.cpg/sg15_128_cif.got.tgz:255303.got - 2010.06.03 18:47:42.
