data_PCOD9271696
_publ_section_title
;
Structure prediction by ZEFSAII (Michael W. Deem and Ramdas Pophale) SiO2 
 PCOD9271696
Probable space group: C 2/C
;
_chemical_formula_sum "Si O2"
_cell_formula_units_Z 52
_cell_length_a 14.583699
_cell_length_b 24.129553
_cell_length_c 13.457087
_cell_angle_alpha 90.000000
_cell_angle_beta 32.112195
_cell_angle_gamma 90.000000
_cell_volume 2517.304428
_symmetry_space_group_name_H-M "C 2/C"
_symmetry_group_IT_number 15
_symmetry_cell_setting 'monoclinic'
loop_
_space_group_symop_operation_xyz
x,y,z
-x,y,1/2-z
-x,-y,-z
x,-y,1/2+z
1/2+x,1/2+y,z
1/2-x,1/2+y,1/2-z
1/2-x,1/2-y,-z
1/2+x,1/2-y,1/2+z
loop_
_atom_site_type_symbol
_atom_site_label
_atom_site_fract_x
_atom_site_fract_y
_atom_site_fract_z
Si Si1 0.253398 0.996444 0.628328
Si Si2 0.511965 0.337939 0.431080
Si Si3 0.782890 0.744373 0.350897
Si Si4 0.353439 0.977111 0.251827
Si Si5 0.500000 0.165464 0.250000
Si Si6 0.044038 0.094271 0.099605
Si Si7 0.706168 0.579359 0.496358
O O1 0.559134 0.028397 0.574586
O O2 0.183370 0.036957 0.607729
O O3 0.297922 0.029485 0.688077
O O4 0.105069 0.951534 0.784485
O O5 0.668265 0.302445 0.242334
O O6 0.446451 0.386708 0.417111
O O7 0.542742 0.362495 0.511142
O O8 0.750000 0.750000 0.500000
O O9 0.857981 0.792955 0.573239
O O10 0.951725 0.704081 0.200990
O O11 0.302021 0.040148 0.327863
O O12 0.229010 0.936630 0.427516
O O13 0.338219 0.125712 0.412842
O O14 0.000000 0.116202 0.250000
#
# Coordination Sequence:
#
# PCOD9271696 Si02
#       7
#     8   8   8   8   4   8   8
#     4  11  23  41  64 100 144 188 229 275 329 429
#     4  11  26  45  67 101 133 177 229 293 353 408
#     4  11  22  45  67  99 136 163 226 293 354 417
#     4  11  23  41  62 101 144 187 230 270 331 429
#     4  10  20  36  60  94 130 170 206 268 350 402
#     4  12  26  45  67  96 142 186 235 280 336 409
#     4  11  21  39  66  99 141 176 218 273 348 413
#
# _framework density 20.657017
#
# number of rings (size 3 to 8) (size 9 to 14) (size 15 to 20)
#    0.000    0.923    6.154    0.462    0.000    3.692 
#    5.538    0.769    0.000    0.000    0.000    0.000 
#    0.000    0.000    0.000    0.000    0.000    0.000 
#
# Total GULP energy -145297.575644 kJ/mol
# GULP energy per Si atom -5588.368294 kJ/mol
# Density = 2.061000 g / cm^3
# Si number density = 20.657017 Si / 1000 Ang^3
#
#
#
# Elastic Constant Matrix: (Units=GPa)
#
#
# Indices 1 2 3 4 5 6 
#
# 1 110.8141 46.4521 58.2567 -0.0110 9.6842 0.0183
# 2 46.4521 90.0113 54.5467 -0.0125 12.6056 0.0207
# 3 58.2567 54.5467 122.7893 -0.0027 5.7629 0.0034
# 4 -0.0110 -0.0125 -0.0027 54.1490 0.0061 2.0618
# 5 9.6842 12.6056 5.7629 0.0061 40.6215 -0.0125
# 6 0.0183 0.0207 0.0034 2.0618 -0.0125 36.8342
#
#
#
# Elastic Compliance Matrix: (Units=1/GPa)
#
#
# Indices 1 2 3 4 5 6 
#
# 1 0.013095 -0.003899 -0.004420 0.000002 -0.001285 -0.000004
# 2 -0.003899 0.016964 -0.005519 0.000004 -0.003552 -0.000008
# 3 -0.004420 -0.005519 0.012647 -0.000002 0.000972 0.000005
# 4 0.000002 0.000004 -0.000002 0.018507 -0.000004 -0.001036
# 5 -0.001285 -0.003552 0.000972 -0.000004 0.025888 0.000012
# 6 -0.000004 -0.000008 0.000005 -0.001036 0.000012 0.027207
#
#
# Mechanical properties :
#
#
# Convention : Reuss Voigt Hill
#
# Bulk Modulus (GPa) = 66.53964 71.34732 68.94348
# Shear Modulus (GPa) = 34.01477 37.27820 35.64649
#
# Velocity S-wave (km/s) = 4.06229 4.25270 4.15858
# Velocity P-wave (km/s) = 7.36780 7.66342 7.51706
#
# Compressibility (1/GPa) = 0.01502864
#
# Stress axis : x y z
#
# Youngs Moduli (GPa) = 76.36682 58.94819 79.06755
#
# Poissons Ratio (x) = 0.22985 0.34950
# Poissons Ratio (y) = 0.29777 0.43640
# Poissons Ratio (z) = 0.33756 0.32535
#
# Static dielectric constant tensor:
#      x y z
#    x 1.767560 -0.000010 -0.049950 
#    y -0.000010 1.750680 0.000010 
#    z -0.049950 0.000010 1.874910 
# 
# From -- ./inp_files/100235.got.cif
#   From: 2010.05.17/outbox.cif.g08.bks.cpg/sg15_51_cif.got.tgz:100235.got - 2010.06.03 18:47:42.
