data_PCOD9271255
_publ_section_title
;
Structure prediction by ZEFSAII (Michael W. Deem and Ramdas Pophale) SiO2 
 PCOD9271255
Probable space group: C 2/C
;
_chemical_formula_sum "Si O2"
_cell_formula_units_Z 48
_cell_length_a 15.622491
_cell_length_b 8.934946
_cell_length_c 17.582739
_cell_angle_alpha 90.000000
_cell_angle_beta 102.462343
_cell_angle_gamma 90.000000
_cell_volume 2396.477958
_symmetry_space_group_name_H-M "C 2/C"
_symmetry_group_IT_number 15
_symmetry_cell_setting 'monoclinic'
loop_
_space_group_symop_operation_xyz
x,y,z
-x,y,1/2-z
-x,-y,-z
x,-y,1/2+z
1/2+x,1/2+y,z
1/2-x,1/2+y,1/2-z
1/2-x,1/2-y,-z
1/2+x,1/2-y,1/2+z
loop_
_atom_site_type_symbol
_atom_site_label
_atom_site_fract_x
_atom_site_fract_y
_atom_site_fract_z
Si Si1 0.542736 0.390805 0.878615
Si Si2 0.704528 0.273763 0.293404
Si Si3 0.953172 0.367307 0.445685
Si Si4 0.861754 0.898332 0.754963
Si Si5 0.398222 0.280113 0.077549
Si Si6 0.551441 0.083398 0.186733
O O1 0.522738 0.258720 0.933352
O O2 0.449385 0.425607 0.820719
O O3 0.606708 0.342835 0.822016
O O4 0.579452 0.543775 0.921224
O O5 0.797589 0.211967 0.286258
O O6 0.687418 0.445243 0.268228
O O7 0.679817 0.256395 0.377475
O O8 0.632436 0.177850 0.233082
O O9 0.887261 0.289713 0.492080
O O10 0.920303 0.451942 0.364369
O O11 0.000000 0.500000 0.500000
O O12 0.482349 0.195103 0.131793
O O13 0.500000 0.019053 0.250000
#
# Coordination Sequence:
#
# PCOD9271255 Si02
#       6
#     8   8   8   8   8   8
#     4  10  20  38  59  85 113 152 191 230 285 338
#     4  10  20  36  58  85 116 146 189 240 289 327
#     4  10  21  33  58  87 113 147 195 230 279 338
#     4  10  22  35  62  88 113 145 195 238 280 335
#     4   9  18  38  58  79 114 153 185 229 286 343
#     4   9  18  33  56  84 113 147 187 238 280 333
#
# _framework density 20.029392999999999
#
# number of rings (size 3 to 8) (size 9 to 14) (size 15 to 20)
#    0.000    2.333    1.667    0.500    4.667    2.667 
#    0.000    0.833    3.667    3.000    0.000    0.000 
#    0.000    0.000    0.000    0.000    0.000    0.000 
#
# Total GULP energy -134012.926717 kJ/mol
# GULP energy per Si atom -5583.871947 kJ/mol
# Density = 1.998381 g / cm^3
# Si number density = 20.029393 Si / 1000 Ang^3
#
#
#
# Elastic Constant Matrix: (Units=GPa)
#
#
# Indices 1 2 3 4 5 6 
#
# 1 85.5304 47.5857 30.5295 0.0000 -28.0586 0.0000
# 2 47.5857 114.0756 72.6271 0.0000 -37.0113 0.0000
# 3 30.5295 72.6271 99.4846 0.0000 -33.2755 0.0000
# 4 0.0000 0.0000 0.0000 42.9157 0.0000 -1.2539
# 5 -28.0586 -37.0113 -33.2755 0.0000 29.8232 0.0000
# 6 0.0000 0.0000 0.0000 -1.2539 0.0000 21.0082
#
#
#
# Elastic Compliance Matrix: (Units=1/GPa)
#
#
# Indices 1 2 3 4 5 6 
#
# 1 0.017915 -0.004497 0.002483 0.000000 0.014044 0.000000
# 2 -0.004497 0.020213 -0.010212 0.000000 0.009459 0.000000
# 3 0.002483 -0.010212 0.021199 0.000000 0.013315 0.000000
# 4 0.000000 0.000000 0.000000 0.023342 0.000000 0.001393
# 5 0.014044 0.009459 0.013315 0.000000 0.073340 0.000000
# 6 0.000000 0.000000 0.000000 0.001393 0.000000 0.047684
#
#
# Mechanical properties :
#
#
# Convention : Reuss Voigt Hill
#
# Bulk Modulus (GPa) = 28.67514 66.73058 47.70286
# Shear Modulus (GPa) = 20.85349 28.63930 24.74640
#
# Velocity S-wave (km/s) = 3.23018 3.78546 3.51879
# Velocity P-wave (km/s) = 5.31598 7.24534 6.35431
#
# Compressibility (1/GPa) = 0.03487341
#
# Stress axis : x y z
#
# Youngs Moduli (GPa) = 55.81993 49.47433 47.17312
#
# Poissons Ratio (x) = 0.22250 -0.11713
# Poissons Ratio (y) = 0.25104 0.48172
# Poissons Ratio (z) = -0.13860 0.50522
#
# Static dielectric constant tensor:
#      x y z
#    x 1.696960 0.000000 0.002310 
#    y 0.000000 1.693420 0.000000 
#    z 0.002310 0.000000 1.744350 
# 
# From -- ./inp_files/202976.got.cif
#   From: 2010.05.17/outbox.cif.g08.bks.cpg/sg15_102_cif.got.tgz:202976.got - 2010.06.03 18:47:42.
