data_PCOD9271873
_publ_section_title
;
Structure prediction by ZEFSAII (Michael W. Deem and Ramdas Pophale) SiO2 
 PCOD9271873
Probable space group: C 2/C
;
_chemical_formula_sum "Si O2"
_cell_formula_units_Z 52
_cell_length_a 5.856812
_cell_length_b 29.533030
_cell_length_c 14.891623
_cell_angle_alpha 90.000000
_cell_angle_beta 116.305190
_cell_angle_gamma 90.000000
_cell_volume 2309.062023
_symmetry_space_group_name_H-M "C 2/C"
_symmetry_group_IT_number 15
_symmetry_cell_setting 'monoclinic'
loop_
_space_group_symop_operation_xyz
x,y,z
-x,y,1/2-z
-x,-y,-z
x,-y,1/2+z
1/2+x,1/2+y,z
1/2-x,1/2+y,1/2-z
1/2-x,1/2-y,-z
1/2+x,1/2-y,1/2+z
loop_
_atom_site_type_symbol
_atom_site_label
_atom_site_fract_x
_atom_site_fract_y
_atom_site_fract_z
Si Si1 0.500000 0.488888 0.750000
Si Si2 0.490195 0.801311 0.010769
Si Si3 0.750354 0.892584 0.026337
Si Si4 0.996391 0.246684 0.845400
Si Si5 0.740019 0.844137 0.348863
Si Si6 0.491622 0.031750 0.910225
Si Si7 0.758996 0.540948 0.142463
O O1 0.746613 0.518815 0.808081
O O2 0.480419 0.458014 0.834280
O O3 0.632189 0.843628 0.989861
O O4 0.710927 0.767556 0.084356
O O5 0.331893 0.822712 0.065795
O O6 0.372082 0.774076 0.906529
O O7 0.567464 0.918197 0.066068
O O8 0.038509 0.881647 0.106803
O O9 0.752381 0.923846 0.939263
O O10 0.000000 0.270768 0.750000
O O11 0.847716 0.199136 0.813149
O O12 0.500000 0.861266 0.250000
O O13 0.721978 0.010514 0.893203
O O14 0.500000 0.000000 0.000000
O O15 0.000000 0.549957 0.250000
#
# Coordination Sequence:
#
# PCOD9271873 Si02
#       7
#     4   8   8   8   8   8   8
#     4  10  20  36  62  88 112 162 216 240 312 378
#     4  10  22  38  60  90 122 164 211 260 315 370
#     4  10  23  38  59  92 127 157 208 263 315 372
#     4  10  20  40  64  84 120 170 213 250 309 390
#     4  11  22  38  62  93 130 166 201 263 324 374
#     4   9  20  38  58  82 117 159 201 246 303 366
#     4   9  20  40  63  85 118 165 210 259 310 374
#
# _framework density 22.519967999999999
#
# number of rings (size 3 to 8) (size 9 to 14) (size 15 to 20)
#    0.000    2.154    1.538    0.462    0.000    9.231 
#    0.000    1.538    0.000    0.000    0.000    0.000 
#    0.000    0.000    0.000    0.000    0.000    0.000 
#
# Total GULP energy -145064.613844 kJ/mol
# GULP energy per Si atom -5579.408225 kJ/mol
# Density = 2.246871 g / cm^3
# Si number density = 22.519968 Si / 1000 Ang^3
#
#
#
# Elastic Constant Matrix: (Units=GPa)
#
#
# Indices 1 2 3 4 5 6 
#
# 1 58.9005 23.8598 22.1785 0.0000 -15.8938 0.0000
# 2 23.8598 86.6247 51.4126 0.0000 0.3460 0.0000
# 3 22.1785 51.4126 95.7986 0.0000 -16.5782 0.0000
# 4 0.0000 0.0000 0.0000 27.2041 0.0000 -5.2818
# 5 -15.8938 0.3460 -16.5782 0.0000 44.2824 0.0000
# 6 0.0000 0.0000 0.0000 -5.2818 0.0000 27.0494
#
#
#
# Elastic Compliance Matrix: (Units=1/GPa)
#
#
# Indices 1 2 3 4 5 6 
#
# 1 0.021510 -0.005531 -0.000714 0.000000 0.007496 0.000000
# 2 -0.005531 0.018975 -0.009915 0.000000 -0.005845 0.000000
# 3 -0.000714 -0.009915 0.016995 0.000000 0.006183 0.000000
# 4 0.000000 0.000000 0.000000 0.038208 0.000000 0.007461
# 5 0.007496 -0.005845 0.006183 0.000000 0.027633 0.000000
# 6 0.000000 0.000000 0.000000 0.007461 0.000000 0.038426
#
#
# Mechanical properties :
#
#
# Convention : Reuss Voigt Hill
#
# Bulk Modulus (GPa) = 39.74440 48.46951 44.10696
# Shear Modulus (GPa) = 24.69705 29.29871 26.99788
#
# Velocity S-wave (km/s) = 3.31520 3.61087 3.46619
# Velocity P-wave (km/s) = 5.68690 6.24132 5.97055
#
# Compressibility (1/GPa) = 0.02516078
#
# Stress axis : x y z
#
# Youngs Moduli (GPa) = 46.49015 52.70061 58.84112
#
# Poissons Ratio (x) = 0.29146 0.04204
# Poissons Ratio (y) = 0.25712 0.58338
# Poissons Ratio (z) = 0.03322 0.52250
#
# Static dielectric constant tensor:
#      x y z
#    x 1.932150 0.000000 -0.011270 
#    y 0.000000 1.822060 0.000000 
#    z -0.011270 0.000000 1.864690 
# 
# From -- ./inp_files/130884.got.cif
#   From: 2010.05.17/outbox.cif.g08.bks.cpg/sg15_66_cif.got.tgz:130884.got - 2010.06.03 18:47:42.
