data_PCOD9271136
_publ_section_title
;
Structure prediction by ZEFSAII (Michael W. Deem and Ramdas Pophale) SiO2 
 PCOD9271136
Probable space group: C 2/C
;
_chemical_formula_sum "Si O2"
_cell_formula_units_Z 52
_cell_length_a 22.166859
_cell_length_b 15.470364
_cell_length_c 19.377024
_cell_angle_alpha 90.000000
_cell_angle_beta 155.163136
_cell_angle_gamma 90.000000
_cell_volume 2791.118930
_symmetry_space_group_name_H-M "C 2/C"
_symmetry_group_IT_number 15
_symmetry_cell_setting 'monoclinic'
loop_
_space_group_symop_operation_xyz
x,y,z
-x,y,1/2-z
-x,-y,-z
x,-y,1/2+z
1/2+x,1/2+y,z
1/2-x,1/2+y,1/2-z
1/2-x,1/2-y,-z
1/2+x,1/2-y,1/2+z
loop_
_atom_site_type_symbol
_atom_site_label
_atom_site_fract_x
_atom_site_fract_y
_atom_site_fract_z
Si Si1 0.656470 0.691122 0.695443
Si Si2 0.967833 0.155848 0.080965
Si Si3 0.920896 0.472335 0.016826
Si Si4 0.986887 0.643591 0.007469
Si Si5 0.500000 0.060182 0.750000
Si Si6 0.184234 0.703112 0.866628
Si Si7 0.906800 0.990544 0.333563
O O1 0.560001 0.672246 0.528090
O O2 0.604774 0.788098 0.656935
O O3 0.614502 0.611837 0.702931
O O4 0.825196 0.680697 0.851497
O O5 0.080425 0.226253 0.224589
O O6 0.814681 0.172843 0.955444
O O7 0.021978 0.057419 0.146061
O O8 0.754134 0.474320 0.821833
O O9 0.986674 0.388537 0.044687
O O10 0.995671 0.555874 0.061104
O O11 0.926275 0.482296 0.105879
O O12 0.607128 0.121210 0.819232
O O13 0.250000 0.750000 0.000000
O O14 0.000000 0.000000 0.500000
#
# Coordination Sequence:
#
# PCOD9271136 Si02
#       7
#     8   8   8   8   4   8   8
#     4  10  20  36  57  87 110 151 192 248 293 349
#     4  11  21  35  53  80 119 154 190 239 286 352
#     4  10  22  40  59  89 120 158 197 248 298 364
#     4  10  22  38  62  87 120 151 201 246 302 348
#     4  12  22  38  60  84 120 162 200 242 298 364
#     4  12  23  35  52  82 117 160 196 227 287 364
#     4   9  21  36  57  84 119 152 200 246 295 343
#
# _framework density 18.630521000000002
#
# number of rings (size 3 to 8) (size 9 to 14) (size 15 to 20)
#    0.000    1.538    1.538    3.692    6.462    1.231 
#    0.000    0.000    0.000    3.692    4.000    0.000 
#    0.000    0.000    0.000    0.000    0.000    0.000 
#
# Total GULP energy -144808.130641 kJ/mol
# GULP energy per Si atom -5569.543486 kJ/mol
# Density = 1.858812 g / cm^3
# Si number density = 18.630521 Si / 1000 Ang^3
#
#
#
# Elastic Constant Matrix: (Units=GPa)
#
#
# Indices 1 2 3 4 5 6 
#
# 1 73.5498 45.2029 32.2673 -0.0005 2.1534 -0.0003
# 2 45.2029 109.9806 44.3349 -0.0002 12.0950 -0.0001
# 3 32.2673 44.3349 80.1577 -0.0005 12.6168 -0.0004
# 4 -0.0005 -0.0002 -0.0005 39.5923 -0.0007 8.1380
# 5 2.1534 12.0950 12.6168 -0.0007 26.7002 -0.0005
# 6 -0.0003 -0.0001 -0.0004 8.1380 -0.0005 34.8152
#
#
#
# Elastic Compliance Matrix: (Units=1/GPa)
#
#
# Indices 1 2 3 4 5 6 
#
# 1 0.019627 -0.006502 -0.004882 0.000000 0.003670 0.000000
# 2 -0.006502 0.014003 -0.004550 0.000000 -0.003669 0.000000
# 3 -0.004882 -0.004550 0.017902 0.000000 -0.006005 0.000000
# 4 0.000000 0.000000 0.000000 0.026532 0.000001 -0.006202
# 5 0.003670 -0.003669 -0.006005 0.000001 0.041656 0.000000
# 6 0.000000 0.000000 0.000000 -0.006202 0.000000 0.030173
#
#
# Mechanical properties :
#
#
# Convention : Reuss Voigt Hill
#
# Bulk Modulus (GPa) = 50.85559 56.36649 53.61104
# Shear Modulus (GPa) = 26.55115 29.68038 28.11577
#
# Velocity S-wave (km/s) = 3.77920 3.99570 3.88896
# Velocity P-wave (km/s) = 6.81171 7.18388 7.00027
#
# Compressibility (1/GPa) = 0.01966352
#
# Stress axis : x y z
#
# Youngs Moduli (GPa) = 50.95063 71.41521 55.85897
#
# Poissons Ratio (x) = 0.46437 0.27270
# Poissons Ratio (y) = 0.33130 0.25415
# Poissons Ratio (z) = 0.24874 0.32493
#
# Static dielectric constant tensor:
#      x y z
#    x 1.600250 0.000000 -0.034090 
#    y 0.000000 1.870230 0.000000 
#    z -0.034090 0.000000 1.679660 
# 
# From -- ./inp_files/61424.got.cif
#   From: 2010.05.17/outbox.cif.g08.bks.cpg/sg15_31_cif.got.tgz:61424.got - 2010.06.03 18:47:42.
