data_PCOD9271259
_publ_section_title
;
Structure prediction by ZEFSAII (Michael W. Deem and Ramdas Pophale) SiO2 
 PCOD9271259
Probable space group: C 2/C
;
_chemical_formula_sum "Si O2"
_cell_formula_units_Z 64
_cell_length_a 17.715094
_cell_length_b 24.447027
_cell_length_c 15.085976
_cell_angle_alpha 90.000000
_cell_angle_beta 154.146503
_cell_angle_gamma 90.000000
_cell_volume 2849.053899
_symmetry_space_group_name_H-M "C 2/C"
_symmetry_group_IT_number 15
_symmetry_cell_setting 'monoclinic'
loop_
_space_group_symop_operation_xyz
x,y,z
-x,y,1/2-z
-x,-y,-z
x,-y,1/2+z
1/2+x,1/2+y,z
1/2-x,1/2+y,1/2-z
1/2-x,1/2-y,-z
1/2+x,1/2-y,1/2+z
loop_
_atom_site_type_symbol
_atom_site_label
_atom_site_fract_x
_atom_site_fract_y
_atom_site_fract_z
Si Si1 0.670152 0.566724 0.812600
Si Si2 0.703472 0.816048 0.110791
Si Si3 0.494528 0.008082 0.135341
Si Si4 0.055646 0.613316 0.707302
Si Si5 0.294221 0.201232 0.187125
Si Si6 0.750594 0.806050 0.657239
Si Si7 0.199193 0.917749 0.547824
Si Si8 0.135758 0.813841 0.023365
O O1 0.754092 0.626229 0.887639
O O2 0.469902 0.567659 0.573882
O O3 0.797373 0.522870 0.903569
O O4 0.673175 0.558997 0.921684
O O5 0.763563 0.762491 0.120084
O O6 0.804745 0.817147 0.311071
O O7 0.498951 0.809317 0.908978
O O8 0.500000 0.010508 0.250000
O O9 0.623784 0.054109 0.234590
O O10 0.553725 0.948123 0.168853
O O11 0.904387 0.650688 0.507033
O O12 0.000000 0.609238 0.750000
O O13 0.239491 0.643272 0.892796
O O14 0.212663 0.203112 0.199747
O O15 0.214097 0.147820 0.057527
O O16 0.681588 0.748601 0.545110
O O17 0.930151 0.822685 0.800845
#
# Coordination Sequence:
#
# PCOD9271259 Si02
#       8
#     8   8   8   8   8   8   8   8
#     4  10  20  36  58  85 118 156 197 242 286 331
#     4  11  20  35  59  85 118 157 196 235 288 349
#     4   9  20  39  59  81 117 157 192 239 294 343
#     4  11  24  41  63  91 114 147 199 241 290 357
#     4  11  20  35  59  85 118 157 196 235 288 349
#     4  11  21  40  61  85 120 155 186 232 298 352
#     4  10  20  36  58  85 118 156 197 242 286 331
#     4  11  21  40  61  85 120 155 186 232 298 352
#
# _framework density 22.463598000000001
#
# number of rings (size 3 to 8) (size 9 to 14) (size 15 to 20)
#    0.000    1.500    3.750    3.750    0.000    2.500 
#    0.000    5.000    0.000    3.000    0.000    0.000 
#    0.000    0.000    0.000    0.000    0.000    0.000 
#
# Total GULP energy -178759.466719 kJ/mol
# GULP energy per Si atom -5586.233335 kJ/mol
# Density = 2.241247 g / cm^3
# Si number density = 22.463598 Si / 1000 Ang^3
#
#
#
# Elastic Constant Matrix: (Units=GPa)
#
#
# Indices 1 2 3 4 5 6 
#
# 1 47.9263 17.4434 19.9935 0.0000 26.0051 0.0000
# 2 17.4434 104.1572 9.7900 0.0000 31.4687 0.0000
# 3 19.9935 9.7900 81.7658 0.0000 47.7228 0.0000
# 4 0.0000 0.0000 0.0000 20.7324 0.0000 0.4559
# 5 26.0051 31.4687 47.7228 0.0000 45.5887 0.0000
# 6 0.0000 0.0000 0.0000 0.4559 0.0000 13.5877
#
#
#
# Elastic Compliance Matrix: (Units=1/GPa)
#
#
# Indices 1 2 3 4 5 6 
#
# 1 0.032319 0.002843 0.009414 0.000000 -0.030252 0.000000
# 2 0.002843 0.015498 0.011926 0.000000 -0.024803 0.000000
# 3 0.009414 0.011926 0.042257 0.000000 -0.057837 0.000000
# 4 0.000000 0.000000 0.000000 0.048269 0.000000 -0.001619
# 5 -0.030252 -0.024803 -0.057837 0.000000 0.116858 0.000000
# 6 0.000000 0.000000 0.000000 -0.001619 0.000000 0.073651
#
#
# Mechanical properties :
#
#
# Convention : Reuss Voigt Hill
#
# Bulk Modulus (GPa) = 7.22346 36.47814 21.85080
# Shear Modulus (GPa) = 15.30775 28.42322 21.86549
#
# Velocity S-wave (km/s) = 2.61329 3.56097 3.12328
# Velocity P-wave (km/s) = 3.51117 5.76032 4.77020
#
# Compressibility (1/GPa) = 0.13843772
#
# Stress axis : x y z
#
# Youngs Moduli (GPa) = 30.94193 64.52618 23.66474
#
# Poissons Ratio (x) = -0.18343 -0.22278
# Poissons Ratio (y) = -0.08796 -0.28222
# Poissons Ratio (z) = -0.29128 -0.76952
#
# Static dielectric constant tensor:
#      x y z
#    x 1.872690 0.000000 -0.022810 
#    y 0.000000 1.835780 0.000000 
#    z -0.022810 0.000000 1.853700 
# 
# From -- ./inp_files/217130.got.cif
#   From: 2010.05.17/outbox.cif.g08.bks.cpg/sg15_109_cif.got.tgz:217130.got - 2010.06.03 18:47:42.
