data_PCOD9271203
_publ_section_title
;
Structure prediction by ZEFSAII (Michael W. Deem and Ramdas Pophale) SiO2 
 PCOD9271203
Probable space group: C 2/C
;
_chemical_formula_sum "Si O2"
_cell_formula_units_Z 44
_cell_length_a 32.172948
_cell_length_b 13.950108
_cell_length_c 19.887625
_cell_angle_alpha 90.000000
_cell_angle_beta 166.530946
_cell_angle_gamma 90.000000
_cell_volume 2079.018712
_symmetry_space_group_name_H-M "C 2/C"
_symmetry_group_IT_number 15
_symmetry_cell_setting 'monoclinic'
loop_
_space_group_symop_operation_xyz
x,y,z
-x,y,1/2-z
-x,-y,-z
x,-y,1/2+z
1/2+x,1/2+y,z
1/2-x,1/2+y,1/2-z
1/2-x,1/2-y,-z
1/2+x,1/2-y,1/2+z
loop_
_atom_site_type_symbol
_atom_site_label
_atom_site_fract_x
_atom_site_fract_y
_atom_site_fract_z
Si Si1 0.938848 0.814244 0.723351
Si Si2 0.667533 0.314405 0.428135
Si Si3 0.000000 0.639916 0.750000
Si Si4 0.744132 0.983063 0.152090
Si Si5 0.655449 0.513973 0.343059
Si Si6 0.784451 0.268858 0.355611
O O1 0.870188 0.712990 0.585930
O O2 0.000000 0.866609 0.750000
O O3 0.819840 0.884265 0.580612
O O4 0.113819 0.780114 0.039517
O O5 0.750000 0.250000 0.500000
O O6 0.696275 0.424941 0.455387
O O7 0.754736 0.283873 0.635828
O O8 0.457773 0.285858 0.100694
O O9 0.878376 0.569396 0.514997
O O10 0.670369 0.879433 0.055568
O O11 0.943430 0.989237 0.493731
O O12 0.754045 0.997785 0.086909
#
# Coordination Sequence:
#
# PCOD9271203 Si02
#       6
#     8   8   4   8   8   8
#     4   9  22  40  56  84 115 158 196 241 294 351
#     4  11  21  35  63  92 116 152 199 247 296 355
#     4  10  20  36  58  82 110 152 198 234 294 336
#     4  10  20  37  60  82 116 159 191 242 292 360
#     4  10  21  37  58  85 117 152 199 236 298 352
#     4  10  21  38  60  86 121 151 196 248 295 350
#
# _framework density 21.163830000000001
#
# number of rings (size 3 to 8) (size 9 to 14) (size 15 to 20)
#    0.545    1.455    1.818    2.182    2.545    0.727 
#    0.000    0.000    0.000    2.182    0.000    0.000 
#    0.000    0.000    0.000    0.000    0.000    0.000 
#
# Total GULP energy -122660.861110 kJ/mol
# GULP energy per Si atom -5575.493687 kJ/mol
# Density = 2.111566 g / cm^3
# Si number density = 21.163830 Si / 1000 Ang^3
#
#
#
# Elastic Constant Matrix: (Units=GPa)
#
#
# Indices 1 2 3 4 5 6 
#
# 1 78.6260 11.3464 -0.6745 0.0002 -14.0841 0.0002
# 2 11.3464 128.5914 -8.0087 0.0001 -8.3262 0.0001
# 3 -0.6745 -8.0087 38.1970 0.0002 -15.1290 0.0002
# 4 0.0002 0.0001 0.0002 14.3294 0.0002 -3.5102
# 5 -14.0841 -8.3262 -15.1290 0.0002 27.9662 0.0002
# 6 0.0002 0.0001 0.0002 -3.5102 0.0002 31.9014
#
#
#
# Elastic Compliance Matrix: (Units=1/GPa)
#
#
# Indices 1 2 3 4 5 6 
#
# 1 0.014466 -0.000442 0.003813 0.000000 0.009216 0.000000
# 2 -0.000442 0.008285 0.003332 0.000000 0.004047 0.000000
# 3 0.003813 0.003332 0.035762 -0.000001 0.022259 0.000000
# 4 0.000000 0.000000 -0.000001 0.071720 -0.000001 0.007892
# 5 0.009216 0.004047 0.022259 -0.000001 0.053645 -0.000001
# 6 0.000000 0.000000 0.000000 0.007892 -0.000001 0.032215
#
#
# Mechanical properties :
#
#
# Convention : Reuss Voigt Hill
#
# Bulk Modulus (GPa) = 13.90444 27.86008 20.88226
# Shear Modulus (GPa) = 22.05941 31.02280 26.54111
#
# Velocity S-wave (km/s) = 3.23200 3.83278 3.54514
# Velocity P-wave (km/s) = 4.52901 5.72534 5.16195
#
# Compressibility (1/GPa) = 0.07191949
#
# Stress axis : x y z
#
# Youngs Moduli (GPa) = 69.12827 120.69835 27.96236
#
# Poissons Ratio (x) = 0.05337 -0.10663
# Poissons Ratio (y) = 0.03057 -0.09317
# Poissons Ratio (z) = -0.26360 -0.40218
#
# Static dielectric constant tensor:
#      x y z
#    x 1.778280 0.000000 -0.027090 
#    y 0.000000 1.771960 0.000000 
#    z -0.027090 0.000000 1.747040 
# 
# From -- ./inp_files/225420.got.cif
#   From: 2010.05.17/outbox.cif.g08.bks.cpg/sg15_113_cif.got.tgz:225420.got - 2010.06.03 18:47:42.
