data_PCOD9271388
_publ_section_title
;
Structure prediction by ZEFSAII (Michael W. Deem and Ramdas Pophale) SiO2 
 PCOD9271388
Probable space group: C 2/C
;
_chemical_formula_sum "Si O2"
_cell_formula_units_Z 56
_cell_length_a 21.137938
_cell_length_b 22.327965
_cell_length_c 5.489870
_cell_angle_alpha 90.000000
_cell_angle_beta 107.609360
_cell_angle_gamma 90.000000
_cell_volume 2469.625452
_symmetry_space_group_name_H-M "C 2/C"
_symmetry_group_IT_number 15
_symmetry_cell_setting 'monoclinic'
loop_
_space_group_symop_operation_xyz
x,y,z
-x,y,1/2-z
-x,-y,-z
x,-y,1/2+z
1/2+x,1/2+y,z
1/2-x,1/2+y,1/2-z
1/2-x,1/2-y,-z
1/2+x,1/2-y,1/2+z
loop_
_atom_site_type_symbol
_atom_site_label
_atom_site_fract_x
_atom_site_fract_y
_atom_site_fract_z
Si Si1 0.078353 0.024548 0.788442
Si Si2 0.500000 0.659291 0.250000
Si Si3 0.435815 0.254519 0.268753
Si Si4 0.760359 0.856972 0.502044
Si Si5 0.350494 0.040144 0.638525
Si Si6 0.112231 0.134615 0.055691
Si Si7 0.000000 0.461165 0.250000
Si Si8 0.801186 0.250601 0.780474
O O1 0.000000 0.015077 0.750000
O O2 0.108139 0.998322 0.577968
O O3 0.092900 0.094709 0.804842
O O4 0.534675 0.701943 0.489342
O O5 0.556143 0.619194 0.190267
O O6 0.500000 0.219590 0.250000
O O7 0.372297 0.222348 0.292431
O O8 0.403317 0.296495 0.021774
O O9 0.707565 0.909698 0.400640
O O10 0.814477 0.875656 0.765034
O O11 0.804870 0.820325 0.354148
O O12 0.721187 0.798640 0.547962
O O13 0.425831 0.067810 0.692672
O O14 0.344418 0.000557 0.379785
O O15 0.000000 0.500000 0.500000
O O16 0.750000 0.250000 0.500000
#
# Coordination Sequence:
#
# PCOD9271388 Si02
#       8
#     8   4   8   8   8   8   4   8
#     4  10  23  37  55  82 120 161 213 275 330 377
#     4  10  20  36  59  84 116 156 220 265 316 396
#     4  10  21  37  65  90 116 166 219 278 324 400
#     4  11  25  40  67  99 133 185 223 281 356 417
#     4  10  23  43  73 105 142 182 236 290 350 425
#     4  11  22  37  58  87 118 170 217 264 333 394
#     4   8  16  38  67  98 134 178 220 283 356 416
#     4  11  23  44  65  92 139 178 225 280 352 427
#
# _framework density 22.675505000000001
#
# number of rings (size 3 to 8) (size 9 to 14) (size 15 to 20)
#    0.000    1.714    2.857    1.286    7.000    1.143 
#    0.000    2.143    1.571    0.000    0.000    0.000 
#    0.000    0.000    0.000    0.000    0.000    0.000 
#
# Total GULP energy -155931.985143 kJ/mol
# GULP energy per Si atom -5568.999469 kJ/mol
# Density = 2.262389 g / cm^3
# Si number density = 22.675505 Si / 1000 Ang^3
#
#
#
# Elastic Constant Matrix: (Units=GPa)
#
#
# Indices 1 2 3 4 5 6 
#
# 1 122.4359 15.1920 9.6922 0.0000 13.3571 0.0000
# 2 15.1920 38.7368 7.5502 0.0000 -4.9343 0.0000
# 3 9.6922 7.5502 76.8916 0.0000 -5.6822 0.0000
# 4 0.0000 0.0000 0.0000 13.8247 0.0000 1.3612
# 5 13.3571 -4.9343 -5.6822 0.0000 31.8164 0.0000
# 6 0.0000 0.0000 0.0000 1.3612 0.0000 29.9445
#
#
#
# Elastic Compliance Matrix: (Units=1/GPa)
#
#
# Indices 1 2 3 4 5 6 
#
# 1 0.009269 -0.004017 -0.001122 0.000000 -0.004715 0.000000
# 2 -0.004017 0.028489 -0.001865 0.000000 0.005772 0.000000
# 3 -0.001122 -0.001865 0.013522 0.000000 0.002597 0.000000
# 4 0.000000 0.000000 0.000000 0.072660 0.000000 -0.003303
# 5 -0.004715 0.005772 0.002597 0.000000 0.034769 0.000000
# 6 0.000000 0.000000 0.000000 -0.003303 0.000000 0.033545
#
#
# Mechanical properties :
#
#
# Convention : Reuss Voigt Hill
#
# Bulk Modulus (GPa) = 26.82959 33.65927 30.24443
# Shear Modulus (GPa) = 22.86387 28.82579 25.84483
#
# Velocity S-wave (km/s) = 3.17883 3.56930 3.37971
# Velocity P-wave (km/s) = 5.03299 5.64470 5.34760
#
# Compressibility (1/GPa) = 0.03727228
#
# Stress axis : x y z
#
# Youngs Moduli (GPa) = 107.88442 35.10094 73.95471
#
# Poissons Ratio (x) = 0.14100 0.08300
# Poissons Ratio (y) = 0.43338 0.13789
# Poissons Ratio (z) = 0.12108 0.06545
#
# Static dielectric constant tensor:
#      x y z
#    x 1.960460 0.000000 -0.086470 
#    y 0.000000 1.862130 0.000000 
#    z -0.086470 0.000000 1.942950 
# 
# From -- ./inp_files/13953.got.cif
#   From: 2010.05.17/outbox.cif.g08.bks.cpg/sg15_7_cif.got.tgz:13953.got - 2010.06.03 18:47:42.
