data_PCOD9271721
_publ_section_title
;
Structure prediction by ZEFSAII (Michael W. Deem and Ramdas Pophale) SiO2 
 PCOD9271721
Probable space group: C 2/C
;
_chemical_formula_sum "Si O2"
_cell_formula_units_Z 56
_cell_length_a 24.065932
_cell_length_b 9.026004
_cell_length_c 15.555044
_cell_angle_alpha 90.000000
_cell_angle_beta 133.692345
_cell_angle_gamma 90.000000
_cell_volume 2443.112435
_symmetry_space_group_name_H-M "C 2/C"
_symmetry_group_IT_number 15
_symmetry_cell_setting 'monoclinic'
loop_
_space_group_symop_operation_xyz
x,y,z
-x,y,1/2-z
-x,-y,-z
x,-y,1/2+z
1/2+x,1/2+y,z
1/2-x,1/2+y,1/2-z
1/2-x,1/2-y,-z
1/2+x,1/2-y,1/2+z
loop_
_atom_site_type_symbol
_atom_site_label
_atom_site_fract_x
_atom_site_fract_y
_atom_site_fract_z
Si Si1 0.264058 0.693545 0.111375
Si Si2 0.805160 0.073558 0.389635
Si Si3 0.727994 0.080188 0.480785
Si Si4 0.410781 0.402320 0.854263
Si Si5 0.398576 0.867883 0.542253
Si Si6 0.034897 0.794044 0.114296
Si Si7 0.153159 0.630814 0.128062
O O1 0.348580 0.706184 0.243222
O O2 0.193564 0.734749 0.098719
O O3 0.250000 0.750000 0.000000
O O4 0.258875 0.514201 0.093605
O O5 0.772007 0.017467 0.444635
O O6 0.871320 0.019476 0.395804
O O7 0.839116 0.239926 0.445208
O O8 0.729275 0.065470 0.251809
O O9 0.750000 0.250000 0.500000
O O10 0.636484 0.079538 0.403357
O O11 0.440538 0.540797 0.830063
O O12 0.481244 0.315301 0.971823
O O13 0.481299 0.791188 0.624589
O O14 0.395191 0.006630 0.473788
O O15 0.106947 0.703942 0.156198
#
# Coordination Sequence:
#
# PCOD9271721 Si02
#       7
#     8   8   8   8   8   8   8
#     4  10  22  39  61  92 122 153 209 260 304 365
#     4   9  19  33  60  84 113 153 207 248 296 353
#     4   9  19  34  58  83 121 152 199 253 299 357
#     4   9  21  38  60  87 118 159 205 247 297 375
#     4   9  19  37  51  86 118 155 197 254 301 369
#     4  10  20  36  61  83 125 158 199 246 308 373
#     4  10  21  33  62  85 116 156 202 255 305 365
#
# _framework density 22.921581
#
# number of rings (size 3 to 8) (size 9 to 14) (size 15 to 20)
#    0.000    2.571    0.000    0.429   10.000    2.286 
#    0.000    1.429    3.143    3.429    0.000    0.000 
#    0.000    0.000    0.000    0.000    0.000    0.000 
#
# Total GULP energy -155889.090520 kJ/mol
# GULP energy per Si atom -5567.467519 kJ/mol
# Density = 2.286941 g / cm^3
# Si number density = 22.921581 Si / 1000 Ang^3
#
#
#
# Elastic Constant Matrix: (Units=GPa)
#
#
# Indices 1 2 3 4 5 6 
#
# 1 68.6036 0.0922 14.2540 0.0000 5.9724 0.0000
# 2 0.0922 33.8868 -2.7238 0.0000 -0.2126 0.0000
# 3 14.2540 -2.7238 54.5148 0.0000 7.2927 0.0000
# 4 0.0000 0.0000 0.0000 14.4967 0.0000 0.7697
# 5 5.9724 -0.2126 7.2927 0.0000 30.3879 0.0000
# 6 0.0000 0.0000 0.0000 0.7697 0.0000 43.3369
#
#
#
# Elastic Compliance Matrix: (Units=1/GPa)
#
#
# Indices 1 2 3 4 5 6 
#
# 1 0.015553 -0.000361 -0.003797 0.000000 -0.002148 0.000000
# 2 -0.000361 0.029638 0.001589 0.000000 -0.000103 0.000000
# 3 -0.003797 0.001589 0.019955 0.000000 -0.004032 0.000000
# 4 0.000000 0.000000 0.000000 0.069046 0.000000 -0.001226
# 5 -0.002148 -0.000103 -0.004032 0.000000 0.034297 0.000000
# 6 0.000000 0.000000 0.000000 -0.001226 0.000000 0.023097
#
#
# Mechanical properties :
#
#
# Convention : Reuss Voigt Hill
#
# Bulk Modulus (GPa) = 16.66455 20.02779 18.34617
# Shear Modulus (GPa) = 23.07045 27.33649 25.20347
#
# Velocity S-wave (km/s) = 3.17597 3.45716 3.31955
# Velocity P-wave (km/s) = 4.55358 4.96915 4.76590
#
# Compressibility (1/GPa) = 0.06000762
#
# Stress axis : x y z
#
# Youngs Moduli (GPa) = 64.29643 33.74034 50.11212
#
# Poissons Ratio (x) = 0.01218 0.19029
# Poissons Ratio (y) = 0.02321 -0.07963
# Poissons Ratio (z) = 0.24416 -0.05361
#
# Static dielectric constant tensor:
#      x y z
#    x 1.942600 0.000000 0.284850 
#    y 0.000000 2.000350 0.000000 
#    z 0.284850 0.000000 0.757680 
# 
# From -- ./inp_files/222094.got.cif
#   From: 2010.05.17/outbox.cif.g08.bks.cpg/sg15_112_cif.got.tgz:222094.got - 2010.06.03 18:47:42.
