data_PCOD9271918
_publ_section_title
;
Structure prediction by ZEFSAII (Michael W. Deem and Ramdas Pophale) SiO2 
 PCOD9271918
Probable space group: C 2/C
;
_chemical_formula_sum "Si O2"
_cell_formula_units_Z 44
_cell_length_a 5.154878
_cell_length_b 27.613268
_cell_length_c 15.054695
_cell_angle_alpha 90.000000
_cell_angle_beta 89.053603
_cell_angle_gamma 90.000000
_cell_volume 2142.638540
_symmetry_space_group_name_H-M "C 2/C"
_symmetry_group_IT_number 15
_symmetry_cell_setting 'monoclinic'
loop_
_space_group_symop_operation_xyz
x,y,z
-x,y,1/2-z
-x,-y,-z
x,-y,1/2+z
1/2+x,1/2+y,z
1/2-x,1/2+y,1/2-z
1/2-x,1/2-y,-z
1/2+x,1/2-y,1/2+z
loop_
_atom_site_type_symbol
_atom_site_label
_atom_site_fract_x
_atom_site_fract_y
_atom_site_fract_z
Si Si1 0.756347 0.266024 0.198379
Si Si2 0.500000 0.329467 0.750000
Si Si3 0.599229 0.453867 0.445955
Si Si4 0.599158 0.175281 0.964354
Si Si5 0.590953 0.076834 0.851038
Si Si6 0.603945 0.356814 0.559997
O O1 0.500000 0.283290 0.250000
O O2 0.800905 0.280837 0.097076
O O3 0.000000 0.287607 0.250000
O O4 0.788054 0.208658 0.213396
O O5 0.611249 0.358258 0.666189
O O6 0.500000 0.500000 0.500000
O O7 0.881466 0.458026 0.400169
O O8 0.626189 0.409152 0.514424
O O9 0.382270 0.440356 0.372855
O O10 0.570438 0.129699 0.896961
O O11 0.826110 0.162299 0.030527
O O12 0.328255 0.177780 0.018272
O O13 0.500000 0.079634 0.750000
#
# Coordination Sequence:
#
# PCOD9271918 Si02
#       6
#     8   4   8   8   8   8
#     4  10  22  37  57  86 118 153 196 252 279 351
#     4  10  26  40  56  84 124 152 212 232 298 352
#     4  10  21  40  62  87 124 151 194 244 298 357
#     4  10  21  38  61  86 115 156 194 242 309 333
#     4  10  20  36  62  91 118 149 191 246 293 354
#     4  10  23  39  61  83 117 162 192 247 295 357
#
# _framework density 20.535428
#
# number of rings (size 3 to 8) (size 9 to 14) (size 15 to 20)
#    0.545    1.455    0.000    2.727    2.545    4.364 
#    3.273    0.000    0.000    0.000    0.000    0.000 
#    0.000    0.000    0.000    0.000    0.000    0.000 
#
# Total GULP energy -122747.238914 kJ/mol
# GULP energy per Si atom -5579.419951 kJ/mol
# Density = 2.048869 g / cm^3
# Si number density = 20.535428 Si / 1000 Ang^3
#
#
#
# Elastic Constant Matrix: (Units=GPa)
#
#
# Indices 1 2 3 4 5 6 
#
# 1 100.9147 16.1996 30.5190 0.0000 -23.7619 0.0000
# 2 16.1996 38.4161 28.3451 0.0000 0.3338 0.0000
# 3 30.5190 28.3451 138.5553 0.0000 -2.3363 0.0000
# 4 0.0000 0.0000 0.0000 21.4229 0.0000 -1.7611
# 5 -23.7619 0.3338 -2.3363 0.0000 19.3879 0.0000
# 6 0.0000 0.0000 0.0000 -1.7611 0.0000 12.1071
#
#
#
# Elastic Compliance Matrix: (Units=1/GPa)
#
#
# Indices 1 2 3 4 5 6 
#
# 1 0.015976 -0.005360 -0.002095 0.000000 0.019420 0.000000
# 2 -0.005360 0.032489 -0.005597 0.000000 -0.007803 0.000000
# 3 -0.002095 -0.005597 0.008800 0.000000 -0.001411 0.000000
# 4 0.000000 0.000000 0.000000 0.047244 0.000000 0.006872
# 5 0.019420 -0.007803 -0.001411 0.000000 0.075344 0.000000
# 6 0.000000 0.000000 0.000000 0.006872 0.000000 0.083596
#
#
# Mechanical properties :
#
#
# Convention : Reuss Voigt Hill
#
# Bulk Modulus (GPa) = 32.09203 47.55704 39.82454
# Shear Modulus (GPa) = 16.66996 24.10508 20.38752
#
# Velocity S-wave (km/s) = 2.85224 3.42984 3.15429
# Velocity P-wave (km/s) = 5.14865 6.23649 5.71850
#
# Compressibility (1/GPa) = 0.03116038
#
# Stress axis : x y z
#
# Youngs Moduli (GPa) = 62.59320 30.77987 113.63506
#
# Poissons Ratio (x) = 0.16498 0.23807
# Poissons Ratio (y) = 0.33549 0.63606
# Poissons Ratio (z) = 0.13114 0.17229
#
# Static dielectric constant tensor:
#      x y z
#    x 1.735190 0.000000 0.005670 
#    y 0.000000 1.741050 0.000000 
#    z 0.005670 0.000000 1.656290 
# 
# From -- ./inp_files/73861.got.cif
#   From: 2010.05.17/outbox.cif.g08.bks.cpg/sg15_37_cif.got.tgz:73861.got - 2010.06.03 18:47:42.
