data_PCOD9271039
_publ_section_title
;
Structure prediction by ZEFSAII (Michael W. Deem and Ramdas Pophale) SiO2 
 PCOD9271039
Probable space group: C 2/C
;
_chemical_formula_sum "Si O2"
_cell_formula_units_Z 60
_cell_length_a 25.997381
_cell_length_b 8.061857
_cell_length_c 12.836317
_cell_angle_alpha 90.000000
_cell_angle_beta 85.862923
_cell_angle_gamma 90.000000
_cell_volume 2683.317160
_symmetry_space_group_name_H-M "C 2/C"
_symmetry_group_IT_number 15
_symmetry_cell_setting 'monoclinic'
loop_
_space_group_symop_operation_xyz
x,y,z
-x,y,1/2-z
-x,-y,-z
x,-y,1/2+z
1/2+x,1/2+y,z
1/2-x,1/2+y,1/2-z
1/2-x,1/2-y,-z
1/2+x,1/2-y,1/2+z
loop_
_atom_site_type_symbol
_atom_site_label
_atom_site_fract_x
_atom_site_fract_y
_atom_site_fract_z
Si Si1 0.360577 0.857411 0.069472
Si Si2 0.295805 0.726969 0.760309
Si Si3 0.326801 0.480811 0.060569
Si Si4 0.739095 0.022245 0.410201
Si Si5 0.931910 0.133986 0.572170
Si Si6 0.894866 0.406636 0.743424
Si Si7 0.466024 0.731726 0.064104
Si Si8 0.500000 0.953932 0.250000
O O1 0.335122 0.676923 0.066938
O O2 0.317882 0.986922 0.035598
O O3 0.417927 0.825737 0.017053
O O4 0.372784 0.933750 0.183087
O O5 0.316926 0.586477 0.678258
O O6 0.260737 0.644514 0.852339
O O7 0.345038 0.822017 0.802628
O O8 0.267049 0.849636 0.684286
O O9 0.279806 0.433191 0.992799
O O10 0.380280 0.398933 0.011974
O O11 0.914368 0.270157 0.657082
O O12 0.983776 0.198307 0.511700
O O13 0.945564 0.947389 0.607621
O O14 0.948213 0.449903 0.791002
O O15 0.483297 0.842749 0.156595
#
# Coordination Sequence:
#
# PCOD9271039 Si02
#       8
#     8   8   8   8   8   8   8   4
#     4   9  19  35  59  80 119 152 190 246 295 355
#     4  10  22  40  59  86 122 158 196 256 301 355
#     4  10  20  39  60  87 117 158 202 247 300 371
#     4  11  21  38  60  89 117 159 204 242 309 366
#     4   9  19  39  58  82 116 159 193 244 299 363
#     4   9  20  39  57  85 122 153 192 247 306 351
#     4   9  19  38  58  82 117 153 198 239 303 356
#     4  10  20  36  56  90 114 154 194 246 296 360
#
# _framework density 22.360382999999999
#
# number of rings (size 3 to 8) (size 9 to 14) (size 15 to 20)
#    0.000    2.400    0.000    1.600    0.000    2.667 
#   26.400    0.000    2.933    0.000    0.000    0.000 
#    0.000    0.000    0.000    0.000    0.000    0.000 
#
# Total GULP energy -167344.816308 kJ/mol
# GULP energy per Si atom -5578.160544 kJ/mol
# Density = 2.230949 g / cm^3
# Si number density = 22.360383 Si / 1000 Ang^3
#
#
#
# Elastic Constant Matrix: (Units=GPa)
#
#
# Indices 1 2 3 4 5 6 
#
# 1 153.3996 29.1184 20.2058 0.0000 18.7804 0.0000
# 2 29.1184 61.1743 18.8587 0.0000 3.7690 0.0000
# 3 20.2058 18.8587 34.1395 0.0000 -0.8375 0.0000
# 4 0.0000 0.0000 0.0000 17.7866 0.0000 -7.3101
# 5 18.7804 3.7690 -0.8375 0.0000 19.9457 0.0000
# 6 0.0000 0.0000 0.0000 -7.3101 0.0000 51.7087
#
#
#
# Elastic Compliance Matrix: (Units=1/GPa)
#
#
# Indices 1 2 3 4 5 6 
#
# 1 0.008408 -0.002338 -0.003872 0.000000 -0.007637 0.000000
# 2 -0.002338 0.020707 -0.010107 0.000000 -0.002136 0.000000
# 3 -0.003872 -0.010107 0.037341 0.000000 0.007124 0.000000
# 4 0.000000 0.000000 0.000000 0.059690 0.000000 0.008438
# 5 -0.007637 -0.002136 0.007124 0.000000 0.058030 0.000000
# 6 0.000000 0.000000 0.000000 0.008438 0.000000 0.020532
#
#
# Mechanical properties :
#
#
# Convention : Reuss Voigt Hill
#
# Bulk Modulus (GPa) = 29.56689 42.78657 36.17673
# Shear Modulus (GPa) = 20.11124 29.92356 25.01740
#
# Velocity S-wave (km/s) = 3.00228 3.66216 3.34852
# Velocity P-wave (km/s) = 5.02691 6.08757 5.58248
#
# Compressibility (1/GPa) = 0.03382161
#
# Stress axis : x y z
#
# Youngs Moduli (GPa) = 118.93767 48.29293 26.77987
#
# Poissons Ratio (x) = 0.11290 0.10370
# Poissons Ratio (y) = 0.27805 0.27067
# Poissons Ratio (z) = 0.46055 0.48811
#
# Static dielectric constant tensor:
#      x y z
#    x 1.888140 0.000000 -0.015710 
#    y 0.000000 1.843370 0.000000 
#    z -0.015710 0.000000 1.757310 
# 
# From -- ./inp_files/180521.got.cif
#   From: 2010.05.17/outbox.cif.g08.bks.cpg/sg15_91_cif.got.tgz:180521.got - 2010.06.03 18:47:42.
