data_PCOD9271610
_publ_section_title
;
Structure prediction by ZEFSAII (Michael W. Deem and Ramdas Pophale) SiO2 
 PCOD9271610
Probable space group: C 2/C
;
_chemical_formula_sum "Si O2"
_cell_formula_units_Z 60
_cell_length_a 9.124994
_cell_length_b 22.914841
_cell_length_c 18.465887
_cell_angle_alpha 90.000000
_cell_angle_beta 132.193304
_cell_angle_gamma 90.000000
_cell_volume 2860.680093
_symmetry_space_group_name_H-M "C 2/C"
_symmetry_group_IT_number 15
_symmetry_cell_setting 'monoclinic'
loop_
_space_group_symop_operation_xyz
x,y,z
-x,y,1/2-z
-x,-y,-z
x,-y,1/2+z
1/2+x,1/2+y,z
1/2-x,1/2+y,1/2-z
1/2-x,1/2-y,-z
1/2+x,1/2-y,1/2+z
loop_
_atom_site_type_symbol
_atom_site_label
_atom_site_fract_x
_atom_site_fract_y
_atom_site_fract_z
Si Si1 0.000000 0.463903 0.250000
Si Si2 0.340641 0.832850 0.517111
Si Si3 0.679653 0.573833 0.530931
Si Si4 0.438213 0.724384 0.871398
Si Si5 0.225331 0.336905 0.174716
Si Si6 0.172297 0.949407 0.486007
Si Si7 0.798798 0.302846 0.069102
Si Si8 0.348265 0.464806 0.258954
O O1 0.158097 0.428583 0.350475
O O2 0.160000 0.491781 0.243236
O O3 0.503652 0.792468 0.608411
O O4 0.324390 0.823296 0.425351
O O5 0.340889 0.901362 0.533821
O O6 0.126966 0.808381 0.469765
O O7 0.736302 0.516636 0.504020
O O8 0.455581 0.561791 0.483579
O O9 0.695744 0.638014 0.505147
O O10 0.389513 0.696378 0.777631
O O11 0.271268 0.712234 0.874072
O O12 0.262539 0.406185 0.193505
O O13 0.027118 0.317268 0.147556
O O14 0.006485 0.941812 0.370029
O O15 0.750000 0.250000 0.000000
O O16 0.500000 0.494818 0.250000
#
# Coordination Sequence:
#
# PCOD9271610 Si02
#       8
#     4   8   8   8   8   8   8   8
#     4  10  20  36  60  88 118 160 222 248 306 382
#     4  11  21  37  60  93 124 158 206 265 316 378
#     4  10  21  38  63  93 120 170 208 256 318 382
#     4  11  22  36  61  90 126 158 213 261 315 366
#     4  12  21  37  62  91 120 164 222 264 306 384
#     4  10  20  37  64  90 127 158 210 264 314 377
#     4  12  23  39  62  93 127 166 214 260 318 388
#     4  11  19  34  61  91 115 155 214 263 304 365
#
# _framework density 20.974034
#
# number of rings (size 3 to 8) (size 9 to 14) (size 15 to 20)
#    0.000    1.067    6.667    1.600    0.000    0.000 
#    0.000    2.667   14.667    0.000    0.000    0.000 
#    0.000    0.000    0.000    0.000    0.000    0.000 
#
# Total GULP energy -167009.383005 kJ/mol
# GULP energy per Si atom -5566.979434 kJ/mol
# Density = 2.092630 g / cm^3
# Si number density = 20.974034 Si / 1000 Ang^3
#
#
#
# Elastic Constant Matrix: (Units=GPa)
#
#
# Indices 1 2 3 4 5 6 
#
# 1 122.3641 25.1348 11.9008 0.0000 3.2169 0.0000
# 2 25.1348 123.4666 13.1141 0.0000 -6.6469 0.0000
# 3 11.9008 13.1141 32.8636 0.0000 -0.7786 0.0000
# 4 0.0000 0.0000 0.0000 -7.5127 0.0000 -6.7319
# 5 3.2169 -6.6469 -0.7786 0.0000 23.1224 0.0000
# 6 0.0000 0.0000 0.0000 -6.7319 0.0000 15.1275
#
#
#
# Elastic Compliance Matrix: (Units=1/GPa)
#
#
# Indices 1 2 3 4 5 6 
#
# 1 0.008802 -0.001613 -0.002586 0.000000 -0.001775 0.000000
# 2 -0.001613 0.008880 -0.002896 0.000000 0.002679 0.000000
# 3 -0.002586 -0.002896 0.032536 0.000000 0.000623 0.000000
# 4 0.000000 0.000000 0.000000 -0.095161 0.000000 -0.042348
# 5 -0.001775 0.002679 0.000623 0.000000 0.044286 0.000000
# 6 0.000000 0.000000 0.000000 -0.042348 0.000000 0.047260
#
#
# Mechanical properties :
#
#
# Convention : Reuss Voigt Hill
#
# Bulk Modulus (GPa) = 27.75623 42.11043 34.93333
# Shear Modulus (GPa) = 68.68148 21.38372 45.03260
#
# Velocity S-wave (km/s) = 5.72862 3.19648 4.63867
# Velocity P-wave (km/s) = 7.55105 5.80898 6.73657
#
# Compressibility (1/GPa) = 0.03602795
#
# Stress axis : x y z
#
# Youngs Moduli (GPa) = 113.61346 112.61890 30.73559
#
# Poissons Ratio (x) = 0.18163 0.07948
# Poissons Ratio (y) = 0.18323 0.08901
# Poissons Ratio (z) = 0.29379 0.32613
#
# Static dielectric constant tensor:
#      x y z
#    x 1.887650 0.000000 -0.000850 
#    y 0.000000 1.808060 0.000000 
#    z -0.000850 0.000000 1.772130 
# 
# From -- ./inp_files/234078.got.cif
#   From: 2010.05.17/outbox.cif.g08.bks.cpg/sg15_118_cif.got.tgz:234078.got - 2010.06.03 18:47:42.
