data_PCOD9271106
_publ_section_title
;
Structure prediction by ZEFSAII (Michael W. Deem and Ramdas Pophale) SiO2 
 PCOD9271106
Probable space group: C 2/C
;
_chemical_formula_sum "Si O2"
_cell_formula_units_Z 48
_cell_length_a 14.069426
_cell_length_b 16.343596
_cell_length_c 27.838709
_cell_angle_alpha 90.000000
_cell_angle_beta 161.787313
_cell_angle_gamma 90.000000
_cell_volume 2000.718604
_symmetry_space_group_name_H-M "C 2/C"
_symmetry_group_IT_number 15
_symmetry_cell_setting 'monoclinic'
loop_
_space_group_symop_operation_xyz
x,y,z
-x,y,1/2-z
-x,-y,-z
x,-y,1/2+z
1/2+x,1/2+y,z
1/2-x,1/2+y,1/2-z
1/2-x,1/2-y,-z
1/2+x,1/2-y,1/2+z
loop_
_atom_site_type_symbol
_atom_site_label
_atom_site_fract_x
_atom_site_fract_y
_atom_site_fract_z
Si Si1 0.381724 0.171519 0.637613
Si Si2 0.810695 0.482203 0.260909
Si Si3 0.928033 0.275282 0.896569
Si Si4 0.695146 0.954602 0.134168
Si Si5 0.786040 0.617068 0.049227
Si Si6 0.845519 0.279337 0.398053
O O1 0.500000 0.159505 0.750000
O O2 0.465143 0.090638 0.648562
O O3 0.596722 0.245810 0.722273
O O4 0.036692 0.203295 0.470132
O O5 0.811887 0.501257 0.318548
O O6 0.476975 0.448515 0.088714
O O7 0.937507 0.564520 0.296975
O O8 0.118250 0.190654 0.995877
O O9 0.092757 0.333425 0.938624
O O10 0.947440 0.312745 0.958279
O O11 0.651680 0.860780 0.132586
O O12 0.000000 0.947126 0.250000
O O13 0.500000 0.000000 0.000000
O O14 0.500000 0.264049 0.250000
#
# Coordination Sequence:
#
# PCOD9271106 Si02
#       6
#     8   8   8   8   8   8
#     4   9  21  40  62  85 116 159 203 245 297 362
#     4  11  22  39  60  88 121 154 199 250 298 353
#     4   9  19  39  59  80 115 161 201 236 294 363
#     4  11  23  37  57  86 120 154 193 245 300 355
#     4  10  21  37  60  85 117 158 200 247 296 351
#     4  10  20  36  57  84 116 151 197 250 299 353
#
# _framework density 23.991379999999999
#
# number of rings (size 3 to 8) (size 9 to 14) (size 15 to 20)
#    0.000    2.000    0.000    4.000    0.000    6.667 
#    0.000    8.333    0.000    0.000    0.000    0.000 
#    0.000    0.000    0.000    0.000    0.000    0.000 
#
# Total GULP energy -133832.072555 kJ/mol
# GULP energy per Si atom -5576.336356 kJ/mol
# Density = 2.393677 g / cm^3
# Si number density = 23.991380 Si / 1000 Ang^3
#
#
#
# Elastic Constant Matrix: (Units=GPa)
#
#
# Indices 1 2 3 4 5 6 
#
# 1 55.2085 20.3061 11.9118 0.0004 16.7324 -0.0020
# 2 20.3061 102.7400 73.4588 -0.0139 26.5490 0.0010
# 3 11.9118 73.4588 89.2408 -0.1410 19.7552 -0.0651
# 4 0.0004 -0.0139 -0.1410 9.7510 0.0493 -20.0690
# 5 16.7324 26.5490 19.7552 0.0493 27.8085 0.0288
# 6 -0.0020 0.0010 -0.0651 -20.0690 0.0288 9.5105
#
#
#
# Elastic Compliance Matrix: (Units=1/GPa)
#
#
# Indices 1 2 3 4 5 6 
#
# 1 0.022397 -0.002559 0.001850 -0.000059 -0.012348 -0.000070
# 2 -0.002559 0.026778 -0.019439 0.000122 -0.010216 0.000152
# 3 0.001850 -0.019439 0.027407 -0.000234 -0.002024 -0.000298
# 4 -0.000059 0.000122 -0.000234 -0.030674 0.000207 -0.064729
# 5 -0.012348 -0.010216 -0.002024 0.000207 0.054581 0.000256
# 6 -0.000070 0.000152 -0.000298 -0.064729 0.000256 -0.031448
#
#
# Mechanical properties :
#
#
# Convention : Reuss Voigt Hill
#
# Bulk Modulus (GPa) = 27.55778 50.94921 39.25350
# Shear Modulus (GPa) = 41.17500 18.84816 30.01158
#
# Velocity S-wave (km/s) = 4.14725 2.80594 3.54069
# Velocity P-wave (km/s) = 5.86893 5.63740 5.75433
#
# Compressibility (1/GPa) = 0.03628739
#
# Stress axis : x y z
#
# Youngs Moduli (GPa) = 44.64801 37.34458 36.48671
#
# Poissons Ratio (x) = 0.09555 -0.06749
# Poissons Ratio (y) = 0.11423 0.70925
# Poissons Ratio (z) = -0.08259 0.72593
#
# Static dielectric constant tensor:
#      x y z
#    x 1.877770 0.000010 -0.006470 
#    y 0.000010 2.011010 0.000010 
#    z -0.006470 0.000010 1.952130 
# 
# From -- ./inp_files/314144.got.cif
#   From: 2010.05.17/outbox.cif.g08.bks.cpg/sg15_158_cif.got.tgz:314144.got - 2010.06.03 18:47:42.
