data_PCOD9271379
_publ_section_title
;
Structure prediction by ZEFSAII (Michael W. Deem and Ramdas Pophale) SiO2 
 PCOD9271379
Probable space group: C 2/C
;
_chemical_formula_sum "Si O2"
_cell_formula_units_Z 40
_cell_length_a 8.458022
_cell_length_b 24.230006
_cell_length_c 13.063489
_cell_angle_alpha 90.000000
_cell_angle_beta 51.646540
_cell_angle_gamma 90.000000
_cell_volume 2099.457578
_symmetry_space_group_name_H-M "C 2/C"
_symmetry_group_IT_number 15
_symmetry_cell_setting 'monoclinic'
loop_
_space_group_symop_operation_xyz
x,y,z
-x,y,1/2-z
-x,-y,-z
x,-y,1/2+z
1/2+x,1/2+y,z
1/2-x,1/2+y,1/2-z
1/2-x,1/2-y,-z
1/2+x,1/2-y,1/2+z
loop_
_atom_site_type_symbol
_atom_site_label
_atom_site_fract_x
_atom_site_fract_y
_atom_site_fract_z
Si Si1 0.723560 0.526433 0.702497
Si Si2 0.113243 0.416252 0.951213
Si Si3 0.014742 0.187550 0.623851
Si Si4 0.982749 0.685499 0.376233
Si Si5 0.728248 0.899191 0.131490
O O1 0.500000 0.535225 0.750000
O O2 0.789760 0.463580 0.657645
O O3 0.735818 0.546222 0.814698
O O4 0.889175 0.562864 0.574288
O O5 0.096819 0.358516 0.900060
O O6 0.234774 0.410801 0.008583
O O7 0.946608 0.251240 0.638340
O O8 0.247524 0.183946 0.499593
O O9 0.000000 0.173669 0.750000
O O10 0.882140 0.146403 0.610088
O O11 0.000000 0.671191 0.250000
O O12 0.500000 0.880603 0.250000
#
# Coordination Sequence:
#
# PCOD9271379 Si02
#       5
#     8   8   8   8   8
#     4  10  21  37  56  77 110 154 194 230 281 348
#     4  10  22  36  54  85 114 143 190 242 288 329
#     4  10  20  39  64  85 112 157 197 225 282 355
#     4  10  22  38  59  87 118 151 189 238 289 339
#     4  10  20  36  59  84 110 147 196 241 281 336
#
# _framework density 19.05254
#
# number of rings (size 3 to 8) (size 9 to 14) (size 15 to 20)
#    0.000    2.000    0.000    4.200    0.000    7.200 
#    0.000    1.000    0.000    0.000    0.000    0.000 
#    0.000    0.000    0.000    0.000    0.000    0.000 
#
# Total GULP energy -111739.818998 kJ/mol
# GULP energy per Si atom -5586.990950 kJ/mol
# Density = 1.900918 g / cm^3
# Si number density = 19.052540 Si / 1000 Ang^3
#
#
#
# Elastic Constant Matrix: (Units=GPa)
#
#
# Indices 1 2 3 4 5 6 
#
# 1 112.1519 70.3248 46.2291 0.0000 19.4102 0.0000
# 2 70.3248 136.5649 51.2670 0.0000 35.4790 0.0000
# 3 46.2291 51.2670 98.2640 0.0000 27.7317 0.0000
# 4 0.0000 0.0000 0.0000 7.1957 0.0000 34.1869
# 5 19.4102 35.4790 27.7317 0.0000 29.9621 0.0000
# 6 0.0000 0.0000 0.0000 34.1869 0.0000 -17.5986
#
#
#
# Elastic Compliance Matrix: (Units=1/GPa)
#
#
# Indices 1 2 3 4 5 6 
#
# 1 0.014160 -0.006328 -0.003906 0.000000 0.001936 0.000000
# 2 -0.006328 0.013955 -0.001079 0.000000 -0.011426 0.000000
# 3 -0.003906 -0.001079 0.015569 0.000000 -0.010602 0.000000
# 4 0.000000 0.000000 0.000000 0.013586 0.000000 0.026391
# 5 0.001936 -0.011426 -0.010602 0.000000 0.055465 0.000000
# 6 0.000000 0.000000 0.000000 0.026391 0.000000 -0.005555
#
#
# Mechanical properties :
#
#
# Convention : Reuss Voigt Hill
#
# Bulk Modulus (GPa) = 47.48922 75.84695 61.66808
# Shear Modulus (GPa) = 36.54315 15.85583 26.19949
#
# Velocity S-wave (km/s) = 4.38427 2.88795 3.71228
# Velocity P-wave (km/s) = 7.11397 7.14255 7.12828
#
# Compressibility (1/GPa) = 0.02105741
#
# Stress axis : x y z
#
# Youngs Moduli (GPa) = 70.62332 71.66082 64.22842
#
# Poissons Ratio (x) = 0.45347 0.25090
# Poissons Ratio (y) = 0.44691 0.06929
# Poissons Ratio (z) = 0.27588 0.07731
#
# Static dielectric constant tensor:
#      x y z
#    x 1.627730 0.000000 -0.006400 
#    y 0.000000 1.665810 0.000000 
#    z -0.006400 0.000000 1.653810 
# 
# From -- ./inp_files/24538.got.cif
#   From: 2010.05.17/outbox.cif.g08.bks.cpg/sg15_13_cif.got.tgz:24538.got - 2010.06.03 18:47:42.
