data_PCOD9271674
_publ_section_title
;
Structure prediction by ZEFSAII (Michael W. Deem and Ramdas Pophale) SiO2 
 PCOD9271674
Probable space group: C 2/C
;
_chemical_formula_sum "Si O2"
_cell_formula_units_Z 56
_cell_length_a 16.603146
_cell_length_b 8.282685
_cell_length_c 26.989283
_cell_angle_alpha 90.000000
_cell_angle_beta 45.791326
_cell_angle_gamma 90.000000
_cell_volume 2660.442879
_symmetry_space_group_name_H-M "C 2/C"
_symmetry_group_IT_number 15
_symmetry_cell_setting 'monoclinic'
loop_
_space_group_symop_operation_xyz
x,y,z
-x,y,1/2-z
-x,-y,-z
x,-y,1/2+z
1/2+x,1/2+y,z
1/2-x,1/2+y,1/2-z
1/2-x,1/2-y,-z
1/2+x,1/2-y,1/2+z
loop_
_atom_site_type_symbol
_atom_site_label
_atom_site_fract_x
_atom_site_fract_y
_atom_site_fract_z
Si Si1 0.437855 0.284843 0.388296
Si Si2 0.736179 0.832317 0.606883
Si Si3 0.672895 0.336683 0.759181
Si Si4 0.229578 0.207126 0.881956
Si Si5 0.944022 0.883917 0.828161
Si Si6 0.518076 0.318380 0.013672
Si Si7 0.339939 0.716545 0.761183
O O1 0.327725 0.187490 0.418031
O O2 0.424180 0.460562 0.369761
O O3 0.464386 0.309570 0.434519
O O4 0.549710 0.216943 0.313512
O O5 0.861090 0.756603 0.556789
O O6 0.658465 0.748283 0.681346
O O7 0.752846 0.019470 0.613071
O O8 0.743171 0.242235 0.687336
O O9 0.543161 0.282648 0.812019
O O10 0.672137 0.527083 0.746462
O O11 0.731521 0.306247 0.785850
O O12 0.326259 0.299938 0.869791
O O13 0.101844 0.261496 0.947255
O O14 0.000000 0.919097 0.750000
O O15 0.500000 0.500000 0.000000
#
# Coordination Sequence:
#
# PCOD9271674 Si02
#       7
#     8   8   8   8   8   8   8
#     4  11  21  41  63  89 120 162 207 251 310 361
#     4  11  23  37  63  91 123 161 207 252 304 362
#     4  10  20  36  60  92 124 157 198 254 309 361
#     4  10  20  41  59  90 126 163 201 250 303 367
#     4   9  20  36  62  88 124 155 199 260 313 355
#     4  10  23  41  63  83 126 171 202 247 305 370
#     4  11  22  36  65  94 123 158 205 255 311 360
#
# _framework density 21.049126999999999
#
# number of rings (size 3 to 8) (size 9 to 14) (size 15 to 20)
#    0.000    1.714    1.429    4.286    6.000    4.571 
#    0.000    5.714    0.000    0.000    0.000    0.000 
#    0.000    0.000    0.000    0.000    0.000    0.000 
#
# Total GULP energy -156244.485400 kJ/mol
# GULP energy per Si atom -5580.160193 kJ/mol
# Density = 2.100122 g / cm^3
# Si number density = 21.049127 Si / 1000 Ang^3
#
#
#
# Elastic Constant Matrix: (Units=GPa)
#
#
# Indices 1 2 3 4 5 6 
#
# 1 104.5372 16.0559 13.2959 0.0000 -21.1397 0.0008
# 2 16.0559 37.6100 7.0427 -0.0001 -5.7812 0.0011
# 3 13.2959 7.0427 62.3709 0.0000 -18.6169 0.0000
# 4 0.0000 -0.0001 0.0000 10.7530 0.0000 -0.8260
# 5 -21.1397 -5.7812 -18.6169 0.0000 38.5457 0.0001
# 6 0.0008 0.0011 0.0000 -0.8260 0.0001 35.0906
#
#
#
# Elastic Compliance Matrix: (Units=1/GPa)
#
#
# Indices 1 2 3 4 5 6 
#
# 1 0.011315 -0.003929 -0.000341 0.000000 0.005452 0.000000
# 2 -0.003929 0.028833 -0.002069 0.000000 0.001171 -0.000001
# 3 -0.000341 -0.002069 0.018918 0.000000 0.008640 0.000000
# 4 0.000000 0.000000 0.000000 0.093165 0.000000 0.002193
# 5 0.005452 0.001171 0.008640 0.000000 0.033281 0.000000
# 6 0.000000 -0.000001 0.000000 0.002193 0.000000 0.028549
#
#
# Mechanical properties :
#
#
# Convention : Reuss Voigt Hill
#
# Bulk Modulus (GPa) = 21.55671 30.81191 26.18431
# Shear Modulus (GPa) = 20.64379 28.08610 24.36495
#
# Velocity S-wave (km/s) = 3.13508 3.65679 3.40594
# Velocity P-wave (km/s) = 4.83408 5.70082 5.28525
#
# Compressibility (1/GPa) = 0.04638926
#
# Stress axis : x y z
#
# Youngs Moduli (GPa) = 88.37660 34.68224 52.85881
#
# Poissons Ratio (x) = 0.13625 0.01804
# Poissons Ratio (y) = 0.34720 0.10935
# Poissons Ratio (z) = 0.03016 0.07175
#
# Static dielectric constant tensor:
#      x y z
#    x 1.789190 0.000000 -0.018220 
#    y 0.000000 1.754070 0.000000 
#    z -0.018220 0.000000 1.810580 
# 
# From -- ./inp_files/315503.got.cif
#   From: 2010.05.17/outbox.cif.g08.bks.cpg/sg15_158_cif.got.tgz:315503.got - 2010.06.03 18:47:42.
