data_PCOD9271522
_publ_section_title
;
Structure prediction by ZEFSAII (Michael W. Deem and Ramdas Pophale) SiO2 
 PCOD9271522
Probable space group: C 2/C
;
_chemical_formula_sum "Si O2"
_cell_formula_units_Z 52
_cell_length_a 12.813543
_cell_length_b 6.391251
_cell_length_c 31.219567
_cell_angle_alpha 90.000000
_cell_angle_beta 62.045561
_cell_angle_gamma 90.000000
_cell_volume 2258.397344
_symmetry_space_group_name_H-M "C 2/C"
_symmetry_group_IT_number 15
_symmetry_cell_setting 'monoclinic'
loop_
_space_group_symop_operation_xyz
x,y,z
-x,y,1/2-z
-x,-y,-z
x,-y,1/2+z
1/2+x,1/2+y,z
1/2-x,1/2+y,1/2-z
1/2-x,1/2-y,-z
1/2+x,1/2-y,1/2+z
loop_
_atom_site_type_symbol
_atom_site_label
_atom_site_fract_x
_atom_site_fract_y
_atom_site_fract_z
Si Si1 0.575847 0.205850 0.593387
Si Si2 0.591312 0.439742 0.816048
Si Si3 0.111083 0.673788 0.373033
Si Si4 0.244463 0.861126 0.935965
Si Si5 0.000000 0.920608 0.250000
Si Si6 0.069424 0.098469 0.541112
Si Si7 0.726214 0.313673 0.163632
O O1 0.530764 0.350164 0.640825
O O2 0.570304 0.355503 0.553450
O O3 0.481330 0.017962 0.611427
O O4 0.700362 0.092526 0.572121
O O5 0.607361 0.668754 0.833791
O O6 0.580117 0.449553 0.767509
O O7 0.695460 0.295456 0.814536
O O8 0.234886 0.554830 0.350111
O O9 0.058397 0.807141 0.422673
O O10 0.335399 0.708682 0.944544
O O11 0.243874 0.794275 0.887015
O O12 0.120968 0.853965 0.984686
O O13 0.909585 0.793334 0.296975
#
# Coordination Sequence:
#
# PCOD9271522 Si02
#       7
#     8   8   8   8   4   8   8
#     4   9  17  37  62  92 131 176 218 274 330 397
#     4  10  24  45  66  94 131 170 224 286 344 414
#     4   9  20  41  63  92 135 170 219 278 329 406
#     4  10  20  36  60 100 137 178 228 276 334 408
#     4  12  26  46  72  98 124 176 232 282 354 408
#     4   9  18  35  65  95 136 185 227 270 330 406
#     4  11  25  43  66  98 136 172 228 287 345 414
#
# _framework density 23.025175000000001
#
# number of rings (size 3 to 8) (size 9 to 14) (size 15 to 20)
#    0.000    2.154    0.000    3.231    2.154    3.077 
#    0.000   10.769    0.000    0.000    0.000    0.000 
#    0.000    0.000    0.000    0.000    0.000    0.000 
#
# Total GULP energy -145342.161565 kJ/mol
# GULP energy per Si atom -5590.083137 kJ/mol
# Density = 2.297277 g / cm^3
# Si number density = 23.025175 Si / 1000 Ang^3
#
#
#
# Elastic Constant Matrix: (Units=GPa)
#
#
# Indices 1 2 3 4 5 6 
#
# 1 91.5809 30.2063 34.0818 0.0000 -4.1684 0.0001
# 2 30.2063 110.3258 17.6495 0.0001 1.1946 0.0000
# 3 34.0818 17.6495 105.7435 0.0000 -3.6476 -0.0001
# 4 0.0000 0.0001 0.0000 8.3162 0.0000 2.5990
# 5 -4.1684 1.1946 -3.6476 0.0000 36.4749 0.0000
# 6 0.0001 0.0000 -0.0001 2.5990 0.0000 18.4375
#
#
#
# Elastic Compliance Matrix: (Units=1/GPa)
#
#
# Indices 1 2 3 4 5 6 
#
# 1 0.013391 -0.003079 -0.003759 0.000000 0.001255 0.000000
# 2 -0.003079 0.010028 -0.000707 0.000000 -0.000751 0.000000
# 3 -0.003759 -0.000707 0.010810 0.000000 0.000675 0.000000
# 4 0.000000 0.000000 0.000000 0.125789 0.000000 -0.017732
# 5 0.001255 -0.000751 0.000675 0.000000 0.027652 0.000000
# 6 0.000000 0.000000 0.000000 -0.017732 0.000000 0.056737
#
#
# Mechanical properties :
#
#
# Convention : Reuss Voigt Hill
#
# Bulk Modulus (GPa) = 52.24921 52.39171 52.32046
# Shear Modulus (GPa) = 18.80583 27.69323 23.24953
#
# Velocity S-wave (km/s) = 2.86099 3.47181 3.18109
# Velocity P-wave (km/s) = 5.80130 6.23497 6.02204
#
# Compressibility (1/GPa) = 0.01913904
#
# Stress axis : x y z
#
# Youngs Moduli (GPa) = 74.67893 99.71832 92.50971
#
# Poissons Ratio (x) = 0.30699 0.34772
# Poissons Ratio (y) = 0.22990 0.06545
# Poissons Ratio (z) = 0.28070 0.07055
#
# Static dielectric constant tensor:
#      x y z
#    x 1.917560 0.000000 -0.007640 
#    y 0.000000 1.859120 0.000000 
#    z -0.007640 0.000000 1.857930 
# 
# From -- ./inp_files/312311.got.cif
#   From: 2010.05.17/outbox.cif.g08.bks.cpg/sg15_157_cif.got.tgz:312311.got - 2010.06.03 18:47:42.
