data_PCOD9271443
_publ_section_title
;
Structure prediction by ZEFSAII (Michael W. Deem and Ramdas Pophale) SiO2 
 PCOD9271443
Probable space group: C 2/C
;
_chemical_formula_sum "Si O2"
_cell_formula_units_Z 56
_cell_length_a 18.752827
_cell_length_b 9.528361
_cell_length_c 17.920056
_cell_angle_alpha 90.000000
_cell_angle_beta 59.437543
_cell_angle_gamma 90.000000
_cell_volume 2757.182352
_symmetry_space_group_name_H-M "C 2/C"
_symmetry_group_IT_number 15
_symmetry_cell_setting 'monoclinic'
loop_
_space_group_symop_operation_xyz
x,y,z
-x,y,1/2-z
-x,-y,-z
x,-y,1/2+z
1/2+x,1/2+y,z
1/2-x,1/2+y,1/2-z
1/2-x,1/2-y,-z
1/2+x,1/2-y,1/2+z
loop_
_atom_site_type_symbol
_atom_site_label
_atom_site_fract_x
_atom_site_fract_y
_atom_site_fract_z
Si Si1 0.849061 0.222633 0.864288
Si Si2 0.060626 0.697592 0.034433
Si Si3 0.735538 0.275744 0.705223
Si Si4 0.409227 0.684683 0.677601
Si Si5 0.772735 0.473808 0.392992
Si Si6 0.616850 0.583375 0.390089
Si Si7 0.795053 0.505316 0.050153
O O1 0.891443 0.226818 0.922214
O O2 0.908539 0.171034 0.766799
O O3 0.823778 0.382280 0.858994
O O4 0.766825 0.128145 0.910930
O O5 0.967401 0.693367 0.114249
O O6 0.067427 0.795436 0.958427
O O7 0.111876 0.555270 0.993892
O O8 0.813899 0.214762 0.708113
O O9 0.673433 0.346819 0.795917
O O10 0.770491 0.388065 0.627678
O O11 0.697355 0.148044 0.678057
O O12 0.433595 0.540784 0.622884
O O13 0.679656 0.511561 0.416165
O O14 0.779712 0.432510 0.475877
#
# Coordination Sequence:
#
# PCOD9271443 Si02
#       7
#     8   8   8   8   8   8   8
#     4  11  19  39  61  84 110 157 200 234 276 349
#     4  11  22  36  59  87 119 151 190 244 291 341
#     4  11  23  36  61  88 116 153 192 240 289 345
#     4  11  23  36  57  90 117 150 192 243 296 337
#     4  10  20  36  59  88 112 148 199 238 276 340
#     4  11  20  37  58  85 119 151 195 241 285 347
#     4  11  20  39  62  84 116 153 198 236 282 344
#
# _framework density 20.310590000000001
#
# number of rings (size 3 to 8) (size 9 to 14) (size 15 to 20)
#    0.000    1.143    5.714    2.143    2.000    0.571 
#    0.000    0.000    0.000    0.000    0.000    0.000 
#    0.000    0.000    0.000    0.000    0.000    0.000 
#
# Total GULP energy -156436.890377 kJ/mol
# GULP energy per Si atom -5587.031799 kJ/mol
# Density = 2.026436 g / cm^3
# Si number density = 20.310590 Si / 1000 Ang^3
#
#
#
# Elastic Constant Matrix: (Units=GPa)
#
#
# Indices 1 2 3 4 5 6 
#
# 1 26.3423 11.6118 16.5872 0.0000 -0.6607 0.0000
# 2 11.6118 56.2679 9.8664 0.0000 12.2293 -0.0001
# 3 16.5872 9.8664 92.1338 0.0000 15.2909 0.0000
# 4 0.0000 0.0000 0.0000 27.4155 0.0000 4.9551
# 5 -0.6607 12.2293 15.2909 0.0000 26.5871 0.0000
# 6 0.0000 -0.0001 0.0000 4.9551 0.0000 9.9870
#
#
#
# Elastic Compliance Matrix: (Units=1/GPa)
#
#
# Indices 1 2 3 4 5 6 
#
# 1 0.049194 -0.011035 -0.009640 0.000000 0.011843 0.000000
# 2 -0.011035 0.022259 0.001490 0.000000 -0.011370 0.000000
# 3 -0.009640 0.001490 0.013911 0.000000 -0.008926 0.000000
# 4 0.000000 0.000000 0.000000 0.040069 0.000000 -0.019881
# 5 0.011843 -0.011370 -0.008926 0.000000 0.048270 0.000000
# 6 0.000000 0.000000 0.000000 -0.019881 0.000000 0.109994
#
#
# Mechanical properties :
#
#
# Convention : Reuss Voigt Hill
#
# Bulk Modulus (GPa) = 21.27990 27.87498 24.57744
# Shear Modulus (GPa) = 14.80463 21.90983 18.35723
#
# Velocity S-wave (km/s) = 2.70277 3.28798 3.00963
# Velocity P-wave (km/s) = 4.49888 5.30741 4.91978
#
# Compressibility (1/GPa) = 0.04699270
#
# Stress axis : x y z
#
# Youngs Moduli (GPa) = 20.32788 44.92496 71.88511
#
# Poissons Ratio (x) = 0.49577 0.69299
# Poissons Ratio (y) = 0.22433 -0.10711
# Poissons Ratio (z) = 0.19596 -0.06694
#
# Static dielectric constant tensor:
#      x y z
#    x 1.722670 0.000000 0.015300 
#    y 0.000000 1.725520 0.000000 
#    z 0.015300 0.000000 1.726010 
# 
# From -- ./inp_files/213782.got.cif
#   From: 2010.05.17/outbox.cif.g08.bks.cpg/sg15_107_cif.got.tgz:213782.got - 2010.06.03 18:47:42.
