data_PCOD9271179
_publ_section_title
;
Structure prediction by ZEFSAII (Michael W. Deem and Ramdas Pophale) SiO2 
 PCOD9271179
Probable space group: C 2/C
;
_chemical_formula_sum "Si O2"
_cell_formula_units_Z 64
_cell_length_a 12.836907
_cell_length_b 24.839734
_cell_length_c 10.741743
_cell_angle_alpha 90.000000
_cell_angle_beta 117.438596
_cell_angle_gamma 90.000000
_cell_volume 3039.855851
_symmetry_space_group_name_H-M "C 2/C"
_symmetry_group_IT_number 15
_symmetry_cell_setting 'monoclinic'
loop_
_space_group_symop_operation_xyz
x,y,z
-x,y,1/2-z
-x,-y,-z
x,-y,1/2+z
1/2+x,1/2+y,z
1/2-x,1/2+y,1/2-z
1/2-x,1/2-y,-z
1/2+x,1/2-y,1/2+z
loop_
_atom_site_type_symbol
_atom_site_label
_atom_site_fract_x
_atom_site_fract_y
_atom_site_fract_z
Si Si1 0.612569 0.032126 0.229559
Si Si2 0.281797 0.136134 0.327999
Si Si3 0.336875 0.485818 0.036989
Si Si4 0.426783 0.618299 0.485550
Si Si5 0.197999 0.431720 0.170333
Si Si6 0.753502 0.170860 0.572705
Si Si7 0.668694 0.392946 0.015468
Si Si8 0.130952 0.731502 0.277453
O O1 0.500000 0.043787 0.250000
O O2 0.643520 0.082230 0.158772
O O3 0.722022 0.022546 0.385006
O O4 0.600950 0.976045 0.148217
O O5 0.168245 0.129041 0.175214
O O6 0.235586 0.137175 0.442621
O O7 0.352708 0.189054 0.324718
O O8 0.298099 0.465375 0.151732
O O9 0.369038 0.548153 0.058717
O O10 0.429234 0.444379 0.028827
O O11 0.372375 0.647927 0.575253
O O12 0.553221 0.635003 0.506477
O O13 0.176527 0.379715 0.073950
O O14 0.246966 0.406967 0.323978
O O15 0.793358 0.214168 0.696668
O O16 0.685967 0.201029 0.426658
O O17 0.000000 0.743747 0.250000
#
# Coordination Sequence:
#
# PCOD9271179 Si02
#       8
#     8   8   8   8   8   8   8   8
#     4  10  20  36  58  78 112 159 190 233 287 337
#     4  10  20  37  54  88 119 145 201 236 277 357
#     4   9  19  35  49  82 115 147 196 231 270 350
#     4   9  19  34  58  80 113 154 186 241 287 334
#     4  10  21  37  53  84 121 147 191 245 284 346
#     4   9  21  40  62  91 112 139 209 247 277 355
#     4  11  20  33  54  83 120 158 183 231 303 343
#     4  10  21  40  68  85 109 155 197 249 290 329
#
# _framework density 21.053628
#
# number of rings (size 3 to 8) (size 9 to 14) (size 15 to 20)
#    0.000    2.250    1.250    1.875    1.750    2.000 
#    6.750    0.625    0.000    1.500    0.000    0.000 
#    0.000    0.000    0.000    0.000    0.000    0.000 
#
# Total GULP energy -178686.659245 kJ/mol
# GULP energy per Si atom -5583.958101 kJ/mol
# Density = 2.100571 g / cm^3
# Si number density = 21.053628 Si / 1000 Ang^3
#
#
#
# Elastic Constant Matrix: (Units=GPa)
#
#
# Indices 1 2 3 4 5 6 
#
# 1 60.6732 0.0660 5.2069 0.0000 -6.7602 0.0000
# 2 0.0660 67.8009 12.1927 0.0000 3.1260 0.0000
# 3 5.2069 12.1927 45.7159 0.0000 -17.4418 0.0000
# 4 0.0000 0.0000 0.0000 22.7249 0.0000 -5.1213
# 5 -6.7602 3.1260 -17.4418 0.0000 23.0567 0.0000
# 6 0.0000 0.0000 0.0000 -5.1213 0.0000 21.1033
#
#
#
# Elastic Compliance Matrix: (Units=1/GPa)
#
#
# Indices 1 2 3 4 5 6 
#
# 1 0.017043 -0.000263 0.000069 0.000000 0.005085 0.000000
# 2 -0.000263 0.016435 -0.007356 0.000000 -0.007870 0.000000
# 3 0.000069 -0.007356 0.034041 0.000000 0.026769 0.000000
# 4 0.000000 0.000000 0.000000 0.046550 0.000000 0.011297
# 5 0.005085 -0.007870 0.026769 0.000000 0.066179 0.000000
# 6 0.000000 0.000000 0.000000 0.011297 0.000000 0.050127
#
#
# Mechanical properties :
#
#
# Convention : Reuss Voigt Hill
#
# Bulk Modulus (GPa) = 19.07723 23.23570 21.15647
# Shear Modulus (GPa) = 19.01505 23.82527 21.42016
#
# Velocity S-wave (km/s) = 3.00854 3.36764 3.19315
# Velocity P-wave (km/s) = 4.59884 5.11681 4.86473
#
# Compressibility (1/GPa) = 0.05241850
#
# Stress axis : x y z
#
# Youngs Moduli (GPa) = 58.67632 60.84574 29.37611
#
# Poissons Ratio (x) = 0.01603 -0.00203
# Poissons Ratio (y) = 0.01546 0.21609
# Poissons Ratio (z) = -0.00406 0.44758
#
# Static dielectric constant tensor:
#      x y z
#    x 1.740720 0.000000 0.010050 
#    y 0.000000 1.784830 0.000000 
#    z 0.010050 0.000000 1.784490 
# 
# From -- ./inp_files/91831.got.cif
#   From: 2010.05.17/outbox.cif.g08.bks.cpg/sg15_46_cif.got.tgz:91831.got - 2010.06.03 18:47:42.
