data_PCOD9271880
_publ_section_title
;
Structure prediction by ZEFSAII (Michael W. Deem and Ramdas Pophale) SiO2 
 PCOD9271880
Probable space group: C 2/C
;
_chemical_formula_sum "Si O2"
_cell_formula_units_Z 44
_cell_length_a 6.388516
_cell_length_b 14.951168
_cell_length_c 23.765080
_cell_angle_alpha 90.000000
_cell_angle_beta 58.708717
_cell_angle_gamma 90.000000
_cell_volume 1939.749719
_symmetry_space_group_name_H-M "C 2/C"
_symmetry_group_IT_number 15
_symmetry_cell_setting 'monoclinic'
loop_
_space_group_symop_operation_xyz
x,y,z
-x,y,1/2-z
-x,-y,-z
x,-y,1/2+z
1/2+x,1/2+y,z
1/2-x,1/2+y,1/2-z
1/2-x,1/2-y,-z
1/2+x,1/2-y,1/2+z
loop_
_atom_site_type_symbol
_atom_site_label
_atom_site_fract_x
_atom_site_fract_y
_atom_site_fract_z
Si Si1 0.000000 0.018223 0.250000
Si Si2 0.643268 0.920392 0.058142
Si Si3 0.727891 0.333484 0.794296
Si Si4 0.614398 0.585413 0.622934
Si Si5 0.137976 0.675017 0.677845
Si Si6 0.392006 0.427276 0.576885
O O1 0.810323 0.081687 0.242228
O O2 0.881060 0.957403 0.315156
O O3 0.388778 0.899883 0.063686
O O4 0.614277 0.872760 0.121816
O O5 0.690948 0.025535 0.065219
O O6 0.884586 0.890109 0.991237
O O7 0.507145 0.267151 0.809580
O O8 0.702521 0.361220 0.862734
O O9 0.000000 0.295293 0.750000
O O10 0.427578 0.668532 0.649688
O O11 0.501706 0.509929 0.597985
O O12 0.000000 0.628658 0.750000
#
# Coordination Sequence:
#
# PCOD9271880 Si02
#       6
#     4   8   8   8   8   8
#     4  10  20  38  62  90 118 160 216 256 306 372
#     4  10  20  38  63  86 124 158 205 264 310 367
#     4  11  23  39  62  87 128 166 207 259 316 371
#     4  10  20  36  62  88 119 160 208 259 312 371
#     4  11  24  37  57  90 124 158 210 253 309 378
#     4   9  21  39  60  92 117 161 213 254 307 380
#
# _framework density 22.683340000000001
#
# number of rings (size 3 to 8) (size 9 to 14) (size 15 to 20)
#    0.000    1.818    0.909    2.727    2.545    5.818 
#    0.000    0.909    0.000    0.000    0.000    0.000 
#    0.000    0.000    0.000    0.000    0.000    0.000 
#
# Total GULP energy -122848.792202 kJ/mol
# GULP energy per Si atom -5584.036009 kJ/mol
# Density = 2.263171 g / cm^3
# Si number density = 22.683340 Si / 1000 Ang^3
#
#
#
# Elastic Constant Matrix: (Units=GPa)
#
#
# Indices 1 2 3 4 5 6 
#
# 1 101.6080 36.3122 35.5067 0.0001 -31.0185 0.0002
# 2 36.3122 52.4022 33.9319 0.0001 -13.3441 0.0000
# 3 35.5067 33.9319 120.0057 0.0004 -2.8360 0.0000
# 4 0.0001 0.0001 0.0004 18.6998 -0.0002 2.0784
# 5 -31.0185 -13.3441 -2.8360 -0.0002 42.0640 0.0000
# 6 0.0002 0.0000 0.0000 2.0784 0.0000 19.9077
#
#
#
# Elastic Compliance Matrix: (Units=1/GPa)
#
#
# Indices 1 2 3 4 5 6 
#
# 1 0.016184 -0.007151 -0.002542 0.000000 0.009494 0.000000
# 2 -0.007151 0.028760 -0.005935 0.000000 0.003450 0.000000
# 3 -0.002542 -0.005935 0.010691 0.000000 -0.003036 0.000000
# 4 0.000000 0.000000 0.000000 0.054104 0.000000 -0.005649
# 5 0.009494 0.003450 -0.003036 0.000000 0.031664 0.000000
# 6 0.000000 0.000000 0.000000 -0.005649 0.000000 0.050822
#
#
# Mechanical properties :
#
#
# Convention : Reuss Voigt Hill
#
# Bulk Modulus (GPa) = 41.01735 53.94639 47.48187
# Shear Modulus (GPa) = 21.58823 27.35197 24.47010
#
# Velocity S-wave (km/s) = 3.08835 3.47626 3.28803
# Velocity P-wave (km/s) = 5.55329 6.32032 5.94918
#
# Compressibility (1/GPa) = 0.02437993
#
# Stress axis : x y z
#
# Youngs Moduli (GPa) = 61.78913 34.77066 93.53347
#
# Poissons Ratio (x) = 0.24864 0.23778
# Poissons Ratio (y) = 0.44185 0.55508
# Poissons Ratio (z) = 0.15708 0.20635
#
# Static dielectric constant tensor:
#      x y z
#    x 1.927000 0.000000 0.003850 
#    y 0.000000 1.867100 0.000000 
#    z 0.003850 0.000000 1.835860 
# 
# From -- ./inp_files/260830.got.cif
#   From: 2010.05.17/outbox.cif.g08.bks.cpg/sg15_131_cif.got.tgz:260830.got - 2010.06.03 18:47:42.
