data_PCOD9271057
_publ_section_title
;
Structure prediction by ZEFSAII (Michael W. Deem and Ramdas Pophale) SiO2 
 PCOD9271057
Probable space group: C 2/C
;
_chemical_formula_sum "Si O2"
_cell_formula_units_Z 64
_cell_length_a 6.635625
_cell_length_b 22.831387
_cell_length_c 25.594781
_cell_angle_alpha 90.000000
_cell_angle_beta 63.251544
_cell_angle_gamma 90.000000
_cell_volume 3462.682445
_symmetry_space_group_name_H-M "C 2/C"
_symmetry_group_IT_number 15
_symmetry_cell_setting 'monoclinic'
loop_
_space_group_symop_operation_xyz
x,y,z
-x,y,1/2-z
-x,-y,-z
x,-y,1/2+z
1/2+x,1/2+y,z
1/2-x,1/2+y,1/2-z
1/2-x,1/2-y,-z
1/2+x,1/2-y,1/2+z
loop_
_atom_site_type_symbol
_atom_site_label
_atom_site_fract_x
_atom_site_fract_y
_atom_site_fract_z
Si Si1 0.055821 0.336911 0.896828
Si Si2 0.375821 0.901113 0.396882
Si Si3 0.056011 0.794416 0.960078
Si Si4 0.811312 0.031370 0.811702
Si Si5 0.746052 0.095030 0.472070
Si Si6 0.444250 0.499864 0.608781
Si Si7 0.498636 0.925641 0.688836
Si Si8 0.792354 0.269423 0.408767
O O1 0.814624 0.308379 0.937085
O O2 0.113845 0.383596 0.935938
O O3 0.042356 0.370663 0.843862
O O4 0.236496 0.284109 0.877124
O O5 0.605156 0.924758 0.345342
O O6 0.394041 0.904186 0.457945
O O7 0.171115 0.944049 0.404593
O O8 0.325192 0.834938 0.385194
O O9 0.934028 0.854930 0.958694
O O10 0.004602 0.748790 0.919862
O O11 0.919632 0.772055 0.026289
O O12 0.000000 0.053861 0.750000
O O13 0.932506 0.016809 0.852011
O O14 0.696226 0.973163 0.800883
O O15 0.871743 0.033912 0.447659
O O16 0.237270 0.455688 0.645577
O O17 0.500000 0.911853 0.750000
#
# Coordination Sequence:
#
# PCOD9271057 Si02
#       8
#     8   8   8   8   8   8   8   8
#     4  11  20  34  65  90 119 159 198 250 310 355
#     4  10  24  37  58  92 126 163 197 242 295 366
#     4   9  18  34  59  84 122 162 193 241 289 356
#     4  11  23  41  63  86 112 164 209 244 297 361
#     4  10  20  36  56  96 129 150 195 250 310 361
#     4  11  21  38  61  87 123 157 192 253 304 363
#     4  11  22  38  62  93 114 149 205 256 305 356
#     4   9  20  37  55  88 123 157 200 232 289 364
#
# _framework density 18.482782
#
# number of rings (size 3 to 8) (size 9 to 14) (size 15 to 20)
#    0.000    1.750    3.750    1.500    0.000    3.500 
#    0.000    0.000    0.000    4.500    0.000    0.000 
#    0.000    0.000    0.000    0.000    0.000    0.000 
#
# Total GULP energy -178637.695823 kJ/mol
# GULP energy per Si atom -5582.427994 kJ/mol
# Density = 1.844071 g / cm^3
# Si number density = 18.482782 Si / 1000 Ang^3
#
#
#
# Elastic Constant Matrix: (Units=GPa)
#
#
# Indices 1 2 3 4 5 6 
#
# 1 95.1543 49.6274 33.7859 0.0000 7.7325 0.0000
# 2 49.6274 110.2492 27.0301 0.0000 10.9463 0.0000
# 3 33.7859 27.0301 49.9838 0.0000 11.4763 0.0000
# 4 0.0000 0.0000 0.0000 3.9752 0.0000 4.5726
# 5 7.7325 10.9463 11.4763 0.0000 32.6937 0.0000
# 6 0.0000 0.0000 0.0000 4.5726 0.0000 15.7263
#
#
#
# Elastic Compliance Matrix: (Units=1/GPa)
#
#
# Indices 1 2 3 4 5 6 
#
# 1 0.016142 -0.005335 -0.008222 0.000000 0.000855 0.000000
# 2 -0.005335 0.012302 -0.002600 0.000000 -0.001944 0.000000
# 3 -0.008222 -0.002600 0.028631 0.000000 -0.007235 0.000000
# 4 0.000000 0.000000 0.000000 0.377972 0.000000 -0.109900
# 5 0.000855 -0.001944 -0.007235 0.000000 0.033575 0.000000
# 6 0.000000 0.000000 0.000000 -0.109900 0.000000 0.095543
#
#
# Mechanical properties :
#
#
# Convention : Reuss Voigt Hill
#
# Bulk Modulus (GPa) = 40.38616 52.91936 46.65276
# Shear Modulus (GPa) = 8.26812 20.14199 14.20505
#
# Velocity S-wave (km/s) = 2.11734 3.30475 2.77529
# Velocity P-wave (km/s) = 5.27974 6.57690 5.96369
#
# Compressibility (1/GPa) = 0.02476096
#
# Stress axis : x y z
#
# Youngs Moduli (GPa) = 61.95206 81.28477 34.92687
#
# Poissons Ratio (x) = 0.43365 0.28716
# Poissons Ratio (y) = 0.33051 0.09082
# Poissons Ratio (z) = 0.50936 0.21137
#
# Static dielectric constant tensor:
#      x y z
#    x 1.636250 0.000000 0.005350 
#    y 0.000000 1.643400 0.000000 
#    z 0.005350 0.000000 1.629250 
# 
# From -- ./inp_files/261808.got.cif
#   From: 2010.05.17/outbox.cif.g08.bks.cpg/sg15_131_cif.got.tgz:261808.got - 2010.06.03 18:47:42.
