data_PCOD9271590
_publ_section_title
;
Structure prediction by ZEFSAII (Michael W. Deem and Ramdas Pophale) SiO2 
 PCOD9271590
Probable space group: C 2/C
;
_chemical_formula_sum "Si O2"
_cell_formula_units_Z 40
_cell_length_a 19.031667
_cell_length_b 6.519311
_cell_length_c 19.631482
_cell_angle_alpha 90.000000
_cell_angle_beta 52.436648
_cell_angle_gamma 90.000000
_cell_volume 1930.764824
_symmetry_space_group_name_H-M "C 2/C"
_symmetry_group_IT_number 15
_symmetry_cell_setting 'monoclinic'
loop_
_space_group_symop_operation_xyz
x,y,z
-x,y,1/2-z
-x,-y,-z
x,-y,1/2+z
1/2+x,1/2+y,z
1/2-x,1/2+y,1/2-z
1/2-x,1/2-y,-z
1/2+x,1/2-y,1/2+z
loop_
_atom_site_type_symbol
_atom_site_label
_atom_site_fract_x
_atom_site_fract_y
_atom_site_fract_z
Si Si1 0.353997 0.934366 0.719868
Si Si2 0.458182 0.902712 0.848918
Si Si3 0.696980 0.181354 0.616370
Si Si4 0.247953 0.920280 0.154248
Si Si5 0.325072 0.640152 0.000307
O O1 0.459002 0.968474 0.654052
O O2 0.329398 0.711644 0.764794
O O3 0.318750 0.088722 0.798756
O O4 0.302943 0.965907 0.680022
O O5 0.500000 0.857797 0.750000
O O6 0.383518 0.078650 0.879301
O O7 0.414017 0.703983 0.909694
O O8 0.706785 0.421495 0.624177
O O9 0.789699 0.088865 0.533498
O O10 0.314193 0.761338 0.077991
O O11 0.250000 0.750000 0.000000
#
# Coordination Sequence:
#
# PCOD9271590 Si02
#       5
#     8   8   8   8   8
#     4  10  20  36  60  87 118 155 200 241 291 357
#     4   9  19  38  57  82 118 151 197 250 287 343
#     4   9  19  38  60  85 117 157 193 242 295 354
#     4  11  20  36  65  85 118 161 196 240 302 356
#     4   9  20  37  58  84 121 155 198 243 297 351
#
# _framework density 20.717179000000002
#
# number of rings (size 3 to 8) (size 9 to 14) (size 15 to 20)
#    0.000    2.400    2.000    1.200    0.000    4.000 
#    0.000   26.000    0.000    0.000    0.000    0.000 
#    0.000    0.000    0.000    0.000    0.000    0.000 
#
# Total GULP energy -111526.373398 kJ/mol
# GULP energy per Si atom -5576.318670 kJ/mol
# Density = 2.067003 g / cm^3
# Si number density = 20.717179 Si / 1000 Ang^3
#
#
#
# Elastic Constant Matrix: (Units=GPa)
#
#
# Indices 1 2 3 4 5 6 
#
# 1 100.5340 32.9692 25.6498 -0.0002 -5.0105 -0.0004
# 2 32.9692 102.2426 30.7129 0.0029 -3.4152 0.0006
# 3 25.6498 30.7129 80.0508 -0.0003 -14.5155 0.0010
# 4 -0.0002 0.0029 -0.0003 22.0742 0.0001 13.4491
# 5 -5.0105 -3.4152 -14.5155 0.0001 23.3512 0.0012
# 6 -0.0004 0.0006 0.0010 13.4491 0.0012 22.0020
#
#
#
# Elastic Compliance Matrix: (Units=1/GPa)
#
#
# Indices 1 2 3 4 5 6 
#
# 1 0.011579 -0.002973 -0.002477 0.000000 0.000510 0.000000
# 2 -0.002973 0.011845 -0.003825 -0.000002 -0.001283 0.000001
# 3 -0.002477 -0.003825 0.016405 0.000002 0.009106 -0.000002
# 4 0.000000 -0.000002 0.000002 0.072185 0.000003 -0.044124
# 5 0.000510 -0.001283 0.009106 0.000003 0.048407 -0.000005
# 6 0.000000 0.000001 -0.000002 -0.044124 -0.000005 0.072422
#
#
# Mechanical properties :
#
#
# Convention : Reuss Voigt Hill
#
# Bulk Modulus (GPa) = 46.99327 51.27680 49.13504
# Shear Modulus (GPa) = 19.34343 26.38517 22.86430
#
# Velocity S-wave (km/s) = 3.05895 3.57261 3.32571
# Velocity P-wave (km/s) = 5.93369 6.46704 6.20610
#
# Compressibility (1/GPa) = 0.02127964
#
# Stress axis : x y z
#
# Youngs Moduli (GPa) = 86.36194 84.42164 60.95888
#
# Poissons Ratio (x) = 0.25096 0.15101
# Poissons Ratio (y) = 0.25672 0.23316
# Poissons Ratio (z) = 0.21394 0.32290
#
# Static dielectric constant tensor:
#      x y z
#    x 1.738540 0.000000 0.007610 
#    y 0.000000 1.784880 0.000000 
#    z 0.007610 0.000000 1.803390 
# 
# From -- ./inp_files/208120.got.cif
#   From: 2010.05.17/outbox.cif.g08.bks.cpg/sg15_105_cif.got.tgz:208120.got - 2010.06.03 18:47:42.
