data_PCOD9271190
_publ_section_title
;
Structure prediction by ZEFSAII (Michael W. Deem and Ramdas Pophale) SiO2 
 PCOD9271190
Probable space group: C 2/C
;
_chemical_formula_sum "Si O2"
_cell_formula_units_Z 52
_cell_length_a 12.561277
_cell_length_b 30.618392
_cell_length_c 10.847419
_cell_angle_alpha 90.000000
_cell_angle_beta 43.367727
_cell_angle_gamma 90.000000
_cell_volume 2864.809922
_symmetry_space_group_name_H-M "C 2/C"
_symmetry_group_IT_number 15
_symmetry_cell_setting 'monoclinic'
loop_
_space_group_symop_operation_xyz
x,y,z
-x,y,1/2-z
-x,-y,-z
x,-y,1/2+z
1/2+x,1/2+y,z
1/2-x,1/2+y,1/2-z
1/2-x,1/2-y,-z
1/2+x,1/2-y,1/2+z
loop_
_atom_site_type_symbol
_atom_site_label
_atom_site_fract_x
_atom_site_fract_y
_atom_site_fract_z
Si Si1 0.184550 0.404816 0.583720
Si Si2 0.500000 0.768882 0.250000
Si Si3 0.000000 0.756373 0.250000
Si Si4 0.133236 0.030890 0.740670
Si Si5 0.268228 0.306493 0.878016
Si Si6 0.115215 0.060239 0.358178
Si Si7 0.768679 0.189106 0.093200
Si Si8 0.500000 0.626676 0.250000
O O1 0.247516 0.434312 0.417373
O O2 0.266224 0.423552 0.637874
O O3 0.235629 0.353938 0.539430
O O4 0.000000 0.407009 0.750000
O O5 0.628990 0.737704 0.203685
O O6 0.403476 0.796748 0.429590
O O7 0.133436 0.724752 0.188823
O O8 0.925026 0.787398 0.416591
O O9 0.000000 0.025500 0.750000
O O10 0.186809 0.982219 0.730255
O O11 0.043178 0.047850 0.936666
O O12 0.271896 0.322618 0.734550
O O13 0.356467 0.340350 0.893619
O O14 0.061700 0.096040 0.305876
#
# Coordination Sequence:
#
# PCOD9271190 Si02
#       8
#     8   4   4   8   8   8   8   4
#     4  11  23  39  61  89 123 157 195 248 301 356
#     4   9  20  38  56  80 110 154 202 240 294 365
#     4  10  24  36  59  84 118 162 205 244 298 344
#     4   9  20  38  65  88 112 155 196 240 294 351
#     4  10  20  36  58  80 115 153 197 246 299 349
#     4  10  20  39  62  87 116 149 201 242 288 361
#     4  11  21  39  56  87 119 157 200 251 291 354
#     4  11  20  34  57  88 114 150 191 246 294 345
#
# _framework density 18.151291000000001
#
# number of rings (size 3 to 8) (size 9 to 14) (size 15 to 20)
#    0.000    1.846    3.077    0.923    3.231    0.615 
#    2.769    0.000    1.692    0.000    0.000    0.000 
#    0.000    0.000    0.000    0.000    0.000    0.000 
#
# Total GULP energy -144928.321627 kJ/mol
# GULP energy per Si atom -5574.166216 kJ/mol
# Density = 1.810998 g / cm^3
# Si number density = 18.151291 Si / 1000 Ang^3
#
#
#
# Elastic Constant Matrix: (Units=GPa)
#
#
# Indices 1 2 3 4 5 6 
#
# 1 37.5790 27.2168 25.8155 0.0000 0.1734 0.0000
# 2 27.2168 127.3571 64.8241 0.0000 0.1494 0.0000
# 3 25.8155 64.8241 94.8827 0.0000 -1.3340 0.0000
# 4 0.0000 0.0000 0.0000 88.5137 0.0000 85.2163
# 5 0.1734 0.1494 -1.3340 0.0000 23.1571 0.0000
# 6 0.0000 0.0000 0.0000 85.2163 0.0000 119.9317
#
#
#
# Elastic Compliance Matrix: (Units=1/GPa)
#
#
# Indices 1 2 3 4 5 6 
#
# 1 0.033964 -0.003909 -0.006579 0.000000 -0.000608 0.000000
# 2 -0.003909 0.012495 -0.007480 0.000000 -0.000482 0.000000
# 3 -0.006579 -0.007480 0.017455 0.000000 0.001103 0.000000
# 4 0.000000 0.000000 0.000000 0.035760 0.000000 -0.025409
# 5 -0.000608 -0.000482 0.001103 0.000000 0.043255 0.000000
# 6 0.000000 0.000000 0.000000 -0.025409 0.000000 0.026392
#
#
# Mechanical properties :
#
#
# Convention : Reuss Voigt Hill
#
# Bulk Modulus (GPa) = 35.74137 55.05905 45.40021
# Shear Modulus (GPa) = 23.30105 55.78466 39.54286
#
# Velocity S-wave (km/s) = 3.58678 5.54976 4.67252
# Velocity P-wave (km/s) = 6.07346 8.45374 7.36046
#
# Compressibility (1/GPa) = 0.02797878
#
# Stress axis : x y z
#
# Youngs Moduli (GPa) = 29.44302 80.03122 57.28995
#
# Poissons Ratio (x) = 0.31284 0.37689
# Poissons Ratio (y) = 0.11509 0.42852
# Poissons Ratio (z) = 0.19370 0.59863
#
# Static dielectric constant tensor:
#      x y z
#    x 1.617200 0.000000 0.012010 
#    y 0.000000 1.659540 0.000000 
#    z 0.012010 0.000000 1.608450 
# 
# From -- ./inp_files/43260.got.cif
#   From: 2010.05.17/outbox.cif.g08.bks.cpg/sg15_22_cif.got.tgz:43260.got - 2010.06.03 18:47:42.
