data_PCOD9271300
_publ_section_title
;
Structure prediction by ZEFSAII (Michael W. Deem and Ramdas Pophale) SiO2 
 PCOD9271300
Probable space group: C 2/C
;
_chemical_formula_sum "Si O2"
_cell_formula_units_Z 56
_cell_length_a 9.238785
_cell_length_b 28.342392
_cell_length_c 14.022243
_cell_angle_alpha 90.000000
_cell_angle_beta 49.327932
_cell_angle_gamma 90.000000
_cell_volume 2784.819398
_symmetry_space_group_name_H-M "C 2/C"
_symmetry_group_IT_number 15
_symmetry_cell_setting 'monoclinic'
loop_
_space_group_symop_operation_xyz
x,y,z
-x,y,1/2-z
-x,-y,-z
x,-y,1/2+z
1/2+x,1/2+y,z
1/2-x,1/2+y,1/2-z
1/2-x,1/2-y,-z
1/2+x,1/2-y,1/2+z
loop_
_atom_site_type_symbol
_atom_site_label
_atom_site_fract_x
_atom_site_fract_y
_atom_site_fract_z
Si Si1 0.382001 0.709117 0.899043
Si Si2 0.615934 0.849892 0.405414
Si Si3 0.714791 0.483748 0.194864
Si Si4 0.661357 0.644206 0.880530
Si Si5 0.603438 0.938599 0.982119
Si Si6 0.655826 0.458197 0.430731
Si Si7 0.401166 0.217503 0.885367
O O1 0.500000 0.721303 0.750000
O O2 0.259496 0.661972 0.927730
O O3 0.529115 0.688647 0.912915
O O4 0.250000 0.750000 0.000000
O O5 0.733060 0.869047 0.264112
O O6 0.439061 0.883191 0.505038
O O7 0.553346 0.798041 0.397981
O O8 0.500000 0.472659 0.250000
O O9 0.749819 0.469950 0.288812
O O10 0.886437 0.458308 0.064431
O O11 0.759826 0.538732 0.155823
O O12 0.576328 0.595503 0.956108
O O13 0.813613 0.667733 0.886157
O O14 0.701758 0.954878 0.039931
O O15 0.500000 0.500000 0.500000
O O16 0.500000 0.239481 0.750000
O O17 0.250000 0.250000 0.000000
#
# Coordination Sequence:
#
# PCOD9271300 Si02
#       7
#     8   8   8   8   8   8   8
#     4  10  22  40  64  92 124 160 207 265 322 387
#     4  10  20  36  63  86 117 157 207 251 306 381
#     4  11  24  38  61  92 125 162 220 262 322 378
#     4  10  21  36  63  89 116 161 211 250 308 378
#     4  11  23  40  62  90 124 171 212 273 321 372
#     4  12  23  40  63  90 133 171 216 274 318 381
#     4  10  20  36  58  88 117 151 198 247 310 379
#
# _framework density 20.109024000000002
#
# number of rings (size 3 to 8) (size 9 to 14) (size 15 to 20)
#    0.000    1.429    4.286    1.286    2.000    0.000 
#    0.000    3.571    0.000    0.000    0.000    0.000 
#    0.000    0.000    0.000    0.000    0.000    0.000 
#
# Total GULP energy -155923.851222 kJ/mol
# GULP energy per Si atom -5568.708972 kJ/mol
# Density = 2.006325 g / cm^3
# Si number density = 20.109024 Si / 1000 Ang^3
#
#
#
# Elastic Constant Matrix: (Units=GPa)
#
#
# Indices 1 2 3 4 5 6 
#
# 1 66.4830 16.0475 11.8648 0.0000 -9.0423 0.0000
# 2 16.0475 90.4176 48.5397 0.0000 -4.2926 0.0000
# 3 11.8648 48.5397 64.6745 0.0000 -5.9965 0.0000
# 4 0.0000 0.0000 0.0000 39.9862 0.0000 -16.2900
# 5 -9.0423 -4.2926 -5.9965 0.0000 26.4941 0.0000
# 6 0.0000 0.0000 0.0000 -16.2900 0.0000 30.4481
#
#
#
# Elastic Compliance Matrix: (Units=1/GPa)
#
#
# Indices 1 2 3 4 5 6 
#
# 1 0.016417 -0.002191 -0.000899 0.000000 0.005044 0.000000
# 2 -0.002191 0.018816 -0.013796 0.000000 -0.000822 0.000000
# 3 -0.000899 -0.013796 0.026297 0.000000 0.003410 0.000000
# 4 0.000000 0.000000 0.000000 0.031979 0.000000 0.017109
# 5 0.005044 -0.000822 0.003410 0.000000 0.040105 0.000000
# 6 0.000000 0.000000 0.000000 0.017109 0.000000 0.041996
#
#
# Mechanical properties :
#
#
# Convention : Reuss Voigt Hill
#
# Bulk Modulus (GPa) = 36.02714 41.60878 38.81796
# Shear Modulus (GPa) = 22.86914 29.06054 25.96484
#
# Velocity S-wave (km/s) = 3.37598 3.80564 3.59723
# Velocity P-wave (km/s) = 5.75770 6.32827 6.04972
#
# Compressibility (1/GPa) = 0.02775685
#
# Stress axis : x y z
#
# Youngs Moduli (GPa) = 60.91246 53.14645 38.02661
#
# Poissons Ratio (x) = 0.11647 0.03420
# Poissons Ratio (y) = 0.13349 0.52461
# Poissons Ratio (z) = 0.05478 0.73321
#
# Static dielectric constant tensor:
#      x y z
#    x 1.730980 0.000000 -0.001390 
#    y 0.000000 1.775690 0.000000 
#    z -0.001390 0.000000 1.754950 
# 
# From -- ./inp_files/139456.got.cif
#   From: 2010.05.17/outbox.cif.g08.bks.cpg/sg15_70_cif.got.tgz:139456.got - 2010.06.03 18:47:42.
