data_PCOD9271077
_publ_section_title
;
Structure prediction by ZEFSAII (Michael W. Deem and Ramdas Pophale) SiO2 
 PCOD9271077
Probable space group: C 2/C
;
_chemical_formula_sum "Si O2"
_cell_formula_units_Z 56
_cell_length_a 15.845862
_cell_length_b 17.626317
_cell_length_c 18.948147
_cell_angle_alpha 90.000000
_cell_angle_beta 146.181643
_cell_angle_gamma 90.000000
_cell_volume 2945.490365
_symmetry_space_group_name_H-M "C 2/C"
_symmetry_group_IT_number 15
_symmetry_cell_setting 'monoclinic'
loop_
_space_group_symop_operation_xyz
x,y,z
-x,y,1/2-z
-x,-y,-z
x,-y,1/2+z
1/2+x,1/2+y,z
1/2-x,1/2+y,1/2-z
1/2-x,1/2-y,-z
1/2+x,1/2-y,1/2+z
loop_
_atom_site_type_symbol
_atom_site_label
_atom_site_fract_x
_atom_site_fract_y
_atom_site_fract_z
Si Si1 0.785950 0.295853 0.954661
Si Si2 0.815583 0.159662 0.870492
Si Si3 0.670035 0.544719 0.368279
Si Si4 0.111258 0.926439 0.571544
Si Si5 0.682251 0.976694 0.376936
Si Si6 0.936940 0.387470 0.394197
Si Si7 0.155792 0.449635 0.649764
O O1 0.794493 0.238679 0.895354
O O2 0.669357 0.363719 0.860270
O O3 0.750000 0.250000 0.000000
O O4 0.945324 0.340731 0.071718
O O5 0.722934 0.150800 0.733316
O O6 0.743778 0.095970 0.874315
O O7 0.991603 0.140802 0.979779
O O8 0.500000 0.514814 0.250000
O O9 0.753649 0.529156 0.499466
O O10 0.763400 0.518514 0.364906
O O11 0.234654 0.949896 0.599047
O O12 0.211485 0.915236 0.711215
O O13 0.000000 0.000000 0.500000
O O14 0.500000 0.979396 0.250000
O O15 0.912312 0.476566 0.359096
O O16 0.024436 0.394060 0.530039
#
# Coordination Sequence:
#
# PCOD9271077 Si02
#       7
#     8   8   8   8   8   8   8
#     4  11  24  34  53  86 126 157 190 230 293 360
#     4  11  22  36  58  80 122 160 203 229 289 364
#     4  11  23  34  55  88 121 153 188 246 292 340
#     4  10  20  36  57  81 112 159 202 249 283 352
#     4  11  21  35  56  86 113 157 196 242 297 338
#     4  10  22  36  56  78 110 164 193 243 279 347
#     4  10  20  37  56  79 115 153 206 238 295 339
#
# _framework density 19.012112999999999
#
# number of rings (size 3 to 8) (size 9 to 14) (size 15 to 20)
#    0.000    1.429    4.286    3.429    4.000    1.143 
#    0.000    0.000    0.000    0.000    0.000    2.000 
#    0.000    0.000    0.000    0.000    0.000    0.000 
#
# Total GULP energy -156078.463323 kJ/mol
# GULP energy per Si atom -5574.230833 kJ/mol
# Density = 1.896884 g / cm^3
# Si number density = 19.012113 Si / 1000 Ang^3
#
#
#
# Elastic Constant Matrix: (Units=GPa)
#
#
# Indices 1 2 3 4 5 6 
#
# 1 85.9511 32.3151 45.4474 0.0002 6.8499 0.0002
# 2 32.3151 43.2787 30.1398 -0.0004 -0.7180 0.0003
# 3 45.4474 30.1398 179.6680 -0.0010 8.6932 0.0002
# 4 0.0002 -0.0004 -0.0010 18.4191 -0.0003 5.2818
# 5 6.8499 -0.7180 8.6932 -0.0003 33.5558 0.0003
# 6 0.0002 0.0003 0.0002 5.2818 0.0003 38.4561
#
#
#
# Elastic Compliance Matrix: (Units=1/GPa)
#
#
# Indices 1 2 3 4 5 6 
#
# 1 0.017423 -0.011437 -0.002334 -0.000001 -0.003197 0.000000
# 2 -0.011437 0.033768 -0.002957 0.000001 0.003823 0.000000
# 3 -0.002334 -0.002957 0.006716 0.000000 -0.001327 0.000000
# 4 -0.000001 0.000001 0.000000 0.056517 0.000001 -0.007762
# 5 -0.003197 0.003823 -0.001327 0.000001 0.030879 0.000000
# 6 0.000000 0.000000 0.000000 -0.007762 0.000000 0.027070
#
#
# Mechanical properties :
#
#
# Convention : Reuss Voigt Hill
#
# Bulk Modulus (GPa) = 40.89564 58.30025 49.59795
# Shear Modulus (GPa) = 23.36651 31.48589 27.42620
#
# Velocity S-wave (km/s) = 3.50956 4.07393 3.80223
# Velocity P-wave (km/s) = 6.16277 7.27053 6.73945
#
# Compressibility (1/GPa) = 0.02445248
#
# Stress axis : x y z
#
# Youngs Moduli (GPa) = 57.39378 29.61345 148.88938
#
# Poissons Ratio (x) = 0.33870 0.34751
# Poissons Ratio (y) = 0.65643 0.44021
# Poissons Ratio (z) = 0.13396 0.08756
#
# Static dielectric constant tensor:
#      x y z
#    x 1.715100 0.000000 -0.006330 
#    y 0.000000 1.671490 0.000000 
#    z -0.006330 0.000000 1.718490 
# 
# From -- ./inp_files/249556.got.cif
#   From: 2010.05.17/outbox.cif.g08.bks.cpg/sg15_125_cif.got.tgz:249556.got - 2010.06.03 18:47:42.
