data_PCOD9271731
_publ_section_title
;
Structure prediction by ZEFSAII (Michael W. Deem and Ramdas Pophale) SiO2 
 PCOD9271731
Probable space group: C 2/C
;
_chemical_formula_sum "Si O2"
_cell_formula_units_Z 52
_cell_length_a 11.275286
_cell_length_b 11.359672
_cell_length_c 23.795148
_cell_angle_alpha 90.000000
_cell_angle_beta 132.154147
_cell_angle_gamma 90.000000
_cell_volume 2259.437495
_symmetry_space_group_name_H-M "C 2/C"
_symmetry_group_IT_number 15
_symmetry_cell_setting 'monoclinic'
loop_
_space_group_symop_operation_xyz
x,y,z
-x,y,1/2-z
-x,-y,-z
x,-y,1/2+z
1/2+x,1/2+y,z
1/2-x,1/2+y,1/2-z
1/2-x,1/2-y,-z
1/2+x,1/2-y,1/2+z
loop_
_atom_site_type_symbol
_atom_site_label
_atom_site_fract_x
_atom_site_fract_y
_atom_site_fract_z
Si Si1 0.633557 0.916290 0.515165
Si Si2 0.428630 0.880248 0.345454
Si Si3 0.864522 0.124390 0.594765
Si Si4 0.048199 0.209771 0.998758
Si Si5 0.500000 0.004112 0.750000
Si Si6 0.670967 0.376960 0.646636
Si Si7 0.103214 0.014302 0.737152
O O1 0.580379 0.898548 0.433766
O O2 0.605159 0.792266 0.537353
O O3 0.500000 0.000000 0.500000
O O4 0.792828 0.992022 0.569531
O O5 0.359137 0.751956 0.336791
O O6 0.280210 0.963528 0.316095
O O7 0.466458 0.914532 0.293680
O O8 0.945458 0.159268 0.561597
O O9 0.711364 0.209798 0.555124
O O10 0.992125 0.127007 0.685787
O O11 0.069153 0.120078 0.056920
O O12 0.349599 0.919630 0.689673
O O13 0.623140 0.459236 0.682732
O O14 0.000000 0.944874 0.750000
#
# Coordination Sequence:
#
# PCOD9271731 Si02
#       7
#     8   8   8   8   4   8   8
#     4   9  17  35  58  83 115 154 199 248 299 363
#     4  10  22  40  61  87 125 161 203 259 303 371
#     4  10  20  36  61  85 120 153 205 259 297 368
#     4   9  19  36  57  86 112 156 205 245 308 364
#     4  10  22  38  60  90 120 170 204 250 316 366
#     4  10  22  38  61  86 122 162 205 252 312 374
#     4  11  23  39  57  91 121 159 203 257 308 364
#
# _framework density 23.014578
#
# number of rings (size 3 to 8) (size 9 to 14) (size 15 to 20)
#    0.000    2.154    0.000    3.692    4.308    0.615 
#    8.308    3.077    0.000    0.000    0.000    0.000 
#    0.000    0.000    0.000    0.000    0.000    0.000 
#
# Total GULP energy -145169.046383 kJ/mol
# GULP energy per Si atom -5583.424861 kJ/mol
# Density = 2.296220 g / cm^3
# Si number density = 23.014578 Si / 1000 Ang^3
#
#
#
# Elastic Constant Matrix: (Units=GPa)
#
#
# Indices 1 2 3 4 5 6 
#
# 1 89.3295 22.2398 31.3974 0.0000 -17.8693 0.0000
# 2 22.2398 46.9600 30.7106 0.0000 -10.7944 0.0000
# 3 31.3974 30.7106 84.7740 0.0000 -13.1884 0.0000
# 4 0.0000 0.0000 0.0000 22.2081 0.0000 -6.1453
# 5 -17.8693 -10.7944 -13.1884 0.0000 35.0215 0.0000
# 6 0.0000 0.0000 0.0000 -6.1453 0.0000 19.9982
#
#
#
# Elastic Compliance Matrix: (Units=1/GPa)
#
#
# Indices 1 2 3 4 5 6 
#
# 1 0.014183 -0.003469 -0.003226 0.000000 0.004953 0.000000
# 2 -0.003469 0.029637 -0.008823 0.000000 0.004042 0.000000
# 3 -0.003226 -0.008823 0.016473 0.000000 0.001838 0.000000
# 4 0.000000 0.000000 0.000000 0.049213 0.000000 0.015123
# 5 0.004953 0.004042 0.001838 0.000000 0.033019 0.000000
# 6 0.000000 0.000000 0.000000 0.015123 0.000000 0.054652
#
#
# Mechanical properties :
#
#
# Convention : Reuss Voigt Hill
#
# Bulk Modulus (GPa) = 34.17908 43.30658 38.74283
# Shear Modulus (GPa) = 21.01170 24.55993 22.78582
#
# Velocity S-wave (km/s) = 3.02482 3.27027 3.14994
# Velocity P-wave (km/s) = 5.20410 5.75477 5.48635
#
# Compressibility (1/GPa) = 0.02925767
#
# Stress axis : x y z
#
# Youngs Moduli (GPa) = 70.50909 33.74216 60.70604
#
# Poissons Ratio (x) = 0.11705 0.19581
# Poissons Ratio (y) = 0.24459 0.53559
# Poissons Ratio (z) = 0.22743 0.29770
#
# Static dielectric constant tensor:
#      x y z
#    x 1.877420 0.000000 0.016560 
#    y 0.000000 1.894430 0.000000 
#    z 0.016560 0.000000 1.859110 
# 
# From -- ./inp_files/269299.got.cif
#   From: 2010.05.17/outbox.cif.g08.bks.cpg/sg15_135_cif.got.tgz:269299.got - 2010.06.03 18:47:42.
