data_PCOD9271954
_publ_section_title
;
Structure prediction by ZEFSAII (Michael W. Deem and Ramdas Pophale) SiO2 
 PCOD9271954
Probable space group: C 2/C
;
_chemical_formula_sum "Si O2"
_cell_formula_units_Z 40
_cell_length_a 12.988782
_cell_length_b 25.445669
_cell_length_c 5.593155
_cell_angle_alpha 90.000000
_cell_angle_beta 62.145511
_cell_angle_gamma 90.000000
_cell_volume 1634.401452
_symmetry_space_group_name_H-M "C 2/C"
_symmetry_group_IT_number 15
_symmetry_cell_setting 'monoclinic'
loop_
_space_group_symop_operation_xyz
x,y,z
-x,y,1/2-z
-x,-y,-z
x,-y,1/2+z
1/2+x,1/2+y,z
1/2-x,1/2+y,1/2-z
1/2-x,1/2-y,-z
1/2+x,1/2-y,1/2+z
loop_
_atom_site_type_symbol
_atom_site_label
_atom_site_fract_x
_atom_site_fract_y
_atom_site_fract_z
Si Si1 0.361263 0.029757 0.412250
Si Si2 0.500000 0.144852 0.750000
Si Si3 0.124042 0.825359 0.545180
Si Si4 0.348816 0.213025 0.560181
Si Si5 0.500000 0.687929 0.750000
Si Si6 0.217727 0.626973 0.241287
O O1 0.500000 0.042527 0.250000
O O2 0.283983 0.081698 0.453521
O O3 0.338341 0.005533 0.699337
O O4 0.443534 0.180491 0.606048
O O5 0.607392 0.112582 0.529589
O O6 0.231830 0.789627 0.347044
O O7 0.073913 0.848016 0.350723
O O8 0.174606 0.862276 0.697613
O O9 0.000000 0.798682 0.750000
O O10 0.402683 0.269478 0.444465
O O11 0.318963 0.180466 0.354113
#
# Coordination Sequence:
#
# PCOD9271954 Si02
#       6
#     8   4   8   8   4   8
#     4  10  23  39  68 107 145 175 220 286 352 427
#     4  10  20  36  62  93 126 174 211 268 338 420
#     4  11  27  43  65  92 131 182 227 285 327 410
#     4  11  23  41  65  92 131 173 221 282 338 406
#     4  12  24  42  62  99 128 170 235 282 342 392
#     4  11  23  41  66  95 133 179 218 274 352 409
#
# _framework density 24.473787999999999
#
# number of rings (size 3 to 8) (size 9 to 14) (size 15 to 20)
#    0.000    1.200    2.000    3.000   11.200    1.600 
#    0.000    0.000    0.000    1.200    0.000    0.000 
#    0.000    0.000    0.000    0.000    0.000    0.000 
#
# Total GULP energy -111688.987797 kJ/mol
# GULP energy per Si atom -5584.449390 kJ/mol
# Density = 2.441808 g / cm^3
# Si number density = 24.473788 Si / 1000 Ang^3
#
#
#
# Elastic Constant Matrix: (Units=GPa)
#
#
# Indices 1 2 3 4 5 6 
#
# 1 222.7807 68.3977 73.6833 0.0000 33.6570 0.0000
# 2 68.3977 79.7817 28.1273 0.0000 23.1584 0.0000
# 3 73.6833 28.1273 90.5377 0.0000 -7.9021 0.0000
# 4 0.0000 0.0000 0.0000 32.0421 0.0000 24.6409
# 5 33.6570 23.1584 -7.9021 0.0000 96.8349 0.0000
# 6 0.0000 0.0000 0.0000 24.6409 0.0000 39.1968
#
#
#
# Elastic Compliance Matrix: (Units=1/GPa)
#
#
# Indices 1 2 3 4 5 6 
#
# 1 0.007861 -0.004263 -0.005260 0.000000 -0.002142 0.000000
# 2 -0.004263 0.017883 -0.002347 0.000000 -0.002987 0.000000
# 3 -0.005260 -0.002347 0.016380 0.000000 0.003726 0.000000
# 4 0.000000 0.000000 0.000000 0.060417 0.000000 -0.037981
# 5 -0.002142 -0.002987 0.003726 0.000000 0.012090 0.000000
# 6 0.000000 0.000000 0.000000 -0.037981 0.000000 0.049389
#
#
# Mechanical properties :
#
#
# Convention : Reuss Voigt Hill
#
# Bulk Modulus (GPa) = 54.39426 81.50186 67.94806
# Shear Modulus (GPa) = 25.78808 48.47421 37.13114
#
# Velocity S-wave (km/s) = 3.24960 4.45529 3.89933
# Velocity P-wave (km/s) = 6.02940 7.73564 6.93519
#
# Compressibility (1/GPa) = 0.01838429
#
# Stress axis : x y z
#
# Youngs Moduli (GPa) = 127.21244 55.91792 61.04872
#
# Poissons Ratio (x) = 0.23838 0.32112
# Poissons Ratio (y) = 0.54231 0.14329
# Poissons Ratio (z) = 0.66914 0.13124
#
# Static dielectric constant tensor:
#      x y z
#    x 1.942530 0.000000 0.042480 
#    y 0.000000 1.912630 0.000000 
#    z 0.042480 0.000000 2.362550 
# 
# From -- ./inp_files/5719.got.cif
#   From: 2010.05.17/outbox.cif.g08.bks.cpg/sg15_3_cif.got.tgz:5719.got - 2010.06.03 18:47:42.
