data_PCOD9271376
_publ_section_title
;
Structure prediction by ZEFSAII (Michael W. Deem and Ramdas Pophale) SiO2 
 PCOD9271376
Probable space group: C 2/C
;
_chemical_formula_sum "Si O2"
_cell_formula_units_Z 52
_cell_length_a 6.933718
_cell_length_b 28.707380
_cell_length_c 12.513239
_cell_angle_alpha 90.000000
_cell_angle_beta 75.710150
_cell_angle_gamma 90.000000
_cell_volume 2413.681175
_symmetry_space_group_name_H-M "C 2/C"
_symmetry_group_IT_number 15
_symmetry_cell_setting 'monoclinic'
loop_
_space_group_symop_operation_xyz
x,y,z
-x,y,1/2-z
-x,-y,-z
x,-y,1/2+z
1/2+x,1/2+y,z
1/2-x,1/2+y,1/2-z
1/2-x,1/2-y,-z
1/2+x,1/2-y,1/2+z
loop_
_atom_site_type_symbol
_atom_site_label
_atom_site_fract_x
_atom_site_fract_y
_atom_site_fract_z
Si Si1 0.954334 0.221289 0.962499
Si Si2 0.678304 0.271614 0.659084
Si Si3 0.023381 0.114004 0.531045
Si Si4 0.500000 0.445954 0.250000
Si Si5 0.934138 0.533475 0.653194
Si Si6 0.308825 0.620680 0.340843
Si Si7 0.423966 0.065799 0.418484
O O1 0.919445 0.166869 0.945577
O O2 0.115507 0.244360 0.861772
O O3 0.750000 0.250000 0.000000
O O4 0.077202 0.224539 0.056519
O O5 0.500000 0.249136 0.750000
O O6 0.714104 0.325108 0.687726
O O7 0.972995 0.085296 0.645826
O O8 0.211285 0.090096 0.446110
O O9 0.857166 0.116807 0.461087
O O10 0.301630 0.475373 0.301292
O O11 0.964033 0.560449 0.539980
O O12 0.000000 0.560244 0.750000
O O13 0.063271 0.486528 0.627661
O O14 0.500000 0.602593 0.250000
O O15 0.106155 0.594145 0.345083
#
# Coordination Sequence:
#
# PCOD9271376 Si02
#       7
#     8   8   8   4   8   8   8
#     4  10  20  36  59  83 114 151 188 234 280 337
#     4   9  20  37  54  83 117 148 187 230 281 338
#     4  10  22  38  57  85 113 146 192 232 279 339
#     4  10  22  40  58  80 114 150 190 236 284 340
#     4  10  22  38  58  81 112 146 186 234 286 337
#     4  10  21  36  58  83 114 150 184 229 282 331
#     4  10  22  37  56  85 111 144 188 234 280 337
#
# _framework density 21.543855000000001
#
# number of rings (size 3 to 8) (size 9 to 14) (size 15 to 20)
#    0.000    2.154    0.000    1.846    3.231    1.846 
#    0.000   13.077    0.000    0.000    0.000    0.000 
#    0.000    0.000    0.000    0.000    0.000    0.000 
#
# Total GULP energy -145113.868135 kJ/mol
# GULP energy per Si atom -5581.302621 kJ/mol
# Density = 2.149482 g / cm^3
# Si number density = 21.543855 Si / 1000 Ang^3
#
#
#
# Elastic Constant Matrix: (Units=GPa)
#
#
# Indices 1 2 3 4 5 6 
#
# 1 78.3982 40.3325 21.0306 0.0000 -30.3398 0.0000
# 2 40.3325 68.7280 4.3458 0.0000 -21.8697 0.0000
# 3 21.0306 4.3458 88.9259 0.0000 -14.8177 0.0000
# 4 0.0000 0.0000 0.0000 13.9266 0.0000 -25.6944
# 5 -30.3398 -21.8697 -14.8177 0.0000 55.8357 0.0000
# 6 0.0000 0.0000 0.0000 -25.6944 0.0000 25.3760
#
#
#
# Elastic Compliance Matrix: (Units=1/GPa)
#
#
# Indices 1 2 3 4 5 6 
#
# 1 0.021617 -0.010306 -0.003478 0.000000 0.006786 0.000000
# 2 -0.010306 0.021542 0.001943 0.000000 0.003353 0.000000
# 3 -0.003478 0.001943 0.012330 0.000000 0.002144 0.000000
# 4 0.000000 0.000000 0.000000 -0.082711 0.000000 -0.083749
# 5 0.006786 0.003353 0.002144 0.000000 0.023479 0.000000
# 6 0.000000 0.000000 0.000000 -0.083749 0.000000 -0.045393
#
#
# Mechanical properties :
#
#
# Convention : Reuss Voigt Hill
#
# Bulk Modulus (GPa) = 31.43886 40.83000 36.13443
# Shear Modulus (GPa) = -336.66705 30.38386 -153.14159
#
# Velocity S-wave (km/s) = -12.51438 3.75951 -8.44026
# Velocity P-wave (km/s) = 13.93515 6.15129 8.84167
#
# Compressibility (1/GPa) = 0.03180777
#
# Stress axis : x y z
#
# Youngs Moduli (GPa) = 46.26044 46.42001 81.10289
#
# Poissons Ratio (x) = 0.47842 0.28206
# Poissons Ratio (y) = 0.47677 -0.15761
# Poissons Ratio (z) = 0.16088 -0.09021
#
# Static dielectric constant tensor:
#      x y z
#    x 1.783740 0.000000 0.023240 
#    y 0.000000 1.763940 0.000000 
#    z 0.023240 0.000000 1.857700 
# 
# From -- ./inp_files/130706.got.cif
#   From: 2010.05.17/outbox.cif.g08.bks.cpg/sg15_66_cif.got.tgz:130706.got - 2010.06.03 18:47:42.
