data_PCOD9271640
_publ_section_title
;
Structure prediction by ZEFSAII (Michael W. Deem and Ramdas Pophale) SiO2 
 PCOD9271640
Probable space group: C 2/C
;
_chemical_formula_sum "Si O2"
_cell_formula_units_Z 52
_cell_length_a 22.834795
_cell_length_b 13.547951
_cell_length_c 13.200355
_cell_angle_alpha 90.000000
_cell_angle_beta 36.407207
_cell_angle_gamma 90.000000
_cell_volume 2423.772176
_symmetry_space_group_name_H-M "C 2/C"
_symmetry_group_IT_number 15
_symmetry_cell_setting 'monoclinic'
loop_
_space_group_symop_operation_xyz
x,y,z
-x,y,1/2-z
-x,-y,-z
x,-y,1/2+z
1/2+x,1/2+y,z
1/2-x,1/2+y,1/2-z
1/2-x,1/2-y,-z
1/2+x,1/2-y,1/2+z
loop_
_atom_site_type_symbol
_atom_site_label
_atom_site_fract_x
_atom_site_fract_y
_atom_site_fract_z
Si Si1 0.415733 0.694799 0.110363
Si Si2 0.126565 0.786620 0.258877
Si Si3 0.358325 0.970200 0.083520
Si Si4 0.000000 0.593999 0.750000
Si Si5 0.184752 0.016036 0.182815
Si Si6 0.163211 0.622712 0.675544
Si Si7 0.842929 0.746404 0.510642
O O1 0.405528 0.589375 0.175340
O O2 0.335208 0.771106 0.269408
O O3 0.391874 0.683497 0.024674
O O4 0.527709 0.733443 0.959402
O O5 0.225111 0.737211 0.166287
O O6 0.150949 0.903530 0.216240
O O7 0.114621 0.750628 0.160770
O O8 0.365766 0.951956 0.192751
O O9 0.360343 0.862459 0.029577
O O10 0.256675 0.016258 0.181520
O O11 0.446269 0.029979 0.910818
O O12 0.914498 0.645942 0.805793
O O13 0.247786 0.065790 0.004182
#
# Coordination Sequence:
#
# PCOD9271640 Si02
#       7
#     8   8   8   4   8   8   8
#     4  11  22  38  64  87 123 165 208 247 307 377
#     4  10  21  39  62  90 119 160 209 257 302 363
#     4   9  20  36  59  87 120 155 202 255 310 356
#     4  10  20  36  60  90 120 158 208 252 308 372
#     4  10  22  39  58  86 127 160 208 247 311 366
#     4  10  22  38  58  90 124 165 200 260 311 360
#     4   9  21  38  59  89 120 154 201 260 310 356
#
# _framework density 21.454160999999999
#
# number of rings (size 3 to 8) (size 9 to 14) (size 15 to 20)
#    0.000    2.154    0.000    1.846    6.462    2.462 
#    2.769    1.538    3.385    0.000    0.000    0.000 
#    0.000    0.000    0.000    0.000    0.000    0.000 
#
# Total GULP energy -144998.525097 kJ/mol
# GULP energy per Si atom -5576.866350 kJ/mol
# Density = 2.140533 g / cm^3
# Si number density = 21.454161 Si / 1000 Ang^3
#
#
#
# Elastic Constant Matrix: (Units=GPa)
#
#
# Indices 1 2 3 4 5 6 
#
# 1 55.9862 -5.3628 18.5515 0.0000 13.5530 0.0000
# 2 -5.3628 22.6078 12.7816 0.0000 3.0525 0.0000
# 3 18.5515 12.7816 64.6700 0.0000 -4.8597 0.0000
# 4 0.0000 0.0000 0.0000 23.9627 0.0000 -1.3346
# 5 13.5530 3.0525 -4.8597 0.0000 18.7306 0.0000
# 6 0.0000 0.0000 0.0000 -1.3346 0.0000 3.7781
#
#
#
# Elastic Compliance Matrix: (Units=1/GPa)
#
#
# Indices 1 2 3 4 5 6 
#
# 1 0.032650 0.020904 -0.015838 0.000000 -0.031141 0.000000
# 2 0.020904 0.065454 -0.021286 0.000000 -0.031315 0.000000
# 3 -0.015838 -0.021286 0.025839 0.000000 0.021633 0.000000
# 4 0.000000 0.000000 0.000000 0.042569 0.000000 0.015038
# 5 -0.031141 -0.031315 0.021633 0.000000 0.086638 0.000000
# 6 0.000000 0.000000 0.000000 0.015038 0.000000 0.269998
#
#
# Mechanical properties :
#
#
# Convention : Reuss Voigt Hill
#
# Bulk Modulus (GPa) = 10.92866 21.68940 16.30903
# Shear Modulus (GPa) = 8.53112 17.11386 12.82249
#
# Velocity S-wave (km/s) = 1.99627 2.82741 2.44738
# Velocity P-wave (km/s) = 3.22776 4.55967 3.95026
#
# Compressibility (1/GPa) = 0.09150253
#
# Stress axis : x y z
#
# Youngs Moduli (GPa) = 30.62747 15.27798 38.70095
#
# Poissons Ratio (x) = -0.31937 0.61294
# Poissons Ratio (y) = -0.64023 0.82380
# Poissons Ratio (z) = 0.48507 0.32521
#
# Static dielectric constant tensor:
#      x y z
#    x 1.795120 0.000000 -0.019670 
#    y 0.000000 1.788170 0.000000 
#    z -0.019670 0.000000 1.799910 
# 
# From -- ./inp_files/118736.got.cif
#   From: 2010.05.17/outbox.cif.g08.bks.cpg/sg15_60_cif.got.tgz:118736.got - 2010.06.03 18:47:42.
