data_PCOD9271017
_publ_section_title
;
Structure prediction by ZEFSAII (Michael W. Deem and Ramdas Pophale) SiO2 
 PCOD9271017
Probable space group: C 2/C
;
_chemical_formula_sum "Si O2"
_cell_formula_units_Z 40
_cell_length_a 16.241508
_cell_length_b 13.922598
_cell_length_c 17.292791
_cell_angle_alpha 90.000000
_cell_angle_beta 151.561480
_cell_angle_gamma 90.000000
_cell_volume 1862.152499
_symmetry_space_group_name_H-M "C 2/C"
_symmetry_group_IT_number 15
_symmetry_cell_setting 'monoclinic'
loop_
_space_group_symop_operation_xyz
x,y,z
-x,y,1/2-z
-x,-y,-z
x,-y,1/2+z
1/2+x,1/2+y,z
1/2-x,1/2+y,1/2-z
1/2-x,1/2-y,-z
1/2+x,1/2-y,1/2+z
loop_
_atom_site_type_symbol
_atom_site_label
_atom_site_fract_x
_atom_site_fract_y
_atom_site_fract_z
Si Si1 0.134103 0.207865 0.642212
Si Si2 0.531982 0.621181 0.403491
Si Si3 0.073140 0.441920 0.134210
Si Si4 0.191728 0.104111 0.148243
Si Si5 0.246913 0.351151 0.542054
O O1 0.299379 0.140490 0.791859
O O2 0.183611 0.311830 0.714904
O O3 0.104481 0.199784 0.524426
O O4 0.954209 0.159454 0.522345
O O5 0.750000 0.750000 0.500000
O O6 0.421333 0.559653 0.373277
O O7 0.673275 0.582160 0.460908
O O8 0.385235 0.658881 0.224840
O O9 0.189810 0.516800 0.279627
O O10 0.000000 0.500000 0.000000
O O11 0.926031 0.395695 0.066113
#
# Coordination Sequence:
#
# PCOD9271017 Si02
#       5
#     8   8   8   8   8
#     4  10  21  37  60  86 128 167 218 269 326 380
#     4   9  21  35  56  85 127 166 212 258 327 383
#     4  12  22  37  58  87 130 173 219 263 328 394
#     4  10  20  36  56  86 121 165 213 264 320 383
#     4  11  21  36  56  88 129 176 210 265 328 384
#
# _framework density 21.480518
#
# number of rings (size 3 to 8) (size 9 to 14) (size 15 to 20)
#    1.200    0.400    2.000    4.200    0.000    2.400 
#    0.000    0.000    0.000    0.000    0.000    1.400 
#    6.000    0.200    0.000    0.000    0.000    0.000 
#
# Total GULP energy -111415.770582 kJ/mol
# GULP energy per Si atom -5570.788529 kJ/mol
# Density = 2.143163 g / cm^3
# Si number density = 21.480518 Si / 1000 Ang^3
#
#
#
# Elastic Constant Matrix: (Units=GPa)
#
#
# Indices 1 2 3 4 5 6 
#
# 1 62.0820 34.4891 50.9887 0.0001 0.0822 0.0000
# 2 34.4891 101.6762 46.9999 0.0002 13.3986 0.0000
# 3 50.9887 46.9999 126.2966 0.0006 17.1347 0.0000
# 4 0.0001 0.0002 0.0006 48.6466 -0.0001 2.2604
# 5 0.0822 13.3986 17.1347 -0.0001 39.6292 0.0000
# 6 0.0000 0.0000 0.0000 2.2604 0.0000 31.1472
#
#
#
# Elastic Compliance Matrix: (Units=1/GPa)
#
#
# Indices 1 2 3 4 5 6 
#
# 1 0.027146 -0.005504 -0.009727 0.000000 0.006010 0.000000
# 2 -0.005504 0.013184 -0.002211 0.000000 -0.003490 0.000000
# 3 -0.009727 -0.002211 0.013346 0.000000 -0.005003 0.000000
# 4 0.000000 0.000000 0.000000 0.020626 0.000000 -0.001497
# 5 0.006010 -0.003490 -0.005003 0.000000 0.028565 0.000000
# 6 0.000000 0.000000 0.000000 -0.001497 0.000000 0.032214
#
#
# Mechanical properties :
#
#
# Convention : Reuss Voigt Hill
#
# Bulk Modulus (GPa) = 53.20948 61.66781 57.43864
# Shear Modulus (GPa) = 28.37235 34.38973 31.38104
#
# Velocity S-wave (km/s) = 3.63828 4.00556 3.82633
# Velocity P-wave (km/s) = 6.51723 7.08263 6.80580
#
# Compressibility (1/GPa) = 0.01879364
#
# Stress axis : x y z
#
# Youngs Moduli (GPa) = 36.83779 75.84994 74.92802
#
# Poissons Ratio (x) = 0.41747 0.72880
# Poissons Ratio (y) = 0.20275 0.16564
# Poissons Ratio (z) = 0.35831 0.16768
#
# Static dielectric constant tensor:
#      x y z
#    x 1.833980 0.000000 0.040250 
#    y 0.000000 1.896060 0.000000 
#    z 0.040250 0.000000 1.912720 
# 
# From -- ./inp_files/301060.got.cif
#   From: 2010.05.17/outbox.cif.g08.bks.cpg/sg15_151_cif.got.tgz:301060.got - 2010.06.03 18:47:42.
