data_PCOD9271832
_publ_section_title
;
Structure prediction by ZEFSAII (Michael W. Deem and Ramdas Pophale) SiO2 
 PCOD9271832
Probable space group: C 2/C
;
_chemical_formula_sum "Si O2"
_cell_formula_units_Z 40
_cell_length_a 11.419738
_cell_length_b 21.548815
_cell_length_c 8.464738
_cell_angle_alpha 90.000000
_cell_angle_beta 107.571604
_cell_angle_gamma 90.000000
_cell_volume 1985.825365
_symmetry_space_group_name_H-M "C 2/C"
_symmetry_group_IT_number 15
_symmetry_cell_setting 'monoclinic'
loop_
_space_group_symop_operation_xyz
x,y,z
-x,y,1/2-z
-x,-y,-z
x,-y,1/2+z
1/2+x,1/2+y,z
1/2-x,1/2+y,1/2-z
1/2-x,1/2-y,-z
1/2+x,1/2-y,1/2+z
loop_
_atom_site_type_symbol
_atom_site_label
_atom_site_fract_x
_atom_site_fract_y
_atom_site_fract_z
Si Si1 0.000000 0.000000 0.500000
Si Si2 0.631497 0.603363 0.747820
Si Si3 0.604224 0.922870 0.562437
Si Si4 0.500000 0.610990 0.250000
Si Si5 0.770910 0.177124 0.004869
Si Si6 0.835084 0.449556 0.549726
O O1 0.980940 0.064324 0.388348
O O2 0.097725 0.037814 0.652468
O O3 0.500000 0.629435 0.750000
O O4 0.697265 0.649906 0.655225
O O5 0.717170 0.583409 0.928580
O O6 0.650857 0.857833 0.519521
O O7 0.457284 0.928808 0.504213
O O8 0.645748 0.934957 0.759389
O O9 0.665905 0.976580 0.481014
O O10 0.383114 0.653397 0.160762
O O11 0.750000 0.250000 0.000000
#
# Coordination Sequence:
#
# PCOD9271832 Si02
#       6
#     4   8   8   4   8   8
#     4  10  20  36  62 102 126 156 204 286 356 384
#     4  11  24  39  64  99 130 166 216 284 345 393
#     4  10  22  41  64  96 128 172 215 269 338 401
#     4  10  22  38  68  98 132 168 212 290 334 398
#     4  11  26  44  63  93 133 184 225 262 328 411
#     4  10  22  39  67  97 130 162 215 282 343 399
#
# _framework density 20.142757
#
# number of rings (size 3 to 8) (size 9 to 14) (size 15 to 20)
#    0.000    1.600    1.000    2.400   11.200    4.000 
#    3.600    1.000    0.000    0.000    0.000    0.000 
#    0.000    0.000    0.000    0.000    0.000    0.000 
#
# Total GULP energy -111365.532331 kJ/mol
# GULP energy per Si atom -5568.276617 kJ/mol
# Density = 2.009691 g / cm^3
# Si number density = 20.142757 Si / 1000 Ang^3
#
#
#
# Elastic Constant Matrix: (Units=GPa)
#
#
# Indices 1 2 3 4 5 6 
#
# 1 83.2147 48.1942 34.1523 0.0000 -2.5035 0.0000
# 2 48.1942 171.4789 28.9513 0.0000 -6.4880 0.0000
# 3 34.1523 28.9513 80.0390 0.0000 13.7515 0.0000
# 4 0.0000 0.0000 0.0000 10.7327 0.0000 -1.4135
# 5 -2.5035 -6.4880 13.7515 0.0000 34.6950 0.0000
# 6 0.0000 0.0000 0.0000 -1.4135 0.0000 27.4307
#
#
#
# Elastic Compliance Matrix: (Units=1/GPa)
#
#
# Indices 1 2 3 4 5 6 
#
# 1 0.016782 -0.003515 -0.006422 0.000000 0.003099 0.000000
# 2 -0.003515 0.007108 -0.001348 0.000000 0.001610 0.000000
# 3 -0.006422 -0.001348 0.017002 0.000000 -0.007454 0.000000
# 4 0.000000 0.000000 0.000000 0.093810 0.000000 0.004834
# 5 0.003099 0.001610 -0.007454 0.000000 0.032302 0.000000
# 6 0.000000 0.000000 0.000000 0.004834 0.000000 0.036705
#
#
# Mechanical properties :
#
#
# Convention : Reuss Voigt Hill
#
# Bulk Modulus (GPa) = 54.57641 61.92535 58.25088
# Shear Modulus (GPa) = 21.51609 29.46733 25.49171
#
# Velocity S-wave (km/s) = 3.27185 3.82897 3.56132
# Velocity P-wave (km/s) = 6.43638 7.09634 6.77440
#
# Compressibility (1/GPa) = 0.01832293
#
# Stress axis : x y z
#
# Youngs Moduli (GPa) = 59.58912 140.68689 58.81587
#
# Poissons Ratio (x) = 0.49452 0.37769
# Poissons Ratio (y) = 0.20946 0.07927
# Poissons Ratio (z) = 0.38266 0.18962
#
# Static dielectric constant tensor:
#      x y z
#    x 1.899460 0.000000 0.009920 
#    y 0.000000 1.629760 0.000000 
#    z 0.009920 0.000000 1.768390 
# 
# From -- ./inp_files/30539.got.cif
#   From: 2010.05.17/outbox.cif.g08.bks.cpg/sg15_16_cif.got.tgz:30539.got - 2010.06.03 18:47:42.
