data_PCOD9271612
_publ_section_title
;
Structure prediction by ZEFSAII (Michael W. Deem and Ramdas Pophale) SiO2 
 PCOD9271612
Probable space group: C 2/C
;
_chemical_formula_sum "Si O2"
_cell_formula_units_Z 36
_cell_length_a 9.669427
_cell_length_b 12.508026
_cell_length_c 14.236229
_cell_angle_alpha 90.000000
_cell_angle_beta 76.130527
_cell_angle_gamma 90.000000
_cell_volume 1671.606615
_symmetry_space_group_name_H-M "C 2/C"
_symmetry_group_IT_number 15
_symmetry_cell_setting 'monoclinic'
loop_
_space_group_symop_operation_xyz
x,y,z
-x,y,1/2-z
-x,-y,-z
x,-y,1/2+z
1/2+x,1/2+y,z
1/2-x,1/2+y,1/2-z
1/2-x,1/2-y,-z
1/2+x,1/2-y,1/2+z
loop_
_atom_site_type_symbol
_atom_site_label
_atom_site_fract_x
_atom_site_fract_y
_atom_site_fract_z
Si Si1 0.162289 0.433628 0.717901
Si Si2 0.132902 0.916924 0.991171
Si Si3 0.738452 0.908323 0.916355
Si Si4 0.528790 0.763966 0.049269
Si Si5 0.500000 0.858530 0.250000
O O1 0.266000 0.407953 0.616056
O O2 0.231630 0.405395 0.805866
O O3 0.131614 0.560921 0.711478
O O4 0.000000 0.388439 0.750000
O O5 0.068331 0.799134 0.009020
O O6 0.222715 0.972137 0.058296
O O7 0.000000 0.000000 0.000000
O O8 0.851961 0.823234 0.938605
O O9 0.593934 0.867344 0.988313
O O10 0.466555 0.795965 0.160421
#
# Coordination Sequence:
#
# PCOD9271612 Si02
#       5
#     8   8   8   8   4
#     4  10  22  38  62  87 130 168 209 269 335 381
#     4  10  21  39  63  94 126 169 216 268 332 382
#     4  10  20  40  63  90 129 165 213 271 329 382
#     4  10  20  36  65  91 123 166 220 266 320 402
#     4  10  20  36  60  88 120 168 206 256 328 370
#
# _framework density 21.536168
#
# number of rings (size 3 to 8) (size 9 to 14) (size 15 to 20)
#    0.667    1.333    2.222    1.333    0.000    6.222 
#    0.000    6.667    0.000    0.000    0.000    0.000 
#    0.000    0.000    0.000    0.000    0.000    0.000 
#
# Total GULP energy -100331.334147 kJ/mol
# GULP energy per Si atom -5573.963008 kJ/mol
# Density = 2.148715 g / cm^3
# Si number density = 21.536168 Si / 1000 Ang^3
#
#
#
# Elastic Constant Matrix: (Units=GPa)
#
#
# Indices 1 2 3 4 5 6 
#
# 1 62.3229 17.3837 18.3931 0.0000 -7.2883 0.0000
# 2 17.3837 48.9856 -19.8012 0.0000 8.6205 0.0000
# 3 18.3931 -19.8012 57.4114 0.0000 -1.0869 0.0000
# 4 0.0000 0.0000 0.0000 27.4473 0.0000 -3.2350
# 5 -7.2883 8.6205 -1.0869 0.0000 27.2962 0.0000
# 6 0.0000 0.0000 0.0000 -3.2350 0.0000 4.4632
#
#
#
# Elastic Compliance Matrix: (Units=1/GPa)
#
#
# Indices 1 2 3 4 5 6 
#
# 1 0.026421 -0.017203 -0.014172 0.000000 0.011923 0.000000
# 2 -0.017203 0.036413 0.017779 0.000000 -0.015385 0.000000
# 3 -0.014172 0.017779 0.027934 0.000000 -0.008287 0.000000
# 4 0.000000 0.000000 0.000000 0.039837 0.000000 0.028874
# 5 0.011923 -0.015385 -0.008287 0.000000 0.044348 0.000000
# 6 0.000000 0.000000 0.000000 0.028874 0.000000 0.244985
#
#
# Mechanical properties :
#
#
# Convention : Reuss Voigt Hill
#
# Bulk Modulus (GPa) = 15.72929 22.29679 19.01304
# Shear Modulus (GPa) = 10.67644 22.02428 16.35036
#
# Velocity S-wave (km/s) = 2.22895 3.20138 2.75836
# Velocity P-wave (km/s) = 3.73414 4.90314 4.35801
#
# Compressibility (1/GPa) = 0.06357564
#
# Stress axis : x y z
#
# Youngs Moduli (GPa) = 37.84900 27.46251 35.79911
#
# Poissons Ratio (x) = 0.47244 0.50735
# Poissons Ratio (y) = 0.65112 -0.63648
# Poissons Ratio (z) = 0.53640 -0.48826
#
# Static dielectric constant tensor:
#      x y z
#    x 1.692620 0.000000 0.101240 
#    y 0.000000 1.807320 0.000000 
#    z 0.101240 0.000000 1.661710 
# 
# From -- ./inp_files/84374.got.cif
#   From: 2010.05.17/outbox.cif.g08.bks.cpg/sg15_43_cif.got.tgz:84374.got - 2010.06.03 18:47:42.
