data_PCOD9271510
_publ_section_title
;
Structure prediction by ZEFSAII (Michael W. Deem and Ramdas Pophale) SiO2 
 PCOD9271510
Probable space group: C 2/C
;
_chemical_formula_sum "Si O2"
_cell_formula_units_Z 32
_cell_length_a 16.210558
_cell_length_b 9.631648
_cell_length_c 8.486174
_cell_angle_alpha 90.000000
_cell_angle_beta 62.316939
_cell_angle_gamma 90.000000
_cell_volume 1173.314060
_symmetry_space_group_name_H-M "C 2/C"
_symmetry_group_IT_number 15
_symmetry_cell_setting 'monoclinic'
loop_
_space_group_symop_operation_xyz
x,y,z
-x,y,1/2-z
-x,-y,-z
x,-y,1/2+z
1/2+x,1/2+y,z
1/2-x,1/2+y,1/2-z
1/2-x,1/2-y,-z
1/2+x,1/2-y,1/2+z
loop_
_atom_site_type_symbol
_atom_site_label
_atom_site_fract_x
_atom_site_fract_y
_atom_site_fract_z
Si Si1 0.321490 0.931240 0.955241
Si Si2 0.432111 0.718099 0.669949
Si Si3 0.666605 0.365303 0.548745
Si Si4 0.584550 0.844716 0.327152
O O1 0.348435 0.801220 0.825872
O O2 0.397135 0.049160 0.832857
O O3 0.336092 0.892246 0.122463
O O4 0.219390 0.991690 0.024552
O O5 0.500000 0.662043 0.750000
O O6 0.386629 0.631835 0.569578
O O7 0.495642 0.831230 0.519065
O O8 0.750000 0.250000 0.500000
O O9 0.597836 0.309017 0.744227
#
# Coordination Sequence:
#
# PCOD9271510 Si02
#       4
#     8   8   8   8
#     4  10  20  36  59  93 129 163 205 269 326 371
#     4  10  21  39  64  95 126 163 216 270 318 383
#     4  10  21  37  58  95 133 163 203 271 332 375
#     4  10  20  36  61  93 124 163 213 264 314 379
#
# _framework density 27.273174000000001
#
# number of rings (size 3 to 8) (size 9 to 14) (size 15 to 20)
#    0.000    2.000    0.000    4.500    0.000    8.000 
#    0.000   36.250    0.000    0.000    0.000  192.500 
#    0.000    0.000    0.000    0.000    0.000    0.000 
#
# Total GULP energy -89592.150810 kJ/mol
# GULP energy per Si atom -5599.509426 kJ/mol
# Density = 2.721110 g / cm^3
# Si number density = 27.273174 Si / 1000 Ang^3
#
#
#
# Elastic Constant Matrix: (Units=GPa)
#
#
# Indices 1 2 3 4 5 6 
#
# 1 195.4905 66.2251 74.8933 0.0000 63.0671 0.0000
# 2 66.2251 95.6373 50.1476 0.0000 11.8477 0.0000
# 3 74.8933 50.1476 159.7525 0.0000 37.2416 0.0000
# 4 0.0000 0.0000 0.0000 21.4217 0.0000 9.8227
# 5 63.0671 11.8477 37.2416 0.0000 61.3772 0.0000
# 6 0.0000 0.0000 0.0000 9.8227 0.0000 42.8220
#
#
#
# Elastic Compliance Matrix: (Units=1/GPa)
#
#
# Indices 1 2 3 4 5 6 
#
# 1 0.010182 -0.005426 -0.001019 0.000000 -0.008796 0.000000
# 2 -0.005426 0.015408 -0.003377 0.000000 0.004650 0.000000
# 3 -0.001019 -0.003377 0.008621 0.000000 -0.003532 0.000000
# 4 0.000000 0.000000 0.000000 0.052169 0.000000 -0.011967
# 5 -0.008796 0.004650 -0.003532 0.000000 0.026576 0.000000
# 6 0.000000 0.000000 0.000000 -0.011967 0.000000 0.026097
#
#
# Mechanical properties :
#
#
# Convention : Reuss Voigt Hill
#
# Bulk Modulus (GPa) = 68.65472 92.60136 80.62804
# Shear Modulus (GPa) = 30.57090 42.43182 36.50136
#
# Velocity S-wave (km/s) = 3.35164 3.94865 3.66233
# Velocity P-wave (km/s) = 6.34079 7.40379 6.89281
#
# Compressibility (1/GPa) = 0.01456564
#
# Stress axis : x y z
#
# Youngs Moduli (GPa) = 98.21403 64.90006 115.99672
#
# Poissons Ratio (x) = 0.35217 0.11825
# Poissons Ratio (y) = 0.53294 0.39172
# Poissons Ratio (z) = 0.10012 0.21917
#
# Static dielectric constant tensor:
#      x y z
#    x 2.268150 0.000000 0.017290 
#    y 0.000000 2.145470 0.000000 
#    z 0.017290 0.000000 2.118480 
# 
# From -- ./inp_files/36746.got.cif
#   From: 2010.05.17/outbox.cif.g08.bks.cpg/sg15_19_cif.got.tgz:36746.got - 2010.06.03 18:47:42.
