data_PCOD9271337
_publ_section_title
;
Structure prediction by ZEFSAII (Michael W. Deem and Ramdas Pophale) SiO2 
 PCOD9271337
Probable space group: C 2/C
;
_chemical_formula_sum "Si O2"
_cell_formula_units_Z 44
_cell_length_a 13.062577
_cell_length_b 18.192280
_cell_length_c 9.572076
_cell_angle_alpha 90.000000
_cell_angle_beta 96.904777
_cell_angle_gamma 90.000000
_cell_volume 2258.191964
_symmetry_space_group_name_H-M "C 2/C"
_symmetry_group_IT_number 15
_symmetry_cell_setting 'monoclinic'
loop_
_space_group_symop_operation_xyz
x,y,z
-x,y,1/2-z
-x,-y,-z
x,-y,1/2+z
1/2+x,1/2+y,z
1/2-x,1/2+y,1/2-z
1/2-x,1/2-y,-z
1/2+x,1/2-y,1/2+z
loop_
_atom_site_type_symbol
_atom_site_label
_atom_site_fract_x
_atom_site_fract_y
_atom_site_fract_z
Si Si1 0.000000 0.974431 0.250000
Si Si2 0.259930 0.915450 0.962936
Si Si3 0.920892 0.491550 0.362558
Si Si4 0.623388 0.321719 0.738744
Si Si5 0.369304 0.443398 0.970093
Si Si6 0.876109 0.345259 0.243165
O O1 0.075801 0.932201 0.369543
O O2 0.060196 0.023201 0.145189
O O3 0.337816 0.944287 0.857443
O O4 0.175846 0.863537 0.877991
O O5 0.322453 0.873358 0.092843
O O6 0.211243 0.990403 0.017870
O O7 0.862898 0.412891 0.348503
O O8 0.000000 0.496539 0.250000
O O9 0.000000 0.500000 0.500000
O O10 0.500000 0.322556 0.750000
O O11 0.656166 0.365918 0.604748
O O12 0.658597 0.237178 0.731501
O O13 0.000000 0.340500 0.250000
#
# Coordination Sequence:
#
# PCOD9271337 Si02
#       6
#     4   8   8   8   8   8
#     4  10  20  36  58  92 126 164 208 250 306 374
#     4  12  22  39  69  95 121 172 221 257 314 390
#     4  11  22  42  68  92 122 167 220 267 310 367
#     4  11  22  39  62  94 132 166 206 260 325 384
#     4  11  20  37  63  93 125 164 216 255 307 381
#     4  10  22  40  62  91 127 166 212 265 320 375
#
# _framework density 19.484615000000002
#
# number of rings (size 3 to 8) (size 9 to 14) (size 15 to 20)
#    0.000    1.091    6.364    2.727    0.000    0.000 
#    0.000    0.909    2.000    0.000    0.000    0.000 
#    0.000    0.000    0.000    0.000    0.000    0.000 
#
# Total GULP energy -122580.294525 kJ/mol
# GULP energy per Si atom -5571.831569 kJ/mol
# Density = 1.944027 g / cm^3
# Si number density = 19.484615 Si / 1000 Ang^3
#
#
#
# Elastic Constant Matrix: (Units=GPa)
#
#
# Indices 1 2 3 4 5 6 
#
# 1 65.9487 44.6797 30.1425 0.0000 12.6527 0.0000
# 2 44.6797 163.1389 74.9570 0.0000 22.4524 0.0000
# 3 30.1425 74.9570 141.7161 0.0000 22.3147 0.0000
# 4 0.0000 0.0000 0.0000 16.8305 0.0000 -8.6496
# 5 12.6527 22.4524 22.3147 0.0000 37.7033 0.0000
# 6 0.0000 0.0000 0.0000 -8.6496 0.0000 18.0168
#
#
#
# Elastic Compliance Matrix: (Units=1/GPa)
#
#
# Indices 1 2 3 4 5 6 
#
# 1 0.019244 -0.004207 -0.001373 0.000000 -0.003140 0.000000
# 2 -0.004207 0.009241 -0.003693 0.000000 -0.001906 0.000000
# 3 -0.001373 -0.003693 0.009796 0.000000 -0.003138 0.000000
# 4 0.000000 0.000000 0.000000 0.078877 0.000000 0.037868
# 5 -0.003140 -0.001906 -0.003138 0.000000 0.030568 0.000000
# 6 0.000000 0.000000 0.000000 0.037868 0.000000 0.073683
#
#
# Mechanical properties :
#
#
# Convention : Reuss Voigt Hill
#
# Bulk Modulus (GPa) = 50.67519 74.48469 62.57994
# Shear Modulus (GPa) = 20.28117 29.24508 24.76313
#
# Velocity S-wave (km/s) = 3.22977 3.87839 3.56885
# Velocity P-wave (km/s) = 6.32241 7.63978 7.01210
#
# Compressibility (1/GPa) = 0.01973352
#
# Stress axis : x y z
#
# Youngs Moduli (GPa) = 51.96480 108.21309 102.08469
#
# Poissons Ratio (x) = 0.45528 0.14020
# Poissons Ratio (y) = 0.21863 0.37699
# Poissons Ratio (z) = 0.07137 0.39962
#
# Static dielectric constant tensor:
#      x y z
#    x 1.816600 0.000000 0.011790 
#    y 0.000000 1.704390 0.000000 
#    z 0.011790 0.000000 1.664860 
# 
# From -- ./inp_files/39290.got.cif
#   From: 2010.05.17/outbox.cif.g08.bks.cpg/sg15_20_cif.got.tgz:39290.got - 2010.06.03 18:47:42.
