data_PCOD9271578
_publ_section_title
;
Structure prediction by ZEFSAII (Michael W. Deem and Ramdas Pophale) SiO2 
 PCOD9271578
Probable space group: C 2/C
;
_chemical_formula_sum "Si O2"
_cell_formula_units_Z 36
_cell_length_a 11.461911
_cell_length_b 11.246300
_cell_length_c 13.734750
_cell_angle_alpha 90.000000
_cell_angle_beta 49.549437
_cell_angle_gamma 90.000000
_cell_volume 1347.264099
_symmetry_space_group_name_H-M "C 2/C"
_symmetry_group_IT_number 15
_symmetry_cell_setting 'monoclinic'
loop_
_space_group_symop_operation_xyz
x,y,z
-x,y,1/2-z
-x,-y,-z
x,-y,1/2+z
1/2+x,1/2+y,z
1/2-x,1/2+y,1/2-z
1/2-x,1/2-y,-z
1/2+x,1/2-y,1/2+z
loop_
_atom_site_type_symbol
_atom_site_label
_atom_site_fract_x
_atom_site_fract_y
_atom_site_fract_z
Si Si1 0.481259 0.443978 0.402658
Si Si2 0.493704 0.798560 0.964229
Si Si3 0.871649 0.182320 0.419021
Si Si4 0.000000 0.362833 0.250000
Si Si5 0.674048 0.012519 0.832597
O O1 0.500000 0.500000 0.500000
O O2 0.435837 0.305555 0.426104
O O3 0.379489 0.540554 0.403361
O O4 0.654121 0.448388 0.273599
O O5 0.650559 0.869786 0.853179
O O6 0.519675 0.728663 0.050998
O O7 0.388859 0.911302 0.042636
O O8 0.807545 0.318544 0.420734
O O9 0.000000 0.215065 0.250000
O O10 0.077639 0.440552 0.291218
#
# Coordination Sequence:
#
# PCOD9271578 Si02
#       5
#     8   8   8   4   8
#     4  10  21  35  62  91 122 168 210 261 317 380
#     4   9  21  38  60  90 128 172 209 261 320 377
#     4  10  21  36  60  92 124 158 216 262 309 379
#     4  10  20  36  60  86 122 166 206 260 312 364
#     4  10  21  38  63  89 131 169 215 261 318 384
#
# _framework density 26.720818999999999
#
# number of rings (size 3 to 8) (size 9 to 14) (size 15 to 20)
#    0.000    2.222    0.000    2.667   12.444    0.000 
#    0.000    1.111    0.000    9.333    0.000    0.000 
#    0.000    0.000    0.000    0.000    0.000    0.000 
#
# Total GULP energy -100317.537533 kJ/mol
# GULP energy per Si atom -5573.196530 kJ/mol
# Density = 2.666000 g / cm^3
# Si number density = 26.720819 Si / 1000 Ang^3
#
#
#
# Elastic Constant Matrix: (Units=GPa)
#
#
# Indices 1 2 3 4 5 6 
#
# 1 64.1712 50.5472 34.5970 0.0000 -7.0967 0.0000
# 2 50.5472 270.6911 65.5480 0.0000 -3.7492 0.0000
# 3 34.5970 65.5480 103.0577 0.0000 -6.8008 0.0000
# 4 0.0000 0.0000 0.0000 35.7284 0.0000 -10.1582
# 5 -7.0967 -3.7492 -6.8008 0.0000 41.4892 0.0000
# 6 0.0000 0.0000 0.0000 -10.1582 0.0000 80.2626
#
#
#
# Elastic Compliance Matrix: (Units=1/GPa)
#
#
# Indices 1 2 3 4 5 6 
#
# 1 0.020654 -0.002580 -0.005130 0.000000 0.002459 0.000000
# 2 -0.002580 0.004689 -0.002141 0.000000 -0.000369 0.000000
# 3 -0.005130 -0.002141 0.012855 0.000000 0.001036 0.000000
# 4 0.000000 0.000000 0.000000 0.029034 0.000000 0.003675
# 5 0.002459 -0.000369 0.001036 0.000000 0.024660 0.000000
# 6 0.000000 0.000000 0.000000 0.003675 0.000000 0.012924
#
#
# Mechanical properties :
#
#
# Convention : Reuss Voigt Hill
#
# Bulk Modulus (GPa) = 54.06534 82.14492 68.10513
# Shear Modulus (GPa) = 38.26036 50.64456 44.45246
#
# Velocity S-wave (km/s) = 3.78809 4.35825 4.08314
# Velocity P-wave (km/s) = 6.27775 7.49229 6.91175
#
# Compressibility (1/GPa) = 0.01849614
#
# Stress axis : x y z
#
# Youngs Moduli (GPa) = 48.41765 213.24903 77.78839
#
# Poissons Ratio (x) = 0.55027 0.39906
# Poissons Ratio (y) = 0.12494 0.16652
# Poissons Ratio (z) = 0.24839 0.45649
#
# Static dielectric constant tensor:
#      x y z
#    x 2.027980 0.000000 0.321000 
#    y 0.000000 1.800810 0.000000 
#    z 0.321000 0.000000 1.154140 
# 
# From -- ./inp_files/203161.got.cif
#   From: 2010.05.17/outbox.cif.g08.bks.cpg/sg15_102_cif.got.tgz:203161.got - 2010.06.03 18:47:42.
