data_PCOD9271925
_publ_section_title
;
Structure prediction by ZEFSAII (Michael W. Deem and Ramdas Pophale) SiO2 
 PCOD9271925
Probable space group: C 2/C
;
_chemical_formula_sum "Si O2"
_cell_formula_units_Z 60
_cell_length_a 17.321863
_cell_length_b 9.810862
_cell_length_c 16.933162
_cell_angle_alpha 90.000000
_cell_angle_beta 99.754659
_cell_angle_gamma 90.000000
_cell_volume 2836.057895
_symmetry_space_group_name_H-M "C 2/C"
_symmetry_group_IT_number 15
_symmetry_cell_setting 'monoclinic'
loop_
_space_group_symop_operation_xyz
x,y,z
-x,y,1/2-z
-x,-y,-z
x,-y,1/2+z
1/2+x,1/2+y,z
1/2-x,1/2+y,1/2-z
1/2-x,1/2-y,-z
1/2+x,1/2-y,1/2+z
loop_
_atom_site_type_symbol
_atom_site_label
_atom_site_fract_x
_atom_site_fract_y
_atom_site_fract_z
Si Si1 0.430317 0.544465 0.680258
Si Si2 0.545414 0.669023 0.442109
Si Si3 0.944672 0.475892 0.066578
Si Si4 0.624755 0.426616 0.551949
Si Si5 0.173953 0.336448 0.760867
Si Si6 0.653341 0.238576 0.428542
Si Si7 0.204327 0.053216 0.718554
Si Si8 0.500000 0.933433 0.750000
O O1 0.500000 0.578505 0.750000
O O2 0.448574 0.404056 0.640875
O O3 0.419499 0.665172 0.614966
O O4 0.351520 0.529897 0.716238
O O5 0.580023 0.819242 0.446506
O O6 0.592138 0.565641 0.506927
O O7 0.452844 0.665199 0.446564
O O8 0.878125 0.591960 0.050550
O O9 0.981137 0.491914 0.162220
O O10 0.000000 0.500000 0.000000
O O11 0.680852 0.337881 0.503736
O O12 0.664953 0.475668 0.638705
O O13 0.196953 0.287552 0.853537
O O14 0.212819 0.482034 0.752647
O O15 0.080285 0.352381 0.745042
O O16 0.203747 0.216630 0.708955
#
# Coordination Sequence:
#
# PCOD9271925 Si02
#       8
#     8   8   8   8   8   8   8   4
#     4  10  20  36  64  91 127 174 217 265 323 403
#     4  10  21  34  57  98 135 164 228 271 325 400
#     4  11  22  35  62  99 132 168 223 292 323 388
#     4  10  20  36  62  91 128 179 219 267 325 410
#     4  10  25  44  68  96 132 173 224 275 335 408
#     4   9  21  39  59  91 129 170 222 264 333 399
#     4  11  24  40  68  95 133 168 223 276 339 395
#     4  10  26  44  72  94 136 186 222 272 350 406
#
# _framework density 21.156127000000001
#
# number of rings (size 3 to 8) (size 9 to 14) (size 15 to 20)
#    0.000    1.867    2.667    0.000   11.200    3.733 
#    0.000    0.000    5.867   10.400    0.000    0.000 
#    0.000    0.000    0.000    0.000    0.000    0.000 
#
# Total GULP energy -167255.901695 kJ/mol
# GULP energy per Si atom -5575.196723 kJ/mol
# Density = 2.110797 g / cm^3
# Si number density = 21.156127 Si / 1000 Ang^3
#
#
#
# Elastic Constant Matrix: (Units=GPa)
#
#
# Indices 1 2 3 4 5 6 
#
# 1 60.0207 31.5500 12.1856 0.0000 5.5768 0.0000
# 2 31.5500 145.8417 18.8562 0.0000 -2.1431 0.0000
# 3 12.1856 18.8562 67.5783 0.0000 -6.8503 0.0000
# 4 0.0000 0.0000 0.0000 33.7266 0.0000 -15.2218
# 5 5.5768 -2.1431 -6.8503 0.0000 17.6454 0.0000
# 6 0.0000 0.0000 0.0000 -15.2218 0.0000 34.5694
#
#
#
# Elastic Compliance Matrix: (Units=1/GPa)
#
#
# Indices 1 2 3 4 5 6 
#
# 1 0.020238 -0.004066 -0.003345 0.000000 -0.008189 0.000000
# 2 -0.004066 0.007930 -0.001303 0.000000 0.001742 0.000000
# 3 -0.003345 -0.001303 0.016505 0.000000 0.007306 0.000000
# 4 0.000000 0.000000 0.000000 0.037004 0.000000 0.016294
# 5 -0.008189 0.001742 0.007306 0.000000 0.062308 0.000000
# 6 0.000000 0.000000 0.000000 0.016294 0.000000 0.036102
#
#
# Mechanical properties :
#
#
# Convention : Reuss Voigt Hill
#
# Bulk Modulus (GPa) = 36.70281 44.29159 40.49720
# Shear Modulus (GPa) = 24.20164 31.24486 27.72325
#
# Velocity S-wave (km/s) = 3.38591 3.84718 3.62389
# Velocity P-wave (km/s) = 5.71595 6.38086 6.05753
#
# Compressibility (1/GPa) = 0.02724587
#
# Stress axis : x y z
#
# Youngs Moduli (GPa) = 49.41172 126.09674 60.58767
#
# Poissons Ratio (x) = 0.51271 0.20266
# Poissons Ratio (y) = 0.20091 0.07895
# Poissons Ratio (z) = 0.16527 0.16431
#
# Static dielectric constant tensor:
#      x y z
#    x 1.719690 0.000000 -0.203260 
#    y 0.000000 1.790330 0.000000 
#    z -0.203260 0.000000 1.214090 
# 
# From -- ./inp_files/213937.got.cif
#   From: 2010.05.17/outbox.cif.g08.bks.cpg/sg15_107_cif.got.tgz:213937.got - 2010.06.03 18:47:42.
