data_PCOD9271845
_publ_section_title
;
Structure prediction by ZEFSAII (Michael W. Deem and Ramdas Pophale) SiO2 
 PCOD9271845
Probable space group: C 2/C
;
_chemical_formula_sum "Si O2"
_cell_formula_units_Z 48
_cell_length_a 14.411564
_cell_length_b 13.335362
_cell_length_c 13.070901
_cell_angle_alpha 90.000000
_cell_angle_beta 97.039825
_cell_angle_gamma 90.000000
_cell_volume 2493.072958
_symmetry_space_group_name_H-M "C 2/C"
_symmetry_group_IT_number 15
_symmetry_cell_setting 'monoclinic'
loop_
_space_group_symop_operation_xyz
x,y,z
-x,y,1/2-z
-x,-y,-z
x,-y,1/2+z
1/2+x,1/2+y,z
1/2-x,1/2+y,1/2-z
1/2-x,1/2-y,-z
1/2+x,1/2-y,1/2+z
loop_
_atom_site_type_symbol
_atom_site_label
_atom_site_fract_x
_atom_site_fract_y
_atom_site_fract_z
Si Si1 0.097708 0.294063 0.212148
Si Si2 0.525990 0.370078 0.553474
Si Si3 0.251336 0.825475 0.849384
Si Si4 0.560974 0.550998 0.845121
Si Si5 0.817532 0.871586 0.439528
Si Si6 0.743605 0.024603 0.744023
O O1 0.068385 0.228899 0.109461
O O2 0.151679 0.214074 0.292683
O O3 0.167686 0.388586 0.209070
O O4 0.000000 0.326456 0.250000
O O5 0.507766 0.456671 0.635923
O O6 0.581053 0.401822 0.459065
O O7 0.422016 0.365940 0.493158
O O8 0.308841 0.723616 0.863626
O O9 0.291738 0.913075 0.785152
O O10 0.243076 0.860871 0.965846
O O11 0.500000 0.607754 0.750000
O O12 0.662255 0.530030 0.811591
O O13 0.779076 0.961261 0.365133
#
# Coordination Sequence:
#
# PCOD9271845 Si02
#       6
#     8   8   8   8   8   8
#     4  11  22  38  62  89 118 155 200 244 287 351
#     4  11  21  35  60  86 116 151 200 235 295 352
#     4  10  21  38  60  84 117 155 204 233 286 353
#     4  11  21  34  58  90 117 147 191 253 296 338
#     4  10  20  36  62  83 112 160 193 237 285 357
#     4  11  22  37  60  88 119 148 196 252 293 338
#
# _framework density 19.253347000000002
#
# number of rings (size 3 to 8) (size 9 to 14) (size 15 to 20)
#    0.000    1.333    5.000    1.500    2.333    0.667 
#    0.000    2.500    7.333    0.000    0.000    0.000 
#    0.000    0.000    0.000    0.000    0.000    0.000 
#
# Total GULP energy -133690.240258 kJ/mol
# GULP energy per Si atom -5570.426677 kJ/mol
# Density = 1.920953 g / cm^3
# Si number density = 19.253347 Si / 1000 Ang^3
#
#
#
# Elastic Constant Matrix: (Units=GPa)
#
#
# Indices 1 2 3 4 5 6 
#
# 1 56.7210 21.9285 16.6066 0.0000 6.9209 0.0000
# 2 21.9285 90.7611 41.7180 0.0000 12.1218 0.0000
# 3 16.6066 41.7180 96.7058 0.0000 12.7468 0.0000
# 4 0.0000 0.0000 0.0000 28.6920 0.0000 8.8530
# 5 6.9209 12.1218 12.7468 0.0000 28.0184 0.0000
# 6 0.0000 0.0000 0.0000 8.8530 0.0000 22.3807
#
#
#
# Elastic Compliance Matrix: (Units=1/GPa)
#
#
# Indices 1 2 3 4 5 6 
#
# 1 0.019830 -0.003786 -0.001428 0.000000 -0.002611 0.000000
# 2 -0.003786 0.014788 -0.005329 0.000000 -0.003038 0.000000
# 3 -0.001428 -0.005329 0.013334 0.000000 -0.003408 0.000000
# 4 0.000000 0.000000 0.000000 0.039698 0.000000 -0.015703
# 5 -0.002611 -0.003038 -0.003408 0.000000 0.039201 0.000000
# 6 0.000000 0.000000 0.000000 -0.015703 0.000000 0.050893
#
#
# Mechanical properties :
#
#
# Convention : Reuss Voigt Hill
#
# Bulk Modulus (GPa) = 37.22096 44.96601 41.09348
# Shear Modulus (GPa) = 24.06334 26.74722 25.40528
#
# Velocity S-wave (km/s) = 3.53912 3.73127 3.63647
# Velocity P-wave (km/s) = 6.00622 6.47833 6.24674
#
# Compressibility (1/GPa) = 0.02686658
#
# Stress axis : x y z
#
# Youngs Moduli (GPa) = 50.42740 67.62334 74.99737
#
# Poissons Ratio (x) = 0.25603 0.10709
# Poissons Ratio (y) = 0.19093 0.39964
# Poissons Ratio (z) = 0.07201 0.36034
#
# Static dielectric constant tensor:
#      x y z
#    x 1.696620 0.000000 0.000770 
#    y 0.000000 1.738340 0.000000 
#    z 0.000770 0.000000 1.739930 
# 
# From -- ./inp_files/96462.got.cif
#   From: 2010.05.17/outbox.cif.g08.bks.cpg/sg15_49_cif.got.tgz:96462.got - 2010.06.03 18:47:42.
