data_PCOD9271315
_publ_section_title
;
Structure prediction by ZEFSAII (Michael W. Deem and Ramdas Pophale) SiO2 
 PCOD9271315
Probable space group: C 2/C
;
_chemical_formula_sum "Si O2"
_cell_formula_units_Z 52
_cell_length_a 18.033515
_cell_length_b 5.904722
_cell_length_c 22.112938
_cell_angle_alpha 90.000000
_cell_angle_beta 67.166286
_cell_angle_gamma 90.000000
_cell_volume 2170.127419
_symmetry_space_group_name_H-M "C 2/C"
_symmetry_group_IT_number 15
_symmetry_cell_setting 'monoclinic'
loop_
_space_group_symop_operation_xyz
x,y,z
-x,y,1/2-z
-x,-y,-z
x,-y,1/2+z
1/2+x,1/2+y,z
1/2-x,1/2+y,1/2-z
1/2-x,1/2-y,-z
1/2+x,1/2-y,1/2+z
loop_
_atom_site_type_symbol
_atom_site_label
_atom_site_fract_x
_atom_site_fract_y
_atom_site_fract_z
Si Si1 0.013300 0.239108 0.572269
Si Si2 0.655668 0.856866 0.717156
Si Si3 0.387304 0.364702 0.564983
Si Si4 0.355258 0.974689 0.649221
Si Si5 0.500000 0.148764 0.750000
Si Si6 0.110326 0.025618 0.140254
Si Si7 0.752548 0.827124 0.094999
O O1 0.950432 0.423593 0.614684
O O2 0.067453 0.296914 0.497008
O O3 0.071483 0.152732 0.606721
O O4 0.954135 0.034764 0.570170
O O5 0.682215 0.869805 0.778293
O O6 0.645298 0.616065 0.686860
O O7 0.569847 0.982309 0.748913
O O8 0.706128 0.021793 0.658818
O O9 0.317909 0.495174 0.549219
O O10 0.349014 0.238006 0.634764
O O11 0.309844 0.852900 0.609100
O O12 0.460073 0.311514 0.812749
O O13 0.180699 0.180890 0.088499
#
# Coordination Sequence:
#
# PCOD9271315 Si02
#       7
#     8   8   8   8   4   8   8
#     4  10  22  40  67  90 123 165 215 267 311 383
#     4  11  23  37  62  90 126 160 203 262 317 378
#     4  10  22  43  63  93 123 166 217 258 319 382
#     4  11  22  39  64  89 123 167 212 265 313 383
#     4  10  20  36  58  90 120 156 200 254 322 378
#     4  11  22  40  59  93 127 164 211 264 330 383
#     4  10  25  38  59  91 126 166 207 259 323 385
#
# _framework density 23.961728999999998
#
# number of rings (size 3 to 8) (size 9 to 14) (size 15 to 20)
#    0.000    1.538    0.000    4.615    4.308    4.308 
#    0.000    3.077    0.000    0.000    0.000    0.000 
#    0.000    0.000    0.000    0.000    0.000    0.000 
#
# Total GULP energy -145187.646008 kJ/mol
# GULP energy per Si atom -5584.140231 kJ/mol
# Density = 2.390719 g / cm^3
# Si number density = 23.961729 Si / 1000 Ang^3
#
#
#
# Elastic Constant Matrix: (Units=GPa)
#
#
# Indices 1 2 3 4 5 6 
#
# 1 82.9044 17.6029 20.2705 0.0008 -18.7599 0.0018
# 2 17.6029 65.3133 11.8274 0.0032 -8.1007 0.0028
# 3 20.2705 11.8274 66.2964 0.0005 0.9980 0.0002
# 4 0.0008 0.0032 0.0005 24.8630 0.0008 -18.2612
# 5 -18.7599 -8.1007 0.9980 0.0008 18.6427 0.0008
# 6 0.0018 0.0028 0.0002 -18.2612 0.0008 49.5734
#
#
#
# Elastic Compliance Matrix: (Units=1/GPa)
#
#
# Indices 1 2 3 4 5 6 
#
# 1 0.017642 -0.001634 -0.005363 -0.000002 0.017330 -0.000002
# 2 -0.001634 0.016951 -0.002613 -0.000004 0.005861 -0.000003
# 3 -0.005363 -0.002613 0.017302 0.000001 -0.007459 0.000001
# 4 -0.000002 -0.000004 0.000001 0.055139 -0.000007 0.020311
# 5 0.017330 0.005861 -0.007459 -0.000007 0.074025 -0.000005
# 6 -0.000002 -0.000003 0.000001 0.020311 -0.000005 0.027654
#
#
# Mechanical properties :
#
#
# Convention : Reuss Voigt Hill
#
# Bulk Modulus (GPa) = 30.60471 34.87951 32.74211
# Shear Modulus (GPa) = 20.93580 29.60336 25.26958
#
# Velocity S-wave (km/s) = 2.95908 3.51870 3.25095
# Velocity P-wave (km/s) = 4.94721 5.57640 5.27121
#
# Compressibility (1/GPa) = 0.03267471
#
# Stress axis : x y z
#
# Youngs Moduli (GPa) = 56.68322 58.99243 57.79650
#
# Poissons Ratio (x) = 0.09640 0.30999
# Poissons Ratio (y) = 0.09263 0.15101
# Poissons Ratio (z) = 0.30402 0.15413
#
# Static dielectric constant tensor:
#      x y z
#    x 1.967190 0.000000 0.037990 
#    y 0.000000 1.930960 0.000000 
#    z 0.037990 0.000000 1.959100 
# 
# From -- ./inp_files/278891.got.cif
#   From: 2010.05.17/outbox.cif.g08.bks.cpg/sg15_140_cif.got.tgz:278891.got - 2010.06.03 18:47:42.
