data_PCOD9271579
_publ_section_title
;
Structure prediction by ZEFSAII (Michael W. Deem and Ramdas Pophale) SiO2 
 PCOD9271579
Probable space group: C 2/C
;
_chemical_formula_sum "Si O2"
_cell_formula_units_Z 56
_cell_length_a 22.501151
_cell_length_b 14.298339
_cell_length_c 7.975858
_cell_angle_alpha 90.000000
_cell_angle_beta 56.964043
_cell_angle_gamma 90.000000
_cell_volume 2151.206107
_symmetry_space_group_name_H-M "C 2/C"
_symmetry_group_IT_number 15
_symmetry_cell_setting 'monoclinic'
loop_
_space_group_symop_operation_xyz
x,y,z
-x,y,1/2-z
-x,-y,-z
x,-y,1/2+z
1/2+x,1/2+y,z
1/2-x,1/2+y,1/2-z
1/2-x,1/2-y,-z
1/2+x,1/2-y,1/2+z
loop_
_atom_site_type_symbol
_atom_site_label
_atom_site_fract_x
_atom_site_fract_y
_atom_site_fract_z
Si Si1 0.340451 0.634107 0.102661
Si Si2 0.500210 0.108538 0.547745
Si Si3 0.982738 0.196318 0.974999
Si Si4 0.358569 0.659702 0.699446
Si Si5 0.649037 0.869921 0.728823
Si Si6 0.230023 0.319607 0.182981
Si Si7 0.295252 0.962897 0.537619
O O1 0.315351 0.743891 0.141583
O O2 0.280814 0.569759 0.277459
O O3 0.414508 0.628766 0.087428
O O4 0.348662 0.609454 0.893491
O O5 0.500000 0.109368 0.750000
O O6 0.455228 0.201958 0.577579
O O7 0.566521 0.137544 0.325553
O O8 0.500000 0.000000 0.500000
O O9 0.055995 0.167319 0.958255
O O10 0.000000 0.197249 0.750000
O O11 0.328808 0.765622 0.769073
O O12 0.303500 0.633986 0.638676
O O13 0.653337 0.925379 0.897794
O O14 0.690943 0.929602 0.528697
O O15 0.250000 0.250000 0.000000
O O16 0.189587 0.404818 0.154940
#
# Coordination Sequence:
#
# PCOD9271579 Si02
#       7
#     8   8   8   8   8   8   8
#     4  10  21  37  64  91 127 163 220 266 317 381
#     4  11  23  36  56  81 126 173 213 246 309 386
#     4   9  21  37  60  91 123 159 208 263 317 378
#     4  10  20  40  63  92 125 166 210 270 326 386
#     4  11  24  39  56  90 129 173 210 264 329 381
#     4  10  20  36  60  86 123 157 213 267 313 379
#     4  11  25  38  59  88 130 169 215 268 321 383
#
# _framework density 26.031908000000001
#
# number of rings (size 3 to 8) (size 9 to 14) (size 15 to 20)
#    0.000    1.714    2.857    1.714    6.000    2.286 
#    0.000    0.000    0.000    0.000    0.000   19.000 
#    0.000    0.000    0.000    0.000    0.000    0.000 
#
# Total GULP energy -156265.558721 kJ/mol
# GULP energy per Si atom -5580.912811 kJ/mol
# Density = 2.597266 g / cm^3
# Si number density = 26.031908 Si / 1000 Ang^3
#
#
#
# Elastic Constant Matrix: (Units=GPa)
#
#
# Indices 1 2 3 4 5 6 
#
# 1 132.6079 -12.4570 24.3447 0.0000 -13.2357 0.0000
# 2 -12.4570 60.8209 7.5336 0.0000 -7.6209 0.0000
# 3 24.3447 7.5336 57.5234 0.0000 -17.0912 0.0000
# 4 0.0000 0.0000 0.0000 36.3253 0.0000 5.5620
# 5 -13.2357 -7.6209 -17.0912 0.0000 36.5186 0.0000
# 6 0.0000 0.0000 0.0000 5.5620 0.0000 13.1284
#
#
#
# Elastic Compliance Matrix: (Units=1/GPa)
#
#
# Indices 1 2 3 4 5 6 
#
# 1 0.008588 0.002431 -0.003342 0.000000 0.002056 0.000000
# 2 0.002431 0.017662 -0.002305 0.000000 0.003488 0.000000
# 3 -0.003342 -0.002305 0.021602 0.000000 0.008417 0.000000
# 4 0.000000 0.000000 0.000000 0.029439 0.000000 -0.012472
# 5 0.002056 0.003488 0.008417 0.000000 0.032796 0.000000
# 6 0.000000 0.000000 0.000000 -0.012472 0.000000 0.081455
#
#
# Mechanical properties :
#
#
# Convention : Reuss Voigt Hill
#
# Bulk Modulus (GPa) = 24.14435 32.19942 28.17188
# Shear Modulus (GPa) = 23.60928 32.62985 28.11956
#
# Velocity S-wave (km/s) = 3.01481 3.54426 3.29020
# Velocity P-wave (km/s) = 4.62750 5.39862 5.02787
#
# Compressibility (1/GPa) = 0.04141756
#
# Stress axis : x y z
#
# Youngs Moduli (GPa) = 116.44029 56.61837 46.29294
#
# Poissons Ratio (x) = -0.13761 0.15472
# Poissons Ratio (y) = -0.28301 0.10673
# Poissons Ratio (z) = 0.38916 0.13053
#
# Static dielectric constant tensor:
#      x y z
#    x 2.179250 0.000000 -0.002760 
#    y 0.000000 2.173200 0.000000 
#    z -0.002760 0.000000 2.105490 
# 
# From -- ./inp_files/61791.got.cif
#   From: 2010.05.17/outbox.cif.g08.bks.cpg/sg15_31_cif.got.tgz:61791.got - 2010.06.03 18:47:42.
