data_PCOD9271101
_publ_section_title
;
Structure prediction by ZEFSAII (Michael W. Deem and Ramdas Pophale) SiO2 
 PCOD9271101
Probable space group: C 2/C
;
_chemical_formula_sum "Si O2"
_cell_formula_units_Z 64
_cell_length_a 19.197825
_cell_length_b 10.800817
_cell_length_c 22.132205
_cell_angle_alpha 90.000000
_cell_angle_beta 132.336313
_cell_angle_gamma 90.000000
_cell_volume 3392.328226
_symmetry_space_group_name_H-M "C 2/C"
_symmetry_group_IT_number 15
_symmetry_cell_setting 'monoclinic'
loop_
_space_group_symop_operation_xyz
x,y,z
-x,y,1/2-z
-x,-y,-z
x,-y,1/2+z
1/2+x,1/2+y,z
1/2-x,1/2+y,1/2-z
1/2-x,1/2-y,-z
1/2+x,1/2-y,1/2+z
loop_
_atom_site_type_symbol
_atom_site_label
_atom_site_fract_x
_atom_site_fract_y
_atom_site_fract_z
Si Si1 0.124218 0.403628 0.617619
Si Si2 0.154357 0.819451 0.872730
Si Si3 0.332576 0.554521 0.248905
Si Si4 0.082275 0.124473 0.615683
Si Si5 0.504061 0.695845 0.381358
Si Si6 0.284083 0.058624 0.552469
Si Si7 0.439700 0.971378 0.052199
Si Si8 0.610297 0.520242 0.015573
O O1 0.223147 0.449683 0.701619
O O2 0.124511 0.254613 0.619913
O O3 0.111981 0.459952 0.542960
O O4 0.030966 0.443966 0.598804
O O5 0.162651 0.901641 0.818007
O O6 0.183605 0.673947 0.886020
O O7 0.051533 0.821140 0.843375
O O8 0.224662 0.877671 0.963551
O O9 0.384017 0.427727 0.299783
O O10 0.395288 0.661106 0.316901
O O11 0.116401 0.018952 0.588550
O O12 0.968113 0.124950 0.542411
O O13 0.524178 0.832784 0.414306
O O14 0.560983 0.600217 0.456296
O O15 0.371245 0.997743 0.568057
O O16 0.212520 0.969119 0.545658
#
# Coordination Sequence:
#
# PCOD9271101 Si02
#       8
#     8   8   8   8   8   8   8   8
#     4  11  22  36  54  79 122 152 190 229 285 349
#     4   9  16  29  53  88 112 133 170 247 287 325
#     4  11  21  32  53  84 114 148 185 235 300 334
#     4  10  21  35  52  82 116 149 189 233 283 351
#     4   9  18  32  56  84 111 136 190 237 290 332
#     4   9  16  32  58  85 110 136 193 232 286 331
#     4  10  20  36  57  84 111 152 188 239 278 346
#     4   9  17  34  57  80 107 150 185 237 280 334
#
# _framework density 18.866099999999999
#
# number of rings (size 3 to 8) (size 9 to 14) (size 15 to 20)
#    0.000    2.250    2.500    1.875    1.750    0.000 
#    0.000    0.625    0.000    0.000    9.750    0.000 
#    0.000    0.000    0.000    0.000    0.000    0.000 
#
# Total GULP energy -178266.946562 kJ/mol
# GULP energy per Si atom -5570.842080 kJ/mol
# Density = 1.882316 g / cm^3
# Si number density = 18.866100 Si / 1000 Ang^3
#
#
#
# Elastic Constant Matrix: (Units=GPa)
#
#
# Indices 1 2 3 4 5 6 
#
# 1 99.1285 0.4437 25.4777 0.0000 18.2100 0.0000
# 2 0.4437 7.0866 5.6645 0.0000 5.1344 0.0000
# 3 25.4777 5.6645 63.6295 0.0000 9.9243 0.0000
# 4 0.0000 0.0000 0.0000 17.3536 0.0000 0.0040
# 5 18.2100 5.1344 9.9243 0.0000 34.2072 0.0000
# 6 0.0000 0.0000 0.0000 0.0040 0.0000 22.9511
#
#
#
# Elastic Compliance Matrix: (Units=1/GPa)
#
#
# Indices 1 2 3 4 5 6 
#
# 1 0.012426 0.007579 -0.004651 0.000000 -0.006403 0.000000
# 2 0.007579 0.170487 -0.014236 0.000000 -0.025494 0.000000
# 3 -0.004651 -0.014236 0.018985 0.000000 -0.000895 0.000000
# 4 0.000000 0.000000 0.000000 0.057625 0.000000 -0.000010
# 5 -0.006403 -0.025494 -0.000895 0.000000 0.036728 0.000000
# 6 0.000000 0.000000 0.000000 -0.000010 0.000000 0.043571
#
#
# Mechanical properties :
#
#
# Convention : Reuss Voigt Hill
#
# Bulk Modulus (GPa) = 5.57782 25.89074 15.73428
# Shear Modulus (GPa) = 11.84276 24.11963 17.98120
#
# Velocity S-wave (km/s) = 2.50817 3.57944 3.09057
# Velocity P-wave (km/s) = 3.36910 5.55305 4.59278
#
# Compressibility (1/GPa) = 0.17928155
#
# Stress axis : x y z
#
# Youngs Moduli (GPa) = 80.47844 5.86556 52.67214
#
# Poissons Ratio (x) = -0.04445 0.24500
# Poissons Ratio (y) = -0.60994 0.74983
# Poissons Ratio (z) = 0.37434 0.08350
#
# Static dielectric constant tensor:
#      x y z
#    x 1.728730 0.000000 -0.000110 
#    y 0.000000 1.619330 0.000000 
#    z -0.000110 0.000000 1.692090 
# 
# From -- ./inp_files/279913.got.cif
#   From: 2010.05.17/outbox.cif.g08.bks.cpg/sg15_140_cif.got.tgz:279913.got - 2010.06.03 18:47:42.
