data_PCOD9271568
_publ_section_title
;
Structure prediction by ZEFSAII (Michael W. Deem and Ramdas Pophale) SiO2 
 PCOD9271568
Probable space group: C 2/C
;
_chemical_formula_sum "Si O2"
_cell_formula_units_Z 60
_cell_length_a 18.372283
_cell_length_b 11.332825
_cell_length_c 21.017027
_cell_angle_alpha 90.000000
_cell_angle_beta 38.319368
_cell_angle_gamma 90.000000
_cell_volume 2713.284261
_symmetry_space_group_name_H-M "C 2/C"
_symmetry_group_IT_number 15
_symmetry_cell_setting 'monoclinic'
loop_
_space_group_symop_operation_xyz
x,y,z
-x,y,1/2-z
-x,-y,-z
x,-y,1/2+z
1/2+x,1/2+y,z
1/2-x,1/2+y,1/2-z
1/2-x,1/2-y,-z
1/2+x,1/2-y,1/2+z
loop_
_atom_site_type_symbol
_atom_site_label
_atom_site_fract_x
_atom_site_fract_y
_atom_site_fract_z
Si Si1 0.500000 0.527447 0.250000
Si Si2 0.038143 0.334914 0.850011
Si Si3 0.799311 0.114032 0.306643
Si Si4 0.420884 0.319261 0.590703
Si Si5 0.217925 0.329562 0.624703
Si Si6 0.366216 0.947785 0.149415
Si Si7 0.636139 0.349502 0.083642
Si Si8 0.663272 0.331767 0.365104
O O1 0.387254 0.596406 0.303929
O O2 0.537922 0.443456 0.166167
O O3 0.101370 0.367009 0.740743
O O4 0.043083 0.453344 0.888058
O O5 0.119283 0.240733 0.832693
O O6 0.922617 0.261761 0.912575
O O7 0.874680 0.130910 0.189444
O O8 0.725927 0.233148 0.364560
O O9 0.709099 0.007155 0.355524
O O10 0.321210 0.334799 0.605495
O O11 0.427223 0.176434 0.593012
O O12 0.544760 0.370822 0.481686
O O13 0.264914 0.398747 0.530973
O O14 0.185192 0.202401 0.616050
O O15 0.264252 0.920170 0.272225
#
# Coordination Sequence:
#
# PCOD9271568 Si02
#       8
#     4   8   8   8   8   8   8   8
#     4  12  22  42  62  80 118 156 202 246 318 344
#     4  11  19  37  58  88 125 155 197 240 297 356
#     4  10  23  38  62  87 113 159 204 247 293 365
#     4  11  21  39  61  89 123 156 203 246 293 352
#     4  11  20  37  57  89 128 150 192 238 294 364
#     4  10  20  36  60  86 117 155 194 246 295 343
#     4  11  23  35  61  90 124 158 184 250 304 359
#     4  10  21  38  59  88 122 155 198 250 288 347
#
# _framework density 22.113420999999999
#
# number of rings (size 3 to 8) (size 9 to 14) (size 15 to 20)
#    0.000    1.333    6.667    1.600    0.000    3.733 
#    4.800    0.667   11.733    0.000    0.000    0.000 
#    0.000    0.000    0.000    0.000    0.000    0.000 
#
# Total GULP energy -167539.236946 kJ/mol
# GULP energy per Si atom -5584.641232 kJ/mol
# Density = 2.206309 g / cm^3
# Si number density = 22.113421 Si / 1000 Ang^3
#
#
#
# Elastic Constant Matrix: (Units=GPa)
#
#
# Indices 1 2 3 4 5 6 
#
# 1 97.2340 29.6791 -11.2639 0.0000 -15.5540 0.0000
# 2 29.6791 72.7162 -1.7163 0.0000 -6.9370 0.0000
# 3 -11.2639 -1.7163 69.2766 0.0000 -11.9434 0.0000
# 4 0.0000 0.0000 0.0000 8.9868 0.0000 -12.5091
# 5 -15.5540 -6.9370 -11.9434 0.0000 27.4629 0.0000
# 6 0.0000 0.0000 0.0000 -12.5091 0.0000 23.0877
#
#
#
# Elastic Compliance Matrix: (Units=1/GPa)
#
#
# Indices 1 2 3 4 5 6 
#
# 1 0.013350 -0.004616 0.003415 0.000000 0.007880 0.000000
# 2 -0.004616 0.015758 -0.000135 0.000000 0.001307 0.000000
# 3 0.003415 -0.000135 0.016556 0.000000 0.009100 0.000000
# 4 0.000000 0.000000 0.000000 0.452625 0.000000 0.245236
# 5 0.007880 0.001307 0.009100 0.000000 0.045163 0.000000
# 6 0.000000 0.000000 0.000000 0.245236 0.000000 0.176184
#
#
# Mechanical properties :
#
#
# Convention : Reuss Voigt Hill
#
# Bulk Modulus (GPa) = 23.26131 30.29163 26.77647
# Shear Modulus (GPa) = 6.78760 26.74268 16.76514
#
# Velocity S-wave (km/s) = 1.75388 3.48133 2.75643
# Velocity P-wave (km/s) = 3.82667 5.46696 4.71863
#
# Compressibility (1/GPa) = 0.04298984
#
# Stress axis : x y z
#
# Youngs Moduli (GPa) = 74.90886 63.46084 60.40265
#
# Poissons Ratio (x) = 0.29296 -0.20625
# Poissons Ratio (y) = 0.34580 0.00814
# Poissons Ratio (z) = -0.25579 0.00856
#
# Static dielectric constant tensor:
#      x y z
#    x 1.835800 0.000000 -0.000970 
#    y 0.000000 1.842290 0.000000 
#    z -0.000970 0.000000 1.856850 
# 
# From -- ./inp_files/248761.got.cif
#   From: 2010.05.17/outbox.cif.g08.bks.cpg/sg15_125_cif.got.tgz:248761.got - 2010.06.03 18:47:42.
