data_PCOD9271334
_publ_section_title
;
Structure prediction by ZEFSAII (Michael W. Deem and Ramdas Pophale) SiO2 
 PCOD9271334
Probable space group: C 2/C
;
_chemical_formula_sum "Si O2"
_cell_formula_units_Z 52
_cell_length_a 18.368880
_cell_length_b 23.399876
_cell_length_c 9.244546
_cell_angle_alpha 90.000000
_cell_angle_beta 149.916311
_cell_angle_gamma 90.000000
_cell_volume 1991.813651
_symmetry_space_group_name_H-M "C 2/C"
_symmetry_group_IT_number 15
_symmetry_cell_setting 'monoclinic'
loop_
_space_group_symop_operation_xyz
x,y,z
-x,y,1/2-z
-x,-y,-z
x,-y,1/2+z
1/2+x,1/2+y,z
1/2-x,1/2+y,1/2-z
1/2-x,1/2-y,-z
1/2+x,1/2-y,1/2+z
loop_
_atom_site_type_symbol
_atom_site_label
_atom_site_fract_x
_atom_site_fract_y
_atom_site_fract_z
Si Si1 0.735404 0.385330 0.435831
Si Si2 0.078837 0.896587 0.655779
Si Si3 0.750000 0.750000 0.000000
Si Si4 0.174857 0.030569 0.078706
Si Si5 0.811994 0.410143 0.271486
Si Si6 0.073535 0.683396 0.722540
Si Si7 0.127656 0.219850 0.117318
O O1 0.737205 0.318412 0.462199
O O2 0.739509 0.418629 0.592303
O O3 0.587255 0.412381 0.110996
O O4 0.843416 0.396075 0.490668
O O5 0.171859 0.945684 0.737065
O O6 0.162078 0.882698 0.946126
O O7 0.062369 0.843680 0.515149
O O8 0.679619 0.743841 0.054025
O O9 0.000000 0.021212 0.750000
O O10 0.274717 0.976962 0.211841
O O11 0.922796 0.375887 0.358082
O O12 0.023554 0.735283 0.528673
O O13 0.000000 0.677174 0.750000
O O14 0.229791 0.705199 0.043797
#
# Coordination Sequence:
#
# PCOD9271334 Si02
#       7
#     8   8   4   8   8   8   8
#     4  11  22  36  59  92 123 158 196 245 309 365
#     4  10  21  36  59  90 121 156 195 246 301 360
#     4  12  22  38  54  92 124 158 194 244 312 374
#     4  10  20  36  58  92 125 157 196 249 307 360
#     4  11  21  37  61  86 120 160 201 246 299 358
#     4  10  23  41  60  88 115 158 207 248 299 362
#     4  10  22  39  60  86 119 153 197 251 302 360
#
# _framework density 26.106859
#
# number of rings (size 3 to 8) (size 9 to 14) (size 15 to 20)
#    0.000    1.538    3.077    2.308    2.154    2.462 
#    0.000    0.000    0.000    8.308    4.000    0.000 
#    0.000    0.000    0.000    0.000    0.000    0.000 
#
# Total GULP energy -144744.794987 kJ/mol
# GULP energy per Si atom -5567.107499 kJ/mol
# Density = 2.604744 g / cm^3
# Si number density = 26.106859 Si / 1000 Ang^3
#
#
#
# Elastic Constant Matrix: (Units=GPa)
#
#
# Indices 1 2 3 4 5 6 
#
# 1 203.5978 97.8807 6.2652 0.0000 -27.1160 0.0000
# 2 97.8807 199.5590 2.6092 0.0000 -12.1396 0.0000
# 3 6.2652 2.6092 47.7811 0.0000 -14.4598 0.0000
# 4 0.0000 0.0000 0.0000 21.4990 0.0000 4.6732
# 5 -27.1160 -12.1396 -14.4598 0.0000 33.7020 0.0000
# 6 0.0000 0.0000 0.0000 4.6732 0.0000 29.4736
#
#
#
# Elastic Compliance Matrix: (Units=1/GPa)
#
#
# Indices 1 2 3 4 5 6 
#
# 1 0.007063 -0.003179 0.000713 0.000000 0.004844 0.000000
# 2 -0.003179 0.006558 -0.000001 0.000000 -0.000196 0.000000
# 3 0.000713 -0.000001 0.024144 0.000000 0.010933 0.000000
# 4 0.000000 0.000000 0.000000 0.048174 0.000000 -0.007638
# 5 0.004844 -0.000196 0.010933 0.000000 0.038189 0.000000
# 6 0.000000 0.000000 0.000000 -0.007638 0.000000 0.035140
#
#
# Mechanical properties :
#
#
# Convention : Reuss Voigt Hill
#
# Bulk Modulus (GPa) = 30.45724 73.82757 52.14240
# Shear Modulus (GPa) = 28.54775 39.88044 34.21409
#
# Velocity S-wave (km/s) = 3.31039 3.91267 3.62407
# Velocity P-wave (km/s) = 5.12867 6.98229 6.12600
#
# Compressibility (1/GPa) = 0.03283292
#
# Stress axis : x y z
#
# Youngs Moduli (GPa) = 141.57985 152.47561 41.41855
#
# Poissons Ratio (x) = 0.48473 -0.02954
# Poissons Ratio (y) = 0.45009 0.00002
# Poissons Ratio (z) = -0.10099 0.00008
#
# Static dielectric constant tensor:
#      x y z
#    x 0.410440 0.000000 -1.237600 
#    y 0.000000 2.065570 0.000000 
#    z -1.237600 0.000000 1.192930 
# 
# From -- ./inp_files/43642.got.cif
#   From: 2010.05.17/outbox.cif.g08.bks.cpg/sg15_22_cif.got.tgz:43642.got - 2010.06.03 18:47:42.
