data_PCOD9271381
_publ_section_title
;
Structure prediction by ZEFSAII (Michael W. Deem and Ramdas Pophale) SiO2 
 PCOD9271381
Probable space group: C 2/C
;
_chemical_formula_sum "Si O2"
_cell_formula_units_Z 64
_cell_length_a 8.867818
_cell_length_b 20.974062
_cell_length_c 19.916047
_cell_angle_alpha 90.000000
_cell_angle_beta 116.439940
_cell_angle_gamma 90.000000
_cell_volume 3316.807941
_symmetry_space_group_name_H-M "C 2/C"
_symmetry_group_IT_number 15
_symmetry_cell_setting 'monoclinic'
loop_
_space_group_symop_operation_xyz
x,y,z
-x,y,1/2-z
-x,-y,-z
x,-y,1/2+z
1/2+x,1/2+y,z
1/2-x,1/2+y,1/2-z
1/2-x,1/2-y,-z
1/2+x,1/2-y,1/2+z
loop_
_atom_site_type_symbol
_atom_site_label
_atom_site_fract_x
_atom_site_fract_y
_atom_site_fract_z
Si Si1 0.489415 0.891395 0.561011
Si Si2 0.486582 0.736583 0.410092
Si Si3 0.327479 0.377336 0.396081
Si Si4 0.408710 0.501716 0.336027
Si Si5 0.035317 0.622664 0.603919
Si Si6 0.236655 0.501716 0.163973
Si Si7 0.867393 0.108605 0.438989
Si Si8 0.333601 0.763417 0.910092
O O1 0.491143 0.890614 0.480501
O O2 0.299798 0.894184 0.549798
O O3 0.576770 0.825255 0.601511
O O4 0.595105 0.950727 0.608992
O O5 0.403686 0.804237 0.375660
O O6 0.373748 0.674745 0.398489
O O7 0.576220 0.750000 0.500000
O O8 0.638801 0.722668 0.388801
O O9 0.351276 0.431145 0.345557
O O10 0.144851 0.381411 0.394851
O O11 0.469859 0.390614 0.480501
O O12 0.347633 0.304237 0.375660
O O13 0.305511 0.522553 0.250000
O O14 0.604931 0.501377 0.354931
O O15 0.377121 0.549273 0.391008
O O16 0.160162 0.568855 0.654443
#
# Coordination Sequence:
#
# PCOD9271381 Si02
#       8
#     8   8   8   8   8   8   8   8
#     4  11  21  34  57  85 112 142 179 223 267 317
#     4   8  16  32  54  81 111 141 174 216 267 319
#     4  10  20  36  59  84 111 142 178 221 268 322
#     4  11  24  40  56  76 107 145 184 227 272 319
#     4  10  20  36  59  84 111 142 178 221 268 322
#     4  11  24  40  56  76 107 145 184 227 272 319
#     4  11  21  34  57  85 112 142 179 223 267 317
#     4   8  16  32  54  81 111 141 174 216 267 319
#
# _framework density 19.295660999999999
#
# number of rings (size 3 to 8) (size 9 to 14) (size 15 to 20)
#    0.000    2.000    0.000    6.000    0.000    7.500 
#    0.000    1.250    0.000    1.500    0.000    0.000 
#    0.000    0.000    0.000    0.000    0.000    0.000 
#
# Total GULP energy -178684.805829 kJ/mol
# GULP energy per Si atom -5583.900182 kJ/mol
# Density = 1.925174 g / cm^3
# Si number density = 19.295661 Si / 1000 Ang^3
#
#
#
# Elastic Constant Matrix: (Units=GPa)
#
#
# Indices 1 2 3 4 5 6 
#
# 1 48.4470 5.7280 0.1865 0.0000 0.4991 0.0000
# 2 5.7280 61.7336 1.1137 0.0000 0.1910 0.0000
# 3 0.1865 1.1137 14.4598 0.0000 0.9083 0.0000
# 4 0.0000 0.0000 0.0000 0.6073 0.0000 1.4991
# 5 0.4991 0.1910 0.9083 0.0000 18.0863 0.0000
# 6 0.0000 0.0000 0.0000 1.4991 0.0000 36.8077
#
#
#
# Elastic Compliance Matrix: (Units=1/GPa)
#
#
# Indices 1 2 3 4 5 6 
#
# 1 0.020876 -0.001934 -0.000086 0.000000 -0.000551 0.000000
# 2 -0.001934 0.016401 -0.001235 0.000000 -0.000058 0.000000
# 3 -0.000086 -0.001235 0.069472 0.000000 -0.003473 0.000000
# 4 0.000000 0.000000 0.000000 1.830657 0.000000 -0.074557
# 5 -0.000551 -0.000058 -0.003473 0.000000 0.055481 0.000000
# 6 0.000000 0.000000 0.000000 -0.074557 0.000000 0.030205
#
#
# Mechanical properties :
#
#
# Convention : Reuss Voigt Hill
#
# Bulk Modulus (GPa) = 9.97608 15.41076 12.69342
# Shear Modulus (GPa) = 2.42364 18.94107 10.68236
#
# Velocity S-wave (km/s) = 1.12195 3.13649 2.35545
# Velocity P-wave (km/s) = 2.61911 4.59573 3.74035
#
# Compressibility (1/GPa) = 0.10023979
#
# Stress axis : x y z
#
# Youngs Moduli (GPa) = 47.90245 60.97371 14.39436
#
# Poissons Ratio (x) = 0.11791 0.00123
# Poissons Ratio (y) = 0.09263 0.01777
# Poissons Ratio (z) = 0.00411 0.07528
#
# Static dielectric constant tensor:
#      x y z
#    x 1.640470 0.000000 -0.001000 
#    y 0.000000 1.696810 0.000000 
#    z -0.001000 0.000000 1.664620 
# 
# From -- ./inp_files/233894.got.cif
#   From: 2010.05.17/outbox.cif.g08.bks.cpg/sg15_117_cif.got.tgz:233894.got - 2010.06.03 18:47:42.
