data_PCOD9271618
_publ_section_title
;
Structure prediction by ZEFSAII (Michael W. Deem and Ramdas Pophale) SiO2 
 PCOD9271618
Probable space group: C 2/C
;
_chemical_formula_sum "Si O2"
_cell_formula_units_Z 60
_cell_length_a 14.366915
_cell_length_b 20.868083
_cell_length_c 9.034066
_cell_angle_alpha 90.000000
_cell_angle_beta 102.781023
_cell_angle_gamma 90.000000
_cell_volume 2641.393651
_symmetry_space_group_name_H-M "C 2/C"
_symmetry_group_IT_number 15
_symmetry_cell_setting 'monoclinic'
loop_
_space_group_symop_operation_xyz
x,y,z
-x,y,1/2-z
-x,-y,-z
x,-y,1/2+z
1/2+x,1/2+y,z
1/2-x,1/2+y,1/2-z
1/2-x,1/2-y,-z
1/2+x,1/2-y,1/2+z
loop_
_atom_site_type_symbol
_atom_site_label
_atom_site_fract_x
_atom_site_fract_y
_atom_site_fract_z
Si Si1 0.000000 0.977745 0.750000
Si Si2 0.606487 0.841930 0.808106
Si Si3 0.302167 0.730222 0.798146
Si Si4 0.362946 0.092101 0.489805
Si Si5 0.672335 0.946812 0.025063
Si Si6 0.594941 0.221369 0.866881
Si Si7 0.711529 0.408071 0.163990
Si Si8 0.623716 0.534549 0.046270
O O1 0.936641 0.022448 0.621280
O O2 0.933840 0.935023 0.837473
O O3 0.500000 0.816982 0.750000
O O4 0.676033 0.781776 0.819993
O O5 0.629389 0.888858 0.678185
O O6 0.611800 0.886315 0.953132
O O7 0.190209 0.730456 0.801533
O O8 0.323674 0.656351 0.772595
O O9 0.369280 0.749254 0.962841
O O10 0.420885 0.145782 0.600266
O O11 0.256813 0.105394 0.518496
O O12 0.376691 0.015990 0.513222
O O13 0.770857 0.943528 0.963415
O O14 0.705655 0.938226 0.204950
O O15 0.500000 0.245205 0.750000
O O16 0.636426 0.462581 0.112406
#
# Coordination Sequence:
#
# PCOD9271618 Si02
#       8
#     4   8   8   8   8   8   8   8
#     4  10  20  36  60  88 132 160 210 260 324 370
#     4  11  25  42  61  91 130 167 215 271 323 386
#     4   9  21  42  60  88 133 168 211 275 314 378
#     4   9  20  38  65  91 123 161 208 270 318 385
#     4  11  22  39  65  94 130 170 208 263 338 386
#     4   9  18  38  69  97 123 165 221 270 326 387
#     4  10  20  38  64  90 124 173 215 254 319 389
#     4  10  20  38  59  94 127 168 205 268 315 387
#
# _framework density 22.715281999999998
#
# number of rings (size 3 to 8) (size 9 to 14) (size 15 to 20)
#    0.000    2.133    1.333    2.400    1.867    5.867 
#    2.400    1.333    0.000    0.000    0.000    0.000 
#    0.000    0.000    0.000    0.000    0.000    0.000 
#
# Total GULP energy -167336.587009 kJ/mol
# GULP energy per Si atom -5577.886234 kJ/mol
# Density = 2.266358 g / cm^3
# Si number density = 22.715282 Si / 1000 Ang^3
#
#
#
# Elastic Constant Matrix: (Units=GPa)
#
#
# Indices 1 2 3 4 5 6 
#
# 1 72.6414 5.5721 33.8449 0.0000 6.8236 0.0000
# 2 5.5721 110.5908 9.2035 0.0000 12.3768 0.0000
# 3 33.8449 9.2035 76.6141 0.0000 2.9628 0.0000
# 4 0.0000 0.0000 0.0000 17.8421 0.0000 -0.9448
# 5 6.8236 12.3768 2.9628 0.0000 41.0403 0.0000
# 6 0.0000 0.0000 0.0000 -0.9448 0.0000 9.6087
#
#
#
# Elastic Compliance Matrix: (Units=1/GPa)
#
#
# Indices 1 2 3 4 5 6 
#
# 1 0.017560 0.000019 -0.007668 0.000000 -0.002372 0.000000
# 2 0.000019 0.009438 -0.001035 0.000000 -0.002775 0.000000
# 3 -0.007668 -0.001035 0.016549 0.000000 0.000392 0.000000
# 4 0.000000 0.000000 0.000000 0.056340 0.000000 0.005540
# 5 -0.002372 -0.002775 0.000392 0.000000 0.025569 0.000000
# 6 0.000000 0.000000 0.000000 0.005540 0.000000 0.104617
#
#
# Mechanical properties :
#
#
# Convention : Reuss Voigt Hill
#
# Bulk Modulus (GPa) = 38.19792 39.67635 38.93714
# Shear Modulus (GPa) = 19.51845 27.77995 23.64920
#
# Velocity S-wave (km/s) = 2.93450 3.50088 3.23013
# Velocity P-wave (km/s) = 5.32299 5.81776 5.57586
#
# Compressibility (1/GPa) = 0.02617943
#
# Stress axis : x y z
#
# Youngs Moduli (GPa) = 56.94690 105.95415 60.42693
#
# Poissons Ratio (x) = -0.00199 0.46335
# Poissons Ratio (y) = -0.00107 0.06253
# Poissons Ratio (z) = 0.43666 0.10964
#
# Static dielectric constant tensor:
#      x y z
#    x 1.902410 0.000000 -0.033860 
#    y 0.000000 1.838630 0.000000 
#    z -0.033860 0.000000 1.864320 
# 
# From -- ./inp_files/42237.got.cif
#   From: 2010.05.17/outbox.cif.g08.bks.cpg/sg15_22_cif.got.tgz:42237.got - 2010.06.03 18:47:42.
