data_PCOD9271296
_publ_section_title
;
Structure prediction by ZEFSAII (Michael W. Deem and Ramdas Pophale) SiO2 
 PCOD9271296
Probable space group: C 2/C
;
_chemical_formula_sum "Si O2"
_cell_formula_units_Z 44
_cell_length_a 13.026122
_cell_length_b 27.030284
_cell_length_c 5.258836
_cell_angle_alpha 90.000000
_cell_angle_beta 81.234699
_cell_angle_gamma 90.000000
_cell_volume 1830.009461
_symmetry_space_group_name_H-M "C 2/C"
_symmetry_group_IT_number 15
_symmetry_cell_setting 'monoclinic'
loop_
_space_group_symop_operation_xyz
x,y,z
-x,y,1/2-z
-x,-y,-z
x,-y,1/2+z
1/2+x,1/2+y,z
1/2-x,1/2+y,1/2-z
1/2-x,1/2-y,-z
1/2+x,1/2-y,1/2+z
loop_
_atom_site_type_symbol
_atom_site_label
_atom_site_fract_x
_atom_site_fract_y
_atom_site_fract_z
Si Si1 0.500000 0.645617 0.750000
Si Si2 0.592525 0.725554 0.087872
Si Si3 0.288046 0.389003 0.231579
Si Si4 0.876193 0.581835 0.309608
Si Si5 0.288920 0.183377 0.123763
Si Si6 0.298841 0.528708 0.360614
O O1 0.461118 0.681300 0.541743
O O2 0.606377 0.616284 0.647777
O O3 0.500000 0.755153 0.250000
O O4 0.675206 0.701638 0.250485
O O5 0.647782 0.766377 0.897135
O O6 0.194524 0.418893 0.404965
O O7 0.238024 0.337709 0.150848
O O8 0.327536 0.417820 0.963981
O O9 0.845614 0.637397 0.229507
O O10 0.823478 0.540239 0.150123
O O11 0.000000 0.576812 0.250000
O O12 0.333132 0.492947 0.577681
#
# Coordination Sequence:
#
# PCOD9271296 Si02
#       6
#     4   8   8   8   8   8
#     4  10  22  40  68  92 124 182 222 276 330 390
#     4  10  20  36  58  87 126 174 224 272 323 388
#     4  10  22  43  64  95 133 172 222 276 334 397
#     4  11  24  39  65  96 133 175 216 274 335 399
#     4   9  22  36  55  91 129 171 224 270 330 384
#     4  11  23  46  72 101 137 174 222 278 339 409
#
# _framework density 24.043592
#
# number of rings (size 3 to 8) (size 9 to 14) (size 15 to 20)
#    0.000    1.818    1.818    1.091    3.818    2.909 
#    0.000    6.364    0.000    0.000    0.000    0.000 
#    0.000    0.000    0.000    0.000    0.000    0.000 
#
# Total GULP energy -122470.862434 kJ/mol
# GULP energy per Si atom -5566.857383 kJ/mol
# Density = 2.398887 g / cm^3
# Si number density = 24.043592 Si / 1000 Ang^3
#
#
#
# Elastic Constant Matrix: (Units=GPa)
#
#
# Indices 1 2 3 4 5 6 
#
# 1 85.2939 -1.2859 23.6863 0.0000 -8.1708 0.0000
# 2 -1.2859 92.5954 21.6846 0.0000 4.9270 0.0000
# 3 23.6863 21.6846 87.2882 0.0000 1.5139 0.0000
# 4 0.0000 0.0000 0.0000 -7.1778 0.0000 -42.6628
# 5 -8.1708 4.9270 1.5139 0.0000 25.9275 0.0000
# 6 0.0000 0.0000 0.0000 -42.6628 0.0000 -49.8308
#
#
#
# Elastic Compliance Matrix: (Units=1/GPa)
#
#
# Indices 1 2 3 4 5 6 
#
# 1 0.013218 0.000866 -0.003875 0.000000 0.004227 0.000000
# 2 0.000866 0.011630 -0.003094 0.000000 -0.001756 0.000000
# 3 -0.003875 -0.003094 0.013301 0.000000 -0.001410 0.000000
# 4 0.000000 0.000000 0.000000 0.034074 0.000000 -0.029172
# 5 0.004227 -0.001756 -0.001410 0.000000 0.040317 0.000000
# 6 0.000000 0.000000 0.000000 -0.029172 0.000000 0.004908
#
#
# Mechanical properties :
#
#
# Convention : Reuss Voigt Hill
#
# Bulk Modulus (GPa) = 38.54577 39.26083 38.90330
# Shear Modulus (GPa) = 36.15279 8.52328 22.33803
#
# Velocity S-wave (km/s) = 3.88188 1.88484 3.05136
# Velocity P-wave (km/s) = 6.01319 4.59362 5.35069
#
# Compressibility (1/GPa) = 0.02594318
#
# Stress axis : x y z
#
# Youngs Moduli (GPa) = 75.65218 85.98699 75.18271
#
# Poissons Ratio (x) = -0.07448 0.29136
# Poissons Ratio (y) = -0.06553 0.23259
# Poissons Ratio (z) = 0.29318 0.26602
#
# Static dielectric constant tensor:
#      x y z
#    x 1.942830 0.000000 -0.014910 
#    y 0.000000 1.964530 0.000000 
#    z -0.014910 0.000000 2.057620 
# 
# From -- ./inp_files/5764.got.cif
#   From: 2010.05.17/outbox.cif.g08.bks.cpg/sg15_3_cif.got.tgz:5764.got - 2010.06.03 18:47:42.
