data_PCOD9271054
_publ_section_title
;
Structure prediction by ZEFSAII (Michael W. Deem and Ramdas Pophale) SiO2 
 PCOD9271054
Probable space group: C 2/C
;
_chemical_formula_sum "Si O2"
_cell_formula_units_Z 60
_cell_length_a 20.572806
_cell_length_b 16.836293
_cell_length_c 9.029005
_cell_angle_alpha 90.000000
_cell_angle_beta 72.498360
_cell_angle_gamma 90.000000
_cell_volume 2982.603212
_symmetry_space_group_name_H-M "C 2/C"
_symmetry_group_IT_number 15
_symmetry_cell_setting 'monoclinic'
loop_
_space_group_symop_operation_xyz
x,y,z
-x,y,1/2-z
-x,-y,-z
x,-y,1/2+z
1/2+x,1/2+y,z
1/2-x,1/2+y,1/2-z
1/2-x,1/2-y,-z
1/2+x,1/2-y,1/2+z
loop_
_atom_site_type_symbol
_atom_site_label
_atom_site_fract_x
_atom_site_fract_y
_atom_site_fract_z
Si Si1 0.027504 0.890902 0.876237
Si Si2 0.861882 0.781909 0.305601
Si Si3 0.019097 0.410148 0.453627
Si Si4 0.224419 0.307031 0.886547
Si Si5 0.645177 0.284898 0.858181
Si Si6 0.066059 0.064816 0.805410
Si Si7 0.892849 0.356314 0.345143
Si Si8 0.500000 0.807604 0.750000
O O1 0.077657 0.835896 0.931104
O O2 0.000000 0.847979 0.750000
O O3 0.070157 0.969330 0.799510
O O4 0.961202 0.915804 0.012344
O O5 0.816575 0.744765 0.206698
O O6 0.835973 0.758398 0.488127
O O7 0.872556 0.877180 0.279582
O O8 0.937571 0.745410 0.236240
O O9 0.958451 0.362439 0.409102
O O10 0.028977 0.362232 0.598156
O O11 0.000000 0.500000 0.500000
O O12 0.084322 0.415387 0.300840
O O13 0.292557 0.334338 0.755359
O O14 0.250000 0.250000 0.000000
O O15 0.172351 0.366707 0.003676
O O16 0.623367 0.220770 0.747511
O O17 0.000000 0.082131 0.750000
#
# Coordination Sequence:
#
# PCOD9271054 Si02
#       8
#     8   8   8   8   8   8   8   4
#     4  10  22  34  59  92 131 157 202 252 310 361
#     4  12  21  38  64  91 129 160 212 257 311 369
#     4  11  23  39  64  93 127 160 201 269 335 380
#     4  10  24  41  62  89 124 168 214 254 296 372
#     4  11  22  39  64  90 125 171 214 251 311 372
#     4  10  20  36  56  93 127 160 192 260 309 361
#     4  10  22  40  63  92 123 155 213 256 315 375
#     4  12  20  34  66  98 118 156 204 270 324 370
#
# _framework density 20.116655000000002
#
# number of rings (size 3 to 8) (size 9 to 14) (size 15 to 20)
#    0.000    1.333    4.667    1.200    5.600    0.000 
#    0.000    0.000    8.800    0.000    0.000    0.000 
#    0.000    0.000    0.000    0.000    0.000    0.000 
#
# Total GULP energy -167051.356358 kJ/mol
# GULP energy per Si atom -5568.378545 kJ/mol
# Density = 2.007087 g / cm^3
# Si number density = 20.116655 Si / 1000 Ang^3
#
#
#
# Elastic Constant Matrix: (Units=GPa)
#
#
# Indices 1 2 3 4 5 6 
#
# 1 64.2132 10.5146 27.2878 0.0000 4.4283 0.0000
# 2 10.5146 50.4133 12.8033 0.0000 -0.3297 0.0000
# 3 27.2878 12.8033 115.2602 0.0000 3.3525 0.0000
# 4 0.0000 0.0000 0.0000 20.5786 0.0000 -7.9925
# 5 4.4283 -0.3297 3.3525 0.0000 45.3086 0.0000
# 6 0.0000 0.0000 0.0000 -7.9925 0.0000 8.9204
#
#
#
# Elastic Compliance Matrix: (Units=1/GPa)
#
#
# Indices 1 2 3 4 5 6 
#
# 1 0.017762 -0.002734 -0.003859 0.000000 -0.001470 0.000000
# 2 -0.002734 0.020837 -0.001683 0.000000 0.000543 0.000000
# 3 -0.003859 -0.001683 0.009787 0.000000 -0.000359 0.000000
# 4 0.000000 0.000000 0.000000 0.074530 0.000000 0.066777
# 5 -0.001470 0.000543 -0.000359 0.000000 0.022245 0.000000
# 6 0.000000 0.000000 0.000000 0.066777 0.000000 0.171933
#
#
# Mechanical properties :
#
#
# Convention : Reuss Voigt Hill
#
# Bulk Modulus (GPa) = 31.41270 36.78869 34.10070
# Shear Modulus (GPa) = 14.52399 26.91359 20.71879
#
# Velocity S-wave (km/s) = 2.68990 3.66167 3.21274
# Velocity P-wave (km/s) = 5.02957 6.01701 5.54531
#
# Compressibility (1/GPa) = 0.03183426
#
# Stress axis : x y z
#
# Youngs Moduli (GPa) = 56.29998 47.99083 102.17665
#
# Poissons Ratio (x) = 0.13122 0.39426
# Poissons Ratio (y) = 0.15394 0.17198
# Poissons Ratio (z) = 0.21724 0.08077
#
# Static dielectric constant tensor:
#      x y z
#    x 1.740780 0.000000 -0.002580 
#    y 0.000000 1.728150 0.000000 
#    z -0.002580 0.000000 1.799360 
# 
# From -- ./inp_files/56597.got.cif
#   From: 2010.05.17/outbox.cif.g08.bks.cpg/sg15_29_cif.got.tgz:56597.got - 2010.06.03 18:47:42.
