data_PCOD9271621
_publ_section_title
;
Structure prediction by ZEFSAII (Michael W. Deem and Ramdas Pophale) SiO2 
 PCOD9271621
Probable space group: C 2/C
;
_chemical_formula_sum "Si O2"
_cell_formula_units_Z 56
_cell_length_a 11.307746
_cell_length_b 16.103566
_cell_length_c 24.510520
_cell_angle_alpha 90.000000
_cell_angle_beta 41.421094
_cell_angle_gamma 90.000000
_cell_volume 2952.828570
_symmetry_space_group_name_H-M "C 2/C"
_symmetry_group_IT_number 15
_symmetry_cell_setting 'monoclinic'
loop_
_space_group_symop_operation_xyz
x,y,z
-x,y,1/2-z
-x,-y,-z
x,-y,1/2+z
1/2+x,1/2+y,z
1/2-x,1/2+y,1/2-z
1/2-x,1/2-y,-z
1/2+x,1/2-y,1/2+z
loop_
_atom_site_type_symbol
_atom_site_label
_atom_site_fract_x
_atom_site_fract_y
_atom_site_fract_z
Si Si1 0.660966 0.091887 0.238086
Si Si2 0.684154 0.251675 0.757398
Si Si3 0.677833 0.606787 0.922774
Si Si4 0.770955 0.220550 0.387397
Si Si5 0.868006 0.444108 0.511228
Si Si6 0.021393 0.006585 0.076542
Si Si7 0.552362 0.923316 0.329899
O O1 0.500000 0.094049 0.250000
O O2 0.692503 0.182102 0.253891
O O3 0.850194 0.063930 0.147098
O O4 0.622766 0.015882 0.293473
O O5 0.723100 0.263380 0.679614
O O6 0.475563 0.277639 0.837194
O O7 0.685380 0.154815 0.775310
O O8 0.663046 0.700629 0.947497
O O9 0.561035 0.582239 0.911092
O O10 0.889509 0.592054 0.843300
O O11 0.617747 0.544819 0.990524
O O12 0.679639 0.137421 0.438257
O O13 0.678247 0.490190 0.566244
O O14 0.000000 0.500000 0.500000
O O15 0.964124 0.421230 0.420593
#
# Coordination Sequence:
#
# PCOD9271621 Si02
#       7
#     8   8   8   8   8   8   8
#     4  12  22  38  63  89 122 159 207 258 306 360
#     4  10  22  37  61  93 118 159 207 257 305 366
#     4   9  19  36  62  89 111 156 204 254 296 357
#     4  10  20  38  63  84 122 156 206 245 307 368
#     4  11  23  40  59  90 126 168 200 248 314 377
#     4  10  20  36  60  89 117 151 204 251 298 357
#     4  10  22  38  63  90 125 159 209 253 309 367
#
# _framework density 18.964867000000002
#
# number of rings (size 3 to 8) (size 9 to 14) (size 15 to 20)
#    0.000    1.714    2.857    1.714    4.000    1.714 
#    0.000    3.571    0.000    0.000    0.000    0.000 
#    0.000    0.000    0.000    0.000    0.000    0.000 
#
# Total GULP energy -156101.796621 kJ/mol
# GULP energy per Si atom -5575.064165 kJ/mol
# Density = 1.892170 g / cm^3
# Si number density = 18.964867 Si / 1000 Ang^3
#
#
#
# Elastic Constant Matrix: (Units=GPa)
#
#
# Indices 1 2 3 4 5 6 
#
# 1 107.1931 57.7080 20.0274 -0.0001 -14.4896 0.0001
# 2 57.7080 132.4955 33.0224 0.0001 -10.6846 0.0001
# 3 20.0274 33.0224 56.6214 0.0005 4.7007 -0.0002
# 4 -0.0001 0.0001 0.0005 32.0218 0.0000 -9.5772
# 5 -14.4896 -10.6846 4.7007 0.0000 20.9243 0.0000
# 6 0.0001 0.0001 -0.0002 -9.5772 0.0000 26.6805
#
#
#
# Elastic Compliance Matrix: (Units=1/GPa)
#
#
# Indices 1 2 3 4 5 6 
#
# 1 0.013269 -0.004505 -0.002688 0.000000 0.007492 0.000000
# 2 -0.004505 0.011103 -0.005190 0.000000 0.003716 0.000000
# 3 -0.002688 -0.005190 0.022432 0.000000 -0.009551 0.000000
# 4 0.000000 0.000000 0.000000 0.034985 0.000000 0.012558
# 5 0.007492 0.003716 -0.009551 0.000000 0.057022 0.000000
# 6 0.000000 0.000000 0.000000 0.012558 0.000000 0.041988
#
#
# Mechanical properties :
#
#
# Convention : Reuss Voigt Hill
#
# Bulk Modulus (GPa) = 45.37798 57.53621 51.45709
# Shear Modulus (GPa) = 23.48386 28.29547 25.88966
#
# Velocity S-wave (km/s) = 3.52274 3.86682 3.69879
# Velocity P-wave (km/s) = 6.36597 7.09511 6.74041
#
# Compressibility (1/GPa) = 0.02203712
#
# Stress axis : x y z
#
# Youngs Moduli (GPa) = 75.36176 90.06611 44.57949
#
# Poissons Ratio (x) = 0.40578 0.11982
# Poissons Ratio (y) = 0.33953 0.23138
# Poissons Ratio (z) = 0.20256 0.46747
#
# Static dielectric constant tensor:
#      x y z
#    x 1.688080 0.000000 0.015460 
#    y 0.000000 1.682370 0.000000 
#    z 0.015460 0.000000 1.685270 
# 
# From -- ./inp_files/292828.got.cif
#   From: 2010.05.17/outbox.cif.g08.bks.cpg/sg15_147_cif.got.tgz:292828.got - 2010.06.03 18:47:42.
