data_PCOD9271799
_publ_section_title
;
Structure prediction by ZEFSAII (Michael W. Deem and Ramdas Pophale) SiO2 
 PCOD9271799
Probable space group: C 2/C
;
_chemical_formula_sum "Si O2"
_cell_formula_units_Z 48
_cell_length_a 25.363020
_cell_length_b 18.402573
_cell_length_c 12.912501
_cell_angle_alpha 90.000000
_cell_angle_beta 21.916647
_cell_angle_gamma 90.000000
_cell_volume 2249.563434
_symmetry_space_group_name_H-M "C 2/C"
_symmetry_group_IT_number 15
_symmetry_cell_setting 'monoclinic'
loop_
_space_group_symop_operation_xyz
x,y,z
-x,y,1/2-z
-x,-y,-z
x,-y,1/2+z
1/2+x,1/2+y,z
1/2-x,1/2+y,1/2-z
1/2-x,1/2-y,-z
1/2+x,1/2-y,1/2+z
loop_
_atom_site_type_symbol
_atom_site_label
_atom_site_fract_x
_atom_site_fract_y
_atom_site_fract_z
Si Si1 0.330948 0.007074 0.287629
Si Si2 0.822515 0.221933 0.261164
Si Si3 0.802232 0.400803 0.021030
Si Si4 0.641955 0.868283 0.930585
Si Si5 0.379297 0.875319 0.096064
Si Si6 0.623957 0.731451 0.808746
O O1 0.258940 0.037110 0.521468
O O2 0.310107 0.066592 0.233991
O O3 0.297559 0.922657 0.329231
O O4 0.500000 0.000000 0.000000
O O5 0.750000 0.250000 0.500000
O O6 0.749615 0.160197 0.323844
O O7 0.825813 0.294290 0.184399
O O8 0.983447 0.210692 0.002559
O O9 0.950616 0.370089 0.701959
O O10 0.849809 0.422379 0.047896
O O11 0.681824 0.341812 0.254475
O O12 0.606696 0.798358 0.920486
O O13 0.500000 0.890458 0.250000
O O14 0.750000 0.750000 0.500000
#
# Coordination Sequence:
#
# PCOD9271799 Si02
#       6
#     8   8   8   8   8   8
#     4  10  22  38  63  96 127 165 224 282 323 390
#     4  12  25  39  65  99 136 176 220 274 336 401
#     4  10  20  36  61  93 123 165 216 273 324 379
#     4  12  25  40  65 101 133 172 224 275 337 395
#     4  10  21  37  62  96 123 170 216 275 329 386
#     4  12  21  41  64  95 134 166 223 276 322 392
#
# _framework density 21.337474
#
# number of rings (size 3 to 8) (size 9 to 14) (size 15 to 20)
#    0.000    1.000    6.667    1.000    4.667    0.667 
#    0.000    0.000    0.000    8.000    0.000    0.000 
#    0.000    0.000    0.000    0.000    0.000    0.000 
#
# Total GULP energy -133721.721163 kJ/mol
# GULP energy per Si atom -5571.738382 kJ/mol
# Density = 2.128891 g / cm^3
# Si number density = 21.337474 Si / 1000 Ang^3
#
#
#
# Elastic Constant Matrix: (Units=GPa)
#
#
# Indices 1 2 3 4 5 6 
#
# 1 98.2710 11.7871 30.5328 -0.0002 -27.5669 0.0001
# 2 11.7871 72.7537 5.3808 -0.0007 -21.6643 0.0003
# 3 30.5328 5.3808 55.5607 -0.0017 -19.7403 0.0007
# 4 -0.0002 -0.0007 -0.0017 17.8234 0.0008 0.8162
# 5 -27.5669 -21.6643 -19.7403 0.0008 32.3106 -0.0002
# 6 0.0001 0.0003 0.0007 0.8162 -0.0002 29.0944
#
#
#
# Elastic Compliance Matrix: (Units=1/GPa)
#
#
# Indices 1 2 3 4 5 6 
#
# 1 0.014260 0.001060 -0.004296 -0.000001 0.010252 0.000000
# 2 0.001060 0.017682 0.002859 0.000000 0.014507 0.000000
# 3 -0.004296 0.002859 0.024857 0.000002 0.013438 -0.000001
# 4 -0.000001 0.000000 0.000002 0.056178 -0.000001 -0.001576
# 5 0.010252 0.014507 0.013438 -0.000001 0.057633 0.000000
# 6 0.000000 0.000000 -0.000001 -0.001576 0.000000 0.034415
#
#
# Mechanical properties :
#
#
# Convention : Reuss Voigt Hill
#
# Bulk Modulus (GPa) = 17.84311 35.77630 26.80971
# Shear Modulus (GPa) = 22.27573 27.77134 25.02353
#
# Velocity S-wave (km/s) = 3.23456 3.61158 3.42826
# Velocity P-wave (km/s) = 4.72550 5.84762 5.31625
#
# Compressibility (1/GPa) = 0.05604404
#
# Stress axis : x y z
#
# Youngs Moduli (GPa) = 70.12844 56.55614 40.23036
#
# Poissons Ratio (x) = -0.05997 0.17285
# Poissons Ratio (y) = -0.07436 -0.11502
# Poissons Ratio (z) = 0.30130 -0.16170
#
# Static dielectric constant tensor:
#      x y z
#    x 1.860910 0.000000 -0.004320 
#    y 0.000000 1.846180 0.000000 
#    z -0.004320 0.000000 1.770390 
# 
# From -- ./inp_files/178906.got.cif
#   From: 2010.05.17/outbox.cif.g08.bks.cpg/sg15_90_cif.got.tgz:178906.got - 2010.06.03 18:47:42.
