data_PCOD9271574
_publ_section_title
;
Structure prediction by ZEFSAII (Michael W. Deem and Ramdas Pophale) SiO2 
 PCOD9271574
Probable space group: C 2/C
;
_chemical_formula_sum "Si O2"
_cell_formula_units_Z 48
_cell_length_a 28.876688
_cell_length_b 14.758445
_cell_length_c 11.160350
_cell_angle_alpha 90.000000
_cell_angle_beta 30.294402
_cell_angle_gamma 90.000000
_cell_volume 2399.264477
_symmetry_space_group_name_H-M "C 2/C"
_symmetry_group_IT_number 15
_symmetry_cell_setting 'monoclinic'
loop_
_space_group_symop_operation_xyz
x,y,z
-x,y,1/2-z
-x,-y,-z
x,-y,1/2+z
1/2+x,1/2+y,z
1/2-x,1/2+y,1/2-z
1/2-x,1/2-y,-z
1/2+x,1/2-y,1/2+z
loop_
_atom_site_type_symbol
_atom_site_label
_atom_site_fract_x
_atom_site_fract_y
_atom_site_fract_z
Si Si1 0.667234 0.249539 0.030563
Si Si2 0.352013 0.963456 0.357338
Si Si3 0.053496 0.030677 0.503306
Si Si4 0.522033 0.886006 0.834794
Si Si5 0.208882 0.894501 0.122214
Si Si6 0.201128 0.819186 0.699841
O O1 0.750619 0.184352 0.884004
O O2 0.667518 0.264058 0.889306
O O3 0.575900 0.196795 0.274710
O O4 0.676711 0.344971 0.074453
O O5 0.279908 0.890384 0.566055
O O6 0.407608 0.028532 0.323213
O O7 0.290245 0.033426 0.418460
O O8 0.430429 0.914021 0.107104
O O9 0.116329 0.120414 0.339925
O O10 0.125818 0.949561 0.364720
O O11 0.000000 0.000000 0.500000
O O12 0.000000 0.044311 0.750000
O O13 0.500000 0.861024 0.750000
O O14 0.250000 0.750000 0.500000
#
# Coordination Sequence:
#
# PCOD9271574 Si02
#       6
#     8   8   8   8   8   8
#     4  10  21  39  63  90 125 161 206 256 313 364
#     4   9  21  38  57  87 117 155 204 239 306 363
#     4  11  25  43  66  94 130 171 215 263 322 386
#     4  10  20  36  60  86 118 155 197 252 298 358
#     4   9  21  41  63  87 123 168 202 254 313 376
#     4  11  24  39  62  92 122 163 209 257 308 374
#
# _framework density 20.006132000000001
#
# number of rings (size 3 to 8) (size 9 to 14) (size 15 to 20)
#    0.000    2.000    0.000    2.000    4.667    4.667 
#    0.000    0.000    0.000    0.000    0.000    0.000 
#    0.000    0.000    0.000    0.000    0.000    0.000 
#
# Total GULP energy -133844.898009 kJ/mol
# GULP energy per Si atom -5576.870750 kJ/mol
# Density = 1.996060 g / cm^3
# Si number density = 20.006132 Si / 1000 Ang^3
#
#
#
# Elastic Constant Matrix: (Units=GPa)
#
#
# Indices 1 2 3 4 5 6 
#
# 1 72.7678 25.3663 37.7364 0.0000 -3.3102 0.0000
# 2 25.3663 89.7288 58.2279 0.0000 0.0185 0.0000
# 3 37.7364 58.2279 105.2843 0.0000 -12.3000 0.0000
# 4 0.0000 0.0000 0.0000 33.2215 0.0000 1.8575
# 5 -3.3102 0.0185 -12.3000 0.0000 24.3112 0.0000
# 6 0.0000 0.0000 0.0000 1.8575 0.0000 13.7226
#
#
#
# Elastic Compliance Matrix: (Units=1/GPa)
#
#
# Indices 1 2 3 4 5 6 
#
# 1 0.016985 -0.001276 -0.005433 0.000000 -0.000435 0.000000
# 2 -0.001276 0.018117 -0.010186 0.000000 -0.005341 0.000000
# 3 -0.005433 -0.010186 0.018061 0.000000 0.008406 0.000000
# 4 0.000000 0.000000 0.000000 0.030331 0.000000 -0.004106
# 5 -0.000435 -0.005341 0.008406 0.000000 0.045331 0.000000
# 6 0.000000 0.000000 0.000000 -0.004106 0.000000 0.073428
#
#
# Mechanical properties :
#
#
# Convention : Reuss Voigt Hill
#
# Bulk Modulus (GPa) = 51.62005 56.71581 54.16793
# Shear Modulus (GPa) = 20.61861 24.01442 22.31651
#
# Velocity S-wave (km/s) = 3.21380 3.46837 3.34351
# Velocity P-wave (km/s) = 6.29520 6.66710 6.48381
#
# Compressibility (1/GPa) = 0.01937232
#
# Stress axis : x y z
#
# Youngs Moduli (GPa) = 58.87627 55.19800 55.36819
#
# Poissons Ratio (x) = 0.07043 0.30081
# Poissons Ratio (y) = 0.07512 0.56399
# Poissons Ratio (z) = 0.31987 0.56225
#
# Static dielectric constant tensor:
#      x y z
#    x 1.672830 0.000000 -0.011050 
#    y 0.000000 1.747740 0.000000 
#    z -0.011050 0.000000 1.663490 
# 
# From -- ./inp_files/96535.got.cif
#   From: 2010.05.17/outbox.cif.g08.bks.cpg/sg15_49_cif.got.tgz:96535.got - 2010.06.03 18:47:42.
