data_PCOD9271238
_publ_section_title
;
Structure prediction by ZEFSAII (Michael W. Deem and Ramdas Pophale) SiO2 
 PCOD9271238
Probable space group: C 2/C
;
_chemical_formula_sum "Si O2"
_cell_formula_units_Z 56
_cell_length_a 28.394953
_cell_length_b 14.125376
_cell_length_c 9.747244
_cell_angle_alpha 90.000000
_cell_angle_beta 47.578362
_cell_angle_gamma 90.000000
_cell_volume 2886.007287
_symmetry_space_group_name_H-M "C 2/C"
_symmetry_group_IT_number 15
_symmetry_cell_setting 'monoclinic'
loop_
_space_group_symop_operation_xyz
x,y,z
-x,y,1/2-z
-x,-y,-z
x,-y,1/2+z
1/2+x,1/2+y,z
1/2-x,1/2+y,1/2-z
1/2-x,1/2-y,-z
1/2+x,1/2-y,1/2+z
loop_
_atom_site_type_symbol
_atom_site_label
_atom_site_fract_x
_atom_site_fract_y
_atom_site_fract_z
Si Si1 0.238445 0.093789 0.457723
Si Si2 0.214586 0.716883 0.882045
Si Si3 0.932094 0.115886 0.379659
Si Si4 0.089274 0.937872 0.262420
Si Si5 0.429802 0.738509 0.891156
Si Si6 0.143860 0.220085 0.184929
Si Si7 0.768365 0.384215 0.435486
O O1 0.241845 0.176066 0.336566
O O2 0.255293 0.154884 0.557385
O O3 0.165319 0.061303 0.592499
O O4 0.276498 0.995688 0.396686
O O5 0.233606 0.664442 0.708358
O O6 0.136707 0.717524 0.038357
O O7 0.919080 0.077000 0.557973
O O8 0.880733 0.184290 0.412822
O O9 0.000000 0.166577 0.250000
O O10 0.937335 0.032031 0.256339
O O11 0.062017 0.852633 0.223610
O O12 0.500000 0.786852 0.750000
O O13 0.409251 0.718981 0.089968
O O14 0.174361 0.324544 0.110239
O O15 0.199287 0.147665 0.128414
#
# Coordination Sequence:
#
# PCOD9271238 Si02
#       7
#     8   8   8   8   8   8   8
#     4  10  20  36  58  84 119 149 188 251 292 353
#     4   9  21  36  57  90 113 153 200 231 306 352
#     4  12  22  35  52  81 121 156 199 233 283 358
#     4  11  22  33  55  81 114 157 190 235 299 353
#     4  10  20  38  57  78 115 154 198 242 290 354
#     4  10  21  36  56  87 110 154 200 234 297 354
#     4  10  20  36  60  83 118 148 190 252 291 353
#
# _framework density 19.403970000000001
#
# number of rings (size 3 to 8) (size 9 to 14) (size 15 to 20)
#    0.000    1.714    1.429    3.429    0.000    3.429 
#    0.000    0.000    0.000    4.286    0.000    0.000 
#    0.000    0.000    0.000    0.000    0.000    0.000 
#
# Total GULP energy -155947.158897 kJ/mol
# GULP energy per Si atom -5569.541389 kJ/mol
# Density = 1.935981 g / cm^3
# Si number density = 19.403970 Si / 1000 Ang^3
#
#
#
# Elastic Constant Matrix: (Units=GPa)
#
#
# Indices 1 2 3 4 5 6 
#
# 1 78.3059 21.4556 17.1150 0.0000 6.7007 0.0000
# 2 21.4556 121.2608 19.2359 0.0000 9.6206 0.0000
# 3 17.1150 19.2359 78.2742 0.0000 12.4164 0.0000
# 4 0.0000 0.0000 0.0000 -6.4316 0.0000 -18.1303
# 5 6.7007 9.6206 12.4164 0.0000 29.0158 0.0000
# 6 0.0000 0.0000 0.0000 -18.1303 0.0000 5.6046
#
#
#
# Elastic Compliance Matrix: (Units=1/GPa)
#
#
# Indices 1 2 3 4 5 6 
#
# 1 0.013953 -0.001976 -0.002315 0.000000 -0.001576 0.000000
# 2 -0.001976 0.008980 -0.001475 0.000000 -0.001890 0.000000
# 3 -0.002315 -0.001475 0.014464 0.000000 -0.005166 0.000000
# 4 0.000000 0.000000 0.000000 -0.015366 0.000000 -0.049705
# 5 -0.001576 -0.001890 -0.005166 0.000000 0.037665 0.000000
# 6 0.000000 0.000000 0.000000 -0.049705 0.000000 0.017633
#
#
# Mechanical properties :
#
#
# Convention : Reuss Voigt Hill
#
# Bulk Modulus (GPa) = 38.66411 43.71709 41.19060
# Shear Modulus (GPa) = 51.29071 20.30672 35.79872
#
# Velocity S-wave (km/s) = 5.14689 3.23851 4.29991
# Velocity P-wave (km/s) = 7.43571 6.04672 6.77690
#
# Compressibility (1/GPa) = 0.02586378
#
# Stress axis : x y z
#
# Youngs Moduli (GPa) = 71.66989 111.35455 69.13870
#
# Poissons Ratio (x) = 0.22009 0.16006
# Poissons Ratio (y) = 0.14165 0.10198
# Poissons Ratio (z) = 0.16592 0.16424
#
# Static dielectric constant tensor:
#      x y z
#    x 1.716270 0.000000 -0.003690 
#    y 0.000000 1.692930 0.000000 
#    z -0.003690 0.000000 1.736460 
# 
# From -- ./inp_files/69903.got.cif
#   From: 2010.05.17/outbox.cif.g08.bks.cpg/sg15_35_cif.got.tgz:69903.got - 2010.06.03 18:47:42.
