data_PCOD9271927
_publ_section_title
;
Structure prediction by ZEFSAII (Michael W. Deem and Ramdas Pophale) SiO2 
 PCOD9271927
Probable space group: C 2/C
;
_chemical_formula_sum "Si O2"
_cell_formula_units_Z 44
_cell_length_a 17.329480
_cell_length_b 15.793405
_cell_length_c 8.989423
_cell_angle_alpha 90.000000
_cell_angle_beta 69.606198
_cell_angle_gamma 90.000000
_cell_volume 2306.114471
_symmetry_space_group_name_H-M "C 2/C"
_symmetry_group_IT_number 15
_symmetry_cell_setting 'monoclinic'
loop_
_space_group_symop_operation_xyz
x,y,z
-x,y,1/2-z
-x,-y,-z
x,-y,1/2+z
1/2+x,1/2+y,z
1/2-x,1/2+y,1/2-z
1/2-x,1/2-y,-z
1/2+x,1/2-y,1/2+z
loop_
_atom_site_type_symbol
_atom_site_label
_atom_site_fract_x
_atom_site_fract_y
_atom_site_fract_z
Si Si1 0.168183 0.429373 0.305998
Si Si2 0.589620 0.392668 0.940308
Si Si3 0.500000 0.496188 0.750000
Si Si4 0.935461 0.586955 0.161399
Si Si5 0.537375 0.789025 0.385432
Si Si6 0.729960 0.074003 0.082622
O O1 0.097214 0.499990 0.391535
O O2 0.120101 0.343966 0.305864
O O3 0.215151 0.475655 0.140178
O O4 0.226576 0.418890 0.408182
O O5 0.549997 0.445537 0.101755
O O6 0.561016 0.438678 0.807766
O O7 0.556882 0.297250 0.957195
O O8 0.687272 0.394296 0.898654
O O9 0.851527 0.619565 0.296842
O O10 0.000000 0.568490 0.250000
O O11 0.975115 0.652502 0.021589
O O12 0.500000 0.769948 0.250000
#
# Coordination Sequence:
#
# PCOD9271927 Si02
#       6
#     8   8   4   8   8   8
#     4  10  20  36  62  91 132 162 189 255 309 375
#     4  11  24  44  67  90 120 164 218 257 303 368
#     4  10  24  48  66  80 122 178 208 252 314 366
#     4  10  21  38  61  94 133 166 193 241 323 378
#     4  12  22  38  64  95 121 162 214 252 306 368
#     4  10  22  37  61  94 124 167 203 249 309 375
#
# _framework density 19.079711
#
# number of rings (size 3 to 8) (size 9 to 14) (size 15 to 20)
#    1.091    0.364    2.727    3.273    1.273    0.727 
#    0.000    4.545    0.000    0.000    0.000    0.000 
#    0.000    0.000    0.000    0.000    0.000    0.000 
#
# Total GULP energy -122742.310402 kJ/mol
# GULP energy per Si atom -5579.195927 kJ/mol
# Density = 1.903629 g / cm^3
# Si number density = 19.079711 Si / 1000 Ang^3
#
#
#
# Elastic Constant Matrix: (Units=GPa)
#
#
# Indices 1 2 3 4 5 6 
#
# 1 134.9391 24.4423 22.4008 0.0000 21.1339 0.0000
# 2 24.4423 86.3084 0.6245 0.0000 3.5982 0.0000
# 3 22.4008 0.6245 37.8948 0.0000 14.8163 0.0000
# 4 0.0000 0.0000 0.0000 15.3930 0.0000 3.4816
# 5 21.1339 3.5982 14.8163 0.0000 20.0768 0.0000
# 6 0.0000 0.0000 0.0000 3.4816 0.0000 15.4122
#
#
#
# Elastic Compliance Matrix: (Units=1/GPa)
#
#
# Indices 1 2 3 4 5 6 
#
# 1 0.009458 -0.002341 -0.002563 0.000000 -0.007644 0.000000
# 2 -0.002341 0.012274 0.001515 0.000000 -0.000854 0.000000
# 3 -0.002563 0.001515 0.037852 0.000000 -0.025508 0.000000
# 4 0.000000 0.000000 0.000000 0.068462 0.000000 -0.015466
# 5 -0.007644 -0.000854 -0.025508 0.000000 0.076833 0.000000
# 6 0.000000 0.000000 0.000000 -0.015466 0.000000 0.068377
#
#
# Mechanical properties :
#
#
# Convention : Reuss Voigt Hill
#
# Bulk Modulus (GPa) = 18.93730 39.34195 29.13962
# Shear Modulus (GPa) = 16.79905 24.28806 20.54355
#
# Velocity S-wave (km/s) = 2.97048 3.57175 3.28490
# Velocity P-wave (km/s) = 4.65961 6.13795 5.44915
#
# Compressibility (1/GPa) = 0.05280583
#
# Stress axis : x y z
#
# Youngs Moduli (GPa) = 105.73538 81.47309 26.41861
#
# Poissons Ratio (x) = 0.19074 0.06772
# Poissons Ratio (y) = 0.24754 -0.04004
# Poissons Ratio (z) = 0.27103 -0.12347
#
# Static dielectric constant tensor:
#      x y z
#    x 1.658120 0.000000 -0.017400 
#    y 0.000000 1.644330 0.000000 
#    z -0.017400 0.000000 1.680460 
# 
# From -- ./inp_files/47021.got.cif
#   From: 2010.05.17/outbox.cif.g08.bks.cpg/sg15_24_cif.got.tgz:47021.got - 2010.06.03 18:47:42.
