data_PCOD9271113
_publ_section_title
;
Structure prediction by ZEFSAII (Michael W. Deem and Ramdas Pophale) SiO2 
 PCOD9271113
Probable space group: C 2/C
;
_chemical_formula_sum "Si O2"
_cell_formula_units_Z 60
_cell_length_a 12.809425
_cell_length_b 19.264120
_cell_length_c 9.510936
_cell_angle_alpha 90.000000
_cell_angle_beta 104.912554
_cell_angle_gamma 90.000000
_cell_volume 2267.894825
_symmetry_space_group_name_H-M "C 2/C"
_symmetry_group_IT_number 15
_symmetry_cell_setting 'monoclinic'
loop_
_space_group_symop_operation_xyz
x,y,z
-x,y,1/2-z
-x,-y,-z
x,-y,1/2+z
1/2+x,1/2+y,z
1/2-x,1/2+y,1/2-z
1/2-x,1/2-y,-z
1/2+x,1/2-y,1/2+z
loop_
_atom_site_type_symbol
_atom_site_label
_atom_site_fract_x
_atom_site_fract_y
_atom_site_fract_z
Si Si1 0.869511 0.516121 0.534387
Si Si2 0.585371 0.282483 0.504542
Si Si3 0.500000 0.272875 0.750000
Si Si4 0.783231 0.016904 0.270569
Si Si5 0.741134 0.165543 0.245167
Si Si6 0.821812 0.666522 0.593059
Si Si7 0.683967 0.627259 0.803959
Si Si8 0.594636 0.869371 0.933751
O O1 0.823862 0.517931 0.362597
O O2 0.762045 0.497638 0.590569
O O3 0.889852 0.593976 0.596966
O O4 0.946921 0.448793 0.572737
O O5 0.511491 0.311229 0.605292
O O6 0.702591 0.283148 0.623982
O O7 0.603273 0.327174 0.370739
O O8 0.545420 0.203951 0.464061
O O9 0.399615 0.222196 0.689085
O O10 0.817198 0.096611 0.271091
O O11 0.851934 0.952199 0.238822
O O12 0.717894 0.184790 0.077535
O O13 0.631668 0.144326 0.286901
O O14 0.721781 0.655109 0.664904
O O15 0.796351 0.625359 0.932064
#
# Coordination Sequence:
#
# PCOD9271113 Si02
#       8
#     8   8   4   8   8   8   8   8
#     4   8  15  28  52  78 112 141 182 234 271 317
#     4  11  22  38  58  82 114 160 189 234 286 356
#     4  12  26  38  52  80 126 154 194 234 300 328
#     4   8  14  26  51  88 108 128 183 248 270 316
#     4   9  18  33  60  87 110 139 199 238 280 328
#     4  10  20  36  57  85 114 151 190 248 274 333
#     4   9  16  32  60  80 109 150 192 222 289 342
#     4   9  16  32  56  82 112 149 189 231 273 338
#
# _framework density 26.456254000000001
#
# number of rings (size 3 to 8) (size 9 to 14) (size 15 to 20)
#    0.000    2.667    1.333    2.400    0.000    0.533 
#    0.000    1.333    0.000    0.800    0.000    0.000 
#    0.000    0.000    0.000    0.000    0.000    0.000 
#
# Total GULP energy -167490.573878 kJ/mol
# GULP energy per Si atom -5583.019129 kJ/mol
# Density = 2.639604 g / cm^3
# Si number density = 26.456254 Si / 1000 Ang^3
#
#
#
# Elastic Constant Matrix: (Units=GPa)
#
#
# Indices 1 2 3 4 5 6 
#
# 1 52.5440 44.7088 38.1262 0.0000 -10.1111 0.0000
# 2 44.7088 142.9074 44.1741 0.0000 -2.0125 0.0000
# 3 38.1262 44.1741 178.9535 0.0000 -23.5520 0.0000
# 4 0.0000 0.0000 0.0000 51.8336 0.0000 -7.5609
# 5 -10.1111 -2.0125 -23.5520 0.0000 41.6354 0.0000
# 6 0.0000 0.0000 0.0000 -7.5609 0.0000 18.6079
#
#
#
# Elastic Compliance Matrix: (Units=1/GPa)
#
#
# Indices 1 2 3 4 5 6 
#
# 1 0.029402 -0.007997 -0.003675 0.000000 0.004675 0.000000
# 2 -0.007997 0.009772 -0.000974 0.000000 -0.002021 0.000000
# 3 -0.003675 -0.000974 0.007010 0.000000 0.003026 0.000000
# 4 0.000000 0.000000 0.000000 0.020508 0.000000 0.008333
# 5 0.004675 -0.002021 0.003026 0.000000 0.026767 0.000000
# 6 0.000000 0.000000 0.000000 0.008333 0.000000 0.057127
#
#
# Mechanical properties :
#
#
# Convention : Reuss Voigt Hill
#
# Bulk Modulus (GPa) = 47.86581 69.82478 58.84530
# Shear Modulus (GPa) = 27.34606 38.90842 33.12724
#
# Velocity S-wave (km/s) = 3.21850 3.83909 3.54241
# Velocity P-wave (km/s) = 5.65185 6.78980 6.24679
#
# Compressibility (1/GPa) = 0.02089174
#
# Stress axis : x y z
#
# Youngs Moduli (GPa) = 34.01121 102.33244 142.65866
#
# Poissons Ratio (x) = 0.81832 0.52426
# Poissons Ratio (y) = 0.27198 0.13902
# Poissons Ratio (z) = 0.12499 0.09972
#
# Static dielectric constant tensor:
#      x y z
#    x 2.215890 0.000000 -0.043320 
#    y 0.000000 2.212390 0.000000 
#    z -0.043320 0.000000 2.024660 
# 
# From -- ./inp_files/98314.got.cif
#   From: 2010.05.17/outbox.cif.g08.bks.cpg/sg15_50_cif.got.tgz:98314.got - 2010.06.03 18:47:42.
