data_PCOD9271155
_publ_section_title
;
Structure prediction by ZEFSAII (Michael W. Deem and Ramdas Pophale) SiO2 
 PCOD9271155
Probable space group: C 2/C
;
_chemical_formula_sum "Si O2"
_cell_formula_units_Z 40
_cell_length_a 23.578867
_cell_length_b 14.630578
_cell_length_c 9.761276
_cell_angle_alpha 90.000000
_cell_angle_beta 144.087689
_cell_angle_gamma 90.000000
_cell_volume 1975.119510
_symmetry_space_group_name_H-M "C 2/C"
_symmetry_group_IT_number 15
_symmetry_cell_setting 'monoclinic'
loop_
_space_group_symop_operation_xyz
x,y,z
-x,y,1/2-z
-x,-y,-z
x,-y,1/2+z
1/2+x,1/2+y,z
1/2-x,1/2+y,1/2-z
1/2-x,1/2-y,-z
1/2+x,1/2-y,1/2+z
loop_
_atom_site_type_symbol
_atom_site_label
_atom_site_fract_x
_atom_site_fract_y
_atom_site_fract_z
Si Si1 0.652062 0.063923 0.009632
Si Si2 0.562449 0.226996 0.496609
Si Si3 0.101264 0.762789 0.867175
Si Si4 0.262164 0.120717 0.810346
Si Si5 0.404566 0.087192 0.298798
O O1 0.598302 0.073067 0.047528
O O2 0.736024 0.989551 0.205655
O O3 0.663159 0.167960 0.985474
O O4 0.595254 0.007887 0.782506
O O5 0.500000 0.270819 0.250000
O O6 0.586800 0.286627 0.678406
O O7 0.654864 0.172130 0.617526
O O8 0.489175 0.151102 0.412542
O O9 0.000000 0.748857 0.750000
O O10 0.162574 0.835288 0.072697
O O11 0.303244 0.131769 0.045457
#
# Coordination Sequence:
#
# PCOD9271155 Si02
#       5
#     8   8   8   8   8
#     4  10  21  36  60  87 121 150 190 239 302 336
#     4  10  20  36  57  89 123 150 186 243 301 346
#     4  12  23  37  63  90 118 155 196 242 292 343
#     4   9  23  36  57  88 128 146 195 241 292 350
#     4   9  20  36  58  90 119 151 188 246 289 351
#
# _framework density 20.251940000000001
#
# number of rings (size 3 to 8) (size 9 to 14) (size 15 to 20)
#    1.200    0.800    2.000    1.800    2.800    2.400 
#    0.000    0.000    0.000    4.800    0.000    0.000 
#    0.000    0.000    0.000    0.000    0.000    0.000 
#
# Total GULP energy -111367.868669 kJ/mol
# GULP energy per Si atom -5568.393433 kJ/mol
# Density = 2.020585 g / cm^3
# Si number density = 20.251940 Si / 1000 Ang^3
#
#
#
# Elastic Constant Matrix: (Units=GPa)
#
#
# Indices 1 2 3 4 5 6 
#
# 1 58.8554 -12.6075 25.0452 0.0000 -27.2832 0.0000
# 2 -12.6075 49.3005 46.6224 0.0000 10.2555 0.0000
# 3 25.0452 46.6224 100.5801 0.0000 -10.1064 0.0000
# 4 0.0000 0.0000 0.0000 41.5839 0.0000 -5.5136
# 5 -27.2832 10.2555 -10.1064 0.0000 30.8832 0.0000
# 6 0.0000 0.0000 0.0000 -5.5136 0.0000 8.0886
#
#
#
# Elastic Compliance Matrix: (Units=1/GPa)
#
#
# Indices 1 2 3 4 5 6 
#
# 1 0.039743 0.023253 -0.018532 0.000000 0.021324 0.000000
# 2 0.023253 0.063071 -0.036258 0.000000 -0.012267 0.000000
# 3 -0.018532 -0.036258 0.031980 0.000000 0.006134 0.000000
# 4 0.000000 0.000000 0.000000 0.026437 0.000000 0.018021
# 5 0.021324 -0.012267 0.006134 0.000000 0.057299 0.000000
# 6 0.000000 0.000000 0.000000 0.018021 0.000000 0.135914
#
#
# Mechanical properties :
#
#
# Convention : Reuss Voigt Hill
#
# Bulk Modulus (GPa) = 13.94320 36.31735 25.13027
# Shear Modulus (GPa) = 11.32692 26.08954 18.70823
#
# Velocity S-wave (km/s) = 2.36752 3.59311 3.04266
# Velocity P-wave (km/s) = 3.79122 5.93175 4.97790
#
# Compressibility (1/GPa) = 0.07171957
#
# Stress axis : x y z
#
# Youngs Moduli (GPa) = 25.16153 15.85518 31.26915
#
# Poissons Ratio (x) = -0.36869 0.57949
# Poissons Ratio (y) = -0.58509 1.13377
# Poissons Ratio (z) = 0.46630 0.57488
#
# Static dielectric constant tensor:
#      x y z
#    x 1.718900 0.000000 -0.033350 
#    y 0.000000 1.734180 0.000000 
#    z -0.033350 0.000000 1.786800 
# 
# From -- ./inp_files/123207.got.cif
#   From: 2010.05.17/outbox.cif.g08.bks.cpg/sg15_62_cif.got.tgz:123207.got - 2010.06.03 18:47:42.
