data_PCOD9271952
_publ_section_title
;
Structure prediction by ZEFSAII (Michael W. Deem and Ramdas Pophale) SiO2 
 PCOD9271952
Probable space group: C 2/C
;
_chemical_formula_sum "Si O2"
_cell_formula_units_Z 40
_cell_length_a 16.108923
_cell_length_b 14.441608
_cell_length_c 8.222650
_cell_angle_alpha 90.000000
_cell_angle_beta 69.409183
_cell_angle_gamma 90.000000
_cell_volume 1790.702712
_symmetry_space_group_name_H-M "C 2/C"
_symmetry_group_IT_number 15
_symmetry_cell_setting 'monoclinic'
loop_
_space_group_symop_operation_xyz
x,y,z
-x,y,1/2-z
-x,-y,-z
x,-y,1/2+z
1/2+x,1/2+y,z
1/2-x,1/2+y,1/2-z
1/2-x,1/2-y,-z
1/2+x,1/2-y,1/2+z
loop_
_atom_site_type_symbol
_atom_site_label
_atom_site_fract_x
_atom_site_fract_y
_atom_site_fract_z
Si Si1 0.513357 0.284344 0.043467
Si Si2 0.094682 0.961126 0.112701
Si Si3 0.929997 0.480013 0.907607
Si Si4 0.665233 0.635168 0.883416
Si Si5 0.860894 0.363861 0.211103
O O1 0.500000 0.271027 0.250000
O O2 0.564802 0.383364 0.002138
O O3 0.415059 0.293353 0.036472
O O4 0.569910 0.211650 0.901550
O O5 0.146099 0.906301 0.217365
O O6 0.000000 0.993475 0.250000
O O7 0.149684 0.046832 0.009082
O O8 0.896080 0.568537 0.830484
O O9 0.000000 0.422657 0.750000
O O10 0.852257 0.427657 0.053427
O O11 0.000000 0.500000 0.000000
O O12 0.764323 0.672910 0.823908
#
# Coordination Sequence:
#
# PCOD9271952 Si02
#       5
#     8   8   8   8   8
#     4   9  20  36  58  91 130 166 203 255 311 359
#     4   9  18  36  60  87 125 166 202 255 315 359
#     4   9  20  38  59  82 118 160 193 240 305 367
#     4  10  20  36  62  93 124 161 207 255 304 365
#     4  11  20  37  64  91 119 162 211 251 304 370
#
# _framework density 22.337599000000001
#
# number of rings (size 3 to 8) (size 9 to 14) (size 15 to 20)
#    0.000    2.800    0.000    4.200    0.000    3.200 
#    0.000   15.000    0.000   19.200    0.000    0.000 
#    0.000    0.000    0.000    0.000    0.000    0.000 
#
# Total GULP energy -111429.569919 kJ/mol
# GULP energy per Si atom -5571.478496 kJ/mol
# Density = 2.228676 g / cm^3
# Si number density = 22.337599 Si / 1000 Ang^3
#
#
#
# Elastic Constant Matrix: (Units=GPa)
#
#
# Indices 1 2 3 4 5 6 
#
# 1 115.6384 36.8663 49.9936 0.0000 -37.5587 0.0000
# 2 36.8663 93.3985 58.3516 0.0000 -18.7060 0.0000
# 3 49.9936 58.3516 78.2563 0.0000 -17.5033 0.0000
# 4 0.0000 0.0000 0.0000 36.1582 0.0000 -15.4818
# 5 -37.5587 -18.7060 -17.5033 0.0000 39.2386 0.0000
# 6 0.0000 0.0000 0.0000 -15.4818 0.0000 9.3760
#
#
#
# Elastic Compliance Matrix: (Units=1/GPa)
#
#
# Indices 1 2 3 4 5 6 
#
# 1 0.015732 0.001488 -0.008479 0.000000 0.011985 0.000000
# 2 0.001488 0.020556 -0.015294 0.000000 0.004402 0.000000
# 3 -0.008479 -0.015294 0.029051 0.000000 -0.002448 0.000000
# 4 0.000000 0.000000 0.000000 0.094391 0.000000 0.155860
# 5 0.011985 0.004402 -0.002448 0.000000 0.037964 0.000000
# 6 0.000000 0.000000 0.000000 0.155860 0.000000 0.364016
#
#
# Mechanical properties :
#
#
# Convention : Reuss Voigt Hill
#
# Bulk Modulus (GPa) = 48.14605 64.19070 56.16837
# Shear Modulus (GPa) = 8.15392 26.42665 17.29029
#
# Velocity S-wave (km/s) = 1.91265 3.44329 2.78518
# Velocity P-wave (km/s) = 5.14570 6.67887 5.96178
#
# Compressibility (1/GPa) = 0.02077014
#
# Stress axis : x y z
#
# Youngs Moduli (GPa) = 63.56584 48.64800 34.42165
#
# Poissons Ratio (x) = -0.07240 0.29186
# Poissons Ratio (y) = -0.09460 0.52643
# Poissons Ratio (z) = 0.53898 0.74400
#
# Static dielectric constant tensor:
#      x y z
#    x 1.845480 0.000000 -0.000450 
#    y 0.000000 1.892420 0.000000 
#    z -0.000450 0.000000 1.943930 
# 
# From -- ./inp_files/47878.got.cif
#   From: 2010.05.17/outbox.cif.g08.bks.cpg/sg15_24_cif.got.tgz:47878.got - 2010.06.03 18:47:42.
