data_PCOD9271544
_publ_section_title
;
Structure prediction by ZEFSAII (Michael W. Deem and Ramdas Pophale) SiO2 
 PCOD9271544
Probable space group: C 2/C
;
_chemical_formula_sum "Si O2"
_cell_formula_units_Z 60
_cell_length_a 9.217890
_cell_length_b 15.792003
_cell_length_c 16.417702
_cell_angle_alpha 90.000000
_cell_angle_beta 89.206889
_cell_angle_gamma 90.000000
_cell_volume 2389.678621
_symmetry_space_group_name_H-M "C 2/C"
_symmetry_group_IT_number 15
_symmetry_cell_setting 'monoclinic'
loop_
_space_group_symop_operation_xyz
x,y,z
-x,y,1/2-z
-x,-y,-z
x,-y,1/2+z
1/2+x,1/2+y,z
1/2-x,1/2+y,1/2-z
1/2-x,1/2-y,-z
1/2+x,1/2-y,1/2+z
loop_
_atom_site_type_symbol
_atom_site_label
_atom_site_fract_x
_atom_site_fract_y
_atom_site_fract_z
Si Si1 0.170300 0.018672 0.232295
Si Si2 0.376281 0.787007 0.594536
Si Si3 0.656993 0.284543 0.091816
Si Si4 0.603173 0.383277 0.593970
Si Si5 0.715625 0.606695 0.457276
Si Si6 0.913942 0.571480 0.326748
Si Si7 0.500000 0.728893 0.250000
Si Si8 0.721259 0.329497 0.259489
O O1 0.225494 0.929829 0.265822
O O2 0.000000 0.018406 0.250000
O O3 0.181461 0.037036 0.136960
O O4 0.262468 0.089692 0.279545
O O5 0.506178 0.739422 0.546276
O O6 0.239349 0.832955 0.553357
O O7 0.471611 0.856929 0.645093
O O8 0.313253 0.718305 0.657397
O O9 0.750949 0.199815 0.082402
O O10 0.617618 0.306793 0.184458
O O11 0.731345 0.365599 0.050695
O O12 0.453398 0.414557 0.555186
O O13 0.551247 0.326075 0.671887
O O14 0.835421 0.546266 0.413702
O O15 0.000000 0.527031 0.250000
O O16 0.370930 0.790957 0.226907
#
# Coordination Sequence:
#
# PCOD9271544 Si02
#       8
#     8   8   8   8   8   8   4   8
#     4  12  23  35  58  91 122 146 198 251 300 346
#     4  10  21  35  62  87 116 154 202 251 287 347
#     4  10  20  37  58  87 117 157 198 242 301 349
#     4  11  19  35  57  86 115 153 199 243 288 352
#     4  10  20  36  60  85 118 156 199 244 290 362
#     4  11  20  35  60  89 113 153 198 237 295 354
#     4  10  20  36  60  84 118 152 194 248 296 340
#     4  11  23  37  60  91 122 151 197 254 300 338
#
# _framework density 25.107977000000002
#
# number of rings (size 3 to 8) (size 9 to 14) (size 15 to 20)
#    0.000    1.333    4.667    2.800    2.800    0.533 
#    0.000    0.667    0.000    0.800    0.000    0.000 
#    0.000    0.000    0.000    0.000    0.000    0.000 
#
# Total GULP energy -167029.780503 kJ/mol
# GULP energy per Si atom -5567.659350 kJ/mol
# Density = 2.505083 g / cm^3
# Si number density = 25.107977 Si / 1000 Ang^3
#
#
#
# Elastic Constant Matrix: (Units=GPa)
#
#
# Indices 1 2 3 4 5 6 
#
# 1 120.6624 32.9889 5.2389 0.0000 -9.0940 0.0000
# 2 32.9889 71.8946 10.4971 0.0000 -3.3683 0.0000
# 3 5.2389 10.4971 29.7947 0.0000 -13.2941 0.0000
# 4 0.0000 0.0000 0.0000 0.5165 0.0000 -8.1115
# 5 -9.0940 -3.3683 -13.2941 0.0000 37.8863 0.0000
# 6 0.0000 0.0000 0.0000 -8.1115 0.0000 10.6129
#
#
#
# Elastic Compliance Matrix: (Units=1/GPa)
#
#
# Indices 1 2 3 4 5 6 
#
# 1 0.009632 -0.004441 0.000861 0.000000 0.002219 0.000000
# 2 -0.004441 0.016723 -0.005837 0.000000 -0.001627 0.000000
# 3 0.000861 -0.005837 0.041887 0.000000 0.014386 0.000000
# 4 0.000000 0.000000 0.000000 -0.175955 0.000000 -0.134484
# 5 0.002219 -0.001627 0.014386 0.000000 0.031831 0.000000
# 6 0.000000 0.000000 0.000000 -0.134484 0.000000 -0.008563
#
#
# Mechanical properties :
#
#
# Convention : Reuss Voigt Hill
#
# Bulk Modulus (GPa) = 20.23971 35.53349 27.88660
# Shear Modulus (GPa) = -101.74476 21.37825 -40.18326
#
# Velocity S-wave (km/s) = -6.37266 2.92113 -4.00486
# Velocity P-wave (km/s) = 6.78743 5.05572 3.20226
#
# Compressibility (1/GPa) = 0.04940782
#
# Stress axis : x y z
#
# Youngs Moduli (GPa) = 103.82382 59.79740 23.87386
#
# Poissons Ratio (x) = 0.26558 -0.02057
# Poissons Ratio (y) = 0.46111 0.13935
# Poissons Ratio (z) = -0.08944 0.34904
#
# Static dielectric constant tensor:
#      x y z
#    x 2.052190 0.000000 0.009020 
#    y 0.000000 2.014500 0.000000 
#    z 0.009020 0.000000 2.108190 
# 
# From -- ./inp_files/190992.got.cif
#   From: 2010.05.17/outbox.cif.g08.bks.cpg/sg15_96_cif.got.tgz:190992.got - 2010.06.03 18:47:42.
