data_PCOD9271744
_publ_section_title
;
Structure prediction by ZEFSAII (Michael W. Deem and Ramdas Pophale) SiO2 
 PCOD9271744
Probable space group: C 2/C
;
_chemical_formula_sum "Si O2"
_cell_formula_units_Z 60
_cell_length_a 13.131859
_cell_length_b 23.846409
_cell_length_c 8.215334
_cell_angle_alpha 90.000000
_cell_angle_beta 82.417155
_cell_angle_gamma 90.000000
_cell_volume 2550.115533
_symmetry_space_group_name_H-M "C 2/C"
_symmetry_group_IT_number 15
_symmetry_cell_setting 'monoclinic'
loop_
_space_group_symop_operation_xyz
x,y,z
-x,y,1/2-z
-x,-y,-z
x,-y,1/2+z
1/2+x,1/2+y,z
1/2-x,1/2+y,1/2-z
1/2-x,1/2-y,-z
1/2+x,1/2-y,1/2+z
loop_
_atom_site_type_symbol
_atom_site_label
_atom_site_fract_x
_atom_site_fract_y
_atom_site_fract_z
Si Si1 0.500000 0.493265 0.250000
Si Si2 0.436849 0.856814 0.492753
Si Si3 0.386073 0.433190 0.992636
Si Si4 0.670809 0.948234 0.210110
Si Si5 0.308004 0.775073 0.733882
Si Si6 0.039644 0.822381 0.415577
Si Si7 0.077201 0.453282 0.556465
Si Si8 0.609119 0.234770 0.923695
O O1 0.469748 0.456190 0.103331
O O2 0.406485 0.533713 0.322823
O O3 0.394133 0.898215 0.361664
O O4 0.344507 0.828038 0.616619
O O5 0.508416 0.898264 0.583755
O O6 0.516135 0.808749 0.417639
O O7 0.278491 0.444764 0.098694
O O8 0.406541 0.367505 0.982352
O O9 0.663983 0.939300 0.403815
O O10 0.628054 0.011264 0.189256
O O11 0.381117 0.725888 0.652531
O O12 0.193486 0.748466 0.767843
O O13 0.336796 0.785355 0.918324
O O14 0.000000 0.845484 0.250000
O O15 0.944589 0.793658 0.524431
O O16 0.000000 0.500000 0.500000
#
# Coordination Sequence:
#
# PCOD9271744 Si02
#       8
#     4   8   8   8   8   8   8   8
#     4  10  24  42  64  90 124 162 208 266 328 362
#     4  10  20  36  61  87 127 165 205 268 316 368
#     4  11  22  42  64  91 125 164 211 267 312 389
#     4  11  24  40  65  93 128 168 219 256 325 393
#     4   9  19  36  59  94 122 165 216 259 311 388
#     4   9  18  36  63  86 122 162 205 259 312 366
#     4  10  22  41  62  89 128 168 207 263 318 383
#     4   9  19  36  59  93 126 163 218 259 310 381
#
# _framework density 23.528345999999999
#
# number of rings (size 3 to 8) (size 9 to 14) (size 15 to 20)
#    0.000    2.133    0.667    3.600    1.867    5.333 
#    0.000    4.000   11.733    0.000    0.000    0.000 
#    0.000    0.000    0.000    0.000    0.000    0.000 
#
# Total GULP energy -167540.324753 kJ/mol
# GULP energy per Si atom -5584.677492 kJ/mol
# Density = 2.347479 g / cm^3
# Si number density = 23.528346 Si / 1000 Ang^3
#
#
#
# Elastic Constant Matrix: (Units=GPa)
#
#
# Indices 1 2 3 4 5 6 
#
# 1 60.0598 11.3133 15.7584 0.0000 -32.7498 0.0000
# 2 11.3133 98.8091 27.5969 0.0000 -4.8487 0.0000
# 3 15.7584 27.5969 94.2966 0.0000 -26.7404 0.0000
# 4 0.0000 0.0000 0.0000 24.3360 0.0000 -4.3540
# 5 -32.7498 -4.8487 -26.7404 0.0000 40.2692 0.0000
# 6 0.0000 0.0000 0.0000 -4.3540 0.0000 13.1305
#
#
#
# Elastic Compliance Matrix: (Units=1/GPa)
#
#
# Indices 1 2 3 4 5 6 
#
# 1 0.031245 -0.003204 0.003465 0.000000 0.027326 0.000000
# 2 -0.003204 0.011383 -0.003876 0.000000 -0.003809 0.000000
# 3 0.003465 -0.003876 0.014571 0.000000 0.012027 0.000000
# 4 0.000000 0.000000 0.000000 0.043683 0.000000 0.014485
# 5 0.027326 -0.003809 0.012027 0.000000 0.054584 0.000000
# 6 0.000000 0.000000 0.000000 0.014485 0.000000 0.080962
#
#
# Mechanical properties :
#
#
# Convention : Reuss Voigt Hill
#
# Bulk Modulus (GPa) = 20.01271 40.27809 30.14540
# Shear Modulus (GPa) = 19.20760 28.78026 23.99393
#
# Velocity S-wave (km/s) = 2.86030 3.50125 3.19688
# Velocity P-wave (km/s) = 4.40825 5.78801 5.14460
#
# Compressibility (1/GPa) = 0.04996825
#
# Stress axis : x y z
#
# Youngs Moduli (GPa) = 32.00526 87.84977 68.63085
#
# Poissons Ratio (x) = 0.28150 -0.23782
# Poissons Ratio (y) = 0.10256 0.26602
# Poissons Ratio (z) = -0.11091 0.34052
#
# Static dielectric constant tensor:
#      x y z
#    x 1.949290 0.000000 0.040320 
#    y 0.000000 1.905040 0.000000 
#    z 0.040320 0.000000 1.975990 
# 
# From -- ./inp_files/42599.got.cif
#   From: 2010.05.17/outbox.cif.g08.bks.cpg/sg15_22_cif.got.tgz:42599.got - 2010.06.03 18:47:42.
