data_PCOD9271093
_publ_section_title
;
Structure prediction by ZEFSAII (Michael W. Deem and Ramdas Pophale) SiO2 
 PCOD9271093
Probable space group: C 2/C
;
_chemical_formula_sum "Si O2"
_cell_formula_units_Z 48
_cell_length_a 17.217184
_cell_length_b 30.409949
_cell_length_c 9.666092
_cell_angle_alpha 90.000000
_cell_angle_beta 32.573134
_cell_angle_gamma 90.000000
_cell_volume 2724.671733
_symmetry_space_group_name_H-M "C 2/C"
_symmetry_group_IT_number 15
_symmetry_cell_setting 'monoclinic'
loop_
_space_group_symop_operation_xyz
x,y,z
-x,y,1/2-z
-x,-y,-z
x,-y,1/2+z
1/2+x,1/2+y,z
1/2-x,1/2+y,1/2-z
1/2-x,1/2-y,-z
1/2+x,1/2-y,1/2+z
loop_
_atom_site_type_symbol
_atom_site_label
_atom_site_fract_x
_atom_site_fract_y
_atom_site_fract_z
Si Si1 0.327996 0.226002 0.257743
Si Si2 0.667840 0.130029 0.161282
Si Si3 0.151143 0.041437 0.940947
Si Si4 0.176726 0.274816 0.234709
Si Si5 0.848710 0.958039 0.395513
Si Si6 0.331966 0.129501 0.665052
O O1 0.250000 0.250000 0.500000
O O2 0.293383 0.173931 0.313546
O O3 0.256072 0.251035 0.240383
O O4 0.502432 0.229854 0.001704
O O5 0.500011 0.120009 0.439011
O O6 0.760201 0.086662 0.047905
O O7 0.681821 0.141308 0.977109
O O8 0.136321 0.034390 0.794956
O O9 0.240367 0.085971 0.826995
O O10 0.000000 0.047024 0.250000
O O11 0.219175 0.999666 0.920284
O O12 0.208820 0.326969 0.189595
O O13 0.250000 0.250000 0.000000
O O14 0.000000 0.952411 0.250000
#
# Coordination Sequence:
#
# PCOD9271093 Si02
#       6
#     8   8   8   8   8   8
#     4  11  21  39  62  84 113 158 197 238 280 350
#     4   9  19  37  59  81 108 145 193 229 273 336
#     4  10  20  36  58  81 112 146 182 228 283 334
#     4  11  23  39  58  86 123 150 194 243 296 337
#     4  10  20  36  57  83 113 141 184 233 277 334
#     4   9  19  38  58  79 111 150 182 230 285 337
#
# _framework density 17.616800000000001
#
# number of rings (size 3 to 8) (size 9 to 14) (size 15 to 20)
#    0.000    2.000    1.667    3.000    0.000    3.333 
#    6.000    0.000    0.000    0.000    0.000    0.000 
#    0.000    0.000    0.000    0.000    0.000    0.000 
#
# Total GULP energy -133675.882773 kJ/mol
# GULP energy per Si atom -5569.828449 kJ/mol
# Density = 1.757670 g / cm^3
# Si number density = 17.616800 Si / 1000 Ang^3
#
#
#
# Elastic Constant Matrix: (Units=GPa)
#
#
# Indices 1 2 3 4 5 6 
#
# 1 101.1370 69.8707 44.9826 0.0000 15.6085 0.0000
# 2 69.8707 172.1951 80.6423 0.0000 -1.2763 0.0000
# 3 44.9826 80.6423 91.9615 0.0000 18.3967 0.0000
# 4 0.0000 0.0000 0.0000 37.0892 0.0000 -3.3776
# 5 15.6085 -1.2763 18.3967 0.0000 27.8838 0.0000
# 6 0.0000 0.0000 0.0000 -3.3776 0.0000 36.3050
#
#
#
# Elastic Compliance Matrix: (Units=1/GPa)
#
#
# Indices 1 2 3 4 5 6 
#
# 1 0.015769 -0.006236 -0.000486 0.000000 -0.008792 0.000000
# 2 -0.006236 0.013707 -0.011283 0.000000 0.011562 0.000000
# 3 -0.000486 -0.011283 0.024256 0.000000 -0.016248 0.000000
# 4 0.000000 0.000000 0.000000 0.027192 0.000000 0.002530
# 5 -0.008792 0.011562 -0.016248 0.000000 0.052033 0.000000
# 6 0.000000 0.000000 0.000000 0.002530 0.000000 0.027780
#
#
# Mechanical properties :
#
#
# Convention : Reuss Voigt Hill
#
# Bulk Modulus (GPa) = 56.42516 84.03166 70.22841
# Shear Modulus (GPa) = 24.67244 31.57545 28.12395
#
# Velocity S-wave (km/s) = 3.74639 4.23821 3.99987
# Velocity P-wave (km/s) = 7.12830 8.47072 7.82834
#
# Compressibility (1/GPa) = 0.01772259
#
# Stress axis : x y z
#
# Youngs Moduli (GPa) = 63.41695 72.95353 41.22630
#
# Poissons Ratio (x) = 0.45493 0.02004
# Poissons Ratio (y) = 0.39546 0.46515
# Poissons Ratio (z) = 0.03083 0.82313
#
# Static dielectric constant tensor:
#      x y z
#    x 1.571650 0.000000 -0.009910 
#    y 0.000000 1.604870 0.000000 
#    z -0.009910 0.000000 1.581230 
# 
# From -- ./inp_files/44399.got.cif
#   From: 2010.05.17/outbox.cif.g08.bks.cpg/sg15_23_cif.got.tgz:44399.got - 2010.06.03 18:47:42.
