data_PCOD9271520
_publ_section_title
;
Structure prediction by ZEFSAII (Michael W. Deem and Ramdas Pophale) SiO2 
 PCOD9271520
Probable space group: C 2/C
;
_chemical_formula_sum "Si O2"
_cell_formula_units_Z 48
_cell_length_a 21.892977
_cell_length_b 13.586143
_cell_length_c 8.882268
_cell_angle_alpha 90.000000
_cell_angle_beta 135.144221
_cell_angle_gamma 90.000000
_cell_volume 1863.433697
_symmetry_space_group_name_H-M "C 2/C"
_symmetry_group_IT_number 15
_symmetry_cell_setting 'monoclinic'
loop_
_space_group_symop_operation_xyz
x,y,z
-x,y,1/2-z
-x,-y,-z
x,-y,1/2+z
1/2+x,1/2+y,z
1/2-x,1/2+y,1/2-z
1/2-x,1/2-y,-z
1/2+x,1/2-y,1/2+z
loop_
_atom_site_type_symbol
_atom_site_label
_atom_site_fract_x
_atom_site_fract_y
_atom_site_fract_z
Si Si1 0.376044 0.864546 0.734928
Si Si2 0.474365 0.398703 0.533302
Si Si3 0.365662 0.670357 0.319148
Si Si4 0.626800 0.969853 0.486336
Si Si5 0.668316 0.352475 0.415575
Si Si6 0.719939 0.120724 0.866824
O O1 0.415410 0.945275 0.690733
O O2 0.374135 0.756909 0.661841
O O3 0.270747 0.868188 0.579183
O O4 0.415241 0.895817 0.965651
O O5 0.500000 0.396400 0.750000
O O6 0.500000 0.500000 0.500000
O O7 0.535310 0.318452 0.555506
O O8 0.374713 0.390354 0.312934
O O9 0.358397 0.612408 0.464266
O O10 0.312065 0.772124 0.242464
O O11 0.318782 0.619453 0.094025
O O12 0.690499 0.039630 0.696493
O O13 0.671827 0.902478 0.440151
#
# Coordination Sequence:
#
# PCOD9271520 Si02
#       6
#     8   8   8   8   8   8
#     4  10  22  36  66  94 129 159 207 260 311 364
#     4  12  30  44  66  89 126 169 209 255 310 375
#     4  11  23  42  62  92 128 170 207 254 316 367
#     4  10  20  36  60 100 122 158 204 268 304 366
#     4  11  23  42  62  92 128 170 207 254 316 367
#     4  10  22  36  66  94 129 159 207 260 311 364
#
# _framework density 25.758900000000001
#
# number of rings (size 3 to 8) (size 9 to 14) (size 15 to 20)
#    0.000    1.333    3.333    1.500    9.333    0.000 
#    0.000    0.000    0.000    6.000    0.000    0.000 
#    0.000    0.000    0.000    0.000    0.000    0.000 
#
# Total GULP energy -133939.984788 kJ/mol
# GULP energy per Si atom -5580.832700 kJ/mol
# Density = 2.570027 g / cm^3
# Si number density = 25.758900 Si / 1000 Ang^3
#
#
#
# Elastic Constant Matrix: (Units=GPa)
#
#
# Indices 1 2 3 4 5 6 
#
# 1 83.7694 -13.7020 51.2505 0.0000 -20.8850 0.0000
# 2 -13.7020 44.8379 -6.0448 0.0000 -14.1574 0.0000
# 3 51.2505 -6.0448 115.2738 0.0000 -40.9751 0.0000
# 4 0.0000 0.0000 0.0000 26.1189 0.0000 -10.7269
# 5 -20.8850 -14.1574 -40.9751 0.0000 43.8140 0.0000
# 6 0.0000 0.0000 0.0000 -10.7269 0.0000 20.5090
#
#
#
# Elastic Compliance Matrix: (Units=1/GPa)
#
#
# Indices 1 2 3 4 5 6 
#
# 1 0.017753 0.006264 -0.005748 0.000000 0.005111 0.000000
# 2 0.006264 0.030435 0.005045 0.000000 0.017538 0.000000
# 3 -0.005748 0.005045 0.016628 0.000000 0.014441 0.000000
# 4 0.000000 0.000000 0.000000 0.048761 0.000000 0.025503
# 5 0.005111 0.017538 0.014441 0.000000 0.044433 0.000000
# 6 0.000000 0.000000 0.000000 0.025503 0.000000 0.062098
#
#
# Mechanical properties :
#
#
# Convention : Reuss Voigt Hill
#
# Bulk Modulus (GPa) = 13.16846 34.09872 23.63359
# Shear Modulus (GPa) = 21.34044 32.24687 26.79365
#
# Velocity S-wave (km/s) = 2.88144 3.54202 3.22867
# Velocity P-wave (km/s) = 4.02412 5.47670 4.80561
#
# Compressibility (1/GPa) = 0.07593900
#
# Stress axis : x y z
#
# Youngs Moduli (GPa) = 56.32906 32.85729 60.13896
#
# Poissons Ratio (x) = -0.20582 0.34565
# Poissons Ratio (y) = -0.35285 -0.30341
# Poissons Ratio (z) = 0.32375 -0.16577
#
# Static dielectric constant tensor:
#      x y z
#    x 1.973210 0.000000 0.055480 
#    y 0.000000 2.117960 0.000000 
#    z 0.055480 0.000000 2.190130 
# 
# From -- ./inp_files/66504.got.cif
#   From: 2010.05.17/outbox.cif.g08.bks.cpg/sg15_34_cif.got.tgz:66504.got - 2010.06.03 18:47:42.
