data_PCOD9271757
_publ_section_title
;
Structure prediction by ZEFSAII (Michael W. Deem and Ramdas Pophale) SiO2 
 PCOD9271757
Probable space group: C 2/C
;
_chemical_formula_sum "Si O2"
_cell_formula_units_Z 52
_cell_length_a 14.710582
_cell_length_b 10.615701
_cell_length_c 19.767850
_cell_angle_alpha 90.000000
_cell_angle_beta 129.736386
_cell_angle_gamma 90.000000
_cell_volume 2373.891024
_symmetry_space_group_name_H-M "C 2/C"
_symmetry_group_IT_number 15
_symmetry_cell_setting 'monoclinic'
loop_
_space_group_symop_operation_xyz
x,y,z
-x,y,1/2-z
-x,-y,-z
x,-y,1/2+z
1/2+x,1/2+y,z
1/2-x,1/2+y,1/2-z
1/2-x,1/2-y,-z
1/2+x,1/2-y,1/2+z
loop_
_atom_site_type_symbol
_atom_site_label
_atom_site_fract_x
_atom_site_fract_y
_atom_site_fract_z
Si Si1 0.500000 0.732850 0.750000
Si Si2 0.440317 0.301545 0.450221
Si Si3 0.893802 0.000171 0.034903
Si Si4 0.626255 0.120210 0.194706
Si Si5 0.376918 0.375359 0.785875
Si Si6 0.083669 0.371322 0.113730
Si Si7 0.802224 0.035352 0.626154
O O1 0.432432 0.819687 0.769476
O O2 0.403065 0.641771 0.671552
O O3 0.555873 0.370280 0.472735
O O4 0.373430 0.406487 0.462322
O O5 0.368753 0.231973 0.358111
O O6 0.483480 0.193776 0.521724
O O7 0.007112 0.057200 0.129611
O O8 0.790036 0.997325 0.041143
O O9 0.760092 0.075007 0.269237
O O10 0.551796 0.004359 0.130898
O O11 0.386187 0.229987 0.813209
O O12 0.351673 0.420586 0.696867
O O13 0.192152 0.405652 0.114516
#
# Coordination Sequence:
#
# PCOD9271757 Si02
#       7
#     4   8   8   8   8   8   8
#     4  12  20  38  62  90 116 152 202 254 288 344
#     4  10  21  39  60  84 124 158 195 241 305 359
#     4  10  20  37  63  88 114 159 206 247 286 352
#     4  11  22  38  60  87 124 157 195 246 302 351
#     4  10  20  36  61  89 113 156 205 242 293 345
#     4  10  23  38  59  88 124 161 188 245 307 354
#     4  11  19  37  64  88 117 152 210 249 283 345
#
# _framework density 21.904964
#
# number of rings (size 3 to 8) (size 9 to 14) (size 15 to 20)
#    0.000    1.538    4.615    0.462    2.154    0.615 
#    5.538    3.077    0.000    0.000    0.000    0.000 
#    0.000    0.000    0.000    0.000    0.000    0.000 
#
# Total GULP energy -145179.322576 kJ/mol
# GULP energy per Si atom -5583.820099 kJ/mol
# Density = 2.185511 g / cm^3
# Si number density = 21.904964 Si / 1000 Ang^3
#
#
#
# Elastic Constant Matrix: (Units=GPa)
#
#
# Indices 1 2 3 4 5 6 
#
# 1 88.3226 29.1389 7.8585 0.0000 -27.8147 0.0000
# 2 29.1389 86.2656 7.1477 0.0000 -19.2448 0.0000
# 3 7.8585 7.1477 21.7907 0.0000 -12.5636 0.0000
# 4 0.0000 0.0000 0.0000 26.7144 0.0000 -12.0440
# 5 -27.8147 -19.2448 -12.5636 0.0000 32.9976 0.0000
# 6 0.0000 0.0000 0.0000 -12.0440 0.0000 50.1655
#
#
#
# Elastic Compliance Matrix: (Units=1/GPa)
#
#
# Indices 1 2 3 4 5 6 
#
# 1 0.016071 -0.002760 0.002552 0.000000 0.012909 0.000000
# 2 -0.002760 0.013800 -0.000298 0.000000 0.005609 0.000000
# 3 0.002552 -0.000298 0.059205 0.000000 0.024520 0.000000
# 4 0.000000 0.000000 0.000000 0.041977 0.000000 0.010078
# 5 0.012909 0.005609 0.024520 0.000000 0.053793 0.000000
# 6 0.000000 0.000000 0.000000 0.010078 0.000000 0.022354
#
#
# Mechanical properties :
#
#
# Convention : Reuss Voigt Hill
#
# Bulk Modulus (GPa) = 11.35520 31.62991 21.49255
# Shear Modulus (GPa) = 21.04675 32.12441 26.58558
#
# Velocity S-wave (km/s) = 3.10307 3.83369 3.48757
# Velocity P-wave (km/s) = 4.24663 5.83671 5.10397
#
# Compressibility (1/GPa) = 0.08806542
#
# Stress axis : x y z
#
# Youngs Moduli (GPa) = 62.22443 72.46214 16.89033
#
# Poissons Ratio (x) = 0.20001 -0.04311
# Poissons Ratio (y) = 0.17175 0.00503
# Poissons Ratio (z) = -0.15881 0.02157
#
# Static dielectric constant tensor:
#      x y z
#    x 1.820780 0.000000 0.015080 
#    y 0.000000 1.815080 0.000000 
#    z 0.015080 0.000000 1.870990 
# 
# From -- ./inp_files/243805.got.cif
#   From: 2010.05.17/outbox.cif.g08.bks.cpg/sg15_122_cif.got.tgz:243805.got - 2010.06.03 18:47:42.
