data_PCOD9271743
_publ_section_title
;
Structure prediction by ZEFSAII (Michael W. Deem and Ramdas Pophale) SiO2 
 PCOD9271743
Probable space group: C 2/C
;
_chemical_formula_sum "Si O2"
_cell_formula_units_Z 56
_cell_length_a 33.397345
_cell_length_b 10.863124
_cell_length_c 8.725980
_cell_angle_alpha 90.000000
_cell_angle_beta 74.162366
_cell_angle_gamma 90.000000
_cell_volume 3045.604779
_symmetry_space_group_name_H-M "C 2/C"
_symmetry_group_IT_number 15
_symmetry_cell_setting 'monoclinic'
loop_
_space_group_symop_operation_xyz
x,y,z
-x,y,1/2-z
-x,-y,-z
x,-y,1/2+z
1/2+x,1/2+y,z
1/2-x,1/2+y,1/2-z
1/2-x,1/2-y,-z
1/2+x,1/2-y,1/2+z
loop_
_atom_site_type_symbol
_atom_site_label
_atom_site_fract_x
_atom_site_fract_y
_atom_site_fract_z
Si Si1 0.412710 0.411199 0.449530
Si Si2 0.030250 0.947058 0.838510
Si Si3 0.362306 0.173614 0.517568
Si Si4 0.703303 0.645037 0.297232
Si Si5 0.331363 0.576754 0.496054
Si Si6 0.338831 0.975517 0.302974
Si Si7 0.297776 0.834765 0.609939
O O1 0.432776 0.392702 0.596851
O O2 0.447283 0.451300 0.290916
O O3 0.391880 0.282041 0.433190
O O4 0.376572 0.516272 0.482322
O O5 0.000000 0.875741 0.750000
O O6 0.000000 0.000000 0.000000
O O7 0.317874 0.241472 0.591418
O O8 0.361148 0.065028 0.397958
O O9 0.369691 0.111341 0.674866
O O10 0.700899 0.527349 0.412018
O O11 0.749110 0.677765 0.193069
O O12 0.676198 0.606349 0.175568
O O13 0.321571 0.704297 0.593367
O O14 0.315282 0.065123 0.210352
O O15 0.307333 0.891154 0.432833
#
# Coordination Sequence:
#
# PCOD9271743 Si02
#       7
#     8   8   8   8   8   8   8
#     4  10  20  36  61  87 125 139 181 236 276 356
#     4   9  19  36  60  95 120 142 166 209 294 357
#     4  10  22  38  54  80 112 151 198 241 287 335
#     4  11  23  36  52  78 108 153 201 252 301 335
#     4  11  23  35  56  82 111 153 197 237 305 324
#     4  10  23  38  52  75 108 150 206 237 290 325
#     4  11  23  37  54  71 114 149 207 254 288 335
#
# _framework density 18.387150999999999
#
# number of rings (size 3 to 8) (size 9 to 14) (size 15 to 20)
#    0.000    1.714    1.429    3.000   10.000    0.571 
#    0.000    0.000    0.000    0.000    0.000   13.000 
#    0.000    0.000    0.000    0.000    0.000    0.000 
#
# Total GULP energy -156089.892630 kJ/mol
# GULP energy per Si atom -5574.639022 kJ/mol
# Density = 1.834530 g / cm^3
# Si number density = 18.387151 Si / 1000 Ang^3
#
#
#
# Elastic Constant Matrix: (Units=GPa)
#
#
# Indices 1 2 3 4 5 6 
#
# 1 65.2733 16.2841 16.8499 0.0000 -10.3258 0.0000
# 2 16.2841 105.3696 28.0442 0.0000 -16.6512 0.0000
# 3 16.8499 28.0442 79.8616 0.0000 -10.7308 0.0000
# 4 0.0000 0.0000 0.0000 27.4029 0.0000 8.4186
# 5 -10.3258 -16.6512 -10.7308 0.0000 23.0054 0.0000
# 6 0.0000 0.0000 0.0000 8.4186 0.0000 6.8522
#
#
#
# Elastic Compliance Matrix: (Units=1/GPa)
#
#
# Indices 1 2 3 4 5 6 
#
# 1 0.017137 -0.001083 -0.002461 0.000000 0.005760 0.000000
# 2 -0.001083 0.011455 -0.002929 0.000000 0.006439 0.000000
# 3 -0.002461 -0.002929 0.014548 0.000000 0.003561 0.000000
# 4 0.000000 0.000000 0.000000 0.058617 0.000000 -0.072016
# 5 0.005760 0.006439 0.003561 0.000000 0.052375 0.000000
# 6 0.000000 0.000000 0.000000 -0.072016 0.000000 0.234415
#
#
# Mechanical properties :
#
#
# Convention : Reuss Voigt Hill
#
# Bulk Modulus (GPa) = 33.12017 41.42900 37.27459
# Shear Modulus (GPa) = 12.14897 24.07388 18.11142
#
# Velocity S-wave (km/s) = 2.57326 3.62232 3.14188
# Velocity P-wave (km/s) = 5.18466 6.33051 5.78602
#
# Compressibility (1/GPa) = 0.03019308
#
# Stress axis : x y z
#
# Youngs Moduli (GPa) = 58.35337 87.29993 68.73803
#
# Poissons Ratio (x) = 0.09455 0.16920
# Poissons Ratio (y) = 0.06320 0.20132
# Poissons Ratio (z) = 0.14363 0.25568
#
# Static dielectric constant tensor:
#      x y z
#    x 1.678830 0.000000 0.029950 
#    y 0.000000 1.613810 0.000000 
#    z 0.029950 0.000000 1.667540 
# 
# From -- ./inp_files/69047.got.cif
#   From: 2010.05.17/outbox.cif.g08.bks.cpg/sg15_35_cif.got.tgz:69047.got - 2010.06.03 18:47:42.
