data_PCOD9271126
_publ_section_title
;
Structure prediction by ZEFSAII (Michael W. Deem and Ramdas Pophale) SiO2 
 PCOD9271126
Probable space group: C 2/C
;
_chemical_formula_sum "Si O2"
_cell_formula_units_Z 44
_cell_length_a 19.423044
_cell_length_b 22.891483
_cell_length_c 10.535389
_cell_angle_alpha 90.000000
_cell_angle_beta 154.174346
_cell_angle_gamma 90.000000
_cell_volume 2040.627507
_symmetry_space_group_name_H-M "C 2/C"
_symmetry_group_IT_number 15
_symmetry_cell_setting 'monoclinic'
loop_
_space_group_symop_operation_xyz
x,y,z
-x,y,1/2-z
-x,-y,-z
x,-y,1/2+z
1/2+x,1/2+y,z
1/2-x,1/2+y,1/2-z
1/2-x,1/2-y,-z
1/2+x,1/2-y,1/2+z
loop_
_atom_site_type_symbol
_atom_site_label
_atom_site_fract_x
_atom_site_fract_y
_atom_site_fract_z
Si Si1 0.859935 0.627350 0.420859
Si Si2 0.859110 0.945481 0.097099
Si Si3 0.139002 0.788085 0.721059
Si Si4 0.160536 0.136112 0.694958
Si Si5 0.500000 0.441626 0.750000
Si Si6 0.604408 0.204945 0.272351
O O1 0.737326 0.665087 0.302863
O O2 0.905818 0.667636 0.375657
O O3 0.789326 0.569070 0.238441
O O4 0.000000 0.614237 0.750000
O O5 0.852372 0.912097 0.216237
O O6 0.000000 0.916466 0.250000
O O7 0.913112 0.012495 0.199416
O O8 0.990737 0.820351 0.544344
O O9 0.052384 0.743315 0.482398
O O10 0.250000 0.750000 0.000000
O O11 0.135922 0.100174 0.527205
O O12 0.328091 0.164830 0.003175
O O13 0.750000 0.250000 0.500000
#
# Coordination Sequence:
#
# PCOD9271126 Si02
#       6
#     8   8   8   8   4   8
#     4  11  20  35  57  81 111 153 199 230 277 347
#     4   9  19  35  60  80 102 152 192 238 278 342
#     4  11  20  34  56  85 115 150 187 227 282 342
#     4  10  20  36  57  86 114 144 195 232 285 346
#     4  10  20  36  62  84 112 144 190 246 292 328
#     4   9  21  34  53  83 115 147 184 230 281 339
#
# _framework density 21.561995
#
# number of rings (size 3 to 8) (size 9 to 14) (size 15 to 20)
#    0.545    1.455    3.636    0.545    0.000    2.909 
#    0.000    0.000    4.000    3.273    0.000    0.000 
#    0.000    0.000    0.000    0.000    0.000    0.000 
#
# Total GULP energy -122614.230462 kJ/mol
# GULP energy per Si atom -5573.374112 kJ/mol
# Density = 2.151292 g / cm^3
# Si number density = 21.561995 Si / 1000 Ang^3
#
#
#
# Elastic Constant Matrix: (Units=GPa)
#
#
# Indices 1 2 3 4 5 6 
#
# 1 16.0314 3.3424 1.4348 0.0000 1.2815 0.0000
# 2 3.3424 78.1554 47.3832 0.0000 -9.1526 0.0000
# 3 1.4348 47.3832 165.9348 0.0000 -18.5410 0.0000
# 4 0.0000 0.0000 0.0000 -21.0679 0.0000 53.2151
# 5 1.2815 -9.1526 -18.5410 0.0000 26.6113 0.0000
# 6 0.0000 0.0000 0.0000 53.2151 0.0000 -63.4318
#
#
#
# Elastic Compliance Matrix: (Units=1/GPa)
#
#
# Indices 1 2 3 4 5 6 
#
# 1 0.063378 -0.003128 -0.000126 0.000000 -0.004216 0.000000
# 2 -0.003128 0.015775 -0.004180 0.000000 0.002664 0.000000
# 3 -0.000126 -0.004180 0.007657 0.000000 0.003904 0.000000
# 4 0.000000 0.000000 0.000000 0.042416 0.000000 0.035584
# 5 -0.004216 0.002664 0.003904 0.000000 0.041417 0.000000
# 6 0.000000 0.000000 0.000000 0.035584 0.000000 0.014088
#
#
# Mechanical properties :
#
#
# Convention : Reuss Voigt Hill
#
# Bulk Modulus (GPa) = 13.89987 40.49361 27.19674
# Shear Modulus (GPa) = 22.36346 2.28639 12.32493
#
# Velocity S-wave (km/s) = 3.22401 1.03086 2.39342
# Velocity P-wave (km/s) = 4.50771 4.49864 4.50318
#
# Compressibility (1/GPa) = 0.07194311
#
# Stress axis : x y z
#
# Youngs Moduli (GPa) = 15.77833 63.39191 130.59433
#
# Poissons Ratio (x) = 0.19828 0.01644
# Poissons Ratio (y) = 0.04935 0.54587
# Poissons Ratio (z) = 0.00199 0.26497
#
# Static dielectric constant tensor:
#      x y z
#    x 2.485100 0.000000 -0.435260 
#    y 0.000000 1.790520 0.000000 
#    z -0.435260 0.000000 2.104980 
# 
# From -- ./inp_files/79673.got.cif
#   From: 2010.05.17/outbox.cif.g08.bks.cpg/sg15_40_cif.got.tgz:79673.got - 2010.06.03 18:47:42.
