data_PCOD9271421
_publ_section_title
;
Structure prediction by ZEFSAII (Michael W. Deem and Ramdas Pophale) SiO2 
 PCOD9271421
Probable space group: C 2/C
;
_chemical_formula_sum "Si O2"
_cell_formula_units_Z 56
_cell_length_a 23.620662
_cell_length_b 20.269259
_cell_length_c 17.888967
_cell_angle_alpha 90.000000
_cell_angle_beta 19.084542
_cell_angle_gamma 90.000000
_cell_volume 2800.359181
_symmetry_space_group_name_H-M "C 2/C"
_symmetry_group_IT_number 15
_symmetry_cell_setting 'monoclinic'
loop_
_space_group_symop_operation_xyz
x,y,z
-x,y,1/2-z
-x,-y,-z
x,-y,1/2+z
1/2+x,1/2+y,z
1/2-x,1/2+y,1/2-z
1/2-x,1/2-y,-z
1/2+x,1/2-y,1/2+z
loop_
_atom_site_type_symbol
_atom_site_label
_atom_site_fract_x
_atom_site_fract_y
_atom_site_fract_z
Si Si1 0.180569 0.796662 0.481669
Si Si2 0.394387 0.801845 0.680804
Si Si3 0.435035 0.091073 0.626183
Si Si4 0.442507 0.591065 0.618729
Si Si5 0.739865 0.000002 0.770272
Si Si6 0.044783 0.801853 0.880038
Si Si7 0.494910 0.703336 0.667342
O O1 0.321664 0.855479 0.313277
O O2 0.277901 0.727135 0.375632
O O3 0.000000 0.805564 0.750000
O O4 0.112027 0.798399 0.482254
O O5 0.472620 0.871245 0.558870
O O6 0.503163 0.749998 0.496842
O O7 0.414965 0.772858 0.738584
O O8 0.199376 0.798390 0.894906
O O9 0.313089 0.038447 0.738437
O O10 0.586887 0.051944 0.478995
O O11 0.281326 0.551940 0.784569
O O12 0.583831 0.538434 0.467709
O O13 0.535600 0.628750 0.432931
O O14 0.408424 0.644512 0.726536
O O15 0.500000 0.694437 0.750000
#
# Coordination Sequence:
#
# PCOD9271421 Si02
#       7
#     8   8   8   8   8   8   8
#     4  11  22  36  57  91 123 154 186 253 318 367
#     4  10  20  36  59  86 115 153 196 245 299 368
#     4  10  20  37  62  85 115 153 210 247 289 362
#     4  10  20  37  62  85 115 153 210 247 289 362
#     4  10  20  36  63  85 106 158 212 248 278 344
#     4  10  20  36  59  86 115 153 196 245 299 368
#     4  11  22  36  57  91 123 154 186 253 318 367
#
# _framework density 19.997433999999998
#
# number of rings (size 3 to 8) (size 9 to 14) (size 15 to 20)
#    0.000    1.714    2.857    3.429    4.000    0.000 
#    0.000    0.714    0.000    1.714    0.000    0.000 
#    0.000    0.000    0.000    0.000    0.000    0.000 
#
# Total GULP energy -156053.511089 kJ/mol
# GULP energy per Si atom -5573.339682 kJ/mol
# Density = 1.995192 g / cm^3
# Si number density = 19.997434 Si / 1000 Ang^3
#
#
#
# Elastic Constant Matrix: (Units=GPa)
#
#
# Indices 1 2 3 4 5 6 
#
# 1 85.9258 37.6324 26.0633 0.0004 -12.8202 -0.0017
# 2 37.6324 97.0993 34.2266 -0.0006 -9.2505 -0.0014
# 3 26.0633 34.2266 76.7560 -0.0071 -12.1047 -0.0047
# 4 0.0004 -0.0006 -0.0071 31.9512 0.0008 -19.6237
# 5 -12.8202 -9.2505 -12.1047 0.0008 29.4763 0.0029
# 6 -0.0017 -0.0014 -0.0047 -19.6237 0.0029 39.1339
#
#
#
# Elastic Compliance Matrix: (Units=1/GPa)
#
#
# Indices 1 2 3 4 5 6 
#
# 1 0.014978 -0.004568 -0.002404 -0.000001 0.004094 -0.000001
# 2 -0.004568 0.013693 -0.004481 -0.000001 0.000471 -0.000001
# 3 -0.002404 -0.004481 0.016526 0.000006 0.004335 0.000005
# 4 -0.000001 -0.000001 0.000006 0.045227 -0.000002 0.022679
# 5 0.004094 0.000471 0.004335 -0.000002 0.037634 -0.000003
# 6 -0.000001 -0.000001 0.000005 0.022679 -0.000003 0.036926
#
#
# Mechanical properties :
#
#
# Convention : Reuss Voigt Hill
#
# Bulk Modulus (GPa) = 44.85616 50.62508 47.74062
# Shear Modulus (GPa) = 25.59901 30.90285 28.25093
#
# Velocity S-wave (km/s) = 3.58175 3.93535 3.76270
# Velocity P-wave (km/s) = 6.29165 6.78381 6.54236
#
# Compressibility (1/GPa) = 0.02229348
#
# Stress axis : x y z
#
# Youngs Moduli (GPa) = 66.76290 73.02819 60.51016
#
# Poissons Ratio (x) = 0.33358 0.14544
# Poissons Ratio (y) = 0.30496 0.27113
# Poissons Ratio (z) = 0.16047 0.32722
#
# Static dielectric constant tensor:
#      x y z
#    x 1.750820 0.000000 0.035430 
#    y 0.000000 1.757220 0.000000 
#    z 0.035430 0.000000 1.763820 
# 
# From -- ./inp_files/220174.got.cif
#   From: 2010.05.17/outbox.cif.g08.bks.cpg/sg15_111_cif.got.tgz:220174.got - 2010.06.03 18:47:42.
