data_PCOD9271005
_publ_section_title
;
Structure prediction by ZEFSAII (Michael W. Deem and Ramdas Pophale) SiO2 
 PCOD9271005
Probable space group: C 2/C
;
_chemical_formula_sum "Si O2"
_cell_formula_units_Z 52
_cell_length_a 17.178856
_cell_length_b 9.807192
_cell_length_c 21.117066
_cell_angle_alpha 90.000000
_cell_angle_beta 140.870048
_cell_angle_gamma 90.000000
_cell_volume 2245.214716
_symmetry_space_group_name_H-M "C 2/C"
_symmetry_group_IT_number 15
_symmetry_cell_setting 'monoclinic'
loop_
_space_group_symop_operation_xyz
x,y,z
-x,y,1/2-z
-x,-y,-z
x,-y,1/2+z
1/2+x,1/2+y,z
1/2-x,1/2+y,1/2-z
1/2-x,1/2-y,-z
1/2+x,1/2-y,1/2+z
loop_
_atom_site_type_symbol
_atom_site_label
_atom_site_fract_x
_atom_site_fract_y
_atom_site_fract_z
Si Si1 0.667240 0.641279 0.910522
Si Si2 0.633423 0.635508 0.348136
Si Si3 0.519202 0.669448 0.939709
Si Si4 0.500000 0.166739 0.250000
Si Si5 0.537001 0.250226 0.665532
Si Si6 0.946019 0.449022 0.848106
Si Si7 0.842179 0.946519 0.856864
O O1 0.716521 0.494384 0.918232
O O2 0.559083 0.621945 0.894620
O O3 0.615612 0.731300 0.820587
O O4 0.750000 0.750000 0.000000
O O5 0.500000 0.562528 0.250000
O O6 0.595886 0.724676 0.385267
O O7 0.635484 0.731310 0.286921
O O8 0.504250 0.832550 0.928642
O O9 0.391185 0.600600 0.880471
O O10 0.621937 0.611807 0.052062
O O11 0.497331 0.076972 0.185963
O O12 0.573455 0.364137 0.639041
O O13 0.536988 0.107840 0.629525
O O14 0.799310 0.427853 0.749661
#
# Coordination Sequence:
#
# PCOD9271005 Si02
#       7
#     8   8   8   4   8   8   8
#     4  11  19  35  63  94 121 166 207 253 317 376
#     4   8  17  36  63  85 118 163 199 260 310 359
#     4  10  23  39  59  93 132 160 210 267 309 380
#     4  10  20  36  56  84 130 146 208 272 286 370
#     4   9  19  37  62  85 121 160 204 262 308 370
#     4  11  22  37  64  95 117 169 214 258 325 374
#     4  11  21  40  63  87 129 172 204 258 325 380
#
# _framework density 23.160368999999999
#
# number of rings (size 3 to 8) (size 9 to 14) (size 15 to 20)
#    0.923    0.923    2.308    2.769    2.154    0.615 
#    2.769    0.000   13.538    5.538    0.000    0.000 
#    0.000    0.000    0.000    0.000    0.000    0.000 
#
# Total GULP energy -144872.968860 kJ/mol
# GULP energy per Si atom -5572.037264 kJ/mol
# Density = 2.310765 g / cm^3
# Si number density = 23.160369 Si / 1000 Ang^3
#
#
#
# Elastic Constant Matrix: (Units=GPa)
#
#
# Indices 1 2 3 4 5 6 
#
# 1 40.5030 7.6395 2.7750 0.0000 -5.7226 0.0000
# 2 7.6395 136.4507 8.2324 0.0000 3.5049 0.0000
# 3 2.7750 8.2324 26.8364 0.0000 -0.7764 0.0000
# 4 0.0000 0.0000 0.0000 8.0574 0.0000 -5.7586
# 5 -5.7226 3.5049 -0.7764 0.0000 22.7350 0.0000
# 6 0.0000 0.0000 0.0000 -5.7586 0.0000 22.3144
#
#
#
# Elastic Compliance Matrix: (Units=1/GPa)
#
#
# Indices 1 2 3 4 5 6 
#
# 1 0.026064 -0.001509 -0.002038 0.000000 0.006723 0.000000
# 2 -0.001509 0.007589 -0.002219 0.000000 -0.001626 0.000000
# 3 -0.002038 -0.002219 0.038187 0.000000 0.001133 0.000000
# 4 0.000000 0.000000 0.000000 0.152176 0.000000 0.039272
# 5 0.006723 -0.001626 0.001133 0.000000 0.045967 0.000000
# 6 0.000000 0.000000 0.000000 0.039272 0.000000 0.054949
#
#
# Mechanical properties :
#
#
# Convention : Reuss Voigt Hill
#
# Bulk Modulus (GPa) = 16.58150 26.78712 21.68431
# Shear Modulus (GPa) = 14.02267 22.96424 18.49346
#
# Velocity S-wave (km/s) = 2.46328 3.15228 2.82883
# Velocity P-wave (km/s) = 3.90708 4.98399 4.47803
#
# Compressibility (1/GPa) = 0.06030816
#
# Stress axis : x y z
#
# Youngs Moduli (GPa) = 38.36755 131.77375 26.18693
#
# Poissons Ratio (x) = 0.19885 0.05336
# Poissons Ratio (y) = 0.05790 0.05811
# Poissons Ratio (z) = 0.07818 0.29240
#
# Static dielectric constant tensor:
#      x y z
#    x 1.889480 0.000000 0.007610 
#    y 0.000000 1.889360 0.000000 
#    z 0.007610 0.000000 1.975570 
# 
# From -- ./inp_files/279611.got.cif
#   From: 2010.05.17/outbox.cif.g08.bks.cpg/sg15_140_cif.got.tgz:279611.got - 2010.06.03 18:47:42.
