data_PCOD9271912
_publ_section_title
;
Structure prediction by ZEFSAII (Michael W. Deem and Ramdas Pophale) SiO2 
 PCOD9271912
Probable space group: C 2/C
;
_chemical_formula_sum "Si O2"
_cell_formula_units_Z 52
_cell_length_a 30.311035
_cell_length_b 11.165493
_cell_length_c 10.539107
_cell_angle_alpha 90.000000
_cell_angle_beta 41.251773
_cell_angle_gamma 90.000000
_cell_volume 2351.857810
_symmetry_space_group_name_H-M "C 2/C"
_symmetry_group_IT_number 15
_symmetry_cell_setting 'monoclinic'
loop_
_space_group_symop_operation_xyz
x,y,z
-x,y,1/2-z
-x,-y,-z
x,-y,1/2+z
1/2+x,1/2+y,z
1/2-x,1/2+y,1/2-z
1/2-x,1/2-y,-z
1/2+x,1/2-y,1/2+z
loop_
_atom_site_type_symbol
_atom_site_label
_atom_site_fract_x
_atom_site_fract_y
_atom_site_fract_z
Si Si1 0.221191 0.378881 0.924056
Si Si2 0.352325 0.328082 0.767783
Si Si3 0.070511 0.030393 0.776443
Si Si4 0.431598 0.223579 0.115751
Si Si5 0.667740 0.040927 0.265714
Si Si6 0.000000 0.877406 0.750000
Si Si7 0.956875 0.361044 0.967874
O O1 0.297605 0.337749 0.775536
O O2 0.201575 0.432596 0.829284
O O3 0.177077 0.262063 0.059988
O O4 0.209181 0.473589 0.065608
O O5 0.371229 0.457491 0.780315
O O6 0.419392 0.263647 0.576602
O O7 0.058584 0.965158 0.669890
O O8 0.080446 0.171479 0.755968
O O9 0.000000 0.000000 0.000000
O O10 0.363144 0.162839 0.222707
O O11 0.486812 0.129797 0.045111
O O12 0.467035 0.291459 0.923882
O O13 0.602226 0.956415 0.421900
O O14 0.000000 0.359202 0.750000
#
# Coordination Sequence:
#
# PCOD9271912 Si02
#       7
#     8   8   8   8   8   4   8
#     4  10  24  47  70  94 134 190 232 266 329 401
#     4  10  21  47  68  90 136 186 223 272 332 411
#     4  10  20  38  58  97 124 165 219 271 333 389
#     4  11  23  37  64 100 132 172 212 280 346 398
#     4  11  24  44  66 101 136 178 232 271 332 410
#     4  10  20  36  62  90 138 166 218 256 346 408
#     4  11  23  39  67 102 136 166 219 289 343 389
#
# _framework density 22.110178999999999
#
# number of rings (size 3 to 8) (size 9 to 14) (size 15 to 20)
#    0.000    1.538    3.077    2.308    4.308    0.000 
#   16.615    0.769    0.000    0.000    0.000    0.000 
#    0.000    0.000    0.000    0.000    0.000    0.000 
#
# Total GULP energy -145215.579392 kJ/mol
# GULP energy per Si atom -5585.214592 kJ/mol
# Density = 2.205985 g / cm^3
# Si number density = 22.110179 Si / 1000 Ang^3
#
#
#
# Elastic Constant Matrix: (Units=GPa)
#
#
# Indices 1 2 3 4 5 6 
#
# 1 129.1025 29.5331 18.6582 0.0000 11.9280 0.0000
# 2 29.5331 94.7966 -3.4964 0.0000 7.1885 0.0000
# 3 18.6582 -3.4964 34.7740 0.0000 3.2905 0.0000
# 4 0.0000 0.0000 0.0000 -14.0792 0.0000 -7.8718
# 5 11.9280 7.1885 3.2905 0.0000 23.4902 0.0000
# 6 0.0000 0.0000 0.0000 -7.8718 0.0000 29.4311
#
#
#
# Elastic Compliance Matrix: (Units=1/GPa)
#
#
# Indices 1 2 3 4 5 6 
#
# 1 0.009430 -0.002881 -0.005047 0.000000 -0.003200 0.000000
# 2 -0.002881 0.011749 0.002968 0.000000 -0.002548 0.000000
# 3 -0.005047 0.002968 0.032031 0.000000 -0.002833 0.000000
# 4 0.000000 0.000000 0.000000 -0.061787 0.000000 -0.016526
# 5 -0.003200 -0.002548 -0.002833 0.000000 0.045372 0.000000
# 6 0.000000 0.000000 0.000000 -0.016526 0.000000 0.029558
#
#
# Mechanical properties :
#
#
# Convention : Reuss Voigt Hill
#
# Bulk Modulus (GPa) = 23.09910 38.67364 30.88637
# Shear Modulus (GPa) = 55.12500 22.03363 38.57931
#
# Velocity S-wave (km/s) = 4.99861 3.16022 4.18169
# Velocity P-wave (km/s) = 6.61700 5.55386 6.10860
#
# Compressibility (1/GPa) = 0.04329173
#
# Stress axis : x y z
#
# Youngs Moduli (GPa) = 106.04603 85.11165 31.21936
#
# Poissons Ratio (x) = 0.24523 0.15755
# Poissons Ratio (y) = 0.30555 -0.09267
# Poissons Ratio (z) = 0.53517 -0.25265
#
# Static dielectric constant tensor:
#      x y z
#    x 1.867500 0.000000 0.052600 
#    y 0.000000 1.829420 0.000000 
#    z 0.052600 0.000000 1.830740 
# 
# From -- ./inp_files/126245.got.cif
#   From: 2010.05.17/outbox.cif.g08.bks.cpg/sg15_64_cif.got.tgz:126245.got - 2010.06.03 18:47:42.
