data_PCOD9271629
_publ_section_title
;
Structure prediction by ZEFSAII (Michael W. Deem and Ramdas Pophale) SiO2 
 PCOD9271629
Probable space group: C 2/C
;
_chemical_formula_sum "Si O2"
_cell_formula_units_Z 64
_cell_length_a 16.040344
_cell_length_b 20.681166
_cell_length_c 21.079811
_cell_angle_alpha 90.000000
_cell_angle_beta 22.014276
_cell_angle_gamma 90.000000
_cell_volume 2621.190359
_symmetry_space_group_name_H-M "C 2/C"
_symmetry_group_IT_number 15
_symmetry_cell_setting 'monoclinic'
loop_
_space_group_symop_operation_xyz
x,y,z
-x,y,1/2-z
-x,-y,-z
x,-y,1/2+z
1/2+x,1/2+y,z
1/2-x,1/2+y,1/2-z
1/2-x,1/2-y,-z
1/2+x,1/2-y,1/2+z
loop_
_atom_site_type_symbol
_atom_site_label
_atom_site_fract_x
_atom_site_fract_y
_atom_site_fract_z
Si Si1 0.421645 0.080567 0.505627
Si Si2 0.373796 0.034977 0.946687
Si Si3 0.297911 0.585946 0.700922
Si Si4 0.058440 0.714471 0.883754
Si Si5 0.788006 0.818607 0.440081
Si Si6 0.181434 0.172877 0.074219
Si Si7 0.710225 0.661062 0.236815
Si Si8 0.757265 0.066946 0.057746
O O1 0.310032 0.072399 0.652925
O O2 0.369417 0.145168 0.500516
O O3 0.686621 0.090955 0.323551
O O4 0.344931 0.019954 0.519447
O O5 0.637651 0.051807 0.762452
O O6 0.271366 0.001881 0.956839
O O7 0.259717 0.102178 0.043760
O O8 0.248798 0.662645 0.733302
O O9 0.556229 0.567470 0.519520
O O10 0.173416 0.783039 0.814959
O O11 0.903644 0.714605 0.928894
O O12 0.888605 0.691010 0.058950
O O13 0.750000 0.750000 0.500000
O O14 0.838760 0.875687 0.454044
O O15 0.000000 0.804771 0.250000
O O16 0.000000 0.200581 0.250000
O O17 0.041008 0.155243 0.111632
O O18 0.500000 0.086004 0.250000
#
# Coordination Sequence:
#
# PCOD9271629 Si02
#       8
#     8   8   8   8   8   8   8   8
#     4  10  22  37  60  97 122 159 216 253 316 381
#     4  10  23  38  63  95 121 166 215 263 325 379
#     4  10  21  41  64  89 130 161 211 270 316 385
#     4   9  20  38  57  90 121 157 200 251 309 376
#     4  11  23  41  64  90 124 166 213 261 312 378
#     4   9  19  35  60  90 120 155 202 256 312 370
#     4  10  20  36  60  89 122 155 201 252 310 375
#     4  11  25  43  62  91 128 169 213 264 326 388
#
# _framework density 24.416388000000001
#
# number of rings (size 3 to 8) (size 9 to 14) (size 15 to 20)
#    0.000    2.000    1.250    1.875    5.250    0.500 
#    4.500    2.500    0.000    0.000    0.000    0.000 
#    0.000    0.000    0.000    0.000    0.000    0.000 
#
# Total GULP energy -178376.136979 kJ/mol
# GULP energy per Si atom -5574.254281 kJ/mol
# Density = 2.436082 g / cm^3
# Si number density = 24.416388 Si / 1000 Ang^3
#
#
#
# Elastic Constant Matrix: (Units=GPa)
#
#
# Indices 1 2 3 4 5 6 
#
# 1 32.4699 2.8147 14.2492 -0.0037 -22.3950 -0.0270
# 2 2.8147 82.7109 28.5686 -0.0096 -0.3415 -0.0776
# 3 14.2492 28.5686 94.6256 -0.2724 -21.5147 -0.0022
# 4 -0.0037 -0.0096 -0.2724 23.7726 -0.0311 4.1998
# 5 -22.3950 -0.3415 -21.5147 -0.0311 40.8144 0.0148
# 6 -0.0270 -0.0776 -0.0022 4.1998 0.0148 29.4707
#
#
#
# Elastic Compliance Matrix: (Units=1/GPa)
#
#
# Indices 1 2 3 4 5 6 
#
# 1 0.049836 -0.001224 -0.001045 0.000026 0.026784 0.000025
# 2 -0.001224 0.013723 -0.004642 -0.000060 -0.003004 0.000045
# 3 -0.001045 -0.004642 0.013621 0.000170 0.006568 -0.000040
# 4 0.000026 -0.000060 0.000170 0.043154 0.000138 -0.006150
# 5 0.026784 -0.003004 0.006568 0.000138 0.042635 -0.000024
# 6 0.000025 0.000045 -0.000040 -0.006150 -0.000024 0.034809
#
#
# Mechanical properties :
#
#
# Convention : Reuss Voigt Hill
#
# Bulk Modulus (GPa) = 15.78361 33.45238 24.61799
# Shear Modulus (GPa) = 21.48520 29.75646 25.62083
#
# Velocity S-wave (km/s) = 2.96961 3.49479 3.24285
# Velocity P-wave (km/s) = 4.27042 5.47862 4.91181
#
# Compressibility (1/GPa) = 0.06335687
#
# Stress axis : x y z
#
# Youngs Moduli (GPa) = 20.06581 72.87077 73.41842
#
# Poissons Ratio (x) = 0.08922 0.07673
# Poissons Ratio (y) = 0.02457 0.34080
# Poissons Ratio (z) = 0.02097 0.33826
#
# Static dielectric constant tensor:
#      x y z
#    x 2.122890 0.000170 -0.083540 
#    y 0.000170 2.029300 0.000110 
#    z -0.083540 0.000110 1.986870 
# 
# From -- ./inp_files/278098.got.cif
#   From: 2010.05.17/outbox.cif.g08.bks.cpg/sg15_140_cif.got.tgz:278098.got - 2010.06.03 18:47:42.
