data_PCOD9271693
_publ_section_title
;
Structure prediction by ZEFSAII (Michael W. Deem and Ramdas Pophale) SiO2 
 PCOD9271693
Probable space group: C 2/C
;
_chemical_formula_sum "Si O2"
_cell_formula_units_Z 44
_cell_length_a 22.349176
_cell_length_b 6.847678
_cell_length_c 13.576312
_cell_angle_alpha 90.000000
_cell_angle_beta 52.942774
_cell_angle_gamma 90.000000
_cell_volume 1658.089873
_symmetry_space_group_name_H-M "C 2/C"
_symmetry_group_IT_number 15
_symmetry_cell_setting 'monoclinic'
loop_
_space_group_symop_operation_xyz
x,y,z
-x,y,1/2-z
-x,-y,-z
x,-y,1/2+z
1/2+x,1/2+y,z
1/2-x,1/2+y,1/2-z
1/2-x,1/2-y,-z
1/2+x,1/2-y,1/2+z
loop_
_atom_site_type_symbol
_atom_site_label
_atom_site_fract_x
_atom_site_fract_y
_atom_site_fract_z
Si Si1 0.331992 0.759253 0.362956
Si Si2 0.000000 0.241377 0.250000
Si Si3 0.485940 0.393465 0.412309
Si Si4 0.332966 0.207010 0.526379
Si Si5 0.855887 0.191795 0.788591
Si Si6 0.747427 0.551583 0.770010
O O1 0.250000 0.750000 0.500000
O O2 0.416644 0.837823 0.310845
O O3 0.350964 0.532560 0.327332
O O4 0.308165 0.851674 0.282028
O O5 0.023757 0.086004 0.143387
O O6 0.500000 0.500000 0.500000
O O7 0.417713 0.247126 0.469210
O O8 0.557747 0.268817 0.310383
O O9 0.324688 0.196078 0.416073
O O10 0.294221 0.396042 0.618640
O O11 0.295778 0.025762 0.620359
O O12 0.817730 0.183659 0.718133
#
# Coordination Sequence:
#
# PCOD9271693 Si02
#       6
#     8   4   8   8   8   8
#     4  11  20  37  64  92 124 163 212 264 315 374
#     4  10  20  36  60  94 120 164 214 268 302 366
#     4  11  18  35  62  91 121 154 219 269 305 350
#     4  12  22  39  61  96 126 165 211 262 320 377
#     4  11  22  38  63  95 121 165 213 272 305 373
#     4  12  23  38  61  93 128 165 208 257 319 383
#
# _framework density 26.536560000000001
#
# number of rings (size 3 to 8) (size 9 to 14) (size 15 to 20)
#    0.000    0.727    9.091    1.636    0.000    0.000 
#    0.000    0.000    0.000    4.364    0.000    2.545 
#    0.000    0.000    0.000    0.000    0.000    0.000 
#
# Total GULP energy -122579.008578 kJ/mol
# GULP energy per Si atom -5571.773117 kJ/mol
# Density = 2.647616 g / cm^3
# Si number density = 26.536560 Si / 1000 Ang^3
#
#
#
# Elastic Constant Matrix: (Units=GPa)
#
#
# Indices 1 2 3 4 5 6 
#
# 1 236.2556 40.1145 97.7666 0.0000 -17.8484 0.0000
# 2 40.1145 50.0460 36.9800 0.0001 4.2010 -0.0001
# 3 97.7666 36.9800 144.7259 0.0000 -6.5746 0.0000
# 4 0.0000 0.0001 0.0000 41.0504 0.0000 2.2728
# 5 -17.8484 4.2010 -6.5746 0.0000 90.6874 0.0000
# 6 0.0000 -0.0001 0.0000 2.2728 0.0000 49.9508
#
#
#
# Elastic Compliance Matrix: (Units=1/GPa)
#
#
# Indices 1 2 3 4 5 6 
#
# 1 0.006178 -0.002459 -0.003497 0.000000 0.001076 0.000000
# 2 -0.002459 0.025846 -0.005036 0.000000 -0.002046 0.000000
# 3 -0.003497 -0.005036 0.010572 0.000000 0.000312 0.000000
# 4 0.000000 0.000000 0.000000 0.024422 0.000000 -0.001111
# 5 0.001076 -0.002046 0.000312 0.000000 0.011356 0.000000
# 6 0.000000 0.000000 0.000000 -0.001111 0.000000 0.020070
#
#
# Mechanical properties :
#
#
# Convention : Reuss Voigt Hill
#
# Bulk Modulus (GPa) = 48.51124 86.74997 67.63060
# Shear Modulus (GPa) = 39.27771 53.41548 46.34659
#
# Velocity S-wave (km/s) = 3.85143 4.49140 4.18367
# Velocity P-wave (km/s) = 6.17240 7.72390 6.99132
#
# Compressibility (1/GPa) = 0.02061378
#
# Stress axis : x y z
#
# Youngs Moduli (GPa) = 161.85226 38.69141 94.58515
#
# Poissons Ratio (x) = 0.09515 0.33072
# Poissons Ratio (y) = 0.39801 0.47631
# Poissons Ratio (z) = 0.56592 0.19484
#
# Static dielectric constant tensor:
#      x y z
#    x 2.064710 0.000000 -0.114010 
#    y 0.000000 2.238690 0.000000 
#    z -0.114010 0.000000 2.049510 
# 
# From -- ./inp_files/171702.got.cif
#   From: 2010.05.17/outbox.cif.g08.bks.cpg/sg15_86_cif.got.tgz:171702.got - 2010.06.03 18:47:42.
