data_PCOD9271084
_publ_section_title
;
Structure prediction by ZEFSAII (Michael W. Deem and Ramdas Pophale) SiO2 
 PCOD9271084
Probable space group: C 2/C
;
_chemical_formula_sum "Si O2"
_cell_formula_units_Z 64
_cell_length_a 28.292172
_cell_length_b 18.697968
_cell_length_c 20.993984
_cell_angle_alpha 90.000000
_cell_angle_beta 18.146394
_cell_angle_gamma 90.000000
_cell_volume 3458.902363
_symmetry_space_group_name_H-M "C 2/C"
_symmetry_group_IT_number 15
_symmetry_cell_setting 'monoclinic'
loop_
_space_group_symop_operation_xyz
x,y,z
-x,y,1/2-z
-x,-y,-z
x,-y,1/2+z
1/2+x,1/2+y,z
1/2-x,1/2+y,1/2-z
1/2-x,1/2-y,-z
1/2+x,1/2-y,1/2+z
loop_
_atom_site_type_symbol
_atom_site_label
_atom_site_fract_x
_atom_site_fract_y
_atom_site_fract_z
Si Si1 0.967624 0.154959 0.172848
Si Si2 0.831132 0.173389 0.215995
Si Si3 0.100600 0.007096 0.179535
Si Si4 0.397320 0.067025 0.757817
Si Si5 0.169572 0.337736 0.283966
Si Si6 0.058405 0.963242 0.991516
Si Si7 0.387074 0.024197 0.587555
Si Si8 0.013500 0.700261 0.803361
O O1 0.898189 0.137695 0.193734
O O2 0.934591 0.091471 0.263513
O O3 0.905864 0.234648 0.264707
O O4 0.148950 0.164210 0.940621
O O5 0.886734 0.256078 0.140908
O O6 0.648823 0.180679 0.457012
O O7 0.888343 0.118527 0.089169
O O8 0.000000 0.979466 0.250000
O O9 0.270352 0.009210 0.935833
O O10 0.061454 0.970740 0.297139
O O11 0.364866 0.118964 0.737926
O O12 0.402108 0.125114 0.807414
O O13 0.550055 0.022267 0.551197
O O14 0.105271 0.390092 0.420998
O O15 0.210784 0.003903 0.820884
O O16 0.000000 0.000000 0.000000
O O17 0.500000 0.000000 0.500000
O O18 0.000000 0.729324 0.750000
#
# Coordination Sequence:
#
# PCOD9271084 Si02
#       8
#     8   8   8   8   8   8   8   8
#     4  11  20  35  53  81 120 153 189 224 293 356
#     4  11  22  36  56  84 116 160 189 234 295 355
#     4  12  22  36  58  86 116 159 198 240 291 354
#     4  11  21  35  55  81 114 148 198 235 290 344
#     4  10  20  36  57  82 112 150 197 236 290 347
#     4  12  23  40  59  85 123 158 198 242 296 355
#     4  10  20  38  58  82 112 157 198 248 284 346
#     4  11  23  32  50  82 121 154 186 230 284 362
#
# _framework density 18.502980000000001
#
# number of rings (size 3 to 8) (size 9 to 14) (size 15 to 20)
#    0.000    1.000    6.250    1.875    1.750    1.000 
#    0.000    0.000    0.000    0.750    0.000    0.875 
#    0.000    0.000    0.000    0.000    0.000    0.000 
#
# Total GULP energy -178292.963482 kJ/mol
# GULP energy per Si atom -5571.655109 kJ/mol
# Density = 1.846087 g / cm^3
# Si number density = 18.502980 Si / 1000 Ang^3
#
#
#
# Elastic Constant Matrix: (Units=GPa)
#
#
# Indices 1 2 3 4 5 6 
#
# 1 50.8067 15.0830 -4.9960 -0.0004 3.6832 0.0001
# 2 15.0830 92.1598 25.3185 0.0004 18.8971 -0.0014
# 3 -4.9960 25.3185 39.8810 -0.0022 3.8927 0.0015
# 4 -0.0004 0.0004 -0.0022 7.5153 -0.0004 4.0163
# 5 3.6832 18.8971 3.8927 -0.0004 26.6935 0.0000
# 6 0.0001 -0.0014 0.0015 4.0163 0.0000 25.9195
#
#
#
# Elastic Compliance Matrix: (Units=1/GPa)
#
#
# Indices 1 2 3 4 5 6 
#
# 1 0.021835 -0.005191 0.006052 0.000004 -0.000220 -0.000001
# 2 -0.005191 0.016424 -0.010157 -0.000006 -0.009430 0.000002
# 3 0.006052 -0.010157 0.032118 0.000013 0.001672 -0.000004
# 4 0.000004 -0.000006 0.000013 0.145076 0.000004 -0.022480
# 5 -0.000220 -0.009430 0.001672 0.000004 0.043925 -0.000001
# 6 -0.000001 0.000002 -0.000004 -0.022480 -0.000001 0.042064
#
#
# Mechanical properties :
#
#
# Convention : Reuss Voigt Hill
#
# Bulk Modulus (GPa) = 19.31043 28.18429 23.74736
# Shear Modulus (GPa) = 14.82387 21.85512 18.33950
#
# Velocity S-wave (km/s) = 2.83355 3.44054 3.15169
# Velocity P-wave (km/s) = 4.60048 5.57211 5.10944
#
# Compressibility (1/GPa) = 0.05178548
#
# Stress axis : x y z
#
# Youngs Moduli (GPa) = 45.79884 60.88600 31.13555
#
# Poissons Ratio (x) = 0.31606 -0.18844
# Poissons Ratio (y) = 0.23774 0.31624
# Poissons Ratio (z) = -0.27719 0.61840
#
# Static dielectric constant tensor:
#      x y z
#    x 1.855590 0.000020 -0.073720 
#    y 0.000020 1.699000 -0.000010 
#    z -0.073720 -0.000010 1.711400 
# 
# From -- ./inp_files/223175.got.cif
#   From: 2010.05.17/outbox.cif.g08.bks.cpg/sg15_112_cif.got.tgz:223175.got - 2010.06.03 18:47:42.
