data_PCOD9271935
_publ_section_title
;
Structure prediction by ZEFSAII (Michael W. Deem and Ramdas Pophale) SiO2 
 PCOD9271935
Probable space group: C 2/C
;
_chemical_formula_sum "Si O2"
_cell_formula_units_Z 52
_cell_length_a 7.886800
_cell_length_b 18.743294
_cell_length_c 26.230963
_cell_angle_alpha 90.000000
_cell_angle_beta 138.354924
_cell_angle_gamma 90.000000
_cell_volume 2576.708696
_symmetry_space_group_name_H-M "C 2/C"
_symmetry_group_IT_number 15
_symmetry_cell_setting 'monoclinic'
loop_
_space_group_symop_operation_xyz
x,y,z
-x,y,1/2-z
-x,-y,-z
x,-y,1/2+z
1/2+x,1/2+y,z
1/2-x,1/2+y,1/2-z
1/2-x,1/2-y,-z
1/2+x,1/2-y,1/2+z
loop_
_atom_site_type_symbol
_atom_site_label
_atom_site_fract_x
_atom_site_fract_y
_atom_site_fract_z
Si Si1 0.276555 0.848037 0.031552
Si Si2 0.701997 0.082568 0.191837
Si Si3 0.121446 0.277673 0.622690
Si Si4 0.500000 0.118232 0.250000
Si Si5 0.480839 0.280028 0.873663
Si Si6 0.378713 0.009809 0.028579
Si Si7 0.619625 0.651770 0.966492
O O1 0.518516 0.801095 0.104642
O O2 0.310443 0.931901 0.033489
O O3 0.052174 0.834108 0.022128
O O4 0.180373 0.818633 0.956204
O O5 0.652180 0.167673 0.175141
O O6 0.593053 0.069186 0.223635
O O7 0.000000 0.068355 0.250000
O O8 0.554067 0.044551 0.112256
O O9 0.384568 0.277217 0.650961
O O10 0.898742 0.314300 0.538107
O O11 0.020152 0.197758 0.608538
O O12 0.732847 0.170882 0.317340
O O13 0.500000 0.000000 0.000000
O O14 0.153657 0.067422 0.969250
#
# Coordination Sequence:
#
# PCOD9271935 Si02
#       7
#     8   8   8   4   8   8   8
#     4  10  20  37  60  90 125 158 217 266 310 379
#     4  11  23  42  63  91 129 172 217 262 324 401
#     4   9  17  35  58  88 122 154 199 260 307 369
#     4  12  24  38  68  92 126 174 212 268 334 386
#     4  10  20  36  62  92 121 161 211 264 316 380
#     4  11  23  38  62  93 129 171 212 272 324 376
#     4   9  18  32  59  90 120 156 200 257 315 363
#
# _framework density 20.180785
#
# number of rings (size 3 to 8) (size 9 to 14) (size 15 to 20)
#    0.000    1.846    1.538    4.154    0.000    3.692 
#    1.385    0.000    0.000    0.000    2.000    0.000 
#    0.000    0.000    0.000    0.000    0.000    0.000 
#
# Total GULP energy -144945.620205 kJ/mol
# GULP energy per Si atom -5574.831546 kJ/mol
# Density = 2.013485 g / cm^3
# Si number density = 20.180785 Si / 1000 Ang^3
#
#
#
# Elastic Constant Matrix: (Units=GPa)
#
#
# Indices 1 2 3 4 5 6 
#
# 1 107.9082 16.6527 30.2446 0.0000 -9.1234 0.0000
# 2 16.6527 119.2529 21.6254 0.0001 -4.0615 0.0000
# 3 30.2446 21.6254 55.5200 0.0001 -6.3381 0.0001
# 4 0.0000 0.0001 0.0001 20.7983 0.0000 -5.2801
# 5 -9.1234 -4.0615 -6.3381 0.0000 27.2085 0.0000
# 6 0.0000 0.0000 0.0001 -5.2801 0.0000 23.6940
#
#
#
# Elastic Compliance Matrix: (Units=1/GPa)
#
#
# Indices 1 2 3 4 5 6 
#
# 1 0.011107 -0.000454 -0.005605 0.000000 0.002351 0.000000
# 2 -0.000454 0.009049 -0.003226 0.000000 0.000447 0.000000
# 3 -0.005605 -0.003226 0.022654 0.000000 0.002916 0.000000
# 4 0.000000 0.000000 0.000000 0.050964 0.000000 0.011357
# 5 0.002351 0.000447 0.002916 0.000000 0.038287 0.000000
# 6 0.000000 0.000000 0.000000 0.011357 0.000000 0.044736
#
#
# Mechanical properties :
#
#
# Convention : Reuss Voigt Hill
#
# Bulk Modulus (GPa) = 41.25560 46.63628 43.94594
# Shear Modulus (GPa) = 24.57612 28.61739 26.59676
#
# Velocity S-wave (km/s) = 3.49348 3.76979 3.63426
# Velocity P-wave (km/s) = 6.06300 6.48905 6.27964
#
# Compressibility (1/GPa) = 0.02423913
#
# Stress axis : x y z
#
# Youngs Moduli (GPa) = 90.03285 110.50633 44.14142
#
# Poissons Ratio (x) = 0.05022 0.24742
# Poissons Ratio (y) = 0.04092 0.14241
# Poissons Ratio (z) = 0.50465 0.35651
#
# Static dielectric constant tensor:
#      x y z
#    x 1.762390 0.000000 -0.011340 
#    y 0.000000 1.761100 0.000000 
#    z -0.011340 0.000000 1.725110 
# 
# From -- ./inp_files/289616.got.cif
#   From: 2010.05.17/outbox.cif.g08.bks.cpg/sg15_145_cif.got.tgz:289616.got - 2010.06.03 18:47:42.
