data_PCOD9271472
_publ_section_title
;
Structure prediction by ZEFSAII (Michael W. Deem and Ramdas Pophale) SiO2 
 PCOD9271472
Probable space group: C 2/C
;
_chemical_formula_sum "Si O2"
_cell_formula_units_Z 40
_cell_length_a 23.771103
_cell_length_b 13.744829
_cell_length_c 8.815205
_cell_angle_alpha 90.000000
_cell_angle_beta 147.992596
_cell_angle_gamma 90.000000
_cell_volume 1526.583624
_symmetry_space_group_name_H-M "C 2/C"
_symmetry_group_IT_number 15
_symmetry_cell_setting 'monoclinic'
loop_
_space_group_symop_operation_xyz
x,y,z
-x,y,1/2-z
-x,-y,-z
x,-y,1/2+z
1/2+x,1/2+y,z
1/2-x,1/2+y,1/2-z
1/2-x,1/2-y,-z
1/2+x,1/2-y,1/2+z
loop_
_atom_site_type_symbol
_atom_site_label
_atom_site_fract_x
_atom_site_fract_y
_atom_site_fract_z
Si Si1 0.140570 0.515204 0.229314
Si Si2 0.225756 0.965005 0.710520
Si Si3 0.461743 0.716915 0.916271
Si Si4 0.000000 0.639428 0.250000
Si Si5 0.000000 0.059632 0.750000
Si Si6 0.142549 0.291840 0.558805
O O1 0.172239 0.512493 0.474765
O O2 0.255854 0.498583 0.417096
O O3 0.101495 0.614419 0.064429
O O4 0.065364 0.428328 0.013008
O O5 0.253688 0.847633 0.772773
O O6 0.111667 0.993427 0.506713
O O7 0.437208 0.791437 0.722651
O O8 0.489529 0.621813 0.882155
O O9 0.366557 0.713898 0.823741
O O10 0.565909 0.751399 0.251783
#
# Coordination Sequence:
#
# PCOD9271472 Si02
#       6
#     8   8   8   4   4   8
#     4  10  20  36  62  93 119 143 190 255 305 347
#     4  10  23  40  58  89 119 156 200 239 294 341
#     4  10  20  36  59  89 119 150 194 235 304 350
#     4  11  16  32  64  94 116 147 178 258 314 355
#     4  11  26  42  56  80 122 177 202 224 268 359
#     4   9  20  37  60  90 113 147 190 253 297 343
#
# _framework density 26.202299
#
# number of rings (size 3 to 8) (size 9 to 14) (size 15 to 20)
#    1.200    0.800    2.000    2.400    0.000    4.800 
#    0.000    4.000    0.000    0.000    0.000    0.000 
#    0.000    0.000    0.000    0.000    0.000    0.000 
#
# Total GULP energy -111430.074357 kJ/mol
# GULP energy per Si atom -5571.503718 kJ/mol
# Density = 2.614266 g / cm^3
# Si number density = 26.202299 Si / 1000 Ang^3
#
#
#
# Elastic Constant Matrix: (Units=GPa)
#
#
# Indices 1 2 3 4 5 6 
#
# 1 66.0436 4.9902 21.2715 0.0000 11.7672 0.0000
# 2 4.9902 71.9599 19.2947 0.0000 -3.3110 0.0000
# 3 21.2715 19.2947 98.1927 0.0000 -9.0226 0.0000
# 4 0.0000 0.0000 0.0000 23.0041 0.0000 -0.9182
# 5 11.7672 -3.3110 -9.0226 0.0000 51.4210 0.0000
# 6 0.0000 0.0000 0.0000 -0.9182 0.0000 19.5111
#
#
#
# Elastic Compliance Matrix: (Units=1/GPa)
#
#
# Indices 1 2 3 4 5 6 
#
# 1 0.017333 -0.000312 -0.004126 0.000000 -0.004711 0.000000
# 2 -0.000312 0.014685 -0.002769 0.000000 0.000531 0.000000
# 3 -0.004126 -0.002769 0.011884 0.000000 0.002851 0.000000
# 4 0.000000 0.000000 0.000000 0.043552 0.000000 0.002050
# 5 -0.004711 0.000531 0.002851 0.000000 0.021060 0.000000
# 6 0.000000 0.000000 0.000000 0.002050 0.000000 0.051349
#
#
# Mechanical properties :
#
#
# Convention : Reuss Voigt Hill
#
# Bulk Modulus (GPa) = 33.91332 36.36766 35.14049
# Shear Modulus (GPa) = 27.15781 31.49655 29.32718
#
# Velocity S-wave (km/s) = 3.22291 3.47083 3.34916
# Velocity P-wave (km/s) = 5.17885 5.47466 5.32881
#
# Compressibility (1/GPa) = 0.02948694
#
# Stress axis : x y z
#
# Youngs Moduli (GPa) = 57.69176 68.09568 84.14611
#
# Poissons Ratio (x) = 0.02127 0.34722
# Poissons Ratio (y) = 0.01802 0.23301
# Poissons Ratio (z) = 0.23806 0.18857
#
# Static dielectric constant tensor:
#      x y z
#    x 2.088100 0.000000 0.059200 
#    y 0.000000 2.085750 0.000000 
#    z 0.059200 0.000000 2.002980 
# 
# From -- ./inp_files/70229.got.cif
#   From: 2010.05.17/outbox.cif.g08.bks.cpg/sg15_36_cif.got.tgz:70229.got - 2010.06.03 18:47:42.
