data_PCOD9271253
_publ_section_title
;
Structure prediction by ZEFSAII (Michael W. Deem and Ramdas Pophale) SiO2 
 PCOD9271253
Probable space group: C 2/C
;
_chemical_formula_sum "Si O2"
_cell_formula_units_Z 60
_cell_length_a 14.849469
_cell_length_b 17.874991
_cell_length_c 14.456282
_cell_angle_alpha 90.000000
_cell_angle_beta 123.318988
_cell_angle_gamma 90.000000
_cell_volume 3206.453772
_symmetry_space_group_name_H-M "C 2/C"
_symmetry_group_IT_number 15
_symmetry_cell_setting 'monoclinic'
loop_
_space_group_symop_operation_xyz
x,y,z
-x,y,1/2-z
-x,-y,-z
x,-y,1/2+z
1/2+x,1/2+y,z
1/2-x,1/2+y,1/2-z
1/2-x,1/2-y,-z
1/2+x,1/2-y,1/2+z
loop_
_atom_site_type_symbol
_atom_site_label
_atom_site_fract_x
_atom_site_fract_y
_atom_site_fract_z
Si Si1 0.488931 0.954972 0.588689
Si Si2 0.946291 0.974061 0.818830
Si Si3 0.559604 0.614253 0.543551
Si Si4 0.270765 0.065675 0.229652
Si Si5 0.207608 0.650796 0.569205
Si Si6 0.000000 0.422175 0.250000
Si Si7 0.213398 0.391484 0.287842
Si Si8 0.656207 0.674975 0.019831
O O1 0.606179 0.917652 0.673185
O O2 0.392212 0.895938 0.529346
O O3 0.500000 0.000000 0.500000
O O4 0.466482 0.019905 0.650522
O O5 0.823284 0.942520 0.745877
O O6 0.000000 0.984920 0.750000
O O7 0.940843 0.048774 0.878550
O O8 0.018317 0.919331 0.923478
O O9 0.680821 0.643579 0.607275
O O10 0.469207 0.669937 0.528157
O O11 0.222776 0.123418 0.129016
O O12 0.278463 0.981402 0.193723
O O13 0.217050 0.625521 0.680607
O O14 0.312331 0.642078 0.563070
O O15 0.187228 0.739169 0.551003
O O16 0.098820 0.373122 0.268012
#
# Coordination Sequence:
#
# PCOD9271253 Si02
#       8
#     8   8   8   8   8   4   8   8
#     4  11  20  35  60  88 116 153 205 253 294 357
#     4   9  18  32  56  84 113 148 188 244 293 346
#     4   9  20  35  52  84 115 147 194 236 288 357
#     4   9  19  37  54  85 116 149 192 251 297 337
#     4  11  22  37  58  89 119 161 196 238 308 371
#     4  10  20  36  58  88 116 148 192 270 296 322
#     4  10  20  36  58  85 115 151 202 246 291 356
#     4  10  23  38  57  84 128 156 188 249 307 365
#
# _framework density 18.712261999999999
#
# number of rings (size 3 to 8) (size 9 to 14) (size 15 to 20)
#    0.000    2.133    2.667    2.400    3.733    2.133 
#    0.000    2.667    5.867    0.800    0.000    0.000 
#    0.000    0.000    0.000    0.000    0.000    0.000 
#
# Total GULP energy -167173.210036 kJ/mol
# GULP energy per Si atom -5572.440335 kJ/mol
# Density = 1.866967 g / cm^3
# Si number density = 18.712262 Si / 1000 Ang^3
#
#
#
# Elastic Constant Matrix: (Units=GPa)
#
#
# Indices 1 2 3 4 5 6 
#
# 1 111.9341 13.3459 40.2948 0.0000 4.7658 0.0000
# 2 13.3459 38.6186 4.4885 0.0000 -2.1171 0.0000
# 3 40.2948 4.4885 56.1251 0.0000 -2.7518 0.0000
# 4 0.0000 0.0000 0.0000 10.0079 0.0000 0.6193
# 5 4.7658 -2.1171 -2.7518 0.0000 41.8250 0.0000
# 6 0.0000 0.0000 0.0000 0.6193 0.0000 19.1462
#
#
#
# Elastic Compliance Matrix: (Units=1/GPa)
#
#
# Indices 1 2 3 4 5 6 
#
# 1 0.012648 -0.003456 -0.008912 0.000000 -0.002202 0.000000
# 2 -0.003456 0.027141 0.000399 0.000000 0.001794 0.000000
# 3 -0.008912 0.000399 0.024313 0.000000 0.002635 0.000000
# 4 0.000000 0.000000 0.000000 0.100122 0.000000 -0.003238
# 5 -0.002202 0.001794 0.002635 0.000000 0.024424 0.000000
# 6 0.000000 0.000000 0.000000 -0.003238 0.000000 0.052334
#
#
# Mechanical properties :
#
#
# Convention : Reuss Voigt Hill
#
# Bulk Modulus (GPa) = 24.89870 35.88179 30.39025
# Shear Modulus (GPa) = 17.96569 24.09904 21.03237
#
# Velocity S-wave (km/s) = 3.10191 3.59259 3.35623
# Velocity P-wave (km/s) = 5.11509 6.03541 5.59420
#
# Compressibility (1/GPa) = 0.04016273
#
# Stress axis : x y z
#
# Youngs Moduli (GPa) = 79.06462 36.84523 41.13007
#
# Poissons Ratio (x) = 0.12733 0.36656
# Poissons Ratio (y) = 0.27323 -0.01639
# Poissons Ratio (z) = 0.70463 -0.01468
#
# Static dielectric constant tensor:
#      x y z
#    x 1.844210 0.000000 -0.081950 
#    y 0.000000 1.617850 0.000000 
#    z -0.081950 0.000000 1.759680 
# 
# From -- ./inp_files/99814.got.cif
#   From: 2010.05.17/outbox.cif.g08.bks.cpg/sg15_50_cif.got.tgz:99814.got - 2010.06.03 18:47:42.
