data_PCOD9271938
_publ_section_title
;
Structure prediction by ZEFSAII (Michael W. Deem and Ramdas Pophale) SiO2 
 PCOD9271938
Probable space group: C 2/C
;
_chemical_formula_sum "Si O2"
_cell_formula_units_Z 48
_cell_length_a 19.278352
_cell_length_b 9.836471
_cell_length_c 12.937863
_cell_angle_alpha 90.000000
_cell_angle_beta 48.754955
_cell_angle_gamma 90.000000
_cell_volume 1844.718151
_symmetry_space_group_name_H-M "C 2/C"
_symmetry_group_IT_number 15
_symmetry_cell_setting 'monoclinic'
loop_
_space_group_symop_operation_xyz
x,y,z
-x,y,1/2-z
-x,-y,-z
x,-y,1/2+z
1/2+x,1/2+y,z
1/2-x,1/2+y,1/2-z
1/2-x,1/2-y,-z
1/2+x,1/2-y,1/2+z
loop_
_atom_site_type_symbol
_atom_site_label
_atom_site_fract_x
_atom_site_fract_y
_atom_site_fract_z
Si Si1 0.449177 0.048871 0.152805
Si Si2 0.853729 0.539702 0.435140
Si Si3 0.692381 0.600554 0.205487
Si Si4 0.568829 0.340121 0.396351
Si Si5 0.096744 0.906606 0.604435
Si Si6 0.853581 0.824248 0.532657
O O1 0.368819 0.986299 0.303141
O O2 0.542610 0.046590 0.125643
O O3 0.404888 0.195690 0.174775
O O4 0.500000 0.000000 0.000000
O O5 0.790800 0.448559 0.569627
O O6 0.829796 0.697449 0.484175
O O7 0.629818 0.466318 0.295859
O O8 0.645065 0.669823 0.152151
O O9 0.695562 0.684829 0.307925
O O10 0.576046 0.338780 0.514266
O O11 0.461769 0.344856 0.462701
O O12 0.000000 0.951027 0.750000
O O13 0.160792 0.036901 0.516423
#
# Coordination Sequence:
#
# PCOD9271938 Si02
#       6
#     8   8   8   8   8   8
#     4  10  23  45  65  84 125 173 221 258 306 389
#     4  10  24  41  63  91 122 176 211 255 319 382
#     4  11  21  36  63  99 131 157 211 273 323 377
#     4  10  20  36  62  92 122 164 210 263 329 372
#     4  11  18  32  59  95 124 156 196 266 331 361
#     4  10  20  37  61  90 132 165 208 259 316 389
#
# _framework density 26.020236000000001
#
# number of rings (size 3 to 8) (size 9 to 14) (size 15 to 20)
#    0.000    1.667    3.333    2.000    2.333    6.667 
#    3.000    0.000    0.000    7.000    0.000    0.000 
#    0.000    0.000    0.000    0.000    0.000    0.000 
#
# Total GULP energy -133940.728527 kJ/mol
# GULP energy per Si atom -5580.863689 kJ/mol
# Density = 2.596101 g / cm^3
# Si number density = 26.020236 Si / 1000 Ang^3
#
#
#
# Elastic Constant Matrix: (Units=GPa)
#
#
# Indices 1 2 3 4 5 6 
#
# 1 82.9562 4.6453 52.5459 0.0000 -1.9963 0.0000
# 2 4.6453 47.5974 38.3476 0.0000 3.7297 0.0000
# 3 52.5459 38.3476 208.5558 0.0000 22.3714 0.0000
# 4 0.0000 0.0000 0.0000 127.6651 0.0000 55.8399
# 5 -1.9963 3.7297 22.3714 0.0000 42.3214 0.0000
# 6 0.0000 0.0000 0.0000 55.8399 0.0000 46.6552
#
#
#
# Elastic Compliance Matrix: (Units=1/GPa)
#
#
# Indices 1 2 3 4 5 6 
#
# 1 0.014789 0.001857 -0.004373 0.000000 0.002845 0.000000
# 2 0.001857 0.024898 -0.005110 0.000000 0.000594 0.000000
# 3 -0.004373 -0.005110 0.007219 0.000000 -0.003572 0.000000
# 4 0.000000 0.000000 0.000000 0.016439 0.000000 -0.019675
# 5 0.002845 0.000594 -0.003572 0.000000 0.025599 0.000000
# 6 0.000000 0.000000 0.000000 -0.019675 0.000000 0.044982
#
#
# Mechanical properties :
#
#
# Convention : Reuss Voigt Hill
#
# Bulk Modulus (GPa) = 31.59046 58.90967 45.25006
# Shear Modulus (GPa) = 31.30305 59.56639 45.43472
#
# Velocity S-wave (km/s) = 3.47223 4.78978 4.18321
# Velocity P-wave (km/s) = 5.31435 7.29921 6.38438
#
# Compressibility (1/GPa) = 0.03165513
#
# Stress axis : x y z
#
# Youngs Moduli (GPa) = 67.61880 40.16310 138.51799
#
# Poissons Ratio (x) = -0.07457 0.60569
# Poissons Ratio (y) = -0.12554 0.70778
# Poissons Ratio (z) = 0.29567 0.20522
#
# Static dielectric constant tensor:
#      x y z
#    x 2.007300 0.000000 -0.314410 
#    y 0.000000 2.099030 0.000000 
#    z -0.314410 0.000000 0.889360 
# 
# From -- ./inp_files/111440.got.cif
#   From: 2010.05.17/outbox.cif.g08.bks.cpg/sg15_56_cif.got.tgz:111440.got - 2010.06.03 18:47:42.
