data_PCOD9271717
_publ_section_title
;
Structure prediction by ZEFSAII (Michael W. Deem and Ramdas Pophale) SiO2 
 PCOD9271717
Probable space group: C 2/C
;
_chemical_formula_sum "Si O2"
_cell_formula_units_Z 40
_cell_length_a 11.526773
_cell_length_b 7.494818
_cell_length_c 24.065706
_cell_angle_alpha 90.000000
_cell_angle_beta 136.688017
_cell_angle_gamma 90.000000
_cell_volume 1426.175289
_symmetry_space_group_name_H-M "C 2/C"
_symmetry_group_IT_number 15
_symmetry_cell_setting 'monoclinic'
loop_
_space_group_symop_operation_xyz
x,y,z
-x,y,1/2-z
-x,-y,-z
x,-y,1/2+z
1/2+x,1/2+y,z
1/2-x,1/2+y,1/2-z
1/2-x,1/2-y,-z
1/2+x,1/2-y,1/2+z
loop_
_atom_site_type_symbol
_atom_site_label
_atom_site_fract_x
_atom_site_fract_y
_atom_site_fract_z
Si Si1 0.330718 0.998557 0.509296
Si Si2 0.809541 0.743943 0.742772
Si Si3 0.914170 0.727762 0.132565
Si Si4 0.780902 0.912038 0.837304
Si Si5 0.349728 0.235017 0.418945
O O1 0.173131 0.885965 0.432315
O O2 0.358450 0.959061 0.583649
O O3 0.490281 0.882782 0.542249
O O4 0.327742 0.185389 0.475509
O O5 0.613006 0.734399 0.695466
O O6 0.851238 0.541847 0.741803
O O7 0.796923 0.829502 0.676623
O O8 0.890575 0.821869 0.826530
O O9 0.820930 0.721847 0.159330
O O10 0.871415 0.059337 0.907911
#
# Coordination Sequence:
#
# PCOD9271717 Si02
#       5
#     8   8   8   8   8
#     4   9  18  37  59  86 117 145 190 238 290 348
#     4   9  21  39  54  84 112 153 191 236 285 341
#     4  10  20  36  61  82 115 151 187 237 291 343
#     4  10  21  36  59  81 114 153 191 232 289 337
#     4   8  19  36  58  85 112 153 184 237 293 335
#
# _framework density 28.047044
#
# number of rings (size 3 to 8) (size 9 to 14) (size 15 to 20)
#    1.200    1.600    0.000    0.600    2.800    1.600 
#    0.000    4.000    0.000    0.000    0.000    0.000 
#    0.000    0.000    0.000    0.000    0.000    0.000 
#
# Total GULP energy -111524.156564 kJ/mol
# GULP energy per Si atom -5576.207828 kJ/mol
# Density = 2.798321 g / cm^3
# Si number density = 28.047044 Si / 1000 Ang^3
#
#
#
# Elastic Constant Matrix: (Units=GPa)
#
#
# Indices 1 2 3 4 5 6 
#
# 1 55.3050 -8.1919 34.5437 0.0000 -35.0636 0.0000
# 2 -8.1919 38.5189 7.2246 0.0000 8.2274 0.0000
# 3 34.5437 7.2246 119.2556 0.0000 -18.9132 0.0000
# 4 0.0000 0.0000 0.0000 53.4206 0.0000 -16.6535
# 5 -35.0636 8.2274 -18.9132 0.0000 53.4441 0.0000
# 6 0.0000 0.0000 0.0000 -16.6535 0.0000 26.0678
#
#
#
# Elastic Compliance Matrix: (Units=1/GPa)
#
#
# Indices 1 2 3 4 5 6 
#
# 1 0.036607 0.004823 -0.007633 0.000000 0.020574 0.000000
# 2 0.004823 0.028154 -0.003484 0.000000 -0.002403 0.000000
# 3 -0.007633 -0.003484 0.010699 0.000000 -0.000685 0.000000
# 4 0.000000 0.000000 0.000000 0.023375 0.000000 0.014933
# 5 0.020574 -0.002403 -0.000685 0.000000 0.032336 0.000000
# 6 0.000000 0.000000 0.000000 0.014933 0.000000 0.047902
#
#
# Mechanical properties :
#
#
# Convention : Reuss Voigt Hill
#
# Bulk Modulus (GPa) = 15.90548 31.13694 23.52121
# Shear Modulus (GPa) = 23.51646 38.55337 31.03491
#
# Velocity S-wave (km/s) = 2.89877 3.71158 3.33006
# Velocity P-wave (km/s) = 4.10939 5.43079 4.81563
#
# Compressibility (1/GPa) = 0.06287141
#
# Stress axis : x y z
#
# Youngs Moduli (GPa) = 27.31703 35.51954 93.46962
#
# Poissons Ratio (x) = -0.17130 0.71345
# Poissons Ratio (y) = -0.13174 0.32561
# Poissons Ratio (z) = 0.20851 0.12373
#
# Static dielectric constant tensor:
#      x y z
#    x 2.200050 0.000000 -0.075240 
#    y 0.000000 2.242150 0.000000 
#    z -0.075240 0.000000 2.389290 
# 
# From -- ./inp_files/272422.got.cif
#   From: 2010.05.17/outbox.cif.g08.bks.cpg/sg15_137_cif.got.tgz:272422.got - 2010.06.03 18:47:42.
