data_PCOD9271898
_publ_section_title
;
Structure prediction by ZEFSAII (Michael W. Deem and Ramdas Pophale) SiO2 
 PCOD9271898
Probable space group: C 2/C
;
_chemical_formula_sum "Si O2"
_cell_formula_units_Z 48
_cell_length_a 10.139264
_cell_length_b 13.318949
_cell_length_c 26.270908
_cell_angle_alpha 90.000000
_cell_angle_beta 147.753113
_cell_angle_gamma 90.000000
_cell_volume 1892.961172
_symmetry_space_group_name_H-M "C 2/C"
_symmetry_group_IT_number 15
_symmetry_cell_setting 'monoclinic'
loop_
_space_group_symop_operation_xyz
x,y,z
-x,y,1/2-z
-x,-y,-z
x,-y,1/2+z
1/2+x,1/2+y,z
1/2-x,1/2+y,1/2-z
1/2-x,1/2-y,-z
1/2+x,1/2-y,1/2+z
loop_
_atom_site_type_symbol
_atom_site_label
_atom_site_fract_x
_atom_site_fract_y
_atom_site_fract_z
Si Si1 0.500000 0.389231 0.750000
Si Si2 0.847566 0.723729 0.910601
Si Si3 0.555840 0.984419 0.664312
Si Si4 0.776216 0.419408 0.937145
Si Si5 0.936640 0.904631 0.015108
Si Si6 0.920144 0.900924 0.329837
Si Si7 0.000000 0.359894 0.750000
O O1 0.292547 0.455167 0.709131
O O2 0.664339 0.353993 0.852810
O O3 0.919355 0.806723 0.975360
O O4 0.616711 0.662352 0.860842
O O5 0.736896 0.787296 0.828496
O O6 0.083790 0.654381 0.978478
O O7 0.334693 0.944062 0.557268
O O8 0.508371 0.924902 0.701715
O O9 0.650670 0.091967 0.715919
O O10 0.545254 0.488151 0.877229
O O11 0.000000 0.500000 0.000000
O O12 0.093184 0.873325 0.115364
O O13 0.000000 0.000000 0.000000
#
# Coordination Sequence:
#
# PCOD9271898 Si02
#       7
#     4   8   8   8   8   8   4
#     4  10  20  37  62  91 126 160 202 263 312 367
#     4  10  21  38  62  89 121 165 208 252 313 375
#     4  10  21  40  63  90 122 162 207 257 315 367
#     4   9  19  35  59  87 116 154 202 252 303 360
#     4  11  23  41  62  88 128 169 204 253 313 379
#     4  10  20  36  62  90 119 158 208 259 306 363
#     4  10  22  39  60  89 126 164 208 261 312 373
#
# _framework density 25.357095999999999
#
# number of rings (size 3 to 8) (size 9 to 14) (size 15 to 20)
#    0.000    2.000    0.000    4.500    0.000    8.667 
#    0.000   15.833    0.000    4.000    0.000    0.000 
#    0.000    0.000    0.000    0.000    0.000    0.000 
#
# Total GULP energy -133613.054660 kJ/mol
# GULP energy per Si atom -5567.210611 kJ/mol
# Density = 2.529938 g / cm^3
# Si number density = 25.357096 Si / 1000 Ang^3
#
#
#
# Elastic Constant Matrix: (Units=GPa)
#
#
# Indices 1 2 3 4 5 6 
#
# 1 47.9252 -5.8555 -18.3999 0.0000 -2.1370 0.0000
# 2 -5.8555 71.5555 -0.6834 0.0000 7.4704 0.0000
# 3 -18.3999 -0.6834 78.5689 -0.0001 -12.0087 0.0000
# 4 0.0000 0.0000 -0.0001 41.2823 0.0000 -5.6640
# 5 -2.1370 7.4704 -12.0087 0.0000 33.5960 0.0000
# 6 0.0000 0.0000 0.0000 -5.6640 0.0000 45.6869
#
#
#
# Elastic Compliance Matrix: (Units=1/GPa)
#
#
# Indices 1 2 3 4 5 6 
#
# 1 0.023526 0.001640 0.006026 0.000000 0.003286 0.000000
# 2 0.001640 0.014432 0.000037 0.000000 -0.003092 0.000000
# 3 0.006026 0.000037 0.015017 0.000000 0.005743 0.000000
# 4 0.000000 0.000000 0.000000 0.024643 0.000000 0.003055
# 5 0.003286 -0.003092 0.005743 0.000000 0.032715 0.000000
# 6 0.000000 0.000000 0.000000 0.003055 0.000000 0.022267
#
#
# Mechanical properties :
#
#
# Convention : Reuss Voigt Hill
#
# Bulk Modulus (GPa) = 14.62389 16.46355 15.54372
# Shear Modulus (GPa) = 35.71731 38.97894 37.34813
#
# Velocity S-wave (km/s) = 3.75717 3.92497 3.84198
# Velocity P-wave (km/s) = 4.95998 5.20070 5.08177
#
# Compressibility (1/GPa) = 0.06838125
#
# Stress axis : x y z
#
# Youngs Moduli (GPa) = 42.50562 69.28818 66.59127
#
# Poissons Ratio (x) = -0.11361 -0.40128
# Poissons Ratio (y) = -0.06970 -0.00246
# Poissons Ratio (z) = -0.25614 -0.00256
#
# Static dielectric constant tensor:
#      x y z
#    x 2.004650 0.000000 0.000100 
#    y 0.000000 2.080930 0.000000 
#    z 0.000100 0.000000 2.085540 
# 
# From -- ./inp_files/311276.got.cif
#   From: 2010.05.17/outbox.cif.g08.bks.cpg/sg15_156_cif.got.tgz:311276.got - 2010.06.03 18:47:42.
