data_PCOD9271469
_publ_section_title
;
Structure prediction by ZEFSAII (Michael W. Deem and Ramdas Pophale) SiO2 
 PCOD9271469
Probable space group: C 2/C
;
_chemical_formula_sum "Si O2"
_cell_formula_units_Z 60
_cell_length_a 21.036621
_cell_length_b 15.659024
_cell_length_c 9.978476
_cell_angle_alpha 90.000000
_cell_angle_beta 59.837167
_cell_angle_gamma 90.000000
_cell_volume 2841.977165
_symmetry_space_group_name_H-M "C 2/C"
_symmetry_group_IT_number 15
_symmetry_cell_setting 'monoclinic'
loop_
_space_group_symop_operation_xyz
x,y,z
-x,y,1/2-z
-x,-y,-z
x,-y,1/2+z
1/2+x,1/2+y,z
1/2-x,1/2+y,1/2-z
1/2-x,1/2-y,-z
1/2+x,1/2-y,1/2+z
loop_
_atom_site_type_symbol
_atom_site_label
_atom_site_fract_x
_atom_site_fract_y
_atom_site_fract_z
Si Si1 0.291965 0.198431 0.771031
Si Si2 0.000000 0.448511 0.750000
Si Si3 0.921258 0.715556 0.443163
Si Si4 0.727975 0.557449 0.432277
Si Si5 0.862078 0.561869 0.868304
Si Si6 0.686390 0.164242 0.348681
Si Si7 0.436663 0.712903 0.626554
Si Si8 0.332778 0.430316 0.205992
O O1 0.341268 0.213998 0.588357
O O2 0.348983 0.152858 0.811062
O O3 0.249897 0.284069 0.860518
O O4 0.226937 0.134348 0.795937
O O5 0.044997 0.380402 0.610343
O O6 0.062576 0.512154 0.738977
O O7 0.921539 0.761931 0.298570
O O8 0.977790 0.766274 0.478589
O O9 0.796074 0.495213 0.386610
O O10 0.770560 0.640051 0.332307
O O11 0.677870 0.517065 0.366990
O O12 0.686348 0.562737 0.616750
O O13 0.844161 0.581240 0.042824
O O14 0.615982 0.222602 0.397297
O O15 0.410515 0.618308 0.617817
#
# Coordination Sequence:
#
# PCOD9271469 Si02
#       8
#     8   4   8   8   8   8   8   8
#     4  10  22  36  59  83 118 158 199 240 290 354
#     4  10  22  34  54  88 126 158 182 238 304 370
#     4  10  20  39  58  88 116 152 203 235 290 357
#     4  11  20  36  58  87 116 150 198 246 298 341
#     4  11  23  35  53  89 125 156 184 243 302 363
#     4  11  21  37  58  83 117 158 202 242 290 350
#     4   9  20  36  59  81 114 154 195 244 282 357
#     4  10  20  36  59  89 116 149 197 245 297 344
#
# _framework density 21.112062999999999
#
# number of rings (size 3 to 8) (size 9 to 14) (size 15 to 20)
#    0.000    1.867    1.333    4.400    3.733    2.667 
#    0.000    0.000    0.000    7.200    0.000    0.000 
#    0.000    0.000    0.000    0.000    0.000    0.000 
#
# Total GULP energy -167272.377172 kJ/mol
# GULP energy per Si atom -5575.745906 kJ/mol
# Density = 2.106401 g / cm^3
# Si number density = 21.112063 Si / 1000 Ang^3
#
#
#
# Elastic Constant Matrix: (Units=GPa)
#
#
# Indices 1 2 3 4 5 6 
#
# 1 68.2325 12.5048 -5.6529 0.0000 -5.3328 0.0000
# 2 12.5048 22.5061 -2.4153 0.0000 -8.9896 0.0000
# 3 -5.6529 -2.4153 25.8300 0.0000 10.2262 0.0000
# 4 0.0000 0.0000 0.0000 -11.2599 0.0000 -11.6946
# 5 -5.3328 -8.9896 10.2262 0.0000 22.8952 0.0000
# 6 0.0000 0.0000 0.0000 -11.6946 0.0000 28.2623
#
#
#
# Elastic Compliance Matrix: (Units=1/GPa)
#
#
# Indices 1 2 3 4 5 6 
#
# 1 0.016539 -0.009347 0.003248 0.000000 -0.001268 0.000000
# 2 -0.009347 0.058316 -0.005826 0.000000 0.023322 0.000000
# 3 0.003248 -0.005826 0.047969 0.000000 -0.022957 0.000000
# 4 0.000000 0.000000 0.000000 -0.062116 0.000000 -0.025703
# 5 -0.001268 0.023322 -0.022957 0.000000 0.062793 0.000000
# 6 0.000000 0.000000 0.000000 -0.025703 0.000000 0.024747
#
#
# Mechanical properties :
#
#
# Convention : Reuss Voigt Hill
#
# Bulk Modulus (GPa) = 10.10378 13.93799 12.02088
# Shear Modulus (GPa) = 24.37942 15.45500 19.91721
#
# Velocity S-wave (km/s) = 3.40187 2.70857 3.07482
# Velocity P-wave (km/s) = 4.49738 4.04945 4.27928
#
# Compressibility (1/GPa) = 0.09897284
#
# Stress axis : x y z
#
# Youngs Moduli (GPa) = 60.46397 17.14785 20.84671
#
# Poissons Ratio (x) = 0.16029 -0.06770
# Poissons Ratio (y) = 0.56518 0.12145
# Poissons Ratio (z) = -0.19636 0.09990
#
# Static dielectric constant tensor:
#      x y z
#    x 1.765900 0.000000 0.054110 
#    y 0.000000 1.830280 0.000000 
#    z 0.054110 0.000000 1.828310 
# 
# From -- ./inp_files/112712.got.cif
#   From: 2010.05.17/outbox.cif.g08.bks.cpg/sg15_57_cif.got.tgz:112712.got - 2010.06.03 18:47:42.
