data_PCOD9271044
_publ_section_title
;
Structure prediction by ZEFSAII (Michael W. Deem and Ramdas Pophale) SiO2 
 PCOD9271044
Probable space group: C 2/C
;
_chemical_formula_sum "Si O2"
_cell_formula_units_Z 56
_cell_length_a 6.897295
_cell_length_b 16.633959
_cell_length_c 25.259805
_cell_angle_alpha 90.000000
_cell_angle_beta 126.250888
_cell_angle_gamma 90.000000
_cell_volume 2337.082410
_symmetry_space_group_name_H-M "C 2/C"
_symmetry_group_IT_number 15
_symmetry_cell_setting 'monoclinic'
loop_
_space_group_symop_operation_xyz
x,y,z
-x,y,1/2-z
-x,-y,-z
x,-y,1/2+z
1/2+x,1/2+y,z
1/2-x,1/2+y,1/2-z
1/2-x,1/2-y,-z
1/2+x,1/2-y,1/2+z
loop_
_atom_site_type_symbol
_atom_site_label
_atom_site_fract_x
_atom_site_fract_y
_atom_site_fract_z
Si Si1 0.888202 0.198203 0.467575
Si Si2 0.272274 0.692898 0.080408
Si Si3 0.000000 0.301430 0.750000
Si Si4 0.500000 0.950275 0.250000
Si Si5 0.557767 0.574783 0.571380
Si Si6 0.603569 0.570873 0.150451
Si Si7 0.031865 0.801879 0.348904
Si Si8 0.979623 0.646320 0.852740
O O1 0.017704 0.272546 0.519546
O O2 0.069936 0.183214 0.447983
O O3 0.876283 0.119361 0.502397
O O4 0.645133 0.231323 0.403219
O O5 0.345766 0.611299 0.122835
O O6 0.394414 0.766920 0.130846
O O7 0.204155 0.355388 0.811451
O O8 0.891933 0.244539 0.779214
O O9 0.555909 0.896049 0.208562
O O10 0.263290 0.006185 0.208067
O O11 0.547536 0.483538 0.589057
O O12 0.555689 0.630658 0.624337
O O13 0.817593 0.590736 0.587016
O O14 0.248121 0.843426 0.351195
#
# Coordination Sequence:
#
# PCOD9271044 Si02
#       8
#     8   8   4   4   8   8   8   8
#     4   9  18  37  63  90 115 156 209 247 291 365
#     4   9  17  35  62  87 118 159 197 252 304 350
#     4  11  22  38  62  83 128 162 202 241 300 366
#     4   9  20  34  60  83 124 160 202 247 296 366
#     4  10  22  37  66  91 119 153 204 252 304 352
#     4  10  20  36  56  91 125 157 193 255 307 352
#     4  11  22  39  67  89 118 164 207 245 293 362
#     4   9  19  37  60  85 118 159 205 240 292 359
#
# _framework density 23.961499
#
# number of rings (size 3 to 8) (size 9 to 14) (size 15 to 20)
#    0.000    2.286    2.857    1.286    4.000    0.571 
#    0.000    0.714   28.286    0.000    0.000    0.000 
#    0.000    0.000    0.000    0.000    0.000    0.000 
#
# Total GULP energy -155891.315031 kJ/mol
# GULP energy per Si atom -5567.546965 kJ/mol
# Density = 2.390696 g / cm^3
# Si number density = 23.961499 Si / 1000 Ang^3
#
#
#
# Elastic Constant Matrix: (Units=GPa)
#
#
# Indices 1 2 3 4 5 6 
#
# 1 31.8773 15.8917 17.5456 0.0000 -7.7210 0.0000
# 2 15.8917 133.7859 66.7115 0.0000 9.4336 0.0000
# 3 17.5456 66.7115 118.9012 0.0000 -2.2132 0.0000
# 4 0.0000 0.0000 0.0000 53.7732 0.0000 6.2841
# 5 -7.7210 9.4336 -2.2132 0.0000 36.0917 0.0000
# 6 0.0000 0.0000 0.0000 6.2841 0.0000 30.1867
#
#
#
# Elastic Compliance Matrix: (Units=1/GPa)
#
#
# Indices 1 2 3 4 5 6 
#
# 1 0.036978 -0.003268 -0.003464 0.000000 0.008552 0.000000
# 2 -0.003268 0.011019 -0.005773 0.000000 -0.003933 0.000000
# 3 -0.003464 -0.005773 0.012189 0.000000 0.001516 0.000000
# 4 0.000000 0.000000 0.000000 0.019060 0.000000 -0.003968
# 5 0.008552 -0.003933 0.001516 0.000000 0.030658 0.000000
# 6 0.000000 0.000000 0.000000 -0.003968 0.000000 0.033953
#
#
# Mechanical properties :
#
#
# Convention : Reuss Voigt Hill
#
# Bulk Modulus (GPa) = 28.42934 53.87356 41.15145
# Shear Modulus (GPa) = 27.68665 36.30469 31.99567
#
# Velocity S-wave (km/s) = 3.40290 3.89668 3.65813
# Velocity P-wave (km/s) = 5.22781 6.54047 5.92063
#
# Compressibility (1/GPa) = 0.03517492
#
# Stress axis : x y z
#
# Youngs Moduli (GPa) = 27.04342 90.75191 82.04178
#
# Poissons Ratio (x) = 0.29660 0.28417
# Poissons Ratio (y) = 0.08839 0.47366
# Poissons Ratio (z) = 0.09367 0.52394
#
# Static dielectric constant tensor:
#      x y z
#    x 1.978190 0.000000 0.017970 
#    y 0.000000 1.950850 0.000000 
#    z 0.017970 0.000000 2.034850 
# 
# From -- ./inp_files/289303.got.cif
#   From: 2010.05.17/outbox.cif.g08.bks.cpg/sg15_145_cif.got.tgz:289303.got - 2010.06.03 18:47:42.
