data_PCOD9271316
_publ_section_title
;
Structure prediction by ZEFSAII (Michael W. Deem and Ramdas Pophale) SiO2 
 PCOD9271316
Probable space group: C 2/C
;
_chemical_formula_sum "Si O2"
_cell_formula_units_Z 56
_cell_length_a 15.468133
_cell_length_b 21.231525
_cell_length_c 7.856636
_cell_angle_alpha 90.000000
_cell_angle_beta 75.766320
_cell_angle_gamma 90.000000
_cell_volume 2501.003925
_symmetry_space_group_name_H-M "C 2/C"
_symmetry_group_IT_number 15
_symmetry_cell_setting 'monoclinic'
loop_
_space_group_symop_operation_xyz
x,y,z
-x,y,1/2-z
-x,-y,-z
x,-y,1/2+z
1/2+x,1/2+y,z
1/2-x,1/2+y,1/2-z
1/2-x,1/2-y,-z
1/2+x,1/2-y,1/2+z
loop_
_atom_site_type_symbol
_atom_site_label
_atom_site_fract_x
_atom_site_fract_y
_atom_site_fract_z
Si Si1 0.561323 0.173534 0.058306
Si Si2 0.834073 0.022063 0.982097
Si Si3 0.251189 0.362352 0.414288
Si Si4 0.500000 0.406566 0.250000
Si Si5 0.826491 0.898998 0.829373
Si Si6 0.500000 0.162500 0.750000
Si Si7 0.427582 0.318858 0.535891
Si Si8 0.799763 0.686049 0.931952
O O1 0.500000 0.166200 0.250000
O O2 0.554334 0.245267 0.989491
O O3 0.663640 0.161450 0.052942
O O4 0.533679 0.130838 0.909369
O O5 0.756933 0.061821 0.923828
O O6 0.921748 0.047850 0.845738
O O7 0.839854 0.947202 0.977796
O O8 0.827931 0.051730 0.172552
O O9 0.339695 0.333987 0.460841
O O10 0.238759 0.337580 0.230156
O O11 0.506055 0.359034 0.408498
O O12 0.898635 0.846915 0.733103
O O13 0.734295 0.863730 0.911534
O O14 0.406016 0.192766 0.861134
O O15 0.750000 0.750000 0.000000
#
# Coordination Sequence:
#
# PCOD9271316 Si02
#       8
#     8   8   8   4   8   4   8   8
#     4  11  22  37  63  87 130 166 206 267 316 382
#     4  10  21  37  61  88 119 170 213 254 320 382
#     4   9  21  37  57  87 119 159 212 243 321 378
#     4   8  18  34  53  88 123 154 206 254 292 390
#     4  10  21  37  62  83 121 163 208 260 315 379
#     4  10  26  38  57  98 123 164 222 250 332 386
#     4  10  20  36  58  90 121 167 208 249 326 383
#     4  11  23  41  63  90 130 165 204 277 322 382
#
# _framework density 22.391009
#
# number of rings (size 3 to 8) (size 9 to 14) (size 15 to 20)
#    0.000    2.286    0.714    3.000    6.000    2.286 
#    0.000    4.286    1.571    2.571    0.000    0.000 
#    0.000    0.000    0.000    0.000    0.000    0.000 
#
# Total GULP energy -156072.199679 kJ/mol
# GULP energy per Si atom -5574.007131 kJ/mol
# Density = 2.234005 g / cm^3
# Si number density = 22.391009 Si / 1000 Ang^3
#
#
#
# Elastic Constant Matrix: (Units=GPa)
#
#
# Indices 1 2 3 4 5 6 
#
# 1 85.6102 21.2067 41.0483 0.0000 -19.0678 0.0000
# 2 21.2067 73.3630 29.6794 0.0000 -22.5954 0.0000
# 3 41.0483 29.6794 136.5161 0.0000 -32.3860 0.0000
# 4 0.0000 0.0000 0.0000 26.8998 0.0000 4.7844
# 5 -19.0678 -22.5954 -32.3860 0.0000 47.9175 0.0000
# 6 0.0000 0.0000 0.0000 4.7844 0.0000 21.8442
#
#
#
# Elastic Compliance Matrix: (Units=1/GPa)
#
#
# Indices 1 2 3 4 5 6 
#
# 1 0.014313 -0.002039 -0.003260 0.000000 0.002531 0.000000
# 2 -0.002039 0.016712 -0.001600 0.000000 0.005988 0.000000
# 3 -0.003260 -0.001600 0.009726 0.000000 0.004522 0.000000
# 4 0.000000 0.000000 0.000000 0.038682 0.000000 -0.008472
# 5 0.002531 0.005988 0.004522 0.000000 0.027756 0.000000
# 6 0.000000 0.000000 0.000000 -0.008472 0.000000 0.047634
#
#
# Mechanical properties :
#
#
# Convention : Reuss Voigt Hill
#
# Bulk Modulus (GPa) = 37.10171 53.26203 45.18187
# Shear Modulus (GPa) = 28.15257 32.90264 30.52760
#
# Velocity S-wave (km/s) = 3.54971 3.83751 3.69641
# Velocity P-wave (km/s) = 5.77983 6.59350 6.20003
#
# Compressibility (1/GPa) = 0.02695294
#
# Stress axis : x y z
#
# Youngs Moduli (GPa) = 69.86814 59.83869 102.81865
#
# Poissons Ratio (x) = 0.12201 0.33518
# Poissons Ratio (y) = 0.14246 0.16447
# Poissons Ratio (z) = 0.22777 0.09572
#
# Static dielectric constant tensor:
#      x y z
#    x 1.859890 0.000000 0.047250 
#    y 0.000000 1.896340 0.000000 
#    z 0.047250 0.000000 1.908180 
# 
# From -- ./inp_files/42141.got.cif
#   From: 2010.05.17/outbox.cif.g08.bks.cpg/sg15_22_cif.got.tgz:42141.got - 2010.06.03 18:47:42.
