data_PCOD9271827
_publ_section_title
;
Structure prediction by ZEFSAII (Michael W. Deem and Ramdas Pophale) SiO2 
 PCOD9271827
Probable space group: C 2/C
;
_chemical_formula_sum "Si O2"
_cell_formula_units_Z 52
_cell_length_a 12.934787
_cell_length_b 21.742407
_cell_length_c 14.629992
_cell_angle_alpha 90.000000
_cell_angle_beta 138.378661
_cell_angle_gamma 90.000000
_cell_volume 2732.831898
_symmetry_space_group_name_H-M "C 2/C"
_symmetry_group_IT_number 15
_symmetry_cell_setting 'monoclinic'
loop_
_space_group_symop_operation_xyz
x,y,z
-x,y,1/2-z
-x,-y,-z
x,-y,1/2+z
1/2+x,1/2+y,z
1/2-x,1/2+y,1/2-z
1/2-x,1/2-y,-z
1/2+x,1/2-y,1/2+z
loop_
_atom_site_type_symbol
_atom_site_label
_atom_site_fract_x
_atom_site_fract_y
_atom_site_fract_z
Si Si1 0.566492 0.827158 0.597122
Si Si2 0.321545 0.595573 0.536539
Si Si3 0.928475 0.003021 0.851042
Si Si4 0.532579 0.685027 0.555071
Si Si5 0.778442 0.385359 0.326549
Si Si6 0.584601 0.362367 0.710320
Si Si7 0.000000 0.615491 0.250000
O O1 0.509869 0.757393 0.548808
O O2 0.458436 0.871439 0.463572
O O3 0.744847 0.832940 0.685447
O O4 0.545565 0.845918 0.689726
O O5 0.434009 0.537355 0.612409
O O6 0.404835 0.646619 0.528690
O O7 0.295231 0.620729 0.620579
O O8 0.154781 0.579509 0.382336
O O9 0.895932 0.935386 0.793625
O O10 0.778398 0.047812 0.746051
O O11 0.000000 0.000000 0.000000
O O12 0.696480 0.663804 0.706549
O O13 0.516134 0.663687 0.440242
O O14 0.500000 0.351277 0.750000
#
# Coordination Sequence:
#
# PCOD9271827 Si02
#       7
#     8   8   8   8   8   8   4
#     4  11  24  39  61  96 126 158 204 258 308 363
#     4  10  20  36  61  97 126 160 188 251 319 375
#     4  11  19  40  64  85 121 161 207 250 304 371
#     4  11  21  40  62  91 126 164 205 244 308 372
#     4  10  22  36  63  94 126 153 194 255 317 371
#     4  12  25  43  64  85 118 174 215 248 301 362
#     4  10  20  36  62 100 132 152 192 252 322 372
#
# _framework density 19.027881000000001
#
# number of rings (size 3 to 8) (size 9 to 14) (size 15 to 20)
#    0.000    1.231    4.615    3.692    2.154    2.462 
#    0.000    2.308    0.000    0.000    0.000    0.000 
#    0.000    0.000    0.000    0.000    0.000    0.000 
#
# Total GULP energy -145180.571516 kJ/mol
# GULP energy per Si atom -5583.868135 kJ/mol
# Density = 1.898457 g / cm^3
# Si number density = 19.027881 Si / 1000 Ang^3
#
#
#
# Elastic Constant Matrix: (Units=GPa)
#
#
# Indices 1 2 3 4 5 6 
#
# 1 72.4478 -4.9316 35.9768 0.0000 -12.6209 0.0000
# 2 -4.9316 51.8447 14.8951 0.0000 -1.4576 0.0000
# 3 35.9768 14.8951 141.7884 0.0000 -11.4009 0.0000
# 4 0.0000 0.0000 0.0000 6.3083 0.0000 5.0891
# 5 -12.6209 -1.4576 -11.4009 0.0000 32.8263 0.0000
# 6 0.0000 0.0000 0.0000 5.0891 0.0000 0.7987
#
#
#
# Elastic Compliance Matrix: (Units=1/GPa)
#
#
# Indices 1 2 3 4 5 6 
#
# 1 0.017002 0.002973 -0.004208 0.000000 0.005208 0.000000
# 2 0.002973 0.020409 -0.002812 0.000000 0.001072 0.000000
# 3 -0.004208 -0.002812 0.008513 0.000000 0.001214 0.000000
# 4 0.000000 0.000000 0.000000 -0.038290 0.000000 0.243962
# 5 0.005208 0.001072 0.001214 0.000000 0.032935 0.000000
# 6 0.000000 0.000000 0.000000 0.243962 0.000000 -0.302408
#
#
# Mechanical properties :
#
#
# Convention : Reuss Voigt Hill
#
# Bulk Modulus (GPa) = 26.43372 39.77349 33.10361
# Shear Modulus (GPa) = -20.73530 22.66270 0.96370
#
# Velocity S-wave (km/s) = -3.30469 3.45487 0.71244
# Velocity P-wave (km/s) = 0.79941 6.07149 4.25581
#
# Compressibility (1/GPa) = 0.03783047
#
# Stress axis : x y z
#
# Youngs Moduli (GPa) = 58.81660 48.99756 117.46171
#
# Poissons Ratio (x) = -0.14565 0.49423
# Poissons Ratio (y) = -0.17483 0.33030
# Poissons Ratio (z) = 0.24747 0.13778
#
# Static dielectric constant tensor:
#      x y z
#    x 1.662570 0.000000 -0.004000 
#    y 0.000000 1.640420 0.000000 
#    z -0.004000 0.000000 1.689530 
# 
# From -- ./inp_files/155559.got.cif
#   From: 2010.05.17/outbox.cif.g08.bks.cpg/sg15_78_cif.got.tgz:155559.got - 2010.06.03 18:47:42.
