data_PCOD9271955
_publ_section_title
;
Structure prediction by ZEFSAII (Michael W. Deem and Ramdas Pophale) SiO2 
 PCOD9271955
Probable space group: C 2/C
;
_chemical_formula_sum "Si O2"
_cell_formula_units_Z 52
_cell_length_a 26.308394
_cell_length_b 10.736577
_cell_length_c 16.511770
_cell_angle_alpha 90.000000
_cell_angle_beta 148.400052
_cell_angle_gamma 90.000000
_cell_volume 2443.840039
_symmetry_space_group_name_H-M "C 2/C"
_symmetry_group_IT_number 15
_symmetry_cell_setting 'monoclinic'
loop_
_space_group_symop_operation_xyz
x,y,z
-x,y,1/2-z
-x,-y,-z
x,-y,1/2+z
1/2+x,1/2+y,z
1/2-x,1/2+y,1/2-z
1/2-x,1/2-y,-z
1/2+x,1/2-y,1/2+z
loop_
_atom_site_type_symbol
_atom_site_label
_atom_site_fract_x
_atom_site_fract_y
_atom_site_fract_z
Si Si1 0.674800 0.356875 0.366697
Si Si2 0.000000 0.625310 0.750000
Si Si3 0.449989 0.163353 0.857526
Si Si4 0.521610 0.625788 0.982275
Si Si5 0.850978 0.850896 0.995704
Si Si6 0.165345 0.435635 0.031097
Si Si7 0.151588 0.538056 0.185998
O O1 0.750000 0.250000 0.500000
O O2 0.579058 0.316385 0.188625
O O3 0.635883 0.412209 0.398584
O O4 0.738721 0.441038 0.393849
O O5 0.963483 0.694881 0.781354
O O6 0.912288 0.535587 0.603879
O O7 0.373155 0.053559 0.772819
O O8 0.429821 0.277966 0.889530
O O9 0.552958 0.106532 0.026685
O O10 0.500000 0.500000 0.000000
O O11 0.587893 0.597119 0.995116
O O12 0.875828 0.704274 0.034247
O O13 0.737662 0.867699 0.821586
O O14 0.183148 0.458550 0.150118
#
# Coordination Sequence:
#
# PCOD9271955 Si02
#       7
#     8   4   8   8   8   8   8
#     4  10  22  37  63  94 124 161 215 267 321 379
#     4  10  22  36  66  96 124 166 212 274 316 388
#     4  10  21  41  64  92 125 168 217 260 327 386
#     4  12  25  43  64  92 135 177 210 271 333 398
#     4  11  22  36  62  95 127 163 214 270 323 386
#     4  10  20  36  62  93 129 160 215 263 326 377
#     4  10  20  37  65  93 123 169 214 268 322 385
#
# _framework density 21.277989000000002
#
# number of rings (size 3 to 8) (size 9 to 14) (size 15 to 20)
#    0.000    1.538    1.538    4.154    4.308    0.000 
#    2.769    0.000    0.000    3.692    0.000    0.000 
#    0.000    0.000    0.000    0.000    0.000    0.000 
#
# Total GULP energy -145160.129020 kJ/mol
# GULP energy per Si atom -5583.081885 kJ/mol
# Density = 2.122956 g / cm^3
# Si number density = 21.277989 Si / 1000 Ang^3
#
#
#
# Elastic Constant Matrix: (Units=GPa)
#
#
# Indices 1 2 3 4 5 6 
#
# 1 192.7551 16.6814 13.2754 0.0000 -11.5906 0.0000
# 2 16.6814 27.0916 -3.4036 0.0000 2.6658 0.0000
# 3 13.2754 -3.4036 61.8423 0.0000 3.9121 0.0000
# 4 0.0000 0.0000 0.0000 17.7431 0.0000 2.1635
# 5 -11.5906 2.6658 3.9121 0.0000 31.0755 0.0000
# 6 0.0000 0.0000 0.0000 2.1635 0.0000 22.6735
#
#
#
# Elastic Compliance Matrix: (Units=1/GPa)
#
#
# Indices 1 2 3 4 5 6 
#
# 1 0.005816 -0.004056 -0.001644 0.000000 0.002724 0.000000
# 2 -0.004056 0.040373 0.003435 0.000000 -0.005408 0.000000
# 3 -0.001644 0.003435 0.016904 0.000000 -0.003036 0.000000
# 4 0.000000 0.000000 0.000000 0.057023 0.000000 -0.005441
# 5 0.002724 -0.005408 -0.003036 0.000000 0.034042 0.000000
# 6 0.000000 0.000000 0.000000 -0.005441 0.000000 0.044624
#
#
# Mechanical properties :
#
#
# Convention : Reuss Voigt Hill
#
# Bulk Modulus (GPa) = 17.07568 37.19950 27.13759
# Shear Modulus (GPa) = 22.43835 31.30745 26.87290
#
# Velocity S-wave (km/s) = 3.25088 3.83998 3.55765
# Velocity P-wave (km/s) = 4.70462 6.09764 5.44585
#
# Compressibility (1/GPa) = 0.05856283
#
# Stress axis : x y z
#
# Youngs Moduli (GPa) = 171.94092 24.76919 59.15700
#
# Poissons Ratio (x) = 0.10046 0.09726
# Poissons Ratio (y) = 0.69734 -0.20319
# Poissons Ratio (z) = 0.28267 -0.08508
#
# Static dielectric constant tensor:
#      x y z
#    x 1.851200 0.000000 -0.019850 
#    y 0.000000 1.774270 0.000000 
#    z -0.019850 0.000000 1.776830 
# 
# From -- ./inp_files/222479.got.cif
#   From: 2010.05.17/outbox.cif.g08.bks.cpg/sg15_112_cif.got.tgz:222479.got - 2010.06.03 18:47:42.
