data_PCOD9271628
_publ_section_title
;
Structure prediction by ZEFSAII (Michael W. Deem and Ramdas Pophale) SiO2 
 PCOD9271628
Probable space group: C 2/C
;
_chemical_formula_sum "Si O2"
_cell_formula_units_Z 40
_cell_length_a 10.891052
_cell_length_b 11.137663
_cell_length_c 31.531373
_cell_angle_alpha 90.000000
_cell_angle_beta 155.282306
_cell_angle_gamma 90.000000
_cell_volume 1599.323851
_symmetry_space_group_name_H-M "C 2/C"
_symmetry_group_IT_number 15
_symmetry_cell_setting 'monoclinic'
loop_
_space_group_symop_operation_xyz
x,y,z
-x,y,1/2-z
-x,-y,-z
x,-y,1/2+z
1/2+x,1/2+y,z
1/2-x,1/2+y,1/2-z
1/2-x,1/2-y,-z
1/2+x,1/2-y,1/2+z
loop_
_atom_site_type_symbol
_atom_site_label
_atom_site_fract_x
_atom_site_fract_y
_atom_site_fract_z
Si Si1 0.151407 0.976751 0.195501
Si Si2 0.912405 0.742380 0.380234
Si Si3 0.769358 0.885975 0.410654
Si Si4 0.601958 0.582106 0.462431
Si Si5 0.242906 0.516115 0.644964
O O1 0.106832 0.842722 0.162134
O O2 0.472293 0.965793 0.317422
O O3 0.125331 0.069974 0.147692
O O4 0.887354 0.003807 0.144631
O O5 0.721547 0.784355 0.360743
O O6 0.815528 0.605136 0.346057
O O7 0.250000 0.750000 0.500000
O O8 0.865038 0.832033 0.486102
O O9 0.017619 0.965691 0.464967
O O10 0.924880 0.574685 0.544251
O O11 0.500000 0.588203 0.750000
#
# Coordination Sequence:
#
# PCOD9271628 Si02
#       5
#     8   8   8   8   8
#     4  11  22  39  64  91 128 164 208 263 318 368
#     4  11  22  39  64  92 122 166 213 261 313 380
#     4  10  20  39  59  90 130 160 205 264 315 370
#     4  10  20  36  60  89 121 165 202 253 317 373
#     4  12  22  39  65  93 120 164 217 254 312 389
#
# _framework density 25.010570000000001
#
# number of rings (size 3 to 8) (size 9 to 14) (size 15 to 20)
#    0.000    1.200    6.000    4.200    0.000    0.000 
#    0.000    1.000    0.000    0.000    0.000    0.000 
#    0.000    0.000    0.000    0.000    0.000    0.000 
#
# Total GULP energy -111459.424144 kJ/mol
# GULP energy per Si atom -5572.971207 kJ/mol
# Density = 2.495364 g / cm^3
# Si number density = 25.010570 Si / 1000 Ang^3
#
#
#
# Elastic Constant Matrix: (Units=GPa)
#
#
# Indices 1 2 3 4 5 6 
#
# 1 155.6239 25.4789 27.4440 0.0001 1.8236 0.0001
# 2 25.4789 64.6129 14.8829 0.0001 3.2310 0.0000
# 3 27.4440 14.8829 135.6194 0.0005 19.5476 0.0003
# 4 0.0001 0.0001 0.0005 16.6280 0.0001 -0.4763
# 5 1.8236 3.2310 19.5476 0.0001 49.8084 0.0000
# 6 0.0001 0.0000 0.0003 -0.4763 0.0000 19.4721
#
#
#
# Elastic Compliance Matrix: (Units=1/GPa)
#
#
# Indices 1 2 3 4 5 6 
#
# 1 0.007046 -0.002520 -0.001204 0.000000 0.000378 0.000000
# 2 -0.002520 0.016786 -0.001260 0.000000 -0.000502 0.000000
# 3 -0.001204 -0.001260 0.008201 0.000000 -0.003093 0.000000
# 4 0.000000 0.000000 0.000000 0.060182 0.000000 0.001472
# 5 0.000378 -0.000502 -0.003093 0.000000 0.021309 0.000000
# 6 0.000000 0.000000 0.000000 0.001472 0.000000 0.051392
#
#
# Mechanical properties :
#
#
# Convention : Reuss Voigt Hill
#
# Bulk Modulus (GPa) = 45.31873 54.60753 49.96313
# Shear Modulus (GPa) = 27.43653 36.38505 31.91079
#
# Velocity S-wave (km/s) = 3.31569 3.81830 3.57584
# Velocity P-wave (km/s) = 5.72866 6.42810 6.08843
#
# Compressibility (1/GPa) = 0.02206593
#
# Stress axis : x y z
#
# Youngs Moduli (GPa) = 141.92032 59.57407 121.93330
#
# Poissons Ratio (x) = 0.15014 0.14678
# Poissons Ratio (y) = 0.35766 0.15360
# Poissons Ratio (z) = 0.17084 0.07505
#
# Static dielectric constant tensor:
#      x y z
#    x 2.085660 0.000000 -0.125150 
#    y 0.000000 2.169010 0.000000 
#    z -0.125150 0.000000 2.125670 
# 
# From -- ./inp_files/142870.got.cif
#   From: 2010.05.17/outbox.cif.g08.bks.cpg/sg15_72_cif.got.tgz:142870.got - 2010.06.03 18:47:42.
