data_PCOD9271663
_publ_section_title
;
Structure prediction by ZEFSAII (Michael W. Deem and Ramdas Pophale) SiO2 
 PCOD9271663
Probable space group: C 2/C
;
_chemical_formula_sum "Si O2"
_cell_formula_units_Z 32
_cell_length_a 16.846633
_cell_length_b 14.915221
_cell_length_c 11.515429
_cell_angle_alpha 90.000000
_cell_angle_beta 31.533460
_cell_angle_gamma 90.000000
_cell_volume 1513.288161
_symmetry_space_group_name_H-M "C 2/C"
_symmetry_group_IT_number 15
_symmetry_cell_setting 'monoclinic'
loop_
_space_group_symop_operation_xyz
x,y,z
-x,y,1/2-z
-x,-y,-z
x,-y,1/2+z
1/2+x,1/2+y,z
1/2-x,1/2+y,1/2-z
1/2-x,1/2-y,-z
1/2+x,1/2-y,1/2+z
loop_
_atom_site_type_symbol
_atom_site_label
_atom_site_fract_x
_atom_site_fract_y
_atom_site_fract_z
Si Si1 0.353844 0.487044 0.005921
Si Si2 0.215981 0.669898 0.825792
Si Si3 0.022387 0.164072 0.582880
Si Si4 0.459875 0.968820 0.682080
O O1 0.282108 0.397081 0.146320
O O2 0.221678 0.536423 0.096847
O O3 0.500000 0.462738 0.750000
O O4 0.412923 0.563986 0.020064
O O5 0.358551 0.681518 0.732434
O O6 0.145568 0.765526 0.882311
O O7 0.070664 0.616291 0.056439
O O8 0.000000 0.172419 0.750000
O O9 0.500000 0.024042 0.750000
O O10 0.500000 0.000000 0.500000
#
# Coordination Sequence:
#
# PCOD9271663 Si02
#       4
#     8   8   8   8
#     4  10  22  40  62  90 124 166 208 262 321 381
#     4  11  22  38  61  91 124 162 209 263 318 378
#     4  11  21  36  60  90 122 158 207 268 317 367
#     4  10  20  36  60  91 124 162 209 261 316 376
#
# _framework density 21.146004999999999
#
# number of rings (size 3 to 8) (size 9 to 14) (size 15 to 20)
#    0.000    1.500    0.000    6.750    0.000    2.000 
#    0.000    1.250    0.000    9.000    0.000    0.000 
#    0.000    0.000    0.000    0.000    0.000    0.000 
#
# Total GULP energy -89138.170674 kJ/mol
# GULP energy per Si atom -5571.135667 kJ/mol
# Density = 2.109788 g / cm^3
# Si number density = 21.146005 Si / 1000 Ang^3
#
#
#
# Elastic Constant Matrix: (Units=GPa)
#
#
# Indices 1 2 3 4 5 6 
#
# 1 127.0544 30.3988 41.7450 0.0000 -31.2376 0.0000
# 2 30.3988 114.5990 51.6772 -0.0001 3.2588 0.0000
# 3 41.7450 51.6772 141.8525 -0.0001 -15.5625 0.0001
# 4 0.0000 -0.0001 -0.0001 46.9289 0.0001 -7.0415
# 5 -31.2376 3.2588 -15.5625 0.0001 40.4281 -0.0001
# 6 0.0000 0.0000 0.0001 -7.0415 -0.0001 14.1511
#
#
#
# Elastic Compliance Matrix: (Units=1/GPa)
#
#
# Indices 1 2 3 4 5 6 
#
# 1 0.010922 -0.002487 -0.001420 0.000000 0.008093 0.000000
# 2 -0.002487 0.011237 -0.003834 0.000000 -0.004303 0.000000
# 3 -0.001420 -0.003834 0.009165 0.000000 0.002739 0.000000
# 4 0.000000 0.000000 0.000000 0.023028 0.000000 0.011459
# 5 0.008093 -0.004303 0.002739 0.000000 0.032390 0.000000
# 6 0.000000 0.000000 0.000000 0.011459 0.000000 0.076368
#
#
# Mechanical properties :
#
#
# Convention : Reuss Voigt Hill
#
# Bulk Modulus (GPa) = 63.12503 70.12755 66.62629
# Shear Modulus (GPa) = 27.19277 37.61393 32.40335
#
# Velocity S-wave (km/s) = 3.58991 4.22213 3.91879
# Velocity P-wave (km/s) = 6.86295 7.55010 7.21471
#
# Compressibility (1/GPa) = 0.01584158
#
# Stress axis : x y z
#
# Youngs Moduli (GPa) = 91.55827 88.99192 109.11289
#
# Poissons Ratio (x) = 0.22131 0.15498
# Poissons Ratio (y) = 0.22769 0.41833
# Poissons Ratio (z) = 0.13005 0.34119
#
# Static dielectric constant tensor:
#      x y z
#    x 1.852550 0.000000 0.058810 
#    y 0.000000 1.838380 0.000000 
#    z 0.058810 0.000000 1.801440 
# 
# From -- ./inp_files/27862.got.cif
#   From: 2010.05.17/outbox.cif.g08.bks.cpg/sg15_14_cif.got.tgz:27862.got - 2010.06.03 18:47:42.
