data_PCOD9271699
_publ_section_title
;
Structure prediction by ZEFSAII (Michael W. Deem and Ramdas Pophale) SiO2 
 PCOD9271699
Probable space group: C 2/C
;
_chemical_formula_sum "Si O2"
_cell_formula_units_Z 60
_cell_length_a 21.206085
_cell_length_b 11.553248
_cell_length_c 14.349463
_cell_angle_alpha 90.000000
_cell_angle_beta 138.668756
_cell_angle_gamma 90.000000
_cell_volume 2321.745969
_symmetry_space_group_name_H-M "C 2/C"
_symmetry_group_IT_number 15
_symmetry_cell_setting 'monoclinic'
loop_
_space_group_symop_operation_xyz
x,y,z
-x,y,1/2-z
-x,-y,-z
x,-y,1/2+z
1/2+x,1/2+y,z
1/2-x,1/2+y,1/2-z
1/2-x,1/2-y,-z
1/2+x,1/2-y,1/2+z
loop_
_atom_site_type_symbol
_atom_site_label
_atom_site_fract_x
_atom_site_fract_y
_atom_site_fract_z
Si Si1 0.500000 0.065729 0.750000
Si Si2 0.645716 0.855585 0.727723
Si Si3 0.429316 0.886052 0.515459
Si Si4 0.908183 0.125324 0.877502
Si Si5 0.099009 0.882744 0.919060
Si Si6 0.433316 0.641421 0.589939
Si Si7 0.700308 0.926087 0.418936
Si Si8 0.260896 0.966867 0.822511
O O1 0.407145 0.129625 0.690051
O O2 0.457764 0.979165 0.625680
O O3 0.531401 0.870462 0.578090
O O4 0.645157 0.719369 0.748818
O O5 0.677687 0.952169 0.838052
O O6 0.713069 0.860027 0.712386
O O7 0.391763 0.764644 0.513986
O O8 0.339438 0.943480 0.366585
O O9 0.841915 0.015059 0.809033
O O10 0.003629 0.102931 0.927977
O O11 0.922400 0.161907 0.000386
O O12 0.000000 0.865214 0.750000
O O13 0.115459 0.023150 0.933461
O O14 0.210167 0.850717 0.019585
O O15 0.500000 0.675316 0.750000
O O16 0.728820 0.952287 0.556935
#
# Coordination Sequence:
#
# PCOD9271699 Si02
#       8
#     4   8   8   8   8   8   8   8
#     4   8  16  34  56  92 128 158 210 260 322 380
#     4  10  22  41  60  91 135 166 220 267 326 395
#     4   9  18  32  59  89 130 164 203 263 329 381
#     4  11  24  40  63  94 128 173 217 271 329 391
#     4  11  23  42  64  89 135 179 224 263 322 397
#     4  10  20  36  60  95 129 165 209 263 323 383
#     4  10  21  39  66  95 128 173 212 274 325 385
#     4  11  21  36  64  94 124 166 217 267 334 382
#
# _framework density 25.84262
#
# number of rings (size 3 to 8) (size 9 to 14) (size 15 to 20)
#    0.000    1.867    2.000    2.400    3.733    0.533 
#    0.000    0.667   14.667    0.000    0.000    0.000 
#    0.000    0.000    0.000    0.000    0.000    0.000 
#
# Total GULP energy -167361.127477 kJ/mol
# GULP energy per Si atom -5578.704249 kJ/mol
# Density = 2.578380 g / cm^3
# Si number density = 25.842620 Si / 1000 Ang^3
#
#
#
# Elastic Constant Matrix: (Units=GPa)
#
#
# Indices 1 2 3 4 5 6 
#
# 1 125.1312 10.2610 58.1487 0.0000 2.9304 0.0000
# 2 10.2610 62.0026 19.5524 0.0000 17.1863 0.0000
# 3 58.1487 19.5524 115.8586 0.0000 15.7912 0.0000
# 4 0.0000 0.0000 0.0000 21.0000 0.0000 9.6344
# 5 2.9304 17.1863 15.7912 0.0000 45.7960 0.0000
# 6 0.0000 0.0000 0.0000 9.6344 0.0000 29.4111
#
#
#
# Elastic Compliance Matrix: (Units=1/GPa)
#
#
# Indices 1 2 3 4 5 6 
#
# 1 0.010494 -0.000411 -0.005380 0.000000 0.001338 0.000000
# 2 -0.000411 0.018579 -0.002080 0.000000 -0.006229 0.000000
# 3 -0.005380 -0.002080 0.012098 0.000000 -0.003047 0.000000
# 4 0.000000 0.000000 0.000000 0.056041 0.000000 -0.018358
# 5 0.001338 -0.006229 -0.003047 0.000000 0.025138 0.000000
# 6 0.000000 0.000000 0.000000 -0.018358 0.000000 0.040014
#
#
# Mechanical properties :
#
#
# Convention : Reuss Voigt Hill
#
# Bulk Modulus (GPa) = 39.32597 53.21298 46.26947
# Shear Modulus (GPa) = 26.79782 33.57679 30.18730
#
# Velocity S-wave (km/s) = 3.22368 3.60846 3.42149
# Velocity P-wave (km/s) = 5.39506 6.16419 5.79240
#
# Compressibility (1/GPa) = 0.02542849
#
# Stress axis : x y z
#
# Youngs Moduli (GPa) = 95.29242 53.82458 82.66091
#
# Poissons Ratio (x) = 0.02212 0.44470
# Poissons Ratio (y) = 0.03916 0.17195
# Poissons Ratio (z) = 0.51266 0.11196
#
# Static dielectric constant tensor:
#      x y z
#    x 2.073860 0.000000 0.031400 
#    y 0.000000 2.125950 0.000000 
#    z 0.031400 0.000000 2.077410 
# 
# From -- ./inp_files/168647.got.cif
#   From: 2010.05.17/outbox.cif.g08.bks.cpg/sg15_85_cif.got.tgz:168647.got - 2010.06.03 18:47:42.
