data_PCOD9271114
_publ_section_title
;
Structure prediction by ZEFSAII (Michael W. Deem and Ramdas Pophale) SiO2 
 PCOD9271114
Probable space group: C 2/C
;
_chemical_formula_sum "Si O2"
_cell_formula_units_Z 48
_cell_length_a 17.015493
_cell_length_b 29.325108
_cell_length_c 9.143000
_cell_angle_alpha 90.000000
_cell_angle_beta 29.668635
_cell_angle_gamma 90.000000
_cell_volume 2258.204328
_symmetry_space_group_name_H-M "C 2/C"
_symmetry_group_IT_number 15
_symmetry_cell_setting 'monoclinic'
loop_
_space_group_symop_operation_xyz
x,y,z
-x,y,1/2-z
-x,-y,-z
x,-y,1/2+z
1/2+x,1/2+y,z
1/2-x,1/2+y,1/2-z
1/2-x,1/2-y,-z
1/2+x,1/2-y,1/2+z
loop_
_atom_site_type_symbol
_atom_site_label
_atom_site_fract_x
_atom_site_fract_y
_atom_site_fract_z
Si Si1 0.500000 0.242801 0.250000
Si Si2 0.000000 0.019626 0.750000
Si Si3 0.654168 0.445023 0.293520
Si Si4 0.253559 0.197436 0.160782
Si Si5 0.500000 0.909020 0.750000
Si Si6 0.360453 0.835162 0.775904
Si Si7 0.950608 0.846232 0.038259
Si Si8 0.500000 0.267869 0.750000
O O1 0.369152 0.273110 0.542420
O O2 0.580847 0.210862 0.240993
O O3 0.102546 0.986687 0.479308
O O4 0.100947 0.047415 0.709264
O O5 0.575080 0.397470 0.473934
O O6 0.841384 0.438096 0.008857
O O7 0.357779 0.169430 0.107805
O O8 0.135854 0.163920 0.266606
O O9 0.129581 0.266705 0.106139
O O10 0.472908 0.874723 0.657242
O O11 0.178738 0.843625 0.122604
O O12 0.909731 0.802985 0.002003
#
# Coordination Sequence:
#
# PCOD9271114 Si02
#       8
#     4   4   8   8   4   8   8   4
#     4  11  18  33  56  76 115 165 220 262 293 348
#     4  10  23  45  74  99 132 156 207 260 338 412
#     4  10  23  44  70 102 126 167 205 267 329 396
#     4  12  22  36  57  84 122 174 218 261 300 360
#     4   9  22  38  68  96 126 158 204 264 312 380
#     4  10  20  36  57  85 114 166 219 255 295 367
#     4  11  22  38  62  87 123 168 213 261 309 374
#     4  12  25  38  50  91 133 167 219 270 317 338
#
# _framework density 21.255825000000002
#
# number of rings (size 3 to 8) (size 9 to 14) (size 15 to 20)
#    0.000    1.333    3.333    2.500    4.667    0.667 
#    3.000    0.000    0.000    0.000    0.000    0.000 
#    0.000    0.000    0.000    0.000    0.000    0.000 
#
# Total GULP energy -133933.142542 kJ/mol
# GULP energy per Si atom -5580.547606 kJ/mol
# Density = 2.120745 g / cm^3
# Si number density = 21.255825 Si / 1000 Ang^3
#
#
#
# Elastic Constant Matrix: (Units=GPa)
#
#
# Indices 1 2 3 4 5 6 
#
# 1 115.9985 35.6877 42.8295 0.0000 -25.1110 0.0000
# 2 35.6877 83.7871 56.4298 0.0000 -20.2189 0.0000
# 3 42.8295 56.4298 74.5643 0.0000 -11.8725 0.0000
# 4 0.0000 0.0000 0.0000 12.2165 0.0000 1.1004
# 5 -25.1110 -20.2189 -11.8725 0.0000 36.2583 0.0000
# 6 0.0000 0.0000 0.0000 1.1004 0.0000 7.1086
#
#
#
# Elastic Compliance Matrix: (Units=1/GPa)
#
#
# Indices 1 2 3 4 5 6 
#
# 1 0.012275 0.000887 -0.006636 0.000000 0.006823 0.000000
# 2 0.000887 0.026795 -0.019318 0.000000 0.009231 0.000000
# 3 -0.006636 -0.019318 0.031013 0.000000 -0.005213 0.000000
# 4 0.000000 0.000000 0.000000 0.083014 0.000000 -0.012850
# 5 0.006823 0.009231 -0.005213 0.000000 0.035746 0.000000
# 6 0.000000 0.000000 0.000000 -0.012850 0.000000 0.142663
#
#
# Mechanical properties :
#
#
# Convention : Reuss Voigt Hill
#
# Bulk Modulus (GPa) = 50.12713 60.47152 55.29933
# Shear Modulus (GPa) = 12.87699 20.41023 16.64361
#
# Velocity S-wave (km/s) = 2.46399 3.10210 2.80127
# Velocity P-wave (km/s) = 5.63285 6.42976 6.04445
#
# Compressibility (1/GPa) = 0.01994928
#
# Stress axis : x y z
#
# Youngs Moduli (GPa) = 81.46678 37.31989 32.24477
#
# Poissons Ratio (x) = -0.03312 0.21397
# Poissons Ratio (y) = -0.07229 0.62292
# Poissons Ratio (z) = 0.54060 0.72096
#
# Static dielectric constant tensor:
#      x y z
#    x 1.858660 0.000000 0.004710 
#    y 0.000000 1.764780 0.000000 
#    z 0.004710 0.000000 1.786610 
# 
# From -- ./inp_files/44490.got.cif
#   From: 2010.05.17/outbox.cif.g08.bks.cpg/sg15_23_cif.got.tgz:44490.got - 2010.06.03 18:47:42.
