data_PCOD9271304
_publ_section_title
;
Structure prediction by ZEFSAII (Michael W. Deem and Ramdas Pophale) SiO2 
 PCOD9271304
Probable space group: C 2/C
;
_chemical_formula_sum "Si O2"
_cell_formula_units_Z 56
_cell_length_a 24.075144
_cell_length_b 5.168083
_cell_length_c 23.933813
_cell_angle_alpha 90.000000
_cell_angle_beta 109.989712
_cell_angle_gamma 90.000000
_cell_volume 2798.494504
_symmetry_space_group_name_H-M "C 2/C"
_symmetry_group_IT_number 15
_symmetry_cell_setting 'monoclinic'
loop_
_space_group_symop_operation_xyz
x,y,z
-x,y,1/2-z
-x,-y,-z
x,-y,1/2+z
1/2+x,1/2+y,z
1/2-x,1/2+y,1/2-z
1/2-x,1/2-y,-z
1/2+x,1/2-y,1/2+z
loop_
_atom_site_type_symbol
_atom_site_label
_atom_site_fract_x
_atom_site_fract_y
_atom_site_fract_z
Si Si1 0.061879 0.033255 0.126137
Si Si2 0.048826 0.523449 0.191254
Si Si3 0.849253 0.945414 0.945813
Si Si4 0.723042 0.967907 0.552552
Si Si5 0.581115 0.853510 0.826057
Si Si6 0.327884 0.872703 0.079208
Si Si7 0.427300 0.537239 0.075595
O O1 0.060235 0.742134 0.148976
O O2 0.994710 0.083349 0.082179
O O3 0.072728 0.248146 0.178141
O O4 0.109078 0.056205 0.093511
O O5 0.073871 0.646874 0.257011
O O6 0.978297 0.488365 0.176758
O O7 0.800238 0.722115 0.925807
O O8 0.816477 0.220389 0.942466
O O9 0.890939 0.891736 0.014350
O O10 0.712102 0.002692 0.482055
O O11 0.790305 0.877800 0.583957
O O12 0.645869 0.964878 0.861597
O O13 0.574664 0.605868 0.864774
O O14 0.388463 0.792711 0.069533
#
# Coordination Sequence:
#
# PCOD9271304 Si02
#       7
#     8   8   8   8   8   8   8
#     4  11  22  39  57  86 121 160 194 235 290 366
#     4  10  23  36  59  86 119 156 194 241 302 345
#     4  11  22  39  58  85 124 158 194 235 289 365
#     4  10  23  36  59  88 117 158 191 239 299 343
#     4  10  20  36  58  88 121 146 196 252 300 350
#     4  10  20  36  59  87 122 144 196 248 298 349
#     4  10  21  35  60  92 117 150 191 246 311 343
#
# _framework density 20.010757000000002
#
# number of rings (size 3 to 8) (size 9 to 14) (size 15 to 20)
#    0.000    1.714    2.857    1.286    4.000    2.857 
#    0.000    4.286    0.000    3.429    0.000    0.000 
#    0.000    0.000    0.000    0.000    0.000    0.000 
#
# Total GULP energy -156146.595719 kJ/mol
# GULP energy per Si atom -5576.664133 kJ/mol
# Density = 1.996521 g / cm^3
# Si number density = 20.010757 Si / 1000 Ang^3
#
#
#
# Elastic Constant Matrix: (Units=GPa)
#
#
# Indices 1 2 3 4 5 6 
#
# 1 96.2071 23.5296 29.7013 0.0000 -6.5963 0.0002
# 2 23.5296 70.2718 16.9918 0.0006 -1.3422 -0.0014
# 3 29.7013 16.9918 56.1440 -0.0001 1.7546 0.0000
# 4 0.0000 0.0006 -0.0001 12.0477 -0.0001 2.3893
# 5 -6.5963 -1.3422 1.7546 -0.0001 26.1487 0.0003
# 6 0.0002 -0.0014 0.0000 2.3893 0.0003 34.2577
#
#
#
# Elastic Compliance Matrix: (Units=1/GPa)
#
#
# Indices 1 2 3 4 5 6 
#
# 1 0.013279 -0.002860 -0.006272 0.000000 0.003624 0.000000
# 2 -0.002860 0.016002 -0.003340 -0.000001 0.000324 0.000001
# 3 -0.006272 -0.003340 0.022242 0.000000 -0.003246 0.000000
# 4 0.000000 -0.000001 0.000000 0.084168 0.000000 -0.005870
# 5 0.003624 0.000324 -0.003246 0.000000 0.039391 0.000000
# 6 0.000000 0.000001 0.000000 -0.005870 0.000000 0.029600
#
#
# Mechanical properties :
#
#
# Convention : Reuss Voigt Hill
#
# Bulk Modulus (GPa) = 37.62596 40.34095 38.98345
# Shear Modulus (GPa) = 20.96562 24.65081 22.80821
#
# Velocity S-wave (km/s) = 3.24036 3.51362 3.37975
# Velocity P-wave (km/s) = 5.73093 6.05509 5.89524
#
# Compressibility (1/GPa) = 0.02657740
#
# Stress axis : x y z
#
# Youngs Moduli (GPa) = 75.30889 62.49222 44.96049
#
# Poissons Ratio (x) = 0.17875 0.28200
# Poissons Ratio (y) = 0.21541 0.15016
# Poissons Ratio (z) = 0.47236 0.20872
#
# Static dielectric constant tensor:
#      x y z
#    x 1.704400 0.000000 0.034290 
#    y 0.000000 1.773640 0.000000 
#    z 0.034290 0.000000 1.736200 
# 
# From -- ./inp_files/278678.got.cif
#   From: 2010.05.17/outbox.cif.g08.bks.cpg/sg15_140_cif.got.tgz:278678.got - 2010.06.03 18:47:42.
