data_PCOD9271134
_publ_section_title
;
Structure prediction by ZEFSAII (Michael W. Deem and Ramdas Pophale) SiO2 
 PCOD9271134
Probable space group: C 2/C
;
_chemical_formula_sum "Si O2"
_cell_formula_units_Z 56
_cell_length_a 24.407261
_cell_length_b 11.464006
_cell_length_c 30.111343
_cell_angle_alpha 90.000000
_cell_angle_beta 160.008363
_cell_angle_gamma 90.000000
_cell_volume 2880.468016
_symmetry_space_group_name_H-M "C 2/C"
_symmetry_group_IT_number 15
_symmetry_cell_setting 'monoclinic'
loop_
_space_group_symop_operation_xyz
x,y,z
-x,y,1/2-z
-x,-y,-z
x,-y,1/2+z
1/2+x,1/2+y,z
1/2-x,1/2+y,1/2-z
1/2-x,1/2-y,-z
1/2+x,1/2-y,1/2+z
loop_
_atom_site_type_symbol
_atom_site_label
_atom_site_fract_x
_atom_site_fract_y
_atom_site_fract_z
Si Si1 0.811759 0.733519 0.097225
Si Si2 0.885177 0.176998 0.421008
Si Si3 0.168289 0.487402 0.696455
Si Si4 0.246670 0.171099 0.667193
Si Si5 0.320041 0.513834 0.452476
Si Si6 0.629391 0.571349 0.235304
Si Si7 0.186796 0.396644 0.076316
O O1 0.712264 0.824810 0.050976
O O2 0.000000 0.754842 0.250000
O O3 0.750000 0.750000 0.000000
O O4 0.774111 0.605099 0.088630
O O5 0.754977 0.114078 0.291194
O O6 0.906531 0.091415 0.479814
O O7 0.822929 0.298658 0.392588
O O8 0.054421 0.188614 0.525190
O O9 0.201263 0.607233 0.747583
O O10 0.248817 0.474556 0.710048
O O11 0.980685 0.463869 0.551222
O O12 0.330794 0.294514 0.725777
O O13 0.277636 0.081381 0.650409
O O14 0.452852 0.448942 0.582488
O O15 0.670024 0.486840 0.306909
#
# Coordination Sequence:
#
# PCOD9271134 Si02
#       7
#     8   8   8   8   8   8   8
#     4  11  26  48  75  96 118 161 225 293 340 362
#     4  10  20  36  57  86 130 174 203 249 309 379
#     4  11  22  35  56  89 135 175 206 242 303 392
#     4  11  22  36  57  89 134 178 202 237 313 392
#     4  10  22  41  62  89 124 164 211 266 316 374
#     4  12  23  35  60  92 135 171 209 244 304 399
#     4  11  26  36  63  96 127 160 217 271 315 365
#
# _framework density 19.441285000000001
#
# number of rings (size 3 to 8) (size 9 to 14) (size 15 to 20)
#    0.000    1.143    4.286    2.143   14.000    0.000 
#    0.000    0.000    0.000    4.286    0.000    0.000 
#    0.000    0.000    0.000    0.000    0.000    0.000 
#
# Total GULP energy -156515.041108 kJ/mol
# GULP energy per Si atom -5589.822897 kJ/mol
# Density = 1.939704 g / cm^3
# Si number density = 19.441285 Si / 1000 Ang^3
#
#
#
# Elastic Constant Matrix: (Units=GPa)
#
#
# Indices 1 2 3 4 5 6 
#
# 1 56.3557 12.3606 -0.1778 -0.0007 -18.8799 -0.0010
# 2 12.3606 120.5388 11.2369 0.0026 -21.0806 0.0059
# 3 -0.1778 11.2369 54.4399 -0.0020 -12.2272 0.0068
# 4 -0.0007 0.0026 -0.0020 28.8122 -0.0018 -3.1903
# 5 -18.8799 -21.0806 -12.2272 -0.0018 24.5916 0.0001
# 6 -0.0010 0.0059 0.0068 -3.1903 0.0001 10.9905
#
#
#
# Elastic Compliance Matrix: (Units=1/GPa)
#
#
# Indices 1 2 3 4 5 6 
#
# 1 0.025102 0.000900 0.004951 0.000002 0.022505 -0.000001
# 2 0.000900 0.009793 0.000025 -0.000001 0.009098 -0.000006
# 3 0.004951 0.000025 0.021657 0.000001 0.014591 -0.000013
# 4 0.000002 -0.000001 0.000001 0.035860 0.000004 0.010409
# 5 0.022505 0.009098 0.014591 0.000004 0.072996 -0.000011
# 6 -0.000001 -0.000006 -0.000013 0.010409 -0.000011 0.094010
#
#
# Mechanical properties :
#
#
# Convention : Reuss Voigt Hill
#
# Bulk Modulus (GPa) = 14.64044 30.90821 22.77432
# Shear Modulus (GPa) = 18.48887 26.73984 22.61436
#
# Velocity S-wave (km/s) = 3.08719 3.71268 3.41429
# Velocity P-wave (km/s) = 4.50051 5.85760 5.22332
#
# Compressibility (1/GPa) = 0.06830394
#
# Stress axis : x y z
#
# Youngs Moduli (GPa) = 39.83725 102.11829 46.17465
#
# Poissons Ratio (x) = -0.09193 -0.22860
# Poissons Ratio (y) = -0.03586 -0.00116
# Poissons Ratio (z) = -0.19723 -0.00256
#
# Static dielectric constant tensor:
#      x y z
#    x 1.673790 0.000000 -0.034170 
#    y 0.000000 1.687420 -0.000010 
#    z -0.034170 -0.000010 1.693360 
# 
# From -- ./inp_files/319544.got.cif
#   From: 2010.05.17/outbox.cif.g08.bks.cpg/sg15_160_cif.got.tgz:319544.got - 2010.06.03 18:47:42.
