data_PCOD9271018
_publ_section_title
;
Structure prediction by ZEFSAII (Michael W. Deem and Ramdas Pophale) SiO2 
 PCOD9271018
Probable space group: C 2/C
;
_chemical_formula_sum "Si O2"
_cell_formula_units_Z 56
_cell_length_a 7.503090
_cell_length_b 12.540679
_cell_length_c 24.956754
_cell_angle_alpha 90.000000
_cell_angle_beta 104.185876
_cell_angle_gamma 90.000000
_cell_volume 2276.668052
_symmetry_space_group_name_H-M "C 2/C"
_symmetry_group_IT_number 15
_symmetry_cell_setting 'monoclinic'
loop_
_space_group_symop_operation_xyz
x,y,z
-x,y,1/2-z
-x,-y,-z
x,-y,1/2+z
1/2+x,1/2+y,z
1/2-x,1/2+y,1/2-z
1/2-x,1/2-y,-z
1/2+x,1/2-y,1/2+z
loop_
_atom_site_type_symbol
_atom_site_label
_atom_site_fract_x
_atom_site_fract_y
_atom_site_fract_z
Si Si1 0.129778 0.644179 0.543453
Si Si2 0.258682 0.399282 0.692942
Si Si3 0.287880 0.833817 0.186272
Si Si4 0.500000 0.989028 0.750000
Si Si5 0.446387 0.409110 0.427086
Si Si6 0.946873 0.138410 0.051195
Si Si7 0.945872 0.412482 0.926850
Si Si8 0.000000 0.920626 0.250000
O O1 0.343673 0.624600 0.568492
O O2 0.032454 0.537988 0.559008
O O3 0.046961 0.749297 0.563642
O O4 0.093500 0.644910 0.476114
O O5 0.357503 0.286685 0.694374
O O6 0.166893 0.416831 0.743862
O O7 0.088423 0.397833 0.638494
O O8 0.393758 0.500665 0.700262
O O9 0.180132 0.849876 0.123669
O O10 0.438833 0.926196 0.200567
O O11 0.147140 0.855150 0.225750
O O12 0.433907 0.537202 0.420947
O O13 0.407671 0.380108 0.485475
O O14 0.750910 0.127280 0.064870
#
# Coordination Sequence:
#
# PCOD9271018 Si02
#       8
#     8   8   8   4   8   8   8   4
#     4  10  20  36  56  86 125 162 197 244 295 353
#     4  11  23  43  65  89 121 159 200 254 308 355
#     4  11  23  43  65  89 121 159 200 254 308 355
#     4  10  26  42  64  94 116 154 210 254 304 370
#     4  10  22  36  57  88 120 158 205 242 294 368
#     4  10  20  36  56  86 125 162 197 244 295 353
#     4  10  22  36  57  88 120 158 205 242 294 368
#     4  10  22  42  64  90 120 150 206 258 300 362
#
# _framework density 24.597349999999999
#
# number of rings (size 3 to 8) (size 9 to 14) (size 15 to 20)
#    0.000    1.714    0.000    4.286    0.000    6.857 
#    0.000    7.143    0.000    0.000    0.000    0.000 
#    0.000    0.000    0.000    0.000    0.000    0.000 
#
# Total GULP energy -156784.955793 kJ/mol
# GULP energy per Si atom -5599.462707 kJ/mol
# Density = 2.454137 g / cm^3
# Si number density = 24.597350 Si / 1000 Ang^3
#
#
#
# Elastic Constant Matrix: (Units=GPa)
#
#
# Indices 1 2 3 4 5 6 
#
# 1 36.0964 12.3614 -13.7407 0.0000 -7.2595 0.0000
# 2 12.3614 158.5057 11.0919 0.0000 -4.2289 0.0000
# 3 -13.7407 11.0919 64.4451 0.0000 18.9145 0.0000
# 4 0.0000 0.0000 0.0000 22.6701 0.0000 -4.7231
# 5 -7.2595 -4.2289 18.9145 0.0000 29.7526 0.0000
# 6 0.0000 0.0000 0.0000 -4.7231 0.0000 14.3289
#
#
#
# Elastic Compliance Matrix: (Units=1/GPa)
#
#
# Indices 1 2 3 4 5 6 
#
# 1 0.031731 -0.002824 0.006266 0.000000 0.003357 0.000000
# 2 -0.002824 0.006733 -0.002261 0.000000 0.001706 0.000000
# 3 0.006266 -0.002261 0.020762 0.000000 -0.011991 0.000000
# 4 0.000000 0.000000 0.000000 0.047364 0.000000 0.015612
# 5 0.003357 0.001706 -0.011991 0.000000 0.042295 0.000000
# 6 0.000000 0.000000 0.000000 0.015612 0.000000 0.074935
#
#
# Mechanical properties :
#
#
# Convention : Reuss Voigt Hill
#
# Bulk Modulus (GPa) = 16.23694 30.94138 23.58916
# Shear Modulus (GPa) = 20.66232 29.97264 25.31748
#
# Velocity S-wave (km/s) = 2.90146 3.49453 3.21171
# Velocity P-wave (km/s) = 4.22375 5.37483 4.83368
#
# Compressibility (1/GPa) = 0.06158796
#
# Stress axis : x y z
#
# Youngs Moduli (GPa) = 31.51490 148.52483 48.16546
#
# Poissons Ratio (x) = 0.41936 -0.30181
# Poissons Ratio (y) = 0.08898 0.10892
# Poissons Ratio (z) = -0.19748 0.33588
#
# Static dielectric constant tensor:
#      x y z
#    x 1.928370 0.000000 0.004970 
#    y 0.000000 1.955040 0.000000 
#    z 0.004970 0.000000 1.974690 
# 
# From -- ./inp_files/288096.got.cif
#   From: 2010.05.17/outbox.cif.g08.bks.cpg/sg15_145_cif.got.tgz:288096.got - 2010.06.03 18:47:42.
