data_PCOD9271222
_publ_section_title
;
Structure prediction by ZEFSAII (Michael W. Deem and Ramdas Pophale) SiO2 
 PCOD9271222
Probable space group: C 2/C
;
_chemical_formula_sum "Si O2"
_cell_formula_units_Z 64
_cell_length_a 12.864969
_cell_length_b 19.655242
_cell_length_c 11.623153
_cell_angle_alpha 90.000000
_cell_angle_beta 68.193442
_cell_angle_gamma 90.000000
_cell_volume 2728.767207
_symmetry_space_group_name_H-M "C 2/C"
_symmetry_group_IT_number 15
_symmetry_cell_setting 'monoclinic'
loop_
_space_group_symop_operation_xyz
x,y,z
-x,y,1/2-z
-x,-y,-z
x,-y,1/2+z
1/2+x,1/2+y,z
1/2-x,1/2+y,1/2-z
1/2-x,1/2-y,-z
1/2+x,1/2-y,1/2+z
loop_
_atom_site_type_symbol
_atom_site_label
_atom_site_fract_x
_atom_site_fract_y
_atom_site_fract_z
Si Si1 0.980021 0.078123 0.029690
Si Si2 0.868274 0.159433 0.670156
Si Si3 0.408556 0.010149 0.198078
Si Si4 0.300124 0.425226 0.776398
Si Si5 0.197402 0.060863 0.592440
Si Si6 0.245080 0.716752 0.198127
Si Si7 0.049080 0.403252 0.479678
Si Si8 0.926867 0.741086 0.439437
O O1 0.882142 0.088873 0.974321
O O2 0.093272 0.119340 0.959218
O O3 0.922746 0.085491 0.175310
O O4 0.000000 0.000000 0.000000
O O5 0.845484 0.103024 0.777498
O O6 0.769523 0.214261 0.721522
O O7 0.977227 0.207586 0.637527
O O8 0.500000 0.033104 0.250000
O O9 0.281558 0.029270 0.273604
O O10 0.429197 0.931714 0.157432
O O11 0.444777 0.053537 0.070969
O O12 0.307952 0.479582 0.878415
O O13 0.248974 0.349278 0.778693
O O14 0.327722 0.079499 0.517928
O O15 0.146460 0.718246 0.141221
O O16 0.351815 0.725432 0.070840
O O17 0.025299 0.326289 0.520110
#
# Coordination Sequence:
#
# PCOD9271222 Si02
#       8
#     8   8   8   8   8   8   8   8
#     4  12  23  37  61  90 118 154 198 243 297 355
#     4  12  23  37  58  86 121 155 187 246 301 352
#     4  10  20  36  58  83 114 151 195 237 289 343
#     4  11  23  37  59  88 118 157 192 247 296 354
#     4  11  22  39  60  89 121 151 200 242 297 354
#     4  11  21  33  53  82 114 147 189 233 298 343
#     4  10  21  36  57  85 116 151 188 241 291 349
#     4  11  20  32  54  81 113 146 186 236 289 348
#
# _framework density 23.453814999999999
#
# number of rings (size 3 to 8) (size 9 to 14) (size 15 to 20)
#    0.000    1.000    3.750    5.250    0.000    0.000 
#    0.000    0.000    0.000    2.250    0.000    0.000 
#    0.000    0.000    0.000    0.000    0.000    0.000 
#
# Total GULP energy -178399.633669 kJ/mol
# GULP energy per Si atom -5574.988552 kJ/mol
# Density = 2.340043 g / cm^3
# Si number density = 23.453815 Si / 1000 Ang^3
#
#
#
# Elastic Constant Matrix: (Units=GPa)
#
#
# Indices 1 2 3 4 5 6 
#
# 1 43.8546 13.7977 24.2078 0.0000 -8.8226 0.0000
# 2 13.7977 160.0630 38.8933 0.0000 -6.5381 0.0000
# 3 24.2078 38.8933 71.8190 0.0000 -27.7654 0.0000
# 4 0.0000 0.0000 0.0000 40.5262 0.0000 -8.2254
# 5 -8.8226 -6.5381 -27.7654 0.0000 26.3783 0.0000
# 6 0.0000 0.0000 0.0000 -8.2254 0.0000 34.1448
#
#
#
# Elastic Compliance Matrix: (Units=1/GPa)
#
#
# Indices 1 2 3 4 5 6 
#
# 1 0.028030 -0.000083 -0.009757 0.000000 -0.000916 0.000000
# 2 -0.000083 0.007442 -0.005564 0.000000 -0.004040 0.000000
# 3 -0.009757 -0.005564 0.031077 0.000000 0.028069 0.000000
# 4 0.000000 0.000000 0.000000 0.025944 0.000000 0.006250
# 5 -0.000916 -0.004040 0.028069 0.000000 0.066147 0.000000
# 6 0.000000 0.000000 0.000000 0.006250 0.000000 0.030793
#
#
# Mechanical properties :
#
#
# Convention : Reuss Voigt Hill
#
# Bulk Modulus (GPa) = 27.97857 47.72601 37.85229
# Shear Modulus (GPa) = 21.53734 33.46572 27.50153
#
# Velocity S-wave (km/s) = 3.03361 3.78150 3.42801
# Velocity P-wave (km/s) = 4.92194 6.28168 5.64291
#
# Compressibility (1/GPa) = 0.03574164
#
# Stress axis : x y z
#
# Youngs Moduli (GPa) = 35.67546 134.37973 32.17775
#
# Poissons Ratio (x) = 0.01112 0.31397
# Poissons Ratio (y) = 0.00295 0.17903
# Poissons Ratio (z) = 0.34810 0.74766
#
# Static dielectric constant tensor:
#      x y z
#    x 1.913390 0.000000 -0.007710 
#    y 0.000000 1.947060 0.000000 
#    z -0.007710 0.000000 1.949250 
# 
# From -- ./inp_files/155194.got.cif
#   From: 2010.05.17/outbox.cif.g08.bks.cpg/sg15_78_cif.got.tgz:155194.got - 2010.06.03 18:47:42.
