data_PCOD9271977
_publ_section_title
;
Structure prediction by ZEFSAII (Michael W. Deem and Ramdas Pophale) SiO2 
 PCOD9271977
Probable space group: C 2/C
;
_chemical_formula_sum "Si O2"
_cell_formula_units_Z 52
_cell_length_a 17.377100
_cell_length_b 19.124507
_cell_length_c 8.864620
_cell_angle_alpha 90.000000
_cell_angle_beta 54.649464
_cell_angle_gamma 90.000000
_cell_volume 2402.810831
_symmetry_space_group_name_H-M "C 2/C"
_symmetry_group_IT_number 15
_symmetry_cell_setting 'monoclinic'
loop_
_space_group_symop_operation_xyz
x,y,z
-x,y,1/2-z
-x,-y,-z
x,-y,1/2+z
1/2+x,1/2+y,z
1/2-x,1/2+y,1/2-z
1/2-x,1/2-y,-z
1/2+x,1/2-y,1/2+z
loop_
_atom_site_type_symbol
_atom_site_label
_atom_site_fract_x
_atom_site_fract_y
_atom_site_fract_z
Si Si1 0.416495 0.848992 0.565651
Si Si2 0.298214 0.057009 0.013578
Si Si3 0.273827 0.717621 0.138958
Si Si4 0.500000 0.470790 0.750000
Si Si5 0.130682 0.345518 0.306908
Si Si6 0.900620 0.567144 0.367933
Si Si7 0.615985 0.575462 0.405653
O O1 0.385033 0.920891 0.522494
O O2 0.325436 0.799017 0.663269
O O3 0.520758 0.829897 0.392769
O O4 0.417089 0.867205 0.741796
O O5 0.301561 0.121994 0.896173
O O6 0.320963 0.985251 0.905004
O O7 0.207930 0.046896 0.216965
O O8 0.326359 0.777019 0.171311
O O9 0.342623 0.648539 0.069401
O O10 0.250000 0.750000 0.000000
O O11 0.573503 0.523707 0.581182
O O12 0.456911 0.425368 0.657623
O O13 0.124089 0.405460 0.440542
O O14 0.000000 0.528613 0.250000
#
# Coordination Sequence:
#
# PCOD9271977 Si02
#       7
#     8   8   8   4   8   8   8
#     4  10  22  40  61  95 135 172 226 280 335 422
#     4  11  23  39  65 101 130 174 222 281 355 409
#     4  11  24  45  68 102 138 190 242 285 362 430
#     4  10  24  54  70 108 142 182 252 304 364 418
#     4  11  23  40  65  97 140 179 223 288 342 422
#     4  10  20  36  62  95 130 175 218 269 340 409
#     4  10  26  45  76 102 140 187 240 302 358 434
#
# _framework density 21.641321000000001
#
# number of rings (size 3 to 8) (size 9 to 14) (size 15 to 20)
#    0.000    1.538    1.538    2.308    6.462    6.154 
#    8.308    0.000    0.000    0.000    0.000    0.000 
#    0.000    0.000    0.000    0.000    0.000    0.000 
#
# Total GULP energy -144798.282199 kJ/mol
# GULP energy per Si atom -5569.164700 kJ/mol
# Density = 2.159206 g / cm^3
# Si number density = 21.641321 Si / 1000 Ang^3
#
#
#
# Elastic Constant Matrix: (Units=GPa)
#
#
# Indices 1 2 3 4 5 6 
#
# 1 102.5567 43.2452 24.3040 0.0000 -1.1792 0.0000
# 2 43.2452 92.2553 40.2397 0.0000 -10.3182 0.0000
# 3 24.3040 40.2397 85.0935 0.0000 -2.3962 0.0000
# 4 0.0000 0.0000 0.0000 28.8518 0.0000 -0.2766
# 5 -1.1792 -10.3182 -2.3962 0.0000 45.9341 0.0000
# 6 0.0000 0.0000 0.0000 -0.2766 0.0000 11.6972
#
#
#
# Elastic Compliance Matrix: (Units=1/GPa)
#
#
# Indices 1 2 3 4 5 6 
#
# 1 0.012259 -0.005436 -0.000958 0.000000 -0.000956 0.000000
# 2 -0.005436 0.016418 -0.006121 0.000000 0.003229 0.000000
# 3 -0.000958 -0.006121 0.014902 0.000000 -0.000622 0.000000
# 4 0.000000 0.000000 0.000000 0.034668 0.000000 0.000820
# 5 -0.000956 0.003229 -0.000622 0.000000 0.022439 0.000000
# 6 0.000000 0.000000 0.000000 0.000820 0.000000 0.085510
#
#
# Mechanical properties :
#
#
# Convention : Reuss Voigt Hill
#
# Bulk Modulus (GPa) = 53.90457 55.05368 54.47913
# Shear Modulus (GPa) = 22.99831 28.77106 25.88468
#
# Velocity S-wave (km/s) = 3.26345 3.65012 3.46219
# Velocity P-wave (km/s) = 6.25799 6.57715 6.41955
#
# Compressibility (1/GPa) = 0.01855130
#
# Stress axis : x y z
#
# Youngs Moduli (GPa) = 81.57477 60.90782 67.10424
#
# Poissons Ratio (x) = 0.33107 0.06427
# Poissons Ratio (y) = 0.44340 0.41072
# Poissons Ratio (z) = 0.07813 0.37279
#
# Static dielectric constant tensor:
#      x y z
#    x 1.965970 0.000000 0.021100 
#    y 0.000000 1.820870 0.000000 
#    z 0.021100 0.000000 1.832870 
# 
# From -- ./inp_files/50585.got.cif
#   From: 2010.05.17/outbox.cif.g08.bks.cpg/sg15_26_cif.got.tgz:50585.got - 2010.06.03 18:47:42.
