data_PCOD9271632
_publ_section_title
;
Structure prediction by ZEFSAII (Michael W. Deem and Ramdas Pophale) SiO2 
 PCOD9271632
Probable space group: C 2/C
;
_chemical_formula_sum "Si O2"
_cell_formula_units_Z 48
_cell_length_a 18.296872
_cell_length_b 21.467810
_cell_length_c 5.331324
_cell_angle_alpha 90.000000
_cell_angle_beta 98.013043
_cell_angle_gamma 90.000000
_cell_volume 2073.664720
_symmetry_space_group_name_H-M "C 2/C"
_symmetry_group_IT_number 15
_symmetry_cell_setting 'monoclinic'
loop_
_space_group_symop_operation_xyz
x,y,z
-x,y,1/2-z
-x,-y,-z
x,-y,1/2+z
1/2+x,1/2+y,z
1/2-x,1/2+y,1/2-z
1/2-x,1/2-y,-z
1/2+x,1/2-y,1/2+z
loop_
_atom_site_type_symbol
_atom_site_label
_atom_site_fract_x
_atom_site_fract_y
_atom_site_fract_z
Si Si1 0.135942 0.155617 0.690012
Si Si2 0.666823 0.164078 0.895166
Si Si3 0.500000 0.257916 0.250000
Si Si4 0.789420 0.202398 0.279740
Si Si5 0.114340 0.018889 0.877234
Si Si6 0.500000 0.819047 0.250000
Si Si7 0.216565 0.526684 0.939897
O O1 0.167749 0.167624 0.428085
O O2 0.114938 0.085317 0.742668
O O3 0.066016 0.199188 0.690104
O O4 0.188512 0.175582 0.944421
O O5 0.703967 0.187735 0.174174
O O6 0.706069 0.098221 0.855037
O O7 0.687060 0.225410 0.740751
O O8 0.579472 0.150822 0.855015
O O9 0.519229 0.218593 0.505817
O O10 0.080902 0.976447 0.639795
O O11 0.198409 0.995210 0.975152
O O12 0.183726 0.514861 0.200161
#
# Coordination Sequence:
#
# PCOD9271632 Si02
#       7
#     8   8   4   8   8   4   8
#     4  12  22  43  67  98 136 171 216 272 330 391
#     4  11  24  43  67  99 133 173 218 273 327 394
#     4  12  24  44  64  98 136 178 204 264 346 402
#     4  11  24  38  69 101 128 164 228 273 328 382
#     4  10  20  36  60  89 124 170 212 261 316 369
#     4  12  26  46  62  98 140 174 204 270 344 394
#     4  10  21  38  61  89 126 167 215 264 318 367
#
# _framework density 23.147427
#
# number of rings (size 3 to 8) (size 9 to 14) (size 15 to 20)
#    0.000    1.000    3.333    5.000    0.000    6.667 
#    0.000    1.667    0.000    0.000    0.000    0.000 
#    0.000    0.000    0.000    0.000    0.000    0.000 
#
# Total GULP energy -134003.483656 kJ/mol
# GULP energy per Si atom -5583.478486 kJ/mol
# Density = 2.309474 g / cm^3
# Si number density = 23.147427 Si / 1000 Ang^3
#
#
#
# Elastic Constant Matrix: (Units=GPa)
#
#
# Indices 1 2 3 4 5 6 
#
# 1 92.6097 -14.6848 14.4419 0.0000 12.4356 0.0000
# 2 -14.6848 82.2300 15.2804 0.0000 -5.8401 0.0000
# 3 14.4419 15.2804 156.3441 0.0000 -15.1690 0.0000
# 4 0.0000 0.0000 0.0000 -2.3630 0.0000 -111.9983
# 5 12.4356 -5.8401 -15.1690 0.0000 28.8480 0.0000
# 6 0.0000 0.0000 0.0000 -111.9983 0.0000 -415.4687
#
#
#
# Elastic Compliance Matrix: (Units=1/GPa)
#
#
# Indices 1 2 3 4 5 6 
#
# 1 0.012214 0.002120 -0.001902 0.000000 -0.005836 0.000000
# 2 0.002120 0.012861 -0.001358 0.000000 0.000976 0.000000
# 3 -0.001902 -0.001358 0.007121 0.000000 0.004289 0.000000
# 4 0.000000 0.000000 0.000000 0.035934 0.000000 -0.009687
# 5 -0.005836 0.000976 0.004289 0.000000 0.039633 0.000000
# 6 0.000000 0.000000 0.000000 -0.009687 0.000000 0.000204
#
#
# Mechanical properties :
#
#
# Convention : Reuss Voigt Hill
#
# Bulk Modulus (GPa) = 33.42588 40.13985 36.78286
# Shear Modulus (GPa) = 41.59043 -56.72032 -7.56495
#
# Velocity S-wave (km/s) = 4.24342 -4.95552 -1.80977
# Velocity P-wave (km/s) = 6.20327 3.91973 3.39973
#
# Compressibility (1/GPa) = 0.02991694
#
# Stress axis : x y z
#
# Youngs Moduli (GPa) = 81.87046 77.75254 140.43566
#
# Poissons Ratio (x) = -0.16485 0.26707
# Poissons Ratio (y) = -0.17358 0.19074
# Poissons Ratio (z) = 0.15569 0.10560
#
# Static dielectric constant tensor:
#      x y z
#    x 1.500660 0.000000 -0.127520 
#    y 0.000000 1.922630 0.000000 
#    z -0.127520 0.000000 1.910590 
# 
# From -- ./inp_files/13257.got.cif
#   From: 2010.05.17/outbox.cif.g08.bks.cpg/sg15_7_cif.got.tgz:13257.got - 2010.06.03 18:47:42.
