data_PCOD9271601
_publ_section_title
;
Structure prediction by ZEFSAII (Michael W. Deem and Ramdas Pophale) SiO2 
 PCOD9271601
Probable space group: C 2/C
;
_chemical_formula_sum "Si O2"
_cell_formula_units_Z 48
_cell_length_a 19.551956
_cell_length_b 13.573774
_cell_length_c 18.630062
_cell_angle_alpha 90.000000
_cell_angle_beta 156.303953
_cell_angle_gamma 90.000000
_cell_volume 1987.039460
_symmetry_space_group_name_H-M "C 2/C"
_symmetry_group_IT_number 15
_symmetry_cell_setting 'monoclinic'
loop_
_space_group_symop_operation_xyz
x,y,z
-x,y,1/2-z
-x,-y,-z
x,-y,1/2+z
1/2+x,1/2+y,z
1/2-x,1/2+y,1/2-z
1/2-x,1/2-y,-z
1/2+x,1/2-y,1/2+z
loop_
_atom_site_type_symbol
_atom_site_label
_atom_site_fract_x
_atom_site_fract_y
_atom_site_fract_z
Si Si1 0.731490 0.095032 0.655463
Si Si2 0.888356 0.783280 0.519055
Si Si3 0.944460 0.032809 0.276014
Si Si4 0.455231 0.089762 0.786772
Si Si5 0.018643 0.778225 0.481815
Si Si6 0.733903 0.464037 0.668037
O O1 0.574388 0.167871 0.517233
O O2 0.767735 0.019951 0.625672
O O3 0.757469 0.027989 0.751208
O O4 0.885789 0.174284 0.799276
O O5 0.715172 0.840113 0.372434
O O6 0.033830 0.850112 0.696200
O O7 0.905167 0.670127 0.556622
O O8 0.929621 0.784595 0.473915
O O9 0.000000 0.003277 0.250000
O O10 0.079202 0.997333 0.466732
O O11 0.500000 0.057221 0.750000
O O12 0.401541 0.998946 0.786012
O O13 0.180773 0.853078 0.637595
#
# Coordination Sequence:
#
# PCOD9271601 Si02
#       6
#     8   8   8   8   8   8
#     4  11  20  39  62  86 117 152 202 241 284 347
#     4  11  19  36  59  83 117 151 192 238 287 349
#     4  10  20  36  60  88 113 156 197 234 291 353
#     4  11  22  34  54  86 119 154 185 236 295 346
#     4  11  19  38  64  90 109 154 205 239 283 342
#     4  10  20  39  62  82 117 160 196 237 286 352
#
# _framework density 24.15654
#
# number of rings (size 3 to 8) (size 9 to 14) (size 15 to 20)
#    0.000    1.333    6.667    2.000    0.000    1.333 
#    0.000   10.000    0.000    0.000    0.000    0.000 
#    0.000    0.000    0.000    0.000    0.000    0.000 
#
# Total GULP energy -134151.079896 kJ/mol
# GULP energy per Si atom -5589.628329 kJ/mol
# Density = 2.410156 g / cm^3
# Si number density = 24.156540 Si / 1000 Ang^3
#
#
#
# Elastic Constant Matrix: (Units=GPa)
#
#
# Indices 1 2 3 4 5 6 
#
# 1 166.9260 52.8300 15.6571 0.0043 8.6078 0.0008
# 2 52.8300 139.2883 16.8073 0.0117 -3.6555 0.0034
# 3 15.6571 16.8073 58.8392 0.0043 28.1627 0.0013
# 4 0.0043 0.0117 0.0043 38.4988 0.0038 12.7778
# 5 8.6078 -3.6555 28.1627 0.0038 30.1728 0.0008
# 6 0.0008 0.0034 0.0013 12.7778 0.0008 22.5393
#
#
#
# Elastic Compliance Matrix: (Units=1/GPa)
#
#
# Indices 1 2 3 4 5 6 
#
# 1 0.006965 -0.002710 0.000052 0.000000 -0.002364 0.000000
# 2 -0.002710 0.008973 -0.004939 -0.000003 0.006470 0.000000
# 3 0.000052 -0.004939 0.033775 0.000001 -0.032138 -0.000001
# 4 0.000000 -0.000003 0.000001 0.031995 -0.000005 -0.018138
# 5 -0.002364 0.006470 -0.032138 -0.000005 0.064598 0.000002
# 6 0.000000 0.000000 -0.000001 -0.018138 0.000002 0.054650
#
#
# Mechanical properties :
#
#
# Convention : Reuss Voigt Hill
#
# Bulk Modulus (GPa) = 28.96875 59.51582 44.24229
# Shear Modulus (GPa) = 21.96300 36.89279 29.42789
#
# Velocity S-wave (km/s) = 3.01856 3.91223 3.49408
# Velocity P-wave (km/s) = 4.91600 6.71554 5.88496
#
# Compressibility (1/GPa) = 0.03451995
#
# Stress axis : x y z
#
# Youngs Moduli (GPa) = 143.56569 111.44486 29.60791
#
# Poissons Ratio (x) = 0.30204 -0.00155
# Poissons Ratio (y) = 0.38910 0.14623
# Poissons Ratio (z) = -0.00751 0.55040
#
# Static dielectric constant tensor:
#      x y z
#    x 1.894670 0.000000 0.095120 
#    y 0.000000 1.949430 0.000000 
#    z 0.095120 0.000000 2.213430 
# 
# From -- ./inp_files/211438.got.cif
#   From: 2010.05.17/outbox.cif.g08.bks.cpg/sg15_106_cif.got.tgz:211438.got - 2010.06.03 18:47:42.
