data_PCOD9271330
_publ_section_title
;
Structure prediction by ZEFSAII (Michael W. Deem and Ramdas Pophale) SiO2 
 PCOD9271330
Probable space group: C 2/C
;
_chemical_formula_sum "Si O2"
_cell_formula_units_Z 48
_cell_length_a 14.670116
_cell_length_b 17.636793
_cell_length_c 14.106147
_cell_angle_alpha 90.000000
_cell_angle_beta 38.788617
_cell_angle_gamma 90.000000
_cell_volume 2286.373978
_symmetry_space_group_name_H-M "C 2/C"
_symmetry_group_IT_number 15
_symmetry_cell_setting 'monoclinic'
loop_
_space_group_symop_operation_xyz
x,y,z
-x,y,1/2-z
-x,-y,-z
x,-y,1/2+z
1/2+x,1/2+y,z
1/2-x,1/2+y,1/2-z
1/2-x,1/2-y,-z
1/2+x,1/2-y,1/2+z
loop_
_atom_site_type_symbol
_atom_site_label
_atom_site_fract_x
_atom_site_fract_y
_atom_site_fract_z
Si Si1 0.675373 0.971295 0.627225
Si Si2 0.811239 0.620088 0.977084
Si Si3 0.634559 0.253505 0.709756
Si Si4 0.901228 0.704154 0.550068
Si Si5 0.586691 0.941680 0.365527
Si Si6 0.360852 0.801529 0.798796
O O1 0.500000 0.971494 0.750000
O O2 0.703419 0.882389 0.613520
O O3 0.742962 0.034630 0.502268
O O4 0.694222 0.010494 0.713853
O O5 0.802898 0.675697 0.890496
O O6 0.971546 0.602079 0.889752
O O7 0.735349 0.673249 0.115336
O O8 0.500000 0.269229 0.750000
O O9 0.589974 0.244833 0.854797
O O10 0.846582 0.620120 0.619716
O O11 0.774090 0.745248 0.595781
O O12 0.055038 0.695997 0.371374
O O13 0.500000 0.000000 0.500000
O O14 0.500000 0.780786 0.750000
#
# Coordination Sequence:
#
# PCOD9271330 Si02
#       6
#     8   8   8   8   8   8
#     4   9  18  35  59  84 118 160 210 269 312 366
#     4  10  20  36  58  91 131 165 208 270 332 380
#     4  11  21  34  60  95 134 162 203 270 342 407
#     4  12  23  39  66  98 128 174 221 271 334 392
#     4  11  19  34  59  94 122 162 222 266 311 381
#     4  11  25  43  64  90 128 175 229 275 321 387
#
# _framework density 20.993941
#
# number of rings (size 3 to 8) (size 9 to 14) (size 15 to 20)
#    0.000    1.333    5.000    2.000    2.333    0.000 
#    0.000    0.000    3.667    2.000    0.000    0.000 
#    0.000    0.000    0.000    0.000    0.000    0.000 
#
# Total GULP energy -133680.870079 kJ/mol
# GULP energy per Si atom -5570.036253 kJ/mol
# Density = 2.094616 g / cm^3
# Si number density = 20.993941 Si / 1000 Ang^3
#
#
#
# Elastic Constant Matrix: (Units=GPa)
#
#
# Indices 1 2 3 4 5 6 
#
# 1 65.1866 52.1318 14.0639 0.0000 6.7342 0.0001
# 2 52.1318 155.5296 15.9344 -0.0001 -9.9903 0.0002
# 3 14.0639 15.9344 42.0847 0.0000 17.9521 0.0002
# 4 0.0000 -0.0001 0.0000 35.9567 0.0000 0.7832
# 5 6.7342 -9.9903 17.9521 0.0000 28.6032 -0.0002
# 6 0.0001 0.0002 0.0002 0.7832 -0.0002 39.2598
#
#
#
# Elastic Compliance Matrix: (Units=1/GPa)
#
#
# Indices 1 2 3 4 5 6 
#
# 1 0.022754 -0.007927 -0.001552 0.000000 -0.007152 0.000000
# 2 -0.007927 0.010112 -0.004756 0.000000 0.008383 0.000000
# 3 -0.001552 -0.004756 0.036371 0.000000 -0.024123 0.000000
# 4 0.000000 0.000000 0.000000 0.027823 0.000000 -0.000555
# 5 -0.007152 0.008383 -0.024123 0.000000 0.054713 0.000000
# 6 0.000000 0.000000 0.000000 -0.000555 0.000000 0.025482
#
#
# Mechanical properties :
#
#
# Convention : Reuss Voigt Hill
#
# Bulk Modulus (GPa) = 24.52900 47.45123 35.99012
# Shear Modulus (GPa) = 22.79828 32.80866 27.80347
#
# Velocity S-wave (km/s) = 3.29894 3.95747 3.64312
# Velocity P-wave (km/s) = 5.12054 6.59800 5.90565
#
# Compressibility (1/GPa) = 0.04076807
#
# Stress axis : x y z
#
# Youngs Moduli (GPa) = 43.94857 98.88753 27.49452
#
# Poissons Ratio (x) = 0.78391 0.04266
# Poissons Ratio (y) = 0.34839 0.13076
# Poissons Ratio (z) = 0.06819 0.47028
#
# Static dielectric constant tensor:
#      x y z
#    x 1.828970 0.000000 0.062690 
#    y 0.000000 1.843570 0.000000 
#    z 0.062690 0.000000 1.839440 
# 
# From -- ./inp_files/155094.got.cif
#   From: 2010.05.17/outbox.cif.g08.bks.cpg/sg15_78_cif.got.tgz:155094.got - 2010.06.03 18:47:42.
