data_PCOD9271573
_publ_section_title
;
Structure prediction by ZEFSAII (Michael W. Deem and Ramdas Pophale) SiO2 
 PCOD9271573
Probable space group: C 2/C
;
_chemical_formula_sum "Si O2"
_cell_formula_units_Z 48
_cell_length_a 11.371597
_cell_length_b 21.902899
_cell_length_c 27.842377
_cell_angle_alpha 90.000000
_cell_angle_beta 158.642015
_cell_angle_gamma 90.000000
_cell_volume 2525.585579
_symmetry_space_group_name_H-M "C 2/C"
_symmetry_group_IT_number 15
_symmetry_cell_setting 'monoclinic'
loop_
_space_group_symop_operation_xyz
x,y,z
-x,y,1/2-z
-x,-y,-z
x,-y,1/2+z
1/2+x,1/2+y,z
1/2-x,1/2+y,1/2-z
1/2-x,1/2-y,-z
1/2+x,1/2-y,1/2+z
loop_
_atom_site_type_symbol
_atom_site_label
_atom_site_fract_x
_atom_site_fract_y
_atom_site_fract_z
Si Si1 0.757711 0.785164 0.699250
Si Si2 0.250469 0.953803 0.700114
Si Si3 0.422702 0.680638 0.530702
Si Si4 0.857423 0.249832 0.406801
Si Si5 0.632298 0.457867 0.507313
Si Si6 0.637021 0.668508 0.433780
O O1 0.690819 0.713319 0.665103
O O2 0.412388 0.818244 0.567500
O O3 0.000000 0.806429 0.750000
O O4 0.908823 0.798761 0.807929
O O5 0.500000 0.940119 0.750000
O O6 0.483385 0.959337 0.835226
O O7 0.998924 0.899074 0.611931
O O8 0.036419 0.012059 0.603365
O O9 0.374098 0.727371 0.467721
O O10 0.477221 0.612583 0.532868
O O11 0.500000 0.244748 0.250000
O O12 0.009806 0.315831 0.452552
O O13 0.080831 0.202177 0.462703
O O14 0.500000 0.500000 0.500000
#
# Coordination Sequence:
#
# PCOD9271573 Si02
#       6
#     8   8   8   8   8   8
#     4  11  22  37  58  88 116 160 195 240 300 358
#     4  10  20  38  58  90 119 159 198 249 303 354
#     4  11  22  38  60  89 123 152 199 249 300 357
#     4  11  20  35  57  90 120 155 194 249 303 357
#     4  10  20  36  60  86 118 155 194 251 300 347
#     4  11  21  36  60  83 125 162 193 240 305 363
#
# _framework density 19.005493999999999
#
# number of rings (size 3 to 8) (size 9 to 14) (size 15 to 20)
#    0.000    1.333    5.000    2.500    0.000    2.000 
#    6.000    0.000    0.000    2.000    0.000    0.000 
#    0.000    0.000    0.000    0.000    0.000    0.000 
#
# Total GULP energy -133746.583162 kJ/mol
# GULP energy per Si atom -5572.774298 kJ/mol
# Density = 1.896224 g / cm^3
# Si number density = 19.005494 Si / 1000 Ang^3
#
#
#
# Elastic Constant Matrix: (Units=GPa)
#
#
# Indices 1 2 3 4 5 6 
#
# 1 70.2817 22.4993 6.2138 -0.0072 9.3958 -0.0005
# 2 22.4993 95.1182 24.0508 -0.0012 6.3282 -0.0028
# 3 6.2138 24.0508 27.7216 0.0098 -0.8600 -0.0062
# 4 -0.0072 -0.0012 0.0098 32.1198 -0.0032 -2.0230
# 5 9.3958 6.3282 -0.8600 -0.0032 33.8351 -0.0046
# 6 -0.0005 -0.0028 -0.0062 -2.0230 -0.0046 21.2164
#
#
#
# Elastic Compliance Matrix: (Units=1/GPa)
#
#
# Indices 1 2 3 4 5 6 
#
# 1 0.015864 -0.003292 -0.000818 0.000003 -0.003810 -0.000001
# 2 -0.003292 0.014425 -0.011841 0.000003 -0.002085 -0.000002
# 3 -0.000818 -0.011841 0.046642 -0.000014 0.003627 0.000011
# 4 0.000003 0.000003 -0.000014 0.031322 0.000002 0.002987
# 5 -0.003810 -0.002085 0.003627 0.000002 0.031095 0.000008
# 6 -0.000001 -0.000002 0.000011 0.002987 0.000008 0.047418
#
#
# Mechanical properties :
#
#
# Convention : Reuss Voigt Hill
#
# Bulk Modulus (GPa) = 22.20836 33.18325 27.69580
# Shear Modulus (GPa) = 21.39693 26.79144 24.09419
#
# Velocity S-wave (km/s) = 3.35898 3.75863 3.56441
# Velocity P-wave (km/s) = 5.17245 6.02778 5.61642
#
# Compressibility (1/GPa) = 0.04502810
#
# Stress axis : x y z
#
# Youngs Moduli (GPa) = 63.03543 69.32513 21.43981
#
# Poissons Ratio (x) = 0.22823 0.01754
# Poissons Ratio (y) = 0.20752 0.25388
# Poissons Ratio (z) = 0.05156 0.82091
#
# Static dielectric constant tensor:
#      x y z
#    x 1.683020 0.000010 0.006820 
#    y 0.000010 1.665960 -0.000020 
#    z 0.006820 -0.000020 1.734620 
# 
# From -- ./inp_files/88352.got.cif
#   From: 2010.05.17/outbox.cif.g08.bks.cpg/sg15_45_cif.got.tgz:88352.got - 2010.06.03 18:47:42.
