data_PCOD9271543
_publ_section_title
;
Structure prediction by ZEFSAII (Michael W. Deem and Ramdas Pophale) SiO2 
 PCOD9271543
Probable space group: C 2/C
;
_chemical_formula_sum "Si O2"
_cell_formula_units_Z 52
_cell_length_a 21.008030
_cell_length_b 11.267710
_cell_length_c 10.674044
_cell_angle_alpha 90.000000
_cell_angle_beta 121.729086
_cell_angle_gamma 90.000000
_cell_volume 2149.051828
_symmetry_space_group_name_H-M "C 2/C"
_symmetry_group_IT_number 15
_symmetry_cell_setting 'monoclinic'
loop_
_space_group_symop_operation_xyz
x,y,z
-x,y,1/2-z
-x,-y,-z
x,-y,1/2+z
1/2+x,1/2+y,z
1/2-x,1/2+y,1/2-z
1/2-x,1/2-y,-z
1/2+x,1/2-y,1/2+z
loop_
_atom_site_type_symbol
_atom_site_label
_atom_site_fract_x
_atom_site_fract_y
_atom_site_fract_z
Si Si1 0.993701 0.641263 0.509061
Si Si2 0.000000 0.769909 0.250000
Si Si3 0.847913 0.791726 0.146747
Si Si4 0.161292 0.235005 0.587055
Si Si5 0.780436 0.073442 0.199385
Si Si6 0.076305 0.838197 0.759030
Si Si7 0.726511 0.933712 0.904574
O O1 0.006942 0.696350 0.385181
O O2 0.048718 0.715297 0.661158
O O3 0.000000 0.500000 0.500000
O O4 0.909317 0.674433 0.465880
O O5 0.074007 0.844514 0.312112
O O6 0.834692 0.831798 0.275396
O O7 0.846752 0.647483 0.152185
O O8 0.790316 0.832742 0.983843
O O9 0.240855 0.297269 0.657339
O O10 0.135107 0.172670 0.434413
O O11 0.870516 0.089543 0.283264
O O12 0.742653 0.015862 0.285138
O O13 0.743739 0.014288 0.039226
O O14 0.000000 0.882063 0.750000
#
# Coordination Sequence:
#
# PCOD9271543 Si02
#       7
#     8   4   8   8   8   8   8
#     4  10  22  35  60  90 126 158 201 249 309 372
#     4  10  20  36  60  84 116 162 200 246 312 364
#     4   9  20  41  60  88 123 164 201 258 308 365
#     4   9  21  38  60  91 120 163 202 250 311 367
#     4  11  23  41  62  94 117 168 206 255 310 372
#     4  10  22  41  61  88 127 157 202 261 310 360
#     4  10  23  40  64  89 126 156 213 253 307 371
#
# _framework density 24.196717
#
# number of rings (size 3 to 8) (size 9 to 14) (size 15 to 20)
#    0.000    2.154    0.000    1.385    7.538    2.462 
#    4.154    0.769    0.000    0.000    0.000    0.000 
#    0.000    0.000    0.000    0.000    0.000    0.000 
#
# Total GULP energy -144899.623667 kJ/mol
# GULP energy per Si atom -5573.062449 kJ/mol
# Density = 2.414164 g / cm^3
# Si number density = 24.196717 Si / 1000 Ang^3
#
#
#
# Elastic Constant Matrix: (Units=GPa)
#
#
# Indices 1 2 3 4 5 6 
#
# 1 121.8065 16.8754 15.3821 0.0000 -9.1523 0.0000
# 2 16.8754 51.5685 4.9982 0.0000 -7.5234 0.0000
# 3 15.3821 4.9982 123.7224 0.0000 -14.1972 0.0000
# 4 0.0000 0.0000 0.0000 31.3964 0.0000 -9.9170
# 5 -9.1523 -7.5234 -14.1972 0.0000 35.9649 0.0000
# 6 0.0000 0.0000 0.0000 -9.9170 0.0000 19.1067
#
#
#
# Elastic Compliance Matrix: (Units=1/GPa)
#
#
# Indices 1 2 3 4 5 6 
#
# 1 0.008776 -0.002593 -0.000830 0.000000 0.001363 0.000000
# 2 -0.002593 0.020782 -0.000099 0.000000 0.003649 0.000000
# 3 -0.000830 -0.000099 0.008550 0.000000 0.003144 0.000000
# 4 0.000000 0.000000 0.000000 0.038096 0.000000 0.019773
# 5 0.001363 0.003649 0.003144 0.000000 0.030156 0.000000
# 6 0.000000 0.000000 0.000000 0.019773 0.000000 0.062601
#
#
# Mechanical properties :
#
#
# Convention : Reuss Voigt Hill
#
# Bulk Modulus (GPa) = 32.18899 41.28984 36.73942
# Shear Modulus (GPa) = 26.82988 34.61638 30.72313
#
# Velocity S-wave (km/s) = 3.33351 3.78646 3.56718
# Velocity P-wave (km/s) = 5.30550 6.01811 5.67301
#
# Compressibility (1/GPa) = 0.03106652
#
# Stress axis : x y z
#
# Youngs Moduli (GPa) = 113.94480 48.11864 116.95226
#
# Poissons Ratio (x) = 0.12475 0.09706
# Poissons Ratio (y) = 0.29541 0.01152
# Poissons Ratio (z) = 0.09457 0.00474
#
# Static dielectric constant tensor:
#      x y z
#    x 2.002580 0.000000 0.009250 
#    y 0.000000 2.078380 0.000000 
#    z 0.009250 0.000000 1.913830 
# 
# From -- ./inp_files/111736.got.cif
#   From: 2010.05.17/outbox.cif.g08.bks.cpg/sg15_56_cif.got.tgz:111736.got - 2010.06.03 18:47:42.
