data_PCOD9271685
_publ_section_title
;
Structure prediction by ZEFSAII (Michael W. Deem and Ramdas Pophale) SiO2 
 PCOD9271685
Probable space group: C 2/C
;
_chemical_formula_sum "Si O2"
_cell_formula_units_Z 56
_cell_length_a 13.770531
_cell_length_b 19.064740
_cell_length_c 16.439176
_cell_angle_alpha 90.000000
_cell_angle_beta 146.734295
_cell_angle_gamma 90.000000
_cell_volume 2367.314821
_symmetry_space_group_name_H-M "C 2/C"
_symmetry_group_IT_number 15
_symmetry_cell_setting 'monoclinic'
loop_
_space_group_symop_operation_xyz
x,y,z
-x,y,1/2-z
-x,-y,-z
x,-y,1/2+z
1/2+x,1/2+y,z
1/2-x,1/2+y,1/2-z
1/2-x,1/2-y,-z
1/2+x,1/2-y,1/2+z
loop_
_atom_site_type_symbol
_atom_site_label
_atom_site_fract_x
_atom_site_fract_y
_atom_site_fract_z
Si Si1 0.809906 0.964313 0.616445
Si Si2 0.951501 0.774925 0.625484
Si Si3 0.343026 0.674573 0.378067
Si Si4 0.699239 0.912117 0.916911
Si Si5 0.065663 0.683826 0.462765
Si Si6 0.521620 0.120328 0.670406
Si Si7 0.337564 0.949432 0.361792
O O1 0.770169 0.024549 0.521801
O O2 0.815853 0.007678 0.705084
O O3 0.000000 0.932025 0.750000
O O4 0.658203 0.906426 0.498822
O O5 0.750000 0.750000 0.500000
O O6 0.053624 0.701886 0.676824
O O7 0.000000 0.795622 0.750000
O O8 0.010546 0.824838 0.592216
O O9 0.319546 0.609768 0.424465
O O10 0.146116 0.681556 0.200728
O O11 0.382978 0.741770 0.463392
O O12 0.500000 0.931924 0.750000
O O13 0.664050 0.842986 0.949449
O O14 0.123828 0.623717 0.566919
O O15 0.500000 0.111690 0.750000
O O16 0.668537 0.069146 0.736299
O O17 0.500000 0.000000 0.500000
#
# Coordination Sequence:
#
# PCOD9271685 Si02
#       7
#     8   8   8   8   8   8   8
#     4  10  21  39  64  98 126 156 207 268 319 376
#     4  11  24  41  60  87 120 168 215 264 307 362
#     4  11  21  37  61  89 128 161 212 252 317 376
#     4   9  20  37  60  93 130 168 198 249 322 394
#     4  10  20  36  60  93 126 165 205 253 317 383
#     4  10  21  41  65  83 121 171 213 252 313 380
#     4   9  19  39  64  86 122 168 206 247 317 383
#
# _framework density 23.655494999999998
#
# number of rings (size 3 to 8) (size 9 to 14) (size 15 to 20)
#    0.000    2.000    1.429    1.714    0.000    4.000 
#    7.714    1.429    0.000    0.000    0.000    0.000 
#    0.000    0.000    0.000    0.000    0.000    0.000 
#
# Total GULP energy -156309.278929 kJ/mol
# GULP energy per Si atom -5582.474247 kJ/mol
# Density = 2.360165 g / cm^3
# Si number density = 23.655495 Si / 1000 Ang^3
#
#
#
# Elastic Constant Matrix: (Units=GPa)
#
#
# Indices 1 2 3 4 5 6 
#
# 1 151.8205 30.2477 20.8200 0.0006 -11.3000 0.0101
# 2 30.2477 83.9753 -6.8461 0.0062 2.5556 -0.0298
# 3 20.8200 -6.8461 28.4403 -0.0204 9.0010 -0.0566
# 4 0.0006 0.0062 -0.0204 -38.4234 0.0020 58.4218
# 5 -11.3000 2.5556 9.0010 0.0020 22.6141 -0.0294
# 6 0.0101 -0.0298 -0.0566 58.4218 -0.0294 -47.0926
#
#
#
# Elastic Compliance Matrix: (Units=1/GPa)
#
#
# Indices 1 2 3 4 5 6 
#
# 1 0.009887 -0.004814 -0.011593 -0.000029 0.010099 -0.000023
# 2 -0.004814 0.014659 0.009540 0.000032 -0.007859 0.000023
# 3 -0.011593 0.009540 0.055055 0.000130 -0.028784 0.000105
# 4 -0.000029 0.000032 0.000130 0.029366 -0.000025 0.036431
# 5 0.010099 -0.007859 -0.028784 -0.000025 0.061612 -0.000028
# 6 -0.000023 0.000023 0.000105 0.036431 -0.000028 0.023960
#
#
# Mechanical properties :
#
#
# Convention : Reuss Voigt Hill
#
# Bulk Modulus (GPa) = 15.18197 39.18662 27.18429
# Shear Modulus (GPa) = 21.71755 2.08725 11.90240
#
# Velocity S-wave (km/s) = 3.03326 0.94036 2.24555
# Velocity P-wave (km/s) = 4.32429 4.21670 4.27083
#
# Compressibility (1/GPa) = 0.06586763
#
# Stress axis : x y z
#
# Youngs Moduli (GPa) = 101.13980 68.21681 18.16371
#
# Poissons Ratio (x) = 0.32839 0.21057
# Poissons Ratio (y) = 0.48687 -0.17328
# Poissons Ratio (z) = 1.17253 -0.65080
#
# Static dielectric constant tensor:
#      x y z
#    x 2.047010 0.000000 -0.022160 
#    y 0.000000 1.881960 -0.000020 
#    z -0.022160 -0.000020 1.952290 
# 
# From -- ./inp_files/207003.got.cif
#   From: 2010.05.17/outbox.cif.g08.bks.cpg/sg15_104_cif.got.tgz:207003.got - 2010.06.03 18:47:42.
