data_PCOD9271875
_publ_section_title
;
Structure prediction by ZEFSAII (Michael W. Deem and Ramdas Pophale) SiO2 
 PCOD9271875
Probable space group: C 2/C
;
_chemical_formula_sum "Si O2"
_cell_formula_units_Z 60
_cell_length_a 19.538526
_cell_length_b 8.630348
_cell_length_c 19.144353
_cell_angle_alpha 90.000000
_cell_angle_beta 62.102890
_cell_angle_gamma 90.000000
_cell_volume 2853.050798
_symmetry_space_group_name_H-M "C 2/C"
_symmetry_group_IT_number 15
_symmetry_cell_setting 'monoclinic'
loop_
_space_group_symop_operation_xyz
x,y,z
-x,y,1/2-z
-x,-y,-z
x,-y,1/2+z
1/2+x,1/2+y,z
1/2-x,1/2+y,1/2-z
1/2-x,1/2-y,-z
1/2+x,1/2-y,1/2+z
loop_
_atom_site_type_symbol
_atom_site_label
_atom_site_fract_x
_atom_site_fract_y
_atom_site_fract_z
Si Si1 0.147104 0.466859 0.635363
Si Si2 0.909530 0.905683 0.577516
Si Si3 0.500000 0.805319 0.750000
Si Si4 0.888497 0.077782 0.721316
Si Si5 0.366731 0.308049 0.844619
Si Si6 0.424783 0.330024 0.969741
Si Si7 0.758711 0.718728 0.657120
Si Si8 0.801044 0.429212 0.541566
O O1 0.140226 0.631639 0.678289
O O2 0.203908 0.338808 0.640912
O O3 0.178702 0.506634 0.544183
O O4 0.059915 0.403322 0.675577
O O5 0.834656 0.814186 0.639559
O O6 0.988386 0.808416 0.542701
O O7 0.920507 0.035457 0.631118
O O8 0.898818 0.999862 0.510511
O O9 0.445428 0.700845 0.728434
O O10 0.801154 0.146228 0.758776
O O11 0.886311 0.930696 0.775100
O O12 0.422135 0.320808 0.886337
O O13 0.282655 0.350010 0.915771
O O14 0.366154 0.199445 0.026020
O O15 0.791578 0.575206 0.596896
#
# Coordination Sequence:
#
# PCOD9271875 Si02
#       8
#     8   8   4   8   8   8   8   8
#     4  10  20  36  62  88 114 147 190 243 286 336
#     4  11  23  39  56  83 119 157 191 229 287 347
#     4  10  22  38  56  88 116 146 194 240 290 334
#     4  10  23  40  60  83 117 154 189 239 286 334
#     4  10  20  39  64  87 110 148 197 240 284 336
#     4  10  22  37  59  84 114 153 191 236 286 342
#     4  10  22  37  57  85 115 150 190 235 286 341
#     4  10  20  37  61  87 113 147 193 242 286 335
#
# _framework density 21.030121000000001
#
# number of rings (size 3 to 8) (size 9 to 14) (size 15 to 20)
#    0.000    1.867    0.000    4.400    0.000   10.667 
#    0.000    5.333    0.000    0.000    0.000    0.000 
#    0.000    0.000    0.000    0.000    0.000    0.000 
#
# Total GULP energy -167502.837935 kJ/mol
# GULP energy per Si atom -5583.427931 kJ/mol
# Density = 2.098226 g / cm^3
# Si number density = 21.030121 Si / 1000 Ang^3
#
#
#
# Elastic Constant Matrix: (Units=GPa)
#
#
# Indices 1 2 3 4 5 6 
#
# 1 70.1079 28.7222 17.0909 0.0000 -25.4987 0.0000
# 2 28.7222 73.5627 12.9058 0.0000 -17.2854 -0.0001
# 3 17.0909 12.9058 55.3367 0.0000 -20.2151 0.0000
# 4 0.0000 0.0000 0.0000 22.3169 0.0000 -16.8721
# 5 -25.4987 -17.2854 -20.2151 0.0000 29.2981 0.0000
# 6 0.0000 -0.0001 0.0000 -16.8721 0.0000 20.5607
#
#
#
# Elastic Compliance Matrix: (Units=1/GPa)
#
#
# Indices 1 2 3 4 5 6 
#
# 1 0.022247 -0.004808 0.000384 0.000000 0.016790 0.000000
# 2 -0.004808 0.016827 -0.000457 0.000000 0.005428 0.000000
# 3 0.000384 -0.000457 0.024177 0.000000 0.016746 0.000000
# 4 0.000000 0.000000 0.000000 0.118041 0.000000 0.096864
# 5 0.016790 0.005428 0.016746 0.000000 0.063501 0.000000
# 6 0.000000 0.000000 0.000000 0.096864 0.000000 0.128123
#
#
# Mechanical properties :
#
#
# Convention : Reuss Voigt Hill
#
# Bulk Modulus (GPa) = 18.69567 35.16059 26.92813
# Shear Modulus (GPa) = 12.48420 23.78769 18.13594
#
# Velocity S-wave (km/s) = 2.43910 3.36687 2.93982
# Velocity P-wave (km/s) = 4.10385 5.64534 4.93515
#
# Compressibility (1/GPa) = 0.05348833
#
# Stress axis : x y z
#
# Youngs Moduli (GPa) = 44.95083 59.42940 41.36216
#
# Poissons Ratio (x) = 0.28575 -0.01588
# Poissons Ratio (y) = 0.21613 0.01888
# Poissons Ratio (z) = -0.01726 0.02713
#
# Static dielectric constant tensor:
#      x y z
#    x 1.781950 0.000000 -0.007280 
#    y 0.000000 1.802300 0.000000 
#    z -0.007280 0.000000 1.723500 
# 
# From -- ./inp_files/252101.got.cif
#   From: 2010.05.17/outbox.cif.g08.bks.cpg/sg15_127_cif.got.tgz:252101.got - 2010.06.03 18:47:42.
