data_PCOD9271091
_publ_section_title
;
Structure prediction by ZEFSAII (Michael W. Deem and Ramdas Pophale) SiO2 
 PCOD9271091
Probable space group: C 2/C
;
_chemical_formula_sum "Si O2"
_cell_formula_units_Z 40
_cell_length_a 24.296119
_cell_length_b 11.190817
_cell_length_c 14.813088
_cell_angle_alpha 90.000000
_cell_angle_beta 30.878002
_cell_angle_gamma 90.000000
_cell_volume 2067.002070
_symmetry_space_group_name_H-M "C 2/C"
_symmetry_group_IT_number 15
_symmetry_cell_setting 'monoclinic'
loop_
_space_group_symop_operation_xyz
x,y,z
-x,y,1/2-z
-x,-y,-z
x,-y,1/2+z
1/2+x,1/2+y,z
1/2-x,1/2+y,1/2-z
1/2-x,1/2-y,-z
1/2+x,1/2-y,1/2+z
loop_
_atom_site_type_symbol
_atom_site_label
_atom_site_fract_x
_atom_site_fract_y
_atom_site_fract_z
Si Si1 0.964610 0.767270 0.923758
Si Si2 0.500000 0.376447 0.250000
Si Si3 0.395216 0.280563 0.223433
Si Si4 0.296064 0.055576 0.452555
Si Si5 0.351188 0.405063 0.943079
Si Si6 0.000000 0.452617 0.250000
O O1 0.860797 0.820705 0.016532
O O2 0.064406 0.846116 0.746150
O O3 0.982007 0.634980 0.860688
O O4 0.951298 0.777388 0.048338
O O5 0.474945 0.303179 0.195284
O O6 0.600268 0.466255 0.096631
O O7 0.335253 0.156235 0.327338
O O8 0.306414 0.386101 0.353357
O O9 0.257908 0.936320 0.453950
O O10 0.393831 0.027698 0.380743
#
# Coordination Sequence:
#
# PCOD9271091 Si02
#       6
#     8   4   8   8   8   4
#     4   9  20  36  58  82 106 138 184 222 264 319
#     4   8  16  32  54  76 108 138 172 218 264 308
#     4  10  20  36  57  83 107 140 181 222 265 320
#     4  10  21  36  54  77 114 145 175 219 270 316
#     4   8  18  36  55  81 110 140 177 222 266 320
#     4  10  22  40  54  78 114 144 174 224 270 316
#
# _framework density 19.351700000000001
#
# number of rings (size 3 to 8) (size 9 to 14) (size 15 to 20)
#    0.000    3.200    0.000    0.600    0.000   12.800 
#    0.000   12.000    0.000    0.000    0.000    0.000 
#    0.000    0.000    0.000    0.000    0.000    0.000 
#
# Total GULP energy -111471.726666 kJ/mol
# GULP energy per Si atom -5573.586333 kJ/mol
# Density = 1.930765 g / cm^3
# Si number density = 19.351700 Si / 1000 Ang^3
#
#
#
# Elastic Constant Matrix: (Units=GPa)
#
#
# Indices 1 2 3 4 5 6 
#
# 1 131.8475 28.1261 65.3612 0.0000 7.4605 0.0000
# 2 28.1261 51.7543 20.2108 0.0000 2.7716 0.0000
# 3 65.3612 20.2108 48.4045 0.0000 13.5119 0.0000
# 4 0.0000 0.0000 0.0000 -15.8770 0.0000 23.6581
# 5 7.4605 2.7716 13.5119 0.0000 47.7202 0.0000
# 6 0.0000 0.0000 0.0000 23.6581 0.0000 -25.6377
#
#
#
# Elastic Compliance Matrix: (Units=1/GPa)
#
#
# Indices 1 2 3 4 5 6 
#
# 1 0.024424 -0.000074 -0.034621 0.000000 0.005989 0.000000
# 2 -0.000074 0.023187 -0.009999 0.000000 0.001496 0.000000
# 3 -0.034621 -0.009999 0.075911 0.000000 -0.015501 0.000000
# 4 0.000000 0.000000 0.000000 0.167944 0.000000 0.154976
# 5 0.005989 0.001496 -0.015501 0.000000 0.024321 0.000000
# 6 0.000000 0.000000 0.000000 0.154976 0.000000 0.104005
#
#
# Mechanical properties :
#
#
# Convention : Reuss Voigt Hill
#
# Bulk Modulus (GPa) = 29.29702 51.04474 40.17088
# Shear Modulus (GPa) = 9.60505 9.12831 9.36668
#
# Velocity S-wave (km/s) = 2.23029 2.17424 2.20244
# Velocity P-wave (km/s) = 4.66951 5.72169 5.22217
#
# Compressibility (1/GPa) = 0.03413316
#
# Stress axis : x y z
#
# Youngs Moduli (GPa) = 40.94256 43.12759 13.17335
#
# Poissons Ratio (x) = 0.00320 0.45608
# Poissons Ratio (y) = 0.00304 0.13172
# Poissons Ratio (z) = 1.41749 0.43123
#
# Static dielectric constant tensor:
#      x y z
#    x 1.699160 0.000000 -0.044290 
#    y 0.000000 1.698970 0.000000 
#    z -0.044290 0.000000 1.663140 
# 
# From -- ./inp_files/151242.got.cif
#   From: 2010.05.17/outbox.cif.g08.bks.cpg/sg15_76_cif.got.tgz:151242.got - 2010.06.03 18:47:42.
