data_PCOD9271368
_publ_section_title
;
Structure prediction by ZEFSAII (Michael W. Deem and Ramdas Pophale) SiO2 
 PCOD9271368
Probable space group: C 2/C
;
_chemical_formula_sum "Si O2"
_cell_formula_units_Z 52
_cell_length_a 10.638405
_cell_length_b 10.216038
_cell_length_c 26.612008
_cell_angle_alpha 90.000000
_cell_angle_beta 55.311474
_cell_angle_gamma 90.000000
_cell_volume 2378.180354
_symmetry_space_group_name_H-M "C 2/C"
_symmetry_group_IT_number 15
_symmetry_cell_setting 'monoclinic'
loop_
_space_group_symop_operation_xyz
x,y,z
-x,y,1/2-z
-x,-y,-z
x,-y,1/2+z
1/2+x,1/2+y,z
1/2-x,1/2+y,1/2-z
1/2-x,1/2-y,-z
1/2+x,1/2-y,1/2+z
loop_
_atom_site_type_symbol
_atom_site_label
_atom_site_fract_x
_atom_site_fract_y
_atom_site_fract_z
Si Si1 0.099332 0.815487 0.606130
Si Si2 0.327737 0.551153 0.204928
Si Si3 0.015332 0.804613 0.154044
Si Si4 0.492238 0.046751 0.919116
Si Si5 0.238252 0.648296 0.328026
Si Si6 0.703771 0.937571 0.463745
Si Si7 0.000000 0.604772 0.250000
O O1 0.087550 0.667613 0.589966
O O2 0.145979 0.826773 0.653837
O O3 0.929979 0.876949 0.639824
O O4 0.223127 0.914845 0.554198
O O5 0.430071 0.428610 0.198299
O O6 0.309549 0.644469 0.257015
O O7 0.154981 0.525085 0.225998
O O8 0.890544 0.757944 0.142334
O O9 0.034504 0.696235 0.193253
O O10 0.162038 0.849200 0.089523
O O11 0.568533 0.088862 0.954550
O O12 0.637985 0.984937 0.857323
O O13 0.370869 0.935112 0.963957
#
# Coordination Sequence:
#
# PCOD9271368 Si02
#       7
#     8   8   8   8   8   8   4
#     4  10  20  36  59  82 113 152 192 239 288 342
#     4  10  22  37  56  83 113 148 188 238 291 342
#     4  10  22  38  58  81 117 149 188 239 290 348
#     4  10  20  36  59  83 113 150 195 241 281 346
#     4  10  23  35  53  88 112 148 193 235 296 347
#     4   9  20  37  58  83 111 152 198 235 285 344
#     4  10  22  38  58  88 114 154 192 236 298 352
#
# _framework density 21.865455999999998
#
# number of rings (size 3 to 8) (size 9 to 14) (size 15 to 20)
#    0.000    2.154    0.000    1.846   10.769    3.077 
#    0.000    0.769    0.000    0.000    0.000    0.000 
#    0.000    0.000    0.000    0.000    0.000    0.000 
#
# Total GULP energy -144896.861664 kJ/mol
# GULP energy per Si atom -5572.956218 kJ/mol
# Density = 2.181569 g / cm^3
# Si number density = 21.865456 Si / 1000 Ang^3
#
#
#
# Elastic Constant Matrix: (Units=GPa)
#
#
# Indices 1 2 3 4 5 6 
#
# 1 87.9453 17.4718 23.9755 0.0000 -17.2760 0.0000
# 2 17.4718 41.5205 9.6595 0.0000 0.3595 0.0000
# 3 23.9755 9.6595 68.9178 0.0000 -29.5377 0.0000
# 4 0.0000 0.0000 0.0000 -218.7727 0.0000 -30.6164
# 5 -17.2760 0.3595 -29.5377 0.0000 23.8582 0.0000
# 6 0.0000 0.0000 0.0000 -30.6164 0.0000 20.2843
#
#
#
# Elastic Compliance Matrix: (Units=1/GPa)
#
#
# Indices 1 2 3 4 5 6 
#
# 1 0.014758 -0.006511 0.000854 0.000000 0.011841 0.000000
# 2 -0.006511 0.028942 -0.008520 0.000000 -0.015699 0.000000
# 3 0.000854 -0.008520 0.033506 0.000000 0.042229 0.000000
# 4 0.000000 0.000000 0.000000 -0.003774 0.000000 -0.005696
# 5 0.011841 -0.015699 0.042229 0.000000 0.103007 0.000000
# 6 0.000000 0.000000 0.000000 -0.005696 0.000000 0.040702
#
#
# Mechanical properties :
#
#
# Convention : Reuss Voigt Hill
#
# Bulk Modulus (GPa) = 20.47012 33.39972 26.93492
# Shear Modulus (GPa) = 19.10000 -25.10758 -3.00379
#
# Velocity S-wave (km/s) = 2.95875 -3.39230 -1.17335
# Velocity P-wave (km/s) = 4.58851 0.18794 3.24185
#
# Compressibility (1/GPa) = 0.04885169
#
# Stress axis : x y z
#
# Youngs Moduli (GPa) = 67.76174 34.55143 29.84506
#
# Poissons Ratio (x) = 0.22497 -0.02548
# Poissons Ratio (y) = 0.44120 0.25428
# Poissons Ratio (z) = -0.05785 0.29437
#
# Static dielectric constant tensor:
#      x y z
#    x 1.814790 0.000000 -0.048870 
#    y 0.000000 1.880250 0.000000 
#    z -0.048870 0.000000 1.868060 
# 
# From -- ./inp_files/236910.got.cif
#   From: 2010.05.17/outbox.cif.g08.bks.cpg/sg15_119_cif.got.tgz:236910.got - 2010.06.03 18:47:42.
