data_PCOD9271171
_publ_section_title
;
Structure prediction by ZEFSAII (Michael W. Deem and Ramdas Pophale) SiO2 
 PCOD9271171
Probable space group: C 2/C
;
_chemical_formula_sum "Si O2"
_cell_formula_units_Z 56
_cell_length_a 7.912441
_cell_length_b 19.110495
_cell_length_c 17.210171
_cell_angle_alpha 90.000000
_cell_angle_beta 62.098876
_cell_angle_gamma 90.000000
_cell_volume 2299.853662
_symmetry_space_group_name_H-M "C 2/C"
_symmetry_group_IT_number 15
_symmetry_cell_setting 'monoclinic'
loop_
_space_group_symop_operation_xyz
x,y,z
-x,y,1/2-z
-x,-y,-z
x,-y,1/2+z
1/2+x,1/2+y,z
1/2-x,1/2+y,1/2-z
1/2-x,1/2-y,-z
1/2+x,1/2-y,1/2+z
loop_
_atom_site_type_symbol
_atom_site_label
_atom_site_fract_x
_atom_site_fract_y
_atom_site_fract_z
Si Si1 0.679002 0.550455 0.486246
Si Si2 0.242110 0.090127 0.036606
Si Si3 0.610601 0.660209 0.307731
Si Si4 0.819075 0.444249 0.230976
Si Si5 0.220675 0.799137 0.224578
Si Si6 0.365941 0.631975 0.606363
Si Si7 0.570687 0.089393 0.349878
O O1 0.500000 0.500000 0.500000
O O2 0.775744 0.493181 0.521558
O O3 0.586419 0.622628 0.536146
O O4 0.847170 0.572234 0.391379
O O5 0.382878 0.116833 0.073603
O O6 0.027755 0.111223 0.111826
O O7 0.252693 0.121704 0.947205
O O8 0.500000 0.665821 0.250000
O O9 0.821997 0.635649 0.236597
O O10 0.646863 0.737243 0.333125
O O11 0.798644 0.375258 0.183415
O O12 0.651413 0.433809 0.329624
O O13 0.822301 0.515300 0.184965
O O14 0.000000 0.439809 0.250000
O O15 0.000000 0.791761 0.250000
O O16 0.211903 0.806601 0.321727
#
# Coordination Sequence:
#
# PCOD9271171 Si02
#       7
#     8   8   8   8   8   8   8
#     4  10  20  36  57  96 136 165 207 272 333 386
#     4  10  21  41  66  97 133 167 218 285 335 393
#     4  10  23  44  66  96 129 175 226 286 330 405
#     4  10  21  39  66  93 129 176 223 267 331 399
#     4  10  24  42  67  92 127 177 233 263 340 415
#     4   9  22  40  61  94 133 173 210 278 342 386
#     4  11  23  38  69  99 130 176 228 266 343 407
#
# _framework density 24.349374000000001
#
# number of rings (size 3 to 8) (size 9 to 14) (size 15 to 20)
#    0.857    1.143    0.000    3.429    2.000    4.571 
#    0.000    5.714    0.000    0.000    0.000    0.000 
#    0.000    0.000    0.000    0.000    0.000    0.000 
#
# Total GULP energy -156039.453005 kJ/mol
# GULP energy per Si atom -5572.837607 kJ/mol
# Density = 2.429395 g / cm^3
# Si number density = 24.349374 Si / 1000 Ang^3
#
#
#
# Elastic Constant Matrix: (Units=GPa)
#
#
# Indices 1 2 3 4 5 6 
#
# 1 78.9539 -5.5040 14.1219 0.0000 9.7151 0.0000
# 2 -5.5040 71.6517 6.4855 0.0000 -0.2776 0.0000
# 3 14.1219 6.4855 73.9885 0.0000 -0.4347 0.0000
# 4 0.0000 0.0000 0.0000 22.7618 0.0000 -8.4667
# 5 9.7151 -0.2776 -0.4347 0.0000 35.5663 0.0000
# 6 0.0000 0.0000 0.0000 -8.4667 0.0000 21.8977
#
#
#
# Elastic Compliance Matrix: (Units=1/GPa)
#
#
# Indices 1 2 3 4 5 6 
#
# 1 0.013711 0.001288 -0.002752 0.000000 -0.003769 0.000000
# 2 0.001288 0.014189 -0.001491 0.000000 -0.000259 0.000000
# 3 -0.002752 -0.001491 0.014177 0.000000 0.000913 0.000000
# 4 0.000000 0.000000 0.000000 0.051313 0.000000 0.019840
# 5 -0.003769 -0.000259 0.000913 0.000000 0.029155 0.000000
# 6 0.000000 0.000000 0.000000 0.019840 0.000000 0.053338
#
#
# Mechanical properties :
#
#
# Convention : Reuss Voigt Hill
#
# Bulk Modulus (GPa) = 27.64962 28.31120 27.98041
# Shear Modulus (GPa) = 25.79309 30.01120 27.90215
#
# Velocity S-wave (km/s) = 3.25821 3.51454 3.38880
# Velocity P-wave (km/s) = 5.05317 5.30299 5.17959
#
# Compressibility (1/GPa) = 0.03616686
#
# Stress axis : x y z
#
# Youngs Moduli (GPa) = 72.93211 70.47577 70.53697
#
# Poissons Ratio (x) = -0.09076 0.19412
# Poissons Ratio (y) = -0.09392 0.10518
# Poissons Ratio (z) = 0.20071 0.10508
#
# Static dielectric constant tensor:
#      x y z
#    x 2.019350 0.000000 -0.016160 
#    y 0.000000 1.970110 0.000000 
#    z -0.016160 0.000000 1.976000 
# 
# From -- ./inp_files/233746.got.cif
#   From: 2010.05.17/outbox.cif.g08.bks.cpg/sg15_117_cif.got.tgz:233746.got - 2010.06.03 18:47:42.
