data_PCOD9271637
_publ_section_title
;
Structure prediction by ZEFSAII (Michael W. Deem and Ramdas Pophale) SiO2 
 PCOD9271637
Probable space group: C 2/C
;
_chemical_formula_sum "Si O2"
_cell_formula_units_Z 56
_cell_length_a 27.321228
_cell_length_b 5.406607
_cell_length_c 28.074256
_cell_angle_alpha 90.000000
_cell_angle_beta 47.360747
_cell_angle_gamma 90.000000
_cell_volume 3050.665492
_symmetry_space_group_name_H-M "C 2/C"
_symmetry_group_IT_number 15
_symmetry_cell_setting 'monoclinic'
loop_
_space_group_symop_operation_xyz
x,y,z
-x,y,1/2-z
-x,-y,-z
x,-y,1/2+z
1/2+x,1/2+y,z
1/2-x,1/2+y,1/2-z
1/2-x,1/2-y,-z
1/2+x,1/2-y,1/2+z
loop_
_atom_site_type_symbol
_atom_site_label
_atom_site_fract_x
_atom_site_fract_y
_atom_site_fract_z
Si Si1 0.630270 0.008335 0.250177
Si Si2 0.402816 0.507262 0.883291
Si Si3 0.257937 0.821961 0.137631
Si Si4 0.984818 0.499516 0.816608
Si Si5 0.791934 0.297071 0.214935
Si Si6 0.776201 0.066542 0.024062
Si Si7 0.186849 0.801805 0.631314
O O1 0.686772 0.218733 0.204689
O O2 0.552413 0.059476 0.301012
O O3 0.652442 0.859687 0.282702
O O4 0.639248 0.852063 0.196120
O O5 0.436503 0.773979 0.862000
O O6 0.358042 0.504608 0.864634
O O7 0.452168 0.270041 0.848430
O O8 0.349469 0.481901 0.960803
O O9 0.308599 0.796862 0.147744
O O10 0.276883 0.685986 0.076343
O O11 0.243057 0.097472 0.129772
O O12 0.000000 0.485650 0.750000
O O13 0.740789 0.530060 0.253098
O O14 0.722304 0.850889 0.066614
O O15 0.750000 0.250000 0.000000
#
# Coordination Sequence:
#
# PCOD9271637 Si02
#       7
#     8   8   8   8   8   8   8
#     4  10  22  38  58  90 121 157 194 245 301 357
#     4  12  25  38  57  86 120 159 197 230 289 360
#     4  10  21  36  62  87 120 149 195 253 302 345
#     4  12  25  38  58  82 122 161 192 236 287 358
#     4  10  20  36  60  90 119 150 194 249 308 352
#     4  11  23  37  58  87 121 157 196 246 300 348
#     4  11  20  37  60  86 121 151 193 250 295 352
#
# _framework density 18.356652
#
# number of rings (size 3 to 8) (size 9 to 14) (size 15 to 20)
#    0.000    1.143    4.286    2.571    4.000    0.000 
#    0.000    0.000    0.000    1.714    0.000    0.000 
#    0.000    0.000    0.000    0.000    0.000    0.000 
#
# Total GULP energy -156058.665208 kJ/mol
# GULP energy per Si atom -5573.523757 kJ/mol
# Density = 1.831487 g / cm^3
# Si number density = 18.356652 Si / 1000 Ang^3
#
#
#
# Elastic Constant Matrix: (Units=GPa)
#
#
# Indices 1 2 3 4 5 6 
#
# 1 88.8772 7.3004 43.2746 0.3526 6.9082 0.7197
# 2 7.3004 64.5646 22.8653 0.3838 0.2599 0.4277
# 3 43.2746 22.8653 81.4884 -0.0215 7.9976 0.0453
# 4 0.3526 0.3838 -0.0215 15.7590 -0.1733 6.1758
# 5 6.9082 0.2599 7.9976 -0.1733 25.6321 0.2508
# 6 0.7197 0.4277 0.0453 6.1758 0.2508 27.5261
#
#
#
# Elastic Compliance Matrix: (Units=1/GPa)
#
#
# Indices 1 2 3 4 5 6 
#
# 1 0.015333 0.001228 -0.008336 -0.000271 -0.001543 -0.000331
# 2 0.001228 0.017346 -0.005643 -0.000356 0.001253 -0.000224
# 3 -0.008336 -0.005643 0.018626 0.000209 -0.003509 0.000260
# 4 -0.000271 -0.000356 0.000209 0.069594 0.000635 -0.015608
# 5 -0.001543 0.001253 -0.003509 0.000635 0.040520 -0.000485
# 6 -0.000331 -0.000224 0.000260 -0.015608 -0.000485 0.039847
#
#
# Mechanical properties :
#
#
# Convention : Reuss Voigt Hill
#
# Bulk Modulus (GPa) = 38.75179 42.42342 40.58761
# Shear Modulus (GPa) = 21.24327 24.54945 22.89636
#
# Velocity S-wave (km/s) = 3.40553 3.66096 3.53555
# Velocity P-wave (km/s) = 6.05143 6.40554 6.23100
#
# Compressibility (1/GPa) = 0.02580526
#
# Stress axis : x y z
#
# Youngs Moduli (GPa) = 65.21901 57.64905 53.68835
#
# Poissons Ratio (x) = -0.07082 0.44753
# Poissons Ratio (y) = -0.08011 0.30294
# Poissons Ratio (z) = 0.54365 0.32529
#
# Static dielectric constant tensor:
#      x y z
#    x 1.650170 -0.000280 0.004760 
#    y -0.000280 1.724190 -0.000140 
#    z 0.004760 -0.000140 1.639070 
# 
# From -- ./inp_files/254028.got.cif
#   From: 2010.05.17/outbox.cif.g08.bks.cpg/sg15_128_cif.got.tgz:254028.got - 2010.06.03 18:47:42.
