data_PCOD9271298
_publ_section_title
;
Structure prediction by ZEFSAII (Michael W. Deem and Ramdas Pophale) SiO2 
 PCOD9271298
Probable space group: C 2/C
;
_chemical_formula_sum "Si O2"
_cell_formula_units_Z 40
_cell_length_a 16.098097
_cell_length_b 8.558877
_cell_length_c 27.297346
_cell_angle_alpha 90.000000
_cell_angle_beta 145.376522
_cell_angle_gamma 90.000000
_cell_volume 2136.970125
_symmetry_space_group_name_H-M "C 2/C"
_symmetry_group_IT_number 15
_symmetry_cell_setting 'monoclinic'
loop_
_space_group_symop_operation_xyz
x,y,z
-x,y,1/2-z
-x,-y,-z
x,-y,1/2+z
1/2+x,1/2+y,z
1/2-x,1/2+y,1/2-z
1/2-x,1/2-y,-z
1/2+x,1/2-y,1/2+z
loop_
_atom_site_type_symbol
_atom_site_label
_atom_site_fract_x
_atom_site_fract_y
_atom_site_fract_z
Si Si1 0.856808 0.425349 0.406067
Si Si2 0.364782 0.696110 0.619584
Si Si3 0.027219 0.764786 0.912081
Si Si4 0.731653 0.999328 0.466687
Si Si5 0.920122 0.930654 0.760792
O O1 0.754737 0.352255 0.398306
O O2 0.906800 0.297320 0.390924
O O3 0.752721 0.555956 0.330859
O O4 0.000000 0.500000 0.500000
O O5 0.312706 0.610954 0.544690
O O6 0.516654 0.608255 0.703886
O O7 0.358564 0.882249 0.611043
O O8 0.965050 0.839042 0.831574
O O9 0.123542 0.615795 0.942796
O O10 0.139973 0.888017 0.991562
O O11 0.000000 0.867719 0.750000
#
# Coordination Sequence:
#
# PCOD9271298 Si02
#       5
#     8   8   8   8   8
#     4  11  21  37  60  85 115 153 189 237 289 335
#     4   9  18  37  59  81 113 152 189 228 284 344
#     4  10  20  36  58  88 115 144 194 238 286 338
#     4   9  18  34  60  84 110 150 188 231 282 340
#     4   9  21  39  57  79 115 156 190 234 289 344
#
# _framework density 18.718088999999999
#
# number of rings (size 3 to 8) (size 9 to 14) (size 15 to 20)
#    0.000    2.400    2.000    0.000    2.800    2.400 
#    3.600    5.000    0.000    0.000    0.000    0.000 
#    0.000    0.000    0.000    0.000    0.000    0.000 
#
# Total GULP energy -111392.936454 kJ/mol
# GULP energy per Si atom -5569.646823 kJ/mol
# Density = 1.867549 g / cm^3
# Si number density = 18.718089 Si / 1000 Ang^3
#
#
#
# Elastic Constant Matrix: (Units=GPa)
#
#
# Indices 1 2 3 4 5 6 
#
# 1 26.0712 -6.0059 -8.7206 0.0000 9.3801 0.0000
# 2 -6.0059 68.9229 15.4252 0.0000 -0.2978 0.0000
# 3 -8.7206 15.4252 89.4239 0.0000 5.8702 0.0000
# 4 0.0000 0.0000 0.0000 18.0572 0.0000 -5.8800
# 5 9.3801 -0.2978 5.8702 0.0000 24.5062 0.0000
# 6 0.0000 0.0000 0.0000 -5.8800 0.0000 18.3255
#
#
#
# Elastic Compliance Matrix: (Units=1/GPa)
#
#
# Indices 1 2 3 4 5 6 
#
# 1 0.047899 0.002866 0.005464 0.000000 -0.019608 0.000000
# 2 0.002866 0.015279 -0.002333 0.000000 -0.000353 0.000000
# 3 0.005464 -0.002333 0.012453 0.000000 -0.005103 0.000000
# 4 0.000000 0.000000 0.000000 0.061841 0.000000 0.019842
# 5 -0.019608 -0.000353 -0.005103 0.000000 0.049529 0.000000
# 6 0.000000 0.000000 0.000000 0.019842 0.000000 0.060935
#
#
# Mechanical properties :
#
#
# Convention : Reuss Voigt Hill
#
# Bulk Modulus (GPa) = 11.41214 20.64617 16.02916
# Shear Modulus (GPa) = 18.85718 24.42573 21.64146
#
# Velocity S-wave (km/s) = 3.17745 3.61630 3.40395
# Velocity P-wave (km/s) = 4.42399 5.33768 4.90217
#
# Compressibility (1/GPa) = 0.08762597
#
# Stress axis : x y z
#
# Youngs Moduli (GPa) = 20.87717 65.44787 80.30258
#
# Poissons Ratio (x) = -0.18760 -0.43876
# Poissons Ratio (y) = -0.05984 0.18734
# Poissons Ratio (z) = -0.11407 0.15269
#
# Static dielectric constant tensor:
#      x y z
#    x 1.641780 0.000000 -0.035970 
#    y 0.000000 1.660950 0.000000 
#    z -0.035970 0.000000 1.700710 
# 
# From -- ./inp_files/202203.got.cif
#   From: 2010.05.17/outbox.cif.g08.bks.cpg/sg15_102_cif.got.tgz:202203.got - 2010.06.03 18:47:42.
