data_PCOD9271962
_publ_section_title
;
Structure prediction by ZEFSAII (Michael W. Deem and Ramdas Pophale) SiO2 
 PCOD9271962
Probable space group: C 2/C
;
_chemical_formula_sum "Si O2"
_cell_formula_units_Z 44
_cell_length_a 10.311023
_cell_length_b 12.998744
_cell_length_c 24.748754
_cell_angle_alpha 90.000000
_cell_angle_beta 142.725111
_cell_angle_gamma 90.000000
_cell_volume 2008.957865
_symmetry_space_group_name_H-M "C 2/C"
_symmetry_group_IT_number 15
_symmetry_cell_setting 'monoclinic'
loop_
_space_group_symop_operation_xyz
x,y,z
-x,y,1/2-z
-x,-y,-z
x,-y,1/2+z
1/2+x,1/2+y,z
1/2-x,1/2+y,1/2-z
1/2-x,1/2-y,-z
1/2+x,1/2-y,1/2+z
loop_
_atom_site_type_symbol
_atom_site_label
_atom_site_fract_x
_atom_site_fract_y
_atom_site_fract_z
Si Si1 0.703573 0.112719 0.988103
Si Si2 0.403579 0.729752 0.357821
Si Si3 0.047571 0.884180 0.036238
Si Si4 0.500000 0.906686 0.750000
Si Si5 0.229738 0.734265 0.801259
Si Si6 0.917112 0.404483 0.602080
O O1 0.496731 0.182711 0.927858
O O2 0.796197 0.150045 0.960011
O O3 0.638684 0.995151 0.958670
O O4 0.904980 0.146998 0.091091
O O5 0.210650 0.663281 0.316505
O O6 0.316187 0.787017 0.276308
O O7 0.171037 0.860414 0.132278
O O8 0.806607 0.843025 0.963916
O O9 0.000000 0.000000 0.000000
O O10 0.480793 0.953015 0.682594
O O11 0.396930 0.829112 0.856381
O O12 0.000000 0.761538 0.750000
#
# Coordination Sequence:
#
# PCOD9271962 Si02
#       6
#     8   8   8   4   8   8
#     4  10  20  39  61  89 123 170 213 254 321 375
#     4  10  21  38  62  88 129 167 209 264 318 370
#     4  10  20  38  64  92 121 160 213 261 312 366
#     4  10  20  36  62  94 124 162 214 266 306 362
#     4  11  22  40  62  93 130 166 204 266 317 374
#     4  10  22  38  62  94 126 165 213 262 313 376
#
# _framework density 21.901902
#
# number of rings (size 3 to 8) (size 9 to 14) (size 15 to 20)
#    0.000    1.818    3.636    0.545    0.000    2.909 
#    4.909    0.909    0.000    0.000    0.000    0.000 
#    0.000    0.000    0.000    0.000    0.000    0.000 
#
# Total GULP energy -122496.392146 kJ/mol
# GULP energy per Si atom -5568.017825 kJ/mol
# Density = 2.185205 g / cm^3
# Si number density = 21.901902 Si / 1000 Ang^3
#
#
#
# Elastic Constant Matrix: (Units=GPa)
#
#
# Indices 1 2 3 4 5 6 
#
# 1 35.5525 21.1244 24.8986 0.0000 16.2080 0.0000
# 2 21.1244 73.4535 41.2171 0.0000 3.2173 0.0000
# 3 24.8986 41.2171 131.3050 0.0000 9.2638 0.0000
# 4 0.0000 0.0000 0.0000 35.7209 0.0000 -1.7837
# 5 16.2080 3.2173 9.2638 0.0000 55.3044 0.0000
# 6 0.0000 0.0000 0.0000 -1.7837 0.0000 19.2969
#
#
#
# Elastic Compliance Matrix: (Units=1/GPa)
#
#
# Indices 1 2 3 4 5 6 
#
# 1 0.041462 -0.009063 -0.004247 0.000000 -0.010912 0.000000
# 2 -0.009063 0.018506 -0.004252 0.000000 0.002292 0.000000
# 3 -0.004247 -0.004252 0.009766 0.000000 -0.000144 0.000000
# 4 0.000000 0.000000 0.000000 0.028125 0.000000 0.002600
# 5 -0.010912 0.002292 -0.000144 0.000000 0.021171 0.000000
# 6 0.000000 0.000000 0.000000 0.002600 0.000000 0.052062
#
#
# Mechanical properties :
#
#
# Convention : Reuss Voigt Hill
#
# Bulk Modulus (GPa) = 28.89395 46.08791 37.49093
# Shear Modulus (GPa) = 22.96186 32.26918 27.61552
#
# Velocity S-wave (km/s) = 3.24141 3.84259 3.55473
# Velocity P-wave (km/s) = 5.21824 6.38560 5.83121
#
# Compressibility (1/GPa) = 0.03460932
#
# Stress axis : x y z
#
# Youngs Moduli (GPa) = 24.11864 54.03629 102.39360
#
# Poissons Ratio (x) = 0.48971 0.43491
# Poissons Ratio (y) = 0.21858 0.43541
# Poissons Ratio (z) = 0.10244 0.22978
#
# Static dielectric constant tensor:
#      x y z
#    x 1.871760 0.000000 -0.018700 
#    y 0.000000 1.842550 0.000000 
#    z -0.018700 0.000000 1.891190 
# 
# From -- ./inp_files/198082.got.cif
#   From: 2010.05.17/outbox.cif.g08.bks.cpg/sg15_100_cif.got.tgz:198082.got - 2010.06.03 18:47:42.
