data_PCOD9271390
_publ_section_title
;
Structure prediction by ZEFSAII (Michael W. Deem and Ramdas Pophale) SiO2 
 PCOD9271390
Probable space group: C 2/C
;
_chemical_formula_sum "Si O2"
_cell_formula_units_Z 52
_cell_length_a 12.457381
_cell_length_b 27.130241
_cell_length_c 11.206744
_cell_angle_alpha 90.000000
_cell_angle_beta 37.071141
_cell_angle_gamma 90.000000
_cell_volume 2283.166306
_symmetry_space_group_name_H-M "C 2/C"
_symmetry_group_IT_number 15
_symmetry_cell_setting 'monoclinic'
loop_
_space_group_symop_operation_xyz
x,y,z
-x,y,1/2-z
-x,-y,-z
x,-y,1/2+z
1/2+x,1/2+y,z
1/2-x,1/2+y,1/2-z
1/2-x,1/2-y,-z
1/2+x,1/2-y,1/2+z
loop_
_atom_site_type_symbol
_atom_site_label
_atom_site_fract_x
_atom_site_fract_y
_atom_site_fract_z
Si Si1 0.914976 0.322180 0.695405
Si Si2 0.163342 0.012286 0.268475
Si Si3 0.654229 0.074694 0.211310
Si Si4 0.500000 0.765913 0.250000
Si Si5 0.662178 0.319191 0.453907
Si Si6 0.000000 0.094534 0.250000
Si Si7 0.000000 0.066914 0.750000
Si Si8 0.477331 0.716556 0.912412
O O1 0.907461 0.377756 0.655243
O O2 0.012300 0.274099 0.560250
O O3 0.000000 0.329104 0.750000
O O4 0.713561 0.303620 0.883121
O O5 0.315205 0.028744 0.226838
O O6 0.124238 0.059060 0.218378
O O7 0.000000 0.000000 0.500000
O O8 0.142682 0.965881 0.198871
O O9 0.500000 0.064971 0.250000
O O10 0.849635 0.089039 0.976244
O O11 0.455534 0.726593 0.392420
O O12 0.350124 0.801942 0.335076
O O13 0.602291 0.369508 0.568132
O O14 0.625025 0.316738 0.346725
O O15 0.500000 0.714670 0.750000
#
# Coordination Sequence:
#
# PCOD9271390 Si02
#       8
#     8   8   8   4   8   4   4   8
#     4  10  21  35  52  82 122 161 200 244 300 359
#     4   9  19  39  66  89 116 157 198 247 319 382
#     4  10  21  37  61  92 122 157 205 258 308 378
#     4   9  20  35  54  82 120 162 214 245 292 355
#     4  10  20  36  59  84 117 165 204 252 298 351
#     4  10  20  38  66  88 116 158 198 250 300 372
#     4   9  20  39  64  88 120 156 200 255 324 383
#     4  11  21  35  54  81 119 163 201 249 304 357
#
# _framework density 22.775389000000001
#
# number of rings (size 3 to 8) (size 9 to 14) (size 15 to 20)
#    0.000    2.154    0.000    3.692    1.077    3.077 
#    0.000    1.538   15.231    0.000    0.000    0.000 
#    0.000    0.000    0.000    0.000    0.000    0.000 
#
# Total GULP energy -144857.667137 kJ/mol
# GULP energy per Si atom -5571.448736 kJ/mol
# Density = 2.272355 g / cm^3
# Si number density = 22.775389 Si / 1000 Ang^3
#
#
#
# Elastic Constant Matrix: (Units=GPa)
#
#
# Indices 1 2 3 4 5 6 
#
# 1 222.1633 11.5666 45.5103 0.0000 -49.9562 0.0000
# 2 11.5666 79.5108 4.0135 0.0000 7.6578 0.0000
# 3 45.5103 4.0135 40.2930 0.0000 -14.0690 0.0000
# 4 0.0000 0.0000 0.0000 57.7215 0.0000 6.0368
# 5 -49.9562 7.6578 -14.0690 0.0000 54.9166 0.0000
# 6 0.0000 0.0000 0.0000 6.0368 0.0000 5.6990
#
#
#
# Elastic Compliance Matrix: (Units=1/GPa)
#
#
# Indices 1 2 3 4 5 6 
#
# 1 0.006882 -0.001173 -0.005945 0.000000 0.004901 0.000000
# 2 -0.001173 0.013108 -0.001089 0.000000 -0.003174 0.000000
# 3 -0.005945 -0.001089 0.032734 0.000000 0.003130 0.000000
# 4 0.000000 0.000000 0.000000 0.019483 0.000000 -0.020638
# 5 0.004901 -0.003174 0.003130 0.000000 0.023912 0.000000
# 6 0.000000 0.000000 0.000000 -0.020638 0.000000 0.197331
#
#
# Mechanical properties :
#
#
# Convention : Reuss Voigt Hill
#
# Bulk Modulus (GPa) = 27.54030 51.57200 39.55615
# Shear Modulus (GPa) = 15.52945 42.39252 28.96099
#
# Velocity S-wave (km/s) = 2.61406 4.31899 3.56981
# Velocity P-wave (km/s) = 4.60755 6.89670 5.86490
#
# Compressibility (1/GPa) = 0.03631043
#
# Stress axis : x y z
#
# Youngs Moduli (GPa) = 145.30205 76.28797 30.54882
#
# Poissons Ratio (x) = 0.08949 0.18162
# Poissons Ratio (y) = 0.17045 0.03327
# Poissons Ratio (z) = 0.86385 0.08307
#
# Static dielectric constant tensor:
#      x y z
#    x 1.914970 0.000000 0.033050 
#    y 0.000000 1.867340 0.000000 
#    z 0.033050 0.000000 1.916760 
# 
# From -- ./inp_files/92581.got.cif
#   From: 2010.05.17/outbox.cif.g08.bks.cpg/sg15_47_cif.got.tgz:92581.got - 2010.06.03 18:47:42.
