data_PCOD9271386
_publ_section_title
;
Structure prediction by ZEFSAII (Michael W. Deem and Ramdas Pophale) SiO2 
 PCOD9271386
Probable space group: C 2/C
;
_chemical_formula_sum "Si O2"
_cell_formula_units_Z 56
_cell_length_a 10.651785
_cell_length_b 30.220919
_cell_length_c 11.344915
_cell_angle_alpha 90.000000
_cell_angle_beta 128.453818
_cell_angle_gamma 90.000000
_cell_volume 2859.920034
_symmetry_space_group_name_H-M "C 2/C"
_symmetry_group_IT_number 15
_symmetry_cell_setting 'monoclinic'
loop_
_space_group_symop_operation_xyz
x,y,z
-x,y,1/2-z
-x,-y,-z
x,-y,1/2+z
1/2+x,1/2+y,z
1/2-x,1/2+y,1/2-z
1/2-x,1/2-y,-z
1/2+x,1/2-y,1/2+z
loop_
_atom_site_type_symbol
_atom_site_label
_atom_site_fract_x
_atom_site_fract_y
_atom_site_fract_z
Si Si1 0.840502 0.957578 0.996203
Si Si2 0.415131 0.047201 0.945708
Si Si3 0.878331 0.722872 0.791659
Si Si4 0.822780 0.056101 0.894891
Si Si5 0.340428 0.194380 0.386955
Si Si6 0.689573 0.855431 0.386638
Si Si7 0.128047 0.395571 0.719262
O O1 0.763687 0.929746 0.842532
O O2 0.839416 0.010512 0.975759
O O3 0.727416 0.949466 0.041701
O O4 0.024399 0.942611 0.102862
O O5 0.337577 0.052443 0.774501
O O6 0.544001 0.084057 0.054779
O O7 0.500000 0.000000 0.000000
O O8 0.768775 0.765822 0.722504
O O9 0.775785 0.679047 0.699349
O O10 0.000000 0.727647 0.750000
O O11 0.985528 0.713548 0.969995
O O12 0.799036 0.101313 0.951204
O O13 0.285538 0.171563 0.478019
O O14 0.334157 0.154779 0.289348
O O15 0.500000 0.866036 0.250000
O O16 0.000000 0.396281 0.750000
#
# Coordination Sequence:
#
# PCOD9271386 Si02
#       7
#     8   8   8   8   8   8   8
#     4  10  24  37  52  85 121 150 190 246 293 328
#     4  11  21  37  62  76 110 162 199 232 283 337
#     4   9  18  35  55  86 116 142 183 240 301 351
#     4  11  22  37  56  85 119 148 193 243 289 351
#     4  10  20  36  59  84 115 149 190 242 294 357
#     4   9  19  32  58  88 112 147 197 237 287 362
#     4  10  22  40  56  84 112 153 200 240 283 346
#
# _framework density 19.580966
#
# number of rings (size 3 to 8) (size 9 to 14) (size 15 to 20)
#    0.000    2.286    1.429    3.857    4.000    2.286 
#    0.000    0.714    0.000    1.714    0.000    0.000 
#    0.000    0.000    0.000    0.000    0.000    0.000 
#
# Total GULP energy -156092.457775 kJ/mol
# GULP energy per Si atom -5574.730635 kJ/mol
# Density = 1.953640 g / cm^3
# Si number density = 19.580966 Si / 1000 Ang^3
#
#
#
# Elastic Constant Matrix: (Units=GPa)
#
#
# Indices 1 2 3 4 5 6 
#
# 1 18.4526 28.8766 -0.4213 0.0000 9.5289 0.0000
# 2 28.8766 153.6590 30.6767 0.0000 21.2075 0.0000
# 3 -0.4213 30.6767 40.7159 0.0000 12.3349 0.0000
# 4 0.0000 0.0000 0.0000 23.5699 0.0000 3.2734
# 5 9.5289 21.2075 12.3349 0.0000 12.7962 0.0000
# 6 0.0000 0.0000 0.0000 3.2734 0.0000 35.1289
#
#
#
# Elastic Compliance Matrix: (Units=1/GPa)
#
#
# Indices 1 2 3 4 5 6 
#
# 1 0.172806 -0.024812 0.066400 0.000000 -0.151567 0.000000
# 2 -0.024812 0.012268 -0.012624 0.000000 0.010315 0.000000
# 3 0.066400 -0.012624 0.061302 0.000000 -0.087615 0.000000
# 4 0.000000 0.000000 0.000000 0.042983 0.000000 -0.004005
# 5 -0.151567 0.010315 -0.087615 0.000000 0.258377 0.000000
# 6 0.000000 0.000000 0.000000 -0.004005 0.000000 0.028840
#
#
# Mechanical properties :
#
#
# Convention : Reuss Voigt Hill
#
# Bulk Modulus (GPa) = 3.28621 36.78796 20.03708
# Shear Modulus (GPa) = 8.06342 24.54535 16.30439
#
# Velocity S-wave (km/s) = 2.03148 3.54437 2.88872
# Velocity P-wave (km/s) = 2.68039 5.96477 4.62401
#
# Compressibility (1/GPa) = 0.30430232
#
# Stress axis : x y z
#
# Youngs Moduli (GPa) = 5.78683 81.51593 16.31261
#
# Poissons Ratio (x) = 2.02260 -1.08315
# Poissons Ratio (y) = 0.14358 0.20594
# Poissons Ratio (z) = -0.38424 1.02909
#
# Static dielectric constant tensor:
#      x y z
#    x 1.736460 0.000000 -0.003110 
#    y 0.000000 1.743260 0.000000 
#    z -0.003110 0.000000 1.713870 
# 
# From -- ./inp_files/91977.got.cif
#   From: 2010.05.17/outbox.cif.g08.bks.cpg/sg15_46_cif.got.tgz:91977.got - 2010.06.03 18:47:42.
