data_PCOD9271482
_publ_section_title
;
Structure prediction by ZEFSAII (Michael W. Deem and Ramdas Pophale) SiO2 
 PCOD9271482
Probable space group: C 2/C
;
_chemical_formula_sum "Si O2"
_cell_formula_units_Z 44
_cell_length_a 13.539172
_cell_length_b 12.354898
_cell_length_c 16.514227
_cell_angle_alpha 90.000000
_cell_angle_beta 58.407905
_cell_angle_gamma 90.000000
_cell_volume 2353.026171
_symmetry_space_group_name_H-M "C 2/C"
_symmetry_group_IT_number 15
_symmetry_cell_setting 'monoclinic'
loop_
_space_group_symop_operation_xyz
x,y,z
-x,y,1/2-z
-x,-y,-z
x,-y,1/2+z
1/2+x,1/2+y,z
1/2-x,1/2+y,1/2-z
1/2-x,1/2-y,-z
1/2+x,1/2-y,1/2+z
loop_
_atom_site_type_symbol
_atom_site_label
_atom_site_fract_x
_atom_site_fract_y
_atom_site_fract_z
Si Si1 0.639240 0.828518 0.558257
Si Si2 0.172880 0.400314 0.716912
Si Si3 0.388628 0.220442 0.101373
Si Si4 0.671306 0.915237 0.032821
Si Si5 0.500000 0.922952 0.250000
Si Si6 0.370192 0.543087 0.560436
O O1 0.750000 0.750000 0.500000
O O2 0.623331 0.833220 0.662218
O O3 0.525817 0.788646 0.560656
O O4 0.649911 0.955662 0.528555
O O5 0.178538 0.335371 0.796208
O O6 0.085666 0.500937 0.765351
O O7 0.292395 0.449836 0.633671
O O8 0.362902 0.346929 0.113401
O O9 0.354800 0.158474 0.033203
O O10 0.588545 0.875687 0.144027
O O11 0.804610 0.920264 0.005990
O O12 0.500000 0.500000 0.500000
#
# Coordination Sequence:
#
# PCOD9271482 Si02
#       6
#     8   8   8   8   4   8
#     4  10  20  36  59  90 121 153 196 250 311 361
#     4  10  20  38  58  87 120 152 195 251 297 354
#     4  12  20  37  65  90 112 161 212 245 298 381
#     4  10  21  37  61  86 121 156 208 245 300 376
#     4   8  16  38  54  82 122 142 192 256 284 336
#     4  10  23  43  57  82 132 160 190 259 326 354
#
# _framework density 18.699324000000001
#
# number of rings (size 3 to 8) (size 9 to 14) (size 15 to 20)
#    0.000    2.182    3.636    3.273    0.000    1.455 
#    9.818    2.727    0.000    0.000    0.000    0.000 
#    0.000    0.000    0.000    0.000    0.000    0.000 
#
# Total GULP energy -122476.102709 kJ/mol
# GULP energy per Si atom -5567.095578 kJ/mol
# Density = 1.865676 g / cm^3
# Si number density = 18.699324 Si / 1000 Ang^3
#
#
#
# Elastic Constant Matrix: (Units=GPa)
#
#
# Indices 1 2 3 4 5 6 
#
# 1 131.8047 24.7246 55.3354 0.0000 -11.3743 0.0000
# 2 24.7246 51.9045 33.2609 0.0000 9.1953 0.0000
# 3 55.3354 33.2609 96.8453 0.0000 6.3510 0.0000
# 4 0.0000 0.0000 0.0000 16.3299 0.0000 0.6481
# 5 -11.3743 9.1953 6.3510 0.0000 38.3984 0.0000
# 6 0.0000 0.0000 0.0000 0.6481 0.0000 16.6882
#
#
#
# Elastic Compliance Matrix: (Units=1/GPa)
#
#
# Indices 1 2 3 4 5 6 
#
# 1 0.010820 -0.002344 -0.005686 0.000000 0.004707 0.000000
# 2 -0.002344 0.026027 -0.007223 0.000000 -0.005733 0.000000
# 3 -0.005686 -0.007223 0.016228 0.000000 -0.002639 0.000000
# 4 0.000000 0.000000 0.000000 0.061332 0.000000 -0.002382
# 5 0.004707 -0.005733 -0.002639 0.000000 0.029246 0.000000
# 6 0.000000 0.000000 0.000000 -0.002382 0.000000 0.060015
#
#
# Mechanical properties :
#
#
# Convention : Reuss Voigt Hill
#
# Bulk Modulus (GPa) = 44.30985 56.35515 50.33250
# Shear Modulus (GPa) = 20.68686 25.43219 23.05953
#
# Velocity S-wave (km/s) = 3.32970 3.69190 3.51547
# Velocity P-wave (km/s) = 6.20725 6.95532 6.59190
#
# Compressibility (1/GPa) = 0.02256834
#
# Stress axis : x y z
#
# Youngs Moduli (GPa) = 92.42113 38.42121 61.62044
#
# Poissons Ratio (x) = 0.09008 0.35036
# Poissons Ratio (y) = 0.21668 0.44511
# Poissons Ratio (z) = 0.52549 0.27753
#
# Static dielectric constant tensor:
#      x y z
#    x 1.691770 0.000000 -0.025720 
#    y 0.000000 1.667310 0.000000 
#    z -0.025720 0.000000 1.667710 
# 
# From -- ./inp_files/196433.got.cif
#   From: 2010.05.17/outbox.cif.g08.bks.cpg/sg15_99_cif.got.tgz:196433.got - 2010.06.03 18:47:42.
