data_PCOD9271669
_publ_section_title
;
Structure prediction by ZEFSAII (Michael W. Deem and Ramdas Pophale) SiO2 
 PCOD9271669
Probable space group: C 2/C
;
_chemical_formula_sum "Si O2"
_cell_formula_units_Z 64
_cell_length_a 14.748617
_cell_length_b 11.728046
_cell_length_c 24.404972
_cell_angle_alpha 90.000000
_cell_angle_beta 34.452782
_cell_angle_gamma 90.000000
_cell_volume 2388.152644
_symmetry_space_group_name_H-M "C 2/C"
_symmetry_group_IT_number 15
_symmetry_cell_setting 'monoclinic'
loop_
_space_group_symop_operation_xyz
x,y,z
-x,y,1/2-z
-x,-y,-z
x,-y,1/2+z
1/2+x,1/2+y,z
1/2-x,1/2+y,1/2-z
1/2-x,1/2-y,-z
1/2+x,1/2-y,1/2+z
loop_
_atom_site_type_symbol
_atom_site_label
_atom_site_fract_x
_atom_site_fract_y
_atom_site_fract_z
Si Si1 0.607806 0.146552 0.999203
Si Si2 0.333013 0.024420 0.820016
Si Si3 0.471643 0.278457 0.606833
Si Si4 0.188800 0.180828 0.090689
Si Si5 0.772099 0.447667 0.645290
Si Si6 0.827355 0.734873 0.313473
Si Si7 0.716292 0.539424 0.497258
Si Si8 0.119911 0.965042 0.332447
O O1 0.703477 0.252820 0.926276
O O2 0.670898 0.047621 0.924822
O O3 0.419608 0.130929 0.089587
O O4 0.654487 0.118120 0.037759
O O5 0.500000 0.082578 0.750000
O O6 0.368697 0.896338 0.779485
O O7 0.248974 0.000456 0.919622
O O8 0.232906 0.084223 0.822664
O O9 0.634239 0.239625 0.494441
O O10 0.539702 0.258728 0.634540
O O11 0.298944 0.228365 0.672986
O O12 0.440571 0.412456 0.613429
O O13 0.217878 0.073945 0.034812
O O14 0.161350 0.130220 0.163419
O O15 0.693034 0.500767 0.738096
O O16 0.000000 0.785656 0.250000
O O17 0.545405 0.600432 0.591711
#
# Coordination Sequence:
#
# PCOD9271669 Si02
#       8
#     8   8   8   8   8   8   8   8
#     4  10  21  35  58  88 122 152 196 253 301 373
#     4  10  21  40  58  77 117 167 203 241 302 364
#     4   9  18  36  57  83 114 157 188 245 306 357
#     4   9  18  35  63  84 117 152 197 252 305 365
#     4  10  20  36  60  92 116 156 197 251 316 360
#     4  10  21  36  59  83 118 160 197 246 297 358
#     4  10  21  35  58  87 113 158 198 250 306 356
#     4  10  21  36  63  85 117 151 202 255 302 364
#
# _framework density 26.798956
#
# number of rings (size 3 to 8) (size 9 to 14) (size 15 to 20)
#    0.000    2.250    1.250    1.125    1.750    4.500 
#    0.000    0.000    8.250    0.000    0.000    0.000 
#    0.000    0.000    0.000    0.000    0.000    0.000 
#
# Total GULP energy -178627.542782 kJ/mol
# GULP energy per Si atom -5582.110712 kJ/mol
# Density = 2.673796 g / cm^3
# Si number density = 26.798956 Si / 1000 Ang^3
#
#
#
# Elastic Constant Matrix: (Units=GPa)
#
#
# Indices 1 2 3 4 5 6 
#
# 1 255.3747 20.9646 95.3081 0.0000 -16.8832 0.0000
# 2 20.9646 52.9314 6.6817 0.0000 -11.1155 0.0000
# 3 95.3081 6.6817 130.8641 -0.0003 -7.8721 0.0000
# 4 0.0000 0.0000 -0.0003 16.5126 0.0000 3.1277
# 5 -16.8832 -11.1155 -7.8721 0.0000 61.7673 0.0000
# 6 0.0000 0.0000 0.0000 3.1277 0.0000 24.7358
#
#
#
# Elastic Compliance Matrix: (Units=1/GPa)
#
#
# Indices 1 2 3 4 5 6 
#
# 1 0.005556 -0.001550 -0.003923 0.000000 0.000740 0.000000
# 2 -0.001550 0.020149 0.000295 0.000000 0.003240 0.000000
# 3 -0.003923 0.000295 0.010503 0.000000 0.000319 0.000000
# 4 0.000000 0.000000 0.000000 0.062046 0.000000 -0.007845
# 5 0.000740 0.003240 0.000319 0.000000 0.017016 0.000000
# 6 0.000000 0.000000 0.000000 -0.007845 0.000000 0.041419
#
#
# Mechanical properties :
#
#
# Convention : Reuss Voigt Hill
#
# Bulk Modulus (GPa) = 38.68109 76.11988 57.40049
# Shear Modulus (GPa) = 28.46376 41.68420 35.07398
#
# Velocity S-wave (km/s) = 3.26256 3.94819 3.62163
# Velocity P-wave (km/s) = 5.35327 7.01783 6.24129
#
# Compressibility (1/GPa) = 0.02585242
#
# Stress axis : x y z
#
# Youngs Moduli (GPa) = 179.98628 49.62914 95.21442
#
# Poissons Ratio (x) = 0.07693 0.37350
# Poissons Ratio (y) = 0.27898 -0.02809
# Poissons Ratio (z) = 0.70604 -0.01464
#
# Static dielectric constant tensor:
#      x y z
#    x 2.245020 0.000000 -0.065050 
#    y 0.000000 2.264620 0.000000 
#    z -0.065050 0.000000 2.099570 
# 
# From -- ./inp_files/274819.got.cif
#   From: 2010.05.17/outbox.cif.g08.bks.cpg/sg15_138_cif.got.tgz:274819.got - 2010.06.03 18:47:42.
