data_PCOD9271196
_publ_section_title
;
Structure prediction by ZEFSAII (Michael W. Deem and Ramdas Pophale) SiO2 
 PCOD9271196
Probable space group: C 2/C
;
_chemical_formula_sum "Si O2"
_cell_formula_units_Z 40
_cell_length_a 20.884232
_cell_length_b 9.165093
_cell_length_c 27.797395
_cell_angle_alpha 90.000000
_cell_angle_beta 21.216433
_cell_angle_gamma 90.000000
_cell_volume 1925.477341
_symmetry_space_group_name_H-M "C 2/C"
_symmetry_group_IT_number 15
_symmetry_cell_setting 'monoclinic'
loop_
_space_group_symop_operation_xyz
x,y,z
-x,y,1/2-z
-x,-y,-z
x,-y,1/2+z
1/2+x,1/2+y,z
1/2-x,1/2+y,1/2-z
1/2-x,1/2-y,-z
1/2+x,1/2-y,1/2+z
loop_
_atom_site_type_symbol
_atom_site_label
_atom_site_fract_x
_atom_site_fract_y
_atom_site_fract_z
Si Si1 0.547059 0.971176 0.362831
Si Si2 0.699194 0.059904 0.349489
Si Si3 0.230457 0.915769 0.876237
Si Si4 0.176786 0.110666 0.653914
Si Si5 0.039117 0.194813 0.016777
O O1 0.692259 0.046855 0.297196
O O2 0.614429 0.007619 0.262857
O O3 0.354203 0.042063 0.506533
O O4 0.531288 0.804403 0.392855
O O5 0.691696 0.215090 0.380838
O O6 0.500000 0.000000 0.500000
O O7 0.827866 0.953981 0.288417
O O8 0.298222 0.784222 0.861011
O O9 0.120012 0.044078 0.978857
O O10 0.098908 0.841824 0.929035
O O11 0.000000 0.070780 0.750000
#
# Coordination Sequence:
#
# PCOD9271196 Si02
#       5
#     8   8   8   8   8
#     4  10  20  36  58  81 117 148 188 236 278 338
#     4   8  15  35  53  79 109 144 184 231 275 323
#     4  11  20  32  60  87 112 148 187 236 286 325
#     4  10  20  38  57  83 120 149 185 233 280 343
#     4   9  19  34  51  86 112 138 189 241 276 320
#
# _framework density 20.774069000000001
#
# number of rings (size 3 to 8) (size 9 to 14) (size 15 to 20)
#    0.000    2.800    6.000    0.000    2.800    0.800 
#    0.000    4.000    0.000    6.000    0.000    0.000 
#    0.000    0.000    0.000    0.000    0.000    0.000 
#
# Total GULP energy -111467.902938 kJ/mol
# GULP energy per Si atom -5573.395147 kJ/mol
# Density = 2.072679 g / cm^3
# Si number density = 20.774069 Si / 1000 Ang^3
#
#
#
# Elastic Constant Matrix: (Units=GPa)
#
#
# Indices 1 2 3 4 5 6 
#
# 1 40.4997 14.6012 27.9194 0.0105 -23.8099 0.0006
# 2 14.6012 120.2463 41.6663 -0.0017 -7.2201 0.0067
# 3 27.9194 41.6663 63.2564 0.0087 -8.9274 0.0188
# 4 0.0105 -0.0017 0.0087 19.7711 0.0068 -4.9983
# 5 -23.8099 -7.2201 -8.9274 0.0068 34.7863 0.0053
# 6 0.0006 0.0067 0.0188 -4.9983 0.0053 15.9889
#
#
#
# Elastic Compliance Matrix: (Units=1/GPa)
#
#
# Indices 1 2 3 4 5 6 
#
# 1 0.061825 0.003055 -0.024112 -0.000034 0.036763 0.000002
# 2 0.003055 0.010933 -0.008233 0.000004 0.002247 0.000005
# 3 -0.024112 -0.008233 0.030404 -0.000005 -0.010409 -0.000030
# 4 -0.000034 0.000004 -0.000005 0.054919 -0.000037 0.017168
# 5 0.036763 0.002247 -0.010409 -0.000037 0.051705 -0.000019
# 6 0.000002 0.000005 -0.000030 0.017168 -0.000019 0.067910
#
#
# Mechanical properties :
#
#
# Convention : Reuss Voigt Hill
#
# Bulk Modulus (GPa) = 22.42942 43.59732 33.01337
# Shear Modulus (GPa) = 14.23945 23.43031 18.83488
#
# Velocity S-wave (km/s) = 2.62094 3.36201 3.01433
# Velocity P-wave (km/s) = 4.46983 6.00856 5.29538
#
# Compressibility (1/GPa) = 0.04458430
#
# Stress axis : x y z
#
# Youngs Moduli (GPa) = 16.17459 91.46694 32.88991
#
# Poissons Ratio (x) = -0.27943 0.79303
# Poissons Ratio (y) = -0.04941 0.27077
# Poissons Ratio (z) = 0.39000 0.75301
#
# Static dielectric constant tensor:
#      x y z
#    x 1.767710 0.000000 0.058900 
#    y 0.000000 1.816500 0.000000 
#    z 0.058900 0.000000 1.791680 
# 
# From -- ./inp_files/317442.got.cif
#   From: 2010.05.17/outbox.cif.g08.bks.cpg/sg15_159_cif.got.tgz:317442.got - 2010.06.03 18:47:42.
