data_PCOD9271150
_publ_section_title
;
Structure prediction by ZEFSAII (Michael W. Deem and Ramdas Pophale) SiO2 
 PCOD9271150
Probable space group: C 2/C
;
_chemical_formula_sum "Si O2"
_cell_formula_units_Z 56
_cell_length_a 30.368949
_cell_length_b 9.090916
_cell_length_c 22.273545
_cell_angle_alpha 90.000000
_cell_angle_beta 150.652257
_cell_angle_gamma 90.000000
_cell_volume 3013.834410
_symmetry_space_group_name_H-M "C 2/C"
_symmetry_group_IT_number 15
_symmetry_cell_setting 'monoclinic'
loop_
_space_group_symop_operation_xyz
x,y,z
-x,y,1/2-z
-x,-y,-z
x,-y,1/2+z
1/2+x,1/2+y,z
1/2-x,1/2+y,1/2-z
1/2-x,1/2-y,-z
1/2+x,1/2-y,1/2+z
loop_
_atom_site_type_symbol
_atom_site_label
_atom_site_fract_x
_atom_site_fract_y
_atom_site_fract_z
Si Si1 0.171717 0.357792 0.730060
Si Si2 0.338234 0.466208 0.469987
Si Si3 0.626698 0.146885 0.038096
Si Si4 0.240250 0.575196 0.977880
Si Si5 0.047404 0.784069 0.367600
Si Si6 0.770815 0.401518 0.413816
Si Si7 0.057011 0.480350 0.696987
O O1 0.259572 0.461459 0.837038
O O2 0.142287 0.333535 0.627293
O O3 0.199674 0.208458 0.798530
O O4 0.097141 0.443376 0.679701
O O5 0.355080 0.299734 0.472840
O O6 0.304082 0.471515 0.498482
O O7 0.424886 0.568710 0.565174
O O8 0.694078 0.024476 0.091032
O O9 0.525829 0.091920 0.905201
O O10 0.138703 0.538257 0.835235
O O11 0.250000 0.750000 0.000000
O O12 0.259146 0.482885 0.060818
O O13 0.141176 0.697793 0.467494
O O14 0.000000 0.825278 0.250000
O O15 0.983220 0.670753 0.325037
#
# Coordination Sequence:
#
# PCOD9271150 Si02
#       7
#     8   8   8   8   8   8   8
#     4  10  22  40  62  85 117 163 206 238 286 362
#     4  10  23  36  60  91 115 155 199 244 297 357
#     4  11  21  41  59  88 122 157 198 246 300 350
#     4  11  21  39  61  92 119 149 200 246 304 352
#     4  10  20  36  57  88 120 150 189 241 299 358
#     4  10  21  37  64  85 119 160 194 244 296 356
#     4  10  23  38  62  86 120 157 195 247 305 344
#
# _framework density 18.580981000000001
#
# number of rings (size 3 to 8) (size 9 to 14) (size 15 to 20)
#    0.000    1.714    2.857    1.286    2.000    2.857 
#    0.000    0.714    0.000    0.000    0.000    0.000 
#    0.000    0.000    0.000    0.000    0.000    0.000 
#
# Total GULP energy -156364.292521 kJ/mol
# GULP energy per Si atom -5584.439019 kJ/mol
# Density = 1.853869 g / cm^3
# Si number density = 18.580981 Si / 1000 Ang^3
#
#
#
# Elastic Constant Matrix: (Units=GPa)
#
#
# Indices 1 2 3 4 5 6 
#
# 1 64.2846 26.3694 40.0182 0.0000 -7.4584 0.0000
# 2 26.3694 120.3470 33.0779 0.0000 6.1854 0.0000
# 3 40.0182 33.0779 64.4089 0.0000 -2.9664 0.0000
# 4 0.0000 0.0000 0.0000 9.3549 0.0000 6.0314
# 5 -7.4584 6.1854 -2.9664 0.0000 20.0419 0.0000
# 6 0.0000 0.0000 0.0000 6.0314 0.0000 23.0980
#
#
#
# Elastic Compliance Matrix: (Units=1/GPa)
#
#
# Indices 1 2 3 4 5 6 
#
# 1 0.026882 -0.002140 -0.015215 0.000000 0.008412 0.000000
# 2 -0.002140 0.010133 -0.004083 0.000000 -0.004528 0.000000
# 3 -0.015215 -0.004083 0.027058 0.000000 -0.000397 0.000000
# 4 0.000000 0.000000 0.000000 0.128535 0.000000 -0.033563
# 5 0.008412 -0.004528 -0.000397 0.000000 0.054365 0.000000
# 6 0.000000 0.000000 0.000000 -0.033563 0.000000 0.052058
#
#
# Mechanical properties :
#
#
# Convention : Reuss Voigt Hill
#
# Bulk Modulus (GPa) = 47.17935 49.77460 48.47697
# Shear Modulus (GPa) = 14.32780 20.47063 17.39921
#
# Velocity S-wave (km/s) = 2.77988 3.32278 3.06338
# Velocity P-wave (km/s) = 5.97913 6.44727 6.21761
#
# Compressibility (1/GPa) = 0.02119572
#
# Stress axis : x y z
#
# Youngs Moduli (GPa) = 37.20017 98.68580 36.95807
#
# Poissons Ratio (x) = 0.21123 0.56233
# Poissons Ratio (y) = 0.07962 0.15089
# Poissons Ratio (z) = 0.56601 0.40290
#
# Static dielectric constant tensor:
#      x y z
#    x 1.639630 0.000000 0.009920 
#    y 0.000000 1.628370 0.000000 
#    z 0.009920 0.000000 1.614930 
# 
# From -- ./inp_files/171808.got.cif
#   From: 2010.05.17/outbox.cif.g08.bks.cpg/sg15_86_cif.got.tgz:171808.got - 2010.06.03 18:47:42.
