data_PCOD9271459
_publ_section_title
;
Structure prediction by ZEFSAII (Michael W. Deem and Ramdas Pophale) SiO2 
 PCOD9271459
Probable space group: C 2/C
;
_chemical_formula_sum "Si O2"
_cell_formula_units_Z 40
_cell_length_a 19.238377
_cell_length_b 8.571011
_cell_length_c 14.803771
_cell_angle_alpha 90.000000
_cell_angle_beta 135.584422
_cell_angle_gamma 90.000000
_cell_volume 1708.372244
_symmetry_space_group_name_H-M "C 2/C"
_symmetry_group_IT_number 15
_symmetry_cell_setting 'monoclinic'
loop_
_space_group_symop_operation_xyz
x,y,z
-x,y,1/2-z
-x,-y,-z
x,-y,1/2+z
1/2+x,1/2+y,z
1/2-x,1/2+y,1/2-z
1/2-x,1/2-y,-z
1/2+x,1/2-y,1/2+z
loop_
_atom_site_type_symbol
_atom_site_label
_atom_site_fract_x
_atom_site_fract_y
_atom_site_fract_z
Si Si1 0.106799 0.143409 0.309839
Si Si2 0.960366 0.727284 0.116264
Si Si3 0.155350 0.418808 0.713027
Si Si4 0.147985 0.233937 0.149798
Si Si5 0.691320 0.975249 0.445637
O O1 0.098463 0.172664 0.195171
O O2 0.199366 0.027201 0.410135
O O3 0.143359 0.303026 0.393523
O O4 0.000000 0.105930 0.250000
O O5 0.885269 0.589090 0.076064
O O6 0.000000 0.786113 0.250000
O O7 0.053969 0.665309 0.145917
O O8 0.901004 0.828684 0.987864
O O9 0.138139 0.578672 0.643390
O O10 0.236104 0.311321 0.739649
O O11 0.199939 0.469237 0.850853
#
# Coordination Sequence:
#
# PCOD9271459 Si02
#       5
#     8   8   8   8   8
#     4  10  20  36  59  88 124 163 204 253 301 355
#     4  10  21  39  62  87 122 165 204 244 300 366
#     4  10  22  39  63  91 121 160 203 250 301 360
#     4  11  22  38  63  93 121 157 205 250 301 360
#     4   9  19  37  59  86 122 164 206 243 298 369
#
# _framework density 23.414100999999999
#
# number of rings (size 3 to 8) (size 9 to 14) (size 15 to 20)
#    0.000    2.000    0.000    4.800    0.000    8.000 
#    0.000    7.000    0.000    0.000    0.000    0.000 
#    0.000    0.000    0.000    0.000    0.000    0.000 
#
# Total GULP energy -111861.988989 kJ/mol
# GULP energy per Si atom -5593.099449 kJ/mol
# Density = 2.336081 g / cm^3
# Si number density = 23.414101 Si / 1000 Ang^3
#
#
#
# Elastic Constant Matrix: (Units=GPa)
#
#
# Indices 1 2 3 4 5 6 
#
# 1 173.9609 45.0123 63.0838 0.0000 23.3273 0.0000
# 2 45.0123 31.1188 17.9419 0.0000 17.3367 0.0000
# 3 63.0838 17.9419 143.6728 0.0000 -0.1980 0.0000
# 4 0.0000 0.0000 0.0000 6.9200 0.0000 8.3144
# 5 23.3273 17.3367 -0.1980 0.0000 50.2713 0.0000
# 6 0.0000 0.0000 0.0000 8.3144 0.0000 2.2066
#
#
#
# Elastic Compliance Matrix: (Units=1/GPa)
#
#
# Indices 1 2 3 4 5 6 
#
# 1 0.010154 -0.012890 -0.002849 0.000000 -0.000278 0.000000
# 2 -0.012890 0.060066 -0.001861 0.000000 -0.014740 0.000000
# 3 -0.002849 -0.001861 0.008446 0.000000 0.001997 0.000000
# 4 0.000000 0.000000 0.000000 -0.040970 0.000000 0.154372
# 5 -0.000278 -0.014740 0.001997 0.000000 0.025112 0.000000
# 6 0.000000 0.000000 0.000000 0.154372 0.000000 -0.128482
#
#
# Mechanical properties :
#
#
# Convention : Reuss Voigt Hill
#
# Bulk Modulus (GPa) = 23.00731 66.75870 44.88300
# Shear Modulus (GPa) = -312.80372 26.72724 -143.03824
#
# Velocity S-wave (km/s) = -11.57093 3.38228 -7.82453
# Velocity P-wave (km/s) = 12.98721 6.62021 7.90064
#
# Compressibility (1/GPa) = 0.04346445
#
# Stress axis : x y z
#
# Youngs Moduli (GPa) = 98.48141 16.64848 118.39270
#
# Poissons Ratio (x) = 0.21460 0.33732
# Poissons Ratio (y) = 1.26946 0.22038
# Poissons Ratio (z) = 0.28059 0.03099
#
# Static dielectric constant tensor:
#      x y z
#    x 1.809880 0.000000 -0.010210 
#    y 0.000000 1.909310 0.000000 
#    z -0.010210 0.000000 1.920780 
# 
# From -- ./inp_files/160563.got.cif
#   From: 2010.05.17/outbox.cif.g08.bks.cpg/sg15_81_cif.got.tgz:160563.got - 2010.06.03 18:47:42.
