data_PCOD9271076
_publ_section_title
;
Structure prediction by ZEFSAII (Michael W. Deem and Ramdas Pophale) SiO2 
 PCOD9271076
Probable space group: C 2/C
;
_chemical_formula_sum "Si O2"
_cell_formula_units_Z 40
_cell_length_a 13.637688
_cell_length_b 29.090879
_cell_length_c 8.814211
_cell_angle_alpha 90.000000
_cell_angle_beta 145.215047
_cell_angle_gamma 90.000000
_cell_volume 1994.964105
_symmetry_space_group_name_H-M "C 2/C"
_symmetry_group_IT_number 15
_symmetry_cell_setting 'monoclinic'
loop_
_space_group_symop_operation_xyz
x,y,z
-x,y,1/2-z
-x,-y,-z
x,-y,1/2+z
1/2+x,1/2+y,z
1/2-x,1/2+y,1/2-z
1/2-x,1/2-y,-z
1/2+x,1/2-y,1/2+z
loop_
_atom_site_type_symbol
_atom_site_label
_atom_site_fract_x
_atom_site_fract_y
_atom_site_fract_z
Si Si1 0.595918 0.702744 0.030148
Si Si2 0.186611 0.953477 0.944126
Si Si3 0.702308 0.857929 0.523257
Si Si4 0.883549 0.473820 0.476964
Si Si5 0.838097 0.216213 0.954279
O O1 0.738775 0.663673 0.241441
O O2 0.698571 0.748984 0.209170
O O3 0.500000 0.706968 0.750000
O O4 0.440883 0.692518 0.949491
O O5 0.193496 0.904486 0.872045
O O6 0.000000 0.971680 0.750000
O O7 0.280802 0.989225 0.950176
O O8 0.269671 0.945236 0.216365
O O9 0.755242 0.820118 0.463934
O O10 0.500000 0.867535 0.250000
O O11 0.000000 0.500000 0.500000
O O12 0.000000 0.448378 0.750000
O O13 0.000000 0.240064 0.250000
#
# Coordination Sequence:
#
# PCOD9271076 Si02
#       5
#     8   8   8   8   8
#     4  11  21  36  57  85 114 146 188 237 281 329
#     4  11  21  38  61  87 115 148 189 235 282 336
#     4  11  22  39  58  80 112 154 191 229 280 339
#     4   9  19  37  59  85 113 147 184 225 279 339
#     4  10  20  36  57  81 112 151 188 226 279 341
#
# _framework density 20.050487
#
# number of rings (size 3 to 8) (size 9 to 14) (size 15 to 20)
#    0.000    1.600    0.000    9.000    0.000    0.000 
#    0.000   14.000    0.000    0.000    0.000    0.000 
#    0.000    0.000    0.000    0.000    0.000    0.000 
#
# Total GULP energy -111391.382351 kJ/mol
# GULP energy per Si atom -5569.569118 kJ/mol
# Density = 2.000485 g / cm^3
# Si number density = 20.050487 Si / 1000 Ang^3
#
#
#
# Elastic Constant Matrix: (Units=GPa)
#
#
# Indices 1 2 3 4 5 6 
#
# 1 93.9219 -1.8332 23.2370 0.0000 8.6904 0.0000
# 2 -1.8332 50.1019 -2.4023 0.0000 -4.4678 0.0000
# 3 23.2370 -2.4023 80.9970 0.0000 -19.9148 0.0000
# 4 0.0000 0.0000 0.0000 22.8648 0.0000 11.7784
# 5 8.6904 -4.4678 -19.9148 0.0000 35.2899 0.0000
# 6 0.0000 0.0000 0.0000 11.7784 0.0000 16.2678
#
#
#
# Elastic Compliance Matrix: (Units=1/GPa)
#
#
# Indices 1 2 3 4 5 6 
#
# 1 0.012438 -0.000317 -0.005040 0.000000 -0.005947 0.000000
# 2 -0.000317 0.020338 0.001563 0.000000 0.003535 0.000000
# 3 -0.005040 0.001563 0.016479 0.000000 0.010738 0.000000
# 4 0.000000 0.000000 0.000000 0.069751 0.000000 -0.050502
# 5 -0.005947 0.003535 0.010738 0.000000 0.036309 0.000000
# 6 0.000000 0.000000 0.000000 -0.050502 0.000000 0.098036
#
#
# Mechanical properties :
#
#
# Convention : Reuss Voigt Hill
#
# Bulk Modulus (GPa) = 23.99953 29.22486 26.61220
# Shear Modulus (GPa) = 18.19329 28.61912 23.40621
#
# Velocity S-wave (km/s) = 3.01553 3.78213 3.42038
# Velocity P-wave (km/s) = 4.91122 5.80344 5.37588
#
# Compressibility (1/GPa) = 0.04166747
#
# Stress axis : x y z
#
# Youngs Moduli (GPa) = 80.39745 49.16929 60.68455
#
# Poissons Ratio (x) = 0.01558 0.30585
# Poissons Ratio (y) = 0.02548 -0.09487
# Poissons Ratio (z) = 0.40521 -0.07687
#
# Static dielectric constant tensor:
#      x y z
#    x 1.729020 0.000000 0.027520 
#    y 0.000000 1.682430 0.000000 
#    z 0.027520 0.000000 1.827220 
# 
# From -- ./inp_files/25363.got.cif
#   From: 2010.05.17/outbox.cif.g08.bks.cpg/sg15_13_cif.got.tgz:25363.got - 2010.06.03 18:47:42.
