data_PCOD9271360
_publ_section_title
;
Structure prediction by ZEFSAII (Michael W. Deem and Ramdas Pophale) SiO2 
 PCOD9271360
Probable space group: C 2/C
;
_chemical_formula_sum "Si O2"
_cell_formula_units_Z 36
_cell_length_a 16.536785
_cell_length_b 19.880997
_cell_length_c 14.512066
_cell_angle_alpha 90.000000
_cell_angle_beta 161.458237
_cell_angle_gamma 90.000000
_cell_volume 1517.189674
_symmetry_space_group_name_H-M "C 2/C"
_symmetry_group_IT_number 15
_symmetry_cell_setting 'monoclinic'
loop_
_space_group_symop_operation_xyz
x,y,z
-x,y,1/2-z
-x,-y,-z
x,-y,1/2+z
1/2+x,1/2+y,z
1/2-x,1/2+y,1/2-z
1/2-x,1/2-y,-z
1/2+x,1/2-y,1/2+z
loop_
_atom_site_type_symbol
_atom_site_label
_atom_site_fract_x
_atom_site_fract_y
_atom_site_fract_z
Si Si1 0.342207 0.707418 0.747368
Si Si2 0.000000 0.490533 0.250000
Si Si3 0.000000 0.142612 0.750000
Si Si4 0.500000 0.404214 0.750000
Si Si5 0.238034 0.098316 0.689994
Si Si6 0.689934 0.948029 0.777871
O O1 0.304802 0.684078 0.601272
O O2 0.364883 0.642948 0.838469
O O3 0.103129 0.750239 0.524982
O O4 0.258745 0.447947 0.523376
O O5 0.990006 0.530538 0.142989
O O6 0.869622 0.097159 0.532927
O O7 0.373989 0.369665 0.524612
O O8 0.187954 0.017683 0.625891
O O9 0.541474 0.092308 0.038264
#
# Coordination Sequence:
#
# PCOD9271360 Si02
#       6
#     8   4   4   4   8   8
#     4  12  28  49  73 103 145 198 245 288 348 435
#     4  10  20  36  59 101 143 179 216 276 370 446
#     4  12  25  46  77 112 145 182 235 308 378 436
#     4  10  23  40  64  93 136 183 233 288 344 412
#     4  10  23  43  69 104 145 190 241 297 357 426
#     4  10  21  39  71 110 146 182 230 304 381 428
#
# _framework density 23.728079999999999
#
# number of rings (size 3 to 8) (size 9 to 14) (size 15 to 20)
#    0.000    1.333    0.000    6.000    0.000   12.444 
#    0.000    1.111    0.000    0.000    0.000    0.000 
#    0.000    0.000    0.000    0.000    0.000    0.000 
#
# Total GULP energy -100485.250690 kJ/mol
# GULP energy per Si atom -5582.513927 kJ/mol
# Density = 2.367407 g / cm^3
# Si number density = 23.728080 Si / 1000 Ang^3
#
#
#
# Elastic Constant Matrix: (Units=GPa)
#
#
# Indices 1 2 3 4 5 6 
#
# 1 60.1450 134.8697 58.6433 -0.0004 28.2093 0.0007
# 2 134.8697 73.3922 56.7776 0.0001 -26.3837 -0.0005
# 3 58.6433 56.7776 161.8114 -0.0011 -18.4678 -0.0001
# 4 -0.0004 0.0001 -0.0011 19.8145 -0.0002 -9.4548
# 5 28.2093 -26.3837 -18.4678 -0.0002 47.9944 -0.0003
# 6 0.0007 -0.0005 -0.0001 -9.4548 -0.0003 43.0319
#
#
#
# Elastic Compliance Matrix: (Units=1/GPa)
#
#
# Indices 1 2 3 4 5 6 
#
# 1 -0.002768 0.007990 -0.001165 0.000000 0.005571 0.000000
# 2 0.007990 -0.000762 -0.003360 0.000000 -0.006408 0.000000
# 3 -0.001165 -0.003360 0.008000 0.000001 0.001916 0.000000
# 4 0.000000 0.000000 0.000001 0.056379 0.000000 0.012387
# 5 0.005571 -0.006408 0.001916 0.000000 0.014776 0.000000
# 6 0.000000 0.000000 0.000000 0.012387 0.000000 0.025960
#
#
# Mechanical properties :
#
#
# Convention : Reuss Voigt Hill
#
# Bulk Modulus (GPa) = 87.71022 88.43664 88.07343
# Shear Modulus (GPa) = 50.78519 25.17202 37.97861
#
# Velocity S-wave (km/s) = 4.63136 3.26061 4.00506
# Velocity P-wave (km/s) = 8.10211 7.17825 7.65413
#
# Compressibility (1/GPa) = 0.01140118
#
# Stress axis : x y z
#
# Youngs Moduli (GPa) = -361.29250 -1312.29122 125.00521
#
# Poissons Ratio (x) = 10.48529 0.14559
# Poissons Ratio (y) = 2.88675 0.41998
# Poissons Ratio (z) = -0.42079 -4.40891
#
# Static dielectric constant tensor:
#      x y z
#    x 1.934620 0.000000 0.019170 
#    y 0.000000 1.952670 0.000000 
#    z 0.019170 0.000000 1.992350 
# 
# From -- ./inp_files/163690.got.cif
#   From: 2010.05.17/outbox.cif.g08.bks.cpg/sg15_82_cif.got.tgz:163690.got - 2010.06.03 18:47:42.
