data_PCOD9271553
_publ_section_title
;
Structure prediction by ZEFSAII (Michael W. Deem and Ramdas Pophale) SiO2 
 PCOD9271553
Probable space group: C 2/C
;
_chemical_formula_sum "Si O2"
_cell_formula_units_Z 56
_cell_length_a 9.320791
_cell_length_b 26.080091
_cell_length_c 16.716940
_cell_angle_alpha 90.000000
_cell_angle_beta 128.504211
_cell_angle_gamma 90.000000
_cell_volume 3180.076993
_symmetry_space_group_name_H-M "C 2/C"
_symmetry_group_IT_number 15
_symmetry_cell_setting 'monoclinic'
loop_
_space_group_symop_operation_xyz
x,y,z
-x,y,1/2-z
-x,-y,-z
x,-y,1/2+z
1/2+x,1/2+y,z
1/2-x,1/2+y,1/2-z
1/2-x,1/2-y,-z
1/2+x,1/2-y,1/2+z
loop_
_atom_site_type_symbol
_atom_site_label
_atom_site_fract_x
_atom_site_fract_y
_atom_site_fract_z
Si Si1 0.233174 0.124498 0.130614
Si Si2 0.802451 0.228831 0.139091
Si Si3 0.835007 0.171808 0.982104
Si Si4 0.434443 0.142869 0.360795
Si Si5 0.696099 0.518631 0.038275
Si Si6 0.399006 0.055055 0.967248
Si Si7 0.051173 0.581266 0.860414
O O1 0.285330 0.128121 0.241595
O O2 0.381702 0.153361 0.126725
O O3 0.253911 0.065246 0.114696
O O4 0.031674 0.144970 0.041103
O O5 0.720791 0.285838 0.102597
O O6 0.652207 0.191999 0.127163
O O7 0.000000 0.229977 0.250000
O O8 0.838705 0.203384 0.065600
O O9 0.680987 0.128143 0.930777
O O10 0.485957 0.097045 0.440569
O O11 0.831753 0.470916 0.093396
O O12 0.500000 0.500000 0.000000
O O13 0.716680 0.542364 0.955741
O O14 0.393944 0.075115 0.874073
O O15 0.500000 0.000000 0.000000
O O16 0.000000 0.588355 0.750000
#
# Coordination Sequence:
#
# PCOD9271553 Si02
#       7
#     8   8   8   8   8   8   8
#     4  10  21  36  60  89 114 155 192 245 305 357
#     4  11  22  38  61  87 111 150 206 253 294 355
#     4  11  22  38  59  84 118 155 198 249 299 355
#     4  10  20  37  61  85 118 147 199 248 298 355
#     4  10  20  36  60  85 119 155 200 242 293 359
#     4   9  20  35  56  83 119 156 192 241 296 350
#     4  11  22  37  58  85 124 165 195 240 305 355
#
# _framework density 17.609635000000001
#
# number of rings (size 3 to 8) (size 9 to 14) (size 15 to 20)
#    0.000    1.714    4.286    0.429    6.000    0.571 
#    0.000    0.714    0.000    0.000    0.000    0.000 
#    0.000    0.000    0.000    0.000    0.000    0.000 
#
# Total GULP energy -155957.577592 kJ/mol
# GULP energy per Si atom -5569.913485 kJ/mol
# Density = 1.756955 g / cm^3
# Si number density = 17.609635 Si / 1000 Ang^3
#
#
#
# Elastic Constant Matrix: (Units=GPa)
#
#
# Indices 1 2 3 4 5 6 
#
# 1 83.6112 26.7585 32.5629 0.0000 -6.7358 0.0000
# 2 26.7585 100.7252 22.5796 0.0000 -1.9189 0.0000
# 3 32.5629 22.5796 83.1223 0.0000 -11.3988 0.0000
# 4 0.0000 0.0000 0.0000 20.7485 0.0000 -9.2310
# 5 -6.7358 -1.9189 -11.3988 0.0000 22.5519 0.0000
# 6 0.0000 0.0000 0.0000 -9.2310 0.0000 12.7680
#
#
#
# Elastic Compliance Matrix: (Units=1/GPa)
#
#
# Indices 1 2 3 4 5 6 
#
# 1 0.014888 -0.002841 -0.004818 0.000000 0.001770 0.000000
# 2 -0.002841 0.011121 -0.002036 0.000000 -0.000931 0.000000
# 3 -0.004818 -0.002036 0.015311 0.000000 0.006127 0.000000
# 4 0.000000 0.000000 0.000000 0.071050 0.000000 0.051368
# 5 0.001770 -0.000931 0.006127 0.000000 0.047888 0.000000
# 6 0.000000 0.000000 0.000000 0.051368 0.000000 0.115458
#
#
# Mechanical properties :
#
#
# Convention : Reuss Voigt Hill
#
# Bulk Modulus (GPa) = 45.59793 47.91785 46.75789
# Shear Modulus (GPa) = 16.53343 23.58420 20.05882
#
# Velocity S-wave (km/s) = 3.06745 3.66359 3.37869
# Velocity P-wave (km/s) = 6.20448 6.72057 6.46767
#
# Compressibility (1/GPa) = 0.02193082
#
# Stress axis : x y z
#
# Youngs Moduli (GPa) = 67.16617 89.91626 65.31246
#
# Poissons Ratio (x) = 0.25550 0.31467
# Poissons Ratio (y) = 0.19085 0.13295
# Poissons Ratio (z) = 0.32360 0.18304
#
# Static dielectric constant tensor:
#      x y z
#    x 1.622710 0.000000 -0.029790 
#    y 0.000000 1.599870 0.000000 
#    z -0.029790 0.000000 1.611220 
# 
# From -- ./inp_files/137922.got.cif
#   From: 2010.05.17/outbox.cif.g08.bks.cpg/sg15_69_cif.got.tgz:137922.got - 2010.06.03 18:47:42.
