data_PCOD9271324
_publ_section_title
;
Structure prediction by ZEFSAII (Michael W. Deem and Ramdas Pophale) SiO2 
 PCOD9271324
Probable space group: C 2/C
;
_chemical_formula_sum "Si O2"
_cell_formula_units_Z 56
_cell_length_a 21.495367
_cell_length_b 15.990194
_cell_length_c 17.267487
_cell_angle_alpha 90.000000
_cell_angle_beta 27.165822
_cell_angle_gamma 90.000000
_cell_volume 2709.770629
_symmetry_space_group_name_H-M "C 2/C"
_symmetry_group_IT_number 15
_symmetry_cell_setting 'monoclinic'
loop_
_space_group_symop_operation_xyz
x,y,z
-x,y,1/2-z
-x,-y,-z
x,-y,1/2+z
1/2+x,1/2+y,z
1/2-x,1/2+y,1/2-z
1/2-x,1/2-y,-z
1/2+x,1/2-y,1/2+z
loop_
_atom_site_type_symbol
_atom_site_label
_atom_site_fract_x
_atom_site_fract_y
_atom_site_fract_z
Si Si1 0.214848 0.930692 0.954131
Si Si2 0.102858 0.240733 0.907710
Si Si3 0.426901 0.423718 0.975150
Si Si4 0.105120 0.776542 0.993730
Si Si5 0.195036 0.994068 0.735924
Si Si6 0.863033 0.389754 0.942447
Si Si7 0.590216 0.082354 0.399862
O O1 0.114329 0.863088 0.029227
O O2 0.249196 0.900736 0.001922
O O3 0.351179 0.914557 0.751911
O O4 0.156980 0.023378 0.996803
O O5 0.088449 0.176268 0.995006
O O6 0.259101 0.257432 0.708449
O O7 0.027327 0.331041 0.998283
O O8 0.023926 0.210041 0.918598
O O9 0.372833 0.455736 0.118447
O O10 0.583712 0.453941 0.802475
O O11 0.104053 0.700473 0.056599
O O12 0.281256 0.925548 0.685737
O O13 0.304839 0.052712 0.574136
O O14 0.000000 0.421629 0.750000
O O15 0.500000 0.000000 0.500000
#
# Coordination Sequence:
#
# PCOD9271324 Si02
#       7
#     8   8   8   8   8   8   8
#     4  10  23  36  57  88 126 162 205 247 311 379
#     4  11  21  37  64  91 123 160 211 260 315 370
#     4  10  20  39  60  85 116 165 210 256 298 365
#     4  11  22  38  56  92 128 166 201 253 312 389
#     4  10  20  38  59  82 120 157 206 253 302 367
#     4  12  23  39  59  90 128 169 200 250 321 390
#     4  10  20  36  58  91 119 156 204 261 312 365
#
# _framework density 20.665956000000001
#
# number of rings (size 3 to 8) (size 9 to 14) (size 15 to 20)
#    0.000    1.429    1.429    7.286    2.000    0.571 
#    0.000    0.000    0.000    0.857    3.714    0.000 
#    0.000    0.000    0.000    0.000    0.000    0.000 
#
# Total GULP energy -156092.971708 kJ/mol
# GULP energy per Si atom -5574.748990 kJ/mol
# Density = 2.061892 g / cm^3
# Si number density = 20.665956 Si / 1000 Ang^3
#
#
#
# Elastic Constant Matrix: (Units=GPa)
#
#
# Indices 1 2 3 4 5 6 
#
# 1 63.7944 34.2477 -2.6029 -0.0003 -7.3957 0.0002
# 2 34.2477 93.8324 1.7832 -0.0002 -4.9781 0.0001
# 3 -2.6029 1.7832 38.9180 -0.0003 -4.8687 0.0002
# 4 -0.0003 -0.0002 -0.0003 24.9884 0.0003 -5.2122
# 5 -7.3957 -4.9781 -4.8687 0.0003 24.1258 -0.0002
# 6 0.0002 0.0001 0.0002 -5.2122 -0.0002 31.7708
#
#
#
# Elastic Compliance Matrix: (Units=1/GPa)
#
#
# Indices 1 2 3 4 5 6 
#
# 1 0.020207 -0.007144 0.002328 0.000000 0.005190 0.000000
# 2 -0.007144 0.013303 -0.001044 0.000000 0.000344 0.000000
# 3 0.002328 -0.001044 0.026633 0.000000 0.005873 0.000000
# 4 0.000000 0.000000 0.000000 0.041436 0.000000 0.006798
# 5 0.005190 0.000344 0.005873 0.000000 0.044296 0.000000
# 6 0.000000 0.000000 0.000000 0.006798 0.000000 0.032591
#
#
# Mechanical properties :
#
#
# Convention : Reuss Voigt Hill
#
# Bulk Modulus (GPa) = 20.65149 29.26675 24.95912
# Shear Modulus (GPa) = 24.23309 27.05146 25.64228
#
# Velocity S-wave (km/s) = 3.42805 3.62192 3.52632
# Velocity P-wave (km/s) = 5.06788 5.62882 5.35570
#
# Compressibility (1/GPa) = 0.04842265
#
# Stress axis : x y z
#
# Youngs Moduli (GPa) = 49.48669 75.17095 37.54701
#
# Poissons Ratio (x) = 0.53705 -0.08741
# Poissons Ratio (y) = 0.35355 0.03921
# Poissons Ratio (z) = -0.11521 0.07850
#
# Static dielectric constant tensor:
#      x y z
#    x 1.792820 0.000000 -0.019820 
#    y 0.000000 1.858410 0.000000 
#    z -0.019820 0.000000 1.781540 
# 
# From -- ./inp_files/215720.got.cif
#   From: 2010.05.17/outbox.cif.g08.bks.cpg/sg15_108_cif.got.tgz:215720.got - 2010.06.03 18:47:42.
