data_PCOD9271815
_publ_section_title
;
Structure prediction by ZEFSAII (Michael W. Deem and Ramdas Pophale) SiO2 
 PCOD9271815
Probable space group: C 2/C
;
_chemical_formula_sum "Si O2"
_cell_formula_units_Z 40
_cell_length_a 24.602673
_cell_length_b 8.555336
_cell_length_c 9.193961
_cell_angle_alpha 90.000000
_cell_angle_beta 80.361296
_cell_angle_gamma 90.000000
_cell_volume 1907.864247
_symmetry_space_group_name_H-M "C 2/C"
_symmetry_group_IT_number 15
_symmetry_cell_setting 'monoclinic'
loop_
_space_group_symop_operation_xyz
x,y,z
-x,y,1/2-z
-x,-y,-z
x,-y,1/2+z
1/2+x,1/2+y,z
1/2-x,1/2+y,1/2-z
1/2-x,1/2-y,-z
1/2+x,1/2-y,1/2+z
loop_
_atom_site_type_symbol
_atom_site_label
_atom_site_fract_x
_atom_site_fract_y
_atom_site_fract_z
Si Si1 0.492437 0.327363 0.928489
Si Si2 0.793835 0.326949 0.087797
Si Si3 0.729983 0.812586 0.857118
Si Si4 0.114061 0.139061 0.868039
Si Si5 0.597345 0.313567 0.040091
O O1 0.500000 0.329413 0.750000
O O2 0.500000 0.500000 0.000000
O O3 0.431913 0.276301 0.009418
O O4 0.542962 0.244278 0.987949
O O5 0.782288 0.224231 0.233754
O O6 0.781205 0.504477 0.131279
O O7 0.750000 0.250000 0.000000
O O8 0.853688 0.309323 0.994439
O O9 0.673812 0.720871 0.839953
O O10 0.750000 0.750000 0.000000
O O11 0.091674 0.137000 0.711680
O O12 0.116549 0.966352 0.938651
#
# Coordination Sequence:
#
# PCOD9271815 Si02
#       5
#     8   8   8   8   8
#     4  10  20  36  61  95 129 170 218 263 319 384
#     4  12  25  46  63  99 128 173 217 263 327 382
#     4  12  27  42  69  93 134 171 216 268 319 389
#     4  11  22  40  64  97 128 174 215 266 323 381
#     4  11  22  39  66  93 134 168 220 265 319 388
#
# _framework density 20.965852999999999
#
# number of rings (size 3 to 8) (size 9 to 14) (size 15 to 20)
#    0.000    0.800    2.000    9.000    5.600    0.000 
#    0.000    1.000    0.000    0.000    0.000    0.000 
#    0.000    0.000    0.000    0.000    0.000    0.000 
#
# Total GULP energy -111632.950855 kJ/mol
# GULP energy per Si atom -5581.647543 kJ/mol
# Density = 2.091813 g / cm^3
# Si number density = 20.965853 Si / 1000 Ang^3
#
#
#
# Elastic Constant Matrix: (Units=GPa)
#
#
# Indices 1 2 3 4 5 6 
#
# 1 93.9374 -4.4636 17.6545 0.0000 -3.2023 0.0000
# 2 -4.4636 65.6923 0.6188 0.0000 -8.9540 0.0000
# 3 17.6545 0.6188 176.1274 0.0000 5.4020 0.0000
# 4 0.0000 0.0000 0.0000 20.1498 0.0000 -6.7053
# 5 -3.2023 -8.9540 5.4020 0.0000 42.2668 0.0000
# 6 0.0000 0.0000 0.0000 -6.7053 0.0000 25.7269
#
#
#
# Elastic Compliance Matrix: (Units=1/GPa)
#
#
# Indices 1 2 3 4 5 6 
#
# 1 0.010942 0.000913 -0.001136 0.000000 0.001168 0.000000
# 2 0.000913 0.015756 -0.000252 0.000000 0.003439 0.000000
# 3 -0.001136 -0.000252 0.005820 0.000000 -0.000883 0.000000
# 4 0.000000 0.000000 0.000000 0.054341 0.000000 0.014163
# 5 0.001168 0.003439 -0.000883 0.000000 0.024589 0.000000
# 6 0.000000 0.000000 0.000000 0.014163 0.000000 0.042561
#
#
# Mechanical properties :
#
#
# Convention : Reuss Voigt Hill
#
# Bulk Modulus (GPa) = 31.67814 40.37519 36.02666
# Shear Modulus (GPa) = 30.21488 39.09184 34.65336
#
# Velocity S-wave (km/s) = 3.80036 4.32273 4.06993
# Velocity P-wave (km/s) = 5.86508 6.64936 6.26950
#
# Compressibility (1/GPa) = 0.03156751
#
# Stress axis : x y z
#
# Youngs Moduli (GPa) = 91.39050 63.46912 171.83491
#
# Poissons Ratio (x) = -0.05797 0.19517
# Poissons Ratio (y) = -0.08347 0.04337
# Poissons Ratio (z) = 0.10380 0.01602
#
# Static dielectric constant tensor:
#      x y z
#    x 1.827150 0.000000 0.020920 
#    y 0.000000 1.738750 0.000000 
#    z 0.020920 0.000000 1.674070 
# 
# From -- ./inp_files/59929.got.cif
#   From: 2010.05.17/outbox.cif.g08.bks.cpg/sg15_30_cif.got.tgz:59929.got - 2010.06.03 18:47:42.
