data_PCOD9271399
_publ_section_title
;
Structure prediction by ZEFSAII (Michael W. Deem and Ramdas Pophale) SiO2 
 PCOD9271399
Probable space group: C 2/C
;
_chemical_formula_sum "Si O2"
_cell_formula_units_Z 52
_cell_length_a 18.053968
_cell_length_b 8.119508
_cell_length_c 14.285468
_cell_angle_alpha 90.000000
_cell_angle_beta 104.499607
_cell_angle_gamma 90.000000
_cell_volume 2027.398948
_symmetry_space_group_name_H-M "C 2/C"
_symmetry_group_IT_number 15
_symmetry_cell_setting 'monoclinic'
loop_
_space_group_symop_operation_xyz
x,y,z
-x,y,1/2-z
-x,-y,-z
x,-y,1/2+z
1/2+x,1/2+y,z
1/2-x,1/2+y,1/2-z
1/2-x,1/2-y,-z
1/2+x,1/2-y,1/2+z
loop_
_atom_site_type_symbol
_atom_site_label
_atom_site_fract_x
_atom_site_fract_y
_atom_site_fract_z
Si Si1 0.225283 0.089389 0.549075
Si Si2 0.500000 0.134699 0.750000
Si Si3 0.253774 0.201517 0.279892
Si Si4 0.427804 0.104079 0.379874
Si Si5 0.793947 0.109697 0.621351
Si Si6 0.471883 0.417016 0.137761
Si Si7 0.567543 0.270267 0.943093
O O1 0.250000 0.250000 0.500000
O O2 0.254515 0.129368 0.661378
O O3 0.134632 0.118375 0.510037
O O4 0.247732 0.939497 0.488970
O O5 0.567182 0.219086 0.833522
O O6 0.542611 0.035538 0.680431
O O7 0.341259 0.144820 0.324523
O O8 0.250347 0.255287 0.170570
O O9 0.205406 0.055760 0.312266
O O10 0.481539 0.261186 0.381265
O O11 0.431307 0.104459 0.494532
O O12 0.882748 0.137819 0.623021
O O13 0.500000 0.454998 0.250000
O O14 0.493859 0.582692 0.086933
#
# Coordination Sequence:
#
# PCOD9271399 Si02
#       7
#     8   4   8   8   8   8   8
#     4   8  18  36  56  77 114 153 190 234 294 354
#     4  12  22  36  58  90 126 150 198 254 304 362
#     4  10  20  37  59  85 117 155 199 243 297 359
#     4  11  22  39  60  86 123 161 196 249 307 358
#     4  10  20  36  59  85 112 155 195 241 297 350
#     4  11  19  39  61  83 117 156 204 245 289 354
#     4  10  22  36  59  88 115 157 203 249 298 357
#
# _framework density 25.648627000000001
#
# number of rings (size 3 to 8) (size 9 to 14) (size 15 to 20)
#    0.000    1.846    3.077    0.923    0.000    3.692 
#    0.000    0.769    0.000    0.000    0.000    0.000 
#    0.000    0.000    0.000    0.000    0.000    0.000 
#
# Total GULP energy -144793.431243 kJ/mol
# GULP energy per Si atom -5568.978125 kJ/mol
# Density = 2.559025 g / cm^3
# Si number density = 25.648627 Si / 1000 Ang^3
#
#
#
# Elastic Constant Matrix: (Units=GPa)
#
#
# Indices 1 2 3 4 5 6 
#
# 1 85.1693 5.9383 -17.3447 0.0000 -12.6893 0.0000
# 2 5.9383 47.5107 2.5681 0.0000 -8.2746 0.0000
# 3 -17.3447 2.5681 139.0479 0.0000 -18.0504 0.0000
# 4 0.0000 0.0000 0.0000 53.2742 0.0000 -19.9460
# 5 -12.6893 -8.2746 -18.0504 0.0000 16.9629 0.0000
# 6 0.0000 0.0000 0.0000 -19.9460 0.0000 33.3129
#
#
#
# Elastic Compliance Matrix: (Units=1/GPa)
#
#
# Indices 1 2 3 4 5 6 
#
# 1 0.014781 0.000636 0.003838 0.000000 0.015451 0.000000
# 2 0.000636 0.023203 0.001371 0.000000 0.013253 0.000000
# 3 0.003838 0.001371 0.009404 0.000000 0.013546 0.000000
# 4 0.000000 0.000000 0.000000 0.024195 0.000000 0.014486
# 5 0.015451 0.013253 0.013546 0.000000 0.091390 0.000000
# 6 0.000000 0.000000 0.000000 0.014486 0.000000 0.038692
#
#
# Mechanical properties :
#
#
# Convention : Reuss Voigt Hill
#
# Bulk Modulus (GPa) = 16.92707 28.22793 22.57750
# Shear Modulus (GPa) = 23.84748 39.41441 31.63095
#
# Velocity S-wave (km/s) = 3.05253 3.92434 3.51556
# Velocity P-wave (km/s) = 4.36324 5.61813 5.02997
#
# Compressibility (1/GPa) = 0.05907696
#
# Stress axis : x y z
#
# Youngs Moduli (GPa) = 67.65663 43.09872 106.34169
#
# Poissons Ratio (x) = -0.02742 -0.40811
# Poissons Ratio (y) = -0.04304 -0.14583
# Poissons Ratio (z) = -0.25965 -0.05910
#
# Static dielectric constant tensor:
#      x y z
#    x 2.026990 0.000000 -0.285760 
#    y 0.000000 2.140560 0.000000 
#    z -0.285760 0.000000 2.101990 
# 
# From -- ./inp_files/166336.got.cif
#   From: 2010.05.17/outbox.cif.g08.bks.cpg/sg15_84_cif.got.tgz:166336.got - 2010.06.03 18:47:42.
