data_PCOD9271604
_publ_section_title
;
Structure prediction by ZEFSAII (Michael W. Deem and Ramdas Pophale) SiO2 
 PCOD9271604
Probable space group: C 2/C
;
_chemical_formula_sum "Si O2"
_cell_formula_units_Z 64
_cell_length_a 9.611158
_cell_length_b 18.671319
_cell_length_c 22.885892
_cell_angle_alpha 90.000000
_cell_angle_beta 124.396617
_cell_angle_gamma 90.000000
_cell_volume 3388.830199
_symmetry_space_group_name_H-M "C 2/C"
_symmetry_group_IT_number 15
_symmetry_cell_setting 'monoclinic'
loop_
_space_group_symop_operation_xyz
x,y,z
-x,y,1/2-z
-x,-y,-z
x,-y,1/2+z
1/2+x,1/2+y,z
1/2-x,1/2+y,1/2-z
1/2-x,1/2-y,-z
1/2+x,1/2-y,1/2+z
loop_
_atom_site_type_symbol
_atom_site_label
_atom_site_fract_x
_atom_site_fract_y
_atom_site_fract_z
Si Si1 0.313101 0.183731 0.178898
Si Si2 0.302806 0.816757 0.972993
Si Si3 0.199528 0.285340 0.048096
Si Si4 0.038196 0.992167 0.694596
Si Si5 0.325644 0.987042 0.674252
Si Si6 0.280518 0.056778 0.930137
Si Si7 0.489101 0.675288 0.311477
Si Si8 0.890587 0.460348 0.059070
O O1 0.500000 0.193761 0.250000
O O2 0.269145 0.231727 0.113176
O O3 0.295329 0.098812 0.159499
O O4 0.166168 0.206057 0.189041
O O5 0.165935 0.821603 0.888289
O O6 0.250000 0.750000 0.000000
O O7 0.497636 0.802019 0.001465
O O8 0.300477 0.890262 0.010234
O O9 0.281912 0.362961 0.076823
O O10 0.250000 0.250000 0.000000
O O11 0.185578 0.017318 0.686032
O O12 0.065527 0.907675 0.709550
O O13 0.000000 0.024142 0.750000
O O14 0.867553 0.003236 0.619249
O O15 0.500000 0.994638 0.750000
O O16 0.340172 0.022887 0.613604
O O17 0.412432 0.054456 0.907708
O O18 0.358357 0.028724 0.009379
O O19 0.500000 0.708459 0.250000
#
# Coordination Sequence:
#
# PCOD9271604 Si02
#       8
#     8   8   8   8   8   8   8   8
#     4  10  22  40  59  89 124 159 203 254 301 362
#     4  11  22  41  64  88 125 156 201 259 297 362
#     4  11  24  38  59  90 124 161 199 248 309 364
#     4  10  20  36  60  88 116 149 200 251 298 361
#     4  10  21  38  62  89 117 159 202 252 298 361
#     4  10  21  37  58  85 118 160 193 246 303 357
#     4  10  21  39  64  89 114 160 208 244 303 359
#     4  10  21  38  60  88 120 155 202 245 305 361
#
# _framework density 18.885573999999998
#
# number of rings (size 3 to 8) (size 9 to 14) (size 15 to 20)
#    0.000    1.750    2.500    1.500    1.750    3.000 
#    0.000    0.625    2.750    0.000    0.000    0.000 
#    0.000    0.000    0.000    0.000    0.000    0.000 
#
# Total GULP energy -178317.227665 kJ/mol
# GULP energy per Si atom -5572.413365 kJ/mol
# Density = 1.884259 g / cm^3
# Si number density = 18.885574 Si / 1000 Ang^3
#
#
#
# Elastic Constant Matrix: (Units=GPa)
#
#
# Indices 1 2 3 4 5 6 
#
# 1 122.9589 42.4239 63.7033 0.0000 -35.1953 0.0000
# 2 42.4239 63.4196 29.8773 0.0000 -19.8646 0.0000
# 3 63.7033 29.8773 100.6165 0.0000 -21.6060 0.0000
# 4 0.0000 0.0000 0.0000 -26.9018 0.0000 -4.9292
# 5 -35.1953 -19.8646 -21.6060 0.0000 36.5155 0.0000
# 6 0.0000 0.0000 0.0000 -4.9292 0.0000 23.3039
#
#
#
# Elastic Compliance Matrix: (Units=1/GPa)
#
#
# Indices 1 2 3 4 5 6 
#
# 1 0.015663 -0.004625 -0.006692 0.000000 0.008621 0.000000
# 2 -0.004625 0.021826 -0.002246 0.000000 0.006087 0.000000
# 3 -0.006692 -0.002246 0.015116 0.000000 0.001272 0.000000
# 4 0.000000 0.000000 0.000000 -0.035785 0.000000 -0.007569
# 5 0.008621 0.006087 0.001272 0.000000 0.039759 0.000000
# 6 0.000000 0.000000 0.000000 -0.007569 0.000000 0.041310
#
#
# Mechanical properties :
#
#
# Convention : Reuss Voigt Hill
#
# Bulk Modulus (GPa) = 39.24709 62.11156 50.67932
# Shear Modulus (GPa) = 37.45063 16.64957 27.05010
#
# Velocity S-wave (km/s) = 4.45795 2.97240 3.78870
# Velocity P-wave (km/s) = 6.87927 6.68879 6.78470
#
# Compressibility (1/GPa) = 0.02547960
#
# Stress axis : x y z
#
# Youngs Moduli (GPa) = 63.84322 45.81614 66.15554
#
# Poissons Ratio (x) = 0.21188 0.44274
# Poissons Ratio (y) = 0.29525 0.14859
# Poissons Ratio (z) = 0.42726 0.10291
#
# Static dielectric constant tensor:
#      x y z
#    x 1.687460 0.000000 -0.016310 
#    y 0.000000 1.728490 0.000000 
#    z -0.016310 0.000000 1.679480 
# 
# From -- ./inp_files/266138.got.cif
#   From: 2010.05.17/outbox.cif.g08.bks.cpg/sg15_134_cif.got.tgz:266138.got - 2010.06.03 18:47:42.
