data_PCOD9271287
_publ_section_title
;
Structure prediction by ZEFSAII (Michael W. Deem and Ramdas Pophale) SiO2 
 PCOD9271287
Probable space group: C 2/C
;
_chemical_formula_sum "Si O2"
_cell_formula_units_Z 44
_cell_length_a 19.740403
_cell_length_b 8.303666
_cell_length_c 12.894431
_cell_angle_alpha 90.000000
_cell_angle_beta 103.402250
_cell_angle_gamma 90.000000
_cell_volume 2056.064804
_symmetry_space_group_name_H-M "C 2/C"
_symmetry_group_IT_number 15
_symmetry_cell_setting 'monoclinic'
loop_
_space_group_symop_operation_xyz
x,y,z
-x,y,1/2-z
-x,-y,-z
x,-y,1/2+z
1/2+x,1/2+y,z
1/2-x,1/2+y,1/2-z
1/2-x,1/2-y,-z
1/2+x,1/2-y,1/2+z
loop_
_atom_site_type_symbol
_atom_site_label
_atom_site_fract_x
_atom_site_fract_y
_atom_site_fract_z
Si Si1 0.196825 0.125011 0.424175
Si Si2 0.101083 0.617670 0.921456
Si Si3 0.460863 0.694775 0.903004
Si Si4 0.891271 0.897408 0.951838
Si Si5 0.793619 0.632159 0.940276
Si Si6 0.500000 0.082832 0.250000
O O1 0.250000 0.250000 0.500000
O O2 0.138184 0.247090 0.363588
O O3 0.157377 0.010113 0.492901
O O4 0.241090 0.998798 0.371235
O O5 0.038994 0.529602 0.843588
O O6 0.072924 0.708440 0.013418
O O7 0.155586 0.480356 0.973881
O O8 0.425877 0.519726 0.883080
O O9 0.450572 0.799297 0.797348
O O10 0.542821 0.669641 0.958552
O O11 0.844049 0.750784 0.894942
O O12 0.750000 0.750000 0.000000
#
# Coordination Sequence:
#
# PCOD9271287 Si02
#       6
#     8   8   8   8   8   4
#     4   8  16  31  56  91 105 150 200 230 277 364
#     4  10  20  36  58  87 118 151 197 240 301 352
#     4  10  21  36  56  86 121 155 193 244 303 356
#     4   9  17  33  56  85 111 146 198 237 293 350
#     4   9  16  31  62  84 108 156 197 231 289 358
#     4  12  22  34  58  88 124 156 194 254 300 364
#
# _framework density 21.400103999999999
#
# number of rings (size 3 to 8) (size 9 to 14) (size 15 to 20)
#    0.000    2.545    1.818    0.545    0.000    0.000 
#    0.000    8.182    0.000   13.091    0.000    0.000 
#    0.000    0.000    0.000    0.182    0.000    0.000 
#
# Total GULP energy -122538.519787 kJ/mol
# GULP energy per Si atom -5569.932718 kJ/mol
# Density = 2.135140 g / cm^3
# Si number density = 21.400104 Si / 1000 Ang^3
#
#
#
# Elastic Constant Matrix: (Units=GPa)
#
#
# Indices 1 2 3 4 5 6 
#
# 1 83.7710 49.2111 0.5211 0.0000 -0.4614 0.0000
# 2 49.2111 143.5663 14.2509 0.0000 -7.7401 0.0000
# 3 0.5211 14.2509 14.4663 0.0000 -18.4146 0.0000
# 4 0.0000 0.0000 0.0000 -5.3557 0.0000 -3.0126
# 5 -0.4614 -7.7401 -18.4146 0.0000 4.4187 0.0000
# 6 0.0000 0.0000 0.0000 -3.0126 0.0000 61.7933
#
#
#
# Elastic Compliance Matrix: (Units=1/GPa)
#
#
# Indices 1 2 3 4 5 6 
#
# 1 0.015120 -0.005458 0.001238 0.000000 -0.002824 0.000000
# 2 -0.005458 0.009366 -0.002585 0.000000 0.005063 0.000000
# 3 0.001238 -0.002585 -0.015338 0.000000 -0.068320 0.000000
# 4 0.000000 0.000000 0.000000 -0.181734 0.000000 -0.008860
# 5 -0.002824 0.005063 -0.068320 0.000000 -0.049833 0.000000
# 6 0.000000 0.000000 0.000000 -0.008860 0.000000 0.015751
#
#
# Mechanical properties :
#
#
# Convention : Reuss Voigt Hill
#
# Bulk Modulus (GPa) = -224.08890 41.08554 -91.50168
# Shear Modulus (GPa) = -25.70104 24.02595 -0.83754
#
# Velocity S-wave (km/s) = -3.46927 3.35431 -0.62628
# Velocity P-wave (km/s) = 10.99950 5.85169 6.58585
#
# Compressibility (1/GPa) = -0.00446251
#
# Stress axis : x y z
#
# Youngs Moduli (GPa) = 66.13612 106.77090 -65.19746
#
# Poissons Ratio (x) = 0.58275 0.08070
# Poissons Ratio (y) = 0.36097 -0.16854
# Poissons Ratio (z) = -0.08186 0.27601
#
# Static dielectric constant tensor:
#      x y z
#    x 2.287880 0.000000 -0.692360 
#    y 0.000000 1.806300 0.000000 
#    z -0.692360 0.000000 2.865940 
# 
# From -- ./inp_files/159466.got.cif
#   From: 2010.05.17/outbox.cif.g08.bks.cpg/sg15_80_cif.got.tgz:159466.got - 2010.06.03 18:47:42.
