data_PCOD9271097
_publ_section_title
;
Structure prediction by ZEFSAII (Michael W. Deem and Ramdas Pophale) SiO2 
 PCOD9271097
Probable space group: C 2/C
;
_chemical_formula_sum "Si O2"
_cell_formula_units_Z 40
_cell_length_a 30.729087
_cell_length_b 10.000876
_cell_length_c 9.074043
_cell_angle_alpha 90.000000
_cell_angle_beta 142.776228
_cell_angle_gamma 90.000000
_cell_volume 1686.915494
_symmetry_space_group_name_H-M "C 2/C"
_symmetry_group_IT_number 15
_symmetry_cell_setting 'monoclinic'
loop_
_space_group_symop_operation_xyz
x,y,z
-x,y,1/2-z
-x,-y,-z
x,-y,1/2+z
1/2+x,1/2+y,z
1/2-x,1/2+y,1/2-z
1/2-x,1/2-y,-z
1/2+x,1/2-y,1/2+z
loop_
_atom_site_type_symbol
_atom_site_label
_atom_site_fract_x
_atom_site_fract_y
_atom_site_fract_z
Si Si1 0.208507 0.364193 0.793016
Si Si2 0.572036 0.725182 0.868787
Si Si3 0.857944 0.969784 0.158631
Si Si4 0.932812 0.285706 0.963570
Si Si5 0.673032 0.238225 0.873527
O O1 0.133908 0.379614 0.675573
O O2 0.188165 0.327902 0.570948
O O3 0.250000 0.250000 0.000000
O O4 0.272214 0.469802 0.953691
O O5 0.619570 0.816188 0.103941
O O6 0.500000 0.674673 0.750000
O O7 0.622080 0.603550 0.941508
O O8 0.450673 0.802541 0.840385
O O9 0.900511 0.867878 0.381741
O O10 0.871863 0.125593 0.207133
O O11 0.000000 0.300469 0.250000
O O12 0.750000 0.250000 0.000000
#
# Coordination Sequence:
#
# PCOD9271097 Si02
#       5
#     8   8   8   8   8
#     4  10  20  36  57  83 119 157 203 249 296 364
#     4  10  22  38  55  90 124 161 195 249 310 360
#     4   9  23  35  57  89 119 160 205 245 312 358
#     4   9  19  36  58  88 123 164 195 253 309 369
#     4  12  22  39  60  87 122 158 208 250 303 363
#
# _framework density 23.711918000000001
#
# number of rings (size 3 to 8) (size 9 to 14) (size 15 to 20)
#    1.200    0.800    2.000    1.200    5.600    1.600 
#    0.000    0.000    0.000    1.200    0.000   11.200 
#    0.000    1.600    0.000    0.000    0.000    0.000 
#
# Total GULP energy -111473.778916 kJ/mol
# GULP energy per Si atom -5573.688946 kJ/mol
# Density = 2.365795 g / cm^3
# Si number density = 23.711918 Si / 1000 Ang^3
#
#
#
# Elastic Constant Matrix: (Units=GPa)
#
#
# Indices 1 2 3 4 5 6 
#
# 1 116.2868 11.8107 33.0122 0.0000 0.9776 0.0000
# 2 11.8107 49.1127 16.6137 0.0000 -1.4044 0.0000
# 3 33.0122 16.6137 184.6988 0.0000 -8.1786 0.0000
# 4 0.0000 0.0000 0.0000 9.8818 0.0000 5.6516
# 5 0.9776 -1.4044 -8.1786 0.0000 53.9802 0.0000
# 6 0.0000 0.0000 0.0000 5.6516 0.0000 10.4849
#
#
#
# Elastic Compliance Matrix: (Units=1/GPa)
#
#
# Indices 1 2 3 4 5 6 
#
# 1 0.009206 -0.001715 -0.001511 0.000000 -0.000440 0.000000
# 2 -0.001715 0.021324 -0.001596 0.000000 0.000344 0.000000
# 3 -0.001511 -0.001596 0.005867 0.000000 0.000875 0.000000
# 4 0.000000 0.000000 0.000000 0.146297 0.000000 -0.078858
# 5 -0.000440 0.000344 0.000875 0.000000 0.018675 0.000000
# 6 0.000000 0.000000 0.000000 -0.078858 0.000000 0.137882
#
#
# Mechanical properties :
#
#
# Convention : Reuss Voigt Hill
#
# Bulk Modulus (GPa) = 37.38080 52.55238 44.96659
# Shear Modulus (GPa) = 13.97381 34.11350 24.04365
#
# Velocity S-wave (km/s) = 2.43022 3.79709 3.18778
# Velocity P-wave (km/s) = 4.86553 6.43699 5.70562
#
# Compressibility (1/GPa) = 0.02675170
#
# Stress axis : x y z
#
# Youngs Moduli (GPa) = 108.62226 46.89619 170.45819
#
# Poissons Ratio (x) = 0.08045 0.25750
# Poissons Ratio (y) = 0.18634 0.27209
# Poissons Ratio (z) = 0.16409 0.07486
#
# Static dielectric constant tensor:
#      x y z
#    x 1.678990 0.000000 0.285590 
#    y 0.000000 2.160690 0.000000 
#    z 0.285590 0.000000 1.562890 
# 
# From -- ./inp_files/66055.got.cif
#   From: 2010.05.17/outbox.cif.g08.bks.cpg/sg15_34_cif.got.tgz:66055.got - 2010.06.03 18:47:42.
