data_PCOD9271364
_publ_section_title
;
Structure prediction by ZEFSAII (Michael W. Deem and Ramdas Pophale) SiO2 
 PCOD9271364
Probable space group: C 2/C
;
_chemical_formula_sum "Si O2"
_cell_formula_units_Z 48
_cell_length_a 15.207643
_cell_length_b 17.432454
_cell_length_c 8.862687
_cell_angle_alpha 90.000000
_cell_angle_beta 93.862446
_cell_angle_gamma 90.000000
_cell_volume 2344.219582
_symmetry_space_group_name_H-M "C 2/C"
_symmetry_group_IT_number 15
_symmetry_cell_setting 'monoclinic'
loop_
_space_group_symop_operation_xyz
x,y,z
-x,y,1/2-z
-x,-y,-z
x,-y,1/2+z
1/2+x,1/2+y,z
1/2-x,1/2+y,1/2-z
1/2-x,1/2-y,-z
1/2+x,1/2-y,1/2+z
loop_
_atom_site_type_symbol
_atom_site_label
_atom_site_fract_x
_atom_site_fract_y
_atom_site_fract_z
Si Si1 0.363787 0.191778 0.386124
Si Si2 0.198145 0.148798 0.505577
Si Si3 0.368258 0.629211 0.331272
Si Si4 0.962381 0.282803 0.410588
Si Si5 0.799084 0.329622 0.545460
Si Si6 0.437270 0.533099 0.863865
O O1 0.301926 0.138106 0.485232
O O2 0.319898 0.275630 0.399706
O O3 0.462161 0.198887 0.459417
O O4 0.350929 0.170919 0.210564
O O5 0.161498 0.164947 0.331911
O O6 0.141713 0.082783 0.578103
O O7 0.434412 0.691854 0.410915
O O8 0.285295 0.616824 0.433997
O O9 0.402007 0.545965 0.289926
O O10 0.875262 0.333517 0.430491
O O11 0.000000 0.297012 0.250000
O O12 0.750000 0.250000 0.500000
O O13 0.500000 0.575184 0.750000
O O14 0.500000 0.500000 0.000000
#
# Coordination Sequence:
#
# PCOD9271364 Si02
#       6
#     8   8   8   8   8   8
#     4  10  20  36  59  80 115 149 195 239 287 341
#     4  10  21  37  55  83 114 155 191 237 287 341
#     4  10  20  40  54  79 126 154 180 241 297 334
#     4  11  19  34  59  84 114 148 189 239 292 338
#     4   9  21  35  56  82 112 153 190 239 291 336
#     4  12  23  36  57  83 114 155 193 224 285 354
#
# _framework density 20.475897
#
# number of rings (size 3 to 8) (size 9 to 14) (size 15 to 20)
#    0.000    1.667    3.333    2.000    2.333    4.000 
#    0.000    0.000    0.000    1.000    0.000    0.000 
#    0.000    0.000    0.000    0.000    0.000    0.000 
#
# Total GULP energy -133796.103031 kJ/mol
# GULP energy per Si atom -5574.837626 kJ/mol
# Density = 2.042929 g / cm^3
# Si number density = 20.475897 Si / 1000 Ang^3
#
#
#
# Elastic Constant Matrix: (Units=GPa)
#
#
# Indices 1 2 3 4 5 6 
#
# 1 138.7532 21.4653 41.6243 0.0000 -28.4363 0.0000
# 2 21.4653 39.6048 7.1721 0.0000 -13.0466 0.0000
# 3 41.6243 7.1721 58.1998 0.0000 -22.9506 0.0000
# 4 0.0000 0.0000 0.0000 21.4688 0.0000 -10.7487
# 5 -28.4363 -13.0466 -22.9506 0.0000 48.1861 0.0000
# 6 0.0000 0.0000 0.0000 -10.7487 0.0000 30.4789
#
#
#
# Elastic Compliance Matrix: (Units=1/GPa)
#
#
# Indices 1 2 3 4 5 6 
#
# 1 0.009954 -0.003644 -0.005840 0.000000 0.002106 0.000000
# 2 -0.003644 0.029071 0.001575 0.000000 0.006471 0.000000
# 3 -0.005840 0.001575 0.024593 0.000000 0.008694 0.000000
# 4 0.000000 0.000000 0.000000 0.056567 0.000000 0.019949
# 5 0.002106 0.006471 0.008694 0.000000 0.027889 0.000000
# 6 0.000000 0.000000 0.000000 0.019949 0.000000 0.039845
#
#
# Mechanical properties :
#
#
# Convention : Reuss Voigt Hill
#
# Bulk Modulus (GPa) = 20.91966 41.89793 31.40879
# Shear Modulus (GPa) = 22.76160 31.11315 26.93737
#
# Velocity S-wave (km/s) = 3.33773 3.90231 3.63101
# Velocity P-wave (km/s) = 5.00927 6.38831 5.74035
#
# Compressibility (1/GPa) = 0.04780193
#
# Stress axis : x y z
#
# Youngs Moduli (GPa) = 100.45994 34.39885 40.66234
#
# Poissons Ratio (x) = 0.12534 0.23745
# Poissons Ratio (y) = 0.36604 -0.06406
# Poissons Ratio (z) = 0.58664 -0.05419
#
# Static dielectric constant tensor:
#      x y z
#    x 2.272170 0.000000 0.256380 
#    y 0.000000 1.875220 0.000000 
#    z 0.256380 0.000000 1.934520 
# 
# From -- ./inp_files/39608.got.cif
#   From: 2010.05.17/outbox.cif.g08.bks.cpg/sg15_20_cif.got.tgz:39608.got - 2010.06.03 18:47:42.
