data_PCOD9271867
_publ_section_title
;
Structure prediction by ZEFSAII (Michael W. Deem and Ramdas Pophale) SiO2 
 PCOD9271867
Probable space group: C 2/C
;
_chemical_formula_sum "Si O2"
_cell_formula_units_Z 44
_cell_length_a 13.982321
_cell_length_b 12.301912
_cell_length_c 17.109745
_cell_angle_alpha 90.000000
_cell_angle_beta 47.817837
_cell_angle_gamma 90.000000
_cell_volume 2180.829157
_symmetry_space_group_name_H-M "C 2/C"
_symmetry_group_IT_number 15
_symmetry_cell_setting 'monoclinic'
loop_
_space_group_symop_operation_xyz
x,y,z
-x,y,1/2-z
-x,-y,-z
x,-y,1/2+z
1/2+x,1/2+y,z
1/2-x,1/2+y,1/2-z
1/2-x,1/2-y,-z
1/2+x,1/2-y,1/2+z
loop_
_atom_site_type_symbol
_atom_site_label
_atom_site_fract_x
_atom_site_fract_y
_atom_site_fract_z
Si Si1 0.034210 0.406069 0.321168
Si Si2 0.251177 0.857407 0.053471
Si Si3 0.537533 0.867516 0.887380
Si Si4 0.000000 0.767649 0.250000
Si Si5 0.258979 0.401009 0.990702
Si Si6 0.740612 0.753121 0.141759
O O1 0.081793 0.510817 0.342028
O O2 0.135239 0.309212 0.255411
O O3 0.000000 0.439341 0.250000
O O4 0.895110 0.377249 0.432849
O O5 0.130213 0.838864 0.176181
O O6 0.250000 0.750000 0.000000
O O7 0.396797 0.868807 0.006253
O O8 0.226016 0.969955 0.021315
O O9 0.510580 0.807710 0.820129
O O10 0.645895 0.802905 0.873333
O O11 0.293235 0.347432 0.054600
O O12 0.319611 0.336749 0.884448
#
# Coordination Sequence:
#
# PCOD9271867 Si02
#       6
#     8   8   8   4   8   8
#     4   9  18  37  63  82 119 166 195 238 298 361
#     4   9  20  38  63  86 116 161 195 246 299 352
#     4  10  20  36  62  87 115 156 206 240 293 358
#     4  10  20  38  60  86 116 154 202 248 296 350
#     4   9  20  40  58  84 123 157 196 243 301 359
#     4  10  21  35  60  90 114 155 200 243 293 354
#
# _framework density 20.175813999999999
#
# number of rings (size 3 to 8) (size 9 to 14) (size 15 to 20)
#    0.000    2.545    0.909    0.000    2.545    5.818 
#    8.182    3.636    0.000    0.000    0.000    0.000 
#    0.000    0.000    0.000    0.000    0.000    0.000 
#
# Total GULP energy -122671.129514 kJ/mol
# GULP energy per Si atom -5575.960432 kJ/mol
# Density = 2.012989 g / cm^3
# Si number density = 20.175814 Si / 1000 Ang^3
#
#
#
# Elastic Constant Matrix: (Units=GPa)
#
#
# Indices 1 2 3 4 5 6 
#
# 1 75.1203 38.1388 25.9170 0.0000 -1.0152 0.0000
# 2 38.1388 143.8355 41.1825 0.0000 -6.5787 0.0000
# 3 25.9170 41.1825 94.8393 0.0000 -20.7455 0.0000
# 4 0.0000 0.0000 0.0000 16.2553 0.0000 3.1743
# 5 -1.0152 -6.5787 -20.7455 0.0000 20.8389 0.0000
# 6 0.0000 0.0000 0.0000 3.1743 0.0000 44.3908
#
#
#
# Elastic Compliance Matrix: (Units=1/GPa)
#
#
# Indices 1 2 3 4 5 6 
#
# 1 0.016327 -0.003405 -0.003892 0.000000 -0.004154 0.000000
# 2 -0.003405 0.008672 -0.002906 0.000000 -0.000321 0.000000
# 3 -0.003892 -0.002906 0.016142 0.000000 0.014963 0.000000
# 4 0.000000 0.000000 0.000000 0.062390 0.000000 -0.004461
# 5 -0.004154 -0.000321 0.014963 0.000000 0.062580 0.000000
# 6 0.000000 0.000000 0.000000 -0.004461 0.000000 0.022846
#
#
# Mechanical properties :
#
#
# Convention : Reuss Voigt Hill
#
# Bulk Modulus (GPa) = 48.22180 58.25240 53.23710
# Shear Modulus (GPa) = 23.11870 30.20078 26.65974
#
# Velocity S-wave (km/s) = 3.38873 3.87315 3.63901
# Velocity P-wave (km/s) = 6.26610 6.99548 6.64081
#
# Compressibility (1/GPa) = 0.02073751
#
# Stress axis : x y z
#
# Youngs Moduli (GPa) = 61.24720 115.30743 61.94829
#
# Poissons Ratio (x) = 0.39262 0.24110
# Poissons Ratio (y) = 0.20854 0.17999
# Poissons Ratio (z) = 0.23837 0.33503
#
# Static dielectric constant tensor:
#      x y z
#    x 1.714930 0.000000 0.011480 
#    y 0.000000 1.738400 0.000000 
#    z 0.011480 0.000000 1.791730 
# 
# From -- ./inp_files/203826.got.cif
#   From: 2010.05.17/outbox.cif.g08.bks.cpg/sg15_102_cif.got.tgz:203826.got - 2010.06.03 18:47:42.
