data_PCOD9271424
_publ_section_title
;
Structure prediction by ZEFSAII (Michael W. Deem and Ramdas Pophale) SiO2 
 PCOD9271424
Probable space group: C 2/C
;
_chemical_formula_sum "Si O2"
_cell_formula_units_Z 56
_cell_length_a 16.473972
_cell_length_b 8.382001
_cell_length_c 24.054365
_cell_angle_alpha 90.000000
_cell_angle_beta 48.466170
_cell_angle_gamma 90.000000
_cell_volume 2486.388958
_symmetry_space_group_name_H-M "C 2/C"
_symmetry_group_IT_number 15
_symmetry_cell_setting 'monoclinic'
loop_
_space_group_symop_operation_xyz
x,y,z
-x,y,1/2-z
-x,-y,-z
x,-y,1/2+z
1/2+x,1/2+y,z
1/2-x,1/2+y,1/2-z
1/2-x,1/2-y,-z
1/2+x,1/2-y,1/2+z
loop_
_atom_site_type_symbol
_atom_site_label
_atom_site_fract_x
_atom_site_fract_y
_atom_site_fract_z
Si Si1 0.848634 0.142691 0.978959
Si Si2 0.021038 0.685429 0.476512
Si Si3 0.270636 0.941345 0.658292
Si Si4 0.901220 0.244057 0.132980
Si Si5 0.894125 0.120901 0.836723
Si Si6 0.231752 0.555369 0.138179
Si Si7 0.412255 0.225423 0.744462
O O1 0.910926 0.089642 0.894550
O O2 0.750000 0.250000 0.000000
O O3 0.932310 0.254008 0.973859
O O4 0.797460 0.028833 0.050173
O O5 0.996658 0.774640 0.544369
O O6 0.000000 0.500000 0.500000
O O7 0.140300 0.689161 0.397760
O O8 0.176352 0.856756 0.735267
O O9 0.328702 0.094032 0.657622
O O10 0.203473 0.002994 0.635969
O O11 0.816014 0.111285 0.148012
O O12 0.964258 0.292556 0.160855
O O13 0.846488 0.295575 0.842881
O O14 0.000000 0.102886 0.750000
O O15 0.155630 0.417719 0.197441
O O16 0.500000 0.272159 0.750000
#
# Coordination Sequence:
#
# PCOD9271424 Si02
#       7
#     8   8   8   8   8   8   8
#     4   9  18  35  60  87 115 147 196 245 281 340
#     4   9  18  35  61  85 109 152 198 236 286 348
#     4  10  22  39  57  83 118 154 190 235 297 354
#     4   9  20  40  62  81 111 155 199 236 286 359
#     4  10  20  36  59  86 116 156 200 240 285 345
#     4   9  20  38  59  85 113 154 200 238 288 352
#     4  12  24  37  56  89 123 150 191 250 299 336
#
# _framework density 22.522621999999998
#
# number of rings (size 3 to 8) (size 9 to 14) (size 15 to 20)
#    0.000    2.286    0.000    4.286    0.000   10.286 
#    0.000    8.571    0.000    0.000    0.000    0.000 
#    0.000    0.000    0.000    0.000    0.000    0.000 
#
# Total GULP energy -155947.899774 kJ/mol
# GULP energy per Si atom -5569.567849 kJ/mol
# Density = 2.247136 g / cm^3
# Si number density = 22.522622 Si / 1000 Ang^3
#
#
#
# Elastic Constant Matrix: (Units=GPa)
#
#
# Indices 1 2 3 4 5 6 
#
# 1 112.8671 -1.1276 59.0473 0.0000 23.6479 0.0001
# 2 -1.1276 28.5000 -2.6173 0.0000 -1.4793 0.0003
# 3 59.0473 -2.6173 82.3631 0.0000 19.9797 0.0000
# 4 0.0000 0.0000 0.0000 3.3476 0.0000 -12.9248
# 5 23.6479 -1.4793 19.9797 0.0000 52.9346 0.0000
# 6 0.0001 0.0003 0.0000 -12.9248 0.0000 18.5167
#
#
#
# Elastic Compliance Matrix: (Units=1/GPa)
#
#
# Indices 1 2 3 4 5 6 
#
# 1 0.014556 -0.000468 -0.009764 0.000000 -0.002831 0.000000
# 2 -0.000468 0.035224 0.001283 0.000002 0.000709 0.000000
# 3 -0.009764 0.001283 0.019941 0.000000 -0.003129 0.000000
# 4 0.000000 0.000002 0.000000 -0.176240 0.000000 -0.123017
# 5 -0.002831 0.000709 -0.003129 0.000000 0.021357 0.000000
# 6 0.000000 0.000000 0.000000 -0.123017 0.000000 -0.031862
#
#
# Mechanical properties :
#
#
# Convention : Reuss Voigt Hill
#
# Bulk Modulus (GPa) = 19.29637 37.14832 28.22235
# Shear Modulus (GPa) = -61.08619 26.18829 -17.44895
#
# Velocity S-wave (km/s) = -5.21354 3.41362 -2.78642
# Velocity P-wave (km/s) = 5.25882 5.66274 1.48516
#
# Compressibility (1/GPa) = 0.05182321
#
# Stress axis : x y z
#
# Youngs Moduli (GPa) = 68.69803 28.38989 50.14794
#
# Poissons Ratio (x) = 0.01328 0.48964
# Poissons Ratio (y) = 0.03213 -0.06432
# Poissons Ratio (z) = 0.67076 -0.03641
#
# Static dielectric constant tensor:
#      x y z
#    x 1.696530 0.000000 -0.158740 
#    y 0.000000 1.903250 0.000000 
#    z -0.158740 0.000000 1.651380 
# 
# From -- ./inp_files/276529.got.cif
#   From: 2010.05.17/outbox.cif.g08.bks.cpg/sg15_139_cif.got.tgz:276529.got - 2010.06.03 18:47:42.
