data_PCOD9271908
_publ_section_title
;
Structure prediction by ZEFSAII (Michael W. Deem and Ramdas Pophale) SiO2 
 PCOD9271908
Probable space group: C 2/C
;
_chemical_formula_sum "Si O2"
_cell_formula_units_Z 36
_cell_length_a 21.679067
_cell_length_b 12.721476
_cell_length_c 7.659154
_cell_angle_alpha 90.000000
_cell_angle_beta 136.864862
_cell_angle_gamma 90.000000
_cell_volume 1444.235738
_symmetry_space_group_name_H-M "C 2/C"
_symmetry_group_IT_number 15
_symmetry_cell_setting 'monoclinic'
loop_
_space_group_symop_operation_xyz
x,y,z
-x,y,1/2-z
-x,-y,-z
x,-y,1/2+z
1/2+x,1/2+y,z
1/2-x,1/2+y,1/2-z
1/2-x,1/2-y,-z
1/2+x,1/2-y,1/2+z
loop_
_atom_site_type_symbol
_atom_site_label
_atom_site_fract_x
_atom_site_fract_y
_atom_site_fract_z
Si Si1 0.500000 0.564595 0.250000
Si Si2 0.367831 0.583532 0.692031
Si Si3 0.724787 0.908780 0.366051
Si Si4 0.071705 0.564550 0.027995
Si Si5 0.285145 0.789262 0.798426
O O1 0.562319 0.624354 0.517451
O O2 0.568094 0.486200 0.296250
O O3 0.293053 0.495124 0.586758
O O4 0.311500 0.669023 0.468999
O O5 0.693647 0.841180 0.468744
O O6 0.772023 0.832689 0.322414
O O7 0.640247 0.971082 0.110420
O O8 0.144116 0.659890 0.193035
O O9 0.000000 0.613701 0.750000
O O10 0.000000 0.500000 0.000000
#
# Coordination Sequence:
#
# PCOD9271908 Si02
#       5
#     4   8   8   8   8
#     4  10  20  36  62  90 130 174 230 272 350 416
#     4  10  20  39  62  95 133 183 218 292 354 417
#     4  10  21  40  65  97 136 177 232 288 355 417
#     4  11  22  42  68 100 135 185 234 289 351 426
#     4  10  21  40  66  95 138 180 229 286 357 415
#
# _framework density 24.926677000000002
#
# number of rings (size 3 to 8) (size 9 to 14) (size 15 to 20)
#    0.000    1.778    4.444    0.000    0.000    0.000 
#    4.000    4.444    0.000    0.000    0.000    0.000 
#    0.000    0.000    0.000    0.000    0.000    0.000 
#
# Total GULP energy -100307.767533 kJ/mol
# GULP energy per Si atom -5572.653752 kJ/mol
# Density = 2.486994 g / cm^3
# Si number density = 24.926677 Si / 1000 Ang^3
#
#
#
# Elastic Constant Matrix: (Units=GPa)
#
#
# Indices 1 2 3 4 5 6 
#
# 1 96.5041 42.0148 9.7364 0.0000 36.4627 0.0000
# 2 42.0148 147.6562 37.2535 0.0000 8.4776 0.0000
# 3 9.7364 37.2535 158.2878 0.0000 8.4924 0.0000
# 4 0.0000 0.0000 0.0000 54.6574 0.0000 -27.9915
# 5 36.4627 8.4776 8.4924 0.0000 40.3989 0.0000
# 6 0.0000 0.0000 0.0000 -27.9915 0.0000 56.5045
#
#
#
# Elastic Compliance Matrix: (Units=1/GPa)
#
#
# Indices 1 2 3 4 5 6 
#
# 1 0.018105 -0.004452 0.000769 0.000000 -0.015569 0.000000
# 2 -0.004452 0.008350 -0.001834 0.000000 0.002652 0.000000
# 3 0.000769 -0.001834 0.006795 0.000000 -0.001738 0.000000
# 4 0.000000 0.000000 0.000000 0.024515 0.000000 0.012145
# 5 -0.015569 0.002652 -0.001738 0.000000 0.038614 0.000000
# 6 0.000000 0.000000 0.000000 0.012145 0.000000 0.023714
#
#
# Mechanical properties :
#
#
# Convention : Reuss Voigt Hill
#
# Bulk Modulus (GPa) = 45.00908 64.49528 54.75218
# Shear Modulus (GPa) = 36.09291 51.20839 43.65065
#
# Velocity S-wave (km/s) = 3.80934 4.53742 4.18923
# Velocity P-wave (km/s) = 6.11914 7.30624 6.73888
#
# Compressibility (1/GPa) = 0.02221774
#
# Stress axis : x y z
#
# Youngs Moduli (GPa) = 55.23246 119.76556 147.16583
#
# Poissons Ratio (x) = 0.53320 -0.11323
# Poissons Ratio (y) = 0.24590 0.26983
# Poissons Ratio (z) = -0.04250 0.21959
#
# Static dielectric constant tensor:
#      x y z
#    x 2.099930 0.000000 -0.041800 
#    y 0.000000 1.988240 0.000000 
#    z -0.041800 0.000000 1.966070 
# 
# From -- ./inp_files/55695.got.cif
#   From: 2010.05.17/outbox.cif.g08.bks.cpg/sg15_28_cif.got.tgz:55695.got - 2010.06.03 18:47:42.
