data_PCOD9271796
_publ_section_title
;
Structure prediction by ZEFSAII (Michael W. Deem and Ramdas Pophale) SiO2 
 PCOD9271796
Probable space group: C 2/C
;
_chemical_formula_sum "Si O2"
_cell_formula_units_Z 52
_cell_length_a 27.670475
_cell_length_b 11.777511
_cell_length_c 8.211262
_cell_angle_alpha 90.000000
_cell_angle_beta 65.193141
_cell_angle_gamma 90.000000
_cell_volume 2429.044213
_symmetry_space_group_name_H-M "C 2/C"
_symmetry_group_IT_number 15
_symmetry_cell_setting 'monoclinic'
loop_
_space_group_symop_operation_xyz
x,y,z
-x,y,1/2-z
-x,-y,-z
x,-y,1/2+z
1/2+x,1/2+y,z
1/2-x,1/2+y,1/2-z
1/2-x,1/2-y,-z
1/2+x,1/2-y,1/2+z
loop_
_atom_site_type_symbol
_atom_site_label
_atom_site_fract_x
_atom_site_fract_y
_atom_site_fract_z
Si Si1 0.660022 0.773119 0.400702
Si Si2 0.000000 0.547526 0.250000
Si Si3 0.556636 0.640324 0.159680
Si Si4 0.864006 0.205758 0.709906
Si Si5 0.937410 0.634420 0.640195
Si Si6 0.159472 0.047746 0.179375
Si Si7 0.728583 0.687655 0.870329
O O1 0.636422 0.764942 0.615508
O O2 0.622732 0.852185 0.340587
O O3 0.660199 0.646759 0.316459
O O4 0.720612 0.817237 0.318120
O O5 0.046098 0.467129 0.262120
O O6 0.974855 0.618860 0.430816
O O7 0.500000 0.579870 0.250000
O O8 0.550824 0.749282 0.283427
O O9 0.603510 0.564195 0.165498
O O10 0.579213 0.687033 0.956248
O O11 0.821443 0.254237 0.639393
O O12 0.838939 0.080744 0.769210
O O13 0.205415 0.073942 0.984187
O O14 0.750000 0.750000 0.000000
#
# Coordination Sequence:
#
# PCOD9271796 Si02
#       7
#     8   4   8   8   8   8   8
#     4  10  20  36  61  93 117 157 207 243 302 375
#     4  10  22  42  64  82 124 156 200 254 310 362
#     4  10  21  37  60  88 124 163 202 251 297 359
#     4  11  21  36  64  89 125 163 202 249 306 361
#     4  10  22  39  63  88 117 158 199 250 312 356
#     4   9  20  39  59  87 125 163 195 247 309 357
#     4   9  19  38  59  83 119 157 196 250 303 356
#
# _framework density 21.407596999999999
#
# number of rings (size 3 to 8) (size 9 to 14) (size 15 to 20)
#    0.000    2.154    0.769    3.231    2.154    0.615 
#    2.769    0.000    6.769    0.000    0.000    0.000 
#    0.000    0.000    0.000    0.000    0.000    0.000 
#
# Total GULP energy -145056.119841 kJ/mol
# GULP energy per Si atom -5579.081532 kJ/mol
# Density = 2.135887 g / cm^3
# Si number density = 21.407597 Si / 1000 Ang^3
#
#
#
# Elastic Constant Matrix: (Units=GPa)
#
#
# Indices 1 2 3 4 5 6 
#
# 1 95.0897 5.1348 29.6654 0.0000 -13.5189 0.0000
# 2 5.1348 36.8210 11.0167 0.0000 -1.3253 0.0000
# 3 29.6654 11.0167 94.8571 0.0000 15.2598 0.0000
# 4 0.0000 0.0000 0.0000 24.9009 0.0000 -1.3590
# 5 -13.5189 -1.3253 15.2598 0.0000 30.6507 0.0000
# 6 0.0000 0.0000 0.0000 -1.3590 0.0000 9.2941
#
#
#
# Elastic Compliance Matrix: (Units=1/GPa)
#
#
# Indices 1 2 3 4 5 6 
#
# 1 0.013524 0.000123 -0.005657 0.000000 0.008787 0.000000
# 2 0.000123 0.028409 -0.003853 0.000000 0.003201 0.000000
# 3 -0.005657 -0.003853 0.014335 0.000000 -0.009799 0.000000
# 4 0.000000 0.000000 0.000000 0.040482 0.000000 0.005920
# 5 0.008787 0.003201 -0.009799 0.000000 0.041518 0.000000
# 6 0.000000 0.000000 0.000000 0.005920 0.000000 0.108461
#
#
# Mechanical properties :
#
#
# Convention : Reuss Voigt Hill
#
# Bulk Modulus (GPa) = 26.67086 35.37796 31.02441
# Shear Modulus (GPa) = 17.98553 25.03253 21.50903
#
# Velocity S-wave (km/s) = 2.90167 3.42326 3.17320
# Velocity P-wave (km/s) = 4.86949 5.67333 5.28671
#
# Compressibility (1/GPa) = 0.03749410
#
# Stress axis : x y z
#
# Youngs Moduli (GPa) = 73.94345 35.19981 69.75840
#
# Poissons Ratio (x) = -0.00433 0.39464
# Poissons Ratio (y) = -0.00909 0.26876
# Poissons Ratio (z) = 0.41831 0.13562
#
# Static dielectric constant tensor:
#      x y z
#    x 1.901370 0.000000 0.024010 
#    y 0.000000 1.766200 0.000000 
#    z 0.024010 0.000000 1.815560 
# 
# From -- ./inp_files/69011.got.cif
#   From: 2010.05.17/outbox.cif.g08.bks.cpg/sg15_35_cif.got.tgz:69011.got - 2010.06.03 18:47:42.
