data_PCOD9271468
_publ_section_title
;
Structure prediction by ZEFSAII (Michael W. Deem and Ramdas Pophale) SiO2 
 PCOD9271468
Probable space group: C 2/C
;
_chemical_formula_sum "Si O2"
_cell_formula_units_Z 56
_cell_length_a 12.527979
_cell_length_b 13.253442
_cell_length_c 16.328394
_cell_angle_alpha 90.000000
_cell_angle_beta 66.527100
_cell_angle_gamma 90.000000
_cell_volume 2486.796314
_symmetry_space_group_name_H-M "C 2/C"
_symmetry_group_IT_number 15
_symmetry_cell_setting 'monoclinic'
loop_
_space_group_symop_operation_xyz
x,y,z
-x,y,1/2-z
-x,-y,-z
x,-y,1/2+z
1/2+x,1/2+y,z
1/2-x,1/2+y,1/2-z
1/2-x,1/2-y,-z
1/2+x,1/2-y,1/2+z
loop_
_atom_site_type_symbol
_atom_site_label
_atom_site_fract_x
_atom_site_fract_y
_atom_site_fract_z
Si Si1 0.227302 0.636244 0.775000
Si Si2 0.231229 0.155247 0.369453
Si Si3 0.958614 0.695792 0.358153
Si Si4 0.874213 0.219678 0.328356
Si Si5 0.822360 0.426552 0.674901
Si Si6 0.034967 0.912453 0.373494
Si Si7 0.039949 0.119486 0.051496
O O1 0.236692 0.733378 0.829161
O O2 0.170970 0.681676 0.707814
O O3 0.160141 0.545467 0.839229
O O4 0.357432 0.595023 0.720749
O O5 0.329817 0.151467 0.408042
O O6 0.278588 0.083463 0.282797
O O7 0.096827 0.136315 0.425367
O O8 0.000000 0.689176 0.250000
O O9 0.059164 0.635209 0.373640
O O10 0.960998 0.812455 0.381100
O O11 0.778529 0.133160 0.341592
O O12 0.000000 0.195326 0.250000
O O13 0.903110 0.211011 0.415985
O O14 0.091551 0.902315 0.447028
O O15 0.963440 0.016005 0.394823
#
# Coordination Sequence:
#
# PCOD9271468 Si02
#       7
#     8   8   8   8   8   8   8
#     4  11  20  37  61  91 113 154 198 243 299 346
#     4  10  20  38  58  87 115 147 201 241 288 348
#     4  10  20  38  61  87 109 158 199 244 285 344
#     4  11  20  37  60  89 117 150 196 247 294 340
#     4  10  20  36  59  89 116 144 202 241 284 350
#     4  11  22  39  61  87 119 157 201 237 297 353
#     4  11  24  39  57  92 122 153 193 249 298 349
#
# _framework density 22.518934999999999
#
# number of rings (size 3 to 8) (size 9 to 14) (size 15 to 20)
#    0.000    1.429    8.571    0.000    2.000    3.429 
#    0.000    0.000    0.000    0.857    0.000    0.000 
#    0.000    0.000    0.000    0.000    0.000    0.000 
#
# Total GULP energy -156235.560474 kJ/mol
# GULP energy per Si atom -5579.841445 kJ/mol
# Density = 2.246768 g / cm^3
# Si number density = 22.518935 Si / 1000 Ang^3
#
#
#
# Elastic Constant Matrix: (Units=GPa)
#
#
# Indices 1 2 3 4 5 6 
#
# 1 117.3941 6.4244 -6.9251 0.0000 -3.4030 0.0000
# 2 6.4244 53.3014 -15.0525 0.0000 -4.4692 0.0000
# 3 -6.9251 -15.0525 18.2528 0.0000 -1.7743 0.0000
# 4 0.0000 0.0000 0.0000 13.0303 0.0000 7.0779
# 5 -3.4030 -4.4692 -1.7743 0.0000 12.6894 0.0000
# 6 0.0000 0.0000 0.0000 7.0779 0.0000 15.3975
#
#
#
# Elastic Compliance Matrix: (Units=1/GPa)
#
#
# Indices 1 2 3 4 5 6 
#
# 1 0.008818 0.000282 0.003871 0.000000 0.003005 0.000000
# 2 0.000282 0.026272 0.022992 0.000000 0.012544 0.000000
# 3 0.003871 0.022992 0.077152 0.000000 0.019924 0.000000
# 4 0.000000 0.000000 0.000000 0.102283 0.000000 -0.047017
# 5 0.003005 0.012544 0.019924 0.000000 0.086815 0.000000
# 6 0.000000 0.000000 0.000000 -0.047017 0.000000 0.086558
#
#
# Mechanical properties :
#
#
# Convention : Reuss Voigt Hill
#
# Bulk Modulus (GPa) = 6.00485 17.53799 11.77142
# Shear Modulus (GPa) = 12.84950 21.85689 17.35320
#
# Velocity S-wave (km/s) = 2.39133 3.11883 2.77899
# Velocity P-wave (km/s) = 3.20889 4.55790 3.94154
#
# Compressibility (1/GPa) = 0.16653210
#
# Stress axis : x y z
#
# Youngs Moduli (GPa) = 113.40029 38.06332 12.96140
#
# Poissons Ratio (x) = -0.01074 -0.05017
# Poissons Ratio (y) = -0.03200 -0.29801
# Poissons Ratio (z) = -0.43892 -0.87516
#
# Static dielectric constant tensor:
#      x y z
#    x 1.884290 0.000000 0.036670 
#    y 0.000000 1.886680 0.000000 
#    z 0.036670 0.000000 1.857420 
# 
# From -- ./inp_files/237544.got.cif
#   From: 2010.05.17/outbox.cif.g08.bks.cpg/sg15_119_cif.got.tgz:237544.got - 2010.06.03 18:47:42.
