data_PCOD9271770
_publ_section_title
;
Structure prediction by ZEFSAII (Michael W. Deem and Ramdas Pophale) SiO2 
 PCOD9271770
Probable space group: C 2/C
;
_chemical_formula_sum "Si O2"
_cell_formula_units_Z 56
_cell_length_a 9.621345
_cell_length_b 17.812110
_cell_length_c 19.157279
_cell_angle_alpha 90.000000
_cell_angle_beta 120.530879
_cell_angle_gamma 90.000000
_cell_volume 2827.921911
_symmetry_space_group_name_H-M "C 2/C"
_symmetry_group_IT_number 15
_symmetry_cell_setting 'monoclinic'
loop_
_space_group_symop_operation_xyz
x,y,z
-x,y,1/2-z
-x,-y,-z
x,-y,1/2+z
1/2+x,1/2+y,z
1/2-x,1/2+y,1/2-z
1/2-x,1/2-y,-z
1/2+x,1/2-y,1/2+z
loop_
_atom_site_type_symbol
_atom_site_label
_atom_site_fract_x
_atom_site_fract_y
_atom_site_fract_z
Si Si1 0.251313 0.597637 0.747729
Si Si2 0.753697 0.762350 0.419292
Si Si3 0.501332 0.191869 0.381242
Si Si4 0.198872 0.909521 0.578524
Si Si5 0.839308 0.432433 0.756856
Si Si6 0.500000 0.213909 0.750000
Si Si7 0.000000 0.804818 0.250000
Si Si8 0.650178 0.578531 0.576175
O O1 0.189957 0.514066 0.718297
O O2 0.118889 0.657829 0.738553
O O3 0.348262 0.639926 0.713168
O O4 0.367614 0.582215 0.844587
O O5 0.750000 0.750000 0.500000
O O6 0.920796 0.732124 0.427410
O O7 0.606531 0.737553 0.331487
O O8 0.737088 0.852176 0.410554
O O9 0.673866 0.147596 0.425013
O O10 0.375897 0.128252 0.324412
O O11 0.504563 0.252348 0.319258
O O12 0.212875 0.902727 0.666421
O O13 0.017738 0.903676 0.504349
O O14 0.228439 0.999219 0.575061
O O15 0.000000 0.438940 0.750000
#
# Coordination Sequence:
#
# PCOD9271770 Si02
#       8
#     8   8   8   8   8   4   4   8
#     4  10  20  36  61  90 121 163 213 251 321 389
#     4  11  25  42  60  92 129 170 220 265 319 393
#     4  11  21  38  62  95 122 160 218 267 317 376
#     4   9  18  34  61  87 122 162 198 265 320 376
#     4   9  17  33  62  87 118 165 210 250 313 392
#     4  10  20  41  67  82 124 178 208 252 326 389
#     4  12  20  37  61  98 122 146 212 276 296 379
#     4   9  19  37  57  86 123 163 206 249 329 385
#
# _framework density 19.802526
#
# number of rings (size 3 to 8) (size 9 to 14) (size 15 to 20)
#    0.000    2.000    5.714    0.000    2.000    2.857 
#    2.571    5.714    0.000    0.000    0.000    0.000 
#    0.000    0.000    0.000    0.000    0.000    0.000 
#
# Total GULP energy -155870.295806 kJ/mol
# GULP energy per Si atom -5566.796279 kJ/mol
# Density = 1.975745 g / cm^3
# Si number density = 19.802526 Si / 1000 Ang^3
#
#
#
# Elastic Constant Matrix: (Units=GPa)
#
#
# Indices 1 2 3 4 5 6 
#
# 1 81.6555 29.1127 19.9388 0.0000 -15.2814 0.0000
# 2 29.1127 75.4287 11.3643 0.0000 -15.9702 0.0000
# 3 19.9388 11.3643 66.1144 0.0000 5.9241 0.0000
# 4 0.0000 0.0000 0.0000 14.2015 0.0000 11.0400
# 5 -15.2814 -15.9702 5.9241 0.0000 29.7216 0.0000
# 6 0.0000 0.0000 0.0000 11.0400 0.0000 25.1089
#
#
#
# Elastic Compliance Matrix: (Units=1/GPa)
#
#
# Indices 1 2 3 4 5 6 
#
# 1 0.016192 -0.004011 -0.004833 0.000000 0.007133 0.000000
# 2 -0.004011 0.016720 -0.002326 0.000000 0.007385 0.000000
# 3 -0.004833 -0.002326 0.017632 0.000000 -0.007249 0.000000
# 4 0.000000 0.000000 0.000000 0.106982 0.000000 -0.047038
# 5 0.007133 0.007385 -0.007249 0.000000 0.042726 0.000000
# 6 0.000000 0.000000 0.000000 -0.047038 0.000000 0.060509
#
#
# Mechanical properties :
#
#
# Convention : Reuss Voigt Hill
#
# Bulk Modulus (GPa) = 35.45615 38.22557 36.84086
# Shear Modulus (GPa) = 17.09394 24.65859 20.87627
#
# Velocity S-wave (km/s) = 2.94125 3.53260 3.25040
# Velocity P-wave (km/s) = 5.42939 5.99869 5.72113
#
# Compressibility (1/GPa) = 0.02820385
#
# Stress axis : x y z
#
# Youngs Moduli (GPa) = 61.76041 59.80944 56.71459
#
# Poissons Ratio (x) = 0.23990 0.27409
# Poissons Ratio (y) = 0.24772 0.13192
# Poissons Ratio (z) = 0.29847 0.13912
#
# Static dielectric constant tensor:
#      x y z
#    x 1.742730 0.000000 0.034380 
#    y 0.000000 1.719510 0.000000 
#    z 0.034380 0.000000 1.881050 
# 
# From -- ./inp_files/232838.got.cif
#   From: 2010.05.17/outbox.cif.g08.bks.cpg/sg15_117_cif.got.tgz:232838.got - 2010.06.03 18:47:42.
