data_PCOD9271978
_publ_section_title
;
Structure prediction by ZEFSAII (Michael W. Deem and Ramdas Pophale) SiO2 
 PCOD9271978
Probable space group: C 2/C
;
_chemical_formula_sum "Si O2"
_cell_formula_units_Z 56
_cell_length_a 11.914494
_cell_length_b 26.791543
_cell_length_c 9.507896
_cell_angle_alpha 90.000000
_cell_angle_beta 58.825873
_cell_angle_gamma 90.000000
_cell_volume 2596.734587
_symmetry_space_group_name_H-M "C 2/C"
_symmetry_group_IT_number 15
_symmetry_cell_setting 'monoclinic'
loop_
_space_group_symop_operation_xyz
x,y,z
-x,y,1/2-z
-x,-y,-z
x,-y,1/2+z
1/2+x,1/2+y,z
1/2-x,1/2+y,1/2-z
1/2-x,1/2-y,-z
1/2+x,1/2-y,1/2+z
loop_
_atom_site_type_symbol
_atom_site_label
_atom_site_fract_x
_atom_site_fract_y
_atom_site_fract_z
Si Si1 0.296310 0.876277 0.915456
Si Si2 0.141176 0.548617 0.629091
Si Si3 0.856664 0.642317 0.060281
Si Si4 0.858144 0.528272 0.565553
Si Si5 0.891006 0.703863 0.574489
Si Si6 0.946812 0.189397 0.943306
Si Si7 0.794529 0.197906 0.540262
O O1 0.347436 0.877734 0.723308
O O2 0.345070 0.924668 0.969186
O O3 0.352242 0.829852 0.967488
O O4 0.142829 0.860163 0.003032
O O5 0.103858 0.599254 0.573778
O O6 0.197446 0.548059 0.749460
O O7 0.218936 0.515394 0.466679
O O8 0.000000 0.523669 0.750000
O O9 0.721514 0.660903 0.080839
O O10 0.959223 0.687988 0.992268
O O11 0.000000 0.500000 0.500000
O O12 0.869328 0.761283 0.546673
O O13 0.808331 0.689438 0.765537
O O14 0.000000 0.198275 0.750000
O O15 0.067341 0.189917 0.973932
O O16 0.750000 0.250000 0.500000
#
# Coordination Sequence:
#
# PCOD9271978 Si02
#       7
#     8   8   8   8   8   8   8
#     4  12  25  42  66  97 139 181 229 280 355 419
#     4  10  20  36  62  96 135 169 210 275 356 408
#     4  12  24  39  66 103 140 178 228 294 350 411
#     4  10  21  39  64  97 137 170 215 280 352 421
#     4  12  24  41  63  95 137 184 235 290 346 408
#     4  12  26  44  68  93 138 193 240 285 343 417
#     4  12  25  43  65  95 136 187 243 289 339 407
#
# _framework density 21.565545
#
# number of rings (size 3 to 8) (size 9 to 14) (size 15 to 20)
#    0.000    0.571    2.857    7.286    0.000    5.143 
#    0.000    0.000    0.000    0.857    0.000    0.000 
#    0.000    0.000    0.000    0.000    0.000    0.000 
#
# Total GULP energy -156027.948198 kJ/mol
# GULP energy per Si atom -5572.426721 kJ/mol
# Density = 2.151646 g / cm^3
# Si number density = 21.565545 Si / 1000 Ang^3
#
#
#
# Elastic Constant Matrix: (Units=GPa)
#
#
# Indices 1 2 3 4 5 6 
#
# 1 128.4475 37.8192 33.3378 0.0000 30.8946 0.0000
# 2 37.8192 85.2376 42.8603 0.0000 19.0411 0.0000
# 3 33.3378 42.8603 124.6431 0.0000 45.1948 0.0000
# 4 0.0000 0.0000 0.0000 38.6005 0.0000 19.1981
# 5 30.8946 19.0411 45.1948 0.0000 38.4493 0.0000
# 6 0.0000 0.0000 0.0000 19.1981 0.0000 29.5488
#
#
#
# Elastic Compliance Matrix: (Units=1/GPa)
#
#
# Indices 1 2 3 4 5 6 
#
# 1 0.010450 -0.003492 0.001435 0.000000 -0.008354 0.000000
# 2 -0.003492 0.015464 -0.004573 0.000000 0.000523 0.000000
# 3 0.001435 -0.004573 0.015351 0.000000 -0.016933 0.000000
# 4 0.000000 0.000000 0.000000 0.038274 0.000000 -0.024867
# 5 -0.008354 0.000523 -0.016933 0.000000 0.052365 0.000000
# 6 0.000000 0.000000 0.000000 -0.024867 0.000000 0.049998
#
#
# Mechanical properties :
#
#
# Convention : Reuss Voigt Hill
#
# Bulk Modulus (GPa) = 35.70783 62.92919 49.31851
# Shear Modulus (GPa) = 24.44994 36.27378 30.36186
#
# Velocity S-wave (km/s) = 3.37077 4.10570 3.75625
# Velocity P-wave (km/s) = 5.63411 7.19162 6.45998
#
# Compressibility (1/GPa) = 0.02800506
#
# Stress axis : x y z
#
# Youngs Moduli (GPa) = 95.68967 64.66644 65.14056
#
# Poissons Ratio (x) = 0.22582 -0.09347
# Poissons Ratio (y) = 0.33415 0.29790
# Poissons Ratio (z) = -0.13730 0.29574
#
# Static dielectric constant tensor:
#      x y z
#    x 1.906220 0.000000 0.008110 
#    y 0.000000 1.517030 0.000000 
#    z 0.008110 0.000000 1.895630 
# 
# From -- ./inp_files/34168.got.cif
#   From: 2010.05.17/outbox.cif.g08.bks.cpg/sg15_18_cif.got.tgz:34168.got - 2010.06.03 18:47:42.
