data_PCOD9271836
_publ_section_title
;
Structure prediction by ZEFSAII (Michael W. Deem and Ramdas Pophale) SiO2 
 PCOD9271836
Probable space group: C 2/C
;
_chemical_formula_sum "Si O2"
_cell_formula_units_Z 44
_cell_length_a 18.375260
_cell_length_b 14.027166
_cell_length_c 7.244870
_cell_angle_alpha 90.000000
_cell_angle_beta 80.899972
_cell_angle_gamma 90.000000
_cell_volume 1843.882268
_symmetry_space_group_name_H-M "C 2/C"
_symmetry_group_IT_number 15
_symmetry_cell_setting 'monoclinic'
loop_
_space_group_symop_operation_xyz
x,y,z
-x,y,1/2-z
-x,-y,-z
x,-y,1/2+z
1/2+x,1/2+y,z
1/2-x,1/2+y,1/2-z
1/2-x,1/2-y,-z
1/2+x,1/2-y,1/2+z
loop_
_atom_site_type_symbol
_atom_site_label
_atom_site_fract_x
_atom_site_fract_y
_atom_site_fract_z
Si Si1 0.155784 0.152039 0.112547
Si Si2 0.180354 0.630031 0.518385
Si Si3 0.658560 0.070513 0.103642
Si Si4 0.936207 0.255381 0.920087
Si Si5 0.500000 0.348802 0.750000
Si Si6 0.701944 0.346476 0.014948
O O1 0.231269 0.128184 0.971831
O O2 0.074663 0.104157 0.131164
O O3 0.178060 0.133720 0.315266
O O4 0.150259 0.266372 0.084199
O O5 0.168992 0.613695 0.304023
O O6 0.139702 0.539909 0.623601
O O7 0.602886 0.143392 0.031480
O O8 0.737018 0.075554 0.962545
O O9 0.000000 0.268850 0.750000
O O10 0.874814 0.181568 0.860886
O O11 0.967955 0.212499 0.094589
O O12 0.750000 0.250000 0.000000
#
# Coordination Sequence:
#
# PCOD9271836 Si02
#       6
#     8   8   8   8   4   8
#     4   9  19  37  57  80 110 154 191 224 286 342
#     4  10  21  36  59  83 113 149 192 238 278 336
#     4  10  21  36  56  87 113 144 194 239 282 326
#     4  10  20  37  57  85 117 149 185 231 286 356
#     4  10  20  36  62  80 112 156 188 228 284 346
#     4   8  17  33  58  78 109 146 190 232 273 329
#
# _framework density 23.862696
#
# number of rings (size 3 to 8) (size 9 to 14) (size 15 to 20)
#    0.000    2.545    0.000    1.091    7.636    1.455 
#    1.636    1.818    2.000    3.273    0.000    0.000 
#    0.000    0.000    0.000    0.000    0.000    0.000 
#
# Total GULP energy -122674.536825 kJ/mol
# GULP energy per Si atom -5576.115310 kJ/mol
# Density = 2.380838 g / cm^3
# Si number density = 23.862696 Si / 1000 Ang^3
#
#
#
# Elastic Constant Matrix: (Units=GPa)
#
#
# Indices 1 2 3 4 5 6 
#
# 1 97.7599 -31.2700 13.7109 0.0000 -6.5221 0.0000
# 2 -31.2700 26.8204 -8.5873 0.0000 -5.7455 0.0000
# 3 13.7109 -8.5873 51.1220 0.0000 -2.2045 0.0000
# 4 0.0000 0.0000 0.0000 20.5461 0.0000 -3.7790
# 5 -6.5221 -5.7455 -2.2045 0.0000 33.0891 0.0000
# 6 0.0000 0.0000 0.0000 -3.7790 0.0000 11.6978
#
#
#
# Elastic Compliance Matrix: (Units=1/GPa)
#
#
# Indices 1 2 3 4 5 6 
#
# 1 0.017944 0.022253 -0.000758 0.000000 0.007350 0.000000
# 2 0.022253 0.068843 0.006319 0.000000 0.016761 0.000000
# 3 -0.000758 0.006319 0.020927 0.000000 0.002342 0.000000
# 4 0.000000 0.000000 0.000000 0.051746 0.000000 0.016717
# 5 0.007350 0.016761 0.002342 0.000000 0.034737 0.000000
# 6 0.000000 0.000000 0.000000 0.016717 0.000000 0.090886
#
#
# Mechanical properties :
#
#
# Convention : Reuss Voigt Hill
#
# Bulk Modulus (GPa) = 6.12219 13.71218 9.91719
# Shear Modulus (GPa) = 17.61173 26.52317 22.06745
#
# Velocity S-wave (km/s) = 2.71964 3.33752 3.04430
# Velocity P-wave (km/s) = 3.52606 4.53991 4.06472
#
# Compressibility (1/GPa) = 0.16334012
#
# Stress axis : x y z
#
# Youngs Moduli (GPa) = 55.73023 14.52582 47.78606
#
# Poissons Ratio (x) = -0.32324 0.03620
# Poissons Ratio (y) = -1.24014 -0.30194
# Poissons Ratio (z) = 0.04222 -0.09178
#
# Static dielectric constant tensor:
#      x y z
#    x 1.997870 0.000000 -0.049850 
#    y 0.000000 1.904970 0.000000 
#    z -0.049850 0.000000 1.985630 
# 
# From -- ./inp_files/47096.got.cif
#   From: 2010.05.17/outbox.cif.g08.bks.cpg/sg15_24_cif.got.tgz:47096.got - 2010.06.03 18:47:42.
