data_PCOD9271323
_publ_section_title
;
Structure prediction by ZEFSAII (Michael W. Deem and Ramdas Pophale) SiO2 
 PCOD9271323
Probable space group: C 2/C
;
_chemical_formula_sum "Si O2"
_cell_formula_units_Z 44
_cell_length_a 28.319268
_cell_length_b 9.443496
_cell_length_c 8.927089
_cell_angle_alpha 90.000000
_cell_angle_beta 113.738065
_cell_angle_gamma 90.000000
_cell_volume 2185.412347
_symmetry_space_group_name_H-M "C 2/C"
_symmetry_group_IT_number 15
_symmetry_cell_setting 'monoclinic'
loop_
_space_group_symop_operation_xyz
x,y,z
-x,y,1/2-z
-x,-y,-z
x,-y,1/2+z
1/2+x,1/2+y,z
1/2-x,1/2+y,1/2-z
1/2-x,1/2-y,-z
1/2+x,1/2-y,1/2+z
loop_
_atom_site_type_symbol
_atom_site_label
_atom_site_fract_x
_atom_site_fract_y
_atom_site_fract_z
Si Si1 0.698098 0.842068 0.444425
Si Si2 0.500000 0.771715 0.750000
Si Si3 0.554190 0.073303 0.548794
Si Si4 0.402576 0.361678 0.191116
Si Si5 0.107599 0.166169 0.179289
Si Si6 0.656737 0.109273 0.226088
O O1 0.750000 0.750000 0.500000
O O2 0.657590 0.750492 0.296784
O O3 0.681389 0.854915 0.596847
O O4 0.693369 0.001357 0.367472
O O5 0.454627 0.871486 0.630540
O O6 0.536888 0.675558 0.694959
O O7 0.562412 0.217930 0.652060
O O8 0.500000 0.000000 0.500000
O O9 0.603580 0.976663 0.628169
O O10 0.394669 0.518972 0.240400
O O11 0.362484 0.250528 0.213248
O O12 0.394240 0.361396 0.001059
#
# Coordination Sequence:
#
# PCOD9271323 Si02
#       6
#     8   4   8   8   8   8
#     4  11  25  46  69  98 127 174 228 279 342 394
#     4  10  20  36  58  90 130 174 218 252 328 398
#     4  10  20  37  61  92 128 172 218 260 331 403
#     4  11  22  42  62  93 138 170 217 273 332 393
#     4  10  24  41  62  95 133 171 220 282 329 401
#     4  11  23  43  69  97 133 173 222 282 326 409
#
# _framework density 20.133499
#
# number of rings (size 3 to 8) (size 9 to 14) (size 15 to 20)
#    0.000    1.455    1.818    4.364    2.545    5.818 
#    3.273    2.727    0.000    0.000    0.000    0.000 
#    0.000    0.000    0.000    0.000    0.000    0.000 
#
# Total GULP energy -122524.198531 kJ/mol
# GULP energy per Si atom -5569.281751 kJ/mol
# Density = 2.008767 g / cm^3
# Si number density = 20.133499 Si / 1000 Ang^3
#
#
#
# Elastic Constant Matrix: (Units=GPa)
#
#
# Indices 1 2 3 4 5 6 
#
# 1 109.2575 69.7069 48.0237 0.0000 -3.7340 0.0000
# 2 69.7069 163.7395 41.1099 0.0000 -0.3707 0.0000
# 3 48.0237 41.1099 76.3156 0.0000 -2.7467 0.0000
# 4 0.0000 0.0000 0.0000 35.1400 0.0000 -2.5675
# 5 -3.7340 -0.3707 -2.7467 0.0000 36.6798 0.0000
# 6 0.0000 0.0000 0.0000 -2.5675 0.0000 28.7514
#
#
#
# Elastic Compliance Matrix: (Units=1/GPa)
#
#
# Indices 1 2 3 4 5 6 
#
# 1 0.015311 -0.004748 -0.007042 0.000000 0.000983 0.000000
# 2 -0.004748 0.008536 -0.001629 0.000000 -0.000519 0.000000
# 3 -0.007042 -0.001629 0.018436 0.000000 0.000647 0.000000
# 4 0.000000 0.000000 0.000000 0.028644 0.000000 0.002558
# 5 0.000983 -0.000519 0.000647 0.000000 0.027406 0.000000
# 6 0.000000 0.000000 0.000000 0.002558 0.000000 0.035009
#
#
# Mechanical properties :
#
#
# Convention : Reuss Voigt Hill
#
# Bulk Modulus (GPa) = 64.74627 74.11042 69.42835
# Shear Modulus (GPa) = 30.24279 32.81240 31.52760
#
# Velocity S-wave (km/s) = 3.87992 4.04139 3.96147
# Velocity P-wave (km/s) = 7.23187 7.65940 7.44871
#
# Compressibility (1/GPa) = 0.01544491
#
# Stress axis : x y z
#
# Youngs Moduli (GPa) = 65.31443 117.14523 54.24271
#
# Poissons Ratio (x) = 0.55618 0.38196
# Poissons Ratio (y) = 0.31010 0.08838
# Poissons Ratio (z) = 0.45992 0.19088
#
# Static dielectric constant tensor:
#      x y z
#    x 1.776180 0.000000 -0.059870 
#    y 0.000000 1.838370 0.000000 
#    z -0.059870 0.000000 1.861640 
# 
# From -- ./inp_files/68307.got.cif
#   From: 2010.05.17/outbox.cif.g08.bks.cpg/sg15_35_cif.got.tgz:68307.got - 2010.06.03 18:47:42.
