data_PCOD9271198
_publ_section_title
;
Structure prediction by ZEFSAII (Michael W. Deem and Ramdas Pophale) SiO2 
 PCOD9271198
Probable space group: C 2/C
;
_chemical_formula_sum "Si O2"
_cell_formula_units_Z 60
_cell_length_a 11.961926
_cell_length_b 32.191664
_cell_length_c 8.800413
_cell_angle_alpha 90.000000
_cell_angle_beta 63.015653
_cell_angle_gamma 90.000000
_cell_volume 3019.874599
_symmetry_space_group_name_H-M "C 2/C"
_symmetry_group_IT_number 15
_symmetry_cell_setting 'monoclinic'
loop_
_space_group_symop_operation_xyz
x,y,z
-x,y,1/2-z
-x,-y,-z
x,-y,1/2+z
1/2+x,1/2+y,z
1/2-x,1/2+y,1/2-z
1/2-x,1/2-y,-z
1/2+x,1/2-y,1/2+z
loop_
_atom_site_type_symbol
_atom_site_label
_atom_site_fract_x
_atom_site_fract_y
_atom_site_fract_z
Si Si1 0.848719 0.376823 0.652962
Si Si2 0.269325 0.106520 0.548047
Si Si3 0.517544 0.955150 0.559576
Si Si4 0.000000 0.866755 0.250000
Si Si5 0.351461 0.750837 0.119478
Si Si6 0.854853 0.178061 0.351897
Si Si7 0.899427 0.787790 0.147291
Si Si8 0.939266 0.663227 0.634345
O O1 0.735655 0.361111 0.616788
O O2 0.916111 0.420428 0.568827
O O3 0.956616 0.342744 0.559801
O O4 0.811773 0.379977 0.852297
O O5 0.344843 0.065034 0.545608
O O6 0.120053 0.105993 0.635341
O O7 0.319419 0.139577 0.641091
O O8 0.500000 0.958825 0.750000
O O9 0.500000 0.000000 0.500000
O O10 0.949902 0.833589 0.158227
O O11 0.327578 0.709417 0.230300
O O12 0.210607 0.769222 0.175918
O O13 0.407071 0.789285 0.180170
O O14 0.473394 0.739468 0.941547
O O15 0.843099 0.204902 0.513122
O O16 0.000000 0.165475 0.250000
O O17 0.000000 0.645301 0.750000
#
# Coordination Sequence:
#
# PCOD9271198 Si02
#       8
#     8   8   8   4   8   8   8   8
#     4  10  21  39  63  88 127 162 201 254 309 381
#     4  10  22  41  62  89 128 170 197 249 323 368
#     4   9  20  40  68  98 123 151 191 252 311 371
#     4  12  24  42  58  82 130 164 216 252 306 386
#     4  11  21  37  55  80 116 164 217 277 316 349
#     4  10  20  36  58  81 117 166 215 255 320 362
#     4  11  23  37  54  81 117 167 220 273 314 367
#     4  11  20  35  60  89 118 157 221 266 308 360
#
# _framework density 19.868373999999999
#
# number of rings (size 3 to 8) (size 9 to 14) (size 15 to 20)
#    0.000    1.600    1.333    6.000    0.000    2.667 
#    4.800    0.000    1.467    1.600    0.000    0.000 
#    0.000    0.000    0.000    0.000    0.000    0.000 
#
# Total GULP energy -167230.273772 kJ/mol
# GULP energy per Si atom -5574.342459 kJ/mol
# Density = 1.982315 g / cm^3
# Si number density = 19.868374 Si / 1000 Ang^3
#
#
#
# Elastic Constant Matrix: (Units=GPa)
#
#
# Indices 1 2 3 4 5 6 
#
# 1 152.5197 66.0117 42.5169 0.0000 -32.0359 0.0000
# 2 66.0117 101.2571 27.9506 0.0000 -18.4524 0.0000
# 3 42.5169 27.9506 63.1623 0.0000 -28.8377 0.0000
# 4 0.0000 0.0000 0.0000 13.0309 0.0000 -4.7738
# 5 -32.0359 -18.4524 -28.8377 0.0000 34.3346 0.0000
# 6 0.0000 0.0000 0.0000 -4.7738 0.0000 -10.2365
#
#
#
# Elastic Compliance Matrix: (Units=1/GPa)
#
#
# Indices 1 2 3 4 5 6 
#
# 1 0.010592 -0.005311 -0.002548 0.000000 0.004889 0.000000
# 2 -0.005311 0.014110 -0.002383 0.000000 0.000626 0.000000
# 3 -0.002548 -0.002383 0.027463 0.000000 0.019408 0.000000
# 4 0.000000 0.000000 0.000000 0.065543 0.000000 -0.030566
# 5 0.004889 0.000626 0.019408 0.000000 0.050324 0.000000
# 6 0.000000 0.000000 0.000000 -0.030566 0.000000 -0.083435
#
#
# Mechanical properties :
#
#
# Convention : Reuss Voigt Hill
#
# Bulk Modulus (GPa) = 31.56403 65.54418 48.55411
# Shear Modulus (GPa) = 43.23684 19.45646 31.34665
#
# Velocity S-wave (km/s) = 4.67000 3.13272 3.97636
# Velocity P-wave (km/s) = 6.70817 6.79309 6.75076
#
# Compressibility (1/GPa) = 0.03168163
#
# Stress axis : x y z
#
# Youngs Moduli (GPa) = 94.40764 70.87049 36.41292
#
# Poissons Ratio (x) = 0.37641 0.09277
# Poissons Ratio (y) = 0.50142 0.08677
# Poissons Ratio (z) = 0.24051 0.16889
#
# Static dielectric constant tensor:
#      x y z
#    x 1.776110 0.000000 0.001760 
#    y 0.000000 1.672990 0.000000 
#    z 0.001760 0.000000 1.790390 
# 
# From -- ./inp_files/35636.got.cif
#   From: 2010.05.17/outbox.cif.g08.bks.cpg/sg15_18_cif.got.tgz:35636.got - 2010.06.03 18:47:42.
