data_PCOD9271966
_publ_section_title
;
Structure prediction by ZEFSAII (Michael W. Deem and Ramdas Pophale) SiO2 
 PCOD9271966
Probable space group: C 2/C
;
_chemical_formula_sum "Si O2"
_cell_formula_units_Z 56
_cell_length_a 13.820229
_cell_length_b 22.622683
_cell_length_c 10.172294
_cell_angle_alpha 90.000000
_cell_angle_beta 59.979583
_cell_angle_gamma 90.000000
_cell_volume 2753.718221
_symmetry_space_group_name_H-M "C 2/C"
_symmetry_group_IT_number 15
_symmetry_cell_setting 'monoclinic'
loop_
_space_group_symop_operation_xyz
x,y,z
-x,y,1/2-z
-x,-y,-z
x,-y,1/2+z
1/2+x,1/2+y,z
1/2-x,1/2+y,1/2-z
1/2-x,1/2-y,-z
1/2+x,1/2-y,1/2+z
loop_
_atom_site_type_symbol
_atom_site_label
_atom_site_fract_x
_atom_site_fract_y
_atom_site_fract_z
Si Si1 0.828057 0.165560 0.663899
Si Si2 0.792080 0.942923 0.344893
Si Si3 0.373889 0.877955 0.388704
Si Si4 0.426200 0.989170 0.923030
Si Si5 0.239826 0.284881 0.868507
Si Si6 0.376769 0.475356 0.564426
Si Si7 0.551561 0.640014 0.350397
O O1 0.837788 0.121598 0.779992
O O2 0.722638 0.138936 0.651387
O O3 0.803627 0.234707 0.700881
O O4 0.943464 0.160097 0.505339
O O5 0.852573 0.973366 0.426745
O O6 0.665017 0.941171 0.477480
O O7 0.801074 0.983572 0.208678
O O8 0.500000 0.865399 0.250000
O O9 0.370915 0.947562 0.423270
O O10 0.341857 0.839085 0.538721
O O11 0.500000 0.970715 0.750000
O O12 0.500000 0.000000 0.000000
O O13 0.361040 0.308986 0.746256
O O14 0.250000 0.250000 0.000000
O O15 0.500000 0.500000 0.500000
O O16 0.379359 0.409386 0.619259
O O17 0.500000 0.614793 0.250000
#
# Coordination Sequence:
#
# PCOD9271966 Si02
#       7
#     8   8   8   8   8   8   8
#     4  11  24  38  64  97 130 177 213 284 333 392
#     4  12  24  44  65 100 139 173 222 277 336 409
#     4  10  20  36  62  94 128 166 221 273 323 386
#     4  11  23  41  63  94 131 175 214 264 324 397
#     4  10  22  36  61  96 126 171 218 278 325 384
#     4  12  25  40  69  99 136 172 218 277 352 397
#     4  12  22  40  64  99 135 167 230 278 340 397
#
# _framework density 20.336141000000001
#
# number of rings (size 3 to 8) (size 9 to 14) (size 15 to 20)
#    0.000    0.857    4.286    5.571    4.000    0.000 
#    0.000    0.714    0.000    0.000    0.000    0.000 
#    0.000    0.000    0.000    0.000    0.000    0.000 
#
# Total GULP energy -156411.195384 kJ/mol
# GULP energy per Si atom -5586.114121 kJ/mol
# Density = 2.028985 g / cm^3
# Si number density = 20.336141 Si / 1000 Ang^3
#
#
#
# Elastic Constant Matrix: (Units=GPa)
#
#
# Indices 1 2 3 4 5 6 
#
# 1 62.9175 12.8600 45.0700 0.0000 -11.0764 0.0000
# 2 12.8600 75.5437 46.9814 0.0000 -16.1583 0.0000
# 3 45.0700 46.9814 135.2164 0.0000 -24.1540 0.0000
# 4 0.0000 0.0000 0.0000 38.0084 0.0000 -5.8895
# 5 -11.0764 -16.1583 -24.1540 0.0000 45.1365 0.0000
# 6 0.0000 0.0000 0.0000 -5.8895 0.0000 29.0464
#
#
#
# Elastic Compliance Matrix: (Units=1/GPa)
#
#
# Indices 1 2 3 4 5 6 
#
# 1 0.021064 0.001231 -0.007128 0.000000 0.001795 0.000000
# 2 0.001231 0.017390 -0.005845 0.000000 0.003400 0.000000
# 3 -0.007128 -0.005845 0.012291 0.000000 0.002736 0.000000
# 4 0.000000 0.000000 0.000000 0.027163 0.000000 0.005508
# 5 0.001795 0.003400 0.002736 0.000000 0.025277 0.000000
# 6 0.000000 0.000000 0.000000 0.005508 0.000000 0.035544
#
#
# Mechanical properties :
#
#
# Convention : Reuss Voigt Hill
#
# Bulk Modulus (GPa) = 36.68231 53.72229 45.20230
# Shear Modulus (GPa) = 29.18821 33.68933 31.43877
#
# Velocity S-wave (km/s) = 3.79263 4.07458 3.93613
# Velocity P-wave (km/s) = 6.10376 6.97214 6.55235
#
# Compressibility (1/GPa) = 0.02726110
#
# Stress axis : x y z
#
# Youngs Moduli (GPa) = 47.47334 57.50353 81.35905
#
# Poissons Ratio (x) = -0.07080 0.57995
# Poissons Ratio (y) = -0.05845 0.47558
# Poissons Ratio (z) = 0.33840 0.33613
#
# Static dielectric constant tensor:
#      x y z
#    x 1.774860 0.000000 0.019250 
#    y 0.000000 1.810590 0.000000 
#    z 0.019250 0.000000 1.737780 
# 
# From -- ./inp_files/42544.got.cif
#   From: 2010.05.17/outbox.cif.g08.bks.cpg/sg15_22_cif.got.tgz:42544.got - 2010.06.03 18:47:42.
