data_PCOD9271716
_publ_section_title
;
Structure prediction by ZEFSAII (Michael W. Deem and Ramdas Pophale) SiO2 
 PCOD9271716
Probable space group: C 2/C
;
_chemical_formula_sum "Si O2"
_cell_formula_units_Z 48
_cell_length_a 12.984513
_cell_length_b 19.468388
_cell_length_c 9.271570
_cell_angle_alpha 90.000000
_cell_angle_beta 98.932658
_cell_angle_gamma 90.000000
_cell_volume 2315.311378
_symmetry_space_group_name_H-M "C 2/C"
_symmetry_group_IT_number 15
_symmetry_cell_setting 'monoclinic'
loop_
_space_group_symop_operation_xyz
x,y,z
-x,y,1/2-z
-x,-y,-z
x,-y,1/2+z
1/2+x,1/2+y,z
1/2-x,1/2+y,1/2-z
1/2-x,1/2-y,-z
1/2+x,1/2-y,1/2+z
loop_
_atom_site_type_symbol
_atom_site_label
_atom_site_fract_x
_atom_site_fract_y
_atom_site_fract_z
Si Si1 0.000000 0.508135 0.250000
Si Si2 0.899287 0.380334 0.363947
Si Si3 0.284912 0.329336 0.650731
Si Si4 0.787056 0.578849 0.106699
Si Si5 0.000000 0.974587 0.250000
Si Si6 0.636264 0.450429 0.023833
Si Si7 0.602916 0.799708 0.415553
O O1 0.044043 0.454390 0.140063
O O2 0.098511 0.554548 0.314369
O O3 0.807131 0.387535 0.455996
O O4 0.865649 0.356968 0.197338
O O5 0.986154 0.323838 0.427303
O O6 0.266732 0.368235 0.796084
O O7 0.311284 0.385782 0.537119
O O8 0.374020 0.271742 0.660629
O O9 0.175465 0.298165 0.571445
O O10 0.716811 0.511196 0.077413
O O11 0.062026 0.020784 0.379443
O O12 0.076132 0.933779 0.159224
#
# Coordination Sequence:
#
# PCOD9271716 Si02
#       7
#     4   8   8   8   4   8   8
#     4  10  20  36  61 101 128 158 186 256 326 376
#     4  10  21  39  61  88 124 157 205 248 306 372
#     4  11  22  39  62  85 125 162 202 248 301 367
#     4  12  22  36  67  98 124 154 200 260 316 369
#     4  10  24  40  59  87 126 158 212 240 316 354
#     4  11  22  42  61  94 121 164 200 263 306 367
#     4   9  22  41  57  83 120 169 202 244 298 361
#
# _framework density 20.731553000000002
#
# number of rings (size 3 to 8) (size 9 to 14) (size 15 to 20)
#    0.000    1.667    1.667    4.500    2.333    2.000 
#    0.000    3.333    0.000    0.000    0.000    0.000 
#    0.000    0.000    0.000    0.000    0.000    0.000 
#
# Total GULP energy -133932.461724 kJ/mol
# GULP energy per Si atom -5580.519238 kJ/mol
# Density = 2.068437 g / cm^3
# Si number density = 20.731553 Si / 1000 Ang^3
#
#
#
# Elastic Constant Matrix: (Units=GPa)
#
#
# Indices 1 2 3 4 5 6 
#
# 1 36.6918 -9.3792 15.1682 0.0000 -10.4556 0.0000
# 2 -9.3792 54.9049 7.2601 0.0000 -15.9323 0.0000
# 3 15.1682 7.2601 73.9192 0.0000 -34.0846 0.0000
# 4 0.0000 0.0000 0.0000 27.5726 0.0000 13.0505
# 5 -10.4556 -15.9323 -34.0846 0.0000 56.1378 0.0000
# 6 0.0000 0.0000 0.0000 13.0505 0.0000 20.7997
#
#
#
# Elastic Compliance Matrix: (Units=1/GPa)
#
#
# Indices 1 2 3 4 5 6 
#
# 1 0.032847 0.007806 -0.005089 0.000000 0.005243 0.000000
# 2 0.007806 0.021746 -0.000307 0.000000 0.007439 0.000000
# 3 -0.005089 -0.000307 0.019618 0.000000 0.010876 0.000000
# 4 0.000000 0.000000 0.000000 0.051588 0.000000 -0.032368
# 5 0.005243 0.007439 0.010876 0.000000 0.027504 0.000000
# 6 0.000000 0.000000 0.000000 -0.032368 0.000000 0.068387
#
#
# Mechanical properties :
#
#
# Convention : Reuss Voigt Hill
#
# Bulk Modulus (GPa) = 12.65368 21.29047 16.97207
# Shear Modulus (GPa) = 20.55787 31.06646 25.81216
#
# Velocity S-wave (km/s) = 3.15242 3.87526 3.53238
# Velocity P-wave (km/s) = 4.40081 5.50594 4.98410
#
# Compressibility (1/GPa) = 0.07902841
#
# Stress axis : x y z
#
# Youngs Moduli (GPa) = 30.44400 45.98563 50.97416
#
# Poissons Ratio (x) = -0.35894 0.25942
# Poissons Ratio (y) = -0.23763 0.01567
# Poissons Ratio (z) = 0.15494 0.01414
#
# Static dielectric constant tensor:
#      x y z
#    x 1.788780 0.000000 0.022520 
#    y 0.000000 1.728160 0.000000 
#    z 0.022520 0.000000 1.756130 
# 
# From -- ./inp_files/40307.got.cif
#   From: 2010.05.17/outbox.cif.g08.bks.cpg/sg15_21_cif.got.tgz:40307.got - 2010.06.03 18:47:42.
