data_PCOD9271516
_publ_section_title
;
Structure prediction by ZEFSAII (Michael W. Deem and Ramdas Pophale) SiO2 
 PCOD9271516
Probable space group: C 2/C
;
_chemical_formula_sum "Si O2"
_cell_formula_units_Z 48
_cell_length_a 22.025933
_cell_length_b 15.199338
_cell_length_c 10.298263
_cell_angle_alpha 90.000000
_cell_angle_beta 145.112302
_cell_angle_gamma 90.000000
_cell_volume 1971.950630
_symmetry_space_group_name_H-M "C 2/C"
_symmetry_group_IT_number 15
_symmetry_cell_setting 'monoclinic'
loop_
_space_group_symop_operation_xyz
x,y,z
-x,y,1/2-z
-x,-y,-z
x,-y,1/2+z
1/2+x,1/2+y,z
1/2-x,1/2+y,1/2-z
1/2-x,1/2-y,-z
1/2+x,1/2-y,1/2+z
loop_
_atom_site_type_symbol
_atom_site_label
_atom_site_fract_x
_atom_site_fract_y
_atom_site_fract_z
Si Si1 0.621409 0.875040 0.502045
Si Si2 0.655364 0.537190 0.852981
Si Si3 0.381553 0.026397 0.824744
Si Si4 0.860392 0.892898 0.876691
Si Si5 0.597557 0.802794 0.014916
Si Si6 0.690677 0.709727 0.774722
O O1 0.500000 0.871807 0.250000
O O2 0.736990 0.864107 0.639128
O O3 0.624767 0.791645 0.605970
O O4 0.634366 0.977342 0.566776
O O5 0.608759 0.455158 0.689636
O O6 0.634686 0.622793 0.728903
O O7 0.782521 0.515931 0.075855
O O8 0.629703 0.560401 0.960891
O O9 0.389456 0.131014 0.842902
O O10 0.500000 0.000000 0.000000
O O11 0.919726 0.799575 0.984468
O O12 0.712493 0.813829 0.150070
O O13 0.500000 0.830623 0.750000
O O14 0.750000 0.750000 0.000000
#
# Coordination Sequence:
#
# PCOD9271516 Si02
#       6
#     8   8   8   8   8   8
#     4  10  20  36  59  96 128 166 221 276 336 402
#     4  11  21  41  64  91 129 173 229 267 338 399
#     4  11  21  34  62  94 130 163 210 280 352 404
#     4  10  23  41  64  91 129 176 221 282 331 403
#     4  11  23  39  64  95 132 173 221 277 342 406
#     4  11  19  39  67  90 129 181 222 271 340 399
#
# _framework density 24.341380999999998
#
# number of rings (size 3 to 8) (size 9 to 14) (size 15 to 20)
#    0.000    1.333    5.000    4.500    0.000    0.667 
#    0.000    3.333    0.000    0.000    0.000    0.000 
#    0.000    0.000    0.000    0.000    0.000    0.000 
#
# Total GULP energy -133732.028929 kJ/mol
# GULP energy per Si atom -5572.167872 kJ/mol
# Density = 2.428598 g / cm^3
# Si number density = 24.341381 Si / 1000 Ang^3
#
#
#
# Elastic Constant Matrix: (Units=GPa)
#
#
# Indices 1 2 3 4 5 6 
#
# 1 63.2325 29.5151 38.2250 0.0000 7.7169 0.0000
# 2 29.5151 154.9987 54.9235 0.0000 -13.9735 0.0000
# 3 38.2250 54.9235 73.1587 0.0000 -3.5806 0.0000
# 4 0.0000 0.0000 0.0000 50.5630 0.0000 -8.3203
# 5 7.7169 -13.9735 -3.5806 0.0000 28.8732 0.0000
# 6 0.0000 0.0000 0.0000 -8.3203 0.0000 32.5419
#
#
#
# Elastic Compliance Matrix: (Units=1/GPa)
#
#
# Indices 1 2 3 4 5 6 
#
# 1 0.025085 -0.001053 -0.012747 0.000000 -0.008795 0.000000
# 2 -0.001053 0.009191 -0.006156 0.000000 0.003966 0.000000
# 3 -0.012747 -0.006156 0.025124 0.000000 0.003543 0.000000
# 4 0.000000 0.000000 0.000000 0.020646 0.000000 0.005279
# 5 -0.008795 0.003966 0.003543 0.000000 0.039344 0.000000
# 6 0.000000 0.000000 0.000000 0.005279 0.000000 0.032079
#
#
# Mechanical properties :
#
#
# Convention : Reuss Voigt Hill
#
# Bulk Modulus (GPa) = 51.31112 59.63524 55.47318
# Shear Modulus (GPa) = 25.26830 33.64402 29.45616
#
# Velocity S-wave (km/s) = 3.22542 3.72179 3.48246
# Velocity P-wave (km/s) = 5.91580 6.55909 6.24573
#
# Compressibility (1/GPa) = 0.01948895
#
# Stress axis : x y z
#
# Youngs Moduli (GPa) = 39.86447 108.80164 39.80256
#
# Poissons Ratio (x) = 0.11454 0.50736
# Poissons Ratio (y) = 0.04197 0.24502
# Poissons Ratio (z) = 0.50815 0.66978
#
# Static dielectric constant tensor:
#      x y z
#    x 2.036590 0.000000 -0.040440 
#    y 0.000000 1.899840 0.000000 
#    z -0.040440 0.000000 1.975900 
# 
# From -- ./inp_files/123575.got.cif
#   From: 2010.05.17/outbox.cif.g08.bks.cpg/sg15_62_cif.got.tgz:123575.got - 2010.06.03 18:47:42.
