data_PCOD9271352
_publ_section_title
;
Structure prediction by ZEFSAII (Michael W. Deem and Ramdas Pophale) SiO2 
 PCOD9271352
Probable space group: C 2/C
;
_chemical_formula_sum "Si O2"
_cell_formula_units_Z 52
_cell_length_a 22.024011
_cell_length_b 6.198255
_cell_length_c 18.542318
_cell_angle_alpha 90.000000
_cell_angle_beta 125.169978
_cell_angle_gamma 90.000000
_cell_volume 2069.137692
_symmetry_space_group_name_H-M "C 2/C"
_symmetry_group_IT_number 15
_symmetry_cell_setting 'monoclinic'
loop_
_space_group_symop_operation_xyz
x,y,z
-x,y,1/2-z
-x,-y,-z
x,-y,1/2+z
1/2+x,1/2+y,z
1/2-x,1/2+y,1/2-z
1/2-x,1/2-y,-z
1/2+x,1/2-y,1/2+z
loop_
_atom_site_type_symbol
_atom_site_label
_atom_site_fract_x
_atom_site_fract_y
_atom_site_fract_z
Si Si1 0.209138 0.668208 0.317550
Si Si2 0.356752 0.127381 0.855545
Si Si3 0.871065 0.737662 0.461860
Si Si4 0.959858 0.891461 0.097387
Si Si5 0.000000 0.219095 0.250000
Si Si6 0.887522 0.921866 0.334301
Si Si7 0.365199 0.999026 0.599899
O O1 0.287573 0.769582 0.351397
O O2 0.176084 0.500848 0.235783
O O3 0.199621 0.570889 0.390077
O O4 0.153548 0.871416 0.268022
O O5 0.401793 0.328578 0.857101
O O6 0.399102 0.982646 0.943274
O O7 0.839024 0.649938 0.515358
O O8 0.919487 0.943407 0.516385
O O9 0.834138 0.835458 0.363504
O O10 0.906667 0.711683 0.095337
O O11 0.993223 0.052653 0.179919
O O12 0.034319 0.798053 0.112453
O O13 0.071812 0.372924 0.310701
#
# Coordination Sequence:
#
# PCOD9271352 Si02
#       7
#     8   8   8   8   4   8   8
#     4  11  23  41  67  92 120 169 220 267 314 374
#     4  11  23  44  65  94 124 167 222 264 313 378
#     4  10  25  41  62  98 131 171 208 259 327 378
#     4  11  22  39  63  96 129 171 208 261 326 378
#     4  10  20  36  58  94 126 164 212 258 328 374
#     4  11  22  40  66  92 127 169 216 266 307 385
#     4  11  23  41  62  94 133 164 208 267 321 386
#
# _framework density 25.131243999999999
#
# number of rings (size 3 to 8) (size 9 to 14) (size 15 to 20)
#    0.000    1.231    1.538    4.615    0.000    6.769 
#    0.000    1.538    0.000    0.000    0.000    0.000 
#    0.000    0.000    0.000    0.000    0.000    0.000 
#
# Total GULP energy -145063.399715 kJ/mol
# GULP energy per Si atom -5579.361528 kJ/mol
# Density = 2.507404 g / cm^3
# Si number density = 25.131244 Si / 1000 Ang^3
#
#
#
# Elastic Constant Matrix: (Units=GPa)
#
#
# Indices 1 2 3 4 5 6 
#
# 1 93.7063 20.4006 13.7416 0.0000 -18.4985 -0.0001
# 2 20.4006 84.9868 23.9339 -0.0001 -9.3123 -0.0002
# 3 13.7416 23.9339 84.0696 0.0000 -19.7340 -0.0001
# 4 0.0000 -0.0001 0.0000 58.3948 0.0000 -1.2083
# 5 -18.4985 -9.3123 -19.7340 0.0000 20.7384 0.0000
# 6 -0.0001 -0.0002 -0.0001 -1.2083 0.0000 32.8900
#
#
#
# Elastic Compliance Matrix: (Units=1/GPa)
#
#
# Indices 1 2 3 4 5 6 
#
# 1 0.013370 -0.002245 0.001309 0.000000 0.012163 0.000000
# 2 -0.002245 0.013309 -0.003205 0.000000 0.000924 0.000000
# 3 0.001309 -0.003205 0.016133 0.000000 0.015080 0.000000
# 4 0.000000 0.000000 0.000000 0.017138 0.000000 0.000630
# 5 0.012163 0.000924 0.015080 0.000000 0.073833 0.000000
# 6 0.000000 0.000000 0.000000 0.000630 0.000000 0.030427
#
#
# Mechanical properties :
#
#
# Convention : Reuss Voigt Hill
#
# Bulk Modulus (GPa) = 28.96109 42.10168 35.53139
# Shear Modulus (GPa) = 27.17339 36.05041 31.61190
#
# Velocity S-wave (km/s) = 3.29182 3.79157 3.55050
# Velocity P-wave (km/s) = 5.09873 5.99642 5.56570
#
# Compressibility (1/GPa) = 0.03452908
#
# Stress axis : x y z
#
# Youngs Moduli (GPa) = 74.79684 75.13520 61.98368
#
# Poissons Ratio (x) = 0.16869 -0.08113
# Poissons Ratio (y) = 0.16793 0.19867
# Poissons Ratio (z) = -0.09790 0.24083
#
# Static dielectric constant tensor:
#      x y z
#    x 2.001310 0.000000 -0.044640 
#    y 0.000000 2.090800 0.000000 
#    z -0.044640 0.000000 1.995480 
# 
# From -- ./inp_files/221354.got.cif
#   From: 2010.05.17/outbox.cif.g08.bks.cpg/sg15_111_cif.got.tgz:221354.got - 2010.06.03 18:47:42.
