data_PCOD9271887
_publ_section_title
;
Structure prediction by ZEFSAII (Michael W. Deem and Ramdas Pophale) SiO2 
 PCOD9271887
Probable space group: C 2/C
;
_chemical_formula_sum "Si O2"
_cell_formula_units_Z 48
_cell_length_a 7.704336
_cell_length_b 20.867876
_cell_length_c 19.827888
_cell_angle_alpha 90.000000
_cell_angle_beta 138.776018
_cell_angle_gamma 90.000000
_cell_volume 2100.768477
_symmetry_space_group_name_H-M "C 2/C"
_symmetry_group_IT_number 15
_symmetry_cell_setting 'monoclinic'
loop_
_space_group_symop_operation_xyz
x,y,z
-x,y,1/2-z
-x,-y,-z
x,-y,1/2+z
1/2+x,1/2+y,z
1/2-x,1/2+y,1/2-z
1/2-x,1/2-y,-z
1/2+x,1/2-y,1/2+z
loop_
_atom_site_type_symbol
_atom_site_label
_atom_site_fract_x
_atom_site_fract_y
_atom_site_fract_z
Si Si1 0.812881 0.971529 0.526755
Si Si2 0.235927 0.932920 0.130867
Si Si3 0.177856 0.800071 0.160613
Si Si4 0.428761 0.908679 0.923368
Si Si5 0.294686 0.207682 0.448381
Si Si6 0.183527 0.322057 0.741168
O O1 0.742040 0.924107 0.443893
O O2 0.788064 0.946880 0.595648
O O3 0.632465 0.035061 0.467293
O O4 0.100983 0.998618 0.599334
O O5 0.500000 0.936734 0.250000
O O6 0.087547 0.872548 0.122073
O O7 0.500000 0.802631 0.250000
O O8 0.096720 0.758544 0.073092
O O9 0.110706 0.752363 0.201799
O O10 0.487645 0.852857 0.996183
O O11 0.361331 0.868893 0.836220
O O12 0.250000 0.250000 0.500000
O O13 0.998777 0.181534 0.345362
O O14 0.000000 0.341962 0.750000
#
# Coordination Sequence:
#
# PCOD9271887 Si02
#       6
#     8   8   8   8   8   8
#     4  10  23  40  61  92 126 166 213 258 310 380
#     4  10  21  39  64  91 124 164 206 258 317 380
#     4   8  17  36  56  81 115 150 191 239 303 368
#     4  10  22  41  59  84 127 167 208 259 311 371
#     4  10  20  36  62  89 119 156 197 257 320 374
#     4  10  22  38  62  92 120 160 210 262 316 375
#
# _framework density 22.848780000000001
#
# number of rings (size 3 to 8) (size 9 to 14) (size 15 to 20)
#    0.000    2.333    0.000    2.500    0.000    8.667 
#    0.000    9.167    0.000    0.000    0.000    0.000 
#    0.000    0.000    0.000    0.000    0.000    0.000 
#
# Total GULP energy -133636.128163 kJ/mol
# GULP energy per Si atom -5568.172007 kJ/mol
# Density = 2.279678 g / cm^3
# Si number density = 22.848780 Si / 1000 Ang^3
#
#
#
# Elastic Constant Matrix: (Units=GPa)
#
#
# Indices 1 2 3 4 5 6 
#
# 1 117.6497 29.5608 41.4621 -0.0002 -30.3577 0.0001
# 2 29.5608 109.5684 44.4301 0.0000 -9.9142 0.0000
# 3 41.4621 44.4301 44.4552 0.0002 -16.3064 0.0001
# 4 -0.0002 0.0000 0.0002 69.4107 -0.0001 -9.5376
# 5 -30.3577 -9.9142 -16.3064 -0.0001 21.0260 0.0001
# 6 0.0001 0.0000 0.0001 -9.5376 0.0001 35.4071
#
#
#
# Elastic Compliance Matrix: (Units=1/GPa)
#
#
# Indices 1 2 3 4 5 6 
#
# 1 0.015810 0.001380 -0.010500 0.000000 0.015335 0.000000
# 2 0.001380 0.016132 -0.019411 0.000000 -0.005455 0.000000
# 3 -0.010500 -0.019411 0.059773 0.000000 0.022043 0.000000
# 4 0.000000 0.000000 0.000000 0.014961 0.000000 0.004030
# 5 0.015335 -0.005455 0.022043 0.000000 0.084224 0.000000
# 6 0.000000 0.000000 0.000000 0.004030 0.000000 0.029328
#
#
# Mechanical properties :
#
#
# Convention : Reuss Voigt Hill
#
# Bulk Modulus (GPa) = 28.85708 55.84212 42.34960
# Shear Modulus (GPa) = 17.31054 35.58347 26.44700
#
# Velocity S-wave (km/s) = 2.75546 3.95060 3.40587
# Velocity P-wave (km/s) = 4.77289 6.73072 5.83451
#
# Compressibility (1/GPa) = 0.03465354
#
# Stress axis : x y z
#
# Youngs Moduli (GPa) = 63.24914 61.98910 16.73000
#
# Poissons Ratio (x) = -0.08553 0.17567
# Poissons Ratio (y) = -0.08727 0.32474
# Poissons Ratio (z) = 0.66412 1.20324
#
# Static dielectric constant tensor:
#      x y z
#    x 1.908870 0.000000 -0.014660 
#    y 0.000000 1.971050 0.000000 
#    z -0.014660 0.000000 1.957750 
# 
# From -- ./inp_files/233965.got.cif
#   From: 2010.05.17/outbox.cif.g08.bks.cpg/sg15_117_cif.got.tgz:233965.got - 2010.06.03 18:47:42.
