data_PCOD9271958
_publ_section_title
;
Structure prediction by ZEFSAII (Michael W. Deem and Ramdas Pophale) SiO2 
 PCOD9271958
Probable space group: C 2/C
;
_chemical_formula_sum "Si O2"
_cell_formula_units_Z 64
_cell_length_a 13.970036
_cell_length_b 14.042369
_cell_length_c 24.690370
_cell_angle_alpha 90.000000
_cell_angle_beta 31.270332
_cell_angle_gamma 90.000000
_cell_volume 2514.183406
_symmetry_space_group_name_H-M "C 2/C"
_symmetry_group_IT_number 15
_symmetry_cell_setting 'monoclinic'
loop_
_space_group_symop_operation_xyz
x,y,z
-x,y,1/2-z
-x,-y,-z
x,-y,1/2+z
1/2+x,1/2+y,z
1/2-x,1/2+y,1/2-z
1/2-x,1/2-y,-z
1/2+x,1/2-y,1/2+z
loop_
_atom_site_type_symbol
_atom_site_label
_atom_site_fract_x
_atom_site_fract_y
_atom_site_fract_z
Si Si1 0.164463 0.076306 0.427936
Si Si2 0.179035 0.519373 0.550417
Si Si3 0.251782 0.776755 0.276878
Si Si4 0.509799 0.217199 0.480987
Si Si5 0.827619 0.724174 0.904147
Si Si6 0.166269 0.176804 0.701090
Si Si7 0.505773 0.526516 0.185701
Si Si8 0.225579 0.500625 0.233659
O O1 0.086882 0.181590 0.461350
O O2 0.246455 0.064607 0.448105
O O3 0.294848 0.051667 0.314092
O O4 0.000000 0.000000 0.500000
O O5 0.191894 0.609858 0.585474
O O6 0.298149 0.532138 0.438917
O O7 0.965109 0.508060 0.642227
O O8 0.088442 0.716725 0.382651
O O9 0.454855 0.754652 0.202129
O O10 0.244704 0.771023 0.215834
O O11 0.219283 0.890041 0.305060
O O12 0.695384 0.222469 0.426674
O O13 0.343962 0.148627 0.578783
O O14 0.750000 0.750000 0.000000
O O15 0.063750 0.082109 0.772134
O O16 0.000000 0.229107 0.750000
O O17 0.500000 0.565968 0.250000
O O18 0.368633 0.556092 0.202982
#
# Coordination Sequence:
#
# PCOD9271958 Si02
#       8
#     8   8   8   8   8   8   8   8
#     4  12  19  36  62  97 130 154 202 269 325 389
#     4  11  22  38  67  95 125 166 207 266 326 381
#     4  10  20  38  62  88 121 163 206 255 325 387
#     4  12  22  37  64  93 128 169 205 262 328 380
#     4  11  21  38  65  95 130 158 200 263 332 393
#     4  10  23  41  60  85 122 172 218 259 309 375
#     4  10  21  42  63  83 122 171 219 260 302 373
#     4  10  20  36  62  94 119 158 207 260 325 381
#
# _framework density 25.455580999999999
#
# number of rings (size 3 to 8) (size 9 to 14) (size 15 to 20)
#    0.000    1.250    5.000    1.500    0.000    4.000 
#    0.000    3.750    0.000    0.000    0.000    0.000 
#    0.000    0.000    0.000    0.000    0.000    0.000 
#
# Total GULP energy -179056.850260 kJ/mol
# GULP energy per Si atom -5595.526571 kJ/mol
# Density = 2.539764 g / cm^3
# Si number density = 25.455581 Si / 1000 Ang^3
#
#
#
# Elastic Constant Matrix: (Units=GPa)
#
#
# Indices 1 2 3 4 5 6 
#
# 1 104.5523 7.0560 35.3153 -0.0001 3.4009 0.0002
# 2 7.0560 54.1041 8.0716 -0.0007 -1.6587 0.0002
# 3 35.3153 8.0716 206.9226 -0.0024 -1.0448 0.0005
# 4 -0.0001 -0.0007 -0.0024 33.4052 0.0005 1.0426
# 5 3.4009 -1.6587 -1.0448 0.0005 41.0170 -0.0001
# 6 0.0002 0.0002 0.0005 1.0426 -0.0001 20.4285
#
#
#
# Elastic Compliance Matrix: (Units=1/GPa)
#
#
# Indices 1 2 3 4 5 6 
#
# 1 0.010248 -0.001110 -0.001710 0.000000 -0.000938 0.000000
# 2 -0.001110 0.018733 -0.000537 0.000000 0.000836 0.000000
# 3 -0.001710 -0.000537 0.005147 0.000000 0.000251 0.000000
# 4 0.000000 0.000000 0.000000 0.029983 0.000000 -0.001530
# 5 -0.000938 0.000836 0.000251 0.000000 0.024498 0.000000
# 6 0.000000 0.000000 0.000000 -0.001530 0.000000 0.049029
#
#
# Mechanical properties :
#
#
# Convention : Reuss Voigt Hill
#
# Bulk Modulus (GPa) = 36.47912 51.82941 44.15426
# Shear Modulus (GPa) = 32.57513 39.97923 36.27718
#
# Velocity S-wave (km/s) = 3.58115 3.96731 3.77917
# Velocity P-wave (km/s) = 5.60902 6.43359 6.03540
#
# Compressibility (1/GPa) = 0.02741294
#
# Stress axis : x y z
#
# Youngs Moduli (GPa) = 97.58232 53.38061 194.29335
#
# Poissons Ratio (x) = 0.05926 0.33232
# Poissons Ratio (y) = 0.10832 0.10435
# Poissons Ratio (z) = 0.16691 0.02867
#
# Static dielectric constant tensor:
#      x y z
#    x 2.028940 0.000000 -0.019290 
#    y 0.000000 2.138240 0.000000 
#    z -0.019290 0.000000 2.029740 
# 
# From -- ./inp_files/274817.got.cif
#   From: 2010.05.17/outbox.cif.g08.bks.cpg/sg15_138_cif.got.tgz:274817.got - 2010.06.03 18:47:42.
