data_PCOD9271707
_publ_section_title
;
Structure prediction by ZEFSAII (Michael W. Deem and Ramdas Pophale) SiO2 
 PCOD9271707
Probable space group: C 2/C
;
_chemical_formula_sum "Si O2"
_cell_formula_units_Z 48
_cell_length_a 14.610797
_cell_length_b 30.675665
_cell_length_c 8.030761
_cell_angle_alpha 90.000000
_cell_angle_beta 37.751724
_cell_angle_gamma 90.000000
_cell_volume 2203.672512
_symmetry_space_group_name_H-M "C 2/C"
_symmetry_group_IT_number 15
_symmetry_cell_setting 'monoclinic'
loop_
_space_group_symop_operation_xyz
x,y,z
-x,y,1/2-z
-x,-y,-z
x,-y,1/2+z
1/2+x,1/2+y,z
1/2-x,1/2+y,1/2-z
1/2-x,1/2-y,-z
1/2+x,1/2-y,1/2+z
loop_
_atom_site_type_symbol
_atom_site_label
_atom_site_fract_x
_atom_site_fract_y
_atom_site_fract_z
Si Si1 0.679806 0.889255 0.521622
Si Si2 0.685595 0.355645 0.828434
Si Si3 0.335648 0.235077 0.042478
Si Si4 0.902412 0.827502 0.059554
Si Si5 0.330213 0.065988 0.950355
Si Si6 0.162610 0.522608 0.925713
O O1 0.500000 0.888728 0.750000
O O2 0.735530 0.874599 0.621172
O O3 0.756212 0.857228 0.278441
O O4 0.739650 0.938435 0.414134
O O5 0.753055 0.307302 0.723260
O O6 0.732327 0.391101 0.619877
O O7 0.510625 0.345980 0.048028
O O8 0.500000 0.221674 0.750000
O O9 0.250000 0.250000 0.000000
O O10 0.353947 0.276775 0.137529
O O11 0.000000 0.830100 0.750000
O O12 0.500000 0.078647 0.750000
O O13 0.338920 0.042891 0.756765
O O14 0.277355 0.026253 0.146655
O O15 0.000000 0.518973 0.250000
#
# Coordination Sequence:
#
# PCOD9271707 Si02
#       6
#     8   8   8   8   8   8
#     4  11  25  42  67 100 138 179 232 280 334 404
#     4  12  24  41  67  97 132 182 223 281 347 406
#     4  11  23  41  67  97 136 176 229 276 342 407
#     4  11  24  45  66  96 135 176 223 281 344 401
#     4  11  20  36  64  96 135 179 228 275 339 399
#     4  10  20  36  60  96 138 173 226 284 328 398
#
# _framework density 21.781821999999998
#
# number of rings (size 3 to 8) (size 9 to 14) (size 15 to 20)
#    0.000    1.000    3.333    7.000    2.333    0.667 
#    0.000    0.833    0.000    0.000    0.000    0.000 
#    0.000    0.000    0.000    0.000    0.000    0.000 
#
# Total GULP energy -133899.376688 kJ/mol
# GULP energy per Si atom -5579.140695 kJ/mol
# Density = 2.173225 g / cm^3
# Si number density = 21.781822 Si / 1000 Ang^3
#
#
#
# Elastic Constant Matrix: (Units=GPa)
#
#
# Indices 1 2 3 4 5 6 
#
# 1 122.4326 28.9454 17.0594 0.0000 6.3921 0.0000
# 2 28.9454 156.4769 32.6023 0.0000 -3.9185 0.0000
# 3 17.0594 32.6023 56.4243 0.0000 -7.1063 0.0000
# 4 0.0000 0.0000 0.0000 42.3244 0.0000 8.2435
# 5 6.3921 -3.9185 -7.1063 0.0000 41.6572 0.0000
# 6 0.0000 0.0000 0.0000 8.2435 0.0000 40.9186
#
#
#
# Elastic Compliance Matrix: (Units=1/GPa)
#
#
# Indices 1 2 3 4 5 6 
#
# 1 0.008861 -0.001226 -0.002204 0.000000 -0.001851 0.000000
# 2 -0.001226 0.007435 -0.003897 0.000000 0.000223 0.000000
# 3 -0.002204 -0.003897 0.021090 0.000000 0.003569 0.000000
# 4 0.000000 0.000000 0.000000 0.024592 0.000000 -0.004954
# 5 -0.001851 0.000223 0.003569 0.000000 0.024919 0.000000
# 6 0.000000 0.000000 0.000000 -0.004954 0.000000 0.025437
#
#
# Mechanical properties :
#
#
# Convention : Reuss Voigt Hill
#
# Bulk Modulus (GPa) = 43.99001 54.72758 49.35880
# Shear Modulus (GPa) = 37.15613 42.09516 39.62564
#
# Velocity S-wave (km/s) = 4.13465 4.40088 4.26984
# Velocity P-wave (km/s) = 6.55998 7.14168 6.85700
#
# Compressibility (1/GPa) = 0.02273243
#
# Stress axis : x y z
#
# Youngs Moduli (GPa) = 112.84899 134.49610 47.41474
#
# Poissons Ratio (x) = 0.16495 0.10449
# Poissons Ratio (y) = 0.13840 0.18479
# Poissons Ratio (z) = 0.24868 0.52416
#
# Static dielectric constant tensor:
#      x y z
#    x 1.847380 0.000000 0.040180 
#    y 0.000000 1.812310 0.000000 
#    z 0.040180 0.000000 1.903910 
# 
# From -- ./inp_files/44407.got.cif
#   From: 2010.05.17/outbox.cif.g08.bks.cpg/sg15_23_cif.got.tgz:44407.got - 2010.06.03 18:47:42.
