data_PCOD9271695
_publ_section_title
;
Structure prediction by ZEFSAII (Michael W. Deem and Ramdas Pophale) SiO2 
 PCOD9271695
Probable space group: C 2/C
;
_chemical_formula_sum "Si O2"
_cell_formula_units_Z 56
_cell_length_a 19.754237
_cell_length_b 8.428597
_cell_length_c 17.693860
_cell_angle_alpha 90.000000
_cell_angle_beta 75.892456
_cell_angle_gamma 90.000000
_cell_volume 2857.183917
_symmetry_space_group_name_H-M "C 2/C"
_symmetry_group_IT_number 15
_symmetry_cell_setting 'monoclinic'
loop_
_space_group_symop_operation_xyz
x,y,z
-x,y,1/2-z
-x,-y,-z
x,-y,1/2+z
1/2+x,1/2+y,z
1/2-x,1/2+y,1/2-z
1/2-x,1/2-y,-z
1/2+x,1/2-y,1/2+z
loop_
_atom_site_type_symbol
_atom_site_label
_atom_site_fract_x
_atom_site_fract_y
_atom_site_fract_z
Si Si1 0.569425 0.507057 0.031186
Si Si2 0.322786 0.272297 0.435259
Si Si3 0.830980 0.544812 0.839320
Si Si4 0.808800 0.630014 0.200617
Si Si5 0.670593 0.542978 0.720000
Si Si6 0.200782 0.789180 0.441379
Si Si7 0.936471 0.824323 0.811712
O O1 0.612769 0.343791 0.034277
O O2 0.546251 0.581758 0.117224
O O3 0.500000 0.500000 0.000000
O O4 0.630531 0.620729 0.982404
O O5 0.250000 0.250000 0.500000
O O6 0.311340 0.398725 0.370203
O O7 0.342624 0.108049 0.388807
O O8 0.842618 0.497138 0.748402
O O9 0.751904 0.600020 0.877318
O O10 0.879803 0.691271 0.846002
O O11 0.727235 0.585884 0.230039
O O12 0.828089 0.799820 0.230527
O O13 0.820225 0.642861 0.107694
O O14 0.597627 0.454517 0.734554
O O15 0.250000 0.750000 0.500000
O O16 0.000000 0.748634 0.750000
#
# Coordination Sequence:
#
# PCOD9271695 Si02
#       7
#     8   8   8   8   8   8   8
#     4  11  25  44  65 100 131 175 224 273 344 405
#     4  10  21  39  67  94 128 171 215 274 333 398
#     4  11  22  41  64  97 128 172 230 272 329 398
#     4  11  21  36  63  96 126 159 219 277 321 389
#     4  10  20  36  60  94 123 163 215 266 324 394
#     4  12  21  40  70  93 134 173 220 282 332 398
#     4  11  24  44  64  86 135 181 216 271 344 403
#
# _framework density 19.599717999999999
#
# number of rings (size 3 to 8) (size 9 to 14) (size 15 to 20)
#    0.000    1.143    5.714    0.857    2.000    0.000 
#    5.143    2.143    0.000    0.000    0.000    0.000 
#    0.000    0.000    0.000    0.000    0.000    0.000 
#
# Total GULP energy -156134.661823 kJ/mol
# GULP energy per Si atom -5576.237922 kJ/mol
# Density = 1.955511 g / cm^3
# Si number density = 19.599718 Si / 1000 Ang^3
#
#
#
# Elastic Constant Matrix: (Units=GPa)
#
#
# Indices 1 2 3 4 5 6 
#
# 1 126.9913 37.8831 42.4200 0.0000 14.0378 0.0000
# 2 37.8831 67.1136 19.3278 0.0000 11.4293 0.0000
# 3 42.4200 19.3278 68.7378 0.0000 2.2634 0.0000
# 4 0.0000 0.0000 0.0000 36.0740 0.0000 3.1187
# 5 14.0378 11.4293 2.2634 0.0000 40.3699 0.0000
# 6 0.0000 0.0000 0.0000 3.1187 0.0000 18.9466
#
#
#
# Elastic Compliance Matrix: (Units=1/GPa)
#
#
# Indices 1 2 3 4 5 6 
#
# 1 0.011340 -0.004354 -0.005695 0.000000 -0.002391 0.000000
# 2 -0.004354 0.018682 -0.002446 0.000000 -0.003638 0.000000
# 3 -0.005695 -0.002446 0.018697 0.000000 0.001625 0.000000
# 4 0.000000 0.000000 0.000000 0.028121 0.000000 -0.004629
# 5 -0.002391 -0.003638 0.001625 0.000000 0.026541 0.000000
# 6 0.000000 0.000000 0.000000 -0.004629 0.000000 0.053542
#
#
# Mechanical properties :
#
#
# Convention : Reuss Voigt Hill
#
# Bulk Modulus (GPa) = 42.14411 51.34495 46.74453
# Shear Modulus (GPa) = 26.34027 29.95889 28.14958
#
# Velocity S-wave (km/s) = 3.66992 3.91389 3.79387
# Velocity P-wave (km/s) = 6.28544 6.83216 6.56449
#
# Compressibility (1/GPa) = 0.02372811
#
# Stress axis : x y z
#
# Youngs Moduli (GPa) = 88.18242 53.52856 53.48394
#
# Poissons Ratio (x) = 0.23304 0.30461
# Poissons Ratio (y) = 0.38391 0.13084
# Poissons Ratio (z) = 0.50223 0.13095
#
# Static dielectric constant tensor:
#      x y z
#    x 1.681510 0.000000 0.042680 
#    y 0.000000 1.709570 0.000000 
#    z 0.042680 0.000000 1.744360 
# 
# From -- ./inp_files/209523.got.cif
#   From: 2010.05.17/outbox.cif.g08.bks.cpg/sg15_105_cif.got.tgz:209523.got - 2010.06.03 18:47:42.
