data_PCOD9271774
_publ_section_title
;
Structure prediction by ZEFSAII (Michael W. Deem and Ramdas Pophale) SiO2 
 PCOD9271774
Probable space group: C 2/C
;
_chemical_formula_sum "Si O2"
_cell_formula_units_Z 60
_cell_length_a 29.961883
_cell_length_b 12.003897
_cell_length_c 8.503698
_cell_angle_alpha 90.000000
_cell_angle_beta 108.924617
_cell_angle_gamma 90.000000
_cell_volume 2893.114246
_symmetry_space_group_name_H-M "C 2/C"
_symmetry_group_IT_number 15
_symmetry_cell_setting 'monoclinic'
loop_
_space_group_symop_operation_xyz
x,y,z
-x,y,1/2-z
-x,-y,-z
x,-y,1/2+z
1/2+x,1/2+y,z
1/2-x,1/2+y,1/2-z
1/2-x,1/2-y,-z
1/2+x,1/2-y,1/2+z
loop_
_atom_site_type_symbol
_atom_site_label
_atom_site_fract_x
_atom_site_fract_y
_atom_site_fract_z
Si Si1 0.500000 0.699959 0.250000
Si Si2 0.791541 0.384832 0.434357
Si Si3 0.095147 0.897913 0.456358
Si Si4 0.442712 0.608356 0.910384
Si Si5 0.192143 0.851854 0.408990
Si Si6 0.348738 0.996982 0.766869
Si Si7 0.638498 0.238297 0.075313
Si Si8 0.905307 0.711181 0.786680
O O1 0.514292 0.627111 0.420131
O O2 0.544500 0.771266 0.241318
O O3 0.795591 0.252150 0.462415
O O4 0.739947 0.419269 0.435987
O O5 0.832226 0.436947 0.589784
O O6 0.804916 0.429663 0.279758
O O7 0.055422 0.899137 0.274795
O O8 0.145965 0.909487 0.428578
O O9 0.095245 0.784681 0.556761
O O10 0.084862 0.000082 0.559155
O O11 0.409212 0.714790 0.901663
O O12 0.178579 0.799265 0.222962
O O13 0.391443 0.083637 0.801425
O O14 0.358266 0.892942 0.891737
O O15 0.632974 0.258322 0.883467
#
# Coordination Sequence:
#
# PCOD9271774 Si02
#       8
#     4   8   8   8   8   8   8   8
#     4  10  24  44  62  94 128 156 216 260 302 386
#     4  10  20  36  61  90 125 161 205 253 298 370
#     4  11  22  39  66  90 126 167 203 253 315 373
#     4  10  22  39  62  92 124 164 202 259 310 363
#     4   9  20  38  58  91 126 161 206 250 297 364
#     4  11  20  38  64  89 121 168 202 253 317 365
#     4   9  20  38  61  86 125 162 204 252 305 372
#     4  11  22  40  65  91 122 165 207 257 321 371
#
# _framework density 20.738897999999999
#
# number of rings (size 3 to 8) (size 9 to 14) (size 15 to 20)
#    0.000    1.867    2.667    1.600    0.000    4.800 
#    0.000    4.667    0.000    0.000    0.000    0.000 
#    0.000    0.000    0.000    0.000    0.000    0.000 
#
# Total GULP energy -167336.261050 kJ/mol
# GULP energy per Si atom -5577.875368 kJ/mol
# Density = 2.069170 g / cm^3
# Si number density = 20.738898 Si / 1000 Ang^3
#
#
#
# Elastic Constant Matrix: (Units=GPa)
#
#
# Indices 1 2 3 4 5 6 
#
# 1 82.1735 28.0503 6.4251 0.0000 6.4862 0.0000
# 2 28.0503 65.0438 18.6820 0.0000 3.6977 0.0000
# 3 6.4251 18.6820 104.6053 0.0000 1.8981 0.0000
# 4 0.0000 0.0000 0.0000 25.6477 0.0000 0.0437
# 5 6.4862 3.6977 1.8981 0.0000 24.0504 0.0000
# 6 0.0000 0.0000 0.0000 0.0437 0.0000 24.1176
#
#
#
# Elastic Compliance Matrix: (Units=1/GPa)
#
#
# Indices 1 2 3 4 5 6 
#
# 1 0.014484 -0.006153 0.000263 0.000000 -0.002981 0.000000
# 2 -0.006153 0.018943 -0.002987 0.000000 -0.001017 0.000000
# 3 0.000263 -0.002987 0.010084 0.000000 -0.000408 0.000000
# 4 0.000000 0.000000 0.000000 0.038990 0.000000 -0.000071
# 5 -0.002981 -0.001017 -0.000408 0.000000 0.042572 0.000000
# 6 0.000000 0.000000 0.000000 -0.000071 0.000000 0.041464
#
#
# Mechanical properties :
#
#
# Convention : Reuss Voigt Hill
#
# Bulk Modulus (GPa) = 38.82021 39.79305 39.30663
# Shear Modulus (GPa) = 25.92337 28.00750 26.96543
#
# Velocity S-wave (km/s) = 3.53935 3.67888 3.60979
# Velocity P-wave (km/s) = 5.95499 6.10531 6.03062
#
# Compressibility (1/GPa) = 0.02575978
#
# Stress axis : x y z
#
# Youngs Moduli (GPa) = 69.04039 52.78926 99.16306
#
# Poissons Ratio (x) = 0.32479 -0.02610
# Poissons Ratio (y) = 0.42477 0.29618
# Poissons Ratio (z) = -0.01817 0.15767
#
# Static dielectric constant tensor:
#      x y z
#    x 1.762640 0.000000 0.001050 
#    y 0.000000 1.729380 0.000000 
#    z 0.001050 0.000000 1.829530 
# 
# From -- ./inp_files/69132.got.cif
#   From: 2010.05.17/outbox.cif.g08.bks.cpg/sg15_35_cif.got.tgz:69132.got - 2010.06.03 18:47:42.
