data_PCOD9271881
_publ_section_title
;
Structure prediction by ZEFSAII (Michael W. Deem and Ramdas Pophale) SiO2 
 PCOD9271881
Probable space group: C 2/C
;
_chemical_formula_sum "Si O2"
_cell_formula_units_Z 48
_cell_length_a 24.259431
_cell_length_b 11.705433
_cell_length_c 13.937308
_cell_angle_alpha 90.000000
_cell_angle_beta 33.994340
_cell_angle_gamma 90.000000
_cell_volume 2212.814614
_symmetry_space_group_name_H-M "C 2/C"
_symmetry_group_IT_number 15
_symmetry_cell_setting 'monoclinic'
loop_
_space_group_symop_operation_xyz
x,y,z
-x,y,1/2-z
-x,-y,-z
x,-y,1/2+z
1/2+x,1/2+y,z
1/2-x,1/2+y,1/2-z
1/2-x,1/2-y,-z
1/2+x,1/2-y,1/2+z
loop_
_atom_site_type_symbol
_atom_site_label
_atom_site_fract_x
_atom_site_fract_y
_atom_site_fract_z
Si Si1 0.124689 0.447942 0.225176
Si Si2 0.720403 0.844769 0.919639
Si Si3 0.740120 0.201109 0.802686
Si Si4 0.109614 0.033425 0.810785
Si Si5 0.209460 0.862392 0.004909
Si Si6 0.086370 0.522411 0.004577
O O1 0.210866 0.539722 0.096377
O O2 0.096999 0.442491 0.376848
O O3 0.027783 0.499704 0.314689
O O4 0.163590 0.343509 0.103647
O O5 0.743861 0.726914 0.832467
O O6 0.818589 0.922737 0.787189
O O7 0.645660 0.910986 0.954461
O O8 0.835262 0.131536 0.704578
O O9 0.712848 0.321946 0.890946
O O10 0.646270 0.124613 0.966114
O O11 0.114428 0.089132 0.696934
O O12 0.000000 0.000000 0.000000
O O13 0.250000 0.750000 0.000000
#
# Coordination Sequence:
#
# PCOD9271881 Si02
#       6
#     8   8   8   8   8   8
#     4  10  20  37  61  83 118 156 192 246 298 347
#     4  10  20  37  60  85 124 150 200 245 296 354
#     4  10  20  36  62  88 121 156 199 251 292 360
#     4   9  20  38  59  87 123 161 196 248 302 354
#     4   9  18  35  60  83 113 156 196 243 289 350
#     4  10  21  37  61  86 117 153 199 245 294 349
#
# _framework density 21.691832000000002
#
# number of rings (size 3 to 8) (size 9 to 14) (size 15 to 20)
#    0.000    2.333    1.667    1.500    0.000    3.333 
#    0.000    5.833    7.333    0.000    0.000    0.000 
#    0.000    0.000    0.000    0.000    0.000    0.000 
#
# Total GULP energy -133737.747252 kJ/mol
# GULP energy per Si atom -5572.406135 kJ/mol
# Density = 2.164246 g / cm^3
# Si number density = 21.691832 Si / 1000 Ang^3
#
#
#
# Elastic Constant Matrix: (Units=GPa)
#
#
# Indices 1 2 3 4 5 6 
#
# 1 65.9893 -0.0893 32.0900 0.0000 4.0364 0.0000
# 2 -0.0893 36.7548 22.4282 0.0000 -8.7749 0.0000
# 3 32.0900 22.4282 151.8949 0.0000 -10.2914 0.0000
# 4 0.0000 0.0000 0.0000 32.6951 0.0000 13.7001
# 5 4.0364 -8.7749 -10.2914 0.0000 39.9333 0.0000
# 6 0.0000 0.0000 0.0000 13.7001 0.0000 19.9369
#
#
#
# Elastic Compliance Matrix: (Units=1/GPa)
#
#
# Indices 1 2 3 4 5 6 
#
# 1 0.017300 0.001983 -0.004108 0.000000 -0.002372 0.000000
# 2 0.001983 0.031378 -0.004680 0.000000 0.005488 0.000000
# 3 -0.004108 -0.004680 0.008245 0.000000 0.001512 0.000000
# 4 0.000000 0.000000 0.000000 0.042954 0.000000 -0.029517
# 5 -0.002372 0.005488 0.001512 0.000000 0.026877 0.000000
# 6 0.000000 0.000000 0.000000 -0.029517 0.000000 0.070441
#
#
# Mechanical properties :
#
#
# Convention : Reuss Voigt Hill
#
# Bulk Modulus (GPa) = 23.08864 40.38852 31.73858
# Shear Modulus (GPa) = 22.19818 31.86042 27.02930
#
# Velocity S-wave (km/s) = 3.20244 3.83662 3.53379
# Velocity P-wave (km/s) = 4.93368 6.18755 5.59585
#
# Compressibility (1/GPa) = 0.04331135
#
# Stress axis : x y z
#
# Youngs Moduli (GPa) = 57.80508 31.86907 121.28705
#
# Poissons Ratio (x) = -0.06319 0.49827
# Poissons Ratio (y) = -0.11461 0.56765
# Poissons Ratio (z) = 0.23748 0.14915
#
# Static dielectric constant tensor:
#      x y z
#    x 1.913260 0.000000 0.106270 
#    y 0.000000 1.775590 0.000000 
#    z 0.106270 0.000000 1.826730 
# 
# From -- ./inp_files/152443.got.cif
#   From: 2010.05.17/outbox.cif.g08.bks.cpg/sg15_77_cif.got.tgz:152443.got - 2010.06.03 18:47:42.
