data_PCOD9271293
_publ_section_title
;
Structure prediction by ZEFSAII (Michael W. Deem and Ramdas Pophale) SiO2 
 PCOD9271293
Probable space group: C 2/C
;
_chemical_formula_sum "Si O2"
_cell_formula_units_Z 52
_cell_length_a 10.187995
_cell_length_b 10.990259
_cell_length_c 25.113756
_cell_angle_alpha 90.000000
_cell_angle_beta 42.985881
_cell_angle_gamma 90.000000
_cell_volume 1917.241662
_symmetry_space_group_name_H-M "C 2/C"
_symmetry_group_IT_number 15
_symmetry_cell_setting 'monoclinic'
loop_
_space_group_symop_operation_xyz
x,y,z
-x,y,1/2-z
-x,-y,-z
x,-y,1/2+z
1/2+x,1/2+y,z
1/2-x,1/2+y,1/2-z
1/2-x,1/2-y,-z
1/2+x,1/2-y,1/2+z
loop_
_atom_site_type_symbol
_atom_site_label
_atom_site_fract_x
_atom_site_fract_y
_atom_site_fract_z
Si Si1 0.907932 0.031014 0.449257
Si Si2 0.142854 0.681242 0.408231
Si Si3 0.333876 0.862626 0.219261
Si Si4 0.919772 0.192812 0.879781
Si Si5 0.000000 0.838741 0.750000
Si Si6 0.790193 0.457283 0.380556
Si Si7 0.949500 0.713789 0.571596
O O1 0.920663 0.175700 0.444743
O O2 0.796365 0.002403 0.537178
O O3 0.836007 0.931407 0.429733
O O4 0.138608 0.005083 0.382894
O O5 0.991777 0.719404 0.406743
O O6 0.317876 0.600467 0.333228
O O7 0.241707 0.812634 0.391484
O O8 0.055105 0.647331 0.491226
O O9 0.105371 0.854724 0.292086
O O10 0.395228 0.744894 0.236471
O O11 0.481572 0.968129 0.195496
O O12 0.397000 0.858976 0.139418
O O13 0.754026 0.254455 0.894127
#
# Coordination Sequence:
#
# PCOD9271293 Si02
#       7
#     8   8   8   8   4   8   8
#     4   9  19  36  62  88 114 157 212 261 301 383
#     4   8  16  30  56  85 115 163 202 256 313 374
#     4  10  20  36  58  87 122 166 199 260 324 369
#     4  10  20  38  56  86 135 164 198 269 325 358
#     4   8  16  32  54  80 118 154 202 244 320 376
#     4   8  16  34  56  86 117 156 209 250 318 379
#     4  11  21  35  62  93 118 163 218 252 310 390
#
# _framework density 27.122297
#
# number of rings (size 3 to 8) (size 9 to 14) (size 15 to 20)
#    0.000    2.769    0.000    2.769    0.000    5.538 
#    5.538    0.769    3.385    3.692    0.000    0.000 
#    0.000    0.000    0.000    0.000    0.000    0.000 
#
# Total GULP energy -145173.611995 kJ/mol
# GULP energy per Si atom -5583.600461 kJ/mol
# Density = 2.706057 g / cm^3
# Si number density = 27.122297 Si / 1000 Ang^3
#
#
#
# Elastic Constant Matrix: (Units=GPa)
#
#
# Indices 1 2 3 4 5 6 
#
# 1 125.3219 33.5886 51.0715 0.0000 -3.9617 0.0000
# 2 33.5886 67.5236 18.1868 0.0000 -12.2741 0.0000
# 3 51.0715 18.1868 174.1386 0.0001 5.2437 0.0000
# 4 0.0000 0.0000 0.0001 15.4319 0.0000 -6.9375
# 5 -3.9617 -12.2741 5.2437 0.0000 44.2113 0.0000
# 6 0.0000 0.0000 0.0000 -6.9375 0.0000 40.0301
#
#
#
# Elastic Compliance Matrix: (Units=1/GPa)
#
#
# Indices 1 2 3 4 5 6 
#
# 1 0.010186 -0.004386 -0.002529 0.000000 -0.000005 0.000000
# 2 -0.004386 0.018046 -0.000740 0.000000 0.004705 0.000000
# 3 -0.002529 -0.000740 0.006598 0.000000 -0.001215 0.000000
# 4 0.000000 0.000000 0.000000 0.070276 0.000000 0.012179
# 5 -0.000005 0.004705 -0.001215 0.000000 0.024068 0.000000
# 6 0.000000 0.000000 0.000000 0.012179 0.000000 0.027092
#
#
# Mechanical properties :
#
#
# Convention : Reuss Voigt Hill
#
# Bulk Modulus (GPa) = 51.23184 63.63088 57.43136
# Shear Modulus (GPa) = 28.07673 37.54382 32.81027
#
# Velocity S-wave (km/s) = 3.22093 3.72458 3.48187
# Velocity P-wave (km/s) = 5.72387 6.48138 6.11437
#
# Compressibility (1/GPa) = 0.01951911
#
# Stress axis : x y z
#
# Youngs Moduli (GPa) = 98.17843 55.41368 151.55892
#
# Poissons Ratio (x) = 0.24307 0.38329
# Poissons Ratio (y) = 0.43065 0.11214
# Poissons Ratio (z) = 0.24829 0.04100
#
# Static dielectric constant tensor:
#      x y z
#    x 2.188890 0.000000 -0.025320 
#    y 0.000000 2.186150 0.000000 
#    z -0.025320 0.000000 2.193800 
# 
# From -- ./inp_files/292654.got.cif
#   From: 2010.05.17/outbox.cif.g08.bks.cpg/sg15_147_cif.got.tgz:292654.got - 2010.06.03 18:47:42.
