data_PCOD9271437
_publ_section_title
;
Structure prediction by ZEFSAII (Michael W. Deem and Ramdas Pophale) SiO2 
 PCOD9271437
Probable space group: C 2/C
;
_chemical_formula_sum "Si O2"
_cell_formula_units_Z 48
_cell_length_a 15.527192
_cell_length_b 12.832047
_cell_length_c 11.433787
_cell_angle_alpha 90.000000
_cell_angle_beta 103.059712
_cell_angle_gamma 90.000000
_cell_volume 2219.208738
_symmetry_space_group_name_H-M "C 2/C"
_symmetry_group_IT_number 15
_symmetry_cell_setting 'monoclinic'
loop_
_space_group_symop_operation_xyz
x,y,z
-x,y,1/2-z
-x,-y,-z
x,-y,1/2+z
1/2+x,1/2+y,z
1/2-x,1/2+y,1/2-z
1/2-x,1/2-y,-z
1/2+x,1/2-y,1/2+z
loop_
_atom_site_type_symbol
_atom_site_label
_atom_site_fract_x
_atom_site_fract_y
_atom_site_fract_z
Si Si1 0.729784 0.668382 0.890132
Si Si2 0.687138 0.038137 0.763800
Si Si3 0.994302 0.124591 0.377387
Si Si4 0.212536 0.692375 0.171135
Si Si5 0.617551 0.799371 0.392962
Si Si6 0.854527 0.989918 0.965824
O O1 0.810721 0.611306 0.849949
O O2 0.685966 0.729577 0.768282
O O3 0.750000 0.750000 0.000000
O O4 0.677489 0.571681 0.929889
O O5 0.616015 0.088971 0.828863
O O6 0.694438 0.920691 0.721350
O O7 0.775518 0.045077 0.872865
O O8 0.023784 0.243383 0.376362
O O9 0.000000 0.077246 0.250000
O O10 0.899891 0.098480 0.400430
O O11 0.069905 0.071506 0.478994
O O12 0.312951 0.725391 0.160548
O O13 0.158217 0.695532 0.034753
#
# Coordination Sequence:
#
# PCOD9271437 Si02
#       6
#     8   8   8   8   8   8
#     4  11  21  33  57  90 117 150 197 256 300 351
#     4  11  21  37  63  89 124 152 212 259 305 357
#     4  11  23  37  59  85 129 163 195 241 317 379
#     4  10  20  36  59  87 120 155 211 255 300 357
#     4  10  21  37  59  89 121 166 198 256 313 362
#     4  11  22  38  59  93 120 158 201 256 307 367
#
# _framework density 21.629331000000001
#
# number of rings (size 3 to 8) (size 9 to 14) (size 15 to 20)
#    0.000    1.333    1.667    7.000    2.333    1.333 
#    0.000    0.000    0.000    4.000    0.000    0.000 
#    0.000    0.000    0.000    0.000    0.000    0.000 
#
# Total GULP energy -133886.468767 kJ/mol
# GULP energy per Si atom -5578.602865 kJ/mol
# Density = 2.158010 g / cm^3
# Si number density = 21.629331 Si / 1000 Ang^3
#
#
#
# Elastic Constant Matrix: (Units=GPa)
#
#
# Indices 1 2 3 4 5 6 
#
# 1 32.0670 2.5480 7.4372 0.0000 -9.2306 0.0000
# 2 2.5480 104.7146 34.6242 0.0000 -3.9953 0.0000
# 3 7.4372 34.6242 123.3302 0.0000 -14.3861 0.0000
# 4 0.0000 0.0000 0.0000 37.9179 0.0000 -1.8810
# 5 -9.2306 -3.9953 -14.3861 0.0000 26.7600 0.0000
# 6 0.0000 0.0000 0.0000 -1.8810 0.0000 26.5953
#
#
#
# Elastic Compliance Matrix: (Units=1/GPa)
#
#
# Indices 1 2 3 4 5 6 
#
# 1 0.034689 -0.000173 -0.000694 0.000000 0.011567 0.000000
# 2 -0.000173 0.010528 -0.002954 0.000000 -0.000076 0.000000
# 3 -0.000694 -0.002954 0.009496 0.000000 0.004424 0.000000
# 4 0.000000 0.000000 0.000000 0.026466 0.000000 0.001872
# 5 0.011567 -0.000076 0.004424 0.000000 0.043726 0.000000
# 6 0.000000 0.000000 0.000000 0.001872 0.000000 0.037733
#
#
# Mechanical properties :
#
#
# Convention : Reuss Voigt Hill
#
# Bulk Modulus (GPa) = 21.24508 38.81451 30.02979
# Shear Modulus (GPa) = 26.88609 32.62147 29.75378
#
# Velocity S-wave (km/s) = 3.52950 3.88777 3.71296
# Velocity P-wave (km/s) = 5.14330 6.17554 5.68291
#
# Compressibility (1/GPa) = 0.04706973
#
# Stress axis : x y z
#
# Youngs Moduli (GPa) = 28.82764 94.98617 105.31205
#
# Poissons Ratio (x) = 0.01646 0.07308
# Poissons Ratio (y) = 0.00500 0.31110
# Poissons Ratio (z) = 0.02001 0.28059
#
# Static dielectric constant tensor:
#      x y z
#    x 1.768890 0.000000 -0.011690 
#    y 0.000000 1.868050 0.000000 
#    z -0.011690 0.000000 1.811370 
# 
# From -- ./inp_files/103745.got.cif
#   From: 2010.05.17/outbox.cif.g08.bks.cpg/sg15_52_cif.got.tgz:103745.got - 2010.06.03 18:47:42.
