data_PCOD9271145
_publ_section_title
;
Structure prediction by ZEFSAII (Michael W. Deem and Ramdas Pophale) SiO2 
 PCOD9271145
Probable space group: C 2/C
;
_chemical_formula_sum "Si O2"
_cell_formula_units_Z 44
_cell_length_a 15.265998
_cell_length_b 26.152102
_cell_length_c 6.053279
_cell_angle_alpha 90.000000
_cell_angle_beta 128.236386
_cell_angle_gamma 90.000000
_cell_volume 1898.229791
_symmetry_space_group_name_H-M "C 2/C"
_symmetry_group_IT_number 15
_symmetry_cell_setting 'monoclinic'
loop_
_space_group_symop_operation_xyz
x,y,z
-x,y,1/2-z
-x,-y,-z
x,-y,1/2+z
1/2+x,1/2+y,z
1/2-x,1/2+y,1/2-z
1/2-x,1/2-y,-z
1/2+x,1/2-y,1/2+z
loop_
_atom_site_type_symbol
_atom_site_label
_atom_site_fract_x
_atom_site_fract_y
_atom_site_fract_z
Si Si1 0.000000 0.762018 0.750000
Si Si2 0.808162 0.703053 0.213603
Si Si3 0.842336 0.512996 0.875182
Si Si4 0.625084 0.345511 0.739480
Si Si5 0.239624 0.617684 0.651882
Si Si6 0.120286 0.053123 0.985395
O O1 0.902203 0.726134 0.514421
O O2 0.966442 0.801498 0.891063
O O3 0.717074 0.674833 0.218193
O O4 0.750000 0.750000 0.000000
O O5 0.840539 0.657684 0.096398
O O6 0.888671 0.494594 0.703627
O O7 0.827259 0.573694 0.825912
O O8 0.720138 0.485068 0.706389
O O9 0.591875 0.402672 0.619805
O O10 0.683413 0.349778 0.066868
O O11 0.322824 0.585864 0.622479
O O12 0.000000 0.028017 0.750000
#
# Coordination Sequence:
#
# PCOD9271145 Si02
#       6
#     4   8   8   8   8   8
#     4  12  24  40  66  88 122 178 212 270 330 378
#     4  11  25  42  60  90 124 168 222 269 323 388
#     4  10  20  36  57  87 123 168 211 254 324 392
#     4  11  22  41  60  90 128 165 214 263 322 388
#     4  10  21  39  56  82 125 163 207 263 307 381
#     4  10  21  34  55  88 127 168 207 255 319 405
#
# _framework density 23.179492
#
# number of rings (size 3 to 8) (size 9 to 14) (size 15 to 20)
#    0.000    1.455    3.636    1.636    2.545    2.909 
#    1.636    0.000    0.000    0.000    0.000   11.455 
#    0.000    0.182    0.000    0.000    0.000    0.000 
#
# Total GULP energy -122795.004699 kJ/mol
# GULP energy per Si atom -5581.591123 kJ/mol
# Density = 2.312673 g / cm^3
# Si number density = 23.179492 Si / 1000 Ang^3
#
#
#
# Elastic Constant Matrix: (Units=GPa)
#
#
# Indices 1 2 3 4 5 6 
#
# 1 31.2178 20.9965 21.6075 0.0000 -7.5458 0.0000
# 2 20.9965 119.6793 18.9889 0.0000 -2.2284 0.0000
# 3 21.6075 18.9889 71.3390 0.0000 -9.4765 0.0000
# 4 0.0000 0.0000 0.0000 36.1310 0.0000 -14.6284
# 5 -7.5458 -2.2284 -9.4765 0.0000 16.5709 0.0000
# 6 0.0000 0.0000 0.0000 -14.6284 0.0000 19.1103
#
#
#
# Elastic Compliance Matrix: (Units=1/GPa)
#
#
# Indices 1 2 3 4 5 6 
#
# 1 0.047183 -0.006313 -0.010681 0.000000 0.014528 0.000000
# 2 -0.006313 0.009569 -0.000916 0.000000 -0.002111 0.000000
# 3 -0.010681 -0.000916 0.018218 0.000000 0.005432 0.000000
# 4 0.000000 0.000000 0.000000 0.040107 0.000000 0.030701
# 5 0.014528 -0.002111 0.005432 0.000000 0.069785 0.000000
# 6 0.000000 0.000000 0.000000 0.030701 0.000000 0.075828
#
#
# Mechanical properties :
#
#
# Convention : Reuss Voigt Hill
#
# Bulk Modulus (GPa) = 25.54140 38.38022 31.96081
# Shear Modulus (GPa) = 16.15202 25.07201 20.61202
#
# Velocity S-wave (km/s) = 2.64261 3.29241 2.98524
# Velocity P-wave (km/s) = 4.51155 5.57199 5.06957
#
# Compressibility (1/GPa) = 0.03915212
#
# Stress axis : x y z
#
# Youngs Moduli (GPa) = 21.19396 104.50303 54.89120
#
# Poissons Ratio (x) = 0.65969 0.58629
# Poissons Ratio (y) = 0.13379 0.05026
# Poissons Ratio (z) = 0.22637 0.09568
#
# Static dielectric constant tensor:
#      x y z
#    x 1.916880 0.000000 -0.067510 
#    y 0.000000 1.823390 0.000000 
#    z -0.067510 0.000000 1.948310 
# 
# From -- ./inp_files/7580.got.cif
#   From: 2010.05.17/outbox.cif.g08.bks.cpg/sg15_4_cif.got.tgz:7580.got - 2010.06.03 18:47:42.
