data_PCOD9271683
_publ_section_title
;
Structure prediction by ZEFSAII (Michael W. Deem and Ramdas Pophale) SiO2 
 PCOD9271683
Probable space group: C 2/C
;
_chemical_formula_sum "Si O2"
_cell_formula_units_Z 48
_cell_length_a 9.309138
_cell_length_b 22.894339
_cell_length_c 15.444966
_cell_angle_alpha 90.000000
_cell_angle_beta 142.192482
_cell_angle_gamma 90.000000
_cell_volume 2017.867330
_symmetry_space_group_name_H-M "C 2/C"
_symmetry_group_IT_number 15
_symmetry_cell_setting 'monoclinic'
loop_
_space_group_symop_operation_xyz
x,y,z
-x,y,1/2-z
-x,-y,-z
x,-y,1/2+z
1/2+x,1/2+y,z
1/2-x,1/2+y,1/2-z
1/2-x,1/2-y,-z
1/2+x,1/2-y,1/2+z
loop_
_atom_site_type_symbol
_atom_site_label
_atom_site_fract_x
_atom_site_fract_y
_atom_site_fract_z
Si Si1 0.165146 0.651410 0.231301
Si Si2 0.432782 0.886883 0.992814
Si Si3 0.845326 0.955015 0.100233
Si Si4 0.807500 0.203554 0.454396
Si Si5 0.911963 0.935093 0.532679
Si Si6 0.199109 0.868674 0.189155
O O1 0.258787 0.707940 0.328793
O O2 0.331557 0.596233 0.337894
O O3 0.886011 0.651767 0.119775
O O4 0.162945 0.654837 0.127071
O O5 0.593965 0.935491 0.018705
O O6 0.592722 0.860384 0.145083
O O7 0.222089 0.913509 0.945655
O O8 0.000000 0.984389 0.250000
O O9 0.995564 0.897715 0.150418
O O10 0.872315 0.995654 0.028158
O O11 0.750000 0.250000 0.500000
O O12 0.076932 0.187957 0.593058
O O13 0.780131 0.911170 0.384233
#
# Coordination Sequence:
#
# PCOD9271683 Si02
#       6
#     8   8   8   8   8   8
#     4  10  22  39  64  97 129 165 218 280 333 391
#     4  11  21  37  63  91 136 171 221 262 329 394
#     4  10  20  36  60  92 131 179 229 271 311 394
#     4  10  22  43  68  93 122 165 224 284 340 396
#     4  11  22  38  60  93 139 183 213 259 341 401
#     4  10  22  40  60  94 129 168 227 280 328 388
#
# _framework density 23.787490999999999
#
# number of rings (size 3 to 8) (size 9 to 14) (size 15 to 20)
#    0.000    1.667    1.667    3.000    0.000    4.000 
#    0.000    1.667    0.000   18.000    0.000    0.000 
#    0.000    0.000    0.000    0.000    0.000    0.000 
#
# Total GULP energy -133627.908779 kJ/mol
# GULP energy per Si atom -5567.829532 kJ/mol
# Density = 2.373335 g / cm^3
# Si number density = 23.787491 Si / 1000 Ang^3
#
#
#
# Elastic Constant Matrix: (Units=GPa)
#
#
# Indices 1 2 3 4 5 6 
#
# 1 102.8075 23.1976 20.1339 0.0002 -9.3211 -0.0004
# 2 23.1976 36.6877 39.2022 0.0000 -3.1126 0.0001
# 3 20.1339 39.2022 170.5644 0.0007 -35.0978 -0.0014
# 4 0.0002 0.0000 0.0007 14.2671 0.0003 -6.4093
# 5 -9.3211 -3.1126 -35.0978 0.0003 55.5617 -0.0006
# 6 -0.0004 0.0001 -0.0014 -6.4093 -0.0006 25.5410
#
#
#
# Elastic Compliance Matrix: (Units=1/GPa)
#
#
# Indices 1 2 3 4 5 6 
#
# 1 0.011568 -0.008132 0.000930 0.000000 0.002073 0.000000
# 2 -0.008132 0.042523 -0.009889 0.000000 -0.005229 -0.000001
# 3 0.000930 -0.009889 0.009131 0.000000 0.005370 0.000001
# 4 0.000000 0.000000 0.000000 0.078997 0.000000 0.019823
# 5 0.002073 -0.005229 0.005370 0.000000 0.021445 0.000001
# 6 0.000000 -0.000001 0.000001 0.019823 0.000001 0.044127
#
#
# Mechanical properties :
#
#
# Convention : Reuss Voigt Hill
#
# Bulk Modulus (GPa) = 34.43724 52.79187 43.61455
# Shear Modulus (GPa) = 19.86862 34.24235 27.05548
#
# Velocity S-wave (km/s) = 2.89321 3.79820 3.37617
# Velocity P-wave (km/s) = 5.06650 6.44022 5.79421
#
# Compressibility (1/GPa) = 0.02903834
#
# Stress axis : x y z
#
# Youngs Moduli (GPa) = 86.44809 23.51685 109.51599
#
# Poissons Ratio (x) = 0.19124 -0.10186
# Poissons Ratio (y) = 0.70301 1.08305
# Poissons Ratio (z) = -0.08041 0.23257
#
# Static dielectric constant tensor:
#      x y z
#    x 1.950030 0.000000 -0.087060 
#    y 0.000000 2.073770 0.000000 
#    z -0.087060 0.000000 2.042850 
# 
# From -- ./inp_files/139006.got.cif
#   From: 2010.05.17/outbox.cif.g08.bks.cpg/sg15_70_cif.got.tgz:139006.got - 2010.06.03 18:47:42.
