data_PCOD9271476
_publ_section_title
;
Structure prediction by ZEFSAII (Michael W. Deem and Ramdas Pophale) SiO2 
 PCOD9271476
Probable space group: C 2/C
;
_chemical_formula_sum "Si O2"
_cell_formula_units_Z 52
_cell_length_a 13.857768
_cell_length_b 30.440549
_cell_length_c 7.872832
_cell_angle_alpha 90.000000
_cell_angle_beta 52.517116
_cell_angle_gamma 90.000000
_cell_volume 2635.378058
_symmetry_space_group_name_H-M "C 2/C"
_symmetry_group_IT_number 15
_symmetry_cell_setting 'monoclinic'
loop_
_space_group_symop_operation_xyz
x,y,z
-x,y,1/2-z
-x,-y,-z
x,-y,1/2+z
1/2+x,1/2+y,z
1/2-x,1/2+y,1/2-z
1/2-x,1/2-y,-z
1/2+x,1/2-y,1/2+z
loop_
_atom_site_type_symbol
_atom_site_label
_atom_site_fract_x
_atom_site_fract_y
_atom_site_fract_z
Si Si1 0.018788 0.784052 0.537702
Si Si2 0.134515 0.065501 0.159100
Si Si3 0.735255 0.629443 0.312740
Si Si4 0.765119 0.988177 0.261300
Si Si5 0.373743 0.052702 0.292932
Si Si6 0.500000 0.647924 0.750000
Si Si7 0.258329 0.733962 0.186535
O O1 0.031079 0.821383 0.379373
O O2 0.894722 0.758102 0.614841
O O3 0.000000 0.800661 0.750000
O O4 0.143556 0.756441 0.400461
O O5 0.199860 0.107153 0.172236
O O6 0.000000 0.077476 0.250000
O O7 0.136869 0.025600 0.294387
O O8 0.200196 0.044248 0.926670
O O9 0.848662 0.601758 0.257664
O O10 0.618507 0.622149 0.561254
O O11 0.755418 0.681257 0.287017
O O12 0.730822 0.960438 0.461747
O O13 0.649104 0.018049 0.332995
O O14 0.500000 0.048475 0.250000
O O15 0.250000 0.750000 0.000000
#
# Coordination Sequence:
#
# PCOD9271476 Si02
#       7
#     8   8   8   8   8   4   8
#     4  11  22  41  70  93 118 167 221 254 319 385
#     4  10  20  36  59  89 124 158 199 253 306 371
#     4  10  23  37  59  89 123 154 202 248 316 363
#     4   9  20  37  57  84 116 159 205 243 298 366
#     4  10  20  37  57  84 115 159 202 242 299 359
#     4  10  22  44  60  88 132 162 202 264 318 378
#     4  11  21  44  64  90 129 170 206 266 324 379
#
# _framework density 19.731515999999999
#
# number of rings (size 3 to 8) (size 9 to 14) (size 15 to 20)
#    0.000    1.846    3.077    1.385    2.154    3.692 
#    2.769    1.538    0.000    0.000    0.000    0.000 
#    0.000    0.000    0.000    0.000    0.000    0.000 
#
# Total GULP energy -145011.942218 kJ/mol
# GULP energy per Si atom -5577.382393 kJ/mol
# Density = 1.968661 g / cm^3
# Si number density = 19.731516 Si / 1000 Ang^3
#
#
#
# Elastic Constant Matrix: (Units=GPa)
#
#
# Indices 1 2 3 4 5 6 
#
# 1 84.3431 10.6372 3.0353 0.0000 4.9021 0.0000
# 2 10.6372 84.5573 17.5469 0.0000 8.7534 0.0000
# 3 3.0353 17.5469 55.0448 0.0000 15.7613 0.0000
# 4 0.0000 0.0000 0.0000 74.6287 0.0000 27.3990
# 5 4.9021 8.7534 15.7613 0.0000 35.8478 0.0000
# 6 0.0000 0.0000 0.0000 27.3990 0.0000 34.7285
#
#
#
# Elastic Compliance Matrix: (Units=1/GPa)
#
#
# Indices 1 2 3 4 5 6 
#
# 1 0.012109 -0.001417 0.000182 0.000000 -0.001390 0.000000
# 2 -0.001417 0.012901 -0.003647 0.000000 -0.001353 0.000000
# 3 0.000182 -0.003647 0.021819 0.000000 -0.008727 0.000000
# 4 0.000000 0.000000 0.000000 0.018864 0.000000 -0.014882
# 5 -0.001390 -0.001353 -0.008727 0.000000 0.032253 0.000000
# 6 0.000000 0.000000 0.000000 -0.014882 0.000000 0.040536
#
#
# Mechanical properties :
#
#
# Convention : Reuss Voigt Hill
#
# Bulk Modulus (GPa) = 26.97988 31.82046 29.40017
# Shear Modulus (GPa) = 31.13287 41.88939 36.51113
#
# Velocity S-wave (km/s) = 3.97649 4.61257 4.30629
# Velocity P-wave (km/s) = 5.89801 6.67304 6.29746
#
# Compressibility (1/GPa) = 0.03706466
#
# Stress axis : x y z
#
# Youngs Moduli (GPa) = 82.58113 77.51046 45.83260
#
# Poissons Ratio (x) = 0.10985 -0.00834
# Poissons Ratio (y) = 0.11704 0.16716
# Poissons Ratio (z) = -0.01503 0.28269
#
# Static dielectric constant tensor:
#      x y z
#    x 1.720220 0.000000 0.006200 
#    y 0.000000 1.678870 0.000000 
#    z 0.006200 0.000000 1.709020 
# 
# From -- ./inp_files/44214.got.cif
#   From: 2010.05.17/outbox.cif.g08.bks.cpg/sg15_23_cif.got.tgz:44214.got - 2010.06.03 18:47:42.
