data_PCOD9271046
_publ_section_title
;
Structure prediction by ZEFSAII (Michael W. Deem and Ramdas Pophale) SiO2 
 PCOD9271046
Probable space group: C 2/C
;
_chemical_formula_sum "Si O2"
_cell_formula_units_Z 52
_cell_length_a 12.534018
_cell_length_b 7.979668
_cell_length_c 27.572014
_cell_angle_alpha 90.000000
_cell_angle_beta 52.546594
_cell_angle_gamma 90.000000
_cell_volume 2189.177900
_symmetry_space_group_name_H-M "C 2/C"
_symmetry_group_IT_number 15
_symmetry_cell_setting 'monoclinic'
loop_
_space_group_symop_operation_xyz
x,y,z
-x,y,1/2-z
-x,-y,-z
x,-y,1/2+z
1/2+x,1/2+y,z
1/2-x,1/2+y,1/2-z
1/2-x,1/2-y,-z
1/2+x,1/2-y,1/2+z
loop_
_atom_site_type_symbol
_atom_site_label
_atom_site_fract_x
_atom_site_fract_y
_atom_site_fract_z
Si Si1 0.114885 0.801937 0.848784
Si Si2 0.147388 0.798368 0.685193
Si Si3 0.829761 0.675682 0.922427
Si Si4 0.500000 0.855459 0.750000
Si Si5 0.731348 0.075708 0.736386
Si Si6 0.304188 0.335518 0.370773
Si Si7 0.142565 0.482127 0.990045
O O1 0.140667 0.960463 0.807066
O O2 0.177652 0.645321 0.801494
O O3 0.191679 0.785948 0.878016
O O4 0.958782 0.788004 0.899893
O O5 0.152198 0.661449 0.640450
O O6 0.249271 0.738765 0.698076
O O7 0.188745 0.976481 0.653173
O O8 0.000000 0.805455 0.750000
O O9 0.699057 0.792020 0.965261
O O10 0.851057 0.519207 0.952637
O O11 0.615611 0.966170 0.742527
O O12 0.561048 0.746669 0.688731
O O13 0.247881 0.382654 0.439373
O O14 0.000000 0.500000 0.000000
#
# Coordination Sequence:
#
# PCOD9271046 Si02
#       7
#     8   8   8   4   8   8   8
#     4  11  21  35  57  92 121 163 202 258 316 376
#     4  11  19  36  57  87 123 163 199 255 307 366
#     4  10  21  35  61  86 118 162 215 246 316 372
#     4  10  20  36  56  92 118 164 192 258 320 370
#     4  11  22  35  58  89 134 155 201 258 318 369
#     4  10  21  34  61  85 124 156 207 250 311 376
#     4  10  20  38  59  89 119 166 207 258 301 377
#
# _framework density 23.753208999999998
#
# number of rings (size 3 to 8) (size 9 to 14) (size 15 to 20)
#    0.000    1.538    4.615    0.923    0.000    1.231 
#    0.000    0.000    0.000   18.462    0.000    0.000 
#    0.000    0.000    0.000    0.000    0.000    0.000 
#
# Total GULP energy -144955.289694 kJ/mol
# GULP energy per Si atom -5575.203450 kJ/mol
# Density = 2.369915 g / cm^3
# Si number density = 23.753209 Si / 1000 Ang^3
#
#
#
# Elastic Constant Matrix: (Units=GPa)
#
#
# Indices 1 2 3 4 5 6 
#
# 1 57.4414 4.6346 14.5517 0.0000 0.5365 0.0000
# 2 4.6346 61.7343 -2.6404 0.0000 -10.1501 0.0000
# 3 14.5517 -2.6404 75.0223 0.0000 -6.3979 0.0000
# 4 0.0000 0.0000 0.0000 0.0453 0.0000 -4.6018
# 5 0.5365 -10.1501 -6.3979 0.0000 34.5048 0.0000
# 6 0.0000 0.0000 0.0000 -4.6018 0.0000 34.1880
#
#
#
# Elastic Compliance Matrix: (Units=1/GPa)
#
#
# Indices 1 2 3 4 5 6 
#
# 1 0.018528 -0.001803 -0.003787 0.000000 -0.001521 0.000000
# 2 -0.001803 0.017278 0.001416 -0.000001 0.005373 0.000000
# 3 -0.003787 0.001416 0.014382 0.000000 0.003142 0.000000
# 4 0.000000 -0.000001 0.000000 -1.741750 0.000000 -0.234446
# 5 -0.001521 0.005373 0.003142 0.000000 0.031168 0.000000
# 6 0.000000 0.000000 0.000000 -0.234446 0.000000 -0.002307
#
#
# Mechanical properties :
#
#
# Convention : Reuss Voigt Hill
#
# Bulk Modulus (GPa) = 23.90065 25.25440 24.57753
# Shear Modulus (GPa) = -3.04802 25.59110 11.27154
#
# Velocity S-wave (km/s) = -1.13402 3.28590 2.18073
# Velocity P-wave (km/s) = 2.89297 5.00512 4.08782
#
# Compressibility (1/GPa) = 0.04183986
#
# Stress axis : x y z
#
# Youngs Moduli (GPa) = 53.97216 57.87774 69.53279
#
# Poissons Ratio (x) = 0.10435 0.26332
# Poissons Ratio (y) = 0.09731 -0.09846
# Poissons Ratio (z) = 0.20439 -0.08196
#
# Static dielectric constant tensor:
#      x y z
#    x 1.970660 0.000000 0.039630 
#    y 0.000000 1.953670 0.000000 
#    z 0.039630 0.000000 2.042660 
# 
# From -- ./inp_files/312639.got.cif
#   From: 2010.05.17/outbox.cif.g08.bks.cpg/sg15_157_cif.got.tgz:312639.got - 2010.06.03 18:47:42.
