data_PCOD9271391
_publ_section_title
;
Structure prediction by ZEFSAII (Michael W. Deem and Ramdas Pophale) SiO2 
 PCOD9271391
Probable space group: C 2/C
;
_chemical_formula_sum "Si O2"
_cell_formula_units_Z 52
_cell_length_a 15.786549
_cell_length_b 27.281958
_cell_length_c 16.460046
_cell_angle_alpha 90.000000
_cell_angle_beta 162.560715
_cell_angle_gamma 90.000000
_cell_volume 2124.580929
_symmetry_space_group_name_H-M "C 2/C"
_symmetry_group_IT_number 15
_symmetry_cell_setting 'monoclinic'
loop_
_space_group_symop_operation_xyz
x,y,z
-x,y,1/2-z
-x,-y,-z
x,-y,1/2+z
1/2+x,1/2+y,z
1/2-x,1/2+y,1/2-z
1/2-x,1/2-y,-z
1/2+x,1/2-y,1/2+z
loop_
_atom_site_type_symbol
_atom_site_label
_atom_site_fract_x
_atom_site_fract_y
_atom_site_fract_z
Si Si1 0.058714 0.281183 0.118249
Si Si2 0.559864 0.518204 0.452341
Si Si3 0.550958 0.952521 0.968094
Si Si4 0.000000 0.910391 0.250000
Si Si5 0.887909 0.604794 0.811869
Si Si6 0.000000 0.441724 0.250000
Si Si7 0.000000 0.645034 0.250000
Si Si8 0.272232 0.221423 0.915901
O O1 0.743852 0.260158 0.832273
O O2 0.138171 0.281601 0.095441
O O3 0.120433 0.336690 0.201197
O O4 0.242942 0.500107 0.165882
O O5 0.610571 0.571331 0.539908
O O6 0.725692 0.526175 0.519592
O O7 0.938392 0.587786 0.610220
O O8 0.751922 0.933277 0.078738
O O9 0.535041 0.913067 0.026464
O O10 0.209050 0.883000 0.505021
O O11 0.755232 0.475288 0.668984
O O12 0.109599 0.675759 0.427387
O O13 0.440422 0.267566 0.109029
#
# Coordination Sequence:
#
# PCOD9271391 Si02
#       8
#     8   8   8   4   8   4   4   8
#     4  10  23  42  65  94 131 171 223 283 334 388
#     4  10  23  42  66  97 131 170 218 272 323 404
#     4  12  23  43  66  96 137 176 219 265 334 397
#     4  12  26  35  60  90 133 175 210 265 312 386
#     4  10  23  44  70 101 130 181 224 273 335 407
#     4   8  22  43  66  98 135 167 224 264 339 390
#     4  12  22  38  54  90 126 170 218 265 321 386
#     4  10  20  36  59  84 118 164 212 272 328 381
#
# _framework density 24.475415999999999
#
# number of rings (size 3 to 8) (size 9 to 14) (size 15 to 20)
#    0.923    0.615    0.000    5.077    0.000    4.923 
#    0.000    0.769    0.000    0.000    0.000    0.000 
#    0.000    0.000    0.000    0.000    0.000    0.000 
#
# Total GULP energy -145070.584204 kJ/mol
# GULP energy per Si atom -5579.637854 kJ/mol
# Density = 2.441971 g / cm^3
# Si number density = 24.475416 Si / 1000 Ang^3
#
#
#
# Elastic Constant Matrix: (Units=GPa)
#
#
# Indices 1 2 3 4 5 6 
#
# 1 107.4051 32.5625 11.0183 -0.0085 -3.8783 0.0036
# 2 32.5625 125.2491 23.5039 -0.0024 -13.8555 0.0000
# 3 11.0183 23.5039 108.6018 -0.0083 11.0912 0.0070
# 4 -0.0085 -0.0024 -0.0083 24.3870 -0.0106 -6.4715
# 5 -3.8783 -13.8555 11.0912 -0.0106 24.7079 0.0004
# 6 0.0036 0.0000 0.0070 -6.4715 0.0004 27.9452
#
#
#
# Elastic Compliance Matrix: (Units=1/GPa)
#
#
# Indices 1 2 3 4 5 6 
#
# 1 0.010135 -0.002486 -0.000535 0.000003 0.000437 0.000000
# 2 -0.002486 0.009788 -0.002502 0.000002 0.006222 0.000001
# 3 -0.000535 -0.002502 0.010434 0.000000 -0.006170 -0.000003
# 4 0.000003 0.000002 0.000000 0.043690 0.000020 0.010118
# 5 0.000437 0.006222 -0.006170 0.000020 0.046800 0.000006
# 6 0.000000 0.000001 -0.000003 0.010118 0.000006 0.038127
#
#
# Mechanical properties :
#
#
# Convention : Reuss Voigt Hill
#
# Bulk Modulus (GPa) = 51.78187 52.82504 52.30346
# Shear Modulus (GPa) = 28.33549 33.68610 31.01080
#
# Velocity S-wave (km/s) = 3.40621 3.71391 3.56338
# Velocity P-wave (km/s) = 6.05577 6.32618 6.19245
#
# Compressibility (1/GPa) = 0.01931178
#
# Stress axis : x y z
#
# Youngs Moduli (GPa) = 98.66858 102.16433 95.84272
#
# Poissons Ratio (x) = 0.25400 0.05125
# Poissons Ratio (y) = 0.24531 0.23975
# Poissons Ratio (z) = 0.05276 0.25557
#
# Static dielectric constant tensor:
#      x y z
#    x 2.048430 0.000000 -0.072310 
#    y 0.000000 2.102790 -0.000010 
#    z -0.072310 -0.000010 1.966390 
# 
# From -- ./inp_files/212314.got.cif
#   From: 2010.05.17/outbox.cif.g08.bks.cpg/sg15_107_cif.got.tgz:212314.got - 2010.06.03 18:47:42.
