data_PCOD9271600
_publ_section_title
;
Structure prediction by ZEFSAII (Michael W. Deem and Ramdas Pophale) SiO2 
 PCOD9271600
Probable space group: C 2/C
;
_chemical_formula_sum "Si O2"
_cell_formula_units_Z 44
_cell_length_a 16.922459
_cell_length_b 30.114113
_cell_length_c 5.297117
_cell_angle_alpha 90.000000
_cell_angle_beta 132.058000
_cell_angle_gamma 90.000000
_cell_volume 2004.242744
_symmetry_space_group_name_H-M "C 2/C"
_symmetry_group_IT_number 15
_symmetry_cell_setting 'monoclinic'
loop_
_space_group_symop_operation_xyz
x,y,z
-x,y,1/2-z
-x,-y,-z
x,-y,1/2+z
1/2+x,1/2+y,z
1/2-x,1/2+y,1/2-z
1/2-x,1/2-y,-z
1/2+x,1/2-y,1/2+z
loop_
_atom_site_type_symbol
_atom_site_label
_atom_site_fract_x
_atom_site_fract_y
_atom_site_fract_z
Si Si1 0.747084 0.528861 0.024422
Si Si2 0.430880 0.097937 0.352397
Si Si3 0.613628 0.614516 0.856274
Si Si4 0.285968 0.176361 0.153286
Si Si5 0.500000 0.325669 0.750000
Si Si6 0.158094 0.239763 0.499541
O O1 0.737738 0.493610 0.230646
O O2 0.858729 0.555152 0.261193
O O3 0.659237 0.566431 0.894817
O O4 0.500000 0.090839 0.250000
O O5 0.351603 0.139613 0.140979
O O6 0.500000 0.107264 0.750000
O O7 0.500000 0.613229 0.750000
O O8 0.585420 0.640477 0.541301
O O9 0.708514 0.646167 0.166799
O O10 0.366919 0.210910 0.455583
O O11 0.211803 0.209482 0.832152
O O12 0.440363 0.290299 0.804627
O O13 0.250000 0.250000 0.500000
#
# Coordination Sequence:
#
# PCOD9271600 Si02
#       6
#     8   8   8   8   4   8
#     4  11  26  46  70 100 131 167 216 270 328 397
#     4  11  25  43  69  99 132 173 213 271 327 392
#     4  10  22  41  63  89 131 165 212 266 329 383
#     4   9  22  38  57  95 127 172 221 267 323 377
#     4  10  22  36  60  92 120 172 214 260 322 382
#     4  10  20  36  60  87 130 172 220 270 314 378
#
# _framework density 21.953429
#
# number of rings (size 3 to 8) (size 9 to 14) (size 15 to 20)
#    0.000    1.818    0.000    2.182    6.364    2.909 
#    0.000    1.818    0.000    0.000    0.000    0.000 
#    0.000    0.000    0.000    0.000    0.000    0.000 
#
# Total GULP energy -122603.999879 kJ/mol
# GULP energy per Si atom -5572.909085 kJ/mol
# Density = 2.190346 g / cm^3
# Si number density = 21.953429 Si / 1000 Ang^3
#
#
#
# Elastic Constant Matrix: (Units=GPa)
#
#
# Indices 1 2 3 4 5 6 
#
# 1 124.6394 46.1206 7.9173 0.0000 6.9117 0.0000
# 2 46.1206 112.9079 12.1551 0.0000 14.4209 0.0000
# 3 7.9173 12.1551 35.5357 0.0000 8.0254 0.0000
# 4 0.0000 0.0000 0.0000-1922.1112 0.0000 461.0064
# 5 6.9117 14.4209 8.0254 0.0000 28.3076 0.0000
# 6 0.0000 0.0000 0.0000 461.0064 0.0000 -75.2642
#
#
#
# Elastic Compliance Matrix: (Units=1/GPa)
#
#
# Indices 1 2 3 4 5 6 
#
# 1 0.009475 -0.003764 -0.000784 0.000000 -0.000174 0.000000
# 2 -0.003764 0.011147 -0.002029 0.000000 -0.004184 0.000000
# 3 -0.000784 -0.002029 0.030698 0.000000 -0.007478 0.000000
# 4 0.000000 0.000000 0.000000 0.001109 0.000000 0.006793
# 5 -0.000174 -0.004184 -0.007478 0.000000 0.039620 0.000000
# 6 0.000000 0.000000 0.000000 0.006793 0.000000 0.028324
#
#
# Mechanical properties :
#
#
# Convention : Reuss Voigt Hill
#
# Bulk Modulus (GPa) = 26.20153 45.05210 35.62682
# Shear Modulus (GPa) = 34.18762 -380.02089 -172.91663
#
# Velocity S-wave (km/s) = 3.95052 -13.17114 -8.88460
# Velocity P-wave (km/s) = 5.72449 14.51686 9.43317
#
# Compressibility (1/GPa) = 0.03816571
#
# Stress axis : x y z
#
# Youngs Moduli (GPa) = 105.53697 89.70902 32.57494
#
# Poissons Ratio (x) = 0.33765 0.02555
# Poissons Ratio (y) = 0.39723 0.06610
# Poissons Ratio (z) = 0.08279 0.18205
#
# Static dielectric constant tensor:
#      x y z
#    x 1.574190 0.000000 -0.104480 
#    y 0.000000 1.801360 0.000000 
#    z -0.104480 0.000000 1.835230 
# 
# From -- ./inp_files/11661.got.cif
#   From: 2010.05.17/outbox.cif.g08.bks.cpg/sg15_6_cif.got.tgz:11661.got - 2010.06.03 18:47:42.
