data_PCOD9271435
_publ_section_title
;
Structure prediction by ZEFSAII (Michael W. Deem and Ramdas Pophale) SiO2 
 PCOD9271435
Probable space group: C 2/C
;
_chemical_formula_sum "Si O2"
_cell_formula_units_Z 56
_cell_length_a 10.255770
_cell_length_b 20.948245
_cell_length_c 14.232041
_cell_angle_alpha 90.000000
_cell_angle_beta 99.871923
_cell_angle_gamma 90.000000
_cell_volume 3012.344402
_symmetry_space_group_name_H-M "C 2/C"
_symmetry_group_IT_number 15
_symmetry_cell_setting 'monoclinic'
loop_
_space_group_symop_operation_xyz
x,y,z
-x,y,1/2-z
-x,-y,-z
x,-y,1/2+z
1/2+x,1/2+y,z
1/2-x,1/2+y,1/2-z
1/2-x,1/2-y,-z
1/2+x,1/2-y,1/2+z
loop_
_atom_site_type_symbol
_atom_site_label
_atom_site_fract_x
_atom_site_fract_y
_atom_site_fract_z
Si Si1 0.530822 0.174264 0.083505
Si Si2 0.786109 0.011123 0.646456
Si Si3 0.969178 0.825736 0.416495
Si Si4 0.000000 0.594318 0.250000
Si Si5 0.000000 0.094318 0.750000
Si Si6 0.750000 0.897989 0.500000
Si Si7 0.786109 0.488877 0.646456
Si Si8 0.750000 0.113617 0.500000
O O1 0.543288 0.250000 0.089484
O O2 0.574459 0.141581 0.187898
O O3 0.626210 0.144507 0.016566
O O4 0.376995 0.155171 0.045760
O O5 0.750000 1.000000 0.750000
O O6 0.705129 0.064633 0.577802
O O7 0.926378 0.046389 0.670741
O O8 0.785271 0.945996 0.589377
O O9 0.123005 0.844829 0.454240
O O10 0.925541 0.858419 0.312102
O O11 0.873789 0.855493 0.483434
O O12 0.926378 0.546389 0.170741
O O13 0.714729 0.945996 0.410623
O O14 0.705129 0.435367 0.577802
#
# Coordination Sequence:
#
# PCOD9271435 Si02
#       8
#     8   8   8   4   4   8   8   8
#     4  11  22  40  58  84 119 157 195 230 277 350
#     4  10  20  36  59  87 119 142 191 246 292 338
#     4  11  22  40  58  84 119 157 195 230 277 350
#     4  10  21  36  62  84 113 158 194 234 286 340
#     4  10  21  36  62  84 113 158 194 234 286 340
#     4  11  23  36  62  90 117 149 186 244 302 323
#     4  10  20  36  59  87 119 142 191 246 292 338
#     4   9  23  36  60  84 111 159 192 230 290 337
#
# _framework density 18.590171999999999
#
# number of rings (size 3 to 8) (size 9 to 14) (size 15 to 20)
#    0.000    1.714    2.857    1.286    4.000    3.429 
#    0.000    0.000    0.000    1.714    0.000    0.000 
#    0.000    0.000    0.000    0.000    0.000    0.000 
#
# Total GULP energy -155897.276213 kJ/mol
# GULP energy per Si atom -5567.759865 kJ/mol
# Density = 1.854786 g / cm^3
# Si number density = 18.590172 Si / 1000 Ang^3
#
#
#
# Elastic Constant Matrix: (Units=GPa)
#
#
# Indices 1 2 3 4 5 6 
#
# 1 57.2095 40.9957 10.9619 0.0000 -10.0405 0.0000
# 2 40.9957 141.3324 38.7579 0.0000 -12.1132 0.0000
# 3 10.9619 38.7579 99.9151 0.0000 -18.6873 0.0000
# 4 0.0000 0.0000 0.0000 13.7583 0.0000 -1.0321
# 5 -10.0405 -12.1132 -18.6873 0.0000 31.2901 0.0000
# 6 0.0000 0.0000 0.0000 -1.0321 0.0000 24.4421
#
#
#
# Elastic Compliance Matrix: (Units=1/GPa)
#
#
# Indices 1 2 3 4 5 6 
#
# 1 0.022857 -0.006440 0.001009 0.000000 0.005444 0.000000
# 2 -0.006440 0.009786 -0.003115 0.000000 -0.000139 0.000000
# 3 0.001009 -0.003115 0.012317 0.000000 0.006474 0.000000
# 4 0.000000 0.000000 0.000000 0.072915 0.000000 0.003079
# 5 0.005444 -0.000139 0.006474 0.000000 0.037518 0.000000
# 6 0.000000 0.000000 0.000000 0.003079 0.000000 0.041043
#
#
# Mechanical properties :
#
#
# Convention : Reuss Voigt Hill
#
# Bulk Modulus (GPa) = 35.88597 53.32088 44.60343
# Shear Modulus (GPa) = 22.43984 27.74751 25.09367
#
# Velocity S-wave (km/s) = 3.47808 3.86760 3.67800
# Velocity P-wave (km/s) = 5.95609 6.97775 6.48706
#
# Compressibility (1/GPa) = 0.02786605
#
# Stress axis : x y z
#
# Youngs Moduli (GPa) = 43.75120 102.18681 81.18763
#
# Poissons Ratio (x) = 0.65808 -0.08189
# Poissons Ratio (y) = 0.28175 0.25294
# Poissons Ratio (z) = -0.04413 0.31836
#
# Static dielectric constant tensor:
#      x y z
#    x 1.715660 0.000000 0.029770 
#    y 0.000000 1.634670 0.000000 
#    z 0.029770 0.000000 1.702100 
# 
# From -- ./inp_files/89018.got.cif
#   From: 2010.05.17/outbox.cif.g08.bks.cpg/sg15_45_cif.got.tgz:89018.got - 2010.06.03 18:47:42.
