data_PCOD9271346
_publ_section_title
;
Structure prediction by ZEFSAII (Michael W. Deem and Ramdas Pophale) SiO2 
 PCOD9271346
Probable space group: C 2/C
;
_chemical_formula_sum "Si O2"
_cell_formula_units_Z 48
_cell_length_a 17.673005
_cell_length_b 9.430187
_cell_length_c 12.032234
_cell_angle_alpha 90.000000
_cell_angle_beta 79.453682
_cell_angle_gamma 90.000000
_cell_volume 1971.414202
_symmetry_space_group_name_H-M "C 2/C"
_symmetry_group_IT_number 15
_symmetry_cell_setting 'monoclinic'
loop_
_space_group_symop_operation_xyz
x,y,z
-x,y,1/2-z
-x,-y,-z
x,-y,1/2+z
1/2+x,1/2+y,z
1/2-x,1/2+y,1/2-z
1/2-x,1/2-y,-z
1/2+x,1/2-y,1/2+z
loop_
_atom_site_type_symbol
_atom_site_label
_atom_site_fract_x
_atom_site_fract_y
_atom_site_fract_z
Si Si1 0.820511 0.114589 0.854499
Si Si2 0.157888 0.502880 0.938699
Si Si3 0.915083 0.063119 0.024142
Si Si4 0.916845 0.145875 0.256572
Si Si5 0.868863 0.440306 0.313297
Si Si6 0.802567 0.188103 0.624634
O O1 0.825948 0.212725 0.746660
O O2 0.733588 0.102843 0.919036
O O3 0.847833 0.957035 0.808366
O O4 0.884525 0.145711 0.927277
O O5 0.121088 0.514421 0.821745
O O6 0.189715 0.339582 0.934271
O O7 0.118046 0.522044 0.071832
O O8 0.859629 0.927372 0.056482
O O9 0.906979 0.166881 0.129244
O O10 0.000000 0.000000 0.000000
O O11 0.916510 0.294922 0.315870
O O12 0.000000 0.073568 0.250000
O O13 0.779601 0.388876 0.342082
#
# Coordination Sequence:
#
# PCOD9271346 Si02
#       6
#     8   8   8   8   8   8
#     4  10  20  36  58  93 120 154 204 253 310 363
#     4  11  22  40  63  89 123 162 206 252 305 362
#     4  11  21  35  60  92 122 156 200 259 315 361
#     4  11  22  37  60  87 119 160 204 251 308 368
#     4  11  23  39  63  89 121 164 209 248 303 368
#     4  10  21  35  61  89 122 158 199 256 306 361
#
# _framework density 24.348004
#
# number of rings (size 3 to 8) (size 9 to 14) (size 15 to 20)
#    0.000    1.333    5.000    1.500    0.000    1.333 
#    0.000    4.167    3.667    0.000    0.000    0.000 
#    0.000    0.000    0.000    0.000    0.000    0.000 
#
# Total GULP energy -133880.505038 kJ/mol
# GULP energy per Si atom -5578.354377 kJ/mol
# Density = 2.429259 g / cm^3
# Si number density = 24.348004 Si / 1000 Ang^3
#
#
#
# Elastic Constant Matrix: (Units=GPa)
#
#
# Indices 1 2 3 4 5 6 
#
# 1 43.8102 -3.8942 9.8786 0.0000 -10.9752 0.0000
# 2 -3.8942 67.3752 8.2181 0.0000 -7.9612 0.0000
# 3 9.8786 8.2181 196.0054 0.0000 40.3869 0.0000
# 4 0.0000 0.0000 0.0000 13.5348 0.0000 3.7530
# 5 -10.9752 -7.9612 40.3869 0.0000 37.7886 0.0000
# 6 0.0000 0.0000 0.0000 3.7530 0.0000 15.8511
#
#
#
# Elastic Compliance Matrix: (Units=1/GPa)
#
#
# Indices 1 2 3 4 5 6 
#
# 1 0.027459 0.003685 -0.004285 0.000000 0.013332 0.000000
# 2 0.003685 0.016152 -0.002289 0.000000 0.006919 0.000000
# 3 -0.004285 -0.002289 0.007399 0.000000 -0.009635 0.000000
# 4 0.000000 0.000000 0.000000 0.079075 0.000000 -0.018722
# 5 0.013332 0.006919 -0.009635 0.000000 0.042090 0.000000
# 6 0.000000 0.000000 0.000000 -0.018722 0.000000 0.067520
#
#
# Mechanical properties :
#
#
# Convention : Reuss Voigt Hill
#
# Bulk Modulus (GPa) = 22.10794 37.28842 29.69818
# Shear Modulus (GPa) = 19.19011 32.96744 26.07878
#
# Velocity S-wave (km/s) = 2.81046 3.68368 3.27629
# Velocity P-wave (km/s) = 4.43072 5.78279 5.15131
#
# Compressibility (1/GPa) = 0.04523261
#
# Stress axis : x y z
#
# Youngs Moduli (GPa) = 36.41729 61.91184 135.15233
#
# Poissons Ratio (x) = -0.22815 0.57919
# Poissons Ratio (y) = -0.13420 0.30932
# Poissons Ratio (z) = 0.15607 0.14169
#
# Static dielectric constant tensor:
#      x y z
#    x 1.942140 0.000000 0.037050 
#    y 0.000000 1.947520 0.000000 
#    z 0.037050 0.000000 2.079070 
# 
# From -- ./inp_files/110576.got.cif
#   From: 2010.05.17/outbox.cif.g08.bks.cpg/sg15_56_cif.got.tgz:110576.got - 2010.06.03 18:47:42.
