data_PCOD9271591
_publ_section_title
;
Structure prediction by ZEFSAII (Michael W. Deem and Ramdas Pophale) SiO2 
 PCOD9271591
Probable space group: C 2/C
;
_chemical_formula_sum "Si O2"
_cell_formula_units_Z 40
_cell_length_a 19.463283
_cell_length_b 19.111082
_cell_length_c 5.142800
_cell_angle_alpha 90.000000
_cell_angle_beta 125.015018
_cell_angle_gamma 90.000000
_cell_volume 1566.699836
_symmetry_space_group_name_H-M "C 2/C"
_symmetry_group_IT_number 15
_symmetry_cell_setting 'monoclinic'
loop_
_space_group_symop_operation_xyz
x,y,z
-x,y,1/2-z
-x,-y,-z
x,-y,1/2+z
1/2+x,1/2+y,z
1/2-x,1/2+y,1/2-z
1/2-x,1/2-y,-z
1/2+x,1/2-y,1/2+z
loop_
_atom_site_type_symbol
_atom_site_label
_atom_site_fract_x
_atom_site_fract_y
_atom_site_fract_z
Si Si1 0.500000 0.185537 0.250000
Si Si2 0.166588 0.653346 0.805785
Si Si3 0.732746 0.951468 0.792224
Si Si4 0.311982 0.293108 0.338960
Si Si5 0.912277 0.949275 0.091701
Si Si6 0.000000 0.214570 0.250000
O O1 0.583929 0.141279 0.462030
O O2 0.494227 0.234771 0.488229
O O3 0.250360 0.647932 0.815853
O O4 0.166573 0.605916 0.060551
O O5 0.168943 0.733303 0.906121
O O6 0.726763 0.009559 0.550491
O O7 0.823189 0.913256 0.943747
O O8 0.408269 0.322896 0.521902
O O9 0.250000 0.250000 0.000000
O O10 0.000000 0.907794 0.250000
O O11 0.912329 0.004030 0.330808
#
# Coordination Sequence:
#
# PCOD9271591 Si02
#       6
#     4   8   8   8   8   4
#     4  10  20  36  60  87 118 159 198 240 310 366
#     4  10  22  38  61  90 119 162 201 248 306 360
#     4  10  22  37  57  83 117 159 199 246 291 351
#     4  10  20  38  63  89 121 156 197 253 302 366
#     4   8  14  28  49  69  96 138 184 223 273 331
#     4  10  20  36  60  91 122 153 196 244 308 368
#
# _framework density 25.531375000000001
#
# number of rings (size 3 to 8) (size 9 to 14) (size 15 to 20)
#    0.000    2.400    2.000    0.000    2.800    0.000 
#    0.000    3.000    8.800    0.000    0.000    0.000 
#    0.000    0.000    0.000    0.000    0.000    0.000 
#
# Total GULP energy -111602.090240 kJ/mol
# GULP energy per Si atom -5580.104512 kJ/mol
# Density = 2.547326 g / cm^3
# Si number density = 25.531375 Si / 1000 Ang^3
#
#
#
# Elastic Constant Matrix: (Units=GPa)
#
#
# Indices 1 2 3 4 5 6 
#
# 1 82.6128 6.8966 44.8698 0.0000 15.4182 0.0000
# 2 6.8966 55.8786 20.7933 0.0000 2.8509 0.0000
# 3 44.8698 20.7933 155.1062 0.0000 19.4564 0.0000
# 4 0.0000 0.0000 0.0000 52.4142 0.0000 -6.0780
# 5 15.4182 2.8509 19.4564 0.0000 73.4150 0.0000
# 6 0.0000 0.0000 0.0000 -6.0780 0.0000 12.7918
#
#
#
# Elastic Compliance Matrix: (Units=1/GPa)
#
#
# Indices 1 2 3 4 5 6 
#
# 1 0.014648 -0.000234 -0.003953 0.000000 -0.002020 0.000000
# 2 -0.000234 0.018840 -0.002454 0.000000 -0.000032 0.000000
# 3 -0.003953 -0.002454 0.008072 0.000000 -0.001214 0.000000
# 4 0.000000 0.000000 0.000000 0.020191 0.000000 0.009594
# 5 -0.002020 -0.000032 -0.001214 0.000000 0.014368 0.000000
# 6 0.000000 0.000000 0.000000 0.009594 0.000000 0.082734
#
#
# Mechanical properties :
#
#
# Convention : Reuss Voigt Hill
#
# Bulk Modulus (GPa) = 35.36283 48.74634 42.05459
# Shear Modulus (GPa) = 27.53910 42.46005 34.99958
#
# Velocity S-wave (km/s) = 3.28782 4.08248 3.70651
# Velocity P-wave (km/s) = 5.31920 6.43089 5.90128
#
# Compressibility (1/GPa) = 0.02827828
#
# Stress axis : x y z
#
# Youngs Moduli (GPa) = 68.26884 53.07976 123.88691
#
# Poissons Ratio (x) = 0.01242 0.48969
# Poissons Ratio (y) = 0.01597 0.30401
# Poissons Ratio (z) = 0.26985 0.13025
#
# Static dielectric constant tensor:
#      x y z
#    x 2.227470 0.000000 0.041800 
#    y 0.000000 1.975340 0.000000 
#    z 0.041800 0.000000 2.106720 
# 
# From -- ./inp_files/7316.got.cif
#   From: 2010.05.17/outbox.cif.g08.bks.cpg/sg15_4_cif.got.tgz:7316.got - 2010.06.03 18:47:42.
