data_PCOD9271821
_publ_section_title
;
Structure prediction by ZEFSAII (Michael W. Deem and Ramdas Pophale) SiO2 
 PCOD9271821
Probable space group: C 2/C
;
_chemical_formula_sum "Si O2"
_cell_formula_units_Z 60
_cell_length_a 28.186440
_cell_length_b 5.726183
_cell_length_c 20.131318
_cell_angle_alpha 90.000000
_cell_angle_beta 118.329352
_cell_angle_gamma 90.000000
_cell_volume 2860.065509
_symmetry_space_group_name_H-M "C 2/C"
_symmetry_group_IT_number 15
_symmetry_cell_setting 'monoclinic'
loop_
_space_group_symop_operation_xyz
x,y,z
-x,y,1/2-z
-x,-y,-z
x,-y,1/2+z
1/2+x,1/2+y,z
1/2-x,1/2+y,1/2-z
1/2-x,1/2-y,-z
1/2+x,1/2-y,1/2+z
loop_
_atom_site_type_symbol
_atom_site_label
_atom_site_fract_x
_atom_site_fract_y
_atom_site_fract_z
Si Si1 0.157541 0.614625 0.170315
Si Si2 0.000000 0.027768 0.250000
Si Si3 0.353316 0.980926 0.985546
Si Si4 0.292640 0.526575 0.466870
Si Si5 0.738006 0.165261 0.812428
Si Si6 0.686288 0.496006 0.874283
Si Si7 0.410477 0.838734 0.148992
Si Si8 0.908472 0.279183 0.749529
O O1 0.134244 0.532254 0.084495
O O2 0.204902 0.803257 0.186276
O O3 0.191172 0.417046 0.232565
O O4 0.111147 0.701095 0.188482
O O5 0.041900 0.888402 0.232055
O O6 0.039748 0.166228 0.325290
O O7 0.325093 0.234134 0.976016
O O8 0.322600 0.727234 0.976182
O O9 0.398541 0.973869 0.073037
O O10 0.246600 0.510672 0.380311
O O11 0.279201 0.532389 0.536232
O O12 0.721919 0.407858 0.837055
O O13 0.644376 0.291565 0.866377
O O14 0.645074 0.696438 0.826030
O O15 0.424946 0.985797 0.223646
#
# Coordination Sequence:
#
# PCOD9271821 Si02
#       8
#     8   4   8   8   8   8   8   8
#     4  11  23  38  61  98 135 184 215 265 326 395
#     4  10  24  40  74  96 120 154 228 290 348 400
#     4  10  22  41  64  93 137 178 219 269 330 389
#     4  10  21  38  61  93 134 186 232 269 309 373
#     4  11  21  37  57  96 141 184 226 261 314 390
#     4  10  20  36  61  96 130 180 224 275 318 380
#     4  10  20  42  64  95 124 169 215 281 336 393
#     4  11  21  41  67  94 127 163 222 281 341 399
#
# _framework density 20.978542000000001
#
# number of rings (size 3 to 8) (size 9 to 14) (size 15 to 20)
#    0.000    1.600    2.667    2.400    0.000    2.133 
#    0.000    5.333    0.000    3.200    0.000    0.000 
#    0.000    0.000    0.000    0.000    0.000    0.000 
#
# Total GULP energy -167383.174371 kJ/mol
# GULP energy per Si atom -5579.439146 kJ/mol
# Density = 2.093079 g / cm^3
# Si number density = 20.978542 Si / 1000 Ang^3
#
#
#
# Elastic Constant Matrix: (Units=GPa)
#
#
# Indices 1 2 3 4 5 6 
#
# 1 117.6898 39.5572 45.7024 0.0001 -10.4383 0.0001
# 2 39.5572 78.9245 16.0009 0.0006 -0.9692 -0.0005
# 3 45.7024 16.0009 98.1594 0.0002 -28.9715 0.0001
# 4 0.0001 0.0006 0.0002 22.9737 0.0000 -4.3875
# 5 -10.4383 -0.9692 -28.9715 0.0000 26.1879 -0.0001
# 6 0.0001 -0.0005 0.0001 -4.3875 -0.0001 16.7005
#
#
#
# Elastic Compliance Matrix: (Units=1/GPa)
#
#
# Indices 1 2 3 4 5 6 
#
# 1 0.012080 -0.005032 -0.005105 0.000000 -0.001019 0.000000
# 2 -0.005032 0.015338 -0.000864 0.000000 -0.002394 0.000000
# 3 -0.005105 -0.000864 0.017959 0.000000 0.017801 0.000000
# 4 0.000000 0.000000 0.000000 0.045827 0.000000 0.012040
# 5 -0.001019 -0.002394 0.017801 0.000000 0.057385 0.000000
# 6 0.000000 0.000000 0.000000 0.012040 0.000000 0.063042
#
#
# Mechanical properties :
#
#
# Convention : Reuss Voigt Hill
#
# Bulk Modulus (GPa) = 42.77916 55.25497 49.01706
# Shear Modulus (GPa) = 20.71036 26.07329 23.39182
#
# Velocity S-wave (km/s) = 3.14541 3.52924 3.34284
# Velocity P-wave (km/s) = 5.79893 6.55769 6.18995
#
# Compressibility (1/GPa) = 0.02337587
#
# Stress axis : x y z
#
# Youngs Moduli (GPa) = 82.77902 65.19638 55.68200
#
# Poissons Ratio (x) = 0.32809 0.28425
# Poissons Ratio (y) = 0.41657 0.04810
# Poissons Ratio (z) = 0.42257 0.05632
#
# Static dielectric constant tensor:
#      x y z
#    x 1.726850 0.000000 0.010600 
#    y 0.000000 1.857620 0.000000 
#    z 0.010600 0.000000 1.792560 
# 
# From -- ./inp_files/223920.got.cif
#   From: 2010.05.17/outbox.cif.g08.bks.cpg/sg15_112_cif.got.tgz:223920.got - 2010.06.03 18:47:42.
