data_PCOD9271066
_publ_section_title
;
Structure prediction by ZEFSAII (Michael W. Deem and Ramdas Pophale) SiO2 
 PCOD9271066
Probable space group: C 2/C
;
_chemical_formula_sum "Si O2"
_cell_formula_units_Z 64
_cell_length_a 12.371091
_cell_length_b 25.787153
_cell_length_c 11.471779
_cell_angle_alpha 90.000000
_cell_angle_beta 103.324306
_cell_angle_gamma 90.000000
_cell_volume 3561.158056
_symmetry_space_group_name_H-M "C 2/C"
_symmetry_group_IT_number 15
_symmetry_cell_setting 'monoclinic'
loop_
_space_group_symop_operation_xyz
x,y,z
-x,y,1/2-z
-x,-y,-z
x,-y,1/2+z
1/2+x,1/2+y,z
1/2-x,1/2+y,1/2-z
1/2-x,1/2-y,-z
1/2+x,1/2-y,1/2+z
loop_
_atom_site_type_symbol
_atom_site_label
_atom_site_fract_x
_atom_site_fract_y
_atom_site_fract_z
Si Si1 0.882882 0.856545 0.667754
Si Si2 0.318330 0.095491 0.496959
Si Si3 0.886754 0.320901 0.187290
Si Si4 0.535837 0.881471 0.891147
Si Si5 0.924855 0.766117 0.508339
Si Si6 0.133113 0.273532 0.931821
Si Si7 0.066186 0.503500 0.391804
Si Si8 0.244118 0.262923 0.728261
O O1 0.792045 0.899093 0.608339
O O2 0.912059 0.822088 0.561569
O O3 0.820478 0.813979 0.735208
O O4 0.000000 0.874294 0.750000
O O5 0.314477 0.139497 0.595367
O O6 0.425200 0.110001 0.442210
O O7 0.342186 0.040870 0.565836
O O8 0.817839 0.288806 0.265990
O O9 0.000000 0.349716 0.250000
O O10 0.930571 0.274790 0.115021
O O11 0.500000 0.869720 0.750000
O O12 0.605393 0.833093 0.955507
O O13 0.600571 0.936110 0.899627
O O14 0.818808 0.748381 0.407680
O O15 0.033839 0.760269 0.458214
O O16 0.148205 0.271071 0.797075
O O17 0.250000 0.250000 0.000000
O O18 0.000000 0.495562 0.250000
O O19 0.000000 0.500000 0.500000
#
# Coordination Sequence:
#
# PCOD9271066 Si02
#       8
#     8   8   8   8   8   8   8   8
#     4  11  20  33  51  77 112 153 196 235 279 341
#     4  11  19  35  57  82 114 148 190 243 295 340
#     4  11  19  31  50  74 108 143 178 226 289 337
#     4  10  20  36  57  79 112 148 186 235 294 346
#     4  11  19  34  46  70 109 150 189 226 278 345
#     4  12  22  32  49  79 110 149 192 223 284 351
#     4   9  20  37  60  91 116 146 194 245 299 356
#     4  11  20  33  49  72 107 154 192 232 278 343
#
# _framework density 17.971682000000001
#
# number of rings (size 3 to 8) (size 9 to 14) (size 15 to 20)
#    0.000    1.250    3.750    6.000    0.000    0.000 
#    0.000    0.000    0.000    0.000    0.000   24.500 
#    0.000    0.000    1.000    0.000    0.000    0.000 
#
# Total GULP energy -178368.939586 kJ/mol
# GULP energy per Si atom -5574.029362 kJ/mol
# Density = 1.793078 g / cm^3
# Si number density = 17.971682 Si / 1000 Ang^3
#
#
#
# Elastic Constant Matrix: (Units=GPa)
#
#
# Indices 1 2 3 4 5 6 
#
# 1 98.7843 40.3503 26.4383 0.0000 3.9447 0.0000
# 2 40.3503 96.5254 25.6613 0.0000 10.1863 0.0000
# 3 26.4383 25.6613 66.7020 0.0000 4.7167 0.0000
# 4 0.0000 0.0000 0.0000 22.7166 0.0000 6.6895
# 5 3.9447 10.1863 4.7167 0.0000 42.5367 0.0000
# 6 0.0000 0.0000 0.0000 6.6895 0.0000 22.2463
#
#
#
# Elastic Compliance Matrix: (Units=1/GPa)
#
#
# Indices 1 2 3 4 5 6 
#
# 1 0.012857 -0.004503 -0.003382 0.000000 0.000261 0.000000
# 2 -0.004503 0.013343 -0.003177 0.000000 -0.002425 0.000000
# 3 -0.003382 -0.003177 0.017617 0.000000 -0.000879 0.000000
# 4 0.000000 0.000000 0.000000 0.048297 0.000000 -0.014523
# 5 0.000261 -0.002425 -0.000879 0.000000 0.024163 0.000000
# 6 0.000000 0.000000 0.000000 -0.014523 0.000000 0.049318
#
#
# Mechanical properties :
#
#
# Convention : Reuss Voigt Hill
#
# Bulk Modulus (GPa) = 46.09818 49.65685 47.87751
# Shear Modulus (GPa) = 25.64744 28.80404 27.22574
#
# Velocity S-wave (km/s) = 3.78180 4.00777 3.89643
# Velocity P-wave (km/s) = 6.69145 7.00763 6.85137
#
# Compressibility (1/GPa) = 0.02169283
#
# Stress axis : x y z
#
# Youngs Moduli (GPa) = 77.77742 74.94629 56.76336
#
# Poissons Ratio (x) = 0.33749 0.19199
# Poissons Ratio (y) = 0.35024 0.18033
# Poissons Ratio (z) = 0.26306 0.23809
#
# Static dielectric constant tensor:
#      x y z
#    x 1.667620 0.000000 -0.003940 
#    y 0.000000 1.621630 0.000000 
#    z -0.003940 0.000000 1.730440 
# 
# From -- ./inp_files/91826.got.cif
#   From: 2010.05.17/outbox.cif.g08.bks.cpg/sg15_46_cif.got.tgz:91826.got - 2010.06.03 18:47:42.
