data_PCOD9271874
_publ_section_title
;
Structure prediction by ZEFSAII (Michael W. Deem and Ramdas Pophale) SiO2 
 PCOD9271874
Probable space group: C 2/C
;
_chemical_formula_sum "Si O2"
_cell_formula_units_Z 52
_cell_length_a 15.319034
_cell_length_b 10.481273
_cell_length_c 24.631005
_cell_angle_alpha 90.000000
_cell_angle_beta 140.934716
_cell_angle_gamma 90.000000
_cell_volume 2492.353958
_symmetry_space_group_name_H-M "C 2/C"
_symmetry_group_IT_number 15
_symmetry_cell_setting 'monoclinic'
loop_
_space_group_symop_operation_xyz
x,y,z
-x,y,1/2-z
-x,-y,-z
x,-y,1/2+z
1/2+x,1/2+y,z
1/2-x,1/2+y,1/2-z
1/2-x,1/2-y,-z
1/2+x,1/2-y,1/2+z
loop_
_atom_site_type_symbol
_atom_site_label
_atom_site_fract_x
_atom_site_fract_y
_atom_site_fract_z
Si Si1 0.989233 0.667733 0.536087
Si Si2 0.820291 0.060035 0.520181
Si Si3 0.845254 0.558702 0.653943
Si Si4 0.425642 0.605927 0.926387
Si Si5 0.072334 0.792378 0.880621
Si Si6 0.781221 0.568118 0.920300
Si Si7 0.000000 0.062104 0.250000
O O1 0.932262 0.764444 0.463428
O O2 0.984714 0.723215 0.594166
O O3 0.144894 0.646062 0.591065
O O4 0.893040 0.543119 0.487132
O O5 0.720173 0.043367 0.419957
O O6 0.844387 0.914568 0.555493
O O7 0.973180 0.107969 0.576530
O O8 0.750998 0.132184 0.537311
O O9 0.736504 0.570254 0.651326
O O10 0.000000 0.533421 0.750000
O O11 0.849920 0.690035 0.620342
O O12 0.500000 0.500000 0.000000
O O13 0.966315 0.852709 0.786482
O O14 0.635397 0.517077 0.828891
#
# Coordination Sequence:
#
# PCOD9271874 Si02
#       7
#     8   8   8   8   8   8   4
#     4  11  21  39  62  87 119 159 197 241 296 359
#     4  10  20  38  60  83 117 162 190 237 294 357
#     4  11  20  33  59  92 114 143 200 256 284 336
#     4  10  20  36  62  88 113 155 198 235 291 358
#     4  11  19  35  60  85 117 149 200 244 290 338
#     4  10  23  40  59  86 123 156 200 242 295 355
#     4  10  22  36  56  88 114 156 200 250 294 342
#
# _framework density 20.863810000000001
#
# number of rings (size 3 to 8) (size 9 to 14) (size 15 to 20)
#    0.000    1.538    5.385    2.308    0.000    0.615 
#    5.538    0.000    6.769    0.000    0.000    0.000 
#    0.000    0.000    0.000    0.000    0.000    0.000 
#
# Total GULP energy -144935.744642 kJ/mol
# GULP energy per Si atom -5574.451717 kJ/mol
# Density = 2.081632 g / cm^3
# Si number density = 20.863810 Si / 1000 Ang^3
#
#
#
# Elastic Constant Matrix: (Units=GPa)
#
#
# Indices 1 2 3 4 5 6 
#
# 1 180.6254 17.9914 57.2507 0.0000 30.7515 0.0000
# 2 17.9914 9.5762 3.1304 0.0000 1.5667 0.0000
# 3 57.2507 3.1304 119.2291 0.0000 14.1261 0.0000
# 4 0.0000 0.0000 0.0000 13.7440 0.0000 -4.3676
# 5 30.7515 1.5667 14.1261 0.0000 34.1824 0.0000
# 6 0.0000 0.0000 0.0000 -4.3676 0.0000 26.0394
#
#
#
# Elastic Compliance Matrix: (Units=1/GPa)
#
#
# Indices 1 2 3 4 5 6 
#
# 1 0.009117 -0.015056 -0.003252 0.000000 -0.006168 0.000000
# 2 -0.015056 0.130685 0.003053 0.000000 0.006294 0.000000
# 3 -0.003252 0.003053 0.010029 0.000000 -0.001359 0.000000
# 4 0.000000 0.000000 0.000000 0.076856 0.000000 0.012891
# 5 -0.006168 0.006294 -0.001359 0.000000 0.035077 0.000000
# 6 0.000000 0.000000 0.000000 0.012891 0.000000 0.040566
#
#
# Mechanical properties :
#
#
# Convention : Reuss Voigt Hill
#
# Bulk Modulus (GPa) = 8.38074 51.79731 30.08902
# Shear Modulus (GPa) = 13.41876 30.19704 21.80790
#
# Velocity S-wave (km/s) = 2.53881 3.80852 3.23654
# Velocity P-wave (km/s) = 3.55242 6.64982 5.33103
#
# Compressibility (1/GPa) = 0.11932121
#
# Stress axis : x y z
#
# Youngs Moduli (GPa) = 109.68912 7.65199 99.70654
#
# Poissons Ratio (x) = 0.11521 0.32420
# Poissons Ratio (y) = 1.65149 -0.30437
# Poissons Ratio (z) = 0.35666 -0.02336
#
# Static dielectric constant tensor:
#      x y z
#    x 1.807240 0.000000 0.015670 
#    y 0.000000 1.814510 0.000000 
#    z 0.015670 0.000000 1.735040 
# 
# From -- ./inp_files/295784.got.cif
#   From: 2010.05.17/outbox.cif.g08.bks.cpg/sg15_148_cif.got.tgz:295784.got - 2010.06.03 18:47:42.
