data_PCOD9271409
_publ_section_title
;
Structure prediction by ZEFSAII (Michael W. Deem and Ramdas Pophale) SiO2 
 PCOD9271409
Probable space group: C 2/C
;
_chemical_formula_sum "Si O2"
_cell_formula_units_Z 48
_cell_length_a 8.833345
_cell_length_b 30.935894
_cell_length_c 16.278251
_cell_angle_alpha 90.000000
_cell_angle_beta 30.994655
_cell_angle_gamma 90.000000
_cell_volume 2290.696257
_symmetry_space_group_name_H-M "C 2/C"
_symmetry_group_IT_number 15
_symmetry_cell_setting 'monoclinic'
loop_
_space_group_symop_operation_xyz
x,y,z
-x,y,1/2-z
-x,-y,-z
x,-y,1/2+z
1/2+x,1/2+y,z
1/2-x,1/2+y,1/2-z
1/2-x,1/2-y,-z
1/2+x,1/2-y,1/2+z
loop_
_atom_site_type_symbol
_atom_site_label
_atom_site_fract_x
_atom_site_fract_y
_atom_site_fract_z
Si Si1 0.657969 0.172378 0.765503
Si Si2 0.422450 0.599920 0.881173
Si Si3 0.559248 0.735284 0.318979
Si Si4 0.936241 0.143782 0.376184
Si Si5 0.280524 0.518990 0.670414
Si Si6 0.648292 0.926244 0.770675
O O1 0.500000 0.172941 0.750000
O O2 0.752110 0.221847 0.742170
O O3 0.931864 0.140578 0.641019
O O4 0.403049 0.154700 0.945525
O O5 0.500000 0.604248 0.750000
O O6 0.572559 0.556771 0.847072
O O7 0.078670 0.594732 0.059887
O O8 0.500000 0.730204 0.250000
O O9 0.617884 0.686656 0.321541
O O10 0.250000 0.750000 0.500000
O O11 0.000000 0.137842 0.250000
O O12 0.052909 0.100989 0.366214
O O13 0.500000 0.500000 0.500000
O O14 0.193708 0.477149 0.764779
O O15 0.000000 0.535251 0.750000
O O16 0.500000 0.923328 0.750000
#
# Coordination Sequence:
#
# PCOD9271409 Si02
#       6
#     8   8   8   8   8   8
#     4  10  20  36  62  85 110 157 200 230 280 350
#     4  12  25  39  58  90 121 146 189 246 291 339
#     4   8  16  32  54  83 112 145 194 237 274 335
#     4  10  20  36  59  85 116 151 192 242 286 333
#     4  11  23  44  65  83 114 157 196 236 286 352
#     4  11  23  40  58  84 117 150 192 237 288 348
#
# _framework density 20.954326999999999
#
# number of rings (size 3 to 8) (size 9 to 14) (size 15 to 20)
#    0.000    1.667    3.333    2.500    2.333    1.333 
#    0.000    1.667    0.000    0.000    0.000    0.000 
#    0.000    0.000    0.000    0.000    0.000    0.000 
#
# Total GULP energy -133967.780211 kJ/mol
# GULP energy per Si atom -5581.990842 kJ/mol
# Density = 2.090663 g / cm^3
# Si number density = 20.954327 Si / 1000 Ang^3
#
#
#
# Elastic Constant Matrix: (Units=GPa)
#
#
# Indices 1 2 3 4 5 6 
#
# 1 27.9788 5.9213 -8.3115 0.0000 2.6913 0.0000
# 2 5.9213 115.9620 -19.6921 0.0000 -21.8030 0.0000
# 3 -8.3115 -19.6921 54.6309 0.0000 5.8173 0.0000
# 4 0.0000 0.0000 0.0000 24.6440 0.0000 1.3702
# 5 2.6913 -21.8030 5.8173 0.0000 30.1639 0.0000
# 6 0.0000 0.0000 0.0000 1.3702 0.0000 15.1373
#
#
#
# Elastic Compliance Matrix: (Units=1/GPa)
#
#
# Indices 1 2 3 4 5 6 
#
# 1 0.038481 -0.002135 0.005733 0.000000 -0.006082 0.000000
# 2 -0.002135 0.010566 0.002706 0.000000 0.007306 0.000000
# 3 0.005733 0.002706 0.020418 0.000000 -0.002493 0.000000
# 4 0.000000 0.000000 0.000000 0.040783 0.000000 -0.003692
# 5 -0.006082 0.007306 -0.002493 0.000000 0.039456 0.000000
# 6 0.000000 0.000000 0.000000 -0.003692 0.000000 0.066396
#
#
# Mechanical properties :
#
#
# Convention : Reuss Voigt Hill
#
# Bulk Modulus (GPa) = 12.18459 17.15633 14.67046
# Shear Modulus (GPa) = 21.65906 28.69932 25.17919
#
# Velocity S-wave (km/s) = 3.21850 3.70484 3.47020
# Velocity P-wave (km/s) = 4.43161 5.14844 4.80341
#
# Compressibility (1/GPa) = 0.08207088
#
# Stress axis : x y z
#
# Youngs Moduli (GPa) = 25.98678 94.64681 48.97735
#
# Poissons Ratio (x) = 0.20207 -0.28077
# Poissons Ratio (y) = 0.05548 -0.13252
# Poissons Ratio (z) = -0.14897 -0.25609
#
# Static dielectric constant tensor:
#      x y z
#    x 1.724490 0.000000 0.008130 
#    y 0.000000 1.805050 0.000000 
#    z 0.008130 0.000000 1.779860 
# 
# From -- ./inp_files/34849.got.cif
#   From: 2010.05.17/outbox.cif.g08.bks.cpg/sg15_18_cif.got.tgz:34849.got - 2010.06.03 18:47:42.
