data_PCOD9271335
_publ_section_title
;
Structure prediction by ZEFSAII (Michael W. Deem and Ramdas Pophale) SiO2 
 PCOD9271335
Probable space group: C 2/C
;
_chemical_formula_sum "Si O2"
_cell_formula_units_Z 52
_cell_length_a 23.160309
_cell_length_b 17.665354
_cell_length_c 8.511737
_cell_angle_alpha 90.000000
_cell_angle_beta 133.799552
_cell_angle_gamma 90.000000
_cell_volume 2513.512756
_symmetry_space_group_name_H-M "C 2/C"
_symmetry_group_IT_number 15
_symmetry_cell_setting 'monoclinic'
loop_
_space_group_symop_operation_xyz
x,y,z
-x,y,1/2-z
-x,-y,-z
x,-y,1/2+z
1/2+x,1/2+y,z
1/2-x,1/2+y,1/2-z
1/2-x,1/2-y,-z
1/2+x,1/2-y,1/2+z
loop_
_atom_site_type_symbol
_atom_site_label
_atom_site_fract_x
_atom_site_fract_y
_atom_site_fract_z
Si Si1 0.820313 0.167319 0.400772
Si Si2 0.790271 0.955653 0.615765
Si Si3 0.087413 0.898280 0.865458
Si Si4 0.192972 0.320570 0.276006
Si Si5 0.763758 0.877711 0.118198
Si Si6 0.958201 0.269264 0.336693
Si Si7 0.000000 0.223412 0.750000
O O1 0.803758 0.083100 0.308146
O O2 0.785196 0.231786 0.215796
O O3 0.780656 0.170732 0.495714
O O4 0.915671 0.179930 0.581712
O O5 0.874292 0.957444 0.683200
O O6 0.745251 0.889540 0.437601
O O7 0.747687 0.035126 0.545378
O O8 0.072613 0.816354 0.756696
O O9 0.000000 0.924588 0.750000
O O10 0.151234 0.882591 0.125423
O O11 0.192331 0.345201 0.090415
O O12 0.117429 0.317740 0.248752
O O13 0.006892 0.265639 0.593278
O O14 0.000000 0.292507 0.250000
#
# Coordination Sequence:
#
# PCOD9271335 Si02
#       7
#     8   8   8   8   8   8   4
#     4  11  20  37  58  88 116 160 207 253 295 362
#     4  11  22  39  55  86 124 164 199 247 306 366
#     4  10  20  37  57  84 124 166 200 240 296 362
#     4  10  22  40  62  84 117 160 204 253 308 361
#     4  11  24  36  56  89 126 158 209 248 300 363
#     4  10  20  39  66  93 119 152 203 265 310 358
#     4  10  20  36  58  92 126 152 212 254 296 360
#
# _framework density 20.688178000000001
#
# number of rings (size 3 to 8) (size 9 to 14) (size 15 to 20)
#    0.000    1.538    3.077    4.615    2.154    0.615 
#    8.308    0.000    0.000    0.923    2.000    0.000 
#    0.000    0.000    0.000    0.000    0.000    0.000 
#
# Total GULP energy -144740.041578 kJ/mol
# GULP energy per Si atom -5566.924676 kJ/mol
# Density = 2.064109 g / cm^3
# Si number density = 20.688178 Si / 1000 Ang^3
#
#
#
# Elastic Constant Matrix: (Units=GPa)
#
#
# Indices 1 2 3 4 5 6 
#
# 1 181.3875 36.1355 12.2582 0.0000 -28.8365 0.0000
# 2 36.1355 86.0651 1.0851 0.0000 -0.0196 0.0000
# 3 12.2582 1.0851 56.0312 0.0000 -18.8634 0.0000
# 4 0.0000 0.0000 0.0000 17.0890 0.0000 -10.3345
# 5 -28.8365 -0.0196 -18.8634 0.0000 29.1175 0.0000
# 6 0.0000 0.0000 0.0000 -10.3345 0.0000 23.9043
#
#
#
# Elastic Compliance Matrix: (Units=1/GPa)
#
#
# Indices 1 2 3 4 5 6 
#
# 1 0.007321 -0.003086 0.001149 0.000000 0.007992 0.000000
# 2 -0.003086 0.012924 -0.000769 0.000000 -0.003546 0.000000
# 3 0.001149 -0.000769 0.023013 0.000000 0.016046 0.000000
# 4 0.000000 0.000000 0.000000 0.079233 0.000000 0.034254
# 5 0.007992 -0.003546 0.016046 0.000000 0.052652 0.000000
# 6 0.000000 0.000000 0.000000 0.034254 0.000000 0.056643
#
#
# Mechanical properties :
#
#
# Convention : Reuss Voigt Hill
#
# Bulk Modulus (GPa) = 26.42380 46.93792 36.68086
# Shear Modulus (GPa) = 20.01504 32.28915 26.15210
#
# Velocity S-wave (km/s) = 3.11378 3.95492 3.55929
# Velocity P-wave (km/s) = 5.07224 6.60248 5.88729
#
# Compressibility (1/GPa) = 0.03784467
#
# Stress axis : x y z
#
# Youngs Moduli (GPa) = 136.59509 77.37613 43.45426
#
# Poissons Ratio (x) = 0.23882 -0.04992
# Poissons Ratio (y) = 0.42159 0.03341
# Poissons Ratio (z) = -0.15693 0.05949
#
# Static dielectric constant tensor:
#      x y z
#    x 1.801350 0.000000 -0.053280 
#    y 0.000000 1.722730 0.000000 
#    z -0.053280 0.000000 1.837800 
# 
# From -- ./inp_files/55381.got.cif
#   From: 2010.05.17/outbox.cif.g08.bks.cpg/sg15_28_cif.got.tgz:55381.got - 2010.06.03 18:47:42.
