data_PCOD9271540
_publ_section_title
;
Structure prediction by ZEFSAII (Michael W. Deem and Ramdas Pophale) SiO2 
 PCOD9271540
Probable space group: C 2/C
;
_chemical_formula_sum "Si O2"
_cell_formula_units_Z 56
_cell_length_a 14.881511
_cell_length_b 8.495558
_cell_length_c 20.813156
_cell_angle_alpha 90.000000
_cell_angle_beta 67.933858
_cell_angle_gamma 90.000000
_cell_volume 2438.595929
_symmetry_space_group_name_H-M "C 2/C"
_symmetry_group_IT_number 15
_symmetry_cell_setting 'monoclinic'
loop_
_space_group_symop_operation_xyz
x,y,z
-x,y,1/2-z
-x,-y,-z
x,-y,1/2+z
1/2+x,1/2+y,z
1/2-x,1/2+y,1/2-z
1/2-x,1/2-y,-z
1/2+x,1/2-y,1/2+z
loop_
_atom_site_type_symbol
_atom_site_label
_atom_site_fract_x
_atom_site_fract_y
_atom_site_fract_z
Si Si1 0.618559 0.042625 0.809186
Si Si2 0.693807 0.710574 0.791094
Si Si3 0.500000 0.000000 0.500000
Si Si4 0.816697 0.877736 0.869928
Si Si5 0.333387 0.860233 0.074287
Si Si6 0.000000 0.226153 0.250000
Si Si7 0.904629 0.188758 0.476198
Si Si8 0.113131 0.035168 0.401974
O O1 0.634220 0.862863 0.782542
O O2 0.722741 0.130119 0.774231
O O3 0.593620 0.048114 0.892463
O O4 0.546153 0.153219 0.789784
O O5 0.748854 0.783089 0.838620
O O6 0.631672 0.565342 0.833557
O O7 0.411992 0.132439 0.497235
O O8 0.572827 0.144258 0.499820
O O9 0.917861 0.879658 0.804593
O O10 0.838181 0.796485 0.931724
O O11 0.763530 0.040435 0.901560
O O12 0.319591 0.686179 0.104186
O O13 0.005624 0.106036 0.428058
O O14 0.869230 0.075083 0.541862
#
# Coordination Sequence:
#
# PCOD9271540 Si02
#       8
#     8   8   4   8   8   4   8   8
#     4  10  20  37  60  83 116 153 199 246 303 362
#     4  10  21  38  60  85 113 156 199 248 301 358
#     4  10  20  36  60  84 114 154 194 232 296 356
#     4  10  22  38  61  87 118 155 199 242 298 358
#     4  10  21  37  59  88 117 157 199 244 297 357
#     4  10  20  38  62  92 120 154 196 252 304 360
#     4  10  21  38  58  87 120 157 197 246 297 358
#     4  10  21  37  57  82 119 155 198 245 298 352
#
# _framework density 22.964034000000002
#
# number of rings (size 3 to 8) (size 9 to 14) (size 15 to 20)
#    0.000    2.000    0.000    4.286    0.000    5.143 
#    0.000    8.571    0.000    1.714    0.000    0.000 
#    0.000    0.000    0.000    0.000    0.000    0.000 
#
# Total GULP energy -155972.889147 kJ/mol
# GULP energy per Si atom -5570.460327 kJ/mol
# Density = 2.291177 g / cm^3
# Si number density = 22.964034 Si / 1000 Ang^3
#
#
#
# Elastic Constant Matrix: (Units=GPa)
#
#
# Indices 1 2 3 4 5 6 
#
# 1 55.7755 16.4764 25.6673 0.0000 -5.6684 0.0000
# 2 16.4764 133.1413 20.3488 0.0000 -12.9265 0.0000
# 3 25.6673 20.3488 52.3819 0.0000 -0.2284 0.0000
# 4 0.0000 0.0000 0.0000 41.7837 0.0000 -10.7120
# 5 -5.6684 -12.9265 -0.2284 0.0000 37.1422 0.0000
# 6 0.0000 0.0000 0.0000 -10.7120 0.0000 38.1907
#
#
#
# Elastic Compliance Matrix: (Units=1/GPa)
#
#
# Indices 1 2 3 4 5 6 
#
# 1 0.023701 -0.000900 -0.011250 0.000000 0.003235 0.000000
# 2 -0.000900 0.008312 -0.002776 0.000000 0.002739 0.000000
# 3 -0.011250 -0.002776 0.025671 0.000000 -0.002525 0.000000
# 4 0.000000 0.000000 0.000000 0.025787 0.000000 0.007233
# 5 0.003235 0.002739 -0.002525 0.000000 0.028355 0.000000
# 6 0.000000 0.000000 0.000000 0.007233 0.000000 0.028213
#
#
# Mechanical properties :
#
#
# Convention : Reuss Voigt Hill
#
# Bulk Modulus (GPa) = 35.92989 40.69820 38.31404
# Shear Modulus (GPa) = 27.90690 35.34373 31.62531
#
# Velocity S-wave (km/s) = 3.48982 3.92738 3.71505
# Velocity P-wave (km/s) = 5.64965 6.19087 5.92644
#
# Compressibility (1/GPa) = 0.02783198
#
# Stress axis : x y z
#
# Youngs Moduli (GPa) = 42.19319 120.30282 38.95515
#
# Poissons Ratio (x) = 0.10822 0.43824
# Poissons Ratio (y) = 0.03795 0.10815
# Poissons Ratio (z) = 0.47466 0.33401
#
# Static dielectric constant tensor:
#      x y z
#    x 1.811000 0.000000 0.157500 
#    y 0.000000 1.837060 0.000000 
#    z 0.157500 0.000000 1.414470 
# 
# From -- ./inp_files/272679.got.cif
#   From: 2010.05.17/outbox.cif.g08.bks.cpg/sg15_137_cif.got.tgz:272679.got - 2010.06.03 18:47:42.
