data_PCOD9271022
_publ_section_title
;
Structure prediction by ZEFSAII (Michael W. Deem and Ramdas Pophale) SiO2 
 PCOD9271022
Probable space group: C 2/C
;
_chemical_formula_sum "Si O2"
_cell_formula_units_Z 52
_cell_length_a 19.083137
_cell_length_b 14.195625
_cell_length_c 19.002603
_cell_angle_alpha 90.000000
_cell_angle_beta 33.753891
_cell_angle_gamma 90.000000
_cell_volume 2860.226900
_symmetry_space_group_name_H-M "C 2/C"
_symmetry_group_IT_number 15
_symmetry_cell_setting 'monoclinic'
loop_
_space_group_symop_operation_xyz
x,y,z
-x,y,1/2-z
-x,-y,-z
x,-y,1/2+z
1/2+x,1/2+y,z
1/2-x,1/2+y,1/2-z
1/2-x,1/2-y,-z
1/2+x,1/2-y,1/2+z
loop_
_atom_site_type_symbol
_atom_site_label
_atom_site_fract_x
_atom_site_fract_y
_atom_site_fract_z
Si Si1 0.038553 0.404811 0.374327
Si Si2 0.500000 0.039722 0.750000
Si Si3 0.321312 0.254547 0.661644
Si Si4 0.180740 0.622335 0.056492
Si Si5 0.657745 0.399819 0.218559
Si Si6 0.803363 0.558230 0.173230
Si Si7 0.088693 0.204416 0.560414
O O1 0.105586 0.309070 0.343091
O O2 0.125021 0.492980 0.328712
O O3 0.019299 0.406277 0.306931
O O4 0.908084 0.418088 0.526342
O O5 0.616876 0.969914 0.639260
O O6 0.218442 0.185879 0.712191
O O7 0.255736 0.347599 0.745685
O O8 0.416487 0.278820 0.518363
O O9 0.270028 0.599107 0.915772
O O10 0.269850 0.670771 0.039467
O O11 0.078715 0.697166 0.111125
O O12 0.694356 0.494211 0.229268
O O13 0.512498 0.372448 0.331984
#
# Coordination Sequence:
#
# PCOD9271022 Si02
#       7
#     8   4   8   8   8   8   8
#     4  10  22  38  61  87 117 154 204 246 288 356
#     4  12  22  38  60  84 114 158 204 240 290 360
#     4  10  21  36  59  87 115 159 197 243 291 349
#     4  10  22  33  55  88 120 156 184 245 303 356
#     4  10  20  36  56  87 120 153 195 242 297 356
#     4  10  20  39  61  84 117 158 198 244 297 347
#     4  10  21  34  55  89 124 146 191 242 306 357
#
# _framework density 18.180375999999999
#
# number of rings (size 3 to 8) (size 9 to 14) (size 15 to 20)
#    0.000    1.846    1.538    2.308   10.769    0.615 
#    0.000    2.308    3.385    0.000    0.000    0.000 
#    0.000    0.000    0.000    0.000    0.000    0.000 
#
# Total GULP energy -145186.575987 kJ/mol
# GULP energy per Si atom -5584.099076 kJ/mol
# Density = 1.813900 g / cm^3
# Si number density = 18.180376 Si / 1000 Ang^3
#
#
#
# Elastic Constant Matrix: (Units=GPa)
#
#
# Indices 1 2 3 4 5 6 
#
# 1 71.4621 20.0760 35.9732 0.0000 23.8031 0.0000
# 2 20.0760 82.6533 39.9539 0.0000 10.0748 0.0000
# 3 35.9732 39.9539 83.5330 0.0000 12.8053 0.0000
# 4 0.0000 0.0000 0.0000 16.2326 0.0000 4.1156
# 5 23.8031 10.0748 12.8053 0.0000 32.5624 0.0000
# 6 0.0000 0.0000 0.0000 4.1156 0.0000 22.0832
#
#
#
# Elastic Compliance Matrix: (Units=1/GPa)
#
#
# Indices 1 2 3 4 5 6 
#
# 1 0.022205 -0.000179 -0.007446 0.000000 -0.013248 0.000000
# 2 -0.000179 0.015866 -0.007214 0.000000 -0.001941 0.000000
# 3 -0.007446 -0.007214 0.018571 0.000000 0.000372 0.000000
# 4 0.000000 0.000000 0.000000 0.064660 0.000000 -0.012050
# 5 -0.013248 -0.001941 0.000372 0.000000 0.040849 0.000000
# 6 0.000000 0.000000 0.000000 -0.012050 0.000000 0.047529
#
#
# Mechanical properties :
#
#
# Convention : Reuss Voigt Hill
#
# Bulk Modulus (GPa) = 37.08656 47.73939 42.41298
# Shear Modulus (GPa) = 20.13321 23.61865 21.87593
#
# Velocity S-wave (km/s) = 3.33139 3.60825 3.47258
# Velocity P-wave (km/s) = 5.93642 6.60871 6.28157
#
# Compressibility (1/GPa) = 0.02696394
#
# Stress axis : x y z
#
# Youngs Moduli (GPa) = 45.03555 63.02764 53.84657
#
# Poissons Ratio (x) = 0.01130 0.40093
# Poissons Ratio (y) = 0.00808 0.38845
# Poissons Ratio (z) = 0.33532 0.45468
#
# Static dielectric constant tensor:
#      x y z
#    x 1.645100 0.000000 -0.007600 
#    y 0.000000 1.610380 0.000000 
#    z -0.007600 0.000000 1.634990 
# 
# From -- ./inp_files/105479.got.cif
#   From: 2010.05.17/outbox.cif.g08.bks.cpg/sg15_53_cif.got.tgz:105479.got - 2010.06.03 18:47:42.
