data_PCOD9271474
_publ_section_title
;
Structure prediction by ZEFSAII (Michael W. Deem and Ramdas Pophale) SiO2 
 PCOD9271474
Probable space group: C 2/C
;
_chemical_formula_sum "Si O2"
_cell_formula_units_Z 40
_cell_length_a 15.755410
_cell_length_b 12.883319
_cell_length_c 13.625094
_cell_angle_alpha 90.000000
_cell_angle_beta 38.469916
_cell_angle_gamma 90.000000
_cell_volume 1720.519950
_symmetry_space_group_name_H-M "C 2/C"
_symmetry_group_IT_number 15
_symmetry_cell_setting 'monoclinic'
loop_
_space_group_symop_operation_xyz
x,y,z
-x,y,1/2-z
-x,-y,-z
x,-y,1/2+z
1/2+x,1/2+y,z
1/2-x,1/2+y,1/2-z
1/2-x,1/2-y,-z
1/2+x,1/2-y,1/2+z
loop_
_atom_site_type_symbol
_atom_site_label
_atom_site_fract_x
_atom_site_fract_y
_atom_site_fract_z
Si Si1 0.061296 0.883607 0.367980
Si Si2 0.447498 0.851700 0.544552
Si Si3 0.862433 0.833948 0.400930
Si Si4 0.348097 0.847052 0.421117
Si Si5 0.296764 0.033578 0.776068
O O1 0.065462 0.767564 0.410651
O O2 0.144183 0.902989 0.190412
O O3 0.145831 0.952437 0.367283
O O4 0.907434 0.887554 0.460925
O O5 0.362558 0.874282 0.521860
O O6 0.602642 0.884899 0.375528
O O7 0.377912 0.926637 0.686815
O O8 0.750000 0.750000 0.500000
O O9 0.000000 0.770044 0.250000
O O10 0.500000 0.815638 0.250000
O O11 0.250000 0.750000 0.500000
O O12 0.301777 0.933615 0.385420
#
# Coordination Sequence:
#
# PCOD9271474 Si02
#       5
#     8   8   8   8   8
#     4   9  18  33  60  80 121 151 201 252 310 354
#     4  10  20  36  59  89 120 160 207 258 302 370
#     4   8  18  32  53  82 107 150 193 242 303 361
#     4  10  20  38  64  88 120 162 205 253 310 369
#     4  10  20  36  59  89 120 158 209 256 306 365
#
# _framework density 23.248785000000002
#
# number of rings (size 3 to 8) (size 9 to 14) (size 15 to 20)
#    1.200    1.200    2.000    1.200    0.000    0.000 
#   21.600    0.000    4.400    6.000    0.000    0.000 
#    0.000    0.000    0.000    0.000    0.000    0.000 
#
# Total GULP energy -111363.079384 kJ/mol
# GULP energy per Si atom -5568.153969 kJ/mol
# Density = 2.319587 g / cm^3
# Si number density = 23.248785 Si / 1000 Ang^3
#
#
#
# Elastic Constant Matrix: (Units=GPa)
#
#
# Indices 1 2 3 4 5 6 
#
# 1 180.3458 33.2832 44.1939 0.0000 22.2526 0.0000
# 2 33.2832 73.0600 37.6353 0.0000 22.8086 0.0000
# 3 44.1939 37.6353 50.7466 0.0000 17.3808 0.0000
# 4 0.0000 0.0000 0.0000 30.3991 0.0000 12.3839
# 5 22.2526 22.8086 17.3808 0.0000 49.0366 0.0000
# 6 0.0000 0.0000 0.0000 12.3839 0.0000 23.6359
#
#
#
# Elastic Compliance Matrix: (Units=1/GPa)
#
#
# Indices 1 2 3 4 5 6 
#
# 1 0.007110 0.000188 -0.005914 0.000000 -0.001217 0.000000
# 2 0.000188 0.023334 -0.015618 0.000000 -0.005403 0.000000
# 3 -0.005914 -0.015618 0.037595 0.000000 -0.003377 0.000000
# 4 0.000000 0.000000 0.000000 0.041822 0.000000 -0.021913
# 5 -0.001217 -0.005403 -0.003377 0.000000 0.024656 0.000000
# 6 0.000000 0.000000 0.000000 -0.021913 0.000000 0.053790
#
#
# Mechanical properties :
#
#
# Convention : Reuss Voigt Hill
#
# Bulk Modulus (GPa) = 39.44678 59.37524 49.41101
# Shear Modulus (GPa) = 20.88162 33.21699 27.04931
#
# Velocity S-wave (km/s) = 3.00022 3.78400 3.41467
# Velocity P-wave (km/s) = 5.38571 6.68476 6.07008
#
# Compressibility (1/GPa) = 0.02535061
#
# Stress axis : x y z
#
# Youngs Moduli (GPa) = 140.65322 42.85607 26.59896
#
# Poissons Ratio (x) = -0.00804 0.15730
# Poissons Ratio (y) = -0.02638 0.41542
# Poissons Ratio (z) = 0.83179 0.66933
#
# Static dielectric constant tensor:
#      x y z
#    x 1.947480 0.000000 0.046870 
#    y 0.000000 1.865400 0.000000 
#    z 0.046870 0.000000 2.010650 
# 
# From -- ./inp_files/96017.got.cif
#   From: 2010.05.17/outbox.cif.g08.bks.cpg/sg15_49_cif.got.tgz:96017.got - 2010.06.03 18:47:42.
