data_PCOD9271521
_publ_section_title
;
Structure prediction by ZEFSAII (Michael W. Deem and Ramdas Pophale) SiO2 
 PCOD9271521
Probable space group: C 2/C
;
_chemical_formula_sum "Si O2"
_cell_formula_units_Z 40
_cell_length_a 15.073858
_cell_length_b 6.216168
_cell_length_c 17.507807
_cell_angle_alpha 90.000000
_cell_angle_beta 84.558544
_cell_angle_gamma 90.000000
_cell_volume 1633.117345
_symmetry_space_group_name_H-M "C 2/C"
_symmetry_group_IT_number 15
_symmetry_cell_setting 'monoclinic'
loop_
_space_group_symop_operation_xyz
x,y,z
-x,y,1/2-z
-x,-y,-z
x,-y,1/2+z
1/2+x,1/2+y,z
1/2-x,1/2+y,1/2-z
1/2-x,1/2-y,-z
1/2+x,1/2-y,1/2+z
loop_
_atom_site_type_symbol
_atom_site_label
_atom_site_fract_x
_atom_site_fract_y
_atom_site_fract_z
Si Si1 0.640391 0.996764 0.591447
Si Si2 0.200455 0.699214 0.878868
Si Si3 0.457330 0.355180 0.325658
Si Si4 0.299380 0.651931 0.296518
Si Si5 0.006766 0.187608 0.438356
O O1 0.729502 0.846816 0.577250
O O2 0.663252 0.137932 0.664701
O O3 0.584264 0.172469 0.547184
O O4 0.564246 0.820946 0.610928
O O5 0.206488 0.801052 0.792641
O O6 0.104230 0.705618 0.927420
O O7 0.221109 0.447444 0.856563
O O8 0.500000 0.243982 0.250000
O O9 0.367177 0.455472 0.301016
O O10 0.505923 0.559333 0.357215
O O11 0.000000 0.000000 0.500000
#
# Coordination Sequence:
#
# PCOD9271521 Si02
#       5
#     8   8   8   8   8
#     4  10  24  39  62  95 128 168 220 276 334 393
#     4  11  21  38  66  94 130 166 217 276 332 399
#     4  10  21  38  66  96 125 164 222 278 325 394
#     4  10  20  36  60 100 124 158 215 274 337 379
#     4  11  26  44  64  95 136 179 219 270 341 412
#
# _framework density 24.493034000000002
#
# number of rings (size 3 to 8) (size 9 to 14) (size 15 to 20)
#    0.000    1.600    4.000    0.000    2.800    3.200 
#    0.000    9.000    0.000    0.000    0.000    0.000 
#    0.000    0.000    0.000    0.000    0.000    0.000 
#
# Total GULP energy -111380.441442 kJ/mol
# GULP energy per Si atom -5569.022072 kJ/mol
# Density = 2.443729 g / cm^3
# Si number density = 24.493034 Si / 1000 Ang^3
#
#
#
# Elastic Constant Matrix: (Units=GPa)
#
#
# Indices 1 2 3 4 5 6 
#
# 1 84.6910 17.0821 46.9569 0.0000 0.1274 0.0000
# 2 17.0821 92.1708 33.1627 0.0000 10.7999 0.0000
# 3 46.9569 33.1627 78.7093 0.0000 -12.8922 0.0000
# 4 0.0000 0.0000 0.0000 37.0326 0.0000 -3.8196
# 5 0.1274 10.7999 -12.8922 0.0000 21.3040 0.0000
# 6 0.0000 0.0000 0.0000 -3.8196 0.0000 6.7688
#
#
#
# Elastic Compliance Matrix: (Units=1/GPa)
#
#
# Indices 1 2 3 4 5 6 
#
# 1 0.019177 0.002771 -0.014272 0.000000 -0.010156 0.000000
# 2 0.002771 0.015911 -0.010746 0.000000 -0.014586 0.000000
# 3 -0.014272 -0.010746 0.029586 0.000000 0.023437 0.000000
# 4 0.000000 0.000000 0.000000 0.028672 0.000000 0.016179
# 5 -0.010156 -0.014586 0.023437 0.000000 0.068577 0.000000
# 6 0.000000 0.000000 0.000000 0.016179 0.000000 0.156866
#
#
# Mechanical properties :
#
#
# Convention : Reuss Voigt Hill
#
# Bulk Modulus (GPa) = 49.55327 49.99715 49.77521
# Shear Modulus (GPa) = 13.51314 23.57904 18.54609
#
# Velocity S-wave (km/s) = 2.35141 3.10608 2.75471
# Velocity P-wave (km/s) = 5.25810 5.77241 5.52125
#
# Compressibility (1/GPa) = 0.02018030
#
# Stress axis : x y z
#
# Youngs Moduli (GPa) = 52.14600 62.84824 33.80010
#
# Poissons Ratio (x) = -0.17414 0.48238
# Poissons Ratio (y) = -0.14448 0.36322
# Poissons Ratio (z) = 0.74421 0.67537
#
# Static dielectric constant tensor:
#      x y z
#    x 2.133480 0.000000 -0.064320 
#    y 0.000000 1.980840 0.000000 
#    z -0.064320 0.000000 2.032760 
# 
# From -- ./inp_files/207971.got.cif
#   From: 2010.05.17/outbox.cif.g08.bks.cpg/sg15_104_cif.got.tgz:207971.got - 2010.06.03 18:47:42.
