data_PCOD9271186
_publ_section_title
;
Structure prediction by ZEFSAII (Michael W. Deem and Ramdas Pophale) SiO2 
 PCOD9271186
Probable space group: C 2/C
;
_chemical_formula_sum "Si O2"
_cell_formula_units_Z 44
_cell_length_a 9.409341
_cell_length_b 10.996209
_cell_length_c 21.954476
_cell_angle_alpha 90.000000
_cell_angle_beta 54.327292
_cell_angle_gamma 90.000000
_cell_volume 1845.332144
_symmetry_space_group_name_H-M "C 2/C"
_symmetry_group_IT_number 15
_symmetry_cell_setting 'monoclinic'
loop_
_space_group_symop_operation_xyz
x,y,z
-x,y,1/2-z
-x,-y,-z
x,-y,1/2+z
1/2+x,1/2+y,z
1/2-x,1/2+y,1/2-z
1/2-x,1/2-y,-z
1/2+x,1/2-y,1/2+z
loop_
_atom_site_type_symbol
_atom_site_label
_atom_site_fract_x
_atom_site_fract_y
_atom_site_fract_z
Si Si1 0.361467 0.071785 0.940523
Si Si2 0.000000 0.616056 0.250000
Si Si3 0.156519 0.996306 0.888767
Si Si4 0.043690 0.838646 0.322503
Si Si5 0.860651 0.840205 0.897827
Si Si6 0.740307 0.479481 0.167939
O O1 0.372573 0.196980 0.899755
O O2 0.552287 0.015076 0.887939
O O3 0.203745 0.997026 0.948329
O O4 0.305551 0.111117 0.021924
O O5 0.156154 0.535644 0.186801
O O6 0.062662 0.706155 0.288873
O O7 0.024636 0.897569 0.893468
O O8 0.090326 0.125910 0.879126
O O9 0.164376 0.927971 0.250193
O O10 0.844655 0.881327 0.358183
O O11 0.840990 0.894912 0.835744
#
# Coordination Sequence:
#
# PCOD9271186 Si02
#       6
#     8   4   8   8   8   8
#     4  11  22  36  57  83 108 145 188 220 267 326
#     4  10  20  36  58  80 112 142 174 228 274 320
#     4  11  22  36  57  84 110 141 182 225 273 323
#     4   9  20  37  57  82 111 142 179 225 276 325
#     4  10  22  39  56  78 114 147 179 228 267 313
#     4   9  18  37  58  78 108 144 180 220 270 322
#
# _framework density 23.843945999999999
#
# number of rings (size 3 to 8) (size 9 to 14) (size 15 to 20)
#    0.000    2.182    0.000    4.364    0.000    2.909 
#    0.000    5.455    0.000   15.273    0.000    0.000 
#    0.000    0.000    0.000    0.000    0.000    0.000 
#
# Total GULP energy -122929.783423 kJ/mol
# GULP energy per Si atom -5587.717428 kJ/mol
# Density = 2.378968 g / cm^3
# Si number density = 23.843946 Si / 1000 Ang^3
#
#
#
# Elastic Constant Matrix: (Units=GPa)
#
#
# Indices 1 2 3 4 5 6 
#
# 1 114.5721 13.9136 26.7684 0.0000 0.4535 0.0000
# 2 13.9136 50.0349 7.6022 0.0000 7.4129 0.0000
# 3 26.7684 7.6022 51.1699 0.0000 -15.0318 0.0000
# 4 0.0000 0.0000 0.0000 25.9212 0.0000 -3.7947
# 5 0.4535 7.4129 -15.0318 0.0000 31.0365 0.0000
# 6 0.0000 0.0000 0.0000 -3.7947 0.0000 15.0979
#
#
#
# Elastic Compliance Matrix: (Units=1/GPa)
#
#
# Indices 1 2 3 4 5 6 
#
# 1 0.010318 -0.001573 -0.005944 0.000000 -0.002654 0.000000
# 2 -0.001573 0.022261 -0.004710 0.000000 -0.007575 0.000000
# 3 -0.005944 -0.004710 0.027640 0.000000 0.014599 0.000000
# 4 0.000000 0.000000 0.000000 0.040052 0.000000 0.010067
# 5 -0.002654 -0.007575 0.014599 0.000000 0.041139 0.000000
# 6 0.000000 0.000000 0.000000 0.010067 0.000000 0.068765
#
#
# Mechanical properties :
#
#
# Convention : Reuss Voigt Hill
#
# Bulk Modulus (GPa) = 27.95862 34.70502 31.33182
# Shear Modulus (GPa) = 20.27983 25.57731 22.92857
#
# Velocity S-wave (km/s) = 2.91954 3.27876 3.10435
# Velocity P-wave (km/s) = 4.80792 5.37776 5.10080
#
# Compressibility (1/GPa) = 0.03576715
#
# Stress axis : x y z
#
# Youngs Moduli (GPa) = 96.91501 44.92088 36.17921
#
# Poissons Ratio (x) = 0.07066 0.21504
# Poissons Ratio (y) = 0.15245 0.17039
# Poissons Ratio (z) = 0.57603 0.21156
#
# Static dielectric constant tensor:
#      x y z
#    x 1.986550 0.000000 0.063330 
#    y 0.000000 1.875770 0.000000 
#    z 0.063330 0.000000 1.922050 
# 
# From -- ./inp_files/230213.got.cif
#   From: 2010.05.17/outbox.cif.g08.bks.cpg/sg15_116_cif.got.tgz:230213.got - 2010.06.03 18:47:42.
