data_PCOD9271457
_publ_section_title
;
Structure prediction by ZEFSAII (Michael W. Deem and Ramdas Pophale) SiO2 
 PCOD9271457
Probable space group: C 2/C
;
_chemical_formula_sum "Si O2"
_cell_formula_units_Z 48
_cell_length_a 12.772607
_cell_length_b 6.582380
_cell_length_c 26.345395
_cell_angle_alpha 90.000000
_cell_angle_beta 60.204000
_cell_angle_gamma 90.000000
_cell_volume 1922.148485
_symmetry_space_group_name_H-M "C 2/C"
_symmetry_group_IT_number 15
_symmetry_cell_setting 'monoclinic'
loop_
_space_group_symop_operation_xyz
x,y,z
-x,y,1/2-z
-x,-y,-z
x,-y,1/2+z
1/2+x,1/2+y,z
1/2-x,1/2+y,1/2-z
1/2-x,1/2-y,-z
1/2+x,1/2-y,1/2+z
loop_
_atom_site_type_symbol
_atom_site_label
_atom_site_fract_x
_atom_site_fract_y
_atom_site_fract_z
Si Si1 0.325671 0.343923 0.300269
Si Si2 0.870669 0.735311 0.828136
Si Si3 0.640008 0.305983 0.920101
Si Si4 0.809475 0.392898 0.555331
Si Si5 0.102590 0.039249 0.033244
Si Si6 0.109976 0.483614 0.281993
O O1 0.395396 0.525059 0.311658
O O2 0.263359 0.200488 0.358107
O O3 0.211006 0.448181 0.299540
O O4 0.391615 0.209465 0.241472
O O5 0.751614 0.737679 0.890741
O O6 0.855158 0.647150 0.775937
O O7 0.980243 0.611416 0.827454
O O8 0.536264 0.437754 0.917378
O O9 0.616740 0.063535 0.933350
O O10 0.629404 0.388216 0.980379
O O11 0.872158 0.261124 0.497250
O O12 0.695396 0.499726 0.555521
#
# Coordination Sequence:
#
# PCOD9271457 Si02
#       6
#     8   8   8   8   8   8
#     4  11  22  41  63  91 126 167 212 262 316 376
#     4  10  23  39  61  91 122 166 213 258 316 378
#     4  10  21  36  60  88 120 160 202 250 307 370
#     4  10  20  37  59  86 122 158 200 251 305 368
#     4  10  20  36  59  88 123 157 199 249 305 368
#     4  11  22  40  63  87 126 163 212 261 318 374
#
# _framework density 24.972058000000001
#
# number of rings (size 3 to 8) (size 9 to 14) (size 15 to 20)
#    0.000    1.667    1.667    3.000    0.000    2.667 
#    0.000    0.000    3.667    0.000    0.000    0.000 
#    0.000    0.000    0.000    0.000    0.000    0.000 
#
# Total GULP energy -134088.802059 kJ/mol
# GULP energy per Si atom -5587.033419 kJ/mol
# Density = 2.491522 g / cm^3
# Si number density = 24.972058 Si / 1000 Ang^3
#
#
#
# Elastic Constant Matrix: (Units=GPa)
#
#
# Indices 1 2 3 4 5 6 
#
# 1 76.6465 28.8084 10.4621 0.0000 -16.4171 0.0000
# 2 28.8084 96.1249 8.7624 0.0000 -14.0619 0.0000
# 3 10.4621 8.7624 56.2520 0.0000 -11.8018 0.0000
# 4 0.0000 0.0000 0.0000 50.5014 0.0000 -2.8916
# 5 -16.4171 -14.0619 -11.8018 0.0000 30.4019 0.0000
# 6 0.0000 0.0000 0.0000 -2.8916 0.0000 31.3530
#
#
#
# Elastic Compliance Matrix: (Units=1/GPa)
#
#
# Indices 1 2 3 4 5 6 
#
# 1 0.015988 -0.003747 -0.001026 0.000000 0.006502 0.000000
# 2 -0.003747 0.012063 -0.000475 0.000000 0.003372 0.000000
# 3 -0.001026 -0.000475 0.019465 0.000000 0.006783 0.000000
# 4 0.000000 0.000000 0.000000 0.019907 0.000000 0.001836
# 5 0.006502 0.003372 0.006783 0.000000 0.040597 0.000000
# 6 0.000000 0.000000 0.000000 0.001836 0.000000 0.032064
#
#
# Mechanical properties :
#
#
# Convention : Reuss Voigt Hill
#
# Bulk Modulus (GPa) = 27.01178 36.12101 31.56640
# Shear Modulus (GPa) = 30.69039 34.51729 32.60384
#
# Velocity S-wave (km/s) = 3.50950 3.72188 3.61725
# Velocity P-wave (km/s) = 5.22134 5.74159 5.48763
#
# Compressibility (1/GPa) = 0.03702088
#
# Stress axis : x y z
#
# Youngs Moduli (GPa) = 62.54707 82.90111 51.37460
#
# Poissons Ratio (x) = 0.31062 0.05269
# Poissons Ratio (y) = 0.23435 0.02439
# Poissons Ratio (z) = 0.06415 0.03936
#
# Static dielectric constant tensor:
#      x y z
#    x 2.024190 0.000000 -0.080820 
#    y 0.000000 2.022690 0.000000 
#    z -0.080820 0.000000 1.966080 
# 
# From -- ./inp_files/312250.got.cif
#   From: 2010.05.17/outbox.cif.g08.bks.cpg/sg15_157_cif.got.tgz:312250.got - 2010.06.03 18:47:42.
