data_PCOD9271299
_publ_section_title
;
Structure prediction by ZEFSAII (Michael W. Deem and Ramdas Pophale) SiO2 
 PCOD9271299
Probable space group: C 2/C
;
_chemical_formula_sum "Si O2"
_cell_formula_units_Z 28
_cell_length_a 13.359785
_cell_length_b 8.472069
_cell_length_c 12.992394
_cell_angle_alpha 90.000000
_cell_angle_beta 57.302472
_cell_angle_gamma 90.000000
_cell_volume 1237.513225
_symmetry_space_group_name_H-M "C 2/C"
_symmetry_group_IT_number 15
_symmetry_cell_setting 'monoclinic'
loop_
_space_group_symop_operation_xyz
x,y,z
-x,y,1/2-z
-x,-y,-z
x,-y,1/2+z
1/2+x,1/2+y,z
1/2-x,1/2+y,1/2-z
1/2-x,1/2-y,-z
1/2+x,1/2-y,1/2+z
loop_
_atom_site_type_symbol
_atom_site_label
_atom_site_fract_x
_atom_site_fract_y
_atom_site_fract_z
Si Si1 0.500000 0.076969 0.750000
Si Si2 0.362299 0.464613 0.070265
Si Si3 0.797589 0.424857 0.000178
Si Si4 0.196279 0.285754 0.288316
O O1 0.412530 0.181755 0.728370
O O2 0.415300 0.972856 0.871649
O O3 0.306497 0.462609 0.987069
O O4 0.317448 0.315147 0.158424
O O5 0.305173 0.614103 0.160974
O O6 0.500000 0.500000 0.000000
O O7 0.815371 0.411370 0.111664
O O8 0.750000 0.250000 0.000000
#
# Coordination Sequence:
#
# PCOD9271299 Si02
#       4
#     4   8   8   8
#     4  10  20  36  58  88 116 150 200 246 290 338
#     4  10  23  40  60  88 118 154 197 239 292 349
#     4   9  20  36  57  82 115 156 192 232 290 352
#     4  10  22  39  59  85 117 155 194 242 290 345
#
# _framework density 22.626021999999999
#
# number of rings (size 3 to 8) (size 9 to 14) (size 15 to 20)
#    0.000    2.286    0.000    0.857    0.000   19.429 
#    0.000    5.714    0.000    0.000    0.000    0.000 
#    0.000    0.000    0.000    0.000    0.000    0.000 
#
# Total GULP energy -78197.381100 kJ/mol
# GULP energy per Si atom -5585.527221 kJ/mol
# Density = 2.257452 g / cm^3
# Si number density = 22.626022 Si / 1000 Ang^3
#
#
#
# Elastic Constant Matrix: (Units=GPa)
#
#
# Indices 1 2 3 4 5 6 
#
# 1 123.3864 -5.8973 33.6741 0.0000 9.3210 0.0000
# 2 -5.8973 43.5368 -7.1573 0.0000 8.1428 0.0000
# 3 33.6741 -7.1573 40.1238 0.0000 -9.0649 0.0000
# 4 0.0000 0.0000 0.0000 38.6622 0.0000 3.6259
# 5 9.3210 8.1428 -9.0649 0.0000 45.1818 0.0000
# 6 0.0000 0.0000 0.0000 3.6259 0.0000 9.9384
#
#
#
# Elastic Compliance Matrix: (Units=1/GPa)
#
#
# Indices 1 2 3 4 5 6 
#
# 1 0.011320 0.000672 -0.010408 0.000000 -0.004545 0.000000
# 2 0.000672 0.024269 0.002876 0.000000 -0.003936 0.000000
# 3 -0.010408 0.002876 0.036178 0.000000 0.008887 0.000000
# 4 0.000000 0.000000 0.000000 0.026781 0.000000 -0.009771
# 5 -0.004545 -0.003936 0.008887 0.000000 0.025563 0.000000
# 6 0.000000 0.000000 0.000000 -0.009771 0.000000 0.104184
#
#
# Mechanical properties :
#
#
# Convention : Reuss Voigt Hill
#
# Bulk Modulus (GPa) = 17.22692 27.58732 22.40712
# Shear Modulus (GPa) = 19.13034 31.18498 25.15766
#
# Velocity S-wave (km/s) = 2.91091 3.71655 3.33812
# Velocity P-wave (km/s) = 4.35065 5.53499 4.97817
#
# Compressibility (1/GPa) = 0.05804868
#
# Stress axis : x y z
#
# Youngs Moduli (GPa) = 88.33554 41.20487 27.64089
#
# Poissons Ratio (x) = -0.02771 0.28767
# Poissons Ratio (y) = -0.05940 -0.07948
# Poissons Ratio (z) = 0.91936 -0.11849
#
# Static dielectric constant tensor:
#      x y z
#    x 1.871730 0.000000 0.027210 
#    y 0.000000 1.861610 0.000000 
#    z 0.027210 0.000000 1.843030 
# 
# From -- ./inp_files/246138.got.cif
#   From: 2010.05.17/outbox.cif.g08.bks.cpg/sg15_124_cif.got.tgz:246138.got - 2010.06.03 18:47:42.
