data_PCOD9271999
_publ_section_title
;
Structure prediction by ZEFSAII (Michael W. Deem and Ramdas Pophale) SiO2 
 PCOD9271999
Probable space group: C 2/C
;
_chemical_formula_sum "Si O2"
_cell_formula_units_Z 40
_cell_length_a 19.113999
_cell_length_b 7.883906
_cell_length_c 14.778791
_cell_angle_alpha 90.000000
_cell_angle_beta 141.278542
_cell_angle_gamma 90.000000
_cell_volume 1393.103696
_symmetry_space_group_name_H-M "C 2/C"
_symmetry_group_IT_number 15
_symmetry_cell_setting 'monoclinic'
loop_
_space_group_symop_operation_xyz
x,y,z
-x,y,1/2-z
-x,-y,-z
x,-y,1/2+z
1/2+x,1/2+y,z
1/2-x,1/2+y,1/2-z
1/2-x,1/2-y,-z
1/2+x,1/2-y,1/2+z
loop_
_atom_site_type_symbol
_atom_site_label
_atom_site_fract_x
_atom_site_fract_y
_atom_site_fract_z
Si Si1 0.613852 0.545974 0.259226
Si Si2 0.377285 0.683109 0.049800
Si Si3 0.646668 0.933934 0.952618
Si Si4 0.345377 0.263828 0.874224
Si Si5 0.333342 0.971639 0.731630
O O1 0.480647 0.556845 0.135454
O O2 0.637019 0.695312 0.355904
O O3 0.715964 0.429529 0.398805
O O4 0.628659 0.584969 0.168976
O O5 0.386065 0.882534 0.037479
O O6 0.276743 0.582988 0.903799
O O7 0.607278 0.784868 0.979296
O O8 0.615441 0.926945 0.815029
O O9 0.214507 0.308069 0.763608
O O10 0.385717 0.101930 0.855571
#
# Coordination Sequence:
#
# PCOD9271999 Si02
#       5
#     8   8   8   8   8
#     4  10  20  36  63  85 114 158 195 225 297 355
#     4  10  20  38  62  83 118 156 191 239 288 346
#     4  11  21  40  61  88 119 154 192 245 290 340
#     4  12  21  37  62  88 115 156 198 238 288 353
#     4  11  21  38  60  89 116 155 195 240 290 343
#
# _framework density 28.712866999999999
#
# number of rings (size 3 to 8) (size 9 to 14) (size 15 to 20)
#    0.000    1.200    6.000    1.800    0.000    1.600 
#    0.000    0.000    0.000    2.400    0.000    0.000 
#    0.000    0.000    0.000    0.000    0.000    0.000 
#
# Total GULP energy -111392.318184 kJ/mol
# GULP energy per Si atom -5569.615909 kJ/mol
# Density = 2.864752 g / cm^3
# Si number density = 28.712867 Si / 1000 Ang^3
#
#
#
# Elastic Constant Matrix: (Units=GPa)
#
#
# Indices 1 2 3 4 5 6 
#
# 1 140.0912 17.5758 52.1652 0.0000 -47.0503 0.0000
# 2 17.5758 109.2232 15.5833 0.0000 -18.1361 0.0000
# 3 52.1652 15.5833 74.5788 0.0000 -13.1469 0.0000
# 4 0.0000 0.0000 0.0000 28.5410 0.0000 -20.1391
# 5 -47.0503 -18.1361 -13.1469 0.0000 65.8829 0.0000
# 6 0.0000 0.0000 0.0000 -20.1391 0.0000 21.7765
#
#
#
# Elastic Compliance Matrix: (Units=1/GPa)
#
#
# Indices 1 2 3 4 5 6 
#
# 1 0.012346 0.000301 -0.007389 0.000000 0.007425 0.000000
# 2 0.000301 0.009788 -0.001806 0.000000 0.002549 0.000000
# 3 -0.007389 -0.001806 0.018591 0.000000 -0.002065 0.000000
# 4 0.000000 0.000000 0.000000 0.100844 0.000000 0.093262
# 5 0.007425 0.002549 -0.002065 0.000000 0.020771 0.000000
# 6 0.000000 0.000000 0.000000 0.093262 0.000000 0.132170
#
#
# Mechanical properties :
#
#
# Convention : Reuss Voigt Hill
#
# Bulk Modulus (GPa) = 43.60230 54.94908 49.27569
# Shear Modulus (GPa) = 15.62774 39.14468 27.38621
#
# Velocity S-wave (km/s) = 2.33550 3.69632 3.09171
# Velocity P-wave (km/s) = 4.74251 6.11523 5.47208
#
# Compressibility (1/GPa) = 0.02293457
#
# Stress axis : x y z
#
# Youngs Moduli (GPa) = 80.99974 102.16502 53.79053
#
# Poissons Ratio (x) = -0.03070 0.39747
# Poissons Ratio (y) = -0.02434 0.09715
# Poissons Ratio (z) = 0.59853 0.18452
#
# Static dielectric constant tensor:
#      x y z
#    x 2.398140 0.000000 0.101550 
#    y 0.000000 2.303110 0.000000 
#    z 0.101550 0.000000 2.312060 
# 
# From -- ./inp_files/165867.got.cif
#   From: 2010.05.17/outbox.cif.g08.bks.cpg/sg15_83_cif.got.tgz:165867.got - 2010.06.03 18:47:42.
