data_PCOD9271272
_publ_section_title
;
Structure prediction by ZEFSAII (Michael W. Deem and Ramdas Pophale) SiO2 
 PCOD9271272
Probable space group: C 2/C
;
_chemical_formula_sum "Si O2"
_cell_formula_units_Z 56
_cell_length_a 11.326948
_cell_length_b 8.888434
_cell_length_c 27.265498
_cell_angle_alpha 90.000000
_cell_angle_beta 71.269371
_cell_angle_gamma 90.000000
_cell_volume 2599.676705
_symmetry_space_group_name_H-M "C 2/C"
_symmetry_group_IT_number 15
_symmetry_cell_setting 'monoclinic'
loop_
_space_group_symop_operation_xyz
x,y,z
-x,y,1/2-z
-x,-y,-z
x,-y,1/2+z
1/2+x,1/2+y,z
1/2-x,1/2+y,1/2-z
1/2-x,1/2-y,-z
1/2+x,1/2-y,1/2+z
loop_
_atom_site_type_symbol
_atom_site_label
_atom_site_fract_x
_atom_site_fract_y
_atom_site_fract_z
Si Si1 0.500000 0.343713 0.750000
Si Si2 0.500000 0.156474 0.250000
Si Si3 0.515141 0.904477 0.323078
Si Si4 0.191461 0.889184 0.100638
Si Si5 0.894660 0.922681 0.981245
Si Si6 0.812426 0.910789 0.284104
Si Si7 0.008873 0.397452 0.439962
Si Si8 0.819624 0.620338 0.459296
O O1 0.535350 0.237858 0.699981
O O2 0.616136 0.448465 0.748671
O O3 0.382712 0.263486 0.255485
O O4 0.470358 0.050376 0.299824
O O5 0.665467 0.905055 0.296777
O O6 0.485502 0.897080 0.384068
O O7 0.161344 0.922527 0.160851
O O8 0.341857 0.898389 0.074739
O O9 0.157839 0.715958 0.092511
O O10 0.125734 0.999549 0.069702
O O11 0.938511 0.750738 0.969602
O O12 0.769733 0.974414 0.027073
O O13 0.000000 0.000000 0.000000
O O14 0.947648 0.556515 0.463546
O O15 0.750000 0.750000 0.500000
#
# Coordination Sequence:
#
# PCOD9271272 Si02
#       8
#     4   4   8   8   8   8   8   8
#     4  10  20  36  58  86 120 148 190 236 284 352
#     4  10  20  36  60  86 120 152 192 234 288 356
#     4  10  21  36  59  87 117 150 194 236 291 351
#     4  10  22  40  59  87 120 153 200 246 295 354
#     4  11  22  40  61  86 117 156 203 246 300 357
#     4  10  20  36  60  85 117 156 189 236 291 344
#     4  11  22  40  62  85 119 158 194 251 302 346
#     4  10  22  40  60  84 116 153 200 244 293 355
#
# _framework density 21.541139000000001
#
# number of rings (size 3 to 8) (size 9 to 14) (size 15 to 20)
#    0.000    1.714    1.429    3.000    0.000    2.286 
#    5.143    0.000    6.286    0.000    0.000    0.000 
#    0.000    0.000    0.000    0.000    0.000    0.000 
#
# Total GULP energy -156293.212153 kJ/mol
# GULP energy per Si atom -5581.900434 kJ/mol
# Density = 2.149211 g / cm^3
# Si number density = 21.541139 Si / 1000 Ang^3
#
#
#
# Elastic Constant Matrix: (Units=GPa)
#
#
# Indices 1 2 3 4 5 6 
#
# 1 76.9764 41.3932 -10.3606 0.0000 3.9163 0.0000
# 2 41.3932 140.2016 30.2545 0.0000 -4.7231 0.0000
# 3 -10.3606 30.2545 48.6421 0.0000 10.7434 0.0000
# 4 0.0000 0.0000 0.0000 -673.8128 0.0000 -248.7525
# 5 3.9163 -4.7231 10.7434 0.0000 35.9832 0.0000
# 6 0.0000 0.0000 0.0000 -248.7525 0.0000 -51.3762
#
#
#
# Elastic Compliance Matrix: (Units=1/GPa)
#
#
# Indices 1 2 3 4 5 6 
#
# 1 0.019084 -0.008111 0.010496 0.000000 -0.006275 0.000000
# 2 -0.008111 0.011957 -0.010391 0.000000 0.005555 0.000000
# 3 0.010496 -0.010391 0.031915 0.000000 -0.012035 0.000000
# 4 0.000000 0.000000 0.000000 0.001885 0.000000 -0.009125
# 5 -0.006275 0.005555 -0.012035 0.000000 0.032796 0.000000
# 6 0.000000 0.000000 0.000000 -0.009125 0.000000 0.024718
#
#
# Mechanical properties :
#
#
# Convention : Reuss Voigt Hill
#
# Bulk Modulus (GPa) = 21.30214 43.15492 32.22853
# Shear Modulus (GPa) = 32.46419 -124.20563 -45.87072
#
# Velocity S-wave (km/s) = 3.88632 -7.60164 -4.61960
# Velocity P-wave (km/s) = 5.48165 7.54780 3.66884
#
# Compressibility (1/GPa) = 0.04694364
#
# Stress axis : x y z
#
# Youngs Moduli (GPa) = 52.39872 83.63506 31.33302
#
# Poissons Ratio (x) = 0.67835 -0.32886
# Poissons Ratio (y) = 0.42500 0.32559
# Poissons Ratio (z) = -0.54996 0.86907
#
# Static dielectric constant tensor:
#      x y z
#    x 1.780410 0.000000 0.020420 
#    y 0.000000 1.783070 0.000000 
#    z 0.020420 0.000000 1.834720 
# 
# From -- ./inp_files/309953.got.cif
#   From: 2010.05.17/outbox.cif.g08.bks.cpg/sg15_155_cif.got.tgz:309953.got - 2010.06.03 18:47:42.
