data_PCOD9271854
_publ_section_title
;
Structure prediction by ZEFSAII (Michael W. Deem and Ramdas Pophale) SiO2 
 PCOD9271854
Probable space group: C 2/C
;
_chemical_formula_sum "Si O2"
_cell_formula_units_Z 48
_cell_length_a 26.356539
_cell_length_b 9.362799
_cell_length_c 21.841635
_cell_angle_alpha 90.000000
_cell_angle_beta 19.842175
_cell_angle_gamma 90.000000
_cell_volume 1829.489691
_symmetry_space_group_name_H-M "C 2/C"
_symmetry_group_IT_number 15
_symmetry_cell_setting 'monoclinic'
loop_
_space_group_symop_operation_xyz
x,y,z
-x,y,1/2-z
-x,-y,-z
x,-y,1/2+z
1/2+x,1/2+y,z
1/2-x,1/2+y,1/2-z
1/2-x,1/2-y,-z
1/2+x,1/2-y,1/2+z
loop_
_atom_site_type_symbol
_atom_site_label
_atom_site_fract_x
_atom_site_fract_y
_atom_site_fract_z
Si Si1 0.508515 0.767703 0.571659
Si Si2 0.353279 0.494916 0.208332
Si Si3 0.843845 0.921018 0.978567
Si Si4 0.379764 0.291677 0.784609
Si Si5 0.786810 0.559717 0.249970
Si Si6 0.564652 0.982046 0.744231
O O1 0.381943 0.642038 0.717977
O O2 0.663916 0.687032 0.386188
O O3 0.745748 0.971251 0.548057
O O4 0.506089 0.856637 0.636447
O O5 0.361147 0.634108 0.240607
O O6 0.221940 0.492752 0.307609
O O7 0.500000 0.500000 0.000000
O O8 0.941395 0.632742 0.094036
O O9 0.788020 0.767872 0.015234
O O10 0.774577 0.957187 0.125436
O O11 0.019425 0.902287 0.791111
O O12 0.463720 0.138540 0.692938
O O13 0.500000 0.981353 0.750000
#
# Coordination Sequence:
#
# PCOD9271854 Si02
#       6
#     8   8   8   8   8   8
#     4  10  21  39  63  86 122 160 199 248 290 355
#     4  10  20  36  62  85 128 157 191 239 302 345
#     4   9  20  38  58  89 122 149 200 251 284 355
#     4  10  20  37  64  85 122 157 197 249 289 359
#     4  10  21  38  58  91 127 155 192 247 292 351
#     4   9  22  41  62  86 121 152 203 256 295 341
#
# _framework density 26.236823999999999
#
# number of rings (size 3 to 8) (size 9 to 14) (size 15 to 20)
#    1.000    1.333    3.333    0.000    2.333    2.000 
#    0.000    8.333    0.000    0.000    0.000    0.000 
#    0.000    0.000    0.000    0.000    0.000    0.000 
#
# Total GULP energy -133954.915089 kJ/mol
# GULP energy per Si atom -5581.454795 kJ/mol
# Density = 2.617711 g / cm^3
# Si number density = 26.236824 Si / 1000 Ang^3
#
#
#
# Elastic Constant Matrix: (Units=GPa)
#
#
# Indices 1 2 3 4 5 6 
#
# 1 221.2654 65.0607 33.6359 -0.0001 -26.7740 0.0000
# 2 65.0607 118.8728 9.3392 0.0003 10.3483 0.0000
# 3 33.6359 9.3392 101.2012 0.0002 -31.6117 0.0000
# 4 -0.0001 0.0003 0.0002 41.3113 0.0000 -1.9650
# 5 -26.7740 10.3483 -31.6117 0.0000 45.0556 -0.0001
# 6 0.0000 0.0000 0.0000 -1.9650 -0.0001 51.0105
#
#
#
# Elastic Compliance Matrix: (Units=1/GPa)
#
#
# Indices 1 2 3 4 5 6 
#
# 1 0.006190 -0.003730 -0.000380 0.000000 0.004269 0.000000
# 2 -0.003730 0.011096 -0.001630 0.000000 -0.005909 0.000000
# 3 -0.000380 -0.001630 0.013068 0.000000 0.009318 0.000000
# 4 0.000000 0.000000 0.000000 0.024251 0.000000 0.000934
# 5 0.004269 -0.005909 0.009318 0.000000 0.032626 0.000000
# 6 0.000000 0.000000 0.000000 0.000934 0.000000 0.019640
#
#
# Mechanical properties :
#
#
# Convention : Reuss Voigt Hill
#
# Bulk Modulus (GPa) = 52.97808 73.04565 63.01186
# Shear Modulus (GPa) = 40.11446 49.69571 44.90509
#
# Velocity S-wave (km/s) = 3.91440 4.35687 4.14155
# Velocity P-wave (km/s) = 6.37700 7.29459 6.85118
#
# Compressibility (1/GPa) = 0.01887573
#
# Stress axis : x y z
#
# Youngs Moduli (GPa) = 161.53810 90.12085 76.51988
#
# Poissons Ratio (x) = 0.33614 0.02907
# Poissons Ratio (y) = 0.60252 0.12472
# Poissons Ratio (z) = 0.06136 0.14689
#
# Static dielectric constant tensor:
#      x y z
#    x 2.110580 0.000000 0.017520 
#    y 0.000000 2.002390 0.000000 
#    z 0.017520 0.000000 2.155110 
# 
# From -- ./inp_files/281334.got.cif
#   From: 2010.05.17/outbox.cif.g08.bks.cpg/sg15_141_cif.got.tgz:281334.got - 2010.06.03 18:47:42.
