data_PCOD9271861
_publ_section_title
;
Structure prediction by ZEFSAII (Michael W. Deem and Ramdas Pophale) SiO2 
 PCOD9271861
Probable space group: C 2/C
;
_chemical_formula_sum "Si O2"
_cell_formula_units_Z 48
_cell_length_a 27.259119
_cell_length_b 13.091373
_cell_length_c 16.634206
_cell_angle_alpha 90.000000
_cell_angle_beta 157.197304
_cell_angle_gamma 90.000000
_cell_volume 2300.577530
_symmetry_space_group_name_H-M "C 2/C"
_symmetry_group_IT_number 15
_symmetry_cell_setting 'monoclinic'
loop_
_space_group_symop_operation_xyz
x,y,z
-x,y,1/2-z
-x,-y,-z
x,-y,1/2+z
1/2+x,1/2+y,z
1/2-x,1/2+y,1/2-z
1/2-x,1/2-y,-z
1/2+x,1/2-y,1/2+z
loop_
_atom_site_type_symbol
_atom_site_label
_atom_site_fract_x
_atom_site_fract_y
_atom_site_fract_z
Si Si1 0.237764 0.837398 0.751023
Si Si2 0.777657 0.918890 0.506761
Si Si3 0.149059 0.024994 0.723405
Si Si4 0.374484 0.843907 0.505453
Si Si5 0.623471 0.992653 0.632731
Si Si6 0.619812 0.222163 0.882532
O O1 0.191074 0.941522 0.720869
O O2 0.142168 0.768690 0.556594
O O3 0.348392 0.880131 0.860250
O O4 0.278533 0.773300 0.891322
O O5 0.807972 0.998590 0.621541
O O6 0.667763 0.849035 0.382876
O O7 0.891167 0.837431 0.665679
O O8 0.736534 0.971184 0.362408
O O9 0.235507 0.123983 0.832042
O O10 0.000000 0.000000 0.500000
O O11 0.394275 0.926804 0.465426
O O12 0.500000 0.849472 0.750000
O O13 0.500000 0.000000 0.500000
O O14 0.500000 0.181088 0.750000
#
# Coordination Sequence:
#
# PCOD9271861 Si02
#       6
#     8   8   8   8   8   8
#     4  10  23  40  61  95 125 171 211 269 324 391
#     4  10  21  37  59  92 115 157 212 255 304 384
#     4  10  24  42  65  94 134 165 216 272 325 384
#     4  11  24  44  64  93 134 174 214 269 335 393
#     4  11  22  39  65  91 128 169 221 263 325 390
#     4  10  20  36  62  86 118 154 208 260 312 361
#
# _framework density 20.864326999999999
#
# number of rings (size 3 to 8) (size 9 to 14) (size 15 to 20)
#    0.000    1.667    1.667    2.000    2.333    7.333 
#    0.000    2.500    0.000    0.000    0.000    0.000 
#    0.000    0.000    0.000    0.000    0.000    0.000 
#
# Total GULP energy -133675.988065 kJ/mol
# GULP energy per Si atom -5569.832836 kJ/mol
# Density = 2.081684 g / cm^3
# Si number density = 20.864327 Si / 1000 Ang^3
#
#
#
# Elastic Constant Matrix: (Units=GPa)
#
#
# Indices 1 2 3 4 5 6 
#
# 1 85.5009 10.6017 21.7078 0.0000 -12.2142 0.0000
# 2 10.6017 44.0612 8.1699 0.0000 -22.7627 0.0000
# 3 21.7078 8.1699 80.3021 0.0000 -19.0125 0.0000
# 4 0.0000 0.0000 0.0000 7.4311 0.0000 2.1596
# 5 -12.2142 -22.7627 -19.0125 0.0000 40.8884 0.0000
# 6 0.0000 0.0000 0.0000 2.1596 0.0000 13.2845
#
#
#
# Elastic Compliance Matrix: (Units=1/GPa)
#
#
# Indices 1 2 3 4 5 6 
#
# 1 0.012878 -0.001787 -0.002949 0.000000 0.001481 0.000000
# 2 -0.001787 0.032189 0.001488 0.000000 0.018078 0.000000
# 3 -0.002949 0.001488 0.014705 0.000000 0.006785 0.000000
# 4 0.000000 0.000000 0.000000 0.141242 0.000000 -0.022961
# 5 0.001481 0.018078 0.006785 0.000000 0.038118 0.000000
# 6 0.000000 0.000000 0.000000 -0.022961 0.000000 0.079008
#
#
# Mechanical properties :
#
#
# Convention : Reuss Voigt Hill
#
# Bulk Modulus (GPa) = 18.76960 32.31364 25.54162
# Shear Modulus (GPa) = 14.60306 23.61314 19.10810
#
# Velocity S-wave (km/s) = 2.64844 3.36779 3.02955
# Velocity P-wave (km/s) = 4.28578 5.53569 4.95034
#
# Compressibility (1/GPa) = 0.05327765
#
# Stress axis : x y z
#
# Youngs Moduli (GPa) = 77.65461 31.06652 68.00320
#
# Poissons Ratio (x) = 0.05550 0.20052
# Poissons Ratio (y) = 0.13874 -0.10121
# Poissons Ratio (z) = 0.22898 -0.04624
#
# Static dielectric constant tensor:
#      x y z
#    x -0.577860 0.000000 -1.883230 
#    y 0.000000 1.784970 0.000000 
#    z -1.883230 0.000000 0.273510 
# 
# From -- ./inp_files/143556.got.cif
#   From: 2010.05.17/outbox.cif.g08.bks.cpg/sg15_72_cif.got.tgz:143556.got - 2010.06.03 18:47:42.
