data_PCOD9271523
_publ_section_title
;
Structure prediction by ZEFSAII (Michael W. Deem and Ramdas Pophale) SiO2 
 PCOD9271523
Probable space group: C 2/C
;
_chemical_formula_sum "Si O2"
_cell_formula_units_Z 44
_cell_length_a 5.157302
_cell_length_b 19.806044
_cell_length_c 16.228877
_cell_angle_alpha 90.000000
_cell_angle_beta 90.950867
_cell_angle_gamma 90.000000
_cell_volume 1657.482541
_symmetry_space_group_name_H-M "C 2/C"
_symmetry_group_IT_number 15
_symmetry_cell_setting 'monoclinic'
loop_
_space_group_symop_operation_xyz
x,y,z
-x,y,1/2-z
-x,-y,-z
x,-y,1/2+z
1/2+x,1/2+y,z
1/2-x,1/2+y,1/2-z
1/2-x,1/2-y,-z
1/2+x,1/2-y,1/2+z
loop_
_atom_site_type_symbol
_atom_site_label
_atom_site_fract_x
_atom_site_fract_y
_atom_site_fract_z
Si Si1 0.894325 0.002468 0.841001
Si Si2 0.761567 0.819340 0.949733
Si Si3 0.449404 0.348979 0.349129
Si Si4 0.000000 0.406212 0.750000
Si Si5 0.255000 0.106730 0.408432
Si Si6 0.948817 0.284895 0.344998
O O1 0.655803 0.952890 0.817725
O O2 0.000000 0.013843 0.750000
O O3 0.119324 0.966671 0.895426
O O4 0.833762 0.077721 0.869573
O O5 0.522348 0.869802 0.951141
O O6 0.801717 0.785469 0.858470
O O7 0.033815 0.855863 0.958744
O O8 0.750000 0.750000 0.000000
O O9 0.500000 0.341773 0.250000
O O10 0.745822 0.340025 0.379460
O O11 0.241428 0.293860 0.379762
O O12 0.200543 0.371310 0.688237
O O13 0.000000 0.297707 0.250000
#
# Coordination Sequence:
#
# PCOD9271523 Si02
#       6
#     8   8   8   4   8   8
#     4   9  19  33  61  95 126 153 189 255 325 367
#     4  12  26  43  62  84 125 173 212 256 305 366
#     4   9  19  34  58  90 128 152 193 247 314 375
#     4  10  20  36  60 104 120 152 192 262 314 366
#     4  11  23  38  62  92 122 157 207 253 308 364
#     4  10  22  37  59  90 117 163 202 252 300 366
#
# _framework density 26.546279999999999
#
# number of rings (size 3 to 8) (size 9 to 14) (size 15 to 20)
#    0.000    1.818    1.818    1.636   11.455    0.000 
#    0.000    0.000    0.000    6.545    0.000    0.000 
#    0.000    0.000    0.000    0.000    0.000    0.000 
#
# Total GULP energy -122653.532124 kJ/mol
# GULP energy per Si atom -5575.160551 kJ/mol
# Density = 2.648586 g / cm^3
# Si number density = 26.546280 Si / 1000 Ang^3
#
#
#
# Elastic Constant Matrix: (Units=GPa)
#
#
# Indices 1 2 3 4 5 6 
#
# 1 196.0750 36.7488 16.9370 0.0000 -1.3944 0.0000
# 2 36.7488 56.6944 7.5518 0.0000 1.4777 0.0000
# 3 16.9370 7.5518 48.6163 0.0000 1.6188 0.0000
# 4 0.0000 0.0000 0.0000 32.7583 0.0000 -2.9990
# 5 -1.3944 1.4777 1.6188 0.0000 36.9545 0.0000
# 6 0.0000 0.0000 0.0000 -2.9990 0.0000 32.0439
#
#
#
# Elastic Compliance Matrix: (Units=1/GPa)
#
#
# Indices 1 2 3 4 5 6 
#
# 1 0.005917 -0.003646 -0.001510 0.000000 0.000435 0.000000
# 2 -0.003646 0.020270 -0.001850 0.000000 -0.000867 0.000000
# 3 -0.001510 -0.001850 0.021413 0.000000 -0.000921 0.000000
# 4 0.000000 0.000000 0.000000 0.030790 0.000000 0.002882
# 5 0.000435 -0.000867 -0.000921 0.000000 0.027152 0.000000
# 6 0.000000 0.000000 0.000000 0.002882 0.000000 0.031477
#
#
# Mechanical properties :
#
#
# Convention : Reuss Voigt Hill
#
# Bulk Modulus (GPa) = 29.77016 47.09567 38.43291
# Shear Modulus (GPa) = 30.82119 36.36120 33.59120
#
# Velocity S-wave (km/s) = 3.41109 3.70500 3.56108
# Velocity P-wave (km/s) = 5.17232 6.00684 5.60513
#
# Compressibility (1/GPa) = 0.03359068
#
# Stress axis : x y z
#
# Youngs Moduli (GPa) = 169.00960 49.33301 46.70030
#
# Poissons Ratio (x) = 0.17984 0.07050
# Poissons Ratio (y) = 0.61612 0.08639
# Poissons Ratio (z) = 0.25512 0.09126
#
# Static dielectric constant tensor:
#      x y z
#    x 2.147010 0.000000 0.069450 
#    y 0.000000 2.106740 0.000000 
#    z 0.069450 0.000000 2.327230 
# 
# From -- ./inp_files/184888.got.cif
#   From: 2010.05.17/outbox.cif.g08.bks.cpg/sg15_93_cif.got.tgz:184888.got - 2010.06.03 18:47:42.
