data_PCOD9271852
_publ_section_title
;
Structure prediction by ZEFSAII (Michael W. Deem and Ramdas Pophale) SiO2 
 PCOD9271852
Probable space group: C 2/C
;
_chemical_formula_sum "Si O2"
_cell_formula_units_Z 56
_cell_length_a 17.081700
_cell_length_b 18.645820
_cell_length_c 9.782975
_cell_angle_alpha 90.000000
_cell_angle_beta 120.678282
_cell_angle_gamma 90.000000
_cell_volume 2679.816557
_symmetry_space_group_name_H-M "C 2/C"
_symmetry_group_IT_number 15
_symmetry_cell_setting 'monoclinic'
loop_
_space_group_symop_operation_xyz
x,y,z
-x,y,1/2-z
-x,-y,-z
x,-y,1/2+z
1/2+x,1/2+y,z
1/2-x,1/2+y,1/2-z
1/2-x,1/2-y,-z
1/2+x,1/2-y,1/2+z
loop_
_atom_site_type_symbol
_atom_site_label
_atom_site_fract_x
_atom_site_fract_y
_atom_site_fract_z
Si Si1 0.761717 0.832940 0.043107
Si Si2 0.853049 0.543260 0.736646
Si Si3 0.407424 0.455615 0.741570
Si Si4 0.181384 0.039949 0.066984
Si Si5 0.249915 0.312553 0.334103
Si Si6 0.603763 0.714253 0.309384
Si Si7 0.083860 0.568873 0.413858
O O1 0.819761 0.878426 0.986527
O O2 0.667297 0.876891 0.964178
O O3 0.750000 0.750000 0.000000
O O4 0.793560 0.833992 0.228368
O O5 0.777773 0.484354 0.716316
O O6 0.798508 0.615613 0.654050
O O7 0.896513 0.506999 0.643016
O O8 0.918952 0.558775 0.924573
O O9 0.500000 0.477802 0.750000
O O10 0.331825 0.492631 0.579981
O O11 0.392484 0.477022 0.884162
O O12 0.401814 0.369586 0.732365
O O13 0.330548 0.282391 0.499447
O O14 0.164345 0.257528 0.252690
O O15 0.500000 0.739099 0.250000
O O16 0.000000 0.597988 0.250000
#
# Coordination Sequence:
#
# PCOD9271852 Si02
#       7
#     8   8   8   8   8   8   8
#     4  10  22  41  61  83 118 162 208 243 314 376
#     4  10  20  36  62  85 120 152 201 241 310 368
#     4  11  22  37  60  88 124 153 202 255 300 362
#     4  11  21  38  63  89 118 165 201 248 310 372
#     4  10  20  40  61  86 124 164 202 262 306 377
#     4  10  22  38  60  89 123 163 213 254 315 369
#     4  10  21  38  59  89 118 153 194 259 306 365
#
# _framework density 20.896953
#
# number of rings (size 3 to 8) (size 9 to 14) (size 15 to 20)
#    0.000    1.714    1.429    4.286    0.000    0.571 
#    7.714    0.714    0.000    0.000    0.000    0.000 
#    0.000    0.000    0.000    0.000    0.000    0.000 
#
# Total GULP energy -156090.544353 kJ/mol
# GULP energy per Si atom -5574.662298 kJ/mol
# Density = 2.084939 g / cm^3
# Si number density = 20.896953 Si / 1000 Ang^3
#
#
#
# Elastic Constant Matrix: (Units=GPa)
#
#
# Indices 1 2 3 4 5 6 
#
# 1 63.0033 2.8505 35.4189 0.0000 -3.1249 0.0000
# 2 2.8505 71.7602 12.0882 0.0000 -3.9107 0.0000
# 3 35.4189 12.0882 94.2610 0.0000 0.9608 0.0000
# 4 0.0000 0.0000 0.0000 21.7849 0.0000 -1.8725
# 5 -3.1249 -3.9107 0.9608 0.0000 29.0353 0.0000
# 6 0.0000 0.0000 0.0000 -1.8725 0.0000 19.4771
#
#
#
# Elastic Compliance Matrix: (Units=1/GPa)
#
#
# Indices 1 2 3 4 5 6 
#
# 1 0.020322 0.000635 -0.007743 0.000000 0.002529 0.000000
# 2 0.000635 0.014377 -0.002104 0.000000 0.002074 0.000000
# 3 -0.007743 -0.002104 0.013804 0.000000 -0.001573 0.000000
# 4 0.000000 0.000000 0.000000 0.046286 0.000000 0.004450
# 5 0.002529 0.002074 -0.001573 0.000000 0.035044 0.000000
# 6 0.000000 0.000000 0.000000 0.004450 0.000000 0.051770
#
#
# Mechanical properties :
#
#
# Convention : Reuss Voigt Hill
#
# Bulk Modulus (GPa) = 33.24470 36.63776 34.94123
# Shear Modulus (GPa) = 23.80336 25.97059 24.88697
#
# Velocity S-wave (km/s) = 3.37869 3.52915 3.45474
# Velocity P-wave (km/s) = 5.58249 5.84613 5.71583
#
# Compressibility (1/GPa) = 0.03007998
#
# Stress axis : x y z
#
# Youngs Moduli (GPa) = 49.20787 69.55321 72.44175
#
# Poissons Ratio (x) = -0.04416 0.56094
# Poissons Ratio (y) = -0.03125 0.15238
# Poissons Ratio (z) = 0.38103 0.14631
#
# Static dielectric constant tensor:
#      x y z
#    x 1.820110 0.000000 0.024740 
#    y 0.000000 1.753190 0.000000 
#    z 0.024740 0.000000 1.804170 
# 
# From -- ./inp_files/50313.got.cif
#   From: 2010.05.17/outbox.cif.g08.bks.cpg/sg15_26_cif.got.tgz:50313.got - 2010.06.03 18:47:42.
