data_PCOD9271483
_publ_section_title
;
Structure prediction by ZEFSAII (Michael W. Deem and Ramdas Pophale) SiO2 
 PCOD9271483
Probable space group: C 2/C
;
_chemical_formula_sum "Si O2"
_cell_formula_units_Z 64
_cell_length_a 19.771784
_cell_length_b 13.865237
_cell_length_c 10.825753
_cell_angle_alpha 90.000000
_cell_angle_beta 64.583408
_cell_angle_gamma 90.000000
_cell_volume 2680.528980
_symmetry_space_group_name_H-M "C 2/C"
_symmetry_group_IT_number 15
_symmetry_cell_setting 'monoclinic'
loop_
_space_group_symop_operation_xyz
x,y,z
-x,y,1/2-z
-x,-y,-z
x,-y,1/2+z
1/2+x,1/2+y,z
1/2-x,1/2+y,1/2-z
1/2-x,1/2-y,-z
1/2+x,1/2-y,1/2+z
loop_
_atom_site_type_symbol
_atom_site_label
_atom_site_fract_x
_atom_site_fract_y
_atom_site_fract_z
Si Si1 0.091910 0.700688 0.112902
Si Si2 0.266875 0.086111 0.532600
Si Si3 0.950784 0.617667 0.597467
Si Si4 0.400413 0.322399 0.713450
Si Si5 0.574505 0.382444 0.542517
Si Si6 0.097963 0.305888 0.892203
Si Si7 0.823319 0.482447 0.730546
Si Si8 0.879807 0.899735 0.489455
O O1 0.181337 0.680728 0.027683
O O2 0.071914 0.691073 0.270068
O O3 0.063188 0.621607 0.038898
O O4 0.069973 0.806559 0.081579
O O5 0.290855 0.020317 0.394346
O O6 0.179905 0.099228 0.573191
O O7 0.283014 0.045444 0.656585
O O8 0.906267 0.707851 0.691410
O O9 0.909084 0.523054 0.675740
O O10 0.038083 0.645988 0.535026
O O11 0.485747 0.360733 0.623705
O O12 0.383632 0.353628 0.863950
O O13 0.349278 0.369495 0.648350
O O14 0.605963 0.306000 0.419787
O O15 0.584600 0.496097 0.520410
O O16 0.169188 0.375131 0.831491
#
# Coordination Sequence:
#
# PCOD9271483 Si02
#       8
#     8   8   8   8   8   8   8   8
#     4   9  20  38  58  87 117 152 202 248 284 349
#     4  10  23  39  61  87 119 157 207 249 289 353
#     4   9  18  37  62  86 115 158 189 239 303 360
#     4   9  21  39  54  86 117 146 190 240 294 359
#     4  10  22  36  57  86 119 145 190 242 301 352
#     4  10  20  36  59  90 122 147 193 248 301 355
#     4  10  22  39  60  89 121 156 200 248 297 353
#     4  11  22  38  63  79 114 165 198 235 298 352
#
# _framework density 23.875883999999999
#
# number of rings (size 3 to 8) (size 9 to 14) (size 15 to 20)
#    0.000    2.250    0.000    1.500    5.250    0.000 
#    4.500    4.375    0.000    0.000    0.000    0.000 
#    0.000    0.000    0.000    0.000    0.000    0.000 
#
# Total GULP energy -178526.776458 kJ/mol
# GULP energy per Si atom -5578.961764 kJ/mol
# Density = 2.382154 g / cm^3
# Si number density = 23.875884 Si / 1000 Ang^3
#
#
#
# Elastic Constant Matrix: (Units=GPa)
#
#
# Indices 1 2 3 4 5 6 
#
# 1 49.0448 0.0193 -5.2184 0.0000 12.0650 0.0000
# 2 0.0193 111.5291 17.8103 0.0000 4.5363 0.0000
# 3 -5.2184 17.8103 70.9864 0.0000 24.3955 0.0000
# 4 0.0000 0.0000 0.0000 14.7429 0.0000 12.0992
# 5 12.0650 4.5363 24.3955 0.0000 33.5711 0.0000
# 6 0.0000 0.0000 0.0000 12.0992 0.0000 23.1040
#
#
#
# Elastic Compliance Matrix: (Units=1/GPa)
#
#
# Indices 1 2 3 4 5 6 
#
# 1 0.024396 -0.000502 0.006543 0.000000 -0.013454 0.000000
# 2 -0.000502 0.009360 -0.002682 0.000000 0.000865 0.000000
# 3 0.006543 -0.002682 0.021226 0.000000 -0.017413 0.000000
# 4 0.000000 0.000000 0.000000 0.118952 0.000000 -0.062293
# 5 -0.013454 0.000865 -0.017413 0.000000 0.047160 0.000000
# 6 0.000000 0.000000 0.000000 -0.062293 0.000000 0.075904
#
#
# Mechanical properties :
#
#
# Convention : Reuss Voigt Hill
#
# Bulk Modulus (GPa) = 16.20786 28.53142 22.36964
# Shear Modulus (GPa) = 16.08517 28.88021 22.48269
#
# Velocity S-wave (km/s) = 2.59839 3.48170 3.07196
# Velocity P-wave (km/s) = 3.97559 5.30460 4.68743
#
# Compressibility (1/GPa) = 0.06169844
#
# Stress axis : x y z
#
# Youngs Moduli (GPa) = 40.99084 106.84288 47.11305
#
# Poissons Ratio (x) = 0.05362 -0.30827
# Poissons Ratio (y) = 0.02057 0.12638
# Poissons Ratio (z) = -0.26821 0.28660
#
# Static dielectric constant tensor:
#      x y z
#    x 2.048990 0.000000 -0.028410 
#    y 0.000000 1.920730 0.000000 
#    z -0.028410 0.000000 1.929540 
# 
# From -- ./inp_files/112723.got.cif
#   From: 2010.05.17/outbox.cif.g08.bks.cpg/sg15_57_cif.got.tgz:112723.got - 2010.06.03 18:47:42.
