data_PCOD9271075
_publ_section_title
;
Structure prediction by ZEFSAII (Michael W. Deem and Ramdas Pophale) SiO2 
 PCOD9271075
Probable space group: C 2/C
;
_chemical_formula_sum "Si O2"
_cell_formula_units_Z 48
_cell_length_a 13.897738
_cell_length_b 8.988787
_cell_length_c 20.152858
_cell_angle_alpha 90.000000
_cell_angle_beta 69.829958
_cell_angle_gamma 90.000000
_cell_volume 2363.177720
_symmetry_space_group_name_H-M "C 2/C"
_symmetry_group_IT_number 15
_symmetry_cell_setting 'monoclinic'
loop_
_space_group_symop_operation_xyz
x,y,z
-x,y,1/2-z
-x,-y,-z
x,-y,1/2+z
1/2+x,1/2+y,z
1/2-x,1/2+y,1/2-z
1/2-x,1/2-y,-z
1/2+x,1/2-y,1/2+z
loop_
_atom_site_type_symbol
_atom_site_label
_atom_site_fract_x
_atom_site_fract_y
_atom_site_fract_z
Si Si1 0.660017 0.550461 0.949182
Si Si2 0.771191 0.934960 0.922232
Si Si3 0.071496 0.426812 0.326391
Si Si4 0.147887 0.323188 0.173609
Si Si5 0.140801 0.300461 0.449183
Si Si6 0.056577 0.315040 0.922232
O O1 0.764639 0.593137 0.887626
O O2 0.649351 0.375000 0.951297
O O3 0.572975 0.638685 0.928586
O O4 0.672007 0.601805 0.022838
O O5 0.830256 0.851019 0.848498
O O6 0.653590 0.875000 0.942819
O O7 0.748438 0.111315 0.928587
O O8 0.147518 0.375000 0.250000
O O9 0.097735 0.343137 0.387626
O O10 0.071246 0.601019 0.348498
O O11 0.960392 0.375000 0.329216
O O12 0.055155 0.351805 0.522839
#
# Coordination Sequence:
#
# PCOD9271075 Si02
#       6
#     8   8   8   8   8   8
#     4  11  21  34  58  88 117 146 187 242 289 341
#     4  10  20  36  57  81 112 148 188 231 280 346
#     4  10  21  38  57  77 109 154 197 236 288 349
#     4  10  21  38  57  77 109 154 197 236 288 349
#     4  11  21  34  58  88 117 146 187 242 289 341
#     4  10  20  36  57  81 112 148 188 231 280 346
#
# _framework density 20.311634000000002
#
# number of rings (size 3 to 8) (size 9 to 14) (size 15 to 20)
#    0.000    1.667    0.000    8.000    0.000    4.000 
#    0.000    0.000    0.000    4.000    0.000    0.000 
#    0.000    0.000    0.000    0.000    0.000    0.000 
#
# Total GULP energy -133762.822088 kJ/mol
# GULP energy per Si atom -5573.450920 kJ/mol
# Density = 2.026540 g / cm^3
# Si number density = 20.311634 Si / 1000 Ang^3
#
#
#
# Elastic Constant Matrix: (Units=GPa)
#
#
# Indices 1 2 3 4 5 6 
#
# 1 40.3743 13.4798 14.4341 0.0000 -0.1349 0.0000
# 2 13.4798 132.6142 36.6687 0.0000 -0.1834 0.0000
# 3 14.4341 36.6687 126.0617 0.0000 -0.5432 0.0000
# 4 0.0000 0.0000 0.0000 24.7336 0.0000 0.0306
# 5 -0.1349 -0.1834 -0.5432 0.0000 21.5043 0.0000
# 6 0.0000 0.0000 0.0000 0.0306 0.0000 28.6032
#
#
#
# Elastic Compliance Matrix: (Units=1/GPa)
#
#
# Indices 1 2 3 4 5 6 
#
# 1 0.026305 -0.002002 -0.002429 0.000000 0.000087 0.000000
# 2 -0.002002 0.008353 -0.002200 0.000000 0.000003 0.000000
# 3 -0.002429 -0.002200 0.008852 0.000000 0.000190 0.000000
# 4 0.000000 0.000000 0.000000 0.040431 0.000000 -0.000043
# 5 0.000087 0.000003 0.000190 0.000000 0.046508 0.000000
# 6 0.000000 0.000000 0.000000 -0.000043 0.000000 0.034961
#
#
# Mechanical properties :
#
#
# Convention : Reuss Voigt Hill
#
# Bulk Modulus (GPa) = 33.06185 47.57949 40.32067
# Shear Modulus (GPa) = 26.48939 30.59939 28.54439
#
# Velocity S-wave (km/s) = 3.61522 3.88557 3.75283
# Velocity P-wave (km/s) = 5.80853 6.60347 6.21872
#
# Compressibility (1/GPa) = 0.03024634
#
# Stress axis : x y z
#
# Youngs Moduli (GPa) = 38.01503 119.72338 112.97366
#
# Poissons Ratio (x) = 0.23969 0.27444
# Poissons Ratio (y) = 0.07611 0.24858
# Poissons Ratio (z) = 0.09235 0.26343
#
# Static dielectric constant tensor:
#      x y z
#    x 1.750820 0.000000 0.000310 
#    y 0.000000 1.882470 0.000000 
#    z 0.000310 0.000000 1.711830 
# 
# From -- ./inp_files/242333.got.cif
#   From: 2010.05.17/outbox.cif.g08.bks.cpg/sg15_122_cif.got.tgz:242333.got - 2010.06.03 18:47:42.
