data_PCOD9271801
_publ_section_title
;
Structure prediction by ZEFSAII (Michael W. Deem and Ramdas Pophale) SiO2 
 PCOD9271801
Probable space group: C 2/C
;
_chemical_formula_sum "Si O2"
_cell_formula_units_Z 64
_cell_length_a 9.183019
_cell_length_b 25.047535
_cell_length_c 14.618699
_cell_angle_alpha 90.000000
_cell_angle_beta 97.083742
_cell_angle_gamma 90.000000
_cell_volume 3336.810167
_symmetry_space_group_name_H-M "C 2/C"
_symmetry_group_IT_number 15
_symmetry_cell_setting 'monoclinic'
loop_
_space_group_symop_operation_xyz
x,y,z
-x,y,1/2-z
-x,-y,-z
x,-y,1/2+z
1/2+x,1/2+y,z
1/2-x,1/2+y,1/2-z
1/2-x,1/2-y,-z
1/2+x,1/2-y,1/2+z
loop_
_atom_site_type_symbol
_atom_site_label
_atom_site_fract_x
_atom_site_fract_y
_atom_site_fract_z
Si Si1 0.449628 0.527230 0.648707
Si Si2 0.674330 0.668836 0.251281
Si Si3 0.814039 0.196370 0.044052
Si Si4 0.282217 0.093566 0.984839
Si Si5 0.613977 0.906063 0.491290
Si Si6 0.726791 0.001738 0.874511
Si Si7 0.165199 0.204070 0.051266
Si Si8 0.723646 0.945343 0.690870
O O1 0.500000 0.550349 0.750000
O O2 0.327838 0.564449 0.593872
O O3 0.599853 0.516101 0.607616
O O4 0.373962 0.470054 0.662390
O O5 0.500000 0.659344 0.250000
O O6 0.716670 0.695977 0.349626
O O7 0.705641 0.702376 0.162651
O O8 0.750222 0.610928 0.257248
O O9 0.987681 0.201124 0.036997
O O10 0.750000 0.250000 0.000000
O O11 0.729696 0.143187 0.001076
O O12 0.444783 0.108802 0.964174
O O13 0.212547 0.147444 0.015155
O O14 0.297662 0.050387 0.066604
O O15 0.648843 0.948917 0.416138
O O16 0.629115 0.934164 0.592968
O O17 0.681504 0.987390 0.766855
O O18 0.250000 0.250000 0.000000
#
# Coordination Sequence:
#
# PCOD9271801 Si02
#       8
#     8   8   8   8   8   8   8   8
#     4  10  22  37  60  91 125 164 214 252 308 380
#     4   9  18  36  63  92 118 156 204 258 308 367
#     4  10  22  43  68  90 125 162 209 261 320 373
#     4  12  23  39  60  89 131 162 208 256 310 372
#     4  11  24  39  60  94 130 167 207 256 318 378
#     4  11  21  37  62  88 129 165 200 251 316 364
#     4  11  23  41  66  95 120 164 214 263 311 368
#     4  10  20  36  61  93 125 159 212 254 308 376
#
# _framework density 19.179993
#
# number of rings (size 3 to 8) (size 9 to 14) (size 15 to 20)
#    0.000    1.500    2.500    3.375    3.500    0.500 
#    2.250    5.625    0.000    0.000    0.000    0.000 
#    0.000    0.000    0.000    0.000    0.000    0.000 
#
# Total GULP energy -178511.503900 kJ/mol
# GULP energy per Si atom -5578.484497 kJ/mol
# Density = 1.913634 g / cm^3
# Si number density = 19.179993 Si / 1000 Ang^3
#
#
#
# Elastic Constant Matrix: (Units=GPa)
#
#
# Indices 1 2 3 4 5 6 
#
# 1 115.1729 53.9137 45.4436 0.0000 -8.0199 0.0000
# 2 53.9137 119.3470 60.2507 0.0000 -10.7326 0.0000
# 3 45.4436 60.2507 76.1262 0.0000 -14.5494 0.0000
# 4 0.0000 0.0000 0.0000 31.4417 0.0000 -6.5964
# 5 -8.0199 -10.7326 -14.5494 0.0000 18.6695 0.0000
# 6 0.0000 0.0000 0.0000 -6.5964 0.0000 33.4619
#
#
#
# Elastic Compliance Matrix: (Units=1/GPa)
#
#
# Indices 1 2 3 4 5 6 
#
# 1 0.011971 -0.002994 -0.004844 0.000000 -0.000354 0.000000
# 2 -0.002994 0.014711 -0.009970 0.000000 -0.000599 0.000000
# 3 -0.004844 -0.009970 0.026350 0.000000 0.012723 0.000000
# 4 0.000000 0.000000 0.000000 0.033177 0.000000 0.006540
# 5 -0.000354 -0.000599 0.012723 0.000000 0.062982 0.000000
# 6 0.000000 0.000000 0.000000 0.006540 0.000000 0.031174
#
#
# Mechanical properties :
#
#
# Convention : Reuss Voigt Hill
#
# Bulk Modulus (GPa) = 57.42021 69.98468 63.70245
# Shear Modulus (GPa) = 22.54419 26.78383 24.66401
#
# Velocity S-wave (km/s) = 3.43213 3.74096 3.58987
# Velocity P-wave (km/s) = 6.76081 7.43151 7.10408
#
# Compressibility (1/GPa) = 0.01741547
#
# Stress axis : x y z
#
# Youngs Moduli (GPa) = 83.53676 67.97652 37.95030
#
# Poissons Ratio (x) = 0.20353 0.18383
# Poissons Ratio (y) = 0.25012 0.37837
# Poissons Ratio (z) = 0.40464 0.67774
#
# Static dielectric constant tensor:
#      x y z
#    x 1.750770 0.000000 0.012410 
#    y 0.000000 1.624090 0.000000 
#    z 0.012410 0.000000 1.713630 
# 
# From -- ./inp_files/137858.got.cif
#   From: 2010.05.17/outbox.cif.g08.bks.cpg/sg15_69_cif.got.tgz:137858.got - 2010.06.03 18:47:42.
