data_PCOD9271237
_publ_section_title
;
Structure prediction by ZEFSAII (Michael W. Deem and Ramdas Pophale) SiO2 
 PCOD9271237
Probable space group: C 2/C
;
_chemical_formula_sum "Si O2"
_cell_formula_units_Z 36
_cell_length_a 19.050612
_cell_length_b 13.712223
_cell_length_c 9.504894
_cell_angle_alpha 90.000000
_cell_angle_beta 48.806647
_cell_angle_gamma 90.000000
_cell_volume 1868.381558
_symmetry_space_group_name_H-M "C 2/C"
_symmetry_group_IT_number 15
_symmetry_cell_setting 'monoclinic'
loop_
_space_group_symop_operation_xyz
x,y,z
-x,y,1/2-z
-x,-y,-z
x,-y,1/2+z
1/2+x,1/2+y,z
1/2-x,1/2+y,1/2-z
1/2-x,1/2-y,-z
1/2+x,1/2-y,1/2+z
loop_
_atom_site_type_symbol
_atom_site_label
_atom_site_fract_x
_atom_site_fract_y
_atom_site_fract_z
Si Si1 0.382122 0.428849 0.653954
Si Si2 0.782323 0.317099 0.755269
Si Si3 0.570155 0.971120 0.030629
Si Si4 0.242124 0.604700 0.894337
Si Si5 0.500000 0.524394 0.250000
O O1 0.309597 0.345911 0.710059
O O2 0.320328 0.522751 0.775804
O O3 0.440786 0.456839 0.436540
O O4 0.442384 0.411401 0.714176
O O5 0.870908 0.373004 0.575275
O O6 0.780903 0.201033 0.767225
O O7 0.772955 0.363266 0.924339
O O8 0.500000 0.957344 0.250000
O O9 0.500000 0.000000 0.000000
O O10 0.647154 0.056163 0.959460
#
# Coordination Sequence:
#
# PCOD9271237 Si02
#       5
#     8   8   8   8   4
#     4  10  20  39  59  86 121 161 186 259 299 364
#     4  10  21  40  64  88 122 162 206 250 311 368
#     4  11  22  42  64  94 126 164 206 261 305 371
#     4  10  21  40  64  89 120 163 207 246 318 364
#     4  10  20  36  58  84 118 152 200 230 308 350
#
# _framework density 19.268013
#
# number of rings (size 3 to 8) (size 9 to 14) (size 15 to 20)
#    0.000    1.778    4.444    0.000    0.000    0.000 
#   12.000    2.222    0.000    0.000    0.000    0.000 
#    0.000    0.000    0.000    0.000    0.000    0.000 
#
# Total GULP energy -100409.487535 kJ/mol
# GULP energy per Si atom -5578.304863 kJ/mol
# Density = 1.922416 g / cm^3
# Si number density = 19.268013 Si / 1000 Ang^3
#
#
#
# Elastic Constant Matrix: (Units=GPa)
#
#
# Indices 1 2 3 4 5 6 
#
# 1 149.0542 17.3975 33.5222 0.0000 5.1559 0.0000
# 2 17.3975 73.3438 10.0617 0.0000 -3.0164 0.0000
# 3 33.5222 10.0617 99.4470 0.0000 0.1009 0.0000
# 4 0.0000 0.0000 0.0000 6.6710 0.0000 -6.7466
# 5 5.1559 -3.0164 0.1009 0.0000 29.7718 0.0000
# 6 0.0000 0.0000 0.0000 -6.7466 0.0000 -4.4138
#
#
#
# Elastic Compliance Matrix: (Units=1/GPa)
#
#
# Indices 1 2 3 4 5 6 
#
# 1 0.007466 -0.001506 -0.002363 0.000000 -0.001438 0.000000
# 2 -0.001506 0.014189 -0.000930 0.000000 0.001702 0.000000
# 3 -0.002363 -0.000930 0.010946 0.000000 0.000278 0.000000
# 4 0.000000 0.000000 0.000000 0.058881 0.000000 -0.090001
# 5 -0.001438 0.001702 0.000278 0.000000 0.034009 0.000000
# 6 0.000000 0.000000 0.000000 -0.090001 0.000000 -0.088992
#
#
# Mechanical properties :
#
#
# Convention : Reuss Voigt Hill
#
# Bulk Modulus (GPa) = 43.47072 49.31199 46.39136
# Shear Modulus (GPa) = 92.99910 23.79670 58.39790
#
# Velocity S-wave (km/s) = 6.95491 3.51812 5.51126
# Velocity P-wave (km/s) = 9.33298 6.49239 8.03914
#
# Compressibility (1/GPa) = 0.02300399
#
# Stress axis : x y z
#
# Youngs Moduli (GPa) = 133.94306 70.47636 91.35870
#
# Poissons Ratio (x) = 0.10613 0.21586
# Poissons Ratio (y) = 0.20171 0.08494
# Poissons Ratio (z) = 0.31648 0.06552
#
# Static dielectric constant tensor:
#      x y z
#    x 1.675240 0.000000 -0.015070 
#    y 0.000000 1.632800 0.000000 
#    z -0.015070 0.000000 1.657600 
# 
# From -- ./inp_files/37422.got.cif
#   From: 2010.05.17/outbox.cif.g08.bks.cpg/sg15_19_cif.got.tgz:37422.got - 2010.06.03 18:47:42.
