data_PCOD9271063
_publ_section_title
;
Structure prediction by ZEFSAII (Michael W. Deem and Ramdas Pophale) SiO2 
 PCOD9271063
Probable space group: C 2/C
;
_chemical_formula_sum "Si O2"
_cell_formula_units_Z 40
_cell_length_a 15.185036
_cell_length_b 4.959305
_cell_length_c 20.241170
_cell_angle_alpha 90.000000
_cell_angle_beta 100.785324
_cell_angle_gamma 90.000000
_cell_volume 1497.379799
_symmetry_space_group_name_H-M "C 2/C"
_symmetry_group_IT_number 15
_symmetry_cell_setting 'monoclinic'
loop_
_space_group_symop_operation_xyz
x,y,z
-x,y,1/2-z
-x,-y,-z
x,-y,1/2+z
1/2+x,1/2+y,z
1/2-x,1/2+y,1/2-z
1/2-x,1/2-y,-z
1/2+x,1/2-y,1/2+z
loop_
_atom_site_type_symbol
_atom_site_label
_atom_site_fract_x
_atom_site_fract_y
_atom_site_fract_z
Si Si1 0.590118 0.398371 0.875062
Si Si2 0.432912 0.130437 0.042466
Si Si3 0.369062 0.176277 0.754410
Si Si4 0.779840 0.450722 0.945698
Si Si5 0.338459 0.671434 0.825535
O O1 0.535511 0.611218 0.911637
O O2 0.578265 0.317018 0.797837
O O3 0.689401 0.534613 0.895330
O O4 0.587996 0.110017 0.909947
O O5 0.500000 0.000000 0.000000
O O6 0.342635 0.177631 0.986495
O O7 0.372520 0.371585 0.818070
O O8 0.266081 0.165878 0.713272
O O9 0.389442 0.878678 0.783641
O O10 0.835500 0.286234 0.898555
O O11 0.750000 0.250000 0.000000
#
# Coordination Sequence:
#
# PCOD9271063 Si02
#       5
#     8   8   8   8   8
#     4  10  20  36  57  79 106 139 180 219 260 317
#     4  11  22  36  55  79 109 141 174 219 270 317
#     4   9  17  30  50  76 102 134 171 216 262 303
#     4   9  20  35  56  83 109 140 179 221 265 314
#     4   9  17  29  49  77 106 131 170 219 261 305
#
# _framework density 26.713331
#
# number of rings (size 3 to 8) (size 9 to 14) (size 15 to 20)
#    0.000    2.400    0.000    2.400    0.000   12.800 
#    0.000    0.000    0.000    7.200    0.000    0.000 
#    0.000    0.000    0.000    0.000    0.000    0.000 
#
# Total GULP energy -111959.340548 kJ/mol
# GULP energy per Si atom -5597.967027 kJ/mol
# Density = 2.665253 g / cm^3
# Si number density = 26.713331 Si / 1000 Ang^3
#
#
#
# Elastic Constant Matrix: (Units=GPa)
#
#
# Indices 1 2 3 4 5 6 
#
# 1 77.7384 -7.8579 23.2816 0.0000 13.3533 0.0000
# 2 -7.8579 113.6325 16.4200 0.0000 3.0022 0.0000
# 3 23.2816 16.4200 113.2167 0.0000 -13.5743 0.0000
# 4 0.0000 0.0000 0.0000 45.7775 0.0000 -12.0226
# 5 13.3533 3.0022 -13.5743 0.0000 30.6461 0.0000
# 6 0.0000 0.0000 0.0000 -12.0226 0.0000 20.2021
#
#
#
# Elastic Compliance Matrix: (Units=1/GPa)
#
#
# Indices 1 2 3 4 5 6 
#
# 1 0.016079 0.002039 -0.004717 0.000000 -0.009295 0.000000
# 2 0.002039 0.009317 -0.002098 0.000000 -0.002730 0.000000
# 3 -0.004717 -0.002098 0.010960 0.000000 0.007115 0.000000
# 4 0.000000 0.000000 0.000000 0.025892 0.000000 0.015408
# 5 -0.009295 -0.002730 0.007115 0.000000 0.040100 0.000000
# 6 0.000000 0.000000 0.000000 0.015408 0.000000 0.058670
#
#
# Mechanical properties :
#
#
# Convention : Reuss Voigt Hill
#
# Bulk Modulus (GPa) = 37.30713 40.91944 39.11328
# Shear Modulus (GPa) = 27.85487 37.50806 32.68147
#
# Velocity S-wave (km/s) = 3.23264 3.75119 3.50153
# Velocity P-wave (km/s) = 5.28482 5.84065 5.56967
#
# Compressibility (1/GPa) = 0.02680453
#
# Stress axis : x y z
#
# Youngs Moduli (GPa) = 62.19317 107.33548 91.24193
#
# Poissons Ratio (x) = -0.21886 0.43035
# Poissons Ratio (y) = -0.12681 0.19141
# Poissons Ratio (z) = 0.29334 0.22517
#
# Static dielectric constant tensor:
#      x y z
#    x 2.297340 0.000000 0.009190 
#    y 0.000000 1.998010 0.000000 
#    z 0.009190 0.000000 2.093940 
# 
# From -- ./inp_files/208054.got.cif
#   From: 2010.05.17/outbox.cif.g08.bks.cpg/sg15_105_cif.got.tgz:208054.got - 2010.06.03 18:47:42.
