data_PCOD9271205
_publ_section_title
;
Structure prediction by ZEFSAII (Michael W. Deem and Ramdas Pophale) SiO2 
 PCOD9271205
Probable space group: C 2/C
;
_chemical_formula_sum "Si O2"
_cell_formula_units_Z 60
_cell_length_a 22.689505
_cell_length_b 8.912017
_cell_length_c 21.711877
_cell_angle_alpha 90.000000
_cell_angle_beta 49.928013
_cell_angle_gamma 90.000000
_cell_volume 3359.649127
_symmetry_space_group_name_H-M "C 2/C"
_symmetry_group_IT_number 15
_symmetry_cell_setting 'monoclinic'
loop_
_space_group_symop_operation_xyz
x,y,z
-x,y,1/2-z
-x,-y,-z
x,-y,1/2+z
1/2+x,1/2+y,z
1/2-x,1/2+y,1/2-z
1/2-x,1/2-y,-z
1/2+x,1/2-y,1/2+z
loop_
_atom_site_type_symbol
_atom_site_label
_atom_site_fract_x
_atom_site_fract_y
_atom_site_fract_z
Si Si1 0.224779 0.075278 0.826107
Si Si2 0.425874 0.418109 0.522133
Si Si3 0.735667 0.930924 0.829815
Si Si4 0.537858 0.424932 0.144960
Si Si5 0.424326 0.916761 0.075846
Si Si6 0.896553 0.424173 0.241452
Si Si7 0.000000 0.350821 0.750000
Si Si8 0.108925 0.915332 0.708809
O O1 0.222421 0.255262 0.825720
O O2 0.305943 0.036350 0.803643
O O3 0.151138 0.007228 0.908688
O O4 0.230126 0.008064 0.754217
O O5 0.500000 0.500000 0.500000
O O6 0.436020 0.414002 0.442080
O O7 0.423223 0.253497 0.553499
O O8 0.802018 0.946765 0.836244
O O9 0.653231 0.004921 0.897240
O O10 0.542676 0.263624 0.174905
O O11 0.449414 0.483015 0.210988
O O12 0.585893 0.541465 0.154800
O O13 0.420132 0.922112 0.153317
O O14 0.500000 0.000000 0.000000
O O15 0.944565 0.544152 0.247446
O O16 0.906324 0.257611 0.263136
#
# Coordination Sequence:
#
# PCOD9271205 Si02
#       8
#     8   8   8   8   8   8   4   8
#     4  10  21  36  58  85 112 147 190 233 281 337
#     4  12  23  38  58  84 117 149 184 235 288 332
#     4  10  20  37  59  83 112 149 189 232 281 337
#     4  10  22  36  56  84 112 146 188 230 278 332
#     4  11  23  37  57  87 117 146 188 237 285 336
#     4  10  20  37  59  82 109 148 190 229 277 337
#     4  10  20  36  58  82 112 146 186 234 276 328
#     4   9  19  38  59  79 108 150 191 225 275 341
#
# _framework density 17.859006999999998
#
# number of rings (size 3 to 8) (size 9 to 14) (size 15 to 20)
#    0.000    1.867    0.000    6.400    0.000    7.467 
#    0.000    8.000    0.000    0.000    0.000    0.000 
#    0.000    0.000    0.000    0.000    0.000    0.000 
#
# Total GULP energy -167508.785675 kJ/mol
# GULP energy per Si atom -5583.626189 kJ/mol
# Density = 1.781836 g / cm^3
# Si number density = 17.859007 Si / 1000 Ang^3
#
#
#
# Elastic Constant Matrix: (Units=GPa)
#
#
# Indices 1 2 3 4 5 6 
#
# 1 139.5562 85.6400 79.0022 0.0000 -9.5483 0.0000
# 2 85.6400 115.8237 54.4247 0.0001 -10.3862 -0.0001
# 3 79.0022 54.4247 130.0681 -0.0001 -11.3137 0.0000
# 4 0.0000 0.0001 -0.0001 28.4430 -0.0001 -3.4274
# 5 -9.5483 -10.3862 -11.3137 -0.0001 18.4689 0.0000
# 6 0.0000 -0.0001 0.0000 -3.4274 0.0000 31.6272
#
#
#
# Elastic Compliance Matrix: (Units=1/GPa)
#
#
# Indices 1 2 3 4 5 6 
#
# 1 0.016171 -0.009168 -0.006028 0.000000 -0.000488 0.000000
# 2 -0.009168 0.016160 -0.000861 0.000000 0.003820 0.000000
# 3 -0.006028 -0.000861 0.012038 0.000000 0.003774 0.000000
# 4 0.000000 0.000000 0.000000 0.035623 0.000000 0.003860
# 5 -0.000488 0.003820 0.003774 0.000000 0.058353 0.000000
# 6 0.000000 0.000000 0.000000 0.003860 0.000000 0.032037
#
#
# Mechanical properties :
#
#
# Convention : Reuss Voigt Hill
#
# Bulk Modulus (GPa) = 81.60242 91.50910 86.55576
# Shear Modulus (GPa) = 24.20369 26.79988 25.50179
#
# Velocity S-wave (km/s) = 3.68539 3.87801 3.78292
# Velocity P-wave (km/s) = 7.99382 8.45002 8.22509
#
# Compressibility (1/GPa) = 0.01225454
#
# Stress axis : x y z
#
# Youngs Moduli (GPa) = 61.84067 61.88293 83.06796
#
# Poissons Ratio (x) = 0.56732 0.50076
# Poissons Ratio (y) = 0.56693 0.07152
# Poissons Ratio (z) = 0.37279 0.05328
#
# Static dielectric constant tensor:
#      x y z
#    x 1.595920 0.000000 -0.008460 
#    y 0.000000 1.604320 0.000000 
#    z -0.008460 0.000000 1.588260 
# 
# From -- ./inp_files/252098.got.cif
#   From: 2010.05.17/outbox.cif.g08.bks.cpg/sg15_127_cif.got.tgz:252098.got - 2010.06.03 18:47:42.
