data_PCOD9271868
_publ_section_title
;
Structure prediction by ZEFSAII (Michael W. Deem and Ramdas Pophale) SiO2 
 PCOD9271868
Probable space group: C 2/C
;
_chemical_formula_sum "Si O2"
_cell_formula_units_Z 44
_cell_length_a 9.841574
_cell_length_b 16.494418
_cell_length_c 17.028925
_cell_angle_alpha 90.000000
_cell_angle_beta 43.469636
_cell_angle_gamma 90.000000
_cell_volume 1901.771493
_symmetry_space_group_name_H-M "C 2/C"
_symmetry_group_IT_number 15
_symmetry_cell_setting 'monoclinic'
loop_
_space_group_symop_operation_xyz
x,y,z
-x,y,1/2-z
-x,-y,-z
x,-y,1/2+z
1/2+x,1/2+y,z
1/2-x,1/2+y,1/2-z
1/2-x,1/2-y,-z
1/2+x,1/2-y,1/2+z
loop_
_atom_site_type_symbol
_atom_site_label
_atom_site_fract_x
_atom_site_fract_y
_atom_site_fract_z
Si Si1 0.141097 0.527008 0.826578
Si Si2 0.500000 0.076876 0.250000
Si Si3 0.932246 0.851139 0.950468
Si Si4 0.516708 0.804785 0.336042
Si Si5 0.688243 0.336963 0.992096
Si Si6 0.802333 0.995385 0.420679
O O1 0.137961 0.481126 0.745002
O O2 0.284791 0.496152 0.834411
O O3 0.157092 0.623422 0.806808
O O4 0.920102 0.510423 0.952839
O O5 0.631280 0.130433 0.137201
O O6 0.059069 0.785275 0.848839
O O7 0.004243 0.840402 0.009355
O O8 0.935470 0.940188 0.911559
O O9 0.701823 0.827729 0.041511
O O10 0.500000 0.805653 0.250000
O O11 0.750000 0.250000 0.000000
O O12 0.650659 0.403485 0.075015
#
# Coordination Sequence:
#
# PCOD9271868 Si02
#       6
#     8   4   8   8   8   8
#     4   9  17  36  61  88 112 156 207 241 300 370
#     4  10  22  38  66  86 116 164 206 248 306 376
#     4  10  22  37  59  90 122 157 204 251 311 362
#     4  10  20  36  62  87 118 160 200 253 301 370
#     4  11  23  40  62  88 124 167 207 260 312 370
#     4   9  19  36  59  84 121 157 197 252 305 363
#
# _framework density 23.136323999999998
#
# number of rings (size 3 to 8) (size 9 to 14) (size 15 to 20)
#    0.000    2.182    0.909    1.636    0.000    7.273 
#    0.000    0.000    2.000    0.000    0.000    0.000 
#    0.000    0.000    0.000    0.000    0.000    0.000 
#
# Total GULP energy -122976.433277 kJ/mol
# GULP energy per Si atom -5589.837876 kJ/mol
# Density = 2.308366 g / cm^3
# Si number density = 23.136324 Si / 1000 Ang^3
#
#
#
# Elastic Constant Matrix: (Units=GPa)
#
#
# Indices 1 2 3 4 5 6 
#
# 1 129.2293 65.6362 13.8936 0.0005 21.8719 0.0000
# 2 65.6362 191.0246 32.0140 0.0009 29.7099 -0.0003
# 3 13.8936 32.0140 60.0264 0.0009 16.3113 -0.0003
# 4 0.0005 0.0009 0.0009 25.6654 -0.0003 22.6768
# 5 21.8719 29.7099 16.3113 -0.0003 46.8552 0.0000
# 6 0.0000 -0.0003 -0.0003 22.6768 0.0000 15.2266
#
#
#
# Elastic Compliance Matrix: (Units=1/GPa)
#
#
# Indices 1 2 3 4 5 6 
#
# 1 0.009666 -0.002912 0.000044 0.000000 -0.002681 0.000000
# 2 -0.002912 0.006992 -0.002451 0.000001 -0.002221 -0.000001
# 3 0.000044 -0.002451 0.019372 0.000003 -0.005210 -0.000004
# 4 0.000000 0.000001 0.000003 -0.123351 -0.000003 0.183705
# 5 -0.002681 -0.002221 -0.005210 -0.000003 0.025816 0.000004
# 6 0.000000 -0.000001 -0.000004 0.183705 0.000004 -0.207916
#
#
# Mechanical properties :
#
#
# Convention : Reuss Voigt Hill
#
# Bulk Modulus (GPa) = 39.38239 67.04090 53.21164
# Shear Modulus (GPa) = -19.97451 35.46521 7.74535
#
# Velocity S-wave (km/s) = -2.94145 3.91945 1.83166
# Velocity P-wave (km/s) = 2.35003 7.03720 5.24618
#
# Compressibility (1/GPa) = 0.02539206
#
# Stress axis : x y z
#
# Youngs Moduli (GPa) = 103.45456 143.02872 51.62004
#
# Poissons Ratio (x) = 0.41645 -0.00228
# Poissons Ratio (y) = 0.30123 0.12655
# Poissons Ratio (z) = -0.00457 0.35063
#
# Static dielectric constant tensor:
#      x y z
#    x 1.865700 0.000000 -0.042780 
#    y 0.000000 1.863130 0.000000 
#    z -0.042780 0.000000 1.883840 
# 
# From -- ./inp_files/134456.got.cif
#   From: 2010.05.17/outbox.cif.g08.bks.cpg/sg15_68_cif.got.tgz:134456.got - 2010.06.03 18:47:42.
