data_PCOD9271234
_publ_section_title
;
Structure prediction by ZEFSAII (Michael W. Deem and Ramdas Pophale) SiO2 
 PCOD9271234
Probable space group: C 2/C
;
_chemical_formula_sum "Si O2"
_cell_formula_units_Z 60
_cell_length_a 14.614365
_cell_length_b 12.223651
_cell_length_c 19.830451
_cell_angle_alpha 90.000000
_cell_angle_beta 118.975703
_cell_angle_gamma 90.000000
_cell_volume 3099.094196
_symmetry_space_group_name_H-M "C 2/C"
_symmetry_group_IT_number 15
_symmetry_cell_setting 'monoclinic'
loop_
_space_group_symop_operation_xyz
x,y,z
-x,y,1/2-z
-x,-y,-z
x,-y,1/2+z
1/2+x,1/2+y,z
1/2-x,1/2+y,1/2-z
1/2-x,1/2-y,-z
1/2+x,1/2-y,1/2+z
loop_
_atom_site_type_symbol
_atom_site_label
_atom_site_fract_x
_atom_site_fract_y
_atom_site_fract_z
Si Si1 0.280733 0.787959 0.937260
Si Si2 0.000000 0.988874 0.250000
Si Si3 0.967680 0.023597 0.886507
Si Si4 0.298906 0.777584 0.346396
Si Si5 0.621127 0.827107 0.277133
Si Si6 0.501593 0.319471 0.520070
Si Si7 0.230229 0.018785 0.341339
Si Si8 0.225157 0.454717 0.792332
O O1 0.201573 0.730923 0.856653
O O2 0.398677 0.749092 0.969757
O O3 0.273099 0.916988 0.920349
O O4 0.250000 0.750000 0.000000
O O5 0.004338 0.934103 0.177927
O O6 0.109087 0.052191 0.289522
O O7 0.013042 0.102162 0.959629
O O8 0.841509 0.008072 0.845640
O O9 0.010299 0.902115 0.919862
O O10 0.344312 0.794130 0.286618
O O11 0.398147 0.753746 0.429049
O O12 0.229614 0.667554 0.322447
O O13 0.239694 0.887892 0.346235
O O14 0.500000 0.803448 0.250000
O O15 0.643315 0.957744 0.290546
O O16 0.287482 0.054043 0.293029
#
# Coordination Sequence:
#
# PCOD9271234 Si02
#       8
#     8   4   8   8   8   8   8   8
#     4  12  23  36  61  92 123 152 203 263 311 364
#     4  10  20  36  58  84 116 154 212 258 278 370
#     4   9  18  35  61  87 113 158 208 248 305 368
#     4  10  21  41  63  84 125 167 206 250 316 377
#     4  11  22  37  62  95 123 160 209 260 311 367
#     4  10  20  36  59  88 118 161 195 258 314 369
#     4  10  22  36  59  89 117 160 203 251 308 371
#     4   9  18  39  63  84 119 160 202 249 308 370
#
# _framework density 19.360496999999999
#
# number of rings (size 3 to 8) (size 9 to 14) (size 15 to 20)
#    0.000    1.867    2.667    1.600    0.933    0.533 
#    1.200    0.667    0.000    0.000    0.000    0.000 
#    0.000    0.000    0.000    0.000    0.000    0.000 
#
# Total GULP energy -167322.120542 kJ/mol
# GULP energy per Si atom -5577.404018 kJ/mol
# Density = 1.931643 g / cm^3
# Si number density = 19.360497 Si / 1000 Ang^3
#
#
#
# Elastic Constant Matrix: (Units=GPa)
#
#
# Indices 1 2 3 4 5 6 
#
# 1 29.9766 17.5872 14.7151 0.0000 0.5604 0.0000
# 2 17.5872 105.5303 32.2575 0.0000 0.6761 0.0000
# 3 14.7151 32.2575 102.3334 0.0000 -4.1946 0.0000
# 4 0.0000 0.0000 0.0000 30.8020 0.0000 3.3665
# 5 0.5604 0.6761 -4.1946 0.0000 25.4392 0.0000
# 6 0.0000 0.0000 0.0000 3.3665 0.0000 12.1303
#
#
#
# Elastic Compliance Matrix: (Units=1/GPa)
#
#
# Indices 1 2 3 4 5 6 
#
# 1 0.038357 -0.005180 -0.003938 0.000000 -0.001357 0.000000
# 2 -0.005180 0.011203 -0.002813 0.000000 -0.000648 0.000000
# 3 -0.003938 -0.002813 0.011308 0.000000 0.002026 0.000000
# 4 0.000000 0.000000 0.000000 0.033481 0.000000 -0.009292
# 5 -0.001357 -0.000648 0.002026 0.000000 0.039691 0.000000
# 6 0.000000 0.000000 0.000000 -0.009292 0.000000 0.085017
#
#
# Mechanical properties :
#
#
# Convention : Reuss Voigt Hill
#
# Bulk Modulus (GPa) = 27.02300 40.77331 33.89816
# Shear Modulus (GPa) = 19.58825 25.22633 22.40729
#
# Velocity S-wave (km/s) = 3.18427 3.61360 3.40571
# Velocity P-wave (km/s) = 5.24477 6.20617 5.74561
#
# Compressibility (1/GPa) = 0.03700551
#
# Stress axis : x y z
#
# Youngs Moduli (GPa) = 26.07089 89.25974 88.43207
#
# Poissons Ratio (x) = 0.46235 0.34828
# Poissons Ratio (y) = 0.13504 0.24878
# Poissons Ratio (z) = 0.10268 0.25110
#
# Static dielectric constant tensor:
#      x y z
#    x 1.675640 0.000000 -0.013490 
#    y 0.000000 1.708040 0.000000 
#    z -0.013490 0.000000 1.680020 
# 
# From -- ./inp_files/243774.got.cif
#   From: 2010.05.17/outbox.cif.g08.bks.cpg/sg15_122_cif.got.tgz:243774.got - 2010.06.03 18:47:42.
