data_PCOD9271129
_publ_section_title
;
Structure prediction by ZEFSAII (Michael W. Deem and Ramdas Pophale) SiO2 
 PCOD9271129
Probable space group: C 2/C
;
_chemical_formula_sum "Si O2"
_cell_formula_units_Z 56
_cell_length_a 14.535373
_cell_length_b 13.678025
_cell_length_c 21.327666
_cell_angle_alpha 90.000000
_cell_angle_beta 37.214550
_cell_angle_gamma 90.000000
_cell_volume 2564.517527
_symmetry_space_group_name_H-M "C 2/C"
_symmetry_group_IT_number 15
_symmetry_cell_setting 'monoclinic'
loop_
_space_group_symop_operation_xyz
x,y,z
-x,y,1/2-z
-x,-y,-z
x,-y,1/2+z
1/2+x,1/2+y,z
1/2-x,1/2+y,1/2-z
1/2-x,1/2-y,-z
1/2+x,1/2-y,1/2+z
loop_
_atom_site_type_symbol
_atom_site_label
_atom_site_fract_x
_atom_site_fract_y
_atom_site_fract_z
Si Si1 0.214865 0.191644 0.809051
Si Si2 0.621830 0.569505 0.963805
Si Si3 0.899415 0.268957 0.958517
Si Si4 0.939808 0.568249 0.210470
Si Si5 0.854569 0.207886 0.122605
Si Si6 0.355798 0.103328 0.929046
Si Si7 0.666797 0.696166 0.140457
O O1 0.225003 0.100219 0.849348
O O2 0.321920 0.212814 0.693249
O O3 0.248184 0.278590 0.840767
O O4 0.041463 0.193402 0.878284
O O5 0.728920 0.537558 0.961367
O O6 0.500000 0.500000 0.000000
O O7 0.520758 0.661044 0.041961
O O8 0.972214 0.364545 0.888157
O O9 0.750000 0.250000 0.000000
O O10 0.852386 0.260307 0.056638
O O11 0.993413 0.461157 0.156981
O O12 0.000000 0.576682 0.250000
O O13 0.772528 0.621179 0.303481
O O14 0.366501 0.203096 0.881227
O O15 0.278039 0.132158 0.036727
O O16 0.500000 0.655705 0.250000
#
# Coordination Sequence:
#
# PCOD9271129 Si02
#       7
#     8   8   8   8   8   8   8
#     4   9  21  36  58  84 109 155 195 234 295 357
#     4  10  20  36  57  86 116 147 196 246 283 345
#     4  10  20  36  59  84 116 153 186 242 297 355
#     4  11  20  35  60  89 115 150 199 239 291 361
#     4  10  20  38  58  84 117 153 192 235 297 353
#     4  10  22  36  61  89 116 156 202 250 290 349
#     4  10  20  40  61  83 120 159 199 246 303 346
#
# _framework density 21.836466000000001
#
# number of rings (size 3 to 8) (size 9 to 14) (size 15 to 20)
#    0.000    2.000    1.429    2.143    2.000    2.286 
#    0.000    5.714    0.000    0.000    0.000    0.000 
#    0.000    0.000    0.000    0.000    0.000    0.000 
#
# Total GULP energy -156147.383451 kJ/mol
# GULP energy per Si atom -5576.692266 kJ/mol
# Density = 2.178677 g / cm^3
# Si number density = 21.836466 Si / 1000 Ang^3
#
#
#
# Elastic Constant Matrix: (Units=GPa)
#
#
# Indices 1 2 3 4 5 6 
#
# 1 61.8356 4.3867 41.4070 -0.0001 -2.8808 0.0000
# 2 4.3867 53.1118 50.6396 0.0000 5.6456 0.0000
# 3 41.4070 50.6396 196.0475 -0.0002 4.8226 0.0001
# 4 -0.0001 0.0000 -0.0002 30.8210 0.0001 -6.7683
# 5 -2.8808 5.6456 4.8226 0.0001 43.5308 0.0000
# 6 0.0000 0.0000 0.0001 -6.7683 0.0000 21.8899
#
#
#
# Elastic Compliance Matrix: (Units=1/GPa)
#
#
# Indices 1 2 3 4 5 6 
#
# 1 0.019284 0.002881 -0.004853 0.000000 0.001440 0.000000
# 2 0.002881 0.025692 -0.007187 0.000000 -0.002345 0.000000
# 3 -0.004853 -0.007187 0.007989 0.000000 -0.000274 0.000000
# 4 0.000000 0.000000 0.000000 0.034809 0.000000 0.010763
# 5 0.001440 -0.002345 -0.000274 0.000000 0.023402 0.000000
# 6 0.000000 0.000000 0.000000 0.010763 0.000000 0.049011
#
#
# Mechanical properties :
#
#
# Convention : Reuss Voigt Hill
#
# Bulk Modulus (GPa) = 28.86217 55.98462 42.42339
# Shear Modulus (GPa) = 26.30833 33.55245 29.93039
#
# Velocity S-wave (km/s) = 3.47477 3.92412 3.70626
# Velocity P-wave (km/s) = 5.41709 6.79892 6.14696
#
# Compressibility (1/GPa) = 0.03464743
#
# Stress axis : x y z
#
# Youngs Moduli (GPa) = 51.85639 38.92239 125.17378
#
# Poissons Ratio (x) = -0.11213 0.60741
# Poissons Ratio (y) = -0.14939 0.89964
# Poissons Ratio (z) = 0.25163 0.27974
#
# Static dielectric constant tensor:
#      x y z
#    x 1.796610 0.000000 -0.044040 
#    y 0.000000 1.908470 0.000000 
#    z -0.044040 0.000000 1.838330 
# 
# From -- ./inp_files/244520.got.cif
#   From: 2010.05.17/outbox.cif.g08.bks.cpg/sg15_123_cif.got.tgz:244520.got - 2010.06.03 18:47:42.
