data_PCOD9271032
_publ_section_title
;
Structure prediction by ZEFSAII (Michael W. Deem and Ramdas Pophale) SiO2 
 PCOD9271032
Probable space group: C 2/C
;
_chemical_formula_sum "Si O2"
_cell_formula_units_Z 52
_cell_length_a 5.004615
_cell_length_b 23.542019
_cell_length_c 17.945335
_cell_angle_alpha 90.000000
_cell_angle_beta 84.248283
_cell_angle_gamma 90.000000
_cell_volume 2103.652390
_symmetry_space_group_name_H-M "C 2/C"
_symmetry_group_IT_number 15
_symmetry_cell_setting 'monoclinic'
loop_
_space_group_symop_operation_xyz
x,y,z
-x,y,1/2-z
-x,-y,-z
x,-y,1/2+z
1/2+x,1/2+y,z
1/2-x,1/2+y,1/2-z
1/2-x,1/2-y,-z
1/2+x,1/2-y,1/2+z
loop_
_atom_site_type_symbol
_atom_site_label
_atom_site_fract_x
_atom_site_fract_y
_atom_site_fract_z
Si Si1 0.810456 0.401857 0.097054
Si Si2 0.299546 0.545778 0.042124
Si Si3 0.428996 0.804203 0.837618
Si Si4 0.126126 0.845410 0.585340
Si Si5 0.473741 0.711619 0.951454
Si Si6 0.000000 0.599679 0.750000
Si Si7 0.091014 0.990185 0.319214
O O1 0.643479 0.348027 0.073593
O O2 0.955984 0.376000 0.167195
O O3 0.641359 0.455537 0.132050
O O4 0.907905 0.429805 0.014689
O O5 0.490897 0.596972 0.063032
O O6 0.219158 0.518742 0.123850
O O7 0.500000 0.500000 0.000000
O O8 0.500000 0.802291 0.750000
O O9 0.607906 0.851963 0.873748
O O10 0.538682 0.748019 0.876808
O O11 0.114739 0.814068 0.862453
O O12 0.183395 0.808449 0.508955
O O13 0.250000 0.750000 0.000000
O O14 0.244847 0.559166 0.724808
O O15 0.000000 0.027572 0.250000
#
# Coordination Sequence:
#
# PCOD9271032 Si02
#       7
#     8   8   8   8   8   4   8
#     4   9  19  39  58  87 120 155 209 258 317 372
#     4   9  19  41  63  88 118 165 215 255 312 385
#     4  11  23  41  64  94 129 167 215 261 322 385
#     4  10  22  44  63  92 130 167 211 268 317 377
#     4   9  20  42  63  88 122 163 214 261 319 380
#     4  10  20  36  56  88 126 158 198 266 320 372
#     4   9  19  36  56  85 124 156 204 253 314 377
#
# _framework density 24.718914999999999
#
# number of rings (size 3 to 8) (size 9 to 14) (size 15 to 20)
#    0.000    2.462    0.000    0.923    0.000    3.692 
#   45.692    0.000    0.000    0.000    0.000    0.000 
#    0.000    0.000    0.000    0.000    0.000    0.000 
#
# Total GULP energy -144843.854956 kJ/mol
# GULP energy per Si atom -5570.917498 kJ/mol
# Density = 2.466265 g / cm^3
# Si number density = 24.718915 Si / 1000 Ang^3
#
#
#
# Elastic Constant Matrix: (Units=GPa)
#
#
# Indices 1 2 3 4 5 6 
#
# 1 76.4090 -4.4389 32.6500 0.0000 7.7795 0.0000
# 2 -4.4389 64.0324 36.2279 0.0000 0.8741 0.0000
# 3 32.6500 36.2279 218.1589 0.0000 35.8519 0.0000
# 4 0.0000 0.0000 0.0000 10.8606 0.0000 9.3120
# 5 7.7795 0.8741 35.8519 0.0000 34.4382 0.0000
# 6 0.0000 0.0000 0.0000 9.3120 0.0000 14.8217
#
#
#
# Elastic Compliance Matrix: (Units=1/GPa)
#
#
# Indices 1 2 3 4 5 6 
#
# 1 0.014335 0.002367 -0.002408 0.000000 -0.000791 0.000000
# 2 0.002367 0.017900 -0.003817 0.000000 0.002985 0.000000
# 3 -0.002408 -0.003817 0.006602 0.000000 -0.006233 0.000000
# 4 0.000000 0.000000 0.000000 0.199597 0.000000 -0.125401
# 5 -0.000791 0.002985 -0.006233 0.000000 0.035629 0.000000
# 6 0.000000 0.000000 0.000000 -0.125401 0.000000 0.146255
#
#
# Mechanical properties :
#
#
# Convention : Reuss Voigt Hill
#
# Bulk Modulus (GPa) = 32.13371 54.16425 43.14898
# Shear Modulus (GPa) = 11.40490 31.63484 21.51987
#
# Velocity S-wave (km/s) = 2.15031 3.58129 2.95377
# Velocity P-wave (km/s) = 4.38098 6.24984 5.39692
#
# Compressibility (1/GPa) = 0.03111997
#
# Stress axis : x y z
#
# Youngs Moduli (GPa) = 69.76098 55.86522 151.45940
#
# Poissons Ratio (x) = -0.13224 0.36478
# Poissons Ratio (y) = -0.16514 0.57818
# Poissons Ratio (z) = 0.16802 0.21326
#
# Static dielectric constant tensor:
#      x y z
#    x 2.032970 0.000000 0.127990 
#    y 0.000000 2.028540 0.000000 
#    z 0.127990 0.000000 1.964990 
# 
# From -- ./inp_files/185885.got.cif
#   From: 2010.05.17/outbox.cif.g08.bks.cpg/sg15_93_cif.got.tgz:185885.got - 2010.06.03 18:47:42.
