data_PCOD9271810
_publ_section_title
;
Structure prediction by ZEFSAII (Michael W. Deem and Ramdas Pophale) SiO2 
 PCOD9271810
Probable space group: C 2/C
;
_chemical_formula_sum "Si O2"
_cell_formula_units_Z 44
_cell_length_a 20.628039
_cell_length_b 6.862413
_cell_length_c 14.087951
_cell_angle_alpha 90.000000
_cell_angle_beta 67.204435
_cell_angle_gamma 90.000000
_cell_volume 1838.498218
_symmetry_space_group_name_H-M "C 2/C"
_symmetry_group_IT_number 15
_symmetry_cell_setting 'monoclinic'
loop_
_space_group_symop_operation_xyz
x,y,z
-x,y,1/2-z
-x,-y,-z
x,-y,1/2+z
1/2+x,1/2+y,z
1/2-x,1/2+y,1/2-z
1/2-x,1/2-y,-z
1/2+x,1/2-y,1/2+z
loop_
_atom_site_type_symbol
_atom_site_label
_atom_site_fract_x
_atom_site_fract_y
_atom_site_fract_z
Si Si1 0.500000 0.493059 0.750000
Si Si2 0.443069 0.369408 0.475069
Si Si3 0.288703 0.429151 0.816529
Si Si4 0.675606 0.126842 0.241427
Si Si5 0.217104 0.952741 0.976861
Si Si6 0.911975 0.688356 0.673142
O O1 0.535282 0.623941 0.647602
O O2 0.453148 0.338819 0.716750
O O3 0.500000 0.500000 0.500000
O O4 0.361971 0.440293 0.517938
O O5 0.438177 0.187098 0.549954
O O6 0.209291 0.410189 0.825315
O O7 0.289131 0.406992 0.929085
O O8 0.334436 0.283903 0.726996
O O9 0.320836 0.644524 0.780265
O O10 0.599503 0.028311 0.281151
O O11 0.727818 0.016792 0.138559
O O12 0.250000 0.750000 0.000000
#
# Coordination Sequence:
#
# PCOD9271810 Si02
#       6
#     4   8   8   8   8   8
#     4  10  22  40  66  84 124 178 218 256 320 384
#     4  10  20  37  64  91 120 171 217 255 317 389
#     4  11  20  36  61  93 125 163 199 253 321 375
#     4  11  22  38  61  97 131 155 207 269 317 374
#     4  10  20  36  61  94 125 160 209 263 318 379
#     4  11  21  40  63  89 125 164 211 261 317 382
#
# _framework density 23.932576000000001
#
# number of rings (size 3 to 8) (size 9 to 14) (size 15 to 20)
#    0.000    1.455    5.455    1.091    0.000    0.727 
#    3.273    0.909    0.000    5.455    0.000    0.000 
#    0.000    0.000    0.000    0.000    0.000    0.000 
#
# Total GULP energy -122685.348397 kJ/mol
# GULP energy per Si atom -5576.606745 kJ/mol
# Density = 2.387810 g / cm^3
# Si number density = 23.932576 Si / 1000 Ang^3
#
#
#
# Elastic Constant Matrix: (Units=GPa)
#
#
# Indices 1 2 3 4 5 6 
#
# 1 81.8888 12.7553 32.4845 0.0000 12.0019 0.0000
# 2 12.7553 79.1305 27.1735 0.0000 -9.3890 0.0000
# 3 32.4845 27.1735 156.4978 0.0000 14.1271 0.0000
# 4 0.0000 0.0000 0.0000 24.4239 0.0000 -8.7022
# 5 12.0019 -9.3890 14.1271 0.0000 29.4408 0.0000
# 6 0.0000 0.0000 0.0000 -8.7022 0.0000 20.9585
#
#
#
# Elastic Compliance Matrix: (Units=1/GPa)
#
#
# Indices 1 2 3 4 5 6 
#
# 1 0.014183 -0.002232 -0.002059 0.000000 -0.005506 0.000000
# 2 -0.002232 0.014754 -0.002723 0.000000 0.006922 0.000000
# 3 -0.002059 -0.002723 0.007623 0.000000 -0.003687 0.000000
# 4 0.000000 0.000000 0.000000 0.048052 0.000000 0.019952
# 5 -0.005506 0.006922 -0.003687 0.000000 0.040188 0.000000
# 6 0.000000 0.000000 0.000000 0.019952 0.000000 0.055997
#
#
# Mechanical properties :
#
#
# Convention : Reuss Voigt Hill
#
# Bulk Modulus (GPa) = 44.38529 51.37153 47.87841
# Shear Modulus (GPa) = 24.71123 31.30489 28.00806
#
# Velocity S-wave (km/s) = 3.21679 3.62061 3.42466
# Velocity P-wave (km/s) = 5.69063 6.24421 5.97384
#
# Compressibility (1/GPa) = 0.02252999
#
# Stress axis : x y z
#
# Youngs Moduli (GPa) = 70.50552 67.77994 131.18184
#
# Poissons Ratio (x) = 0.15130 0.27016
# Poissons Ratio (y) = 0.15739 0.35724
# Poissons Ratio (z) = 0.14520 0.18458
#
# Static dielectric constant tensor:
#      x y z
#    x 1.798090 0.000000 -0.030140 
#    y 0.000000 1.990500 0.000000 
#    z -0.030140 0.000000 1.928190 
# 
# From -- ./inp_files/171066.got.cif
#   From: 2010.05.17/outbox.cif.g08.bks.cpg/sg15_86_cif.got.tgz:171066.got - 2010.06.03 18:47:42.
