data_PCOD9271588
_publ_section_title
;
Structure prediction by ZEFSAII (Michael W. Deem and Ramdas Pophale) SiO2 
 PCOD9271588
Probable space group: C 2/C
;
_chemical_formula_sum "Si O2"
_cell_formula_units_Z 48
_cell_length_a 9.435091
_cell_length_b 30.150294
_cell_length_c 16.432732
_cell_angle_alpha 90.000000
_cell_angle_beta 31.893719
_cell_angle_gamma 90.000000
_cell_volume 2469.819616
_symmetry_space_group_name_H-M "C 2/C"
_symmetry_group_IT_number 15
_symmetry_cell_setting 'monoclinic'
loop_
_space_group_symop_operation_xyz
x,y,z
-x,y,1/2-z
-x,-y,-z
x,-y,1/2+z
1/2+x,1/2+y,z
1/2-x,1/2+y,1/2-z
1/2-x,1/2-y,-z
1/2+x,1/2-y,1/2+z
loop_
_atom_site_type_symbol
_atom_site_label
_atom_site_fract_x
_atom_site_fract_y
_atom_site_fract_z
Si Si1 0.701480 0.613902 0.728525
Si Si2 0.687146 0.222285 0.384754
Si Si3 0.071656 0.544956 0.307775
Si Si4 0.306203 0.882188 0.623189
Si Si5 0.515447 0.521544 0.644208
Si Si6 0.691091 0.285535 0.236306
O O1 0.500000 0.616682 0.750000
O O2 0.598756 0.570391 0.824919
O O3 0.696617 0.663577 0.766411
O O4 0.995652 0.605982 0.547681
O O5 0.664870 0.170128 0.374704
O O6 0.603591 0.252771 0.350090
O O7 0.485922 0.227776 0.558842
O O8 0.000000 0.231743 0.250000
O O9 0.822798 0.518845 0.468779
O O10 0.000000 0.553700 0.250000
O O11 0.106305 0.589531 0.342366
O O12 0.336002 0.515664 0.190305
O O13 0.000000 0.891854 0.750000
O O14 0.500000 0.517808 0.750000
O O15 0.500000 0.283745 0.250000
#
# Coordination Sequence:
#
# PCOD9271588 Si02
#       6
#     8   8   8   8   8   8
#     4   9  18  37  61  83 113 153 202 233 273 345
#     4  10  21  38  59  86 120 153 194 241 287 342
#     4  12  25  40  59  91 123 146 186 253 298 332
#     4  10  21  38  61  86 114 158 201 232 279 353
#     4  11  22  41  65  85 113 160 199 228 282 359
#     4  10  20  36  60  87 117 153 194 239 288 340
#
# _framework density 19.434615999999998
#
# number of rings (size 3 to 8) (size 9 to 14) (size 15 to 20)
#    0.000    1.667    3.333    2.500    2.333    0.667 
#    3.000    0.833    0.000    0.000    0.000    0.000 
#    0.000    0.000    0.000    0.000    0.000    0.000 
#
# Total GULP energy -134011.976766 kJ/mol
# GULP energy per Si atom -5583.832365 kJ/mol
# Density = 1.939038 g / cm^3
# Si number density = 19.434616 Si / 1000 Ang^3
#
#
#
# Elastic Constant Matrix: (Units=GPa)
#
#
# Indices 1 2 3 4 5 6 
#
# 1 53.7823 23.6671 -6.6222 0.0000 0.5669 0.0000
# 2 23.6671 43.9584 -14.5961 0.0000 1.5174 0.0000
# 3 -6.6222 -14.5961 56.4871 0.0000 -18.1400 0.0000
# 4 0.0000 0.0000 0.0000 21.6529 0.0000 7.8016
# 5 0.5669 1.5174 -18.1400 0.0000 20.7578 0.0000
# 6 0.0000 0.0000 0.0000 7.8016 0.0000 231.3599
#
#
#
# Elastic Compliance Matrix: (Units=1/GPa)
#
#
# Indices 1 2 3 4 5 6 
#
# 1 0.024385 -0.013345 -0.000681 0.000000 -0.000286 0.000000
# 2 -0.013345 0.032611 0.008638 0.000000 0.005529 0.000000
# 3 -0.000681 0.008638 0.027328 0.000000 0.023269 0.000000
# 4 0.000000 0.000000 0.000000 0.046751 0.000000 -0.001576
# 5 -0.000286 0.005529 0.023269 0.000000 0.068113 0.000000
# 6 0.000000 0.000000 0.000000 -0.001576 0.000000 0.004375
#
#
# Mechanical properties :
#
#
# Convention : Reuss Voigt Hill
#
# Bulk Modulus (GPa) = 13.59703 17.68059 15.63881
# Shear Modulus (GPa) = 20.93306 64.87272 42.90289
#
# Velocity S-wave (km/s) = 3.28548 5.78381 4.70355
# Velocity P-wave (km/s) = 4.62645 7.32943 6.12881
#
# Compressibility (1/GPa) = 0.07354549
#
# Stress axis : x y z
#
# Youngs Moduli (GPa) = 41.00836 30.66442 36.59310
#
# Poissons Ratio (x) = 0.40923 0.02494
# Poissons Ratio (y) = 0.54727 -0.31608
# Poissons Ratio (z) = 0.02794 -0.26487
#
# Static dielectric constant tensor:
#      x y z
#    x 4.185920 0.000000 -3.316180 
#    y 0.000000 1.688560 0.000000 
#    z -3.316180 0.000000 6.003530 
# 
# From -- ./inp_files/52736.got.cif
#   From: 2010.05.17/outbox.cif.g08.bks.cpg/sg15_27_cif.got.tgz:52736.got - 2010.06.03 18:47:42.
