data_PCOD9271473
_publ_section_title
;
Structure prediction by ZEFSAII (Michael W. Deem and Ramdas Pophale) SiO2 
 PCOD9271473
Probable space group: C 2/C
;
_chemical_formula_sum "Si O2"
_cell_formula_units_Z 60
_cell_length_a 15.180210
_cell_length_b 13.649989
_cell_length_c 13.944044
_cell_angle_alpha 90.000000
_cell_angle_beta 67.710719
_cell_angle_gamma 90.000000
_cell_volume 2673.451593
_symmetry_space_group_name_H-M "C 2/C"
_symmetry_group_IT_number 15
_symmetry_cell_setting 'monoclinic'
loop_
_space_group_symop_operation_xyz
x,y,z
-x,y,1/2-z
-x,-y,-z
x,-y,1/2+z
1/2+x,1/2+y,z
1/2-x,1/2+y,1/2-z
1/2-x,1/2-y,-z
1/2+x,1/2-y,1/2+z
loop_
_atom_site_type_symbol
_atom_site_label
_atom_site_fract_x
_atom_site_fract_y
_atom_site_fract_z
Si Si1 0.240585 0.046527 0.084140
Si Si2 0.000000 0.521935 0.750000
Si Si3 0.784627 0.695664 0.732863
Si Si4 0.197328 0.536285 0.235366
Si Si5 0.376160 0.640425 0.071714
Si Si6 0.456335 0.368529 0.870600
Si Si7 0.804380 0.830074 0.413581
Si Si8 0.633982 0.178148 0.600051
O O1 0.279355 0.080694 0.170942
O O2 0.127850 0.058313 0.120235
O O3 0.256781 0.930473 0.065453
O O4 0.289931 0.113462 0.985902
O O5 0.087862 0.455722 0.749189
O O6 0.050238 0.599870 0.657577
O O7 0.792401 0.579884 0.750698
O O8 0.858600 0.755642 0.634600
O O9 0.692096 0.703584 0.699574
O O10 0.813403 0.726749 0.828939
O O11 0.279144 0.578376 0.132226
O O12 0.462836 0.592228 0.092804
O O13 0.390932 0.650633 0.951615
O O14 0.500000 0.338286 0.750000
O O15 0.410818 0.270645 0.935071
O O16 0.750000 0.750000 0.500000
#
# Coordination Sequence:
#
# PCOD9271473 Si02
#       8
#     8   4   8   8   8   8   8   8
#     4  11  23  37  62  97 123 156 208 254 299 364
#     4  10  20  36  60  82 122 168 200 240 310 356
#     4   9  18  35  60  83 114 160 203 237 301 357
#     4  10  20  36  59  89 119 158 201 254 296 358
#     4  11  20  38  64  84 122 164 202 244 303 365
#     4  12  21  38  63  93 123 162 198 249 314 365
#     4   9  20  37  58  86 115 167 206 237 296 359
#     4  11  20  38  62  93 122 154 201 260 307 357
#
# _framework density 22.442896999999999
#
# number of rings (size 3 to 8) (size 9 to 14) (size 15 to 20)
#    0.000    1.600    3.333    2.800    0.000    1.067 
#    0.000    5.333    0.000    6.400    1.733    0.000 
#    0.000    0.000    0.000    0.000    0.000    0.000 
#
# Total GULP energy -167001.370648 kJ/mol
# GULP energy per Si atom -5566.712355 kJ/mol
# Density = 2.239182 g / cm^3
# Si number density = 22.442897 Si / 1000 Ang^3
#
#
#
# Elastic Constant Matrix: (Units=GPa)
#
#
# Indices 1 2 3 4 5 6 
#
# 1 163.4702 19.4949 28.0767 0.0000 18.9014 0.0000
# 2 19.4949 78.4281 -2.2002 0.0000 -18.7769 0.0000
# 3 28.0767 -2.2002 33.4073 0.0000 6.7350 0.0000
# 4 0.0000 0.0000 0.0000 18.1646 0.0000 8.4687
# 5 18.9014 -18.7769 6.7350 0.0000 30.7712 0.0000
# 6 0.0000 0.0000 0.0000 8.4687 0.0000 30.5932
#
#
#
# Elastic Compliance Matrix: (Units=1/GPa)
#
#
# Indices 1 2 3 4 5 6 
#
# 1 0.008277 -0.003664 -0.005986 0.000000 -0.006010 0.000000
# 2 -0.003664 0.016580 0.001756 0.000000 0.011984 0.000000
# 3 -0.005986 0.001756 0.035698 0.000000 -0.003065 0.000000
# 4 0.000000 0.000000 0.000000 0.063210 0.000000 -0.017498
# 5 -0.006010 0.011984 -0.003065 0.000000 0.044173 0.000000
# 6 0.000000 0.000000 0.000000 -0.017498 0.000000 0.037531
#
#
# Mechanical properties :
#
#
# Convention : Reuss Voigt Hill
#
# Bulk Modulus (GPa) = 22.33875 40.67206 31.50540
# Shear Modulus (GPa) = 21.17021 31.23473 26.20247
#
# Velocity S-wave (km/s) = 3.07464 3.73465 3.42060
# Velocity P-wave (km/s) = 4.75181 6.06289 5.44694
#
# Compressibility (1/GPa) = 0.04476527
#
# Stress axis : x y z
#
# Youngs Moduli (GPa) = 120.81020 60.31452 28.01265
#
# Poissons Ratio (x) = 0.22102 0.16769
# Poissons Ratio (y) = 0.44270 -0.04918
# Poissons Ratio (z) = 0.72321 -0.10589
#
# Static dielectric constant tensor:
#      x y z
#    x 1.968360 0.000000 0.053740 
#    y 0.000000 1.902180 0.000000 
#    z 0.053740 0.000000 1.921860 
# 
# From -- ./inp_files/153906.got.cif
#   From: 2010.05.17/outbox.cif.g08.bks.cpg/sg15_77_cif.got.tgz:153906.got - 2010.06.03 18:47:42.
