data_PCOD9271041
_publ_section_title
;
Structure prediction by ZEFSAII (Michael W. Deem and Ramdas Pophale) SiO2 
 PCOD9271041
Probable space group: C 2/C
;
_chemical_formula_sum "Si O2"
_cell_formula_units_Z 28
_cell_length_a 13.183150
_cell_length_b 7.729536
_cell_length_c 13.278830
_cell_angle_alpha 90.000000
_cell_angle_beta 61.622935
_cell_angle_gamma 90.000000
_cell_volume 1190.516951
_symmetry_space_group_name_H-M "C 2/C"
_symmetry_group_IT_number 15
_symmetry_cell_setting 'monoclinic'
loop_
_space_group_symop_operation_xyz
x,y,z
-x,y,1/2-z
-x,-y,-z
x,-y,1/2+z
1/2+x,1/2+y,z
1/2-x,1/2+y,1/2-z
1/2-x,1/2-y,-z
1/2+x,1/2-y,1/2+z
loop_
_atom_site_type_symbol
_atom_site_label
_atom_site_fract_x
_atom_site_fract_y
_atom_site_fract_z
Si Si1 0.779574 0.256422 0.777665
Si Si2 0.862047 0.108725 0.321445
Si Si3 0.101066 0.910969 0.015620
Si Si4 0.000000 0.312899 0.750000
O O1 0.723327 0.263847 0.694917
O O2 0.885415 0.388284 0.752023
O O3 0.832975 0.067367 0.772187
O O4 0.681719 0.301117 0.904883
O O5 0.000000 0.148207 0.250000
O O6 0.836616 0.060014 0.448413
O O7 0.052398 0.788198 0.127687
O O8 0.000000 0.000000 0.000000
#
# Coordination Sequence:
#
# PCOD9271041 Si02
#       4
#     8   8   8   4
#     4  11  21  40  64  87 123 158 198 247 300 351
#     4  11  21  40  63  87 123 156 198 245 297 350
#     4  11  18  37  64  86 118 164 193 243 303 351
#     4  10  20  36  56  90 124 152 198 250 292 348
#
# _framework density 23.519195
#
# number of rings (size 3 to 8) (size 9 to 14) (size 15 to 20)
#    0.000    1.143    8.571    3.429    0.000    0.000 
#    2.571   11.429    0.000    0.000    0.000    0.000 
#    0.000    0.000    0.000    0.000    0.000    0.000 
#
# Total GULP energy -78024.537323 kJ/mol
# GULP energy per Si atom -5573.181237 kJ/mol
# Density = 2.346566 g / cm^3
# Si number density = 23.519195 Si / 1000 Ang^3
#
#
#
# Elastic Constant Matrix: (Units=GPa)
#
#
# Indices 1 2 3 4 5 6 
#
# 1 212.2132 36.1168 23.7610 0.0000 20.0689 0.0000
# 2 36.1168 24.7694 1.5662 0.0000 3.4856 0.0000
# 3 23.7610 1.5662 117.7103 0.0000 5.8214 0.0000
# 4 0.0000 0.0000 0.0000 18.7659 0.0000 2.5854
# 5 20.0689 3.4856 5.8214 0.0000 50.0376 0.0000
# 6 0.0000 0.0000 0.0000 2.5854 0.0000 47.5122
#
#
#
# Elastic Compliance Matrix: (Units=1/GPa)
#
#
# Indices 1 2 3 4 5 6 
#
# 1 0.006593 -0.009280 -0.001115 0.000000 -0.001868 0.000000
# 2 -0.009280 0.053854 0.001165 0.000000 -0.000165 0.000000
# 3 -0.001115 0.001165 0.008737 0.000000 -0.000650 0.000000
# 4 0.000000 0.000000 0.000000 0.053691 0.000000 -0.002922
# 5 -0.001868 -0.000165 -0.000650 0.000000 0.020821 0.000000
# 6 0.000000 0.000000 0.000000 -0.002922 0.000000 0.021206
#
#
# Mechanical properties :
#
#
# Convention : Reuss Voigt Hill
#
# Bulk Modulus (GPa) = 19.71481 53.06456 36.38969
# Shear Modulus (GPa) = 24.96617 42.81306 33.88961
#
# Velocity S-wave (km/s) = 3.26164 4.27118 3.80008
# Velocity P-wave (km/s) = 4.75237 6.85093 5.89577
#
# Compressibility (1/GPa) = 0.05072328
#
# Stress axis : x y z
#
# Youngs Moduli (GPa) = 151.67179 18.56882 114.45341
#
# Poissons Ratio (x) = 0.17232 0.12762
# Poissons Ratio (y) = 1.40756 -0.13333
# Poissons Ratio (z) = 0.16912 -0.02163
#
# Static dielectric constant tensor:
#      x y z
#    x 2.041640 0.000000 -0.009130 
#    y 0.000000 2.134700 0.000000 
#    z -0.009130 0.000000 1.841210 
# 
# From -- ./inp_files/83505.got.cif
#   From: 2010.05.17/outbox.cif.g08.bks.cpg/sg15_42_cif.got.tgz:83505.got - 2010.06.03 18:47:42.
