data_PCOD9271728
_publ_section_title
;
Structure prediction by ZEFSAII (Michael W. Deem and Ramdas Pophale) SiO2 
 PCOD9271728
Probable space group: C 2/C
;
_chemical_formula_sum "Si O2"
_cell_formula_units_Z 48
_cell_length_a 11.371570
_cell_length_b 14.389338
_cell_length_c 13.305293
_cell_angle_alpha 90.000000
_cell_angle_beta 102.771138
_cell_angle_gamma 90.000000
_cell_volume 2123.276088
_symmetry_space_group_name_H-M "C 2/C"
_symmetry_group_IT_number 15
_symmetry_cell_setting 'monoclinic'
loop_
_space_group_symop_operation_xyz
x,y,z
-x,y,1/2-z
-x,-y,-z
x,-y,1/2+z
1/2+x,1/2+y,z
1/2-x,1/2+y,1/2-z
1/2-x,1/2-y,-z
1/2+x,1/2-y,1/2+z
loop_
_atom_site_type_symbol
_atom_site_label
_atom_site_fract_x
_atom_site_fract_y
_atom_site_fract_z
Si Si1 0.348772 0.985745 0.018704
Si Si2 0.993313 0.636741 0.399280
Si Si3 0.358377 0.168017 0.905375
Si Si4 0.095512 0.081501 0.539433
Si Si5 0.429942 0.275078 0.647652
Si Si6 0.181830 0.778317 0.208687
O O1 0.334664 0.060243 0.925254
O O2 0.406635 0.897701 0.974847
O O3 0.436576 0.041496 0.111589
O O4 0.225547 0.963673 0.047118
O O5 0.907228 0.690761 0.309447
O O6 0.094569 0.699627 0.475207
O O7 0.470844 0.194802 0.855224
O O8 0.242253 0.206453 0.827621
O O9 0.080040 0.160801 0.451715
O O10 0.106759 0.135786 0.647612
O O11 0.000000 0.000000 0.500000
O O12 0.500000 0.330021 0.750000
O O13 0.297622 0.241837 0.657363
#
# Coordination Sequence:
#
# PCOD9271728 Si02
#       6
#     8   8   8   8   8   8
#     4   9  19  36  59  86 119 153 195 246 299 349
#     4   9  17  36  64  84 116 152 198 243 303 333
#     4   9  19  35  58  91 114 151 196 247 294 350
#     4  12  23  36  56  89 122 155 192 252 297 346
#     4  10  20  36  61  85 112 153 204 244 285 358
#     4  11  20  36  62  88 118 153 206 240 292 359
#
# _framework density 22.606574999999999
#
# number of rings (size 3 to 8) (size 9 to 14) (size 15 to 20)
#    1.000    1.000    3.333    1.500    0.000    1.333 
#    0.000    3.333    0.000    2.000    0.000    0.000 
#    0.000    0.000    0.000    0.000    0.000    0.000 
#
# Total GULP energy -133637.329785 kJ/mol
# GULP energy per Si atom -5568.222074 kJ/mol
# Density = 2.255512 g / cm^3
# Si number density = 22.606575 Si / 1000 Ang^3
#
#
#
# Elastic Constant Matrix: (Units=GPa)
#
#
# Indices 1 2 3 4 5 6 
#
# 1 79.7342 43.7934 20.5908 0.0000 15.5927 0.0000
# 2 43.7934 81.7714 29.2203 0.0000 17.9055 0.0000
# 3 20.5908 29.2203 82.1846 0.0000 37.6237 0.0000
# 4 0.0000 0.0000 0.0000 24.2017 0.0000 18.0204
# 5 15.5927 17.9055 37.6237 0.0000 41.9746 0.0000
# 6 0.0000 0.0000 0.0000 18.0204 0.0000 33.5933
#
#
#
# Elastic Compliance Matrix: (Units=1/GPa)
#
#
# Indices 1 2 3 4 5 6 
#
# 1 0.018072 -0.009053 -0.000006 0.000000 -0.002846 0.000000
# 2 -0.009053 0.018709 -0.003849 0.000000 -0.001168 0.000000
# 3 -0.000006 -0.003849 0.021682 0.000000 -0.017790 0.000000
# 4 0.000000 0.000000 0.000000 0.068799 0.000000 -0.036906
# 5 -0.002846 -0.001168 -0.017790 0.000000 0.041326 0.000000
# 6 0.000000 0.000000 0.000000 -0.036906 0.000000 0.049565
#
#
# Mechanical properties :
#
#
# Convention : Reuss Voigt Hill
#
# Bulk Modulus (GPa) = 30.63141 47.87768 39.25455
# Shear Modulus (GPa) = 19.61916 29.95964 24.78940
#
# Velocity S-wave (km/s) = 2.94913 3.64436 3.31502
# Velocity P-wave (km/s) = 5.01754 6.23964 5.66166
#
# Compressibility (1/GPa) = 0.03264623
#
# Stress axis : x y z
#
# Youngs Moduli (GPa) = 55.33325 53.45038 46.12088
#
# Poissons Ratio (x) = 0.48391 0.00028
# Poissons Ratio (y) = 0.50095 0.17752
# Poissons Ratio (z) = 0.00034 0.20573
#
# Static dielectric constant tensor:
#      x y z
#    x 1.860220 0.000000 -0.000090 
#    y 0.000000 1.865610 0.000000 
#    z -0.000090 0.000000 1.932870 
# 
# From -- ./inp_files/143804.got.cif
#   From: 2010.05.17/outbox.cif.g08.bks.cpg/sg15_72_cif.got.tgz:143804.got - 2010.06.03 18:47:42.
