data_PCOD9271942
_publ_section_title
;
Structure prediction by ZEFSAII (Michael W. Deem and Ramdas Pophale) SiO2 
 PCOD9271942
Probable space group: C 2/C
;
_chemical_formula_sum "Si O2"
_cell_formula_units_Z 44
_cell_length_a 22.635087
_cell_length_b 7.502099
_cell_length_c 17.778471
_cell_angle_alpha 90.000000
_cell_angle_beta 142.554924
_cell_angle_gamma 90.000000
_cell_volume 1835.538090
_symmetry_space_group_name_H-M "C 2/C"
_symmetry_group_IT_number 15
_symmetry_cell_setting 'monoclinic'
loop_
_space_group_symop_operation_xyz
x,y,z
-x,y,1/2-z
-x,-y,-z
x,-y,1/2+z
1/2+x,1/2+y,z
1/2-x,1/2+y,1/2-z
1/2-x,1/2-y,-z
1/2+x,1/2-y,1/2+z
loop_
_atom_site_type_symbol
_atom_site_label
_atom_site_fract_x
_atom_site_fract_y
_atom_site_fract_z
Si Si1 0.003897 0.828873 0.121840
Si Si2 0.000000 0.458428 0.750000
Si Si3 0.643615 0.115902 0.168685
Si Si4 0.179988 0.293372 0.111132
Si Si5 0.693296 0.081230 0.874372
Si Si6 0.811436 0.007762 0.128680
O O1 0.060923 0.756074 0.106192
O O2 0.987598 0.670468 0.165845
O O3 0.077175 0.964470 0.236865
O O4 0.894883 0.863291 0.984753
O O5 0.097214 0.568044 0.830555
O O6 0.742390 0.220836 0.250383
O O7 0.623310 0.962927 0.088418
O O8 0.668050 0.019908 0.272716
O O9 0.244878 0.373883 0.109489
O O10 0.712316 0.287477 0.878326
O O11 0.780111 0.992098 0.010014
#
# Coordination Sequence:
#
# PCOD9271942 Si02
#       6
#     8   4   8   8   8   8
#     4  10  22  37  63  93 120 163 213 259 307 385
#     4  10  20  36  62  92 124 162 200 254 324 358
#     4  10  23  38  62  85 128 164 213 255 322 369
#     4  11  21  42  62  93 123 175 206 265 314 375
#     4  10  21  41  59  95 127 164 205 266 311 386
#     4  10  22  39  65  91 129 160 215 259 319 371
#
# _framework density 23.971174000000001
#
# number of rings (size 3 to 8) (size 9 to 14) (size 15 to 20)
#    0.000    1.818    1.818    1.636    2.545    2.909 
#    3.273   10.000    0.000    0.000    0.000    0.000 
#    0.000    0.000    0.000    0.000    0.000    0.000 
#
# Total GULP energy -122938.194826 kJ/mol
# GULP energy per Si atom -5588.099765 kJ/mol
# Density = 2.391661 g / cm^3
# Si number density = 23.971174 Si / 1000 Ang^3
#
#
#
# Elastic Constant Matrix: (Units=GPa)
#
#
# Indices 1 2 3 4 5 6 
#
# 1 70.8656 9.9534 22.7124 0.0000 -1.6711 0.0000
# 2 9.9534 58.4217 14.7728 0.0000 -5.9472 0.0000
# 3 22.7124 14.7728 63.2286 0.0000 19.1509 0.0000
# 4 0.0000 0.0000 0.0000 41.0727 0.0000 -4.7007
# 5 -1.6711 -5.9472 19.1509 0.0000 33.7315 0.0000
# 6 0.0000 0.0000 0.0000 -4.7007 0.0000 19.4381
#
#
#
# Elastic Compliance Matrix: (Units=1/GPa)
#
#
# Indices 1 2 3 4 5 6 
#
# 1 0.016653 -0.000475 -0.007362 0.000000 0.004921 0.000000
# 2 -0.000475 0.019590 -0.006576 0.000000 0.007164 0.000000
# 3 -0.007362 -0.006576 0.024707 0.000000 -0.015551 0.000000
# 4 0.000000 0.000000 0.000000 0.025040 0.000000 0.006055
# 5 0.004921 0.007164 -0.015551 0.000000 0.039982 0.000000
# 6 0.000000 0.000000 0.000000 0.006055 0.000000 0.052910
#
#
# Mechanical properties :
#
#
# Convention : Reuss Voigt Hill
#
# Bulk Modulus (GPa) = 31.12879 31.93256 31.53067
# Shear Modulus (GPa) = 22.89211 28.52026 25.70618
#
# Velocity S-wave (km/s) = 3.09364 3.45305 3.27827
# Velocity P-wave (km/s) = 5.07690 5.40816 5.24515
#
# Compressibility (1/GPa) = 0.03212461
#
# Stress axis : x y z
#
# Youngs Moduli (GPa) = 60.04805 51.04635 40.47477
#
# Poissons Ratio (x) = 0.02424 0.29796
# Poissons Ratio (y) = 0.02851 0.26618
# Poissons Ratio (z) = 0.44205 0.33570
#
# Static dielectric constant tensor:
#      x y z
#    x 1.936250 0.000000 0.044610 
#    y 0.000000 1.879580 0.000000 
#    z 0.044610 0.000000 1.987550 
# 
# From -- ./inp_files/116848.got.cif
#   From: 2010.05.17/outbox.cif.g08.bks.cpg/sg15_59_cif.got.tgz:116848.got - 2010.06.03 18:47:42.
