data_PCOD9271307
_publ_section_title
;
Structure prediction by ZEFSAII (Michael W. Deem and Ramdas Pophale) SiO2 
 PCOD9271307
Probable space group: C 2/C
;
_chemical_formula_sum "Si O2"
_cell_formula_units_Z 36
_cell_length_a 26.063334
_cell_length_b 13.877956
_cell_length_c 8.701252
_cell_angle_alpha 90.000000
_cell_angle_beta 31.627096
_cell_angle_gamma 90.000000
_cell_volume 1650.404877
_symmetry_space_group_name_H-M "C 2/C"
_symmetry_group_IT_number 15
_symmetry_cell_setting 'monoclinic'
loop_
_space_group_symop_operation_xyz
x,y,z
-x,y,1/2-z
-x,-y,-z
x,-y,1/2+z
1/2+x,1/2+y,z
1/2-x,1/2+y,1/2-z
1/2-x,1/2-y,-z
1/2+x,1/2-y,1/2+z
loop_
_atom_site_type_symbol
_atom_site_label
_atom_site_fract_x
_atom_site_fract_y
_atom_site_fract_z
Si Si1 0.500000 0.956361 0.250000
Si Si2 0.276980 0.273169 0.110210
Si Si3 0.597435 0.560051 0.292294
Si Si4 0.370512 0.081807 0.349963
Si Si5 0.781487 0.930525 0.725078
O O1 0.434056 0.028814 0.317857
O O2 0.438484 0.895260 0.531046
O O3 0.192671 0.333546 0.411916
O O4 0.272427 0.166369 0.188433
O O5 0.250000 0.250000 0.000000
O O6 0.375752 0.337687 0.858522
O O7 0.500000 0.500000 0.500000
O O8 0.624865 0.580569 0.399865
O O9 0.679775 0.489000 0.017112
O O10 0.296283 0.997268 0.490781
#
# Coordination Sequence:
#
# PCOD9271307 Si02
#       5
#     4   8   8   8   8
#     4  10  20  36  58  88 124 158 212 252 314 368
#     4   9  19  37  61  89 118 165 210 246 318 385
#     4  10  20  37  60  91 121 161 205 261 305 377
#     4  10  20  38  61  88 125 168 200 264 317 375
#     4  10  20  39  63  82 124 162 204 248 323 374
#
# _framework density 21.812829000000001
#
# number of rings (size 3 to 8) (size 9 to 14) (size 15 to 20)
#    0.000    2.222    0.000    4.667    0.000    0.000 
#   16.000   10.000    0.000    0.000    0.000    0.000 
#    0.000    0.000    0.000    0.000    0.000    0.000 
#
# Total GULP energy -100261.277087 kJ/mol
# GULP energy per Si atom -5570.070949 kJ/mol
# Density = 2.176318 g / cm^3
# Si number density = 21.812829 Si / 1000 Ang^3
#
#
#
# Elastic Constant Matrix: (Units=GPa)
#
#
# Indices 1 2 3 4 5 6 
#
# 1 95.4404 12.2769 30.9507 0.0000 -9.3735 0.0000
# 2 12.2769 135.3319 45.5337 0.0000 2.9768 0.0000
# 3 30.9507 45.5337 121.7823 0.0000 16.8869 0.0000
# 4 0.0000 0.0000 0.0000 7.0690 0.0000 -12.7790
# 5 -9.3735 2.9768 16.8869 0.0000 35.7757 0.0000
# 6 0.0000 0.0000 0.0000 -12.7790 0.0000 20.3381
#
#
#
# Elastic Compliance Matrix: (Units=1/GPa)
#
#
# Indices 1 2 3 4 5 6 
#
# 1 0.012197 0.000068 -0.003818 0.000000 0.004992 0.000000
# 2 0.000068 0.008477 -0.003308 0.000000 0.000874 0.000000
# 3 -0.003818 -0.003308 0.011256 0.000000 -0.006038 0.000000
# 4 0.000000 0.000000 0.000000 -1.041350 0.000000 -0.654307
# 5 0.004992 0.000874 -0.006038 0.000000 0.032037 0.000000
# 6 0.000000 0.000000 0.000000 -0.654307 0.000000 -0.361949
#
#
# Mechanical properties :
#
#
# Convention : Reuss Voigt Hill
#
# Bulk Modulus (GPa) = 56.13252 58.89747 57.51500
# Shear Modulus (GPa) = -3.78995 30.22279 13.21642
#
# Velocity S-wave (km/s) = -1.31957 3.72634 2.46418
# Velocity P-wave (km/s) = 4.84437 6.75085 5.87545
#
# Compressibility (1/GPa) = 0.01781498
#
# Stress axis : x y z
#
# Youngs Moduli (GPa) = 81.98536 117.96870 88.84400
#
# Poissons Ratio (x) = -0.00804 0.33917
# Poissons Ratio (y) = -0.00559 0.29389
# Poissons Ratio (z) = 0.31299 0.39023
#
# Static dielectric constant tensor:
#      x y z
#    x 1.885120 0.000000 0.005120 
#    y 0.000000 2.040250 0.000000 
#    z 0.005120 0.000000 1.885290 
# 
# From -- ./inp_files/37415.got.cif
#   From: 2010.05.17/outbox.cif.g08.bks.cpg/sg15_19_cif.got.tgz:37415.got - 2010.06.03 18:47:42.
