data_PCOD9271153
_publ_section_title
;
Structure prediction by ZEFSAII (Michael W. Deem and Ramdas Pophale) SiO2 
 PCOD9271153
Probable space group: C 2/C
;
_chemical_formula_sum "Si O2"
_cell_formula_units_Z 56
_cell_length_a 15.487023
_cell_length_b 11.642736
_cell_length_c 26.369015
_cell_angle_alpha 90.000000
_cell_angle_beta 146.365348
_cell_angle_gamma 90.000000
_cell_volume 2633.567752
_symmetry_space_group_name_H-M "C 2/C"
_symmetry_group_IT_number 15
_symmetry_cell_setting 'monoclinic'
loop_
_space_group_symop_operation_xyz
x,y,z
-x,y,1/2-z
-x,-y,-z
x,-y,1/2+z
1/2+x,1/2+y,z
1/2-x,1/2+y,1/2-z
1/2-x,1/2-y,-z
1/2+x,1/2-y,1/2+z
loop_
_atom_site_type_symbol
_atom_site_label
_atom_site_fract_x
_atom_site_fract_y
_atom_site_fract_z
Si Si1 0.397640 0.002693 0.249546
Si Si2 0.858796 0.686221 0.377234
Si Si3 0.044012 0.921033 0.068651
Si Si4 0.244649 0.200179 0.425162
Si Si5 0.746768 0.724780 0.208434
Si Si6 0.949014 0.438350 0.390135
Si Si7 0.582323 0.607308 0.436944
O O1 0.500000 0.975579 0.250000
O O2 0.362354 0.140639 0.234447
O O3 0.228836 0.941046 0.165490
O O4 0.464095 0.964283 0.337027
O O5 0.980381 0.786424 0.451705
O O6 0.729308 0.693320 0.357754
O O7 0.801622 0.718083 0.293397
O O8 0.926394 0.559287 0.406545
O O9 0.940320 0.973166 0.063425
O O10 0.000000 0.000000 0.000000
O O11 0.398334 0.126380 0.515352
O O12 0.285011 0.328175 0.465246
O O13 0.110326 0.145574 0.393279
O O14 0.701061 0.855736 0.173872
O O15 0.581197 0.660230 0.125810
#
# Coordination Sequence:
#
# PCOD9271153 Si02
#       7
#     8   8   8   8   8   8   8
#     4  10  22  38  64  89 113 161 209 246 300 363
#     4  11  21  37  60  86 116 164 205 236 308 368
#     4  11  21  37  60  87 120 155 199 248 299 356
#     4  10  20  36  57  89 118 155 197 252 293 362
#     4   9  20  40  59  81 119 158 195 253 299 360
#     4  10  21  39  60  83 125 157 199 248 308 360
#     4   9  20  36  57  84 120 150 195 250 304 337
#
# _framework density 21.263929999999998
#
# number of rings (size 3 to 8) (size 9 to 14) (size 15 to 20)
#    0.000    2.000    2.857    0.429    2.000    1.714 
#    0.000    3.571    0.000    0.000    0.000    0.000 
#    0.000    0.000    0.000    0.000    0.000    0.000 
#
# Total GULP energy -156230.278596 kJ/mol
# GULP energy per Si atom -5579.652807 kJ/mol
# Density = 2.121553 g / cm^3
# Si number density = 21.263930 Si / 1000 Ang^3
#
#
#
# Elastic Constant Matrix: (Units=GPa)
#
#
# Indices 1 2 3 4 5 6 
#
# 1 82.7856 19.1893 -0.1968 0.0000 -2.4516 0.0000
# 2 19.1893 145.7654 8.9374 0.0000 5.5863 0.0000
# 3 -0.1968 8.9374 40.6186 0.0001 -5.3038 0.0000
# 4 0.0000 0.0000 0.0001 20.1357 0.0000 -2.8660
# 5 -2.4516 5.5863 -5.3038 0.0000 19.3581 0.0000
# 6 0.0000 0.0000 0.0000 -2.8660 0.0000 28.8854
#
#
#
# Elastic Compliance Matrix: (Units=1/GPa)
#
#
# Indices 1 2 3 4 5 6 
#
# 1 0.012564 -0.001789 0.000757 0.000000 0.002315 0.000000
# 2 -0.001789 0.007329 -0.001999 0.000000 -0.002889 0.000000
# 3 0.000757 -0.001999 0.026084 0.000000 0.007819 0.000000
# 4 0.000000 0.000000 0.000000 0.050374 0.000000 0.004998
# 5 0.002315 -0.002889 0.007819 0.000000 0.054927 0.000000
# 6 0.000000 0.000000 0.000000 0.004998 0.000000 0.035115
#
#
# Mechanical properties :
#
#
# Convention : Reuss Voigt Hill
#
# Bulk Modulus (GPa) = 25.05296 36.11438 30.58367
# Shear Modulus (GPa) = 24.29998 29.75849 27.02924
#
# Velocity S-wave (km/s) = 3.38417 3.74502 3.56916
# Velocity P-wave (km/s) = 5.20362 5.97671 5.60351
#
# Compressibility (1/GPa) = 0.03991545
#
# Stress axis : x y z
#
# Youngs Moduli (GPa) = 79.58948 136.44167 38.33816
#
# Poissons Ratio (x) = 0.24412 -0.02902
# Poissons Ratio (y) = 0.14240 0.07662
# Poissons Ratio (z) = -0.06024 0.27269
#
# Static dielectric constant tensor:
#      x y z
#    x 1.794720 0.000000 -0.041570 
#    y 0.000000 1.873540 0.000000 
#    z -0.041570 0.000000 1.811900 
# 
# From -- ./inp_files/204334.got.cif
#   From: 2010.05.17/outbox.cif.g08.bks.cpg/sg15_103_cif.got.tgz:204334.got - 2010.06.03 18:47:42.
