data_PCOD9271619
_publ_section_title
;
Structure prediction by ZEFSAII (Michael W. Deem and Ramdas Pophale) SiO2 
 PCOD9271619
Probable space group: C 2/C
;
_chemical_formula_sum "Si O2"
_cell_formula_units_Z 44
_cell_length_a 5.098809
_cell_length_b 30.845948
_cell_length_c 15.397939
_cell_angle_alpha 90.000000
_cell_angle_beta 125.843924
_cell_angle_gamma 90.000000
_cell_volume 1963.107907
_symmetry_space_group_name_H-M "C 2/C"
_symmetry_group_IT_number 15
_symmetry_cell_setting 'monoclinic'
loop_
_space_group_symop_operation_xyz
x,y,z
-x,y,1/2-z
-x,-y,-z
x,-y,1/2+z
1/2+x,1/2+y,z
1/2-x,1/2+y,1/2-z
1/2-x,1/2-y,-z
1/2+x,1/2-y,1/2+z
loop_
_atom_site_type_symbol
_atom_site_label
_atom_site_fract_x
_atom_site_fract_y
_atom_site_fract_z
Si Si1 0.170448 0.622476 0.133797
Si Si2 0.308137 0.593449 0.872442
Si Si3 0.000000 0.324981 0.750000
Si Si4 0.981109 0.550677 0.977376
Si Si5 0.382407 0.259084 0.903623
Si Si6 0.261785 0.321523 0.040587
O O1 0.500000 0.627257 0.250000
O O2 0.927953 0.641283 0.158994
O O3 0.106093 0.574841 0.088495
O O4 0.078082 0.652346 0.033311
O O5 0.610005 0.565927 0.893248
O O6 0.461223 0.641955 0.910451
O O7 0.000000 0.594863 0.750000
O O8 0.193067 0.569577 0.938703
O O9 0.293281 0.289662 0.804624
O O10 0.000000 0.500000 0.000000
O O11 0.223676 0.211398 0.875996
O O12 0.257255 0.288639 0.958695
O O13 0.750000 0.250000 0.000000
#
# Coordination Sequence:
#
# PCOD9271619 Si02
#       6
#     8   8   4   8   8   8
#     4  10  22  38  67  92 135 175 229 280 353 415
#     4  11  25  46  74 102 145 185 235 290 364 438
#     4  10  22  38  60  98 126 176 236 274 348 414
#     4  11  26  48  72 107 140 182 236 302 362 437
#     4  10  20  36  60  88 135 173 231 284 332 408
#     4   9  22  38  58  96 129 181 226 284 343 404
#
# _framework density 22.413440999999999
#
# number of rings (size 3 to 8) (size 9 to 14) (size 15 to 20)
#    0.000    1.818    0.000    2.182   12.727    2.909 
#    1.636    1.818    0.000    0.000    0.000    0.000 
#    0.000    0.000    0.000    0.000    0.000    0.000 
#
# Total GULP energy -122522.755574 kJ/mol
# GULP energy per Si atom -5569.216162 kJ/mol
# Density = 2.236243 g / cm^3
# Si number density = 22.413441 Si / 1000 Ang^3
#
#
#
# Elastic Constant Matrix: (Units=GPa)
#
#
# Indices 1 2 3 4 5 6 
#
# 1 79.4744 52.5621 22.0886 0.0000 12.9849 0.0000
# 2 52.5621 222.4551 62.8480 0.0000 -5.3665 0.0000
# 3 22.0886 62.8480 113.8432 0.0000 16.7408 0.0000
# 4 0.0000 0.0000 0.0000 32.0010 0.0000 -6.2649
# 5 12.9849 -5.3665 16.7408 0.0000 35.3542 0.0000
# 6 0.0000 0.0000 0.0000 -6.2649 0.0000 29.8033
#
#
#
# Elastic Compliance Matrix: (Units=1/GPa)
#
#
# Indices 1 2 3 4 5 6 
#
# 1 0.016317 -0.004023 0.000028 0.000000 -0.006617 0.000000
# 2 -0.004023 0.006508 -0.003413 0.000000 0.004081 0.000000
# 3 0.000028 -0.003413 0.011544 0.000000 -0.005995 0.000000
# 4 0.000000 0.000000 0.000000 0.032590 0.000000 0.006851
# 5 -0.006617 0.004081 -0.005995 0.000000 0.034173 0.000000
# 6 0.000000 0.000000 0.000000 0.006851 0.000000 0.034993
#
#
# Mechanical properties :
#
#
# Convention : Reuss Voigt Hill
#
# Bulk Modulus (GPa) = 51.14036 76.75222 63.94629
# Shear Modulus (GPa) = 31.75427 37.98330 34.86878
#
# Velocity S-wave (km/s) = 3.76806 4.12110 3.94853
# Velocity P-wave (km/s) = 6.46509 7.54737 7.02710
#
# Compressibility (1/GPa) = 0.01955403
#
# Stress axis : x y z
#
# Youngs Moduli (GPa) = 61.28752 153.64722 86.62444
#
# Poissons Ratio (x) = 0.61810 -0.00242
# Poissons Ratio (y) = 0.24655 0.29562
# Poissons Ratio (z) = -0.00172 0.52435
#
# Static dielectric constant tensor:
#      x y z
#    x 1.965380 0.000000 -0.049130 
#    y 0.000000 1.940540 0.000000 
#    z -0.049130 0.000000 2.052940 
# 
# From -- ./inp_files/186351.got.cif
#   From: 2010.05.17/outbox.cif.g08.bks.cpg/sg15_94_cif.got.tgz:186351.got - 2010.06.03 18:47:42.
