data_PCOD9271228
_publ_section_title
;
Structure prediction by ZEFSAII (Michael W. Deem and Ramdas Pophale) SiO2 
 PCOD9271228
Probable space group: C 2/C
;
_chemical_formula_sum "Si O2"
_cell_formula_units_Z 64
_cell_length_a 21.465440
_cell_length_b 16.639624
_cell_length_c 12.825142
_cell_angle_alpha 90.000000
_cell_angle_beta 53.307012
_cell_angle_gamma 90.000000
_cell_volume 3673.144022
_symmetry_space_group_name_H-M "C 2/C"
_symmetry_group_IT_number 15
_symmetry_cell_setting 'monoclinic'
loop_
_space_group_symop_operation_xyz
x,y,z
-x,y,1/2-z
-x,-y,-z
x,-y,1/2+z
1/2+x,1/2+y,z
1/2-x,1/2+y,1/2-z
1/2-x,1/2-y,-z
1/2+x,1/2-y,1/2+z
loop_
_atom_site_type_symbol
_atom_site_label
_atom_site_fract_x
_atom_site_fract_y
_atom_site_fract_z
Si Si1 0.170138 0.883376 0.703150
Si Si2 0.145542 0.361102 0.727813
Si Si3 0.170194 0.116639 0.956268
Si Si4 0.645219 0.861323 0.481367
Si Si5 0.211584 0.499933 0.788501
Si Si6 0.500093 0.742865 0.874087
Si Si7 0.500015 0.407496 0.964115
Si Si8 0.749854 0.750007 0.245786
O O1 0.182163 0.885974 0.567717
O O2 0.229776 0.946150 0.698961
O O3 0.080256 0.898691 0.820535
O O4 0.190348 0.796291 0.730936
O O5 0.151855 0.370352 0.598117
O O6 0.154128 0.446688 0.774671
O O7 0.073185 0.301732 0.820991
O O8 0.216258 0.314911 0.709783
O O9 0.190445 0.203728 0.888048
O O10 0.229811 0.053811 0.841237
O O11 0.080305 0.101361 0.018690
O O12 0.572706 0.802144 0.533161
O O13 0.715736 0.815010 0.357879
O O14 0.653972 0.946967 0.417369
O O15 0.500000 0.721469 0.750000
O O16 0.499920 0.662227 0.945240
O O17 0.500000 0.500000 0.000000
#
# Coordination Sequence:
#
# PCOD9271228 Si02
#       8
#     8   8   8   8   8   8   8   8
#     4  11  22  38  58  82 116 154 190 237 292 342
#     4  10  20  37  61  86 117 155 195 240 289 338
#     4  11  22  38  58  82 116 154 190 237 292 342
#     4  10  20  37  61  86 117 155 195 240 289 338
#     4  10  22  38  58  90 118 148 196 244 286 348
#     4  10  22  40  63  87 114 152 196 243 290 341
#     4  12  23  41  55  88 120 153 194 234 292 350
#     4  10  20  36  58  84 114 148 198 242 278 344
#
# _framework density 17.423765
#
# number of rings (size 3 to 8) (size 9 to 14) (size 15 to 20)
#    0.000    1.500    3.750    1.875    0.000    1.500 
#    0.000    0.000    0.000    0.000    0.000    0.000 
#    0.000    0.000    0.000    0.000    0.000    0.000 
#
# Total GULP energy -178197.725066 kJ/mol
# GULP energy per Si atom -5568.678908 kJ/mol
# Density = 1.738411 g / cm^3
# Si number density = 17.423765 Si / 1000 Ang^3
#
#
#
# Elastic Constant Matrix: (Units=GPa)
#
#
# Indices 1 2 3 4 5 6 
#
# 1 71.4133 41.5661 32.9865 0.0000 18.2014 0.0000
# 2 41.5661 109.5202 51.9150 0.0000 20.2384 0.0000
# 3 32.9865 51.9150 91.4223 0.0000 19.4873 0.0000
# 4 0.0000 0.0000 0.0000 28.2904 0.0000 -4.3059
# 5 18.2014 20.2384 19.4873 0.0000 26.4871 0.0000
# 6 0.0000 0.0000 0.0000 -4.3059 0.0000 30.5872
#
#
#
# Elastic Compliance Matrix: (Units=1/GPa)
#
#
# Indices 1 2 3 4 5 6 
#
# 1 0.020178 -0.004827 -0.002811 0.000000 -0.008110 0.000000
# 2 -0.004827 0.014266 -0.005625 0.000000 -0.003445 0.000000
# 3 -0.002811 -0.005625 0.016389 0.000000 -0.005828 0.000000
# 4 0.000000 0.000000 0.000000 0.036122 0.000000 0.005085
# 5 -0.008110 -0.003445 -0.005828 0.000000 0.050247 0.000000
# 6 0.000000 0.000000 0.000000 0.005085 0.000000 0.033409
#
#
# Mechanical properties :
#
#
# Convention : Reuss Voigt Hill
#
# Bulk Modulus (GPa) = 41.14070 58.36566 49.75318
# Shear Modulus (GPa) = 24.36191 26.79881 25.58036
#
# Velocity S-wave (km/s) = 3.74331 3.92607 3.83578
# Velocity P-wave (km/s) = 6.50740 7.35680 6.94509
#
# Compressibility (1/GPa) = 0.02430683
#
# Stress axis : x y z
#
# Youngs Moduli (GPa) = 49.55923 70.09829 61.01676
#
# Poissons Ratio (x) = 0.33838 0.17150
# Poissons Ratio (y) = 0.23923 0.34322
# Poissons Ratio (z) = 0.13930 0.39430
#
# Static dielectric constant tensor:
#      x y z
#    x 1.637870 0.000000 -0.058750 
#    y 0.000000 1.652440 0.000000 
#    z -0.058750 0.000000 1.606480 
# 
# From -- ./inp_files/113662.got.cif
#   From: 2010.05.17/outbox.cif.g08.bks.cpg/sg15_57_cif.got.tgz:113662.got - 2010.06.03 18:47:42.
