data_PCOD9271991
_publ_section_title
;
Structure prediction by ZEFSAII (Michael W. Deem and Ramdas Pophale) SiO2 
 PCOD9271991
Probable space group: C 2/C
;
_chemical_formula_sum "Si O2"
_cell_formula_units_Z 64
_cell_length_a 16.358865
_cell_length_b 32.433512
_cell_length_c 8.492338
_cell_angle_alpha 90.000000
_cell_angle_beta 40.785501
_cell_angle_gamma 90.000000
_cell_volume 2943.336314
_symmetry_space_group_name_H-M "C 2/C"
_symmetry_group_IT_number 15
_symmetry_cell_setting 'monoclinic'
loop_
_space_group_symop_operation_xyz
x,y,z
-x,y,1/2-z
-x,-y,-z
x,-y,1/2+z
1/2+x,1/2+y,z
1/2-x,1/2+y,1/2-z
1/2-x,1/2-y,-z
1/2+x,1/2-y,1/2+z
loop_
_atom_site_type_symbol
_atom_site_label
_atom_site_fract_x
_atom_site_fract_y
_atom_site_fract_z
Si Si1 0.074150 0.910495 0.806535
Si Si2 0.772301 0.390251 0.914284
Si Si3 0.249866 0.963500 0.380359
Si Si4 0.349180 0.755372 0.006751
Si Si5 0.976362 0.583571 0.600452
Si Si6 0.883933 0.832783 0.543804
Si Si7 0.876947 0.959568 0.269954
Si Si8 0.624497 0.845815 0.457339
O O1 0.208786 0.926502 0.557393
O O2 0.000000 0.908958 0.750000
O O3 0.077242 0.865438 0.879237
O O4 0.011040 0.947132 0.003201
O O5 0.780675 0.372641 0.077245
O O6 0.893888 0.414821 0.684601
O O7 0.740942 0.352286 0.849623
O O8 0.656870 0.420647 0.074054
O O9 0.397928 0.957225 0.170061
O O10 0.209500 0.959401 0.259035
O O11 0.167855 0.001373 0.565723
O O12 0.500000 0.757471 0.750000
O O13 0.346436 0.714893 0.121308
O O14 0.324884 0.799350 0.125995
O O15 0.250000 0.750000 0.000000
O O16 0.911074 0.626583 0.639585
O O17 0.000000 0.583924 0.750000
O O18 0.000000 0.832732 0.250000
O O19 0.500000 0.844616 0.750000
#
# Coordination Sequence:
#
# PCOD9271991 Si02
#       8
#     8   8   8   8   8   8   8   8
#     4  10  23  43  62  89 133 173 212 273 336 404
#     4  11  21  40  64  89 127 167 216 266 334 395
#     4  11  25  42  62  90 126 168 221 270 333 402
#     4  10  20  36  63 105 138 172 230 293 339 407
#     4  11  24  41  63  90 127 180 217 270 335 411
#     4  11  21  36  68  99 125 172 226 275 333 404
#     4  11  24  41  63  93 123 169 211 277 333 394
#     4   9  19  39  63  88 130 176 216 272 336 402
#
# _framework density 21.744031
#
# number of rings (size 3 to 8) (size 9 to 14) (size 15 to 20)
#    0.000    1.500    3.750    1.125    3.500    0.500 
#    0.000    0.625    0.000    3.000    0.000    0.000 
#    0.000    0.000    0.000    0.000    0.000    0.000 
#
# Total GULP energy -178292.757674 kJ/mol
# GULP energy per Si atom -5571.648677 kJ/mol
# Density = 2.169454 g / cm^3
# Si number density = 21.744031 Si / 1000 Ang^3
#
#
#
# Elastic Constant Matrix: (Units=GPa)
#
#
# Indices 1 2 3 4 5 6 
#
# 1 101.8889 11.1674 0.7773 0.0000 -0.2747 0.0000
# 2 11.1674 91.3888 11.0327 0.0000 11.7969 0.0000
# 3 0.7773 11.0327 38.5494 0.0000 -9.1940 0.0000
# 4 0.0000 0.0000 0.0000 20.1937 0.0000 0.5720
# 5 -0.2747 11.7969 -9.1940 0.0000 25.5998 0.0000
# 6 0.0000 0.0000 0.0000 0.5720 0.0000 15.3706
#
#
#
# Elastic Compliance Matrix: (Units=1/GPa)
#
#
# Indices 1 2 3 4 5 6 
#
# 1 0.009965 -0.001382 0.000407 0.000000 0.000890 0.000000
# 2 -0.001382 0.012796 -0.005517 0.000000 -0.007893 0.000000
# 3 0.000407 -0.005517 0.030753 0.000000 0.013591 0.000000
# 4 0.000000 0.000000 0.000000 0.049573 0.000000 -0.001845
# 5 0.000890 -0.007893 0.013591 0.000000 0.047591 0.000000
# 6 0.000000 0.000000 0.000000 -0.001845 0.000000 0.065128
#
#
# Mechanical properties :
#
#
# Convention : Reuss Voigt Hill
#
# Bulk Modulus (GPa) = 24.67259 30.86465 27.76862
# Shear Modulus (GPa) = 20.63563 26.15612 23.39588
#
# Velocity S-wave (km/s) = 3.08397 3.47206 3.28375
# Velocity P-wave (km/s) = 4.90435 5.50445 5.21304
#
# Compressibility (1/GPa) = 0.04053081
#
# Stress axis : x y z
#
# Youngs Moduli (GPa) = 100.34778 78.14991 32.51722
#
# Poissons Ratio (x) = 0.10798 -0.01322
# Poissons Ratio (y) = 0.13865 0.17939
# Poissons Ratio (z) = -0.04081 0.43113
#
# Static dielectric constant tensor:
#      x y z
#    x 1.837480 0.000000 -0.034880 
#    y 0.000000 1.811210 0.000000 
#    z -0.034880 0.000000 1.800640 
# 
# From -- ./inp_files/52810.got.cif
#   From: 2010.05.17/outbox.cif.g08.bks.cpg/sg15_27_cif.got.tgz:52810.got - 2010.06.03 18:47:42.
