data_PCOD9271715
_publ_section_title
;
Structure prediction by ZEFSAII (Michael W. Deem and Ramdas Pophale) SiO2 
 PCOD9271715
Probable space group: C 2/C
;
_chemical_formula_sum "Si O2"
_cell_formula_units_Z 60
_cell_length_a 23.978321
_cell_length_b 5.658500
_cell_length_c 19.161203
_cell_angle_alpha 90.000000
_cell_angle_beta 64.007052
_cell_angle_gamma 90.000000
_cell_volume 2336.840742
_symmetry_space_group_name_H-M "C 2/C"
_symmetry_group_IT_number 15
_symmetry_cell_setting 'monoclinic'
loop_
_space_group_symop_operation_xyz
x,y,z
-x,y,1/2-z
-x,-y,-z
x,-y,1/2+z
1/2+x,1/2+y,z
1/2-x,1/2+y,1/2-z
1/2-x,1/2-y,-z
1/2+x,1/2-y,1/2+z
loop_
_atom_site_type_symbol
_atom_site_label
_atom_site_fract_x
_atom_site_fract_y
_atom_site_fract_z
Si Si1 0.540666 0.211242 0.553794
Si Si2 0.000000 0.147603 0.750000
Si Si3 0.409891 0.726035 0.915813
Si Si4 0.284723 0.943263 0.175605
Si Si5 0.614060 0.697306 0.896064
Si Si6 0.798580 0.680279 0.822273
Si Si7 0.421551 0.309790 0.694161
Si Si8 0.700147 0.558908 0.450013
O O1 0.560391 0.471756 0.574866
O O2 0.547440 0.253322 0.466996
O O3 0.472866 0.166459 0.623167
O O4 0.579180 0.970057 0.547823
O O5 0.051436 0.280477 0.675588
O O6 0.041659 0.981184 0.774972
O O7 0.336240 0.660081 0.963288
O O8 0.348069 0.086912 0.155157
O O9 0.226404 0.054133 0.166379
O O10 0.265606 0.894535 0.266312
O O11 0.303698 0.748023 0.109750
O O12 0.610810 0.483775 0.844009
O O13 0.657002 0.645542 0.940541
O O14 0.871064 0.675807 0.768918
O O15 0.769316 0.547447 0.904465
#
# Coordination Sequence:
#
# PCOD9271715 Si02
#       8
#     8   4   8   8   8   8   8   8
#     4  10  22  40  67  98 135 173 224 290 353 414
#     4  10  26  48  68  88 134 188 244 296 328 392
#     4  10  22  45  69  95 130 182 233 286 345 402
#     4  11  18  34  59  95 137 162 207 272 355 432
#     4  10  20  36  61 100 134 170 217 283 357 419
#     4  11  21  33  60  97 138 175 217 272 353 423
#     4  11  23  42  62  98 135 186 237 281 341 409
#     4  10  20  37  62  98 133 172 210 282 357 419
#
# _framework density 25.675692999999999
#
# number of rings (size 3 to 8) (size 9 to 14) (size 15 to 20)
#    0.000    1.600    4.000    1.200    0.000    4.267 
#    0.000    5.333    0.000    0.800    0.000    0.000 
#    0.000    0.000    0.000    0.000    0.000    0.000 
#
# Total GULP energy -167172.444373 kJ/mol
# GULP energy per Si atom -5572.414812 kJ/mol
# Density = 2.561725 g / cm^3
# Si number density = 25.675693 Si / 1000 Ang^3
#
#
#
# Elastic Constant Matrix: (Units=GPa)
#
#
# Indices 1 2 3 4 5 6 
#
# 1 33.4448 9.6240 39.2535 0.0168 -23.2224 0.0150
# 2 9.6240 75.5044 32.8219 0.0128 -14.0211 0.0433
# 3 39.2535 32.8219 157.6205 -0.0033 -56.7346 -0.0048
# 4 0.0168 0.0128 -0.0033 38.6626 -0.0001 0.6878
# 5 -23.2224 -14.0211 -56.7346 -0.0001 49.8835 0.0055
# 6 0.0150 0.0433 -0.0048 0.6878 0.0055 27.0486
#
#
#
# Elastic Compliance Matrix: (Units=1/GPa)
#
#
# Indices 1 2 3 4 5 6 
#
# 1 0.047953 -0.000538 -0.006517 -0.000021 0.014760 -0.000029
# 2 -0.000538 0.014604 -0.002573 -0.000004 0.000928 -0.000024
# 3 -0.006517 -0.002573 0.012107 0.000005 0.010013 0.000008
# 4 -0.000021 -0.000004 0.000005 0.025877 -0.000006 -0.000658
# 5 0.014760 0.000928 0.010013 -0.000006 0.038567 -0.000016
# 6 -0.000029 -0.000024 0.000008 -0.000658 -0.000016 0.036987
#
#
# Mechanical properties :
#
#
# Convention : Reuss Voigt Hill
#
# Bulk Modulus (GPa) = 18.04831 47.77428 32.91130
# Shear Modulus (GPa) = 23.38417 35.44362 29.41390
#
# Velocity S-wave (km/s) = 3.02114 3.71945 3.38833
# Velocity P-wave (km/s) = 4.38341 6.09040 5.30600
#
# Compressibility (1/GPa) = 0.05540685
#
# Stress axis : x y z
#
# Youngs Moduli (GPa) = 20.85392 68.47607 82.59505
#
# Poissons Ratio (x) = 0.03685 0.53829
# Poissons Ratio (y) = 0.01122 0.21251
# Poissons Ratio (z) = 0.13591 0.17619
#
# Static dielectric constant tensor:
#      x y z
#    x 2.041030 -0.000020 -0.002480 
#    y -0.000020 2.132400 0.000010 
#    z -0.002480 0.000010 1.990860 
# 
# From -- ./inp_files/256752.got.cif
#   From: 2010.05.17/outbox.cif.g08.bks.cpg/sg15_129_cif.got.tgz:256752.got - 2010.06.03 18:47:42.
