data_PCOD9271048
_publ_section_title
;
Structure prediction by ZEFSAII (Michael W. Deem and Ramdas Pophale) SiO2 
 PCOD9271048
Probable space group: C 2/C
;
_chemical_formula_sum "Si O2"
_cell_formula_units_Z 44
_cell_length_a 20.150679
_cell_length_b 8.568157
_cell_length_c 13.027690
_cell_angle_alpha 90.000000
_cell_angle_beta 67.285487
_cell_angle_gamma 90.000000
_cell_volume 2074.831292
_symmetry_space_group_name_H-M "C 2/C"
_symmetry_group_IT_number 15
_symmetry_cell_setting 'monoclinic'
loop_
_space_group_symop_operation_xyz
x,y,z
-x,y,1/2-z
-x,-y,-z
x,-y,1/2+z
1/2+x,1/2+y,z
1/2-x,1/2+y,1/2-z
1/2-x,1/2-y,-z
1/2+x,1/2-y,1/2+z
loop_
_atom_site_type_symbol
_atom_site_label
_atom_site_fract_x
_atom_site_fract_y
_atom_site_fract_z
Si Si1 0.500000 0.240307 0.750000
Si Si2 0.331096 0.452950 0.123444
Si Si3 0.436073 0.991602 0.122647
Si Si4 0.803767 0.280822 0.212452
Si Si5 0.641432 0.407491 0.620639
Si Si6 0.925781 0.169075 0.729360
O O1 0.534731 0.129649 0.812363
O O2 0.560062 0.345969 0.663443
O O3 0.272930 0.358304 0.224292
O O4 0.308602 0.633205 0.135294
O O5 0.408004 0.433397 0.136467
O O6 0.327955 0.390079 0.010369
O O7 0.359919 0.912082 0.139318
O O8 0.421124 0.156151 0.187493
O O9 0.500000 0.000000 0.000000
O O10 0.823773 0.198384 0.310668
O O11 0.632247 0.588408 0.659555
O O12 0.000000 0.163249 0.750000
#
# Coordination Sequence:
#
# PCOD9271048 Si02
#       6
#     4   8   8   8   8   8
#     4  10  20  36  56  92 126 158 214 260 306 386
#     4  11  23  43  67  92 132 173 208 268 329 375
#     4  11  23  39  63  92 128 170 207 266 320 367
#     4  10  24  42  65  96 129 165 221 261 318 397
#     4  10  22  40  66  93 127 171 210 269 326 375
#     4  11  23  40  64  97 132 160 225 262 307 394
#
# _framework density 21.206543
#
# number of rings (size 3 to 8) (size 9 to 14) (size 15 to 20)
#    0.000    1.455    1.818    2.727    2.545    0.727 
#    0.000   11.818    0.000    0.000    0.000    0.000 
#    0.000    0.000    0.000    0.000    0.000    0.000 
#
# Total GULP energy -122578.981331 kJ/mol
# GULP energy per Si atom -5571.771879 kJ/mol
# Density = 2.115828 g / cm^3
# Si number density = 21.206543 Si / 1000 Ang^3
#
#
#
# Elastic Constant Matrix: (Units=GPa)
#
#
# Indices 1 2 3 4 5 6 
#
# 1 67.0976 29.6922 22.5501 0.0000 -13.6748 0.0000
# 2 29.6922 134.0883 28.1886 0.0000 -22.1221 0.0001
# 3 22.5501 28.1886 92.4007 0.0000 -14.6874 0.0000
# 4 0.0000 0.0000 0.0000 -143.9715 0.0000 235.7118
# 5 -13.6748 -22.1221 -14.6874 0.0000 20.2963 0.0000
# 6 0.0000 0.0001 0.0000 235.7118 0.0000 -304.2769
#
#
#
# Elastic Compliance Matrix: (Units=1/GPa)
#
#
# Indices 1 2 3 4 5 6 
#
# 1 0.018387 -0.002193 -0.002519 0.000000 0.008175 0.000000
# 2 -0.002193 0.009507 -0.001077 0.000000 0.008105 0.000000
# 3 -0.002519 -0.001077 0.012779 0.000000 0.006377 0.000000
# 4 0.000000 0.000000 0.000000 0.025890 0.000000 0.020056
# 5 0.008175 0.008105 0.006377 0.000000 0.068227 0.000000
# 6 0.000000 0.000000 0.000000 0.020056 0.000000 0.012250
#
#
# Mechanical properties :
#
#
# Convention : Reuss Voigt Hill
#
# Bulk Modulus (GPa) = 34.36924 50.49426 42.43175
# Shear Modulus (GPa) = 29.70605 -71.38002 -20.83699
#
# Velocity S-wave (km/s) = 3.74678 -5.80797 -3.13800
# Velocity P-wave (km/s) = 5.91269 4.59503 2.63112
#
# Compressibility (1/GPa) = 0.02909579
#
# Stress axis : x y z
#
# Youngs Moduli (GPa) = 54.38670 105.18540 78.25192
#
# Poissons Ratio (x) = 0.23071 0.19709
# Poissons Ratio (y) = 0.11929 0.08425
# Poissons Ratio (z) = 0.13698 0.11325
#
# Static dielectric constant tensor:
#      x y z
#    x 1.832360 0.000000 0.003940 
#    y 0.000000 1.773980 0.000000 
#    z 0.003940 0.000000 1.742410 
# 
# From -- ./inp_files/116674.got.cif
#   From: 2010.05.17/outbox.cif.g08.bks.cpg/sg15_59_cif.got.tgz:116674.got - 2010.06.03 18:47:42.
