data_PCOD9271119
_publ_section_title
;
Structure prediction by ZEFSAII (Michael W. Deem and Ramdas Pophale) SiO2 
 PCOD9271119
Probable space group: C 2/C
;
_chemical_formula_sum "Si O2"
_cell_formula_units_Z 48
_cell_length_a 7.995010
_cell_length_b 23.492787
_cell_length_c 11.366847
_cell_angle_alpha 90.000000
_cell_angle_beta 86.697098
_cell_angle_gamma 90.000000
_cell_volume 2131.432385
_symmetry_space_group_name_H-M "C 2/C"
_symmetry_group_IT_number 15
_symmetry_cell_setting 'monoclinic'
loop_
_space_group_symop_operation_xyz
x,y,z
-x,y,1/2-z
-x,-y,-z
x,-y,1/2+z
1/2+x,1/2+y,z
1/2-x,1/2+y,1/2-z
1/2-x,1/2-y,-z
1/2+x,1/2-y,1/2+z
loop_
_atom_site_type_symbol
_atom_site_label
_atom_site_fract_x
_atom_site_fract_y
_atom_site_fract_z
Si Si1 0.615560 0.637264 0.355601
Si Si2 0.191346 0.645003 0.739705
Si Si3 0.625371 0.297011 0.457519
Si Si4 0.693494 0.528614 0.721127
Si Si5 0.806315 0.982484 0.534153
Si Si6 0.812522 0.745258 0.363012
O O1 0.500000 0.619328 0.250000
O O2 0.488961 0.673372 0.441374
O O3 0.686517 0.583315 0.423617
O O4 0.762614 0.682677 0.319454
O O5 0.266352 0.654259 0.608392
O O6 0.299789 0.596567 0.796484
O O7 0.210275 0.706236 0.799033
O O8 0.000000 0.627090 0.750000
O O9 0.750000 0.250000 0.500000
O O10 0.504426 0.264810 0.369919
O O11 0.500000 0.511533 0.750000
O O12 0.768412 0.514173 0.847325
O O13 0.768169 0.506280 0.594154
O O14 0.000000 0.000000 0.500000
O O15 0.750000 0.750000 0.500000
#
# Coordination Sequence:
#
# PCOD9271119 Si02
#       6
#     8   8   8   8   8   8
#     4  11  21  36  60  91 125 160 204 260 316 379
#     4  12  23  38  60  88 122 165 210 257 314 381
#     4  11  22  36  58  89 124 163 207 255 314 382
#     4  10  20  38  63  89 117 159 210 266 317 375
#     4  10  20  36  61  90 119 160 211 257 311 377
#     4  10  20  36  57  85 119 157 196 249 310 372
#
# _framework density 22.520066
#
# number of rings (size 3 to 8) (size 9 to 14) (size 15 to 20)
#    0.000    1.333    0.000   10.500    0.000    0.000 
#    0.000    0.833    0.000    8.000    0.000    0.000 
#    0.000    0.000    0.000    0.000    0.000    0.000 
#
# Total GULP energy -133900.416824 kJ/mol
# GULP energy per Si atom -5579.184034 kJ/mol
# Density = 2.246881 g / cm^3
# Si number density = 22.520066 Si / 1000 Ang^3
#
#
#
# Elastic Constant Matrix: (Units=GPa)
#
#
# Indices 1 2 3 4 5 6 
#
# 1 59.2240 3.5366 16.7020 0.0000 -3.6444 0.0000
# 2 3.5366 104.3690 20.2280 0.0000 -1.8277 0.0000
# 3 16.7020 20.2280 150.3039 0.0000 10.0024 0.0000
# 4 0.0000 0.0000 0.0000 37.5809 0.0000 1.4209
# 5 -3.6444 -1.8277 10.0024 0.0000 21.2314 0.0000
# 6 0.0000 0.0000 0.0000 1.4209 0.0000 22.4537
#
#
#
# Elastic Compliance Matrix: (Units=1/GPa)
#
#
# Indices 1 2 3 4 5 6 
#
# 1 0.017773 -0.000097 -0.002234 0.000000 0.004095 0.000000
# 2 -0.000097 0.009886 -0.001420 0.000000 0.001503 0.000000
# 3 -0.002234 -0.001420 0.007357 0.000000 -0.003972 0.000000
# 4 0.000000 0.000000 0.000000 0.026673 0.000000 -0.001688
# 5 0.004095 0.001503 -0.003972 0.000000 0.049803 0.000000
# 6 0.000000 0.000000 0.000000 -0.001688 0.000000 0.044643
#
#
# Mechanical properties :
#
#
# Convention : Reuss Voigt Hill
#
# Bulk Modulus (GPa) = 36.34654 43.87001 40.10828
# Shear Modulus (GPa) = 28.93359 34.48188 31.70773
#
# Velocity S-wave (km/s) = 3.58829 3.91725 3.75637
# Velocity P-wave (km/s) = 5.77429 6.32317 6.05495
#
# Compressibility (1/GPa) = 0.02751293
#
# Stress axis : x y z
#
# Youngs Moduli (GPa) = 56.26517 101.15138 135.92791
#
# Poissons Ratio (x) = 0.00986 0.30371
# Poissons Ratio (y) = 0.00549 0.19298
# Poissons Ratio (z) = 0.12572 0.14360
#
# Static dielectric constant tensor:
#      x y z
#    x 1.839170 0.000000 0.017900 
#    y 0.000000 1.847930 0.000000 
#    z 0.017900 0.000000 1.999800 
# 
# From -- ./inp_files/79123.got.cif
#   From: 2010.05.17/outbox.cif.g08.bks.cpg/sg15_40_cif.got.tgz:79123.got - 2010.06.03 18:47:42.
