data_PCOD9271405
_publ_section_title
;
Structure prediction by ZEFSAII (Michael W. Deem and Ramdas Pophale) SiO2 
 PCOD9271405
Probable space group: C 2/C
;
_chemical_formula_sum "Si O2"
_cell_formula_units_Z 36
_cell_length_a 14.154167
_cell_length_b 7.447351
_cell_length_c 13.802980
_cell_angle_alpha 90.000000
_cell_angle_beta 97.451968
_cell_angle_gamma 90.000000
_cell_volume 1442.697701
_symmetry_space_group_name_H-M "C 2/C"
_symmetry_group_IT_number 15
_symmetry_cell_setting 'monoclinic'
loop_
_space_group_symop_operation_xyz
x,y,z
-x,y,1/2-z
-x,-y,-z
x,-y,1/2+z
1/2+x,1/2+y,z
1/2-x,1/2+y,1/2-z
1/2-x,1/2-y,-z
1/2+x,1/2-y,1/2+z
loop_
_atom_site_type_symbol
_atom_site_label
_atom_site_fract_x
_atom_site_fract_y
_atom_site_fract_z
Si Si1 0.171167 0.268306 0.305109
Si Si2 0.726103 0.458702 0.969973
Si Si3 0.075546 0.527377 0.423983
Si Si4 0.500000 0.706625 0.750000
Si Si5 0.354231 0.523810 0.354442
O O1 0.199992 0.075208 0.355947
O O2 0.087789 0.345880 0.361209
O O3 0.255269 0.414092 0.323417
O O4 0.148966 0.220041 0.192431
O O5 0.822293 0.561326 0.010573
O O6 0.641440 0.521718 0.028518
O O7 0.750000 0.250000 0.000000
O O8 0.053331 0.670801 0.337132
O O9 0.000000 0.500000 0.500000
O O10 0.566323 0.585851 0.691159
#
# Coordination Sequence:
#
# PCOD9271405 Si02
#       5
#     8   8   8   4   8
#     4  10  20  38  61  86 115 155 195 238 291 349
#     4   8  17  35  58  81 110 148 189 234 284 342
#     4  10  20  36  59  85 115 154 193 239 293 346
#     4  12  22  36  56  84 120 156 192 242 290 340
#     4  10  20  37  58  85 115 150 193 239 288 348
#
# _framework density 24.953254000000001
#
# number of rings (size 3 to 8) (size 9 to 14) (size 15 to 20)
#    0.000    2.667    0.000    6.667    0.000    0.889 
#    0.000   11.111    0.000    0.000    0.000    0.000 
#    0.000    0.000    0.000    0.000    0.000    0.000 
#
# Total GULP energy -100515.774140 kJ/mol
# GULP energy per Si atom -5584.209674 kJ/mol
# Density = 2.489646 g / cm^3
# Si number density = 24.953254 Si / 1000 Ang^3
#
#
#
# Elastic Constant Matrix: (Units=GPa)
#
#
# Indices 1 2 3 4 5 6 
#
# 1 86.7184 17.0270 33.9673 0.0000 -32.0776 0.0000
# 2 17.0270 61.1197 33.9034 0.0000 -2.6051 0.0000
# 3 33.9673 33.9034 133.2271 0.0000 -38.5577 0.0000
# 4 0.0000 0.0000 0.0000 58.7129 0.0000 -4.7692
# 5 -32.0776 -2.6051 -38.5577 0.0000 50.0383 0.0000
# 6 0.0000 0.0000 0.0000 -4.7692 0.0000 33.2720
#
#
#
# Elastic Compliance Matrix: (Units=1/GPa)
#
#
# Indices 1 2 3 4 5 6 
#
# 1 0.016059 -0.003926 -0.000225 0.000000 0.009917 0.000000
# 2 -0.003926 0.020508 -0.005968 0.000000 -0.006048 0.000000
# 3 -0.000225 -0.005968 0.011519 0.000000 0.008421 0.000000
# 4 0.000000 0.000000 0.000000 0.017233 0.000000 0.002470
# 5 0.009917 -0.006048 0.008421 0.000000 0.032516 0.000000
# 6 0.000000 0.000000 0.000000 0.002470 0.000000 0.030409
#
#
# Mechanical properties :
#
#
# Convention : Reuss Voigt Hill
#
# Bulk Modulus (GPa) = 35.91027 50.09563 43.00295
# Shear Modulus (GPa) = 31.69244 41.48247 36.58745
#
# Velocity S-wave (km/s) = 3.56767 4.08169 3.83331
# Velocity P-wave (km/s) = 5.60297 6.50638 6.07150
#
# Compressibility (1/GPa) = 0.02784718
#
# Stress axis : x y z
#
# Youngs Moduli (GPa) = 62.27042 48.76164 86.80982
#
# Poissons Ratio (x) = 0.19145 0.01955
# Poissons Ratio (y) = 0.24449 0.51810
# Poissons Ratio (z) = 0.01402 0.29102
#
# Static dielectric constant tensor:
#      x y z
#    x 2.040110 0.000000 0.104790 
#    y 0.000000 2.016300 0.000000 
#    z 0.104790 0.000000 2.134910 
# 
# From -- ./inp_files/150250.got.cif
#   From: 2010.05.17/outbox.cif.g08.bks.cpg/sg15_76_cif.got.tgz:150250.got - 2010.06.03 18:47:42.
