data_PCOD9271602
_publ_section_title
;
Structure prediction by ZEFSAII (Michael W. Deem and Ramdas Pophale) SiO2 
 PCOD9271602
Probable space group: C 2/C
;
_chemical_formula_sum "Si O2"
_cell_formula_units_Z 48
_cell_length_a 9.297548
_cell_length_b 15.889500
_cell_length_c 31.412348
_cell_angle_alpha 90.000000
_cell_angle_beta 147.901771
_cell_angle_gamma 90.000000
_cell_volume 2465.914699
_symmetry_space_group_name_H-M "C 2/C"
_symmetry_group_IT_number 15
_symmetry_cell_setting 'monoclinic'
loop_
_space_group_symop_operation_xyz
x,y,z
-x,y,1/2-z
-x,-y,-z
x,-y,1/2+z
1/2+x,1/2+y,z
1/2-x,1/2+y,1/2-z
1/2-x,1/2-y,-z
1/2+x,1/2-y,1/2+z
loop_
_atom_site_type_symbol
_atom_site_label
_atom_site_fract_x
_atom_site_fract_y
_atom_site_fract_z
Si Si1 0.729358 0.287069 0.583854
Si Si2 0.249932 0.815181 0.843456
Si Si3 0.256486 0.972733 0.907880
Si Si4 0.648547 0.220466 0.895694
Si Si5 0.193097 0.118761 0.156987
Si Si6 0.762713 0.868319 0.156747
O O1 0.449449 0.271412 0.489382
O O2 0.697121 0.366657 0.607446
O O3 0.777702 0.206410 0.626023
O O4 0.981713 0.299942 0.616318
O O5 0.304634 0.888191 0.892097
O O6 0.166711 0.732230 0.849692
O O7 0.000000 0.838624 0.750000
O O8 0.993610 0.954850 0.871209
O O9 0.215939 0.045991 0.863633
O O10 0.500000 0.000000 0.000000
O O11 0.453850 0.296990 0.861933
O O12 0.510898 0.141057 0.884004
O O13 0.500000 0.113739 0.250000
O O14 0.000000 0.858881 0.250000
#
# Coordination Sequence:
#
# PCOD9271602 Si02
#       6
#     8   8   8   8   8   8
#     4  11  20  37  62  89 115 151 198 244 289 347
#     4  11  22  39  60  86 118 157 196 237 291 360
#     4  11  23  41  59  83 118 158 195 240 294 350
#     4  10  20  36  60  88 115 151 194 239 290 350
#     4  10  20  38  62  85 114 160 201 232 284 360
#     4  11  21  37  59  85 115 151 192 244 296 341
#
# _framework density 19.465395000000001
#
# number of rings (size 3 to 8) (size 9 to 14) (size 15 to 20)
#    0.000    1.333    0.000   11.000    0.000    0.000 
#    0.000    9.167    0.000    0.000    0.000    0.000 
#    0.000    0.000    0.000    0.000    0.000    0.000 
#
# Total GULP energy -133973.782789 kJ/mol
# GULP energy per Si atom -5582.240950 kJ/mol
# Density = 1.942109 g / cm^3
# Si number density = 19.465395 Si / 1000 Ang^3
#
#
#
# Elastic Constant Matrix: (Units=GPa)
#
#
# Indices 1 2 3 4 5 6 
#
# 1 165.5549 38.4070 40.3373 0.0002 21.4936 0.0001
# 2 38.4070 56.5150 12.8380 0.0002 7.3504 0.0001
# 3 40.3373 12.8380 149.5700 -0.0006 18.3203 0.0008
# 4 0.0002 0.0002 -0.0006 9.2469 0.0000 -2.9678
# 5 21.4936 7.3504 18.3203 0.0000 39.1358 -0.0001
# 6 0.0001 0.0001 0.0008 -2.9678 -0.0001 24.9538
#
#
#
# Elastic Compliance Matrix: (Units=1/GPa)
#
#
# Indices 1 2 3 4 5 6 
#
# 1 0.007810 -0.004635 -0.001368 0.000000 -0.002778 0.000000
# 2 -0.004635 0.021097 -0.000411 -0.000001 -0.001224 0.000000
# 3 -0.001368 -0.000411 0.007414 0.000000 -0.002642 0.000000
# 4 0.000000 -0.000001 0.000000 0.112437 0.000000 0.013372
# 5 -0.002778 -0.001224 -0.002642 0.000000 0.028545 0.000000
# 6 0.000000 0.000000 0.000000 0.013372 0.000000 0.041665
#
#
# Mechanical properties :
#
#
# Convention : Reuss Voigt Hill
#
# Bulk Modulus (GPa) = 42.56731 61.64494 52.10613
# Shear Modulus (GPa) = 20.86593 33.33779 27.10186
#
# Velocity S-wave (km/s) = 3.27762 4.14293 3.73541
# Velocity P-wave (km/s) = 6.01991 7.39073 6.74026
#
# Compressibility (1/GPa) = 0.02349220
#
# Stress axis : x y z
#
# Youngs Moduli (GPa) = 128.04735 47.40005 134.88647
#
# Poissons Ratio (x) = 0.21971 0.18453
# Poissons Ratio (y) = 0.59353 0.05541
# Poissons Ratio (z) = 0.17517 0.01947
#
# Static dielectric constant tensor:
#      x y z
#    x 1.703170 -0.000010 -0.022500 
#    y -0.000010 1.805720 0.000060 
#    z -0.022500 0.000060 1.767040 
# 
# From -- ./inp_files/134795.got.cif
#   From: 2010.05.17/outbox.cif.g08.bks.cpg/sg15_68_cif.got.tgz:134795.got - 2010.06.03 18:47:42.
