data_PCOD9271676
_publ_section_title
;
Structure prediction by ZEFSAII (Michael W. Deem and Ramdas Pophale) SiO2 
 PCOD9271676
Probable space group: C 2/C
;
_chemical_formula_sum "Si O2"
_cell_formula_units_Z 32
_cell_length_a 7.871285
_cell_length_b 23.313866
_cell_length_c 12.296120
_cell_angle_alpha 90.000000
_cell_angle_beta 135.689348
_cell_angle_gamma 90.000000
_cell_volume 1576.247768
_symmetry_space_group_name_H-M "C 2/C"
_symmetry_group_IT_number 15
_symmetry_cell_setting 'monoclinic'
loop_
_space_group_symop_operation_xyz
x,y,z
-x,y,1/2-z
-x,-y,-z
x,-y,1/2+z
1/2+x,1/2+y,z
1/2-x,1/2+y,1/2-z
1/2-x,1/2-y,-z
1/2+x,1/2-y,1/2+z
loop_
_atom_site_type_symbol
_atom_site_label
_atom_site_fract_x
_atom_site_fract_y
_atom_site_fract_z
Si Si1 0.706687 0.584946 0.586484
Si Si2 0.766649 0.811203 0.565118
Si Si3 0.711356 0.124244 0.634981
Si Si4 0.687789 0.959254 0.928815
O O1 0.678148 0.638002 0.493986
O O2 0.819648 0.607584 0.752190
O O3 0.810566 0.528211 0.574181
O O4 0.446424 0.562649 0.507203
O O5 0.750000 0.750000 0.500000
O O6 0.497202 0.828649 0.487206
O O7 0.000000 0.809568 0.750000
O O8 0.654957 0.070169 0.530619
O O9 0.000000 0.139917 0.750000
O O10 0.500000 0.940220 0.750000
#
# Coordination Sequence:
#
# PCOD9271676 Si02
#       4
#     8   8   8   8
#     4  10  22  38  60  90 125 162 205 252 303 363
#     4  12  25  43  65  89 120 161 207 253 306 365
#     4  10  22  41  63  92 128 163 203 252 305 363
#     4  10  20  36  60  92 126 162 203 251 306 360
#
# _framework density 20.301376000000001
#
# number of rings (size 3 to 8) (size 9 to 14) (size 15 to 20)
#    0.000    1.500    0.000    5.250    0.000    9.000 
#    0.000   12.500    0.000    0.000    0.000    0.000 
#    0.000    0.000    0.000    0.000    0.000    0.000 
#
# Total GULP energy -89233.445361 kJ/mol
# GULP energy per Si atom -5577.090335 kJ/mol
# Density = 2.025517 g / cm^3
# Si number density = 20.301376 Si / 1000 Ang^3
#
#
#
# Elastic Constant Matrix: (Units=GPa)
#
#
# Indices 1 2 3 4 5 6 
#
# 1 92.0464 52.0390 49.1557 0.0000 0.0466 0.0000
# 2 52.0390 140.9007 75.8498 0.0000 5.0117 0.0000
# 3 49.1557 75.8498 197.0037 0.0000 5.5321 0.0000
# 4 0.0000 0.0000 0.0000 24.8563 0.0000 2.3364
# 5 0.0466 5.0117 5.5321 0.0000 38.4325 0.0000
# 6 0.0000 0.0000 0.0000 2.3364 0.0000 4.5583
#
#
#
# Elastic Compliance Matrix: (Units=1/GPa)
#
#
# Indices 1 2 3 4 5 6 
#
# 1 0.014319 -0.004266 -0.001953 0.000000 0.000820 0.000000
# 2 -0.004266 0.010241 -0.002853 0.000000 -0.000920 0.000000
# 3 -0.001953 -0.002853 0.006678 0.000000 -0.000587 0.000000
# 4 0.000000 0.000000 0.000000 0.042268 0.000000 -0.021664
# 5 0.000820 -0.000920 -0.000587 0.000000 0.026223 0.000000
# 6 0.000000 0.000000 0.000000 -0.021664 0.000000 0.230482
#
#
# Mechanical properties :
#
#
# Convention : Reuss Voigt Hill
#
# Bulk Modulus (GPa) = 76.37099 87.11552 81.74326
# Shear Modulus (GPa) = 14.17557 30.42985 22.30271
#
# Velocity S-wave (km/s) = 2.64532 3.87577 3.31808
# Velocity P-wave (km/s) = 6.85789 7.93934 7.41835
#
# Compressibility (1/GPa) = 0.01309398
#
# Stress axis : x y z
#
# Youngs Moduli (GPa) = 69.83932 97.64515 149.73934
#
# Poissons Ratio (x) = 0.41655 0.29248
# Poissons Ratio (y) = 0.29793 0.42717
# Poissons Ratio (z) = 0.13642 0.27856
#
# Static dielectric constant tensor:
#      x y z
#    x 1.797510 0.000000 0.068830 
#    y 0.000000 1.660540 0.000000 
#    z 0.068830 0.000000 1.813140 
# 
# From -- ./inp_files/22090.got.cif
#   From: 2010.05.17/outbox.cif.g08.bks.cpg/sg15_12_cif.got.tgz:22090.got - 2010.06.03 18:47:42.
