data_PCOD9271816
_publ_section_title
;
Structure prediction by ZEFSAII (Michael W. Deem and Ramdas Pophale) SiO2 
 PCOD9271816
Probable space group: C 2/C
;
_chemical_formula_sum "Si O2"
_cell_formula_units_Z 24
_cell_length_a 5.042946
_cell_length_b 19.779981
_cell_length_c 9.525654
_cell_angle_alpha 90.000000
_cell_angle_beta 97.544923
_cell_angle_gamma 90.000000
_cell_volume 941.951608
_symmetry_space_group_name_H-M "C 2/C"
_symmetry_group_IT_number 15
_symmetry_cell_setting 'monoclinic'
loop_
_space_group_symop_operation_xyz
x,y,z
-x,y,1/2-z
-x,-y,-z
x,-y,1/2+z
1/2+x,1/2+y,z
1/2-x,1/2+y,1/2-z
1/2-x,1/2-y,-z
1/2+x,1/2-y,1/2+z
loop_
_atom_site_type_symbol
_atom_site_label
_atom_site_fract_x
_atom_site_fract_y
_atom_site_fract_z
Si Si1 0.780296 0.432295 0.618255
Si Si2 0.241045 0.587089 0.940409
Si Si3 0.267193 0.268614 0.337401
O O1 0.734156 0.513231 0.626210
O O2 0.479832 0.405596 0.573069
O O3 0.000000 0.412991 0.750000
O O4 0.948270 0.414075 0.490171
O O5 0.270113 0.649945 0.840742
O O6 0.500000 0.244936 0.250000
O O7 0.250000 0.250000 0.500000
O O8 0.000000 0.242387 0.250000
#
# Coordination Sequence:
#
# PCOD9271816 Si02
#       3
#     8   8   8
#     4  10  20  36  61  95 130 167 213 270 332 402
#     4  10  22  38  61  93 128 170 216 267 335 402
#     4  12  27  48  72  99 136 183 234 287 342 403
#
# _framework density 25.479018
#
# number of rings (size 3 to 8) (size 9 to 14) (size 15 to 20)
#    0.000    1.333    0.000    5.000    0.000    9.333 
#    0.000    0.000    0.000    0.000    0.000    0.000 
#    0.000    0.000    0.000    0.000    0.000    0.000 
#
# Total GULP energy -67125.781171 kJ/mol
# GULP energy per Si atom -5593.815098 kJ/mol
# Density = 2.542103 g / cm^3
# Si number density = 25.479018 Si / 1000 Ang^3
#
#
#
# Elastic Constant Matrix: (Units=GPa)
#
#
# Indices 1 2 3 4 5 6 
#
# 1 221.1246 29.3066 73.1208 0.0000 2.0921 0.0000
# 2 29.3066 95.1834 22.5162 0.0000 -5.9868 0.0000
# 3 73.1208 22.5162 156.2875 0.0000 14.3175 0.0000
# 4 0.0000 0.0000 0.0000 32.0941 0.0000 -6.2585
# 5 2.0921 -5.9868 14.3175 0.0000 55.9129 0.0000
# 6 0.0000 0.0000 0.0000 -6.2585 0.0000 14.4468
#
#
#
# Elastic Compliance Matrix: (Units=1/GPa)
#
#
# Indices 1 2 3 4 5 6 
#
# 1 0.005467 -0.001090 -0.002428 0.000000 0.000301 0.000000
# 2 -0.001090 0.011236 -0.001252 0.000000 0.001565 0.000000
# 3 -0.002428 -0.001252 0.007904 0.000000 -0.002067 0.000000
# 4 0.000000 0.000000 0.000000 0.034033 0.000000 0.014744
# 5 0.000301 0.001565 -0.002067 0.000000 0.018571 0.000000
# 6 0.000000 0.000000 0.000000 0.014744 0.000000 0.075607
#
#
# Mechanical properties :
#
#
# Convention : Reuss Voigt Hill
#
# Bulk Modulus (GPa) = 66.37137 80.27586 73.32361
# Shear Modulus (GPa) = 29.87194 43.66756 36.76975
#
# Velocity S-wave (km/s) = 3.42777 4.14437 3.80299
# Velocity P-wave (km/s) = 6.46313 7.38080 6.93716
#
# Compressibility (1/GPa) = 0.01506674
#
# Stress axis : x y z
#
# Youngs Moduli (GPa) = 182.91853 88.99782 126.51285
#
# Poissons Ratio (x) = 0.09700 0.30721
# Poissons Ratio (y) = 0.19937 0.15842
# Poissons Ratio (z) = 0.44417 0.11144
#
# Static dielectric constant tensor:
#      x y z
#    x 1.902090 0.000000 0.020000 
#    y 0.000000 2.020430 0.000000 
#    z 0.020000 0.000000 2.064480 
# 
# From -- ./inp_files/19353.got.cif
#   From: 2010.05.17/outbox.cif.g08.bks.cpg/sg15_10_cif.got.tgz:19353.got - 2010.06.03 18:47:42.
