data_PCOD9271494
_publ_section_title
;
Structure prediction by ZEFSAII (Michael W. Deem and Ramdas Pophale) SiO2 
 PCOD9271494
Probable space group: C 2/C
;
_chemical_formula_sum "Si O2"
_cell_formula_units_Z 60
_cell_length_a 24.899038
_cell_length_b 16.407738
_cell_length_c 8.214863
_cell_angle_alpha 90.000000
_cell_angle_beta 50.999639
_cell_angle_gamma 90.000000
_cell_volume 2608.146513
_symmetry_space_group_name_H-M "C 2/C"
_symmetry_group_IT_number 15
_symmetry_cell_setting 'monoclinic'
loop_
_space_group_symop_operation_xyz
x,y,z
-x,y,1/2-z
-x,-y,-z
x,-y,1/2+z
1/2+x,1/2+y,z
1/2-x,1/2+y,1/2-z
1/2-x,1/2-y,-z
1/2+x,1/2-y,1/2+z
loop_
_atom_site_type_symbol
_atom_site_label
_atom_site_fract_x
_atom_site_fract_y
_atom_site_fract_z
Si Si1 0.072623 0.611856 0.270556
Si Si2 0.500000 0.625165 0.750000
Si Si3 0.698282 0.899942 0.957320
Si Si4 0.336055 0.290510 0.028209
Si Si5 0.884146 0.471131 0.104364
Si Si6 0.797330 0.711079 0.549796
Si Si7 0.855443 0.861451 0.637415
Si Si8 0.462902 0.725422 0.496552
O O1 0.069980 0.527716 0.369278
O O2 0.034194 0.682785 0.439853
O O3 0.068797 0.591116 0.086949
O O4 0.152908 0.643763 0.119303
O O5 0.577239 0.590484 0.559649
O O6 0.487501 0.673780 0.604699
O O7 0.674279 0.806839 0.973598
O O8 0.657634 0.964746 0.925532
O O9 0.780679 0.904920 0.773376
O O10 0.671002 0.922546 0.186308
O O11 0.259706 0.321466 0.215707
O O12 0.386412 0.301722 0.085600
O O13 0.362992 0.331030 0.810349
O O14 0.750000 0.750000 0.500000
O O15 0.844143 0.779421 0.550186
O O16 0.500000 0.720928 0.250000
#
# Coordination Sequence:
#
# PCOD9271494 Si02
#       8
#     8   4   8   8   8   8   8   8
#     4  11  20  38  55  82 115 153 198 247 292 356
#     4  12  24  38  62  90 122 166 196 244 312 374
#     4  10  20  36  59  91 121 154 200 257 303 359
#     4  11  20  36  58  88 121 150 200 257 318 357
#     4  10  21  34  60  84 117 158 200 248 300 347
#     4  11  18  32  59  88 114 145 191 256 321 353
#     4  11  21  35  58  90 121 154 199 249 310 370
#     4  12  24  40  58  84 123 163 199 246 300 367
#
# _framework density 23.004843999999999
#
# number of rings (size 3 to 8) (size 9 to 14) (size 15 to 20)
#    0.000    1.067    5.333    4.000    0.000    0.000 
#    0.000    0.667    0.000    0.800    0.000    0.000 
#    0.000    0.000    0.000    0.000    0.000    0.000 
#
# Total GULP energy -167509.430865 kJ/mol
# GULP energy per Si atom -5583.647695 kJ/mol
# Density = 2.295248 g / cm^3
# Si number density = 23.004844 Si / 1000 Ang^3
#
#
#
# Elastic Constant Matrix: (Units=GPa)
#
#
# Indices 1 2 3 4 5 6 
#
# 1 61.3046 13.0830 29.8152 0.0000 3.2512 0.0000
# 2 13.0830 15.7752 14.0785 0.0000 0.8311 0.0000
# 3 29.8152 14.0785 150.9024 0.0000 -8.6595 0.0000
# 4 0.0000 0.0000 0.0000 7.3976 0.0000 13.1166
# 5 3.2512 0.8311 -8.6595 0.0000 54.2360 0.0000
# 6 0.0000 0.0000 0.0000 13.1166 0.0000 18.9758
#
#
#
# Elastic Compliance Matrix: (Units=1/GPa)
#
#
# Indices 1 2 3 4 5 6 
#
# 1 0.020917 -0.014732 -0.002843 0.000000 -0.001482 0.000000
# 2 -0.014732 0.079763 -0.004592 0.000000 -0.001072 0.000000
# 3 -0.002843 -0.004592 0.007701 0.000000 0.001470 0.000000
# 4 0.000000 0.000000 0.000000 -0.599181 0.000000 0.414171
# 5 -0.001482 -0.001072 0.001470 0.000000 0.018778 0.000000
# 6 0.000000 0.000000 0.000000 0.414171 0.000000 -0.233588
#
#
# Mechanical properties :
#
#
# Convention : Reuss Voigt Hill
#
# Bulk Modulus (GPa) = 15.61360 37.99283 26.80322
# Shear Modulus (GPa) = -7.81342 27.52225 9.85442
#
# Velocity S-wave (km/s) = -1.84494 3.46261 2.07194
# Velocity P-wave (km/s) = 1.50447 5.70414 4.17137
#
# Compressibility (1/GPa) = 0.06404671
#
# Stress axis : x y z
#
# Youngs Moduli (GPa) = 47.80702 12.53709 129.84582
#
# Poissons Ratio (x) = 0.18470 0.36922
# Poissons Ratio (y) = 0.70429 0.59630
# Poissons Ratio (z) = 0.13594 0.05757
#
# Static dielectric constant tensor:
#      x y z
#    x 1.962240 0.000000 -0.010650 
#    y 0.000000 1.827900 0.000000 
#    z -0.010650 0.000000 1.954730 
# 
# From -- ./inp_files/67005.got.cif
#   From: 2010.05.17/outbox.cif.g08.bks.cpg/sg15_34_cif.got.tgz:67005.got - 2010.06.03 18:47:42.
