data_PCOD9271617
_publ_section_title
;
Structure prediction by ZEFSAII (Michael W. Deem and Ramdas Pophale) SiO2 
 PCOD9271617
Probable space group: C 2/C
;
_chemical_formula_sum "Si O2"
_cell_formula_units_Z 52
_cell_length_a 12.375940
_cell_length_b 22.167454
_cell_length_c 9.003137
_cell_angle_alpha 90.000000
_cell_angle_beta 71.030268
_cell_angle_gamma 90.000000
_cell_volume 2335.806517
_symmetry_space_group_name_H-M "C 2/C"
_symmetry_group_IT_number 15
_symmetry_cell_setting 'monoclinic'
loop_
_space_group_symop_operation_xyz
x,y,z
-x,y,1/2-z
-x,-y,-z
x,-y,1/2+z
1/2+x,1/2+y,z
1/2-x,1/2+y,1/2-z
1/2-x,1/2-y,-z
1/2+x,1/2-y,1/2+z
loop_
_atom_site_type_symbol
_atom_site_label
_atom_site_fract_x
_atom_site_fract_y
_atom_site_fract_z
Si Si1 0.066834 0.630728 0.856153
Si Si2 0.547784 0.786772 0.870297
Si Si3 0.923216 0.828279 0.545494
Si Si4 0.774655 0.076156 0.928771
Si Si5 0.124005 0.003426 0.363984
Si Si6 0.787027 0.745702 0.812790
Si Si7 0.500000 0.400943 0.750000
O O1 0.148112 0.592576 0.928635
O O2 0.151139 0.683625 0.756060
O O3 0.000000 0.599609 0.750000
O O4 0.968669 0.667532 0.987939
O O5 0.500000 0.820491 0.750000
O O6 0.669966 0.759339 0.781271
O O7 0.470559 0.728782 0.938847
O O8 0.841442 0.868035 0.477874
O O9 0.864529 0.800215 0.718977
O O10 0.021158 0.866844 0.584202
O O11 0.841619 0.053396 0.751361
O O12 0.786425 0.024920 0.051418
O O13 0.105541 0.056941 0.251614
O O14 0.000000 0.000000 0.500000
O O15 0.750000 0.750000 0.000000
#
# Coordination Sequence:
#
# PCOD9271617 Si02
#       7
#     8   8   8   8   8   8   4
#     4  11  24  44  64  95 138 179 229 269 329 410
#     4  11  22  39  62  98 139 175 213 270 319 414
#     4  10  23  37  63 102 136 170 220 267 340 415
#     4  11  24  43  65  94 129 175 219 291 345 389
#     4  11  22  42  65  96 127 160 219 287 342 403
#     4  11  21  38  64  99 137 180 215 264 328 404
#     4  10  20  36  60  88 130 160 198 278 328 384
#
# _framework density 22.262117
#
# number of rings (size 3 to 8) (size 9 to 14) (size 15 to 20)
#    0.000    1.231    3.077    2.769    2.154    9.846 
#    0.000    0.769    0.000    0.000    0.000    0.000 
#    0.000    0.000    0.000    0.000    0.000    0.000 
#
# Total GULP energy -145017.152274 kJ/mol
# GULP energy per Si atom -5577.582780 kJ/mol
# Density = 2.221145 g / cm^3
# Si number density = 22.262117 Si / 1000 Ang^3
#
#
#
# Elastic Constant Matrix: (Units=GPa)
#
#
# Indices 1 2 3 4 5 6 
#
# 1 120.7157 15.1132 24.6801 0.0000 41.0886 0.0000
# 2 15.1132 46.5803 27.6196 0.0000 14.5849 0.0000
# 3 24.6801 27.6196 65.8538 0.0000 14.3366 0.0000
# 4 0.0000 0.0000 0.0000 23.2773 0.0000 11.0995
# 5 41.0886 14.5849 14.3366 0.0000 41.4892 0.0000
# 6 0.0000 0.0000 0.0000 11.0995 0.0000 27.9238
#
#
#
# Elastic Compliance Matrix: (Units=1/GPa)
#
#
# Indices 1 2 3 4 5 6 
#
# 1 0.012836 0.001248 -0.002672 0.000000 -0.012227 0.000000
# 2 0.001248 0.030350 -0.011468 0.000000 -0.007943 0.000000
# 3 -0.002672 -0.011468 0.021132 0.000000 -0.000625 0.000000
# 4 0.000000 0.000000 0.000000 0.053007 0.000000 -0.021070
# 5 -0.012227 -0.007943 -0.000625 0.000000 0.039220 0.000000
# 6 0.000000 0.000000 0.000000 -0.021070 0.000000 0.044187
#
#
# Mechanical properties :
#
#
# Convention : Reuss Voigt Hill
#
# Bulk Modulus (GPa) = 25.95043 40.88619 33.41831
# Shear Modulus (GPa) = 20.88904 29.58719 25.23811
#
# Velocity S-wave (km/s) = 3.06653 3.64955 3.37067
# Velocity P-wave (km/s) = 4.92140 6.01371 5.49476
#
# Compressibility (1/GPa) = 0.03853500
#
# Stress axis : x y z
#
# Youngs Moduli (GPa) = 77.90688 32.94900 47.32115
#
# Poissons Ratio (x) = -0.04113 0.12645
# Poissons Ratio (y) = -0.09725 0.54266
# Poissons Ratio (z) = 0.20818 0.37785
#
# Static dielectric constant tensor:
#      x y z
#    x 1.870610 0.000000 0.030770 
#    y 0.000000 2.199110 0.000000 
#    z 0.030770 0.000000 1.839340 
# 
# From -- ./inp_files/33491.got.cif
#   From: 2010.05.17/outbox.cif.g08.bks.cpg/sg15_17_cif.got.tgz:33491.got - 2010.06.03 18:47:42.
