data_PCOD9271842
_publ_section_title
;
Structure prediction by ZEFSAII (Michael W. Deem and Ramdas Pophale) SiO2 
 PCOD9271842
Probable space group: C 2/C
;
_chemical_formula_sum "Si O2"
_cell_formula_units_Z 44
_cell_length_a 12.019140
_cell_length_b 12.272321
_cell_length_c 17.860369
_cell_angle_alpha 90.000000
_cell_angle_beta 51.718951
_cell_angle_gamma 90.000000
_cell_volume 2067.996750
_symmetry_space_group_name_H-M "C 2/C"
_symmetry_group_IT_number 15
_symmetry_cell_setting 'monoclinic'
loop_
_space_group_symop_operation_xyz
x,y,z
-x,y,1/2-z
-x,-y,-z
x,-y,1/2+z
1/2+x,1/2+y,z
1/2-x,1/2+y,1/2-z
1/2-x,1/2-y,-z
1/2+x,1/2-y,1/2+z
loop_
_atom_site_type_symbol
_atom_site_label
_atom_site_fract_x
_atom_site_fract_y
_atom_site_fract_z
Si Si1 0.205027 0.292798 0.903868
Si Si2 0.866206 0.118284 0.949308
Si Si3 0.900419 0.658164 0.522508
Si Si4 0.219721 0.239124 0.293159
Si Si5 0.426661 0.378103 0.924641
Si Si6 0.500000 0.265278 0.250000
O O1 0.242874 0.240717 0.808483
O O2 0.335567 0.356081 0.887009
O O3 0.150063 0.199381 0.982981
O O4 0.065592 0.368633 0.951422
O O5 0.702822 0.100338 0.992720
O O6 0.945283 0.161696 0.841843
O O7 0.922856 0.002847 0.949582
O O8 0.883107 0.215088 0.001730
O O9 0.837202 0.659813 0.632696
O O10 0.363972 0.201682 0.274708
O O11 0.088078 0.157622 0.346844
#
# Coordination Sequence:
#
# PCOD9271842 Si02
#       6
#     8   8   8   8   8   4
#     4  10  20  39  58  87 124 162 188 251 296 357
#     4  10  20  38  60  93 115 157 203 245 293 356
#     4   9  20  38  62  84 123 155 195 251 295 345
#     4  10  20  37  60  86 116 162 199 240 300 348
#     4  10  23  37  63  87 124 157 199 241 302 359
#     4  10  20  36  62  82 120 156 202 250 292 344
#
# _framework density 21.276630000000001
#
# number of rings (size 3 to 8) (size 9 to 14) (size 15 to 20)
#    0.000    2.182    1.818    0.545    2.545    3.636 
#    0.000    0.000    0.000    6.545    0.000    0.000 
#    0.000    0.000    0.000    0.000    0.000    0.000 
#
# Total GULP energy -122775.891101 kJ/mol
# GULP energy per Si atom -5580.722323 kJ/mol
# Density = 2.122820 g / cm^3
# Si number density = 21.276630 Si / 1000 Ang^3
#
#
#
# Elastic Constant Matrix: (Units=GPa)
#
#
# Indices 1 2 3 4 5 6 
#
# 1 161.2929 23.4986 37.2136 0.0000 -27.4801 0.0000
# 2 23.4986 32.3514 -0.6198 0.0000 -13.0689 0.0000
# 3 37.2136 -0.6198 102.6461 0.0000 5.8545 0.0000
# 4 0.0000 0.0000 0.0000 8.5335 0.0000 -1.8966
# 5 -27.4801 -13.0689 5.8545 0.0000 45.1984 0.0000
# 6 0.0000 0.0000 0.0000 -1.8966 0.0000 6.4586
#
#
#
# Elastic Compliance Matrix: (Units=1/GPa)
#
#
# Indices 1 2 3 4 5 6 
#
# 1 0.008315 -0.004403 -0.003281 0.000000 0.004207 0.000000
# 2 -0.004403 0.037344 0.001369 0.000000 0.007944 0.000000
# 3 -0.003281 0.001369 0.011113 0.000000 -0.003039 0.000000
# 4 0.000000 0.000000 0.000000 0.125367 0.000000 0.036815
# 5 0.004207 0.007944 -0.003039 0.000000 0.027373 0.000000
# 6 0.000000 0.000000 0.000000 0.036815 0.000000 0.165644
#
#
# Mechanical properties :
#
#
# Convention : Reuss Voigt Hill
#
# Bulk Modulus (GPa) = 22.65442 46.27502 34.46472
# Shear Modulus (GPa) = 12.42231 27.78463 20.10347
#
# Velocity S-wave (km/s) = 2.41892 3.61761 3.07719
# Velocity P-wave (km/s) = 4.29793 6.26466 5.37206
#
# Compressibility (1/GPa) = 0.04414149
#
# Stress axis : x y z
#
# Youngs Moduli (GPa) = 120.26092 26.77816 89.98175
#
# Poissons Ratio (x) = 0.11790 0.29525
# Poissons Ratio (y) = 0.52951 -0.12316
# Poissons Ratio (z) = 0.39460 -0.03665
#
# Static dielectric constant tensor:
#      x y z
#    x 1.834860 0.000000 -0.012210 
#    y 0.000000 1.734560 0.000000 
#    z -0.012210 0.000000 1.787670 
# 
# From -- ./inp_files/197638.got.cif
#   From: 2010.05.17/outbox.cif.g08.bks.cpg/sg15_99_cif.got.tgz:197638.got - 2010.06.03 18:47:42.
