data_PCOD9271187
_publ_section_title
;
Structure prediction by ZEFSAII (Michael W. Deem and Ramdas Pophale) SiO2 
 PCOD9271187
Probable space group: C 2/C
;
_chemical_formula_sum "Si O2"
_cell_formula_units_Z 56
_cell_length_a 12.065846
_cell_length_b 8.260395
_cell_length_c 25.905469
_cell_angle_alpha 90.000000
_cell_angle_beta 74.069005
_cell_angle_gamma 90.000000
_cell_volume 2482.797678
_symmetry_space_group_name_H-M "C 2/C"
_symmetry_group_IT_number 15
_symmetry_cell_setting 'monoclinic'
loop_
_space_group_symop_operation_xyz
x,y,z
-x,y,1/2-z
-x,-y,-z
x,-y,1/2+z
1/2+x,1/2+y,z
1/2-x,1/2+y,1/2-z
1/2-x,1/2-y,-z
1/2+x,1/2-y,1/2+z
loop_
_atom_site_type_symbol
_atom_site_label
_atom_site_fract_x
_atom_site_fract_y
_atom_site_fract_z
Si Si1 0.563912 0.733477 0.405583
Si Si2 0.000000 0.749458 0.750000
Si Si3 0.849497 0.995313 0.816643
Si Si4 0.387642 0.019740 0.694852
Si Si5 0.018790 0.899537 0.444639
Si Si6 0.725040 0.386736 0.063265
Si Si7 0.396254 0.125770 0.003477
Si Si8 0.000000 0.268729 0.750000
O O1 0.581931 0.862729 0.357202
O O2 0.560589 0.538423 0.399431
O O3 0.671908 0.768198 0.431176
O O4 0.441371 0.781573 0.447262
O O5 0.102530 0.639718 0.757883
O O6 0.050875 0.863768 0.699779
O O7 0.735788 0.945354 0.800449
O O8 0.813593 0.028297 0.879111
O O9 0.896285 0.154697 0.781735
O O10 0.470596 0.876810 0.703486
O O11 0.895046 0.824108 0.444466
O O12 0.102991 0.753393 0.449228
O O13 0.000000 0.000000 0.500000
O O14 0.781394 0.520029 0.018106
O O15 0.500000 0.000000 0.000000
#
# Coordination Sequence:
#
# PCOD9271187 Si02
#       8
#     8   4   8   8   8   8   8   4
#     4   9  20  37  57  83 115 148 191 235 279 343
#     4  10  20  36  58  80 112 144 182 240 286 330
#     4  10  21  37  58  84 111 147 190 231 285 345
#     4  10  20  38  58  83 113 145 187 235 287 342
#     4  10  21  37  56  82 115 153 194 234 280 335
#     4  10  21  38  58  82 115 153 190 235 287 337
#     4   9  20  37  57  82 114 152 189 231 278 333
#     4  10  22  38  60  84 112 148 186 238 292 340
#
# _framework density 22.555199000000002
#
# number of rings (size 3 to 8) (size 9 to 14) (size 15 to 20)
#    0.000    2.286    0.000    1.714    0.000   10.857 
#    0.000   14.286    0.000    0.000    0.000    0.000 
#    0.000    0.000    0.000    0.000    0.000    0.000 
#
# Total GULP energy -156115.270852 kJ/mol
# GULP energy per Si atom -5575.545388 kJ/mol
# Density = 2.250386 g / cm^3
# Si number density = 22.555199 Si / 1000 Ang^3
#
#
#
# Elastic Constant Matrix: (Units=GPa)
#
#
# Indices 1 2 3 4 5 6 
#
# 1 81.8167 -0.8071 -5.7373 0.0000 10.7180 0.0000
# 2 -0.8071 42.0923 -7.4868 0.0000 -0.5212 0.0000
# 3 -5.7373 -7.4868 28.2102 0.0000 -4.4136 0.0000
# 4 0.0000 0.0000 0.0000 16.8122 0.0000 3.1223
# 5 10.7180 -0.5212 -4.4136 0.0000 30.0779 0.0000
# 6 0.0000 0.0000 0.0000 3.1223 0.0000 25.7601
#
#
#
# Elastic Compliance Matrix: (Units=1/GPa)
#
#
# Indices 1 2 3 4 5 6 
#
# 1 0.012938 0.000571 0.002111 0.000000 -0.004291 0.000000
# 2 0.000571 0.025020 0.006952 0.000000 0.001250 0.000000
# 3 0.002111 0.006952 0.038508 0.000000 0.005019 0.000000
# 4 0.000000 0.000000 0.000000 0.060850 0.000000 -0.007375
# 5 -0.004291 0.001250 0.005019 0.000000 0.035534 0.000000
# 6 0.000000 0.000000 0.000000 -0.007375 0.000000 0.039714
#
#
# Mechanical properties :
#
#
# Convention : Reuss Voigt Hill
#
# Bulk Modulus (GPa) = 10.44562 13.78407 12.11484
# Shear Modulus (GPa) = 22.20172 25.60675 23.90423
#
# Velocity S-wave (km/s) = 3.14080 3.37307 3.25900
# Velocity P-wave (km/s) = 4.21830 4.61461 4.42090
#
# Compressibility (1/GPa) = 0.09573394
#
# Stress axis : x y z
#
# Youngs Moduli (GPa) = 77.29033 39.96766 25.96880
#
# Poissons Ratio (x) = -0.02280 -0.05483
# Poissons Ratio (y) = -0.04410 -0.18053
# Poissons Ratio (z) = -0.16320 -0.27785
#
# Static dielectric constant tensor:
#      x y z
#    x 1.836270 0.000000 0.038590 
#    y 0.000000 1.866500 0.000000 
#    z 0.038590 0.000000 1.866390 
# 
# From -- ./inp_files/309950.got.cif
#   From: 2010.05.17/outbox.cif.g08.bks.cpg/sg15_155_cif.got.tgz:309950.got - 2010.06.03 18:47:42.
