data_PCOD9271599
_publ_section_title
;
Structure prediction by ZEFSAII (Michael W. Deem and Ramdas Pophale) SiO2 
 PCOD9271599
Probable space group: C 2/C
;
_chemical_formula_sum "Si O2"
_cell_formula_units_Z 48
_cell_length_a 7.823619
_cell_length_b 14.126827
_cell_length_c 21.355737
_cell_angle_alpha 90.000000
_cell_angle_beta 65.062173
_cell_angle_gamma 90.000000
_cell_volume 2140.237835
_symmetry_space_group_name_H-M "C 2/C"
_symmetry_group_IT_number 15
_symmetry_cell_setting 'monoclinic'
loop_
_space_group_symop_operation_xyz
x,y,z
-x,y,1/2-z
-x,-y,-z
x,-y,1/2+z
1/2+x,1/2+y,z
1/2-x,1/2+y,1/2-z
1/2-x,1/2-y,-z
1/2+x,1/2-y,1/2+z
loop_
_atom_site_type_symbol
_atom_site_label
_atom_site_fract_x
_atom_site_fract_y
_atom_site_fract_z
Si Si1 0.048084 0.457083 0.316445
Si Si2 0.913903 0.765761 0.675543
Si Si3 0.449502 0.803354 0.960964
Si Si4 0.211055 0.511533 0.027410
Si Si5 0.714498 0.850009 0.813397
Si Si6 0.965996 0.851683 0.969715
O O1 0.882946 0.476850 0.392943
O O2 0.000000 0.471135 0.250000
O O3 0.097641 0.347069 0.316927
O O4 0.203047 0.536189 0.311059
O O5 0.740550 0.810692 0.739857
O O6 0.105456 0.807424 0.677772
O O7 0.929268 0.801792 0.603207
O O8 0.529983 0.814625 0.878675
O O9 0.418398 0.911415 0.988247
O O10 0.250000 0.750000 0.000000
O O11 0.590396 0.733293 0.975295
O O12 0.385682 0.578883 0.019750
O O13 0.296304 0.421643 0.978670
#
# Coordination Sequence:
#
# PCOD9271599 Si02
#       6
#     8   8   8   8   8   8
#     4  11  21  38  64  84 119 169 207 252 323 368
#     4  11  23  40  60  94 126 165 207 261 321 372
#     4   9  19  37  59  87 120 158 211 260 306 369
#     4   9  20  36  58  89 115 164 208 256 309 371
#     4  10  22  40  61  88 128 161 208 265 307 383
#     4  10  20  36  60  87 123 159 206 257 314 370
#
# _framework density 22.427413999999999
#
# number of rings (size 3 to 8) (size 9 to 14) (size 15 to 20)
#    0.000    2.000    1.667    2.000    0.000    4.000 
#    3.000    3.333   14.667    0.000    0.000    0.000 
#    0.000    0.000    0.000    0.000    0.000    0.000 
#
# Total GULP energy -133931.850046 kJ/mol
# GULP energy per Si atom -5580.493752 kJ/mol
# Density = 2.237637 g / cm^3
# Si number density = 22.427414 Si / 1000 Ang^3
#
#
#
# Elastic Constant Matrix: (Units=GPa)
#
#
# Indices 1 2 3 4 5 6 
#
# 1 59.2626 41.4123 -7.2019 0.0000 -13.0807 0.0000
# 2 41.4123 236.9226 66.6192 0.0000 -11.1254 0.0000
# 3 -7.2019 66.6192 108.2307 0.0000 -12.0926 0.0000
# 4 0.0000 0.0000 0.0000 40.0161 0.0000 9.1841
# 5 -13.0807 -11.1254 -12.0926 0.0000 26.3378 0.0000
# 6 0.0000 0.0000 0.0000 9.1841 0.0000 13.7183
#
#
#
# Elastic Compliance Matrix: (Units=1/GPa)
#
#
# Indices 1 2 3 4 5 6 
#
# 1 0.024244 -0.005435 0.006374 0.000000 0.012671 0.000000
# 2 -0.005435 0.006337 -0.004495 0.000000 -0.002086 0.000000
# 3 0.006374 -0.004495 0.013252 0.000000 0.007351 0.000000
# 4 0.000000 0.000000 0.000000 0.029527 0.000000 -0.019768
# 5 0.012671 -0.002086 0.007351 0.000000 0.046756 0.000000
# 6 0.000000 0.000000 0.000000 -0.019768 0.000000 0.086130
#
#
# Mechanical properties :
#
#
# Convention : Reuss Voigt Hill
#
# Bulk Modulus (GPa) = 27.23260 67.34166 47.28713
# Shear Modulus (GPa) = 22.16349 36.25352 29.20850
#
# Velocity S-wave (km/s) = 3.14703 4.02491 3.61273
# Velocity P-wave (km/s) = 5.03726 7.18968 6.20748
#
# Compressibility (1/GPa) = 0.03672070
#
# Stress axis : x y z
#
# Youngs Moduli (GPa) = 41.24816 157.80840 75.46008
#
# Poissons Ratio (x) = 0.85768 -0.48101
# Poissons Ratio (y) = 0.22418 0.33921
# Poissons Ratio (z) = -0.26293 0.70939
#
# Static dielectric constant tensor:
#      x y z
#    x 3.410340 0.000000 0.129590 
#    y 0.000000 1.823210 0.000000 
#    z 0.129590 0.000000 1.856230 
# 
# From -- ./inp_files/287539.got.cif
#   From: 2010.05.17/outbox.cif.g08.bks.cpg/sg15_144_cif.got.tgz:287539.got - 2010.06.03 18:47:42.
