data_PCOD9271318
_publ_section_title
;
Structure prediction by ZEFSAII (Michael W. Deem and Ramdas Pophale) SiO2 
 PCOD9271318
Probable space group: C 2/C
;
_chemical_formula_sum "Si O2"
_cell_formula_units_Z 36
_cell_length_a 16.880278
_cell_length_b 18.497740
_cell_length_c 8.061151
_cell_angle_alpha 90.000000
_cell_angle_beta 58.643867
_cell_angle_gamma 90.000000
_cell_volume 2149.450668
_symmetry_space_group_name_H-M "C 2/C"
_symmetry_group_IT_number 15
_symmetry_cell_setting 'monoclinic'
loop_
_space_group_symop_operation_xyz
x,y,z
-x,y,1/2-z
-x,-y,-z
x,-y,1/2+z
1/2+x,1/2+y,z
1/2-x,1/2+y,1/2-z
1/2-x,1/2-y,-z
1/2+x,1/2-y,1/2+z
loop_
_atom_site_type_symbol
_atom_site_label
_atom_site_fract_x
_atom_site_fract_y
_atom_site_fract_z
Si Si1 0.493112 0.827827 0.574733
Si Si2 0.653866 0.075925 0.776563
Si Si3 0.829729 0.416417 0.614278
Si Si4 0.795934 0.829361 0.963407
Si Si5 0.500000 0.723297 0.250000
O O1 0.500000 0.794471 0.750000
O O2 0.572627 0.888994 0.471962
O O3 0.394489 0.866491 0.655171
O O4 0.506813 0.773158 0.406902
O O5 0.743495 0.128231 0.668781
O O6 0.621221 0.075300 0.619722
O O7 0.680477 0.995680 0.800714
O O8 0.735731 0.375128 0.664086
O O9 0.905002 0.821287 0.864310
O O10 0.750000 0.750000 0.000000
#
# Coordination Sequence:
#
# PCOD9271318 Si02
#       5
#     8   8   8   8   4
#     4  12  21  33  63  95 127 155 197 256 309 368
#     4  10  20  36  58  90 124 159 196 246 309 355
#     4  10  20  36  58  90 124 159 196 246 309 355
#     4  10  20  38  68  80 127 172 189 256 306 364
#     4  12  20  46  58  94 122 164 208 244 312 358
#
# _framework density 16.748464999999999
#
# number of rings (size 3 to 8) (size 9 to 14) (size 15 to 20)
#    1.333    0.000    6.667    2.000    0.000    0.000 
#    0.000    7.778    0.000    0.000    0.000    0.000 
#    0.000    0.000    0.000    0.000    0.000    0.000 
#
# Total GULP energy -100218.433745 kJ/mol
# GULP energy per Si atom -5567.690764 kJ/mol
# Density = 1.671034 g / cm^3
# Si number density = 16.748465 Si / 1000 Ang^3
#
#
#
# Elastic Constant Matrix: (Units=GPa)
#
#
# Indices 1 2 3 4 5 6 
#
# 1 95.0805 28.5543 24.1391 0.0000 -10.2641 0.0000
# 2 28.5543 48.3543 1.1112 0.0000 -1.2142 0.0000
# 3 24.1391 1.1112 34.6586 0.0000 18.1750 0.0000
# 4 0.0000 0.0000 0.0000 -8.1221 0.0000 14.2580
# 5 -10.2641 -1.2142 18.1750 0.0000 38.5815 0.0000
# 6 0.0000 0.0000 0.0000 14.2580 0.0000 25.0345
#
#
#
# Elastic Compliance Matrix: (Units=1/GPa)
#
#
# Indices 1 2 3 4 5 6 
#
# 1 0.021851 -0.011949 -0.023490 0.000000 0.016503 0.000000
# 2 -0.011949 0.027278 0.011508 0.000000 -0.007742 0.000000
# 3 -0.023490 0.011508 0.063657 0.000000 -0.035875 0.000000
# 4 0.000000 0.000000 0.000000 -0.061567 0.000000 0.035064
# 5 0.016503 -0.007742 -0.035875 0.000000 0.046966 0.000000
# 6 0.000000 0.000000 0.000000 0.035064 0.000000 0.019974
#
#
# Mechanical properties :
#
#
# Convention : Reuss Voigt Hill
#
# Bulk Modulus (GPa) = 15.40286 31.74474 23.57380
# Shear Modulus (GPa) = 26.64335 19.38470 23.01403
#
# Velocity S-wave (km/s) = 3.99280 3.40575 3.71090
# Velocity P-wave (km/s) = 5.52025 5.87031 5.69797
#
# Compressibility (1/GPa) = 0.06492302
#
# Stress axis : x y z
#
# Youngs Moduli (GPa) = 45.76414 36.65920 15.70920
#
# Poissons Ratio (x) = 0.43806 0.36901
# Poissons Ratio (y) = 0.54686 -0.18078
# Poissons Ratio (z) = 1.07500 -0.42186
#
# Static dielectric constant tensor:
#      x y z
#    x 1.567360 0.000000 0.023820 
#    y 0.000000 1.560990 0.000000 
#    z 0.023820 0.000000 1.584260 
# 
# From -- ./inp_files/54845.got.cif
#   From: 2010.05.17/outbox.cif.g08.bks.cpg/sg15_28_cif.got.tgz:54845.got - 2010.06.03 18:47:42.
