data_PCOD9271768
_publ_section_title
;
Structure prediction by ZEFSAII (Michael W. Deem and Ramdas Pophale) SiO2 
 PCOD9271768
Probable space group: C 2/C
;
_chemical_formula_sum "Si O2"
_cell_formula_units_Z 52
_cell_length_a 14.425686
_cell_length_b 28.460704
_cell_length_c 9.975734
_cell_angle_alpha 90.000000
_cell_angle_beta 134.475028
_cell_angle_gamma 90.000000
_cell_volume 2922.502933
_symmetry_space_group_name_H-M "C 2/C"
_symmetry_group_IT_number 15
_symmetry_cell_setting 'monoclinic'
loop_
_space_group_symop_operation_xyz
x,y,z
-x,y,1/2-z
-x,-y,-z
x,-y,1/2+z
1/2+x,1/2+y,z
1/2-x,1/2+y,1/2-z
1/2-x,1/2-y,-z
1/2+x,1/2-y,1/2+z
loop_
_atom_site_type_symbol
_atom_site_label
_atom_site_fract_x
_atom_site_fract_y
_atom_site_fract_z
Si Si1 0.620841 0.978947 0.540401
Si Si2 0.528138 0.358880 0.005622
Si Si3 0.610827 0.274362 0.747087
Si Si4 0.788138 0.011224 0.470617
Si Si5 0.000000 0.068066 0.250000
Si Si6 0.500000 0.411686 0.250000
Si Si7 0.500000 0.104104 0.750000
Si Si8 0.210056 0.323253 0.361603
O O1 0.573998 0.929185 0.432074
O O2 0.500000 0.000000 0.500000
O O3 0.671805 0.006362 0.460278
O O4 0.735708 0.981559 0.767036
O O5 0.529148 0.380735 0.151219
O O6 0.671235 0.346300 0.097113
O O7 0.447500 0.310895 0.916291
O O8 0.469101 0.397086 0.841709
O O9 0.500000 0.267794 0.750000
O O10 0.650807 0.223518 0.734109
O O11 0.729827 0.300995 0.940875
O O12 0.878379 0.054762 0.598323
O O13 0.879886 0.965099 0.583725
O O14 0.396142 0.137706 0.715785
#
# Coordination Sequence:
#
# PCOD9271768 Si02
#       8
#     8   8   8   8   4   4   4   8
#     4  12  24  40  57  84 124 163 197 244 296 359
#     4  11  21  38  61  92 118 151 200 248 301 356
#     4   9  18  36  61  91 117 143 188 260 305 335
#     4  11  24  41  58  84 120 158 207 250 297 337
#     4  11  20  39  66  86 108 156 211 264 285 328
#     4  11  26  38  62  87 121 162 200 252 297 356
#     4  12  24  35  62  91 117 166 197 238 304 360
#     4  10  20  36  61  90 120 142 198 252 294 354
#
# _framework density 17.792967000000001
#
# number of rings (size 3 to 8) (size 9 to 14) (size 15 to 20)
#    0.000    1.231    4.615    2.769    4.308    2.462 
#    0.000    0.769    0.000    0.000    0.000    0.000 
#    0.000    0.000    0.000    0.000    0.000    0.000 
#
# Total GULP energy -145147.588704 kJ/mol
# GULP energy per Si atom -5582.599566 kJ/mol
# Density = 1.775247 g / cm^3
# Si number density = 17.792967 Si / 1000 Ang^3
#
#
#
# Elastic Constant Matrix: (Units=GPa)
#
#
# Indices 1 2 3 4 5 6 
#
# 1 59.1653 55.5004 27.9845 0.0000 1.4176 0.0000
# 2 55.5004 145.2825 62.2723 0.0000 0.6502 0.0000
# 3 27.9845 62.2723 102.1231 0.0000 -6.7408 0.0000
# 4 0.0000 0.0000 0.0000 24.9385 0.0000 11.9669
# 5 1.4176 0.6502 -6.7408 0.0000 31.6089 0.0000
# 6 0.0000 0.0000 0.0000 11.9669 0.0000 28.1663
#
#
#
# Elastic Compliance Matrix: (Units=1/GPa)
#
#
# Indices 1 2 3 4 5 6 
#
# 1 0.026560 -0.009454 -0.001602 0.000000 -0.001338 0.000000
# 2 -0.009454 0.012747 -0.005246 0.000000 -0.000957 0.000000
# 3 -0.001602 -0.005246 0.013633 0.000000 0.003087 0.000000
# 4 0.000000 0.000000 0.000000 0.050367 0.000000 -0.021399
# 5 -0.001338 -0.000957 0.003087 0.000000 0.032375 0.000000
# 6 0.000000 0.000000 0.000000 -0.021399 0.000000 0.044595
#
#
# Mechanical properties :
#
#
# Convention : Reuss Voigt Hill
#
# Bulk Modulus (GPa) = 49.16846 66.45393 57.81119
# Shear Modulus (GPa) = 22.76255 27.66365 25.21310
#
# Velocity S-wave (km/s) = 3.58061 3.94731 3.76842
# Velocity P-wave (km/s) = 6.69238 7.62919 7.17609
#
# Compressibility (1/GPa) = 0.02033824
#
# Stress axis : x y z
#
# Youngs Moduli (GPa) = 37.65129 78.44801 73.34903
#
# Poissons Ratio (x) = 0.74162 0.11749
# Poissons Ratio (y) = 0.35594 0.38476
# Poissons Ratio (z) = 0.06031 0.41151
#
# Static dielectric constant tensor:
#      x y z
#    x 1.622200 0.000000 0.078980 
#    y 0.000000 1.608640 0.000000 
#    z 0.078980 0.000000 1.692690 
# 
# From -- ./inp_files/43677.got.cif
#   From: 2010.05.17/outbox.cif.g08.bks.cpg/sg15_22_cif.got.tgz:43677.got - 2010.06.03 18:47:42.
