data_PCOD9271197
_publ_section_title
;
Structure prediction by ZEFSAII (Michael W. Deem and Ramdas Pophale) SiO2 
 PCOD9271197
Probable space group: C 2/C
;
_chemical_formula_sum "Si O2"
_cell_formula_units_Z 40
_cell_length_a 14.275456
_cell_length_b 11.572106
_cell_length_c 13.419385
_cell_angle_alpha 90.000000
_cell_angle_beta 51.979268
_cell_angle_gamma 90.000000
_cell_volume 1746.402436
_symmetry_space_group_name_H-M "C 2/C"
_symmetry_group_IT_number 15
_symmetry_cell_setting 'monoclinic'
loop_
_space_group_symop_operation_xyz
x,y,z
-x,y,1/2-z
-x,-y,-z
x,-y,1/2+z
1/2+x,1/2+y,z
1/2-x,1/2+y,1/2-z
1/2-x,1/2-y,-z
1/2+x,1/2-y,1/2+z
loop_
_atom_site_type_symbol
_atom_site_label
_atom_site_fract_x
_atom_site_fract_y
_atom_site_fract_z
Si Si1 0.996553 0.370510 0.081446
Si Si2 0.104517 0.131716 0.074661
Si Si3 0.298044 0.006129 0.335603
Si Si4 0.667384 0.082835 0.972835
Si Si5 0.857916 0.961585 0.744200
O O1 0.910149 0.442005 0.212439
O O2 0.920708 0.337618 0.032472
O O3 0.050732 0.254909 0.087923
O O4 0.104006 0.458835 0.991144
O O5 0.145374 0.127951 0.162269
O O6 0.998044 0.037693 0.129279
O O7 0.212987 0.093354 0.935685
O O8 0.326417 0.087522 0.412008
O O9 0.220943 0.066522 0.299919
O O10 0.795902 0.073944 0.835768
#
# Coordination Sequence:
#
# PCOD9271197 Si02
#       5
#     8   8   8   8   8
#     4  10  21  35  56  91 110 147 191 233 272 337
#     4  10  21  34  60  85 111 142 200 230 267 334
#     4  10  20  36  58  81 117 154 178 231 289 325
#     4   9  20  36  56  81 121 147 182 227 293 332
#     4   9  20  35  53  87 113 146 187 230 279 334
#
# _framework density 22.904228
#
# number of rings (size 3 to 8) (size 9 to 14) (size 15 to 20)
#    0.000    2.400    0.000    1.200    8.400    1.600 
#    0.000    1.000    0.000    0.000   20.800    0.000 
#    0.000    0.000    0.000    0.000    0.000    0.000 
#
# Total GULP energy -111628.316321 kJ/mol
# GULP energy per Si atom -5581.415816 kJ/mol
# Density = 2.285210 g / cm^3
# Si number density = 22.904228 Si / 1000 Ang^3
#
#
#
# Elastic Constant Matrix: (Units=GPa)
#
#
# Indices 1 2 3 4 5 6 
#
# 1 118.6720 18.5402 32.0103 0.0000 41.7265 0.0000
# 2 18.5402 25.0867 -3.1111 0.0000 7.9624 0.0000
# 3 32.0103 -3.1111 96.7473 0.0000 9.2185 0.0000
# 4 0.0000 0.0000 0.0000 8.4494 0.0000 0.8495
# 5 41.7265 7.9624 9.2185 0.0000 72.8197 0.0000
# 6 0.0000 0.0000 0.0000 0.8495 0.0000 32.0056
#
#
#
# Elastic Compliance Matrix: (Units=1/GPa)
#
#
# Indices 1 2 3 4 5 6 
#
# 1 0.012859 -0.008093 -0.003945 0.000000 -0.005984 0.000000
# 2 -0.008093 0.046694 0.004276 0.000000 -0.001009 0.000000
# 3 -0.003945 0.004276 0.011750 0.000000 0.000305 0.000000
# 4 0.000000 0.000000 0.000000 0.118668 0.000000 -0.003150
# 5 -0.005984 -0.001009 0.000305 0.000000 0.017233 0.000000
# 6 0.000000 0.000000 0.000000 -0.003150 0.000000 0.031328
#
#
# Mechanical properties :
#
#
# Convention : Reuss Voigt Hill
#
# Bulk Modulus (GPa) = 17.92836 37.26497 27.59666
# Shear Modulus (GPa) = 18.33854 35.52604 26.93229
#
# Velocity S-wave (km/s) = 2.83267 3.94263 3.43281
# Velocity P-wave (km/s) = 4.30618 6.08531 5.27135
#
# Compressibility (1/GPa) = 0.05577756
#
# Stress axis : x y z
#
# Youngs Moduli (GPa) = 77.76571 21.41613 85.10810
#
# Poissons Ratio (x) = 0.17333 0.33573
# Poissons Ratio (y) = 0.62939 -0.36388
# Poissons Ratio (z) = 0.30676 -0.09157
#
# Static dielectric constant tensor:
#      x y z
#    x 1.922180 0.000000 0.015440 
#    y 0.000000 1.819140 0.000000 
#    z 0.015440 0.000000 1.908280 
# 
# From -- ./inp_files/95535.got.cif
#   From: 2010.05.17/outbox.cif.g08.bks.cpg/sg15_48_cif.got.tgz:95535.got - 2010.06.03 18:47:42.
