data_PCOD9271546
_publ_section_title
;
Structure prediction by ZEFSAII (Michael W. Deem and Ramdas Pophale) SiO2 
 PCOD9271546
Probable space group: C 2/C
;
_chemical_formula_sum "Si O2"
_cell_formula_units_Z 52
_cell_length_a 14.727397
_cell_length_b 10.453091
_cell_length_c 22.984517
_cell_angle_alpha 90.000000
_cell_angle_beta 42.694390
_cell_angle_gamma 90.000000
_cell_volume 2399.341023
_symmetry_space_group_name_H-M "C 2/C"
_symmetry_group_IT_number 15
_symmetry_cell_setting 'monoclinic'
loop_
_space_group_symop_operation_xyz
x,y,z
-x,y,1/2-z
-x,-y,-z
x,-y,1/2+z
1/2+x,1/2+y,z
1/2-x,1/2+y,1/2-z
1/2-x,1/2-y,-z
1/2+x,1/2-y,1/2+z
loop_
_atom_site_type_symbol
_atom_site_label
_atom_site_fract_x
_atom_site_fract_y
_atom_site_fract_z
Si Si1 0.500000 0.600664 0.750000
Si Si2 0.109024 0.121989 0.816177
Si Si3 0.802482 0.120149 0.381681
Si Si4 0.000000 0.500000 0.500000
Si Si5 0.047765 0.263559 0.960618
Si Si6 0.552018 0.367503 0.574975
Si Si7 0.500000 0.845326 0.250000
Si Si8 0.924135 0.594218 0.662194
O O1 0.546440 0.672199 0.785609
O O2 0.619307 0.501992 0.677791
O O3 0.083611 0.216310 0.881227
O O4 0.264155 0.090523 0.736757
O O5 0.031877 0.991900 0.869767
O O6 0.648827 0.118093 0.432941
O O7 0.875247 0.246486 0.320768
O O8 0.818807 0.127395 0.443594
O O9 0.920900 0.647815 0.529465
O O10 0.016932 0.488308 0.417693
O O11 0.072853 0.154462 0.996643
O O12 0.471077 0.241677 0.631633
O O13 0.526691 0.928746 0.294702
#
# Coordination Sequence:
#
# PCOD9271546 Si02
#       8
#     4   8   8   4   8   8   4   8
#     4   9  20  34  53  88 114 152 213 229 278 370
#     4  11  21  35  63  81 118 161 196 242 299 356
#     4   9  16  32  59  83 114 146 192 249 299 339
#     4  10  24  36  54  84 124 158 194 238 306 366
#     4  11  20  36  58  85 116 154 192 251 304 349
#     4   9  21  35  56  92 115 142 196 253 296 364
#     4   9  16  32  55  96 108 138 201 261 280 350
#     4  10  20  36  60  84 120 151 200 244 308 350
#
# _framework density 21.672618
#
# number of rings (size 3 to 8) (size 9 to 14) (size 15 to 20)
#    0.000    2.154    1.538    2.769    2.154    0.000 
#    0.000    0.769    0.000    9.231    0.000    0.000 
#    0.000    0.000    0.000    0.000    0.000    0.000 
#
# Total GULP energy -144786.986263 kJ/mol
# GULP energy per Si atom -5568.730241 kJ/mol
# Density = 2.162329 g / cm^3
# Si number density = 21.672618 Si / 1000 Ang^3
#
#
#
# Elastic Constant Matrix: (Units=GPa)
#
#
# Indices 1 2 3 4 5 6 
#
# 1 146.1589 38.6640 75.8608 0.0000 38.1751 0.0000
# 2 38.6640 49.5001 21.8992 0.0000 12.4324 0.0000
# 3 75.8608 21.8992 107.8790 0.0000 44.5533 0.0000
# 4 0.0000 0.0000 0.0000 28.6982 0.0000 3.2945
# 5 38.1751 12.4324 44.5533 0.0000 53.9949 0.0000
# 6 0.0000 0.0000 0.0000 3.2945 0.0000 29.9137
#
#
#
# Elastic Compliance Matrix: (Units=1/GPa)
#
#
# Indices 1 2 3 4 5 6 
#
# 1 0.012490 -0.006314 -0.006757 0.000000 -0.001801 0.000000
# 2 -0.006314 0.025547 -0.000243 0.000000 -0.001218 0.000000
# 3 -0.006757 -0.000243 0.018316 0.000000 -0.010280 0.000000
# 4 0.000000 0.000000 0.000000 0.035292 0.000000 -0.003887
# 5 -0.001801 -0.001218 -0.010280 0.000000 0.028556 0.000000
# 6 0.000000 0.000000 0.000000 -0.003887 0.000000 0.033858
#
#
# Mechanical properties :
#
#
# Convention : Reuss Voigt Hill
#
# Bulk Modulus (GPa) = 33.64245 64.04288 48.84267
# Shear Modulus (GPa) = 26.23355 33.66230 29.94793
#
# Velocity S-wave (km/s) = 3.48292 3.94536 3.72133
# Velocity P-wave (km/s) = 5.63303 7.09710 6.40702
#
# Compressibility (1/GPa) = 0.02972435
#
# Stress axis : x y z
#
# Youngs Moduli (GPa) = 80.06582 39.14345 54.59577
#
# Poissons Ratio (x) = 0.24714 0.36893
# Poissons Ratio (y) = 0.50552 0.01328
# Poissons Ratio (z) = 0.54104 0.00952
#
# Static dielectric constant tensor:
#      x y z
#    x 1.901760 0.000000 -0.004930 
#    y 0.000000 1.858800 0.000000 
#    z -0.004930 0.000000 1.857610 
# 
# From -- ./inp_files/203595.got.cif
#   From: 2010.05.17/outbox.cif.g08.bks.cpg/sg15_102_cif.got.tgz:203595.got - 2010.06.03 18:47:42.
