data_PCOD9271777
_publ_section_title
;
Structure prediction by ZEFSAII (Michael W. Deem and Ramdas Pophale) SiO2 
 PCOD9271777
Probable space group: C 2/C
;
_chemical_formula_sum "Si O2"
_cell_formula_units_Z 44
_cell_length_a 9.174458
_cell_length_b 27.839672
_cell_length_c 10.972129
_cell_angle_alpha 90.000000
_cell_angle_beta 128.998464
_cell_angle_gamma 90.000000
_cell_volume 2177.947759
_symmetry_space_group_name_H-M "C 2/C"
_symmetry_group_IT_number 15
_symmetry_cell_setting 'monoclinic'
loop_
_space_group_symop_operation_xyz
x,y,z
-x,y,1/2-z
-x,-y,-z
x,-y,1/2+z
1/2+x,1/2+y,z
1/2-x,1/2+y,1/2-z
1/2-x,1/2-y,-z
1/2+x,1/2-y,1/2+z
loop_
_atom_site_type_symbol
_atom_site_label
_atom_site_fract_x
_atom_site_fract_y
_atom_site_fract_z
Si Si1 0.768132 0.471094 0.987210
Si Si2 0.000000 0.110731 0.250000
Si Si3 0.477331 0.801420 0.097765
Si Si4 0.173470 0.146953 0.750967
Si Si5 0.718042 0.961893 0.232745
Si Si6 0.440059 0.692330 0.058515
O O1 0.660899 0.423282 0.888418
O O2 0.722229 0.509895 0.858004
O O3 0.724016 0.484126 0.105209
O O4 0.991430 0.461841 0.106020
O O5 0.946672 0.147031 0.330991
O O6 0.500000 0.818028 0.250000
O O7 0.625044 0.832241 0.098779
O O8 0.526249 0.745058 0.114257
O O9 0.254034 0.805775 0.964449
O O10 0.208669 0.092336 0.729359
O O11 0.115003 0.180584 0.607657
O O12 0.000000 0.148089 0.750000
#
# Coordination Sequence:
#
# PCOD9271777 Si02
#       6
#     8   4   8   8   8   8
#     4  10  23  38  66  87 125 160 217 260 317 365
#     4  12  20  34  62 100 110 156 206 272 290 364
#     4   9  19  37  62  87 117 162 206 256 301 370
#     4  11  23  37  60  88 126 165 203 252 317 375
#     4  10  22  44  59  90 123 173 204 261 317 384
#     4  10  20  36  61  91 119 154 210 255 305 365
#
# _framework density 20.202503
#
# number of rings (size 3 to 8) (size 9 to 14) (size 15 to 20)
#    0.000    1.818    2.727    1.091    6.364    2.909 
#    0.000    0.000    0.000    0.000    0.000    0.000 
#    0.000    0.000    0.000    0.000    0.000    0.000 
#
# Total GULP energy -122644.025702 kJ/mol
# GULP energy per Si atom -5574.728441 kJ/mol
# Density = 2.015652 g / cm^3
# Si number density = 20.202503 Si / 1000 Ang^3
#
#
#
# Elastic Constant Matrix: (Units=GPa)
#
#
# Indices 1 2 3 4 5 6 
#
# 1 94.3251 37.3264 35.8143 0.0000 -3.8740 0.0000
# 2 37.3264 79.9331 20.6647 0.0000 -7.3101 0.0000
# 3 35.8143 20.6647 71.9881 0.0000 -14.7745 0.0000
# 4 0.0000 0.0000 0.0000 39.3709 0.0000 6.4578
# 5 -3.8740 -7.3101 -14.7745 0.0000 18.0605 0.0000
# 6 0.0000 0.0000 0.0000 6.4578 0.0000 15.0436
#
#
#
# Elastic Compliance Matrix: (Units=1/GPa)
#
#
# Indices 1 2 3 4 5 6 
#
# 1 0.015336 -0.005801 -0.006936 0.000000 -0.004732 0.000000
# 2 -0.005801 0.015823 -0.000717 0.000000 0.004573 0.000000
# 3 -0.006936 -0.000717 0.020650 0.000000 0.015115 0.000000
# 4 0.000000 0.000000 0.000000 0.027323 0.000000 -0.011729
# 5 -0.004732 0.004573 0.015115 0.000000 0.068570 0.000000
# 6 0.000000 0.000000 0.000000 -0.011729 0.000000 0.071509
#
#
# Mechanical properties :
#
#
# Convention : Reuss Voigt Hill
#
# Bulk Modulus (GPa) = 40.16018 48.20632 44.18325
# Shear Modulus (GPa) = 19.65247 24.65771 22.15509
#
# Velocity S-wave (km/s) = 3.12232 3.49740 3.31516
# Velocity P-wave (km/s) = 5.73763 6.34211 6.04743
#
# Compressibility (1/GPa) = 0.02490029
#
# Stress axis : x y z
#
# Youngs Moduli (GPa) = 65.20402 63.19822 48.42670
#
# Poissons Ratio (x) = 0.36664 0.33588
# Poissons Ratio (y) = 0.37827 0.03474
# Poissons Ratio (z) = 0.45225 0.04534
#
# Static dielectric constant tensor:
#      x y z
#    x 1.747800 0.000000 0.021230 
#    y 0.000000 1.712770 0.000000 
#    z 0.021230 0.000000 1.772720 
# 
# From -- ./inp_files/81593.got.cif
#   From: 2010.05.17/outbox.cif.g08.bks.cpg/sg15_41_cif.got.tgz:81593.got - 2010.06.03 18:47:42.
