data_PCOD9271393
_publ_section_title
;
Structure prediction by ZEFSAII (Michael W. Deem and Ramdas Pophale) SiO2 
 PCOD9271393
Probable space group: C 2/C
;
_chemical_formula_sum "Si O2"
_cell_formula_units_Z 44
_cell_length_a 8.314908
_cell_length_b 29.745467
_cell_length_c 8.609040
_cell_angle_alpha 90.000000
_cell_angle_beta 91.367619
_cell_angle_gamma 90.000000
_cell_volume 2128.674385
_symmetry_space_group_name_H-M "C 2/C"
_symmetry_group_IT_number 15
_symmetry_cell_setting 'monoclinic'
loop_
_space_group_symop_operation_xyz
x,y,z
-x,y,1/2-z
-x,-y,-z
x,-y,1/2+z
1/2+x,1/2+y,z
1/2-x,1/2+y,1/2-z
1/2-x,1/2-y,-z
1/2+x,1/2-y,1/2+z
loop_
_atom_site_type_symbol
_atom_site_label
_atom_site_fract_x
_atom_site_fract_y
_atom_site_fract_z
Si Si1 0.827431 0.701324 0.686063
Si Si2 0.264994 0.300724 0.663111
Si Si3 0.953342 0.117151 0.076067
Si Si4 0.127788 0.563542 0.042371
Si Si5 0.000000 0.364516 0.750000
Si Si6 0.500000 0.010451 0.750000
Si Si7 0.500000 0.354820 0.250000
O O1 0.836278 0.705380 0.498640
O O2 0.803340 0.753097 0.738360
O O3 0.665143 0.673802 0.724328
O O4 0.000000 0.683817 0.750000
O O5 0.414709 0.330208 0.608088
O O6 0.156684 0.333536 0.764209
O O7 0.793553 0.089344 0.035990
O O8 0.000000 0.100111 0.250000
O O9 0.039299 0.117761 0.910310
O O10 0.008815 0.602093 0.103737
O O11 0.123979 0.523206 0.167486
O O12 0.078011 0.541405 0.881342
#
# Coordination Sequence:
#
# PCOD9271393 Si02
#       7
#     8   8   8   8   4   4   4
#     4  10  20  36  59  84 120 171 219 270 311 367
#     4   9  19  35  53  85 125 158 218 263 312 367
#     4  10  21  41  58  86 128 166 203 260 317 377
#     4   9  19  37  63  91 119 159 199 247 317 374
#     4   9  17  34  54  86 118 158 196 250 316 364
#     4   9  18  40  65  90 124 150 200 258 297 390
#     4  10  23  42  59  94 126 164 220 266 317 370
#
# _framework density 20.67014
#
# number of rings (size 3 to 8) (size 9 to 14) (size 15 to 20)
#    0.000    2.545    0.000    1.091    0.000    2.909 
#   27.818   10.909    0.000    0.000    2.364    0.000 
#    0.000    0.000    0.000    0.000    0.000    0.000 
#
# Total GULP energy -122477.709061 kJ/mol
# GULP energy per Si atom -5567.168594 kJ/mol
# Density = 2.062309 g / cm^3
# Si number density = 20.670140 Si / 1000 Ang^3
#
#
#
# Elastic Constant Matrix: (Units=GPa)
#
#
# Indices 1 2 3 4 5 6 
#
# 1 67.6770 21.1124 41.4400 0.0000 -7.0421 0.0000
# 2 21.1124 80.8598 43.3286 0.0000 -7.7026 0.0000
# 3 41.4400 43.3286 106.9058 0.0000 -18.8255 0.0000
# 4 0.0000 0.0000 0.0000 176.4672 0.0000 55.6537
# 5 -7.0421 -7.7026 -18.8255 0.0000 21.1494 0.0000
# 6 0.0000 0.0000 0.0000 55.6537 0.0000 18.9424
#
#
#
# Elastic Compliance Matrix: (Units=1/GPa)
#
#
# Indices 1 2 3 4 5 6 
#
# 1 0.019487 -0.001329 -0.007065 0.000000 -0.000284 0.000000
# 2 -0.001329 0.015889 -0.005910 0.000000 0.000084 0.000000
# 3 -0.007065 -0.005910 0.016240 0.000000 0.009951 0.000000
# 4 0.000000 0.000000 0.000000 0.077197 0.000000 -0.226810
# 5 -0.000284 0.000084 0.009951 0.000000 0.056076 0.000000
# 6 0.000000 0.000000 0.000000 -0.226810 0.000000 0.719169
#
#
# Mechanical properties :
#
#
# Convention : Reuss Voigt Hill
#
# Bulk Modulus (GPa) = 43.46314 51.91161 47.68737
# Shear Modulus (GPa) = 5.31725 53.28259 29.29992
#
# Velocity S-wave (km/s) = 1.60562 5.08267 3.76905
# Velocity P-wave (km/s) = 4.95076 7.72098 6.48550
#
# Compressibility (1/GPa) = 0.02300800
#
# Stress axis : x y z
#
# Youngs Moduli (GPa) = 51.31536 62.93729 61.57568
#
# Poissons Ratio (x) = 0.08366 0.43504
# Poissons Ratio (y) = 0.06821 0.36389
# Poissons Ratio (z) = 0.36255 0.37194
#
# Static dielectric constant tensor:
#      x y z
#    x 1.771470 0.000000 -0.002240 
#    y 0.000000 1.759320 0.000000 
#    z -0.002240 0.000000 1.848440 
# 
# From -- ./inp_files/25686.got.cif
#   From: 2010.05.17/outbox.cif.g08.bks.cpg/sg15_13_cif.got.tgz:25686.got - 2010.06.03 18:47:42.
