data_PCOD9271841
_publ_section_title
;
Structure prediction by ZEFSAII (Michael W. Deem and Ramdas Pophale) SiO2 
 PCOD9271841
Probable space group: C 2/C
;
_chemical_formula_sum "Si O2"
_cell_formula_units_Z 48
_cell_length_a 14.179171
_cell_length_b 19.397849
_cell_length_c 8.744647
_cell_angle_alpha 90.000000
_cell_angle_beta 77.285843
_cell_angle_gamma 90.000000
_cell_volume 2346.200661
_symmetry_space_group_name_H-M "C 2/C"
_symmetry_group_IT_number 15
_symmetry_cell_setting 'monoclinic'
loop_
_space_group_symop_operation_xyz
x,y,z
-x,y,1/2-z
-x,-y,-z
x,-y,1/2+z
1/2+x,1/2+y,z
1/2-x,1/2+y,1/2-z
1/2-x,1/2-y,-z
1/2+x,1/2-y,1/2+z
loop_
_atom_site_type_symbol
_atom_site_label
_atom_site_fract_x
_atom_site_fract_y
_atom_site_fract_z
Si Si1 0.201149 0.571989 0.949515
Si Si2 0.245282 0.279344 0.334487
Si Si3 0.664953 0.705055 0.113975
Si Si4 0.507145 0.891204 0.923823
Si Si5 0.949912 0.235304 0.621727
Si Si6 0.778347 0.425917 0.686245
O O1 0.216172 0.577282 0.129221
O O2 0.084768 0.575563 0.961765
O O3 0.243981 0.638652 0.849096
O O4 0.243520 0.502540 0.864098
O O5 0.250000 0.250000 0.500000
O O6 0.155020 0.249741 0.271592
O O7 0.343412 0.249998 0.226638
O O8 0.704786 0.631002 0.149291
O O9 0.750000 0.750000 0.000000
O O10 0.575158 0.700117 0.030398
O O11 0.500000 0.913806 0.750000
O O12 0.498058 0.808152 0.926858
O O13 0.616717 0.908590 0.927154
O O14 0.000000 0.199096 0.750000
#
# Coordination Sequence:
#
# PCOD9271841 Si02
#       6
#     8   8   8   8   8   8
#     4  11  24  34  61  89 128 163 198 247 304 369
#     4  11  19  38  58  87 118 158 203 252 293 355
#     4  10  20  36  62  82 118 160 212 242 300 358
#     4   9  17  36  53  86 126 159 189 235 295 370
#     4  10  20  36  63  85 116 158 203 251 304 346
#     4  11  21  38  55  89 125 165 201 239 306 372
#
# _framework density 20.458608999999999
#
# number of rings (size 3 to 8) (size 9 to 14) (size 15 to 20)
#    0.000    1.667    5.000    2.500    4.667    0.000 
#    0.000    5.000    0.000    1.000    0.000    0.000 
#    0.000    0.000    0.000    0.000    0.000    0.000 
#
# Total GULP energy -133744.573330 kJ/mol
# GULP energy per Si atom -5572.690555 kJ/mol
# Density = 2.041204 g / cm^3
# Si number density = 20.458609 Si / 1000 Ang^3
#
#
#
# Elastic Constant Matrix: (Units=GPa)
#
#
# Indices 1 2 3 4 5 6 
#
# 1 42.7186 14.7986 32.2723 0.0000 28.9994 0.0000
# 2 14.7986 147.7988 34.5408 0.0000 16.1007 0.0000
# 3 32.2723 34.5408 86.5963 0.0000 35.9489 0.0000
# 4 0.0000 0.0000 0.0000 24.5515 0.0000 1.5255
# 5 28.9994 16.1007 35.9489 0.0000 45.2376 0.0000
# 6 0.0000 0.0000 0.0000 1.5255 0.0000 29.2526
#
#
#
# Elastic Compliance Matrix: (Units=1/GPa)
#
#
# Indices 1 2 3 4 5 6 
#
# 1 0.044143 -0.000336 -0.006893 0.000000 -0.022700 0.000000
# 2 -0.000336 0.007470 -0.002746 0.000000 -0.000261 0.000000
# 3 -0.006893 -0.002746 0.019358 0.000000 -0.009987 0.000000
# 4 0.000000 0.000000 0.000000 0.040863 0.000000 -0.002131
# 5 -0.022700 -0.000261 -0.009987 0.000000 0.044687 0.000000
# 6 0.000000 0.000000 0.000000 -0.002131 0.000000 0.034296
#
#
# Mechanical properties :
#
#
# Convention : Reuss Voigt Hill
#
# Bulk Modulus (GPa) = 19.60006 48.92636 34.26321
# Shear Modulus (GPa) = 21.95158 32.84182 27.39670
#
# Velocity S-wave (km/s) = 3.27918 4.01094 3.66338
# Velocity P-wave (km/s) = 4.89270 6.73921 5.88878
#
# Compressibility (1/GPa) = 0.05102026
#
# Stress axis : x y z
#
# Youngs Moduli (GPa) = 22.65357 133.87324 51.65834
#
# Poissons Ratio (x) = 0.04498 0.35610
# Poissons Ratio (y) = 0.00761 0.14185
# Poissons Ratio (z) = 0.15616 0.36759
#
# Static dielectric constant tensor:
#      x y z
#    x 1.795110 0.000000 0.041600 
#    y 0.000000 1.720780 0.000000 
#    z 0.041600 0.000000 1.820780 
# 
# From -- ./inp_files/39650.got.cif
#   From: 2010.05.17/outbox.cif.g08.bks.cpg/sg15_20_cif.got.tgz:39650.got - 2010.06.03 18:47:42.
