data_PCOD9271670
_publ_section_title
;
Structure prediction by ZEFSAII (Michael W. Deem and Ramdas Pophale) SiO2 
 PCOD9271670
Probable space group: C 2/C
;
_chemical_formula_sum "Si O2"
_cell_formula_units_Z 40
_cell_length_a 12.189164
_cell_length_b 14.589400
_cell_length_c 11.936507
_cell_angle_alpha 90.000000
_cell_angle_beta 59.186197
_cell_angle_gamma 90.000000
_cell_volume 1823.052228
_symmetry_space_group_name_H-M "C 2/C"
_symmetry_group_IT_number 15
_symmetry_cell_setting 'monoclinic'
loop_
_space_group_symop_operation_xyz
x,y,z
-x,y,1/2-z
-x,-y,-z
x,-y,1/2+z
1/2+x,1/2+y,z
1/2-x,1/2+y,1/2-z
1/2-x,1/2-y,-z
1/2+x,1/2-y,1/2+z
loop_
_atom_site_type_symbol
_atom_site_label
_atom_site_fract_x
_atom_site_fract_y
_atom_site_fract_z
Si Si1 0.924318 0.156508 0.615345
Si Si2 0.620233 0.355766 0.624563
Si Si3 0.252387 0.971330 0.143120
Si Si4 0.668668 0.849383 0.828021
Si Si5 0.284255 0.649798 0.025857
O O1 0.901292 0.140760 0.495533
O O2 0.812678 0.102917 0.740613
O O3 0.926925 0.265838 0.640344
O O4 0.067170 0.125516 0.569948
O O5 0.500000 0.311595 0.750000
O O6 0.641942 0.457078 0.664861
O O7 0.750622 0.313859 0.606053
O O8 0.357697 0.043151 0.134974
O O9 0.295438 0.920390 0.008373
O O10 0.755218 0.853774 0.671927
O O11 0.250000 0.750000 0.000000
#
# Coordination Sequence:
#
# PCOD9271670 Si02
#       5
#     8   8   8   8   8
#     4  12  21  41  64  86 131 164 197 258 312 355
#     4  10  20  36  60  92 119 157 205 250 301 361
#     4  10  23  36  62  95 120 156 204 255 301 363
#     4  10  24  38  61  95 122 161 206 251 305 369
#     4  12  23  39  63  92 123 159 211 251 302 365
#
# _framework density 21.941226
#
# number of rings (size 3 to 8) (size 9 to 14) (size 15 to 20)
#    1.200    0.000    4.000    3.600    0.000    2.400 
#    0.000    1.000    0.000    0.000    0.000    0.000 
#    0.000    0.000    0.000    0.000    0.000    0.000 
#
# Total GULP energy -111371.298811 kJ/mol
# GULP energy per Si atom -5568.564941 kJ/mol
# Density = 2.189129 g / cm^3
# Si number density = 21.941226 Si / 1000 Ang^3
#
#
#
# Elastic Constant Matrix: (Units=GPa)
#
#
# Indices 1 2 3 4 5 6 
#
# 1 25.7046 12.6458 13.0165 0.0000 9.2856 0.0000
# 2 12.6458 91.7420 19.0336 0.0000 15.3691 0.0000
# 3 13.0165 19.0336 83.1975 0.0000 27.9808 0.0000
# 4 0.0000 0.0000 0.0000 -29.7714 0.0000 10.5295
# 5 9.2856 15.3691 27.9808 0.0000 19.6988 0.0000
# 6 0.0000 0.0000 0.0000 10.5295 0.0000 33.4873
#
#
#
# Elastic Compliance Matrix: (Units=1/GPa)
#
#
# Indices 1 2 3 4 5 6 
#
# 1 0.047706 -0.003232 -0.000018 0.000000 -0.019941 0.000000
# 2 -0.003232 0.012786 0.000810 0.000000 -0.009604 0.000000
# 3 -0.000018 0.000810 0.023066 0.000000 -0.033387 0.000000
# 4 0.000000 0.000000 0.000000 -0.030228 0.000000 0.009505
# 5 -0.019941 -0.009604 -0.033387 0.000000 0.115081 0.000000
# 6 0.000000 0.000000 0.000000 0.009505 0.000000 0.026874
#
#
# Mechanical properties :
#
#
# Convention : Reuss Voigt Hill
#
# Bulk Modulus (GPa) = 12.70979 32.22620 22.46800
# Shear Modulus (GPa) = 22.08582 15.07949 18.58265
#
# Velocity S-wave (km/s) = 3.17612 2.62442 2.91336
# Velocity P-wave (km/s) = 4.38812 4.88905 4.64534
#
# Compressibility (1/GPa) = 0.07867951
#
# Stress axis : x y z
#
# Youngs Moduli (GPa) = 20.96171 78.20874 43.35455
#
# Poissons Ratio (x) = 0.25273 0.00078
# Poissons Ratio (y) = 0.06774 -0.03513
# Poissons Ratio (z) = 0.00038 -0.06337
#
# Static dielectric constant tensor:
#      x y z
#    x 1.844570 0.000000 0.006900 
#    y 0.000000 1.871460 0.000000 
#    z 0.006900 0.000000 1.784350 
# 
# From -- ./inp_files/95579.got.cif
#   From: 2010.05.17/outbox.cif.g08.bks.cpg/sg15_48_cif.got.tgz:95579.got - 2010.06.03 18:47:42.
