data_PCOD9271956
_publ_section_title
;
Structure prediction by ZEFSAII (Michael W. Deem and Ramdas Pophale) SiO2 
 PCOD9271956
Probable space group: C 2/C
;
_chemical_formula_sum "Si O2"
_cell_formula_units_Z 56
_cell_length_a 27.381987
_cell_length_b 14.921077
_cell_length_c 17.136595
_cell_angle_alpha 90.000000
_cell_angle_beta 159.274930
_cell_angle_gamma 90.000000
_cell_volume 2477.711496
_symmetry_space_group_name_H-M "C 2/C"
_symmetry_group_IT_number 15
_symmetry_cell_setting 'monoclinic'
loop_
_space_group_symop_operation_xyz
x,y,z
-x,y,1/2-z
-x,-y,-z
x,-y,1/2+z
1/2+x,1/2+y,z
1/2-x,1/2+y,1/2-z
1/2-x,1/2-y,-z
1/2+x,1/2-y,1/2+z
loop_
_atom_site_type_symbol
_atom_site_label
_atom_site_fract_x
_atom_site_fract_y
_atom_site_fract_z
Si Si1 0.623622 0.103811 0.750622
Si Si2 0.326285 0.944118 0.792628
Si Si3 0.651716 0.212256 0.287942
Si Si4 0.137681 0.882965 0.155645
Si Si5 0.948308 0.886854 0.086180
Si Si6 0.851152 0.019286 0.199432
Si Si7 0.356676 0.204758 0.866480
O O1 0.464356 0.093578 0.540657
O O2 0.657167 0.192491 0.748601
O O3 0.637230 0.030831 0.701944
O O4 0.731607 0.073355 0.976885
O O5 0.290003 0.864928 0.678465
O O6 0.176790 0.958488 0.605961
O O7 0.750000 0.250000 0.500000
O O8 0.623093 0.295715 0.188926
O O9 0.512407 0.169291 0.115161
O O10 0.198681 0.965880 0.298052
O O11 0.237286 0.846531 0.235400
O O12 0.981115 0.914671 0.905498
O O13 0.000000 0.859621 0.250000
O O14 0.079287 0.938386 0.246030
O O15 0.881490 0.804697 0.937598
#
# Coordination Sequence:
#
# PCOD9271956 Si02
#       7
#     8   8   8   8   8   8   8
#     4  10  22  43  64  95 132 185 219 276 346 411
#     4  10  20  36  62  93 130 166 224 276 329 402
#     4  11  21  39  63  96 134 171 217 281 352 394
#     4  11  24  40  67 103 134 168 240 289 330 413
#     4  12  21  38  69 102 131 183 230 283 343 407
#     4  11  24  44  70  97 135 188 229 281 348 423
#     4  11  24  38  64 102 134 172 226 288 331 407
#
# _framework density 22.601503000000001
#
# number of rings (size 3 to 8) (size 9 to 14) (size 15 to 20)
#    0.000    1.143    4.286    2.571    0.000    0.000 
#    0.000    4.286    3.143    2.571    0.000    0.000 
#    0.000    0.000    0.000    0.000    0.000    0.000 
#
# Total GULP energy -156069.339734 kJ/mol
# GULP energy per Si atom -5573.904991 kJ/mol
# Density = 2.255006 g / cm^3
# Si number density = 22.601503 Si / 1000 Ang^3
#
#
#
# Elastic Constant Matrix: (Units=GPa)
#
#
# Indices 1 2 3 4 5 6 
#
# 1 38.8462 0.0319 19.3030 0.0000 7.3087 0.0000
# 2 0.0319 77.7090 30.4739 0.0000 -17.9353 0.0000
# 3 19.3030 30.4739 132.4014 0.0000 3.4488 0.0000
# 4 0.0000 0.0000 0.0000 45.5442 0.0000 -4.5277
# 5 7.3087 -17.9353 3.4488 0.0000 31.7646 0.0000
# 6 0.0000 0.0000 0.0000 -4.5277 0.0000 36.5014
#
#
#
# Elastic Compliance Matrix: (Units=1/GPa)
#
#
# Indices 1 2 3 4 5 6 
#
# 1 0.028929 0.000188 -0.004102 0.000000 -0.006105 0.000000
# 2 0.000188 0.016774 -0.004145 0.000000 0.009878 0.000000
# 3 -0.004102 -0.004145 0.009167 0.000000 -0.002392 0.000000
# 4 0.000000 0.000000 0.000000 0.022231 0.000000 0.002758
# 5 -0.006105 0.009878 -0.002392 0.000000 0.038723 0.000000
# 6 0.000000 0.000000 0.000000 0.002758 0.000000 0.027738
#
#
# Mechanical properties :
#
#
# Convention : Reuss Voigt Hill
#
# Bulk Modulus (GPa) = 25.80563 38.73047 32.26805
# Shear Modulus (GPa) = 28.96887 36.03857 32.50372
#
# Velocity S-wave (km/s) = 3.58400 3.99748 3.79637
# Velocity P-wave (km/s) = 5.34502 6.20321 5.79004
#
# Compressibility (1/GPa) = 0.03875123
#
# Stress axis : x y z
#
# Youngs Moduli (GPa) = 34.56716 59.61629 109.08428
#
# Poissons Ratio (x) = -0.01119 0.44744
# Poissons Ratio (y) = -0.00649 0.45220
# Poissons Ratio (z) = 0.14179 0.24713
#
# Static dielectric constant tensor:
#      x y z
#    x 2.008230 0.000000 0.072330 
#    y 0.000000 1.941800 0.000000 
#    z 0.072330 0.000000 1.871190 
# 
# From -- ./inp_files/225720.got.cif
#   From: 2010.05.17/outbox.cif.g08.bks.cpg/sg15_113_cif.got.tgz:225720.got - 2010.06.03 18:47:42.
