data_PCOD9271159
_publ_section_title
;
Structure prediction by ZEFSAII (Michael W. Deem and Ramdas Pophale) SiO2 
 PCOD9271159
Probable space group: C 2/C
;
_chemical_formula_sum "Si O2"
_cell_formula_units_Z 56
_cell_length_a 14.314970
_cell_length_b 22.015249
_cell_length_c 14.364904
_cell_angle_alpha 90.000000
_cell_angle_beta 39.490455
_cell_angle_gamma 90.000000
_cell_volume 2878.985749
_symmetry_space_group_name_H-M "C 2/C"
_symmetry_group_IT_number 15
_symmetry_cell_setting 'monoclinic'
loop_
_space_group_symop_operation_xyz
x,y,z
-x,y,1/2-z
-x,-y,-z
x,-y,1/2+z
1/2+x,1/2+y,z
1/2-x,1/2+y,1/2-z
1/2-x,1/2-y,-z
1/2+x,1/2-y,1/2+z
loop_
_atom_site_type_symbol
_atom_site_label
_atom_site_fract_x
_atom_site_fract_y
_atom_site_fract_z
Si Si1 0.852514 0.332628 0.221032
Si Si2 0.500000 0.248745 0.250000
Si Si3 0.261010 0.541491 0.925055
Si Si4 0.000000 0.760163 0.750000
Si Si5 0.193655 0.681757 0.952210
Si Si6 0.858782 0.868818 0.968539
Si Si7 0.483011 0.495179 0.902216
Si Si8 0.420399 0.931600 0.407744
O O1 0.838877 0.305397 0.130372
O O2 0.703172 0.359036 0.379847
O O3 0.907019 0.284084 0.255308
O O4 0.968700 0.387562 0.125090
O O5 0.644727 0.289267 0.156763
O O6 0.437217 0.208157 0.383239
O O7 0.209724 0.610226 0.959240
O O8 0.336596 0.524172 0.966880
O O9 0.384571 0.527931 0.752749
O O10 0.132180 0.493332 0.005855
O O11 0.912431 0.806091 0.884073
O O12 0.975631 0.923549 0.881428
O O13 0.723289 0.892962 0.010485
O O14 0.500000 0.500000 0.000000
O O15 0.500000 0.947535 0.250000
#
# Coordination Sequence:
#
# PCOD9271159 Si02
#       8
#     8   4   8   4   8   8   8   8
#     4  11  23  38  62  91 128 170 205 259 323 389
#     4  10  26  50  62  90 126 164 220 284 308 386
#     4  10  21  39  64  90 126 160 212 268 317 389
#     4  12  22  36  60  92 134 170 206 256 312 392
#     4  11  25  45  70  89 125 170 221 269 331 381
#     4  10  20  36  57  90 132 166 208 255 315 381
#     4  10  20  39  63  94 124 169 209 267 326 377
#     4   9  19  37  57  89 129 155 195 261 316 381
#
# _framework density 19.451294000000001
#
# number of rings (size 3 to 8) (size 9 to 14) (size 15 to 20)
#    0.000    1.714    2.143    3.857    3.000    0.571 
#    5.143    0.000    0.000    0.000    0.000    0.000 
#    0.000    0.000    0.000    0.000    0.000    0.000 
#
# Total GULP energy -156266.037351 kJ/mol
# GULP energy per Si atom -5580.929905 kJ/mol
# Density = 1.940702 g / cm^3
# Si number density = 19.451294 Si / 1000 Ang^3
#
#
#
# Elastic Constant Matrix: (Units=GPa)
#
#
# Indices 1 2 3 4 5 6 
#
# 1 57.4220 12.5051 27.0813 -0.0004 27.9950 0.0001
# 2 12.5051 116.1584 31.7866 -0.0045 -0.3633 0.0028
# 3 27.0813 31.7866 79.3920 -0.0166 0.8753 0.0116
# 4 -0.0004 -0.0045 -0.0166 -27.1587 0.0059 52.9317
# 5 27.9950 -0.3633 0.8753 0.0059 29.0629 -0.0036
# 6 0.0001 0.0028 0.0116 52.9317 -0.0036 -39.7564
#
#
#
# Elastic Compliance Matrix: (Units=1/GPa)
#
#
# Indices 1 2 3 4 5 6 
#
# 1 0.046023 -0.001043 -0.014797 0.000001 -0.043899 0.000001
# 2 -0.001043 0.009693 -0.003539 0.000000 0.001232 0.000000
# 3 -0.014797 -0.003539 0.018910 0.000000 0.013640 0.000004
# 4 0.000001 0.000000 0.000000 0.023087 -0.000002 0.030738
# 5 -0.043899 0.001232 0.013640 -0.000002 0.076299 -0.000005
# 6 0.000001 0.000000 0.000004 0.030738 -0.000005 0.015771
#
#
# Mechanical properties :
#
#
# Convention : Reuss Voigt Hill
#
# Bulk Modulus (GPa) = 27.87985 43.96871 35.92428
# Shear Modulus (GPa) = 20.79025 4.53616 12.66321
#
# Velocity S-wave (km/s) = 3.27285 1.52877 2.55428
# Velocity P-wave (km/s) = 5.35223 5.07639 5.21613
#
# Compressibility (1/GPa) = 0.03586819
#
# Stress axis : x y z
#
# Youngs Moduli (GPa) = 21.72830 103.16227 52.88273
#
# Poissons Ratio (x) = 0.10756 0.78253
# Poissons Ratio (y) = 0.02266 0.18715
# Poissons Ratio (z) = 0.32152 0.36509
#
# Static dielectric constant tensor:
#      x y z
#    x 1.702520 0.000000 -0.015670 
#    y 0.000000 1.684330 0.000000 
#    z -0.015670 0.000000 1.699320 
# 
# From -- ./inp_files/156635.got.cif
#   From: 2010.05.17/outbox.cif.g08.bks.cpg/sg15_79_cif.got.tgz:156635.got - 2010.06.03 18:47:42.
