data_PCOD9271331
_publ_section_title
;
Structure prediction by ZEFSAII (Michael W. Deem and Ramdas Pophale) SiO2 
 PCOD9271331
Probable space group: C 2/C
;
_chemical_formula_sum "Si O2"
_cell_formula_units_Z 48
_cell_length_a 16.501003
_cell_length_b 9.730750
_cell_length_c 14.199208
_cell_angle_alpha 90.000000
_cell_angle_beta 92.803698
_cell_angle_gamma 90.000000
_cell_volume 2277.197035
_symmetry_space_group_name_H-M "C 2/C"
_symmetry_group_IT_number 15
_symmetry_cell_setting 'monoclinic'
loop_
_space_group_symop_operation_xyz
x,y,z
-x,y,1/2-z
-x,-y,-z
x,-y,1/2+z
1/2+x,1/2+y,z
1/2-x,1/2+y,1/2-z
1/2-x,1/2-y,-z
1/2+x,1/2-y,1/2+z
loop_
_atom_site_type_symbol
_atom_site_label
_atom_site_fract_x
_atom_site_fract_y
_atom_site_fract_z
Si Si1 0.407640 0.691339 0.016310
Si Si2 0.778940 0.518494 0.728120
Si Si3 0.865572 0.471578 0.908847
Si Si4 0.352103 0.311408 0.727714
Si Si5 0.719462 0.453770 0.525697
Si Si6 0.081245 0.236608 0.067776
O O1 0.390250 0.703044 0.127181
O O2 0.503809 0.669381 0.014622
O O3 0.386553 0.831464 0.961132
O O4 0.348013 0.574438 0.974496
O O5 0.852253 0.460178 0.796035
O O6 0.696182 0.453185 0.763047
O O7 0.789505 0.682808 0.733393
O O8 0.776728 0.469702 0.620202
O O9 0.923918 0.598527 0.936154
O O10 0.777470 0.521083 0.941411
O O11 0.411107 0.300001 0.820872
O O12 0.665016 0.317484 0.527037
#
# Coordination Sequence:
#
# PCOD9271331 Si02
#       6
#     8   8   8   8   8   8
#     4  12  21  39  61  88 115 159 194 236 294 348
#     4  10  20  36  58  92 110 146 200 248 276 332
#     4  11  21  38  63  85 115 156 198 239 282 349
#     4  10  20  37  59  85 118 151 195 238 287 344
#     4  11  21  38  63  85 115 156 198 239 282 349
#     4  10  24  37  57  88 126 150 187 245 296 339
#
# _framework density 21.078544000000001
#
# number of rings (size 3 to 8) (size 9 to 14) (size 15 to 20)
#    0.000    1.333    3.333    3.500    0.000    0.000 
#    0.000    0.000    0.000    2.000    0.000    0.000 
#    0.000    0.000    0.000    0.000    0.000    0.000 
#
# Total GULP energy -134001.721526 kJ/mol
# GULP energy per Si atom -5583.405064 kJ/mol
# Density = 2.103057 g / cm^3
# Si number density = 21.078544 Si / 1000 Ang^3
#
#
#
# Elastic Constant Matrix: (Units=GPa)
#
#
# Indices 1 2 3 4 5 6 
#
# 1 47.7892 16.0948 1.2265 0.0000 5.0922 0.0000
# 2 16.0948 67.6914 0.7635 0.0000 12.2757 0.0000
# 3 1.2265 0.7635 63.5384 0.0000 3.4626 0.0000
# 4 0.0000 0.0000 0.0000 22.7878 0.0000 -0.8449
# 5 5.0922 12.2757 3.4626 0.0000 12.4571 0.0000
# 6 0.0000 0.0000 0.0000 -0.8449 0.0000 14.5481
#
#
#
# Elastic Compliance Matrix: (Units=1/GPa)
#
#
# Indices 1 2 3 4 5 6 
#
# 1 0.022989 -0.004586 -0.000125 0.000000 -0.004843 0.000000
# 2 -0.004586 0.018939 0.000788 0.000000 -0.017007 0.000000
# 3 -0.000125 0.000788 0.016014 0.000000 -0.005176 0.000000
# 4 0.000000 0.000000 0.000000 0.043978 0.000000 0.002554
# 5 -0.004843 -0.017007 -0.005176 0.000000 0.100453 0.000000
# 6 0.000000 0.000000 0.000000 0.002554 0.000000 0.068886
#
#
# Mechanical properties :
#
#
# Convention : Reuss Voigt Hill
#
# Bulk Modulus (GPa) = 19.96213 23.90986 21.93599
# Shear Modulus (GPa) = 16.90312 20.68754 18.79533
#
# Velocity S-wave (km/s) = 2.83488 3.13621 2.98934
# Velocity P-wave (km/s) = 4.49514 4.94795 4.72697
#
# Compressibility (1/GPa) = 0.05009486
#
# Stress axis : x y z
#
# Youngs Moduli (GPa) = 43.49879 52.80189 62.44705
#
# Poissons Ratio (x) = 0.24217 0.00779
# Poissons Ratio (y) = 0.19950 -0.04919
# Poissons Ratio (z) = 0.00543 -0.04160
#
# Static dielectric constant tensor:
#      x y z
#    x 1.737110 0.000000 0.011660 
#    y 0.000000 1.776180 0.000000 
#    z 0.011660 0.000000 1.766200 
# 
# From -- ./inp_files/159734.got.cif
#   From: 2010.05.17/outbox.cif.g08.bks.cpg/sg15_80_cif.got.tgz:159734.got - 2010.06.03 18:47:42.
