data_PCOD9271630
_publ_section_title
;
Structure prediction by ZEFSAII (Michael W. Deem and Ramdas Pophale) SiO2 
 PCOD9271630
Probable space group: C 2/C
;
_chemical_formula_sum "Si O2"
_cell_formula_units_Z 44
_cell_length_a 8.787018
_cell_length_b 22.662862
_cell_length_c 13.402244
_cell_angle_alpha 90.000000
_cell_angle_beta 49.234300
_cell_angle_gamma 90.000000
_cell_volume 2021.394663
_symmetry_space_group_name_H-M "C 2/C"
_symmetry_group_IT_number 15
_symmetry_cell_setting 'monoclinic'
loop_
_space_group_symop_operation_xyz
x,y,z
-x,y,1/2-z
-x,-y,-z
x,-y,1/2+z
1/2+x,1/2+y,z
1/2-x,1/2+y,1/2-z
1/2-x,1/2-y,-z
1/2+x,1/2-y,1/2+z
loop_
_atom_site_type_symbol
_atom_site_label
_atom_site_fract_x
_atom_site_fract_y
_atom_site_fract_z
Si Si1 0.830792 0.819068 0.733365
Si Si2 0.795632 0.977604 0.453163
Si Si3 0.866916 0.058908 0.126940
Si Si4 0.880758 0.463291 0.172194
Si Si5 0.000000 0.640794 0.750000
Si Si6 0.360839 0.727979 0.551683
O O1 0.780753 0.886102 0.724354
O O2 0.655048 0.778906 0.856950
O O3 0.000000 0.820403 0.750000
O O4 0.930164 0.793148 0.588052
O O5 0.873248 0.932751 0.505021
O O6 0.780526 0.955865 0.346630
O O7 0.564063 0.993954 0.568869
O O8 0.924457 0.037568 0.413436
O O9 0.735172 0.999673 0.193614
O O10 0.971238 0.401985 0.168486
O O11 0.205179 0.677803 0.655221
O O12 0.250000 0.750000 0.500000
#
# Coordination Sequence:
#
# PCOD9271630 Si02
#       6
#     8   8   8   8   4   8
#     4  10  20  36  60  89 123 157 216 261 309 363
#     4  10  22  37  57  93 125 160 210 242 330 378
#     4  11  21  39  61  91 128 164 203 265 316 383
#     4  11  22  38  58  94 125 165 199 258 323 376
#     4  12  20  36  62  88 134 154 216 260 308 380
#     4  10  20  37  56  93 116 165 213 262 304 358
#
# _framework density 21.767147999999999
#
# number of rings (size 3 to 8) (size 9 to 14) (size 15 to 20)
#    0.000    1.455    4.545    2.727    2.545    4.364 
#    0.000    0.000    0.000    1.091    4.727    0.000 
#    0.000    0.000    0.000    0.000    0.000    0.000 
#
# Total GULP energy -122547.854998 kJ/mol
# GULP energy per Si atom -5570.357045 kJ/mol
# Density = 2.171761 g / cm^3
# Si number density = 21.767148 Si / 1000 Ang^3
#
#
#
# Elastic Constant Matrix: (Units=GPa)
#
#
# Indices 1 2 3 4 5 6 
#
# 1 88.6535 11.3844 7.6128 0.0000 24.6915 0.0000
# 2 11.3844 82.3548 26.7034 0.0000 17.9315 0.0000
# 3 7.6128 26.7034 75.5909 0.0000 9.7451 0.0000
# 4 0.0000 0.0000 0.0000 20.0826 0.0000 14.1243
# 5 24.6915 17.9315 9.7451 0.0000 38.8571 0.0000
# 6 0.0000 0.0000 0.0000 14.1243 0.0000 14.6762
#
#
#
# Elastic Compliance Matrix: (Units=1/GPa)
#
#
# Indices 1 2 3 4 5 6 
#
# 1 0.013711 0.000090 -0.000294 0.000000 -0.008681 0.000000
# 2 0.000090 0.014851 -0.004510 0.000000 -0.005779 0.000000
# 3 -0.000294 -0.004510 0.015046 0.000000 -0.001506 0.000000
# 4 0.000000 0.000000 0.000000 0.154095 0.000000 -0.148301
# 5 -0.008681 -0.005779 -0.001506 0.000000 0.034296 0.000000
# 6 0.000000 0.000000 0.000000 -0.148301 0.000000 0.210861
#
#
# Mechanical properties :
#
#
# Convention : Reuss Voigt Hill
#
# Bulk Modulus (GPa) = 29.25656 37.55560 33.40608
# Shear Modulus (GPa) = 10.78325 28.11644 19.44985
#
# Velocity S-wave (km/s) = 2.22815 3.59791 2.99246
# Velocity P-wave (km/s) = 4.48212 5.87799 5.22686
#
# Compressibility (1/GPa) = 0.03418037
#
# Stress axis : x y z
#
# Youngs Moduli (GPa) = 72.93306 67.33570 66.46248
#
# Poissons Ratio (x) = -0.00605 0.01951
# Poissons Ratio (y) = -0.00655 0.29976
# Poissons Ratio (z) = 0.02141 0.30370
#
# Static dielectric constant tensor:
#      x y z
#    x 1.799530 0.000000 0.052840 
#    y 0.000000 1.839190 0.000000 
#    z 0.052840 0.000000 1.940710 
# 
# From -- ./inp_files/137157.got.cif
#   From: 2010.05.17/outbox.cif.g08.bks.cpg/sg15_69_cif.got.tgz:137157.got - 2010.06.03 18:47:42.
