data_PCOD9271036
_publ_section_title
;
Structure prediction by ZEFSAII (Michael W. Deem and Ramdas Pophale) SiO2 
 PCOD9271036
Probable space group: C 2/C
;
_chemical_formula_sum "Si O2"
_cell_formula_units_Z 52
_cell_length_a 13.542131
_cell_length_b 13.528934
_cell_length_c 11.914671
_cell_angle_alpha 90.000000
_cell_angle_beta 80.529474
_cell_angle_gamma 90.000000
_cell_volume 2153.141954
_symmetry_space_group_name_H-M "C 2/C"
_symmetry_group_IT_number 15
_symmetry_cell_setting 'monoclinic'
loop_
_space_group_symop_operation_xyz
x,y,z
-x,y,1/2-z
-x,-y,-z
x,-y,1/2+z
1/2+x,1/2+y,z
1/2-x,1/2+y,1/2-z
1/2-x,1/2-y,-z
1/2+x,1/2-y,1/2+z
loop_
_atom_site_type_symbol
_atom_site_label
_atom_site_fract_x
_atom_site_fract_y
_atom_site_fract_z
Si Si1 0.287194 0.079556 0.794417
Si Si2 0.196483 0.193428 0.273199
Si Si3 0.000000 0.591290 0.750000
Si Si4 0.661402 0.614770 0.029336
Si Si5 0.596567 0.205933 0.157438
Si Si6 0.517957 0.246391 0.941793
Si Si7 0.604985 0.556692 0.676896
O O1 0.299711 0.187286 0.736369
O O2 0.396539 0.032645 0.760775
O O3 0.195346 0.031280 0.745423
O O4 0.251638 0.100557 0.927108
O O5 0.190230 0.157512 0.146139
O O6 0.297921 0.164380 0.318469
O O7 0.095052 0.179973 0.363618
O O8 0.015779 0.664880 0.641879
O O9 0.576638 0.689265 0.998143
O O10 0.619135 0.506272 0.062657
O O11 0.500000 0.180064 0.250000
O O12 0.604959 0.326063 0.159791
O O13 0.572362 0.188719 0.031983
O O14 0.500000 0.528189 0.750000
#
# Coordination Sequence:
#
# PCOD9271036 Si02
#       7
#     8   8   4   8   8   8   8
#     4  10  22  39  60  85 118 161 198 250 298 356
#     4  10  20  36  56  89 120 152 202 242 299 354
#     4  10  22  40  62  86 112 160 214 246 296 350
#     4  12  21  35  64  91 117 156 205 247 295 366
#     4  10  22  36  57  86 126 163 194 244 304 356
#     4  11  19  35  58  90 117 156 195 251 297 345
#     4  10  22  38  54  90 126 153 193 244 315 359
#
# _framework density 24.150753000000002
#
# number of rings (size 3 to 8) (size 9 to 14) (size 15 to 20)
#    0.000    1.538    3.077    4.615    2.154    3.692 
#    0.000    0.769    1.692    0.000    0.000    0.000 
#    0.000    0.000    0.000    0.000    0.000    0.000 
#
# Total GULP energy -145495.877360 kJ/mol
# GULP energy per Si atom -5595.995283 kJ/mol
# Density = 2.409578 g / cm^3
# Si number density = 24.150753 Si / 1000 Ang^3
#
#
#
# Elastic Constant Matrix: (Units=GPa)
#
#
# Indices 1 2 3 4 5 6 
#
# 1 149.0269 20.7289 18.3771 0.0000 -2.1170 0.0000
# 2 20.7289 50.6648 -7.3701 0.0000 -5.9990 0.0000
# 3 18.3771 -7.3701 69.2069 0.0000 1.9823 0.0000
# 4 0.0000 0.0000 0.0000 10.6240 0.0000 -3.1539
# 5 -2.1170 -5.9990 1.9823 0.0000 51.4018 0.0000
# 6 0.0000 0.0000 0.0000 -3.1539 0.0000 15.0805
#
#
#
# Elastic Compliance Matrix: (Units=1/GPa)
#
#
# Indices 1 2 3 4 5 6 
#
# 1 0.007472 -0.003398 -0.002346 0.000000 0.000002 0.000000
# 2 -0.003398 0.021859 0.003165 0.000000 0.002289 0.000000
# 3 -0.002346 0.003165 0.015419 0.000000 -0.000322 0.000000
# 4 0.000000 0.000000 0.000000 0.100357 0.000000 0.020988
# 5 0.000002 0.002289 -0.000322 0.000000 0.019734 0.000000
# 6 0.000000 0.000000 0.000000 0.020988 0.000000 0.070700
#
#
# Mechanical properties :
#
#
# Convention : Reuss Voigt Hill
#
# Bulk Modulus (GPa) = 25.25837 36.93006 31.09421
# Shear Modulus (GPa) = 19.69294 31.23211 25.46253
#
# Velocity S-wave (km/s) = 2.85865 3.60003 3.25055
# Velocity P-wave (km/s) = 4.62354 5.71008 5.19529
#
# Compressibility (1/GPa) = 0.03959084
#
# Stress axis : x y z
#
# Youngs Moduli (GPa) = 133.82918 45.74703 64.85658
#
# Poissons Ratio (x) = 0.15546 0.15216
# Poissons Ratio (y) = 0.45479 -0.20525
# Poissons Ratio (z) = 0.31398 -0.14478
#
# Static dielectric constant tensor:
#      x y z
#    x 1.974600 0.000000 0.024090 
#    y 0.000000 1.934040 0.000000 
#    z 0.024090 0.000000 1.900230 
# 
# From -- ./inp_files/97773.got.cif
#   From: 2010.05.17/outbox.cif.g08.bks.cpg/sg15_49_cif.got.tgz:97773.got - 2010.06.03 18:47:42.
