data_PCOD9271907
_publ_section_title
;
Structure prediction by ZEFSAII (Michael W. Deem and Ramdas Pophale) SiO2 
 PCOD9271907
Probable space group: C 2/C
;
_chemical_formula_sum "Si O2"
_cell_formula_units_Z 60
_cell_length_a 21.748232
_cell_length_b 20.217157
_cell_length_c 9.294027
_cell_angle_alpha 90.000000
_cell_angle_beta 41.115939
_cell_angle_gamma 90.000000
_cell_volume 2687.198643
_symmetry_space_group_name_H-M "C 2/C"
_symmetry_group_IT_number 15
_symmetry_cell_setting 'monoclinic'
loop_
_space_group_symop_operation_xyz
x,y,z
-x,y,1/2-z
-x,-y,-z
x,-y,1/2+z
1/2+x,1/2+y,z
1/2-x,1/2+y,1/2-z
1/2-x,1/2-y,-z
1/2+x,1/2-y,1/2+z
loop_
_atom_site_type_symbol
_atom_site_label
_atom_site_fract_x
_atom_site_fract_y
_atom_site_fract_z
Si Si1 0.510435 0.375882 0.881752
Si Si2 0.237463 0.975055 0.291228
Si Si3 0.112653 0.256098 0.876292
Si Si4 0.168841 0.424542 0.087490
Si Si5 0.360911 0.422123 0.321237
Si Si6 0.829165 0.222447 0.008691
Si Si7 0.500000 0.136651 0.750000
Si Si8 0.190582 0.810456 0.664385
O O1 0.500000 0.413446 0.750000
O O2 0.616064 0.350314 0.702984
O O3 0.445648 0.310067 0.988968
O O4 0.471385 0.415470 0.088084
O O5 0.298617 0.938259 0.306057
O O6 0.183062 0.934840 0.261182
O O7 0.170859 0.022298 0.508476
O O8 0.305155 0.018254 0.070327
O O9 0.113254 0.266145 0.703480
O O10 0.223498 0.250621 0.712559
O O11 0.067658 0.315515 0.041246
O O12 0.062055 0.405330 0.250715
O O13 0.233631 0.363823 0.922524
O O14 0.327809 0.351297 0.442302
O O15 0.869266 0.216125 0.096202
O O16 0.250000 0.750000 0.500000
#
# Coordination Sequence:
#
# PCOD9271907 Si02
#       8
#     8   8   8   8   8   8   4   8
#     4  11  22  37  61  94 130 170 219 266 330 395
#     4  10  22  45  66  93 129 178 228 273 330 390
#     4  10  20  36  62  90 130 169 210 262 335 399
#     4  11  24  42  68  95 129 174 224 276 336 394
#     4  10  21  41  67  88 129 174 222 276 323 391
#     4  10  21  40  63  90 128 182 211 265 339 394
#     4  12  20  40  68 100 128 168 222 280 340 396
#     4  12  23  41  66  99 133 171 222 270 340 407
#
# _framework density 22.328084
#
# number of rings (size 3 to 8) (size 9 to 14) (size 15 to 20)
#    0.000    1.333    3.333    2.400    0.000    4.800 
#    0.000    8.667    0.000    1.600    0.000    0.000 
#    0.000    0.000    0.000    0.000    0.000    0.000 
#
# Total GULP energy -167471.742771 kJ/mol
# GULP energy per Si atom -5582.391426 kJ/mol
# Density = 2.227726 g / cm^3
# Si number density = 22.328084 Si / 1000 Ang^3
#
#
#
# Elastic Constant Matrix: (Units=GPa)
#
#
# Indices 1 2 3 4 5 6 
#
# 1 87.5331 16.2624 41.6367 0.0000 15.8080 0.0000
# 2 16.2624 48.4194 18.7388 0.0000 -2.4152 0.0000
# 3 41.6367 18.7388 93.8920 0.0000 11.2933 0.0000
# 4 0.0000 0.0000 0.0000 33.0212 0.0000 5.2928
# 5 15.8080 -2.4152 11.2933 0.0000 47.3988 0.0000
# 6 0.0000 0.0000 0.0000 5.2928 0.0000 23.5156
#
#
#
# Elastic Compliance Matrix: (Units=1/GPa)
#
#
# Indices 1 2 3 4 5 6 
#
# 1 0.015460 -0.003164 -0.005749 0.000000 -0.003947 0.000000
# 2 -0.003164 0.023269 -0.003614 0.000000 0.003102 0.000000
# 3 -0.005749 -0.003614 0.014117 0.000000 -0.001630 0.000000
# 4 0.000000 0.000000 0.000000 0.031417 0.000000 -0.007071
# 5 -0.003947 0.003102 -0.001630 0.000000 0.022961 0.000000
# 6 0.000000 0.000000 0.000000 -0.007071 0.000000 0.044117
#
#
# Mechanical properties :
#
#
# Convention : Reuss Voigt Hill
#
# Bulk Modulus (GPa) = 35.98262 42.56891 39.27576
# Shear Modulus (GPa) = 26.93107 31.00088 28.96598
#
# Velocity S-wave (km/s) = 3.47674 3.73020 3.60570
# Velocity P-wave (km/s) = 5.68043 6.13670 5.91297
#
# Compressibility (1/GPa) = 0.02779120
#
# Stress axis : x y z
#
# Youngs Moduli (GPa) = 64.68397 42.97568 70.83428
#
# Poissons Ratio (x) = 0.13599 0.40725
# Poissons Ratio (y) = 0.20468 0.25599
# Poissons Ratio (z) = 0.37189 0.15531
#
# Static dielectric constant tensor:
#      x y z
#    x 1.935370 0.000000 0.027840 
#    y 0.000000 1.876680 0.000000 
#    z 0.027840 0.000000 1.901240 
# 
# From -- ./inp_files/58746.got.cif
#   From: 2010.05.17/outbox.cif.g08.bks.cpg/sg15_30_cif.got.tgz:58746.got - 2010.06.03 18:47:42.
