data_PCOD9271509
_publ_section_title
;
Structure prediction by ZEFSAII (Michael W. Deem and Ramdas Pophale) SiO2 
 PCOD9271509
Probable space group: C 2/C
;
_chemical_formula_sum "Si O2"
_cell_formula_units_Z 64
_cell_length_a 9.653742
_cell_length_b 19.721189
_cell_length_c 21.250811
_cell_angle_alpha 90.000000
_cell_angle_beta 49.125892
_cell_angle_gamma 90.000000
_cell_volume 3059.227884
_symmetry_space_group_name_H-M "C 2/C"
_symmetry_group_IT_number 15
_symmetry_cell_setting 'monoclinic'
loop_
_space_group_symop_operation_xyz
x,y,z
-x,y,1/2-z
-x,-y,-z
x,-y,1/2+z
1/2+x,1/2+y,z
1/2-x,1/2+y,1/2-z
1/2-x,1/2-y,-z
1/2+x,1/2-y,1/2+z
loop_
_atom_site_type_symbol
_atom_site_label
_atom_site_fract_x
_atom_site_fract_y
_atom_site_fract_z
Si Si1 0.557853 0.874633 0.660866
Si Si2 0.805962 0.854182 0.025801
Si Si3 0.796444 0.158121 0.302938
Si Si4 0.798183 0.575929 0.809855
Si Si5 0.074301 0.700301 0.489144
Si Si6 0.723968 0.296946 0.254491
Si Si7 0.596776 0.539587 0.415261
Si Si8 0.185027 0.225307 0.616577
O O1 0.500000 0.862774 0.750000
O O2 0.366504 0.884564 0.681403
O O3 0.712672 0.931200 0.614535
O O4 0.656162 0.804667 0.611308
O O5 0.752680 0.887388 0.108565
O O6 0.894422 0.780245 0.009211
O O7 0.628447 0.840411 0.035744
O O8 0.955693 0.899680 0.944099
O O9 0.714471 0.177447 0.394556
O O10 0.807796 0.229078 0.260344
O O11 0.000000 0.129170 0.250000
O O12 0.810881 0.634350 0.753708
O O13 0.651692 0.515267 0.846181
O O14 0.000000 0.544169 0.750000
O O15 0.863092 0.693128 0.532405
O O16 0.512945 0.304285 0.340267
O O17 0.718840 0.285382 0.181361
O O18 0.500000 0.500000 0.500000
#
# Coordination Sequence:
#
# PCOD9271509 Si02
#       8
#     8   8   8   8   8   8   8   8
#     4  11  21  39  65  91 129 162 202 256 316 373
#     4  10  22  34  57  89 122 154 198 255 303 363
#     4  11  24  36  58  98 130 156 201 261 319 379
#     4  11  21  38  60  84 116 162 207 249 290 366
#     4  11  22  34  59  91 126 160 189 253 328 368
#     4  10  20  36  59  93 127 153 199 259 309 370
#     4  10  23  40  59  88 119 164 216 253 290 370
#     4  10  20  36  60  95 126 160 193 257 328 373
#
# _framework density 20.920313
#
# number of rings (size 3 to 8) (size 9 to 14) (size 15 to 20)
#    0.000    1.500    5.000    1.500    5.250    4.000 
#    0.000    0.000    0.000   12.750    0.000    0.000 
#    0.000    0.000    0.000    0.000    0.000    0.000 
#
# Total GULP energy -178643.094447 kJ/mol
# GULP energy per Si atom -5582.596701 kJ/mol
# Density = 2.087270 g / cm^3
# Si number density = 20.920313 Si / 1000 Ang^3
#
#
#
# Elastic Constant Matrix: (Units=GPa)
#
#
# Indices 1 2 3 4 5 6 
#
# 1 79.9204 17.6512 26.5427 0.0004 -18.3689 -0.0006
# 2 17.6512 52.7523 23.8269 0.0002 -4.3845 -0.0003
# 3 26.5427 23.8269 67.4229 0.0004 -16.0566 -0.0006
# 4 0.0004 0.0002 0.0004 9.3596 -0.0004 1.4917
# 5 -18.3689 -4.3845 -16.0566 -0.0004 42.0404 0.0005
# 6 -0.0006 -0.0003 -0.0006 1.4917 0.0005 0.9523
#
#
#
# Elastic Compliance Matrix: (Units=1/GPa)
#
#
# Indices 1 2 3 4 5 6 
#
# 1 0.015632 -0.003063 -0.003873 -0.000001 0.005031 0.000005
# 2 -0.003063 0.023179 -0.007402 -0.000001 -0.001748 0.000003
# 3 -0.003873 -0.007402 0.020225 -0.000001 0.005260 0.000006
# 4 -0.000001 -0.000001 -0.000001 0.142392 0.000003 -0.223052
# 5 0.005031 -0.001748 0.005260 0.000003 0.027812 -0.000014
# 6 0.000005 0.000003 0.000006 -0.223052 -0.000014 1.399506
#
#
# Mechanical properties :
#
#
# Convention : Reuss Voigt Hill
#
# Bulk Modulus (GPa) = 32.93796 37.34858 35.14327
# Shear Modulus (GPa) = 2.99843 19.27545 11.13694
#
# Velocity S-wave (km/s) = 1.19849 3.03871 2.30977
# Velocity P-wave (km/s) = 4.20640 5.49574 4.89372
#
# Compressibility (1/GPa) = 0.03036010
#
# Stress axis : x y z
#
# Youngs Moduli (GPa) = 63.97281 43.14186 49.44362
#
# Poissons Ratio (x) = 0.13214 0.19151
# Poissons Ratio (y) = 0.19594 0.36598
# Poissons Ratio (z) = 0.24778 0.31933
#
# Static dielectric constant tensor:
#      x y z
#    x 1.767270 0.000000 -0.011310 
#    y 0.000000 1.757090 0.000000 
#    z -0.011310 0.000000 1.786320 
# 
# From -- ./inp_files/266084.got.cif
#   From: 2010.05.17/outbox.cif.g08.bks.cpg/sg15_134_cif.got.tgz:266084.got - 2010.06.03 18:47:42.
