data_PCOD9271603
_publ_section_title
;
Structure prediction by ZEFSAII (Michael W. Deem and Ramdas Pophale) SiO2 
 PCOD9271603
Probable space group: C 2/C
;
_chemical_formula_sum "Si O2"
_cell_formula_units_Z 56
_cell_length_a 7.626752
_cell_length_b 22.092571
_cell_length_c 21.667817
_cell_angle_alpha 90.000000
_cell_angle_beta 49.020080
_cell_angle_gamma 90.000000
_cell_volume 2756.215482
_symmetry_space_group_name_H-M "C 2/C"
_symmetry_group_IT_number 15
_symmetry_cell_setting 'monoclinic'
loop_
_space_group_symop_operation_xyz
x,y,z
-x,y,1/2-z
-x,-y,-z
x,-y,1/2+z
1/2+x,1/2+y,z
1/2-x,1/2+y,1/2-z
1/2-x,1/2-y,-z
1/2+x,1/2-y,1/2+z
loop_
_atom_site_type_symbol
_atom_site_label
_atom_site_fract_x
_atom_site_fract_y
_atom_site_fract_z
Si Si1 0.763410 0.958177 0.553713
Si Si2 0.716110 0.124356 0.429736
Si Si3 0.213702 0.850581 0.852144
Si Si4 0.225452 0.993341 0.655960
Si Si5 0.760607 0.671166 0.204139
Si Si6 0.027087 0.226684 0.673843
Si Si7 0.761843 0.109608 0.922846
O O1 0.768007 0.908822 0.608092
O O2 0.497996 0.987729 0.616565
O O3 0.780900 0.922880 0.484509
O O4 0.000000 0.000000 0.500000
O O5 0.779869 0.055195 0.398737
O O6 0.620603 0.150571 0.386465
O O7 0.507982 0.125361 0.525014
O O8 0.940218 0.158532 0.402033
O O9 0.311531 0.858365 0.758959
O O10 0.313518 0.788065 0.858507
O O11 0.000000 0.978016 0.750000
O O12 0.176294 0.059856 0.641919
O O13 0.500000 0.654747 0.250000
O O14 0.790944 0.742318 0.206107
O O15 0.104869 0.172335 0.613657
O O16 0.000000 0.204531 0.750000
#
# Coordination Sequence:
#
# PCOD9271603 Si02
#       7
#     8   8   8   8   8   8   8
#     4  11  23  41  64  91 121 154 202 259 301 349
#     4  10  20  37  62  86 113 151 194 245 301 352
#     4  10  20  36  60  88 116 149 196 246 293 351
#     4  11  22  39  62  85 117 159 199 242 302 364
#     4   9  19  36  58  86 115 150 194 243 294 349
#     4  10  21  38  59  84 116 153 196 242 289 356
#     4  11  23  39  57  82 123 161 193 241 307 363
#
# _framework density 20.317715
#
# number of rings (size 3 to 8) (size 9 to 14) (size 15 to 20)
#    0.000    1.714    0.000    6.857    0.000    5.143 
#    0.000   13.571    0.000    0.000    0.000    0.000 
#    0.000    0.000    0.000    0.000    0.000    0.000 
#
# Total GULP energy -155894.676073 kJ/mol
# GULP energy per Si atom -5567.667003 kJ/mol
# Density = 2.027147 g / cm^3
# Si number density = 20.317715 Si / 1000 Ang^3
#
#
#
# Elastic Constant Matrix: (Units=GPa)
#
#
# Indices 1 2 3 4 5 6 
#
# 1 104.9594 37.3040 27.5905 0.0000 -3.9105 0.0000
# 2 37.3040 95.6087 48.4435 0.0000 11.0621 0.0000
# 3 27.5905 48.4435 84.2828 0.0000 -10.4769 0.0000
# 4 0.0000 0.0000 0.0000 42.6917 0.0000 7.7378
# 5 -3.9105 11.0621 -10.4769 0.0000 20.0336 0.0000
# 6 0.0000 0.0000 0.0000 7.7378 0.0000 11.2677
#
#
#
# Elastic Compliance Matrix: (Units=1/GPa)
#
#
# Indices 1 2 3 4 5 6 
#
# 1 0.011529 -0.004835 -0.000410 0.000000 0.004706 0.000000
# 2 -0.004835 0.021191 -0.013015 0.000000 -0.019451 0.000000
# 3 -0.000410 -0.013015 0.021779 0.000000 0.018496 0.000000
# 4 0.000000 0.000000 0.000000 0.026754 0.000000 -0.018372
# 5 0.004706 -0.019451 0.018496 0.000000 0.071248 0.000000
# 6 0.000000 0.000000 0.000000 -0.018372 0.000000 0.101366
#
#
# Mechanical properties :
#
#
# Convention : Reuss Voigt Hill
#
# Bulk Modulus (GPa) = 55.62205 56.83633 56.22919
# Shear Modulus (GPa) = 16.87025 26.23280 21.55153
#
# Velocity S-wave (km/s) = 2.88466 3.59713 3.26041
# Velocity P-wave (km/s) = 6.20730 6.72956 6.47370
#
# Compressibility (1/GPa) = 0.01797848
#
# Stress axis : x y z
#
# Youngs Moduli (GPa) = 86.73742 47.19005 45.91572
#
# Poissons Ratio (x) = 0.22816 0.01883
# Poissons Ratio (y) = 0.41937 0.59760
# Poissons Ratio (z) = 0.03557 0.61419
#
# Static dielectric constant tensor:
#      x y z
#    x 1.864390 0.000000 -0.024470 
#    y 0.000000 1.719410 0.000000 
#    z -0.024470 0.000000 1.773400 
# 
# From -- ./inp_files/266384.got.cif
#   From: 2010.05.17/outbox.cif.g08.bks.cpg/sg15_134_cif.got.tgz:266384.got - 2010.06.03 18:47:42.
