data_PCOD9271833
_publ_section_title
;
Structure prediction by ZEFSAII (Michael W. Deem and Ramdas Pophale) SiO2 
 PCOD9271833
Probable space group: C 2/C
;
_chemical_formula_sum "Si O2"
_cell_formula_units_Z 64
_cell_length_a 25.544822
_cell_length_b 11.996538
_cell_length_c 19.215990
_cell_angle_alpha 90.000000
_cell_angle_beta 33.501297
_cell_angle_gamma 90.000000
_cell_volume 3250.318568
_symmetry_space_group_name_H-M "C 2/C"
_symmetry_group_IT_number 15
_symmetry_cell_setting 'monoclinic'
loop_
_space_group_symop_operation_xyz
x,y,z
-x,y,1/2-z
-x,-y,-z
x,-y,1/2+z
1/2+x,1/2+y,z
1/2-x,1/2+y,1/2-z
1/2-x,1/2-y,-z
1/2+x,1/2-y,1/2+z
loop_
_atom_site_type_symbol
_atom_site_label
_atom_site_fract_x
_atom_site_fract_y
_atom_site_fract_z
Si Si1 0.499893 0.259736 0.334172
Si Si2 0.302066 0.025826 0.107279
Si Si3 0.184464 0.880751 0.131938
Si Si4 0.475299 0.001558 0.158870
Si Si5 0.803286 0.535455 0.759802
Si Si6 0.401723 0.801602 0.328098
Si Si7 0.759603 0.237596 0.377858
Si Si8 0.203271 0.843082 0.953769
O O1 0.500000 0.254028 0.250000
O O2 0.576362 0.352234 0.271480
O O3 0.526551 0.134775 0.328270
O O4 0.394665 0.298231 0.469692
O O5 0.257069 0.148141 0.163629
O O6 0.241979 0.970518 0.111970
O O7 0.291855 0.959678 0.190206
O O8 0.414314 0.031157 0.966693
O O9 0.237183 0.764958 0.090632
O O10 0.186888 0.903978 0.046549
O O11 0.414074 0.969295 0.159027
O O12 0.423922 0.927838 0.276252
O O13 0.754942 0.639510 0.851633
O O14 0.757658 0.424281 0.842175
O O15 0.500000 0.757666 0.250000
O O16 0.321701 0.791080 0.475640
O O17 0.359022 0.735436 0.309460
#
# Coordination Sequence:
#
# PCOD9271833 Si02
#       8
#     8   8   8   8   8   8   8   8
#     4  10  20  36  62 102 129 157 210 267 325 371
#     4  12  25  42  65  95 129 172 217 266 322 390
#     4  10  22  37  64  96 125 161 211 270 318 368
#     4  11  21  37  69  97 121 163 220 274 320 371
#     4  11  26  43  63  91 137 175 211 262 329 401
#     4  10  20  40  66  97 125 160 215 279 319 376
#     4  10  25  40  63  98 127 171 218 264 333 384
#     4  10  21  40  64  93 128 167 208 266 318 381
#
# _framework density 19.690377000000002
#
# number of rings (size 3 to 8) (size 9 to 14) (size 15 to 20)
#    0.000    1.500    3.750    0.750    7.000    0.000 
#    2.250    0.625    0.000    0.000    0.000    0.000 
#    0.000    0.000    0.000    0.000    0.000    0.000 
#
# Total GULP energy -178575.089359 kJ/mol
# GULP energy per Si atom -5580.471542 kJ/mol
# Density = 1.964556 g / cm^3
# Si number density = 19.690377 Si / 1000 Ang^3
#
#
#
# Elastic Constant Matrix: (Units=GPa)
#
#
# Indices 1 2 3 4 5 6 
#
# 1 73.8537 15.9193 35.3035 0.0000 -17.7892 0.0000
# 2 15.9193 65.6391 29.8183 0.0000 -8.3792 0.0000
# 3 35.3035 29.8183 66.0761 0.0000 -14.4564 0.0000
# 4 0.0000 0.0000 0.0000 19.2790 0.0000 -5.0168
# 5 -17.7892 -8.3792 -14.4564 0.0000 30.7063 0.0000
# 6 0.0000 0.0000 0.0000 -5.0168 0.0000 26.1656
#
#
#
# Elastic Compliance Matrix: (Units=1/GPa)
#
#
# Indices 1 2 3 4 5 6 
#
# 1 0.019492 0.000258 -0.008969 0.000000 0.007140 0.000000
# 2 0.000258 0.019213 -0.008504 0.000000 0.001389 0.000000
# 3 -0.008969 -0.008504 0.024659 0.000000 0.004093 0.000000
# 4 0.000000 0.000000 0.000000 0.054594 0.000000 0.010467
# 5 0.007140 0.001389 0.004093 0.000000 0.039009 0.000000
# 6 0.000000 0.000000 0.000000 0.010467 0.000000 0.040225
#
#
# Mechanical properties :
#
#
# Convention : Reuss Voigt Hill
#
# Bulk Modulus (GPa) = 34.56093 40.85013 37.70553
# Shear Modulus (GPa) = 20.72409 23.53205 22.12807
#
# Velocity S-wave (km/s) = 3.24774 3.46078 3.35595
# Velocity P-wave (km/s) = 5.62620 6.06305 5.84870
#
# Compressibility (1/GPa) = 0.02893441
#
# Stress axis : x y z
#
# Youngs Moduli (GPa) = 51.30421 52.04867 40.55295
#
# Poissons Ratio (x) = -0.01345 0.36370
# Poissons Ratio (y) = -0.01326 0.34488
# Poissons Ratio (z) = 0.46012 0.44265
#
# Static dielectric constant tensor:
#      x y z
#    x 1.710300 0.000000 0.002400 
#    y 0.000000 1.692670 0.000000 
#    z 0.002400 0.000000 1.700400 
# 
# From -- ./inp_files/257492.got.cif
#   From: 2010.05.17/outbox.cif.g08.bks.cpg/sg15_129_cif.got.tgz:257492.got - 2010.06.03 18:47:42.
