data_PCOD9271917
_publ_section_title
;
Structure prediction by ZEFSAII (Michael W. Deem and Ramdas Pophale) SiO2 
 PCOD9271917
Probable space group: C 2/C
;
_chemical_formula_sum "Si O2"
_cell_formula_units_Z 48
_cell_length_a 14.603896
_cell_length_b 11.222660
_cell_length_c 15.332031
_cell_angle_alpha 90.000000
_cell_angle_beta 129.681485
_cell_angle_gamma 90.000000
_cell_volume 1933.893849
_symmetry_space_group_name_H-M "C 2/C"
_symmetry_group_IT_number 15
_symmetry_cell_setting 'monoclinic'
loop_
_space_group_symop_operation_xyz
x,y,z
-x,y,1/2-z
-x,-y,-z
x,-y,1/2+z
1/2+x,1/2+y,z
1/2-x,1/2+y,1/2-z
1/2-x,1/2-y,-z
1/2+x,1/2-y,1/2+z
loop_
_atom_site_type_symbol
_atom_site_label
_atom_site_fract_x
_atom_site_fract_y
_atom_site_fract_z
Si Si1 0.860374 0.322755 0.179541
Si Si2 0.659958 0.830821 0.531775
Si Si3 0.717932 0.074200 0.340830
Si Si4 0.894724 0.817753 0.254488
Si Si5 0.470592 0.322834 0.000536
Si Si6 0.833009 0.409504 0.481447
O O1 0.777211 0.212505 0.155587
O O2 0.833101 0.444241 0.214840
O O3 0.000000 0.302698 0.250000
O O4 0.810146 0.346432 0.052081
O O5 0.558413 0.730372 0.480938
O O6 0.618997 0.964858 0.525141
O O7 0.650926 0.183615 0.254506
O O8 0.689980 0.092303 0.427972
O O9 0.858554 0.093866 0.412746
O O10 0.946138 0.874319 0.373153
O O11 0.790097 0.888364 0.144034
O O12 0.000000 0.808945 0.250000
O O13 0.412353 0.203530 0.006177
#
# Coordination Sequence:
#
# PCOD9271917 Si02
#       6
#     8   8   8   8   8   8
#     4  10  23  44  66  81 119 167 209 242 301 377
#     4  10  24  42  59  90 121 164 201 251 307 357
#     4  10  20  36  62  91 117 157 204 250 301 358
#     4  11  18  33  60  90 116 157 202 248 304 359
#     4  11  21  37  61  91 129 149 199 262 302 354
#     4  10  20  37  59  88 122 160 200 247 309 361
#
# _framework density 24.820392999999999
#
# number of rings (size 3 to 8) (size 9 to 14) (size 15 to 20)
#    0.000    1.667    3.333    2.000    2.333    4.000 
#    6.000    0.000    0.000    0.000    0.000    0.000 
#    0.000    0.000    0.000    0.000    0.000    0.000 
#
# Total GULP energy -134175.166464 kJ/mol
# GULP energy per Si atom -5590.631936 kJ/mol
# Density = 2.476390 g / cm^3
# Si number density = 24.820393 Si / 1000 Ang^3
#
#
#
# Elastic Constant Matrix: (Units=GPa)
#
#
# Indices 1 2 3 4 5 6 
#
# 1 90.3398 37.3192 16.8962 0.0000 16.3603 0.0000
# 2 37.3192 86.1203 5.8527 0.0000 8.4565 0.0000
# 3 16.8962 5.8527 63.2011 0.0000 24.1239 0.0000
# 4 0.0000 0.0000 0.0000 -13.9068 0.0000 4.6331
# 5 16.3603 8.4565 24.1239 0.0000 27.6619 0.0000
# 6 0.0000 0.0000 0.0000 4.6331 0.0000 31.7503
#
#
#
# Elastic Compliance Matrix: (Units=1/GPa)
#
#
# Indices 1 2 3 4 5 6 
#
# 1 0.014724 -0.005717 -0.001124 0.000000 -0.005980 0.000000
# 2 -0.005717 0.014199 0.000869 0.000000 -0.001717 0.000000
# 3 -0.001124 0.000869 0.023819 0.000000 -0.020373 0.000000
# 4 0.000000 0.000000 0.000000 -0.068574 0.000000 0.010006
# 5 -0.005980 -0.001717 -0.020373 0.000000 0.057980 0.000000
# 6 0.000000 0.000000 0.000000 0.010006 0.000000 0.030036
#
#
# Mechanical properties :
#
#
# Convention : Reuss Voigt Hill
#
# Bulk Modulus (GPa) = 24.51133 39.97747 32.24440
# Shear Modulus (GPa) = 51.16249 21.07395 36.11822
#
# Velocity S-wave (km/s) = 4.54509 2.91702 3.81882
# Velocity P-wave (km/s) = 6.11888 5.24281 5.69771
#
# Compressibility (1/GPa) = 0.04079746
#
# Stress axis : x y z
#
# Youngs Moduli (GPa) = 67.91505 70.42942 41.98311
#
# Poissons Ratio (x) = 0.40264 0.04720
# Poissons Ratio (y) = 0.38827 -0.03648
# Poissons Ratio (z) = 0.07636 -0.06120
#
# Static dielectric constant tensor:
#      x y z
#    x 1.986010 0.000000 -0.021320 
#    y 0.000000 2.036830 0.000000 
#    z -0.021320 0.000000 1.974100 
# 
# From -- ./inp_files/103805.got.cif
#   From: 2010.05.17/outbox.cif.g08.bks.cpg/sg15_52_cif.got.tgz:103805.got - 2010.06.03 18:47:42.
