data_PCOD9271152
_publ_section_title
;
Structure prediction by ZEFSAII (Michael W. Deem and Ramdas Pophale) SiO2 
 PCOD9271152
Probable space group: C 2/C
;
_chemical_formula_sum "Si O2"
_cell_formula_units_Z 48
_cell_length_a 30.196518
_cell_length_b 6.582614
_cell_length_c 26.675030
_cell_angle_alpha 90.000000
_cell_angle_beta 158.800289
_cell_angle_gamma 90.000000
_cell_volume 1917.398817
_symmetry_space_group_name_H-M "C 2/C"
_symmetry_group_IT_number 15
_symmetry_cell_setting 'monoclinic'
loop_
_space_group_symop_operation_xyz
x,y,z
-x,y,1/2-z
-x,-y,-z
x,-y,1/2+z
1/2+x,1/2+y,z
1/2-x,1/2+y,1/2-z
1/2-x,1/2-y,-z
1/2+x,1/2-y,1/2+z
loop_
_atom_site_type_symbol
_atom_site_label
_atom_site_fract_x
_atom_site_fract_y
_atom_site_fract_z
Si Si1 0.264688 0.951405 0.064947
Si Si2 0.340342 0.669285 0.711000
Si Si3 0.256520 0.595426 0.305762
Si Si4 0.164381 0.287021 0.545735
Si Si5 0.914572 0.923476 0.706733
Si Si6 0.412647 0.033865 0.954700
O O1 0.164808 0.821020 0.992081
O O2 0.386443 0.810455 0.191114
O O3 0.287517 0.156702 0.118896
O O4 0.216378 0.983221 0.957784
O O5 0.347254 0.783677 0.771476
O O6 0.251376 0.480513 0.628311
O O7 0.442751 0.559701 0.785119
O O8 0.281970 0.389137 0.362247
O O9 0.376551 0.737880 0.431587
O O10 0.214239 0.546974 0.205128
O O11 0.057709 0.391943 0.466315
O O12 0.000000 0.963748 0.750000
O O13 0.500000 0.000000 0.000000
#
# Coordination Sequence:
#
# PCOD9271152 Si02
#       6
#     8   8   8   8   8   8
#     4   9  19  38  59  79 119 156 187 246 293 351
#     4   9  19  37  60  81 116 158 194 239 304 341
#     4  10  20  40  60  83 126 154 196 255 289 356
#     4   9  19  39  58  84 117 156 193 246 295 348
#     4  10  20  36  57  89 114 151 196 240 297 355
#     4  11  22  38  61  89 116 162 205 243 306 358
#
# _framework density 25.033915
#
# number of rings (size 3 to 8) (size 9 to 14) (size 15 to 20)
#    0.000    2.333    1.667    0.500    0.000    1.333 
#   18.000    0.000    0.000    0.000    0.000    0.000 
#    0.000    0.000    0.000    0.000    0.000    0.000 
#
# Total GULP energy -133863.623251 kJ/mol
# GULP energy per Si atom -5577.650969 kJ/mol
# Density = 2.497694 g / cm^3
# Si number density = 25.033915 Si / 1000 Ang^3
#
#
#
# Elastic Constant Matrix: (Units=GPa)
#
#
# Indices 1 2 3 4 5 6 
#
# 1 155.9115 54.4339 11.3356 -0.0006 13.0700 -0.0002
# 2 54.4339 148.4769 13.2478 -0.0014 1.4203 -0.0007
# 3 11.3356 13.2478 21.0951 -0.0006 -4.1847 -0.0002
# 4 -0.0006 -0.0014 -0.0006 13.0226 0.0000 -13.1418
# 5 13.0700 1.4203 -4.1847 0.0000 56.3620 0.0000
# 6 -0.0002 -0.0007 -0.0002 -13.1418 0.0000 70.6964
#
#
#
# Elastic Compliance Matrix: (Units=1/GPa)
#
#
# Indices 1 2 3 4 5 6 
#
# 1 0.007673 -0.002534 -0.002915 0.000000 -0.001932 0.000000
# 2 -0.002534 0.007987 -0.003631 0.000001 0.000117 0.000000
# 3 -0.002915 -0.003631 0.052171 0.000003 0.004641 0.000001
# 4 0.000000 0.000001 0.000003 0.094521 0.000000 0.017571
# 5 -0.001932 0.000117 0.004641 0.000000 0.018532 0.000000
# 6 0.000000 0.000000 0.000001 0.017571 0.000000 0.017411
#
#
# Mechanical properties :
#
#
# Convention : Reuss Voigt Hill
#
# Bulk Modulus (GPa) = 20.13232 53.72424 36.92828
# Shear Modulus (GPa) = 21.45815 44.44728 32.95271
#
# Velocity S-wave (km/s) = 2.93091 4.21822 3.63205
# Velocity P-wave (km/s) = 4.41737 6.72545 5.68967
#
# Compressibility (1/GPa) = 0.04967136
#
# Stress axis : x y z
#
# Youngs Moduli (GPa) = 130.33462 125.20296 19.16766
#
# Poissons Ratio (x) = 0.31731 0.05586
# Poissons Ratio (y) = 0.33031 0.06960
# Poissons Ratio (z) = 0.37986 0.45459
#
# Static dielectric constant tensor:
#      x y z
#    x 1.974140 0.000000 0.052000 
#    y 0.000000 1.960340 0.000000 
#    z 0.052000 0.000000 2.145860 
# 
# From -- ./inp_files/319999.got.cif
#   From: 2010.05.17/outbox.cif.g08.bks.cpg/sg15_160_cif.got.tgz:319999.got - 2010.06.03 18:47:42.
