data_PCOD9271400
_publ_section_title
;
Structure prediction by ZEFSAII (Michael W. Deem and Ramdas Pophale) SiO2 
 PCOD9271400
Probable space group: C 2/C
;
_chemical_formula_sum "Si O2"
_cell_formula_units_Z 32
_cell_length_a 5.107994
_cell_length_b 35.179749
_cell_length_c 8.865486
_cell_angle_alpha 90.000000
_cell_angle_beta 88.682147
_cell_angle_gamma 90.000000
_cell_volume 1592.688241
_symmetry_space_group_name_H-M "C 2/C"
_symmetry_group_IT_number 15
_symmetry_cell_setting 'monoclinic'
loop_
_space_group_symop_operation_xyz
x,y,z
-x,y,1/2-z
-x,-y,-z
x,-y,1/2+z
1/2+x,1/2+y,z
1/2-x,1/2+y,1/2-z
1/2-x,1/2-y,-z
1/2+x,1/2-y,1/2+z
loop_
_atom_site_type_symbol
_atom_site_label
_atom_site_fract_x
_atom_site_fract_y
_atom_site_fract_z
Si Si1 0.083963 0.440307 0.574990
Si Si2 0.741800 0.277997 0.858474
Si Si3 0.757893 0.863927 0.643436
Si Si4 0.739744 0.480161 0.357223
O O1 0.213799 0.399966 0.535126
O O2 0.269800 0.477647 0.567838
O O3 0.000000 0.437248 0.750000
O O4 0.828033 0.449869 0.480838
O O5 0.500000 0.270028 0.750000
O O6 0.705729 0.321449 0.919116
O O7 0.000000 0.275400 0.750000
O O8 0.750000 0.250000 0.000000
O O9 0.500000 0.860479 0.750000
O O10 0.000000 0.872851 0.750000
O O11 0.500000 0.472488 0.250000
O O12 0.000000 0.481586 0.250000
#
# Coordination Sequence:
#
# PCOD9271400 Si02
#       4
#     8   8   8   8
#     4   9  19  34  55  75 101 141 184 219 259 316
#     4  10  20  36  59  85 113 145 184 228 277 334
#     4   9  18  32  53  79 104 136 180 224 261 315
#     4  10  21  34  50  76 107 138 174 222 272 312
#
# _framework density 20.091816999999999
#
# number of rings (size 3 to 8) (size 9 to 14) (size 15 to 20)
#    0.000    2.500    0.000    1.500    0.000   13.000 
#    0.000    1.250    0.000    3.000    0.000    0.000 
#    0.000    0.000    0.000    0.000    0.000    0.000 
#
# Total GULP energy -89263.710542 kJ/mol
# GULP energy per Si atom -5578.981909 kJ/mol
# Density = 2.004609 g / cm^3
# Si number density = 20.091817 Si / 1000 Ang^3
#
#
#
# Elastic Constant Matrix: (Units=GPa)
#
#
# Indices 1 2 3 4 5 6 
#
# 1 125.2053 36.5532 50.3445 0.0000 45.0862 0.0000
# 2 36.5532 183.4888 86.4800 0.0000 37.1754 0.0000
# 3 50.3445 86.4800 123.3737 0.0000 36.8637 0.0000
# 4 0.0000 0.0000 0.0000 27.6976 0.0000 6.4586
# 5 45.0862 37.1754 36.8637 0.0000 44.5284 0.0000
# 6 0.0000 0.0000 0.0000 6.4586 0.0000 21.2762
#
#
#
# Elastic Compliance Matrix: (Units=1/GPa)
#
#
# Indices 1 2 3 4 5 6 
#
# 1 0.012976 0.000970 -0.002401 0.000000 -0.011961 0.000000
# 2 0.000970 0.008473 -0.005219 0.000000 -0.003735 0.000000
# 3 -0.002401 -0.005219 0.014237 0.000000 -0.004998 0.000000
# 4 0.000000 0.000000 0.000000 0.038855 0.000000 -0.011795
# 5 -0.011961 -0.003735 -0.004998 0.000000 0.041824 0.000000
# 6 0.000000 0.000000 0.000000 -0.011795 0.000000 0.050581
#
#
# Mechanical properties :
#
#
# Convention : Reuss Voigt Hill
#
# Bulk Modulus (GPa) = 44.67114 86.53592 65.60353
# Shear Modulus (GPa) = 26.63689 35.94643 31.29166
#
# Velocity S-wave (km/s) = 3.64505 4.23437 3.95071
# Velocity P-wave (km/s) = 6.32431 8.18965 7.31667
#
# Compressibility (1/GPa) = 0.02238582
#
# Stress axis : x y z
#
# Youngs Moduli (GPa) = 77.06390 118.01716 70.23921
#
# Poissons Ratio (x) = -0.11447 0.16866
# Poissons Ratio (y) = -0.07475 0.36659
# Poissons Ratio (z) = 0.18505 0.61595
#
# Static dielectric constant tensor:
#      x y z
#    x 1.747280 0.000000 -0.025760 
#    y 0.000000 1.800340 0.000000 
#    z -0.025760 0.000000 1.688580 
# 
# From -- ./inp_files/20136.got.cif
#   From: 2010.05.17/outbox.cif.g08.bks.cpg/sg15_11_cif.got.tgz:20136.got - 2010.06.03 18:47:42.
