data_PCOD9271548
_publ_section_title
;
Structure prediction by ZEFSAII (Michael W. Deem and Ramdas Pophale) SiO2 
 PCOD9271548
Probable space group: C 2/C
;
_chemical_formula_sum "Si O2"
_cell_formula_units_Z 52
_cell_length_a 28.685616
_cell_length_b 18.661461
_cell_length_c 13.769946
_cell_angle_alpha 90.000000
_cell_angle_beta 160.863026
_cell_angle_gamma 90.000000
_cell_volume 2416.504479
_symmetry_space_group_name_H-M "C 2/C"
_symmetry_group_IT_number 15
_symmetry_cell_setting 'monoclinic'
loop_
_space_group_symop_operation_xyz
x,y,z
-x,y,1/2-z
-x,-y,-z
x,-y,1/2+z
1/2+x,1/2+y,z
1/2-x,1/2+y,1/2-z
1/2-x,1/2-y,-z
1/2+x,1/2-y,1/2+z
loop_
_atom_site_type_symbol
_atom_site_label
_atom_site_fract_x
_atom_site_fract_y
_atom_site_fract_z
Si Si1 0.506179 0.490633 0.364410
Si Si2 0.677450 0.848831 0.300499
Si Si3 0.550587 0.951219 0.689585
Si Si4 0.658660 0.594126 0.817789
Si Si5 0.706655 0.081859 0.070745
Si Si6 0.470686 0.279999 0.884546
Si Si7 0.500000 0.193495 0.750000
O O1 0.500000 0.530014 0.250000
O O2 0.570792 0.544715 0.569345
O O3 0.368836 0.449880 0.136676
O O4 0.628403 0.431531 0.586478
O O5 0.697759 0.890477 0.442376
O O6 0.592624 0.777299 0.163804
O O7 0.835092 0.826523 0.579949
O O8 0.581106 0.899812 0.043591
O O9 0.500000 0.000000 0.500000
O O10 0.679661 0.904832 0.898622
O O11 0.620284 0.006689 0.902641
O O12 0.584033 0.670434 0.661812
O O13 0.632636 0.141211 0.990298
O O14 0.526524 0.239355 0.899087
#
# Coordination Sequence:
#
# PCOD9271548 Si02
#       7
#     8   8   8   8   8   8   4
#     4  10  21  35  59  86 120 154 197 254 303 343
#     4   9  18  36  61  83 113 162 195 240 307 353
#     4   9  19  35  60  87 115 151 197 250 306 347
#     4  10  21  38  58  91 119 154 206 249 289 371
#     4   9  18  38  55  86 117 150 203 251 293 356
#     4  10  20  36  60  84 121 160 201 239 295 372
#     4  10  22  36  60  82 118 162 200 244 300 362
#
# _framework density 21.518685000000001
#
# number of rings (size 3 to 8) (size 9 to 14) (size 15 to 20)
#    0.000    2.462    1.538    0.000    3.231    4.308 
#    0.000    0.000    0.000    0.000    2.000    0.000 
#    0.000    0.000    0.000    0.000    0.000    0.000 
#
# Total GULP energy -145081.828047 kJ/mol
# GULP energy per Si atom -5580.070310 kJ/mol
# Density = 2.146971 g / cm^3
# Si number density = 21.518685 Si / 1000 Ang^3
#
#
#
# Elastic Constant Matrix: (Units=GPa)
#
#
# Indices 1 2 3 4 5 6 
#
# 1 55.2131 10.9404 -5.0276 0.0000 7.4927 0.0000
# 2 10.9404 56.9488 19.6877 0.0000 6.5133 0.0000
# 3 -5.0276 19.6877 45.7603 0.0000 10.9864 0.0000
# 4 0.0000 0.0000 0.0000 35.8740 0.0000 0.4418
# 5 7.4927 6.5133 10.9864 0.0000 14.0063 0.0000
# 6 0.0000 0.0000 0.0000 0.4418 0.0000 11.9014
#
#
#
# Elastic Compliance Matrix: (Units=1/GPa)
#
#
# Indices 1 2 3 4 5 6 
#
# 1 0.022151 -0.005394 0.008620 0.000000 -0.016103 0.000000
# 2 -0.005394 0.022061 -0.010243 0.000000 0.000661 0.000000
# 3 0.008620 -0.010243 0.033474 0.000000 -0.026105 0.000000
# 4 0.000000 0.000000 0.000000 0.027888 0.000000 -0.001035
# 5 -0.016103 0.000661 -0.026105 0.000000 0.100180 0.000000
# 6 0.000000 0.000000 0.000000 -0.001035 0.000000 0.084062
#
#
# Mechanical properties :
#
#
# Convention : Reuss Voigt Hill
#
# Bulk Modulus (GPa) = 15.70993 23.23589 19.47291
# Shear Modulus (GPa) = 15.38144 21.17780 18.27962
#
# Velocity S-wave (km/s) = 2.67646 3.14053 2.91774
# Velocity P-wave (km/s) = 4.10703 4.89613 4.51884
#
# Compressibility (1/GPa) = 0.06365401
#
# Stress axis : x y z
#
# Youngs Moduli (GPa) = 45.14551 45.32830 29.87356
#
# Poissons Ratio (x) = 0.24449 -0.25752
# Poissons Ratio (y) = 0.24350 0.30599
# Poissons Ratio (z) = -0.38917 0.46429
#
# Static dielectric constant tensor:
#      x y z
#    x 1.827300 0.000000 -0.008190 
#    y 0.000000 1.814260 0.000000 
#    z -0.008190 0.000000 1.811740 
# 
# From -- ./inp_files/182909.got.cif
#   From: 2010.05.17/outbox.cif.g08.bks.cpg/sg15_92_cif.got.tgz:182909.got - 2010.06.03 18:47:42.
