data_PCOD9271675
_publ_section_title
;
Structure prediction by ZEFSAII (Michael W. Deem and Ramdas Pophale) SiO2 
 PCOD9271675
Probable space group: C 2/C
;
_chemical_formula_sum "Si O2"
_cell_formula_units_Z 48
_cell_length_a 9.868876
_cell_length_b 19.027586
_cell_length_c 14.258164
_cell_angle_alpha 90.000000
_cell_angle_beta 118.635075
_cell_angle_gamma 90.000000
_cell_volume 2349.935959
_symmetry_space_group_name_H-M "C 2/C"
_symmetry_group_IT_number 15
_symmetry_cell_setting 'monoclinic'
loop_
_space_group_symop_operation_xyz
x,y,z
-x,y,1/2-z
-x,-y,-z
x,-y,1/2+z
1/2+x,1/2+y,z
1/2-x,1/2+y,1/2-z
1/2-x,1/2-y,-z
1/2+x,1/2-y,1/2+z
loop_
_atom_site_type_symbol
_atom_site_label
_atom_site_fract_x
_atom_site_fract_y
_atom_site_fract_z
Si Si1 0.617861 0.405843 0.526071
Si Si2 0.879688 0.310283 0.565125
Si Si3 0.068985 0.815767 0.179676
Si Si4 0.853413 0.350322 0.976969
Si Si5 0.585323 0.462715 0.876889
Si Si6 0.661986 0.218274 0.834849
O O1 0.783002 0.368388 0.588239
O O2 0.500344 0.353046 0.434597
O O3 0.541465 0.423764 0.599551
O O4 0.628312 0.470846 0.457061
O O5 0.750000 0.250000 0.500000
O O6 0.007712 0.263779 0.658254
O O7 0.975989 0.346944 0.512821
O O8 0.250677 0.814424 0.225619
O O9 0.000000 0.849563 0.250000
O O10 0.739230 0.415029 0.915723
O O11 0.766472 0.280536 0.910137
O O12 0.861865 0.339008 0.091675
O O13 0.500000 0.478389 0.750000
O O14 0.500000 0.248731 0.750000
#
# Coordination Sequence:
#
# PCOD9271675 Si02
#       6
#     8   8   8   8   8   8
#     4  10  22  41  61  88 123 156 209 255 301 367
#     4   9  21  37  60  86 120 160 192 256 311 350
#     4  10  20  36  60  92 125 156 202 248 307 365
#     4  10  21  39  57  89 125 157 204 253 299 366
#     4  11  23  41  65  85 120 170 206 250 305 363
#     4  10  21  34  58  90 122 157 202 249 305 361
#
# _framework density 20.426086999999999
#
# number of rings (size 3 to 8) (size 9 to 14) (size 15 to 20)
#    0.000    2.000    1.667    1.000    7.000    3.333 
#    0.000    0.000    0.000    1.000    0.000    0.000 
#    0.000    0.000    0.000    0.000    0.000    0.000 
#
# Total GULP energy -133714.570773 kJ/mol
# GULP energy per Si atom -5571.440449 kJ/mol
# Density = 2.037960 g / cm^3
# Si number density = 20.426087 Si / 1000 Ang^3
#
#
#
# Elastic Constant Matrix: (Units=GPa)
#
#
# Indices 1 2 3 4 5 6 
#
# 1 151.4577 33.9715 30.0013 0.0000 -9.9488 0.0000
# 2 33.9715 63.9918 1.8189 0.0000 -6.6500 0.0000
# 3 30.0013 1.8189 61.0560 0.0000 -20.5472 0.0000
# 4 0.0000 0.0000 0.0000 7.8199 0.0000 -3.1549
# 5 -9.9488 -6.6500 -20.5472 0.0000 26.8038 0.0000
# 6 0.0000 0.0000 0.0000 -3.1549 0.0000 18.0531
#
#
#
# Elastic Compliance Matrix: (Units=1/GPa)
#
#
# Indices 1 2 3 4 5 6 
#
# 1 0.008400 -0.004480 -0.004473 0.000000 -0.001422 0.000000
# 2 -0.004480 0.018491 0.003551 0.000000 0.005647 0.000000
# 3 -0.004473 0.003551 0.024539 0.000000 0.018032 0.000000
# 4 0.000000 0.000000 0.000000 0.137580 0.000000 0.024043
# 5 -0.001422 0.005647 0.018032 0.000000 0.052004 0.000000
# 6 0.000000 0.000000 0.000000 0.024043 0.000000 0.059594
#
#
# Mechanical properties :
#
#
# Convention : Reuss Voigt Hill
#
# Bulk Modulus (GPa) = 24.61481 45.34319 34.97900
# Shear Modulus (GPa) = 15.38684 24.58294 19.98489
#
# Velocity S-wave (km/s) = 2.74760 3.47292 3.13133
# Velocity P-wave (km/s) = 4.70559 6.19100 5.49868
#
# Compressibility (1/GPa) = 0.04062595
#
# Stress axis : x y z
#
# Youngs Moduli (GPa) = 119.04947 54.07992 40.75215
#
# Poissons Ratio (x) = 0.24227 0.18227
# Poissons Ratio (y) = 0.53333 -0.14470
# Poissons Ratio (z) = 0.53247 -0.19203
#
# Static dielectric constant tensor:
#      x y z
#    x 1.840390 0.000000 -0.008490 
#    y 0.000000 1.759280 0.000000 
#    z -0.008490 0.000000 1.750260 
# 
# From -- ./inp_files/136176.got.cif
#   From: 2010.05.17/outbox.cif.g08.bks.cpg/sg15_69_cif.got.tgz:136176.got - 2010.06.03 18:47:42.
