data_PCOD9271423
_publ_section_title
;
Structure prediction by ZEFSAII (Michael W. Deem and Ramdas Pophale) SiO2 
 PCOD9271423
Probable space group: C 2/C
;
_chemical_formula_sum "Si O2"
_cell_formula_units_Z 48
_cell_length_a 7.815863
_cell_length_b 13.100509
_cell_length_c 19.704747
_cell_angle_alpha 90.000000
_cell_angle_beta 63.830617
_cell_angle_gamma 90.000000
_cell_volume 1810.787994
_symmetry_space_group_name_H-M "C 2/C"
_symmetry_group_IT_number 15
_symmetry_cell_setting 'monoclinic'
loop_
_space_group_symop_operation_xyz
x,y,z
-x,y,1/2-z
-x,-y,-z
x,-y,1/2+z
1/2+x,1/2+y,z
1/2-x,1/2+y,1/2-z
1/2-x,1/2-y,-z
1/2+x,1/2-y,1/2+z
loop_
_atom_site_type_symbol
_atom_site_label
_atom_site_fract_x
_atom_site_fract_y
_atom_site_fract_z
Si Si1 0.811294 0.372493 0.818240
Si Si2 0.276509 0.479810 0.049995
Si Si3 0.158676 0.334432 0.964395
Si Si4 0.778429 0.053462 0.770350
Si Si5 0.162151 0.196637 0.853898
Si Si6 0.712428 0.822183 0.400807
O O1 0.824689 0.432328 0.887923
O O2 0.760125 0.457183 0.770860
O O3 0.675515 0.279705 0.862408
O O4 0.000000 0.326151 0.750000
O O5 0.208414 0.442950 0.988199
O O6 0.271575 0.384030 0.101544
O O7 0.500000 0.500000 0.000000
O O8 0.932167 0.321464 0.012357
O O9 0.250000 0.250000 0.000000
O O10 0.210653 0.305734 0.878309
O O11 0.744365 0.153962 0.730150
O O12 0.676706 0.079994 0.858731
O O13 0.000000 0.048659 0.750000
O O14 0.933533 0.184371 0.883606
#
# Coordination Sequence:
#
# PCOD9271423 Si02
#       6
#     8   8   8   8   8   8
#     4  11  21  36  59  87 117 155 202 252 305 364
#     4  10  21  39  59  86 123 159 202 255 301 358
#     4  10  20  36  59  86 116 155 198 244 298 358
#     4   9  20  39  58  82 117 153 195 249 301 357
#     4   9  19  37  59  82 115 154 195 246 303 359
#     4  11  21  39  61  85 118 158 198 248 306 362
#
# _framework density 26.507797
#
# number of rings (size 3 to 8) (size 9 to 14) (size 15 to 20)
#    0.000    2.000    0.000    5.000    0.000    0.000 
#    0.000   22.500    0.000    0.000    0.000    0.000 
#    0.000    0.000    0.000    0.000    0.000    0.000 
#
# Total GULP energy -134193.478277 kJ/mol
# GULP energy per Si atom -5591.394928 kJ/mol
# Density = 2.644746 g / cm^3
# Si number density = 26.507797 Si / 1000 Ang^3
#
#
#
# Elastic Constant Matrix: (Units=GPa)
#
#
# Indices 1 2 3 4 5 6 
#
# 1 60.4106 14.0731 7.9828 0.0000 9.2997 0.0000
# 2 14.0731 93.0993 32.0912 0.0000 22.3493 0.0000
# 3 7.9828 32.0912 99.3545 0.0000 16.1464 0.0000
# 4 0.0000 0.0000 0.0000 42.8027 0.0000 10.3558
# 5 9.2997 22.3493 16.1464 0.0000 36.5573 0.0000
# 6 0.0000 0.0000 0.0000 10.3558 0.0000 40.1777
#
#
#
# Elastic Compliance Matrix: (Units=1/GPa)
#
#
# Indices 1 2 3 4 5 6 
#
# 1 0.017503 -0.001761 -0.000311 0.000000 -0.003238 0.000000
# 2 -0.001761 0.013676 -0.003221 0.000000 -0.006490 0.000000
# 3 -0.000311 -0.003221 0.011632 0.000000 -0.003089 0.000000
# 4 0.000000 0.000000 0.000000 0.024917 0.000000 -0.006422
# 5 -0.003238 -0.006490 -0.003089 0.000000 0.033510 0.000000
# 6 0.000000 0.000000 0.000000 -0.006422 0.000000 0.026545
#
#
# Mechanical properties :
#
#
# Convention : Reuss Voigt Hill
#
# Bulk Modulus (GPa) = 31.03205 40.12873 35.58039
# Shear Modulus (GPa) = 33.53192 37.15536 35.34364
#
# Velocity S-wave (km/s) = 3.56052 3.74796 3.65544
# Velocity P-wave (km/s) = 5.35119 5.82245 5.59179
#
# Compressibility (1/GPa) = 0.03222475
#
# Stress axis : x y z
#
# Youngs Moduli (GPa) = 57.13205 73.12245 85.96660
#
# Poissons Ratio (x) = 0.12878 0.02675
# Poissons Ratio (y) = 0.10062 0.27690
# Poissons Ratio (z) = 0.01778 0.23553
#
# Static dielectric constant tensor:
#      x y z
#    x 2.109100 0.000000 0.063600 
#    y 0.000000 2.112530 0.000000 
#    z 0.063600 0.000000 2.066350 
# 
# From -- ./inp_files/231065.got.cif
#   From: 2010.05.17/outbox.cif.g08.bks.cpg/sg15_116_cif.got.tgz:231065.got - 2010.06.03 18:47:42.
