data_PCOD9271998
_publ_section_title
;
Structure prediction by ZEFSAII (Michael W. Deem and Ramdas Pophale) SiO2 
 PCOD9271998
Probable space group: C 2/C
;
_chemical_formula_sum "Si O2"
_cell_formula_units_Z 36
_cell_length_a 7.597616
_cell_length_b 14.473460
_cell_length_c 12.679344
_cell_angle_alpha 90.000000
_cell_angle_beta 76.055007
_cell_angle_gamma 90.000000
_cell_volume 1353.176203
_symmetry_space_group_name_H-M "C 2/C"
_symmetry_group_IT_number 15
_symmetry_cell_setting 'monoclinic'
loop_
_space_group_symop_operation_xyz
x,y,z
-x,y,1/2-z
-x,-y,-z
x,-y,1/2+z
1/2+x,1/2+y,z
1/2-x,1/2+y,1/2-z
1/2-x,1/2-y,-z
1/2+x,1/2-y,1/2+z
loop_
_atom_site_type_symbol
_atom_site_label
_atom_site_fract_x
_atom_site_fract_y
_atom_site_fract_z
Si Si1 0.726624 0.724619 0.858668
Si Si2 0.693487 0.412682 0.703102
Si Si3 0.588626 0.155130 0.885462
Si Si4 0.500000 0.006058 0.250000
Si Si5 0.090246 0.923655 0.063135
O O1 0.685336 0.833690 0.866913
O O2 0.791007 0.697527 0.728962
O O3 0.564415 0.653826 0.902536
O O4 0.901616 0.711862 0.909593
O O5 0.500000 0.367437 0.750000
O O6 0.812904 0.439729 0.785639
O O7 0.640879 0.506321 0.651245
O O8 0.720409 0.135039 0.964872
O O9 0.515643 0.057463 0.850071
O O10 0.000000 0.000000 0.000000
#
# Coordination Sequence:
#
# PCOD9271998 Si02
#       5
#     8   8   8   4   8
#     4  10  20  36  63  85 112 150 204 261 293 344
#     4  11  20  37  63  89 113 151 212 257 298 353
#     4   9  18  39  57  84 110 149 204 257 296 337
#     4   8  18  30  56  84 110 138 188 258 298 344
#     4  11  24  38  56  86 128 165 190 236 315 383
#
# _framework density 26.604073
#
# number of rings (size 3 to 8) (size 9 to 14) (size 15 to 20)
#    0.000    2.222    2.222    4.667    3.111    1.778 
#    0.000    1.111    0.000    0.000    0.000    0.000 
#    0.000    0.000    0.000    0.000    0.000    0.000 
#
# Total GULP energy -100400.162321 kJ/mol
# GULP energy per Si atom -5577.786796 kJ/mol
# Density = 2.654352 g / cm^3
# Si number density = 26.604073 Si / 1000 Ang^3
#
#
#
# Elastic Constant Matrix: (Units=GPa)
#
#
# Indices 1 2 3 4 5 6 
#
# 1 198.0182 67.2392 19.4265 0.0000 28.7963 0.0000
# 2 67.2392 142.0399 7.5163 0.0000 -0.7073 0.0000
# 3 19.4265 7.5163 40.0144 0.0000 14.7263 0.0000
# 4 0.0000 0.0000 0.0000 13.7624 0.0000 -7.0254
# 5 28.7963 -0.7073 14.7263 0.0000 26.6624 0.0000
# 6 0.0000 0.0000 0.0000 -7.0254 0.0000 37.9875
#
#
#
# Elastic Compliance Matrix: (Units=1/GPa)
#
#
# Indices 1 2 3 4 5 6 
#
# 1 0.007443 -0.003567 0.000063 0.000000 -0.008168 0.000000
# 2 -0.003567 0.008850 -0.001801 0.000000 0.005082 0.000000
# 3 0.000063 -0.001801 0.031807 0.000000 -0.017683 0.000000
# 4 0.000000 0.000000 0.000000 0.080237 0.000000 0.014839
# 5 -0.008168 0.005082 -0.017683 0.000000 0.056229 0.000000
# 6 0.000000 0.000000 0.000000 0.014839 0.000000 0.029069
#
#
# Mechanical properties :
#
#
# Convention : Reuss Voigt Hill
#
# Bulk Modulus (GPa) = 26.67517 63.15963 44.91740
# Shear Modulus (GPa) = 21.12010 34.74180 27.93095
#
# Velocity S-wave (km/s) = 2.82062 3.61762 3.24369
# Velocity P-wave (km/s) = 4.54493 6.42197 5.56319
#
# Compressibility (1/GPa) = 0.03748805
#
# Stress axis : x y z
#
# Youngs Moduli (GPa) = 134.35351 112.99920 31.44004
#
# Poissons Ratio (x) = 0.40311 -0.00197
# Poissons Ratio (y) = 0.47929 0.05662
# Poissons Ratio (z) = -0.00841 0.20349
#
# Static dielectric constant tensor:
#      x y z
#    x 2.196250 0.000000 -0.118390 
#    y 0.000000 2.084800 0.000000 
#    z -0.118390 0.000000 2.271800 
# 
# From -- ./inp_files/188191.got.cif
#   From: 2010.05.17/outbox.cif.g08.bks.cpg/sg15_95_cif.got.tgz:188191.got - 2010.06.03 18:47:42.
