data_PCOD9271481
_publ_section_title
;
Structure prediction by ZEFSAII (Michael W. Deem and Ramdas Pophale) SiO2 
 PCOD9271481
Probable space group: C 2/C
;
_chemical_formula_sum "Si O2"
_cell_formula_units_Z 64
_cell_length_a 15.472726
_cell_length_b 25.295117
_cell_length_c 13.109246
_cell_angle_alpha 90.000000
_cell_angle_beta 39.836624
_cell_angle_gamma 90.000000
_cell_volume 3286.764778
_symmetry_space_group_name_H-M "C 2/C"
_symmetry_group_IT_number 15
_symmetry_cell_setting 'monoclinic'
loop_
_space_group_symop_operation_xyz
x,y,z
-x,y,1/2-z
-x,-y,-z
x,-y,1/2+z
1/2+x,1/2+y,z
1/2-x,1/2+y,1/2-z
1/2-x,1/2-y,-z
1/2+x,1/2-y,1/2+z
loop_
_atom_site_type_symbol
_atom_site_label
_atom_site_fract_x
_atom_site_fract_y
_atom_site_fract_z
Si Si1 0.354112 0.316891 0.831897
Si Si2 0.529655 0.948452 0.903411
Si Si3 0.379611 0.514494 0.290506
Si Si4 0.860055 0.466135 0.337134
Si Si5 0.809273 0.902110 0.698691
Si Si6 0.635145 0.194209 0.693710
Si Si7 0.531599 0.605889 0.832123
Si Si8 0.297985 0.888956 0.208304
O O1 0.500000 0.321137 0.750000
O O2 0.337437 0.355728 0.752884
O O3 0.331896 0.255964 0.819168
O O4 0.249126 0.329769 0.016609
O O5 0.650203 0.911594 0.833263
O O6 0.592451 0.976902 0.748215
O O7 0.392999 0.914671 0.034727
O O8 0.500000 0.000000 0.000000
O O9 0.500000 0.537569 0.250000
O O10 0.243445 0.524442 0.477587
O O11 0.367051 0.544331 0.195990
O O12 0.416276 0.453862 0.237234
O O13 0.794999 0.432821 0.302919
O O14 0.000000 0.439884 0.250000
O O15 0.892496 0.893721 0.520491
O O16 0.500000 0.192163 0.750000
O O17 0.633268 0.161026 0.798874
O O18 0.500000 0.630451 0.750000
O O19 0.653366 0.626780 0.792950
#
# Coordination Sequence:
#
# PCOD9271481 Si02
#       8
#     8   8   8   8   8   8   8   8
#     4  10  21  36  57  89 121 147 180 231 290 351
#     4  10  21  33  49  76 110 149 188 223 261 325
#     4  11  20  32  51  77 109 145 183 224 275 333
#     4  11  20  33  53  81 115 145 181 228 280 340
#     4  12  21  36  56  79 112 151 190 225 280 338
#     4  10  20  36  59  90 121 145 180 229 290 355
#     4  11  24  38  53  77 109 151 197 238 272 319
#     4  11  20  36  57  81 113 152 189 227 286 343
#
# _framework density 19.472035000000002
#
# number of rings (size 3 to 8) (size 9 to 14) (size 15 to 20)
#    0.000    1.250    0.000    9.375    0.000    0.000 
#    0.000    0.000    0.000    0.750    0.000    3.500 
#    0.000    0.000    0.000    0.000    0.000    0.000 
#
# Total GULP energy -178735.836866 kJ/mol
# GULP energy per Si atom -5585.494902 kJ/mol
# Density = 1.942772 g / cm^3
# Si number density = 19.472035 Si / 1000 Ang^3
#
#
#
# Elastic Constant Matrix: (Units=GPa)
#
#
# Indices 1 2 3 4 5 6 
#
# 1 75.0302 14.0306 31.7353 -0.0001 5.0066 0.0001
# 2 14.0306 50.4681 5.4564 0.0000 5.1806 0.0000
# 3 31.7353 5.4564 103.4436 -0.0001 -15.7261 0.0002
# 4 -0.0001 0.0000 -0.0001 18.9327 0.0001 -7.3375
# 5 5.0066 5.1806 -15.7261 0.0001 24.8276 -0.0001
# 6 0.0001 0.0000 0.0002 -7.3375 -0.0001 37.1336
#
#
#
# Elastic Compliance Matrix: (Units=1/GPa)
#
#
# Indices 1 2 3 4 5 6 
#
# 1 0.016938 -0.003391 -0.006008 0.000000 -0.006513 0.000000
# 2 -0.003391 0.021267 -0.000722 0.000000 -0.004211 0.000000
# 3 -0.006008 -0.000722 0.013008 0.000000 0.009601 0.000000
# 4 0.000000 0.000000 0.000000 0.057199 0.000000 0.011302
# 5 -0.006513 -0.004211 0.009601 0.000000 0.048552 0.000000
# 6 0.000000 0.000000 0.000000 0.011302 0.000000 0.029163
#
#
# Mechanical properties :
#
#
# Convention : Reuss Voigt Hill
#
# Bulk Modulus (GPa) = 32.28638 36.82072 34.55355
# Shear Modulus (GPa) = 23.07431 28.02676 25.55054
#
# Velocity S-wave (km/s) = 3.44611 3.79797 3.62631
# Velocity P-wave (km/s) = 5.69659 6.17927 5.94283
#
# Compressibility (1/GPa) = 0.03097281
#
# Stress axis : x y z
#
# Youngs Moduli (GPa) = 59.04000 47.02014 76.87636
#
# Poissons Ratio (x) = 0.15943 0.46184
# Poissons Ratio (y) = 0.20019 0.05549
# Poissons Ratio (z) = 0.35469 0.03394
#
# Static dielectric constant tensor:
#      x y z
#    x 1.751350 0.000000 -0.028010 
#    y 0.000000 1.682230 0.000000 
#    z -0.028010 0.000000 1.712010 
# 
# From -- ./inp_files/101304.got.cif
#   From: 2010.05.17/outbox.cif.g08.bks.cpg/sg15_51_cif.got.tgz:101304.got - 2010.06.03 18:47:42.
