data_PCOD9271565
_publ_section_title
;
Structure prediction by ZEFSAII (Michael W. Deem and Ramdas Pophale) SiO2 
 PCOD9271565
Probable space group: C 2/C
;
_chemical_formula_sum "Si O2"
_cell_formula_units_Z 40
_cell_length_a 7.383504
_cell_length_b 12.168878
_cell_length_c 19.573036
_cell_angle_alpha 90.000000
_cell_angle_beta 126.470042
_cell_angle_gamma 90.000000
_cell_volume 1414.223032
_symmetry_space_group_name_H-M "C 2/C"
_symmetry_group_IT_number 15
_symmetry_cell_setting 'monoclinic'
loop_
_space_group_symop_operation_xyz
x,y,z
-x,y,1/2-z
-x,-y,-z
x,-y,1/2+z
1/2+x,1/2+y,z
1/2-x,1/2+y,1/2-z
1/2-x,1/2-y,-z
1/2+x,1/2-y,1/2+z
loop_
_atom_site_type_symbol
_atom_site_label
_atom_site_fract_x
_atom_site_fract_y
_atom_site_fract_z
Si Si1 0.028503 0.699400 0.678170
Si Si2 0.832739 0.963971 0.276302
Si Si3 0.338304 0.396894 0.577252
Si Si4 0.653443 0.720100 0.877209
Si Si5 0.110105 0.425286 0.953565
O O1 0.076984 0.568021 0.699636
O O2 0.240510 0.717544 0.674087
O O3 0.000000 0.743355 0.750000
O O4 0.843936 0.766500 0.592489
O O5 0.000000 0.979333 0.250000
O O6 0.925998 0.851405 0.332610
O O7 0.916596 0.059671 0.344607
O O8 0.258963 0.463764 0.492276
O O9 0.149995 0.443593 0.587133
O O10 0.629231 0.844515 0.894737
O O11 0.813356 0.655259 0.966101
#
# Coordination Sequence:
#
# PCOD9271565 Si02
#       5
#     8   8   8   8   8
#     4  11  22  36  58  87 123 159 196 241 293 352
#     4   9  19  37  56  80 118 159 196 241 290 344
#     4  10  20  36  60  86 115 153 198 244 296 349
#     4   9  19  37  60  85 116 153 195 244 299 350
#     4   9  19  38  62  84 114 155 198 247 298 350
#
# _framework density 28.284082999999999
#
# number of rings (size 3 to 8) (size 9 to 14) (size 15 to 20)
#    0.000    2.400    0.000    1.800    0.000    1.600 
#    0.000   11.000    0.000    0.000    0.000    0.000 
#    0.000    0.000    0.000    0.000    0.000    0.000 
#
# Total GULP energy -111478.463445 kJ/mol
# GULP energy per Si atom -5573.923172 kJ/mol
# Density = 2.821971 g / cm^3
# Si number density = 28.284083 Si / 1000 Ang^3
#
#
#
# Elastic Constant Matrix: (Units=GPa)
#
#
# Indices 1 2 3 4 5 6 
#
# 1 56.4469 25.3866 20.9085 0.0000 -13.1732 0.0000
# 2 25.3866 141.4815 28.2282 0.0000 7.4661 0.0000
# 3 20.9085 28.2282 94.8074 0.0000 10.3999 0.0000
# 4 0.0000 0.0000 0.0000 38.1321 0.0000 20.5862
# 5 -13.1732 7.4661 10.3999 0.0000 48.1039 0.0000
# 6 0.0000 0.0000 0.0000 20.5862 0.0000 51.1163
#
#
#
# Elastic Compliance Matrix: (Units=1/GPa)
#
#
# Indices 1 2 3 4 5 6 
#
# 1 0.022966 -0.003566 -0.004869 0.000000 0.007895 0.000000
# 2 -0.003566 0.008091 -0.001411 0.000000 -0.001927 0.000000
# 3 -0.004869 -0.001411 0.012459 0.000000 -0.003808 0.000000
# 4 0.000000 0.000000 0.000000 0.033511 0.000000 -0.013496
# 5 0.007895 -0.001927 -0.003808 0.000000 0.024073 0.000000
# 6 0.000000 0.000000 0.000000 -0.013496 0.000000 0.024998
#
#
# Mechanical properties :
#
#
# Convention : Reuss Voigt Hill
#
# Bulk Modulus (GPa) = 41.97516 49.08693 45.53105
# Shear Modulus (GPa) = 32.52413 42.01795 37.27104
#
# Velocity S-wave (km/s) = 3.39471 3.85849 3.63401
# Velocity P-wave (km/s) = 5.49893 6.10272 5.80868
#
# Compressibility (1/GPa) = 0.02382361
#
# Stress axis : x y z
#
# Youngs Moduli (GPa) = 43.54326 123.59115 80.26054
#
# Poissons Ratio (x) = 0.44073 0.39080
# Poissons Ratio (y) = 0.15527 0.11327
# Poissons Ratio (z) = 0.21202 0.17442
#
# Static dielectric constant tensor:
#      x y z
#    x 2.286420 0.000000 0.048910 
#    y 0.000000 2.313630 0.000000 
#    z 0.048910 0.000000 2.343780 
# 
# From -- ./inp_files/230837.got.cif
#   From: 2010.05.17/outbox.cif.g08.bks.cpg/sg15_116_cif.got.tgz:230837.got - 2010.06.03 18:47:42.
