data_PCOD9271269
_publ_section_title
;
Structure prediction by ZEFSAII (Michael W. Deem and Ramdas Pophale) SiO2 
 PCOD9271269
Probable space group: C 2/C
;
_chemical_formula_sum "Si O2"
_cell_formula_units_Z 60
_cell_length_a 18.720684
_cell_length_b 15.920447
_cell_length_c 13.577404
_cell_angle_alpha 90.000000
_cell_angle_beta 45.725744
_cell_angle_gamma 90.000000
_cell_volume 2897.414695
_symmetry_space_group_name_H-M "C 2/C"
_symmetry_group_IT_number 15
_symmetry_cell_setting 'monoclinic'
loop_
_space_group_symop_operation_xyz
x,y,z
-x,y,1/2-z
-x,-y,-z
x,-y,1/2+z
1/2+x,1/2+y,z
1/2-x,1/2+y,1/2-z
1/2-x,1/2-y,-z
1/2+x,1/2-y,1/2+z
loop_
_atom_site_type_symbol
_atom_site_label
_atom_site_fract_x
_atom_site_fract_y
_atom_site_fract_z
Si Si1 0.349667 0.849067 0.749476
Si Si2 0.862210 0.105809 0.948048
Si Si3 0.279555 0.041696 0.134668
Si Si4 0.000000 0.377733 0.250000
Si Si5 0.976997 0.472519 0.913140
Si Si6 0.277525 0.155840 0.952515
Si Si7 0.065141 0.161655 0.831427
Si Si8 0.652345 0.442234 0.415191
O O1 0.327696 0.888193 0.662162
O O2 0.447410 0.900478 0.692681
O O3 0.381701 0.752286 0.714574
O O4 0.249648 0.867359 0.910174
O O5 0.881895 0.113536 0.812087
O O6 0.948053 0.164194 0.914996
O O7 0.883187 0.012418 0.971921
O O8 0.202771 0.996540 0.280001
O O9 0.246469 0.091942 0.070059
O O10 0.357422 0.969552 0.022946
O O11 0.002801 0.442127 0.335341
O O12 0.103626 0.333834 0.157457
O O13 0.000000 0.500000 0.000000
O O14 0.231684 0.116185 0.897233
O O15 0.250000 0.250000 0.000000
O O16 0.076661 0.115488 0.925879
#
# Coordination Sequence:
#
# PCOD9271269 Si02
#       8
#     8   8   8   4   8   8   8   8
#     4  10  20  38  61  90 120 151 193 250 305 352
#     4  10  23  41  60  86 119 156 200 246 299 363
#     4   9  20  38  61  90 121 155 196 241 298 367
#     4  10  20  36  58  86 118 154 194 236 292 356
#     4   9  18  34  58  85 115 148 184 231 290 353
#     4  11  22  39  61  90 121 155 199 251 298 346
#     4  11  23  39  61  88 118 155 201 252 299 354
#     4  11  22  41  63  85 119 164 201 239 298 369
#
# _framework density 20.708116
#
# number of rings (size 3 to 8) (size 9 to 14) (size 15 to 20)
#    0.000    1.867    0.000    4.800    0.000    3.200 
#    0.000   14.667    0.000    0.000    0.000    0.000 
#    0.000    0.000    0.000    0.000    0.000    0.000 
#
# Total GULP energy -167123.565572 kJ/mol
# GULP energy per Si atom -5570.785519 kJ/mol
# Density = 2.066098 g / cm^3
# Si number density = 20.708116 Si / 1000 Ang^3
#
#
#
# Elastic Constant Matrix: (Units=GPa)
#
#
# Indices 1 2 3 4 5 6 
#
# 1 105.9634 46.4016 26.5066 0.0000 20.6803 0.0000
# 2 46.4016 134.6157 43.3695 0.0000 6.0063 0.0000
# 3 26.5066 43.3695 89.6265 0.0000 8.2366 0.0000
# 4 0.0000 0.0000 0.0000 39.4870 0.0000 -22.3279
# 5 20.6803 6.0063 8.2366 0.0000 19.9996 0.0000
# 6 0.0000 0.0000 0.0000 -22.3279 0.0000 45.5637
#
#
#
# Elastic Compliance Matrix: (Units=1/GPa)
#
#
# Indices 1 2 3 4 5 6 
#
# 1 0.013891 -0.003878 -0.001059 0.000000 -0.012763 0.000000
# 2 -0.003878 0.009899 -0.003886 0.000000 0.002637 0.000000
# 3 -0.001059 -0.003886 0.013660 0.000000 -0.003364 0.000000
# 4 0.000000 0.000000 0.000000 0.035032 0.000000 0.017167
# 5 -0.012763 0.002637 -0.003364 0.000000 0.063792 0.000000
# 6 0.000000 0.000000 0.000000 0.017167 0.000000 0.030360
#
#
# Mechanical properties :
#
#
# Convention : Reuss Voigt Hill
#
# Bulk Modulus (GPa) = 50.49024 62.52900 56.50962
# Shear Modulus (GPa) = 26.19443 35.27193 30.73318
#
# Velocity S-wave (km/s) = 3.56045 4.13157 3.85660
# Velocity P-wave (km/s) = 6.42940 7.28154 6.86870
#
# Compressibility (1/GPa) = 0.01980581
#
# Stress axis : x y z
#
# Youngs Moduli (GPa) = 71.98897 101.01650 73.20636
#
# Poissons Ratio (x) = 0.39170 0.07752
# Poissons Ratio (y) = 0.27914 0.28446
# Poissons Ratio (z) = 0.07623 0.39253
#
# Static dielectric constant tensor:
#      x y z
#    x 1.837560 0.000000 -0.093980 
#    y 0.000000 1.720540 0.000000 
#    z -0.093980 0.000000 1.827920 
# 
# From -- ./inp_files/168603.got.cif
#   From: 2010.05.17/outbox.cif.g08.bks.cpg/sg15_85_cif.got.tgz:168603.got - 2010.06.03 18:47:42.
