data_PCOD9271878
_publ_section_title
;
Structure prediction by ZEFSAII (Michael W. Deem and Ramdas Pophale) SiO2 
 PCOD9271878
Probable space group: C 2/C
;
_chemical_formula_sum "Si O2"
_cell_formula_units_Z 52
_cell_length_a 7.735490
_cell_length_b 27.880143
_cell_length_c 11.705908
_cell_angle_alpha 90.000000
_cell_angle_beta 58.150630
_cell_angle_gamma 90.000000
_cell_volume 2144.469035
_symmetry_space_group_name_H-M "C 2/C"
_symmetry_group_IT_number 15
_symmetry_cell_setting 'monoclinic'
loop_
_space_group_symop_operation_xyz
x,y,z
-x,y,1/2-z
-x,-y,-z
x,-y,1/2+z
1/2+x,1/2+y,z
1/2-x,1/2+y,1/2-z
1/2-x,1/2-y,-z
1/2+x,1/2-y,1/2+z
loop_
_atom_site_type_symbol
_atom_site_label
_atom_site_fract_x
_atom_site_fract_y
_atom_site_fract_z
Si Si1 0.746456 0.547490 0.194382
Si Si2 0.899780 0.819053 0.405505
Si Si3 0.000000 0.368545 0.250000
Si Si4 0.278695 0.859359 0.552864
Si Si5 0.184786 0.054590 0.772893
Si Si6 0.570182 0.407896 0.952411
Si Si7 0.470909 0.220327 0.121513
O O1 0.500000 0.544404 0.250000
O O2 0.848195 0.588377 0.080481
O O3 0.805409 0.491976 0.184702
O O4 0.748589 0.567702 0.321896
O O5 0.676530 0.796416 0.486276
O O6 0.044946 0.776584 0.404228
O O7 0.000000 0.828179 0.250000
O O8 0.869252 0.869326 0.476259
O O9 0.890139 0.344490 0.395944
O O10 0.834442 0.401650 0.243909
O O11 0.053854 0.874154 0.592300
O O12 0.304534 0.817004 0.634568
O O13 0.073943 0.052750 0.936344
O O14 0.000000 0.061982 0.750000
O O15 0.500000 0.217412 0.250000
#
# Coordination Sequence:
#
# PCOD9271878 Si02
#       7
#     8   8   4   8   8   8   8
#     4   9  19  38  59  84 119 160 205 246 312 370
#     4  10  22  38  61  90 120 160 207 250 309 388
#     4  10  24  40  56  94 126 152 218 258 302 374
#     4  10  22  38  60  85 122 158 199 263 305 364
#     4  10  21  38  61  86 124 169 203 257 310 370
#     4  10  20  36  62  88 118 157 203 254 307 379
#     4  10  22  41  61  88 124 157 204 260 309 375
#
# _framework density 24.248429000000002
#
# number of rings (size 3 to 8) (size 9 to 14) (size 15 to 20)
#    0.000    2.154    0.000    1.846    6.462    2.462 
#    4.154    0.000    5.077    0.000    0.000    0.000 
#    0.000    0.000    0.000    0.000    0.000    0.000 
#
# Total GULP energy -144979.714585 kJ/mol
# GULP energy per Si atom -5576.142869 kJ/mol
# Density = 2.419324 g / cm^3
# Si number density = 24.248429 Si / 1000 Ang^3
#
#
#
# Elastic Constant Matrix: (Units=GPa)
#
#
# Indices 1 2 3 4 5 6 
#
# 1 48.7800 11.9202 7.1376 0.0000 5.2807 0.0000
# 2 11.9202 96.6337 6.0920 0.0000 17.7127 0.0000
# 3 7.1376 6.0920 87.7010 0.0000 2.6647 0.0000
# 4 0.0000 0.0000 0.0000 -0.0861 0.0000 22.4235
# 5 5.2807 17.7127 2.6647 0.0000 20.3447 0.0000
# 6 0.0000 0.0000 0.0000 22.4235 0.0000 10.5135
#
#
#
# Elastic Compliance Matrix: (Units=1/GPa)
#
#
# Indices 1 2 3 4 5 6 
#
# 1 0.021588 -0.001876 -0.001512 0.000000 -0.003772 0.000000
# 2 -0.001876 0.012501 -0.000401 0.000000 -0.010344 0.000000
# 3 -0.001512 -0.000401 0.011577 0.000000 -0.000774 0.000000
# 4 0.000000 0.000000 0.000000 -0.020872 0.000000 0.044516
# 5 -0.003772 -0.010344 -0.000774 0.000000 0.059239 0.000000
# 6 0.000000 0.000000 0.000000 0.044516 0.000000 0.000171
#
#
# Mechanical properties :
#
#
# Convention : Reuss Voigt Hill
#
# Bulk Modulus (GPa) = 26.25575 31.49048 28.87312
# Shear Modulus (GPa) = 47.85606 20.01873 33.93740
#
# Velocity S-wave (km/s) = 4.44731 2.87639 3.74514
# Velocity P-wave (km/s) = 6.10105 4.90370 5.53485
#
# Compressibility (1/GPa) = 0.03808689
#
# Stress axis : x y z
#
# Youngs Moduli (GPa) = 46.32137 79.99221 86.37929
#
# Poissons Ratio (x) = 0.15009 0.13061
# Poissons Ratio (y) = 0.08691 0.03467
# Poissons Ratio (z) = 0.07004 0.03211
#
# Static dielectric constant tensor:
#      x y z
#    x 2.042250 0.000000 0.062070 
#    y 0.000000 2.019570 0.000000 
#    z 0.062070 0.000000 2.044780 
# 
# From -- ./inp_files/80642.got.cif
#   From: 2010.05.17/outbox.cif.g08.bks.cpg/sg15_41_cif.got.tgz:80642.got - 2010.06.03 18:47:42.
