data_PCOD9271592
_publ_section_title
;
Structure prediction by ZEFSAII (Michael W. Deem and Ramdas Pophale) SiO2 
 PCOD9271592
Probable space group: C 2/C
;
_chemical_formula_sum "Si O2"
_cell_formula_units_Z 56
_cell_length_a 14.803390
_cell_length_b 8.104060
_cell_length_c 26.244301
_cell_angle_alpha 90.000000
_cell_angle_beta 59.047802
_cell_angle_gamma 90.000000
_cell_volume 2700.113000
_symmetry_space_group_name_H-M "C 2/C"
_symmetry_group_IT_number 15
_symmetry_cell_setting 'monoclinic'
loop_
_space_group_symop_operation_xyz
x,y,z
-x,y,1/2-z
-x,-y,-z
x,-y,1/2+z
1/2+x,1/2+y,z
1/2-x,1/2+y,1/2-z
1/2-x,1/2-y,-z
1/2+x,1/2-y,1/2+z
loop_
_atom_site_type_symbol
_atom_site_label
_atom_site_fract_x
_atom_site_fract_y
_atom_site_fract_z
Si Si1 0.402224 0.181726 0.045140
Si Si2 0.879319 0.303167 0.287141
Si Si3 0.799387 0.977637 0.357338
Si Si4 0.543029 0.954780 0.071591
Si Si5 0.343997 0.211773 0.679714
Si Si6 0.314821 0.494542 0.616473
Si Si7 0.293192 0.197832 0.432935
O O1 0.384605 0.357772 0.075566
O O2 0.300386 0.068380 0.087131
O O3 0.497946 0.095238 0.046781
O O4 0.417189 0.182476 0.980019
O O5 0.835244 0.285050 0.242629
O O6 0.799422 0.428230 0.337505
O O7 0.000000 0.359893 0.250000
O O8 0.873223 0.125884 0.317149
O O9 0.752213 0.877850 0.322356
O O10 0.843566 0.847939 0.385846
O O11 0.449018 0.886041 0.132972
O O12 0.631355 0.042721 0.079070
O O13 0.353068 0.395340 0.654393
O O14 0.301808 0.361402 0.575502
O O15 0.250000 0.250000 0.500000
#
# Coordination Sequence:
#
# PCOD9271592 Si02
#       7
#     8   8   8   8   8   8   8
#     4   9  19  37  57  86 119 155 192 245 284 354
#     4  11  22  40  60  87 119 152 201 249 290 348
#     4   9  20  39  59  82 119 157 199 239 301 351
#     4  10  20  36  60  87 120 155 199 237 295 348
#     4  10  21  39  61  85 117 160 195 243 294 354
#     4  10  23  39  60  90 117 156 199 238 300 351
#     4  11  21  39  59  87 119 158 194 246 300 349
#
# _framework density 20.739872999999999
#
# number of rings (size 3 to 8) (size 9 to 14) (size 15 to 20)
#    0.000    2.000    1.429    1.714    2.000    2.286 
#    2.571    7.143    0.000    0.000    0.000    0.000 
#    0.000    0.000    0.000    0.000    0.000    0.000 
#
# Total GULP energy -156384.378321 kJ/mol
# GULP energy per Si atom -5585.156369 kJ/mol
# Density = 2.069267 g / cm^3
# Si number density = 20.739873 Si / 1000 Ang^3
#
#
#
# Elastic Constant Matrix: (Units=GPa)
#
#
# Indices 1 2 3 4 5 6 
#
# 1 34.7433 -2.3841 17.9825 0.0000 11.0971 0.0000
# 2 -2.3841 68.5311 22.9075 0.0000 9.7095 0.0000
# 3 17.9825 22.9075 96.2972 0.0000 25.6124 0.0000
# 4 0.0000 0.0000 0.0000 30.7764 0.0000 9.9273
# 5 11.0971 9.7095 25.6124 0.0000 31.3649 0.0000
# 6 0.0000 0.0000 0.0000 9.9273 0.0000 22.9880
#
#
#
# Elastic Compliance Matrix: (Units=1/GPa)
#
#
# Indices 1 2 3 4 5 6 
#
# 1 0.034674 0.004209 -0.004940 0.000000 -0.009537 0.000000
# 2 0.004209 0.016498 -0.003776 0.000000 -0.003513 0.000000
# 3 -0.004940 -0.003776 0.014601 0.000000 -0.009006 0.000000
# 4 0.000000 0.000000 0.000000 0.037751 0.000000 -0.016303
# 5 -0.009537 -0.003513 -0.009006 0.000000 0.043699 0.000000
# 6 0.000000 0.000000 0.000000 -0.016303 0.000000 0.050541
#
#
# Mechanical properties :
#
#
# Convention : Reuss Voigt Hill
#
# Bulk Modulus (GPa) = 17.61852 30.73149 24.17500
# Shear Modulus (GPa) = 22.15345 27.76356 24.95850
#
# Velocity S-wave (km/s) = 3.27181 3.66273 3.47278
# Velocity P-wave (km/s) = 4.77352 5.72165 5.26895
#
# Compressibility (1/GPa) = 0.05675845
#
# Stress axis : x y z
#
# Youngs Moduli (GPa) = 28.83997 60.61240 68.49004
#
# Poissons Ratio (x) = -0.25509 0.33831
# Poissons Ratio (y) = -0.12138 0.25864
# Poissons Ratio (z) = 0.14246 0.22889
#
# Static dielectric constant tensor:
#      x y z
#    x 1.735610 0.000000 0.005180 
#    y 0.000000 1.760460 0.000000 
#    z 0.005180 0.000000 1.737390 
# 
# From -- ./inp_files/273040.got.cif
#   From: 2010.05.17/outbox.cif.g08.bks.cpg/sg15_137_cif.got.tgz:273040.got - 2010.06.03 18:47:42.
