data_PCOD9271994
_publ_section_title
;
Structure prediction by ZEFSAII (Michael W. Deem and Ramdas Pophale) SiO2 
 PCOD9271994
Probable space group: C 2/C
;
_chemical_formula_sum "Si O2"
_cell_formula_units_Z 52
_cell_length_a 7.619879
_cell_length_b 16.956156
_cell_length_c 27.839179
_cell_angle_alpha 90.000000
_cell_angle_beta 51.587524
_cell_angle_gamma 90.000000
_cell_volume 2818.403398
_symmetry_space_group_name_H-M "C 2/C"
_symmetry_group_IT_number 15
_symmetry_cell_setting 'monoclinic'
loop_
_space_group_symop_operation_xyz
x,y,z
-x,y,1/2-z
-x,-y,-z
x,-y,1/2+z
1/2+x,1/2+y,z
1/2-x,1/2+y,1/2-z
1/2-x,1/2-y,-z
1/2+x,1/2-y,1/2+z
loop_
_atom_site_type_symbol
_atom_site_label
_atom_site_fract_x
_atom_site_fract_y
_atom_site_fract_z
Si Si1 0.729954 0.493875 0.910336
Si Si2 0.898632 0.842254 0.085149
Si Si3 0.782229 0.805012 0.384076
Si Si4 0.969938 0.588794 0.698598
Si Si5 0.555819 0.064696 0.530306
Si Si6 0.500000 0.652880 0.750000
Si Si7 0.465868 0.333628 0.962841
O O1 0.553591 0.562479 0.924560
O O2 0.821205 0.522311 0.946137
O O3 0.629709 0.408424 0.930153
O O4 0.931085 0.507151 0.838718
O O5 0.637290 0.846560 0.145480
O O6 0.052007 0.799621 0.098099
O O7 0.931161 0.814225 0.025307
O O8 0.657929 0.889082 0.412166
O O9 0.921894 0.801375 0.311131
O O10 0.589265 0.739315 0.417732
O O11 0.716102 0.602531 0.727887
O O12 0.000000 0.593773 0.750000
O O13 0.730043 0.132690 0.483310
O O14 0.500000 0.000000 0.500000
#
# Coordination Sequence:
#
# PCOD9271994 Si02
#       7
#     8   8   8   8   8   4   8
#     4   9  19  37  56  82 110 151 193 246 288 356
#     4   9  19  36  60  84 109 157 196 245 300 355
#     4  12  22  35  60  88 120 159 192 251 307 356
#     4  10  20  36  63  82 111 156 212 241 285 355
#     4  11  21  35  60  88 116 153 200 247 296 358
#     4  12  20  40  58  86 118 162 206 236 290 378
#     4  11  21  37  56  89 124 146 197 249 314 351
#
# _framework density 18.450161999999999
#
# number of rings (size 3 to 8) (size 9 to 14) (size 15 to 20)
#    0.923    0.615    3.077    4.615    0.000    0.000 
#    1.385    0.000    0.000    1.846    0.000    0.000 
#    0.000    0.000    0.000    0.000    0.000    0.000 
#
# Total GULP energy -144883.624103 kJ/mol
# GULP energy per Si atom -5572.447081 kJ/mol
# Density = 1.840817 g / cm^3
# Si number density = 18.450162 Si / 1000 Ang^3
#
#
#
# Elastic Constant Matrix: (Units=GPa)
#
#
# Indices 1 2 3 4 5 6 
#
# 1 83.4126 12.9596 33.9173 0.0005 -5.6730 -0.0005
# 2 12.9596 56.9448 35.5080 0.0009 -0.8818 -0.0013
# 3 33.9173 35.5080 146.5961 -0.0011 -3.5445 -0.0006
# 4 0.0005 0.0009 -0.0011 16.7229 0.0000 -5.8644
# 5 -5.6730 -0.8818 -3.5445 0.0000 30.7830 0.0003
# 6 -0.0005 -0.0013 -0.0006 -5.8644 0.0003 19.9659
#
#
#
# Elastic Compliance Matrix: (Units=1/GPa)
#
#
# Indices 1 2 3 4 5 6 
#
# 1 0.013453 -0.001319 -0.002742 0.000000 0.002126 0.000000
# 2 -0.001319 0.020814 -0.004741 -0.000001 -0.000193 0.000001
# 3 -0.002742 -0.004741 0.008613 0.000001 0.000351 0.000000
# 4 0.000000 -0.000001 0.000001 0.066665 0.000000 0.019581
# 5 0.002126 -0.000193 0.000351 0.000000 0.032912 0.000000
# 6 0.000000 0.000001 0.000000 0.019581 0.000000 0.055837
#
#
# Mechanical properties :
#
#
# Convention : Reuss Voigt Hill
#
# Bulk Modulus (GPa) = 39.56282 50.19148 44.87715
# Shear Modulus (GPa) = 22.28934 27.13226 24.71080
#
# Velocity S-wave (km/s) = 3.47952 3.83896 3.66365
# Velocity P-wave (km/s) = 6.13452 6.84931 6.50175
#
# Compressibility (1/GPa) = 0.02527626
#
# Stress axis : x y z
#
# Youngs Moduli (GPa) = 74.33324 48.04370 116.10874
#
# Poissons Ratio (x) = 0.06338 0.31833
# Poissons Ratio (y) = 0.09806 0.55048
# Poissons Ratio (z) = 0.20379 0.22778
#
# Static dielectric constant tensor:
#      x y z
#    x 1.663080 0.000000 -0.015640 
#    y 0.000000 1.638750 0.000000 
#    z -0.015640 0.000000 1.660760 
# 
# From -- ./inp_files/288597.got.cif
#   From: 2010.05.17/outbox.cif.g08.bks.cpg/sg15_145_cif.got.tgz:288597.got - 2010.06.03 18:47:42.
