data_PCOD9271811
_publ_section_title
;
Structure prediction by ZEFSAII (Michael W. Deem and Ramdas Pophale) SiO2 
 PCOD9271811
Probable space group: C 2/C
;
_chemical_formula_sum "Si O2"
_cell_formula_units_Z 56
_cell_length_a 9.922875
_cell_length_b 16.490627
_cell_length_c 29.673176
_cell_angle_alpha 90.000000
_cell_angle_beta 36.499234
_cell_angle_gamma 90.000000
_cell_volume 2888.141534
_symmetry_space_group_name_H-M "C 2/C"
_symmetry_group_IT_number 15
_symmetry_cell_setting 'monoclinic'
loop_
_space_group_symop_operation_xyz
x,y,z
-x,y,1/2-z
-x,-y,-z
x,-y,1/2+z
1/2+x,1/2+y,z
1/2-x,1/2+y,1/2-z
1/2-x,1/2-y,-z
1/2+x,1/2-y,1/2+z
loop_
_atom_site_type_symbol
_atom_site_label
_atom_site_fract_x
_atom_site_fract_y
_atom_site_fract_z
Si Si1 0.588479 0.134542 0.060570
Si Si2 0.769048 0.219275 0.679440
Si Si3 0.019912 0.547309 0.607182
Si Si4 0.645084 0.274602 0.576344
Si Si5 0.464554 0.906838 0.497972
Si Si6 0.780321 0.180507 0.779133
Si Si7 0.886559 0.133895 0.563804
O O1 0.428896 0.207093 0.119923
O O2 0.493964 0.047085 0.102759
O O3 0.598748 0.136080 0.002832
O O4 0.843735 0.136673 0.010535
O O5 0.500000 0.239278 0.750000
O O6 0.828522 0.202308 0.714949
O O7 0.813152 0.140645 0.635825
O O8 0.985000 0.595132 0.568918
O O9 0.262093 0.566805 0.566074
O O10 0.843572 0.593051 0.686527
O O11 0.750000 0.250000 0.500000
O O12 0.714163 0.367026 0.567748
O O13 0.389553 0.247738 0.653718
O O14 0.783441 0.217183 0.572693
O O15 0.500000 0.000000 0.500000
O O16 0.000000 0.176332 0.750000
#
# Coordination Sequence:
#
# PCOD9271811 Si02
#       7
#     8   8   8   8   8   8   8
#     4  11  24  37  66  95 123 161 218 258 310 374
#     4  12  23  41  62  90 129 166 209 261 319 379
#     4  10  22  42  60  89 131 164 201 265 323 367
#     4  11  20  38  64  88 125 159 210 261 302 365
#     4  10  20  36  61  95 122 155 204 261 316 356
#     4  11  25  39  65  91 123 171 210 251 319 382
#     4  11  22  38  66  93 120 162 210 263 306 369
#
# _framework density 19.389631000000001
#
# number of rings (size 3 to 8) (size 9 to 14) (size 15 to 20)
#    0.000    1.143    7.143    0.857    4.000    0.571 
#    0.000    0.000    3.143    0.000    0.000    0.000 
#    0.000    0.000    0.000    0.000    0.000    0.000 
#
# Total GULP energy -155946.417013 kJ/mol
# GULP energy per Si atom -5569.514893 kJ/mol
# Density = 1.934550 g / cm^3
# Si number density = 19.389631 Si / 1000 Ang^3
#
#
#
# Elastic Constant Matrix: (Units=GPa)
#
#
# Indices 1 2 3 4 5 6 
#
# 1 118.2291 3.7976 39.6387 0.0010 -1.3258 -0.0002
# 2 3.7976 60.8914 13.3991 0.0006 -3.5245 -0.0007
# 3 39.6387 13.3991 61.4977 -0.0065 4.3097 0.0016
# 4 0.0010 0.0006 -0.0065 19.9189 -0.0001 3.6145
# 5 -1.3258 -3.5245 4.3097 -0.0001 43.5126 -0.0018
# 6 -0.0002 -0.0007 0.0016 3.6145 -0.0018 29.1701
#
#
#
# Elastic Compliance Matrix: (Units=1/GPa)
#
#
# Indices 1 2 3 4 5 6 
#
# 1 0.010892 0.000997 -0.007318 -0.000003 0.001137 0.000001
# 2 0.000997 0.017479 -0.004584 -0.000002 0.001900 0.000001
# 3 -0.007318 -0.004584 0.022172 0.000008 -0.002790 -0.000003
# 4 -0.000003 -0.000002 0.000008 0.051358 -0.000001 -0.006364
# 5 0.001137 0.001900 -0.002790 -0.000001 0.023447 0.000002
# 6 0.000001 0.000001 -0.000003 -0.006364 0.000002 0.035070
#
#
# Mechanical properties :
#
#
# Convention : Reuss Voigt Hill
#
# Bulk Modulus (GPa) = 34.80255 39.36544 37.08400
# Shear Modulus (GPa) = 26.06805 30.77252 28.42029
#
# Velocity S-wave (km/s) = 3.67063 3.98812 3.83266
# Velocity P-wave (km/s) = 5.99606 6.44617 6.22518
#
# Compressibility (1/GPa) = 0.02873352
#
# Stress axis : x y z
#
# Youngs Moduli (GPa) = 91.80841 57.21088 45.10272
#
# Poissons Ratio (x) = -0.05702 0.33004
# Poissons Ratio (y) = -0.09151 0.20675
# Poissons Ratio (z) = 0.67181 0.26225
#
# Static dielectric constant tensor:
#      x y z
#    x 2.299430 -0.000030 0.806660 
#    y -0.000030 1.687400 -0.000050 
#    z 0.806660 -0.000050 2.756790 
# 
# From -- ./inp_files/308606.got.cif
#   From: 2010.05.17/outbox.cif.g08.bks.cpg/sg15_155_cif.got.tgz:308606.got - 2010.06.03 18:47:42.
