data_PCOD9271037
_publ_section_title
;
Structure prediction by ZEFSAII (Michael W. Deem and Ramdas Pophale) SiO2 
 PCOD9271037
Probable space group: C 2/C
;
_chemical_formula_sum "Si O2"
_cell_formula_units_Z 36
_cell_length_a 10.156464
_cell_length_b 23.626519
_cell_length_c 13.788526
_cell_angle_alpha 90.000000
_cell_angle_beta 151.779927
_cell_angle_gamma 90.000000
_cell_volume 1564.560014
_symmetry_space_group_name_H-M "C 2/C"
_symmetry_group_IT_number 15
_symmetry_cell_setting 'monoclinic'
loop_
_space_group_symop_operation_xyz
x,y,z
-x,y,1/2-z
-x,-y,-z
x,-y,1/2+z
1/2+x,1/2+y,z
1/2-x,1/2+y,1/2-z
1/2-x,1/2-y,-z
1/2+x,1/2-y,1/2+z
loop_
_atom_site_type_symbol
_atom_site_label
_atom_site_fract_x
_atom_site_fract_y
_atom_site_fract_z
Si Si1 0.032751 0.201956 0.975602
Si Si2 0.202309 0.193899 0.291461
Si Si3 0.000000 0.799126 0.250000
Si Si4 0.671818 0.992987 0.766491
Si Si5 0.172871 0.580277 0.072380
O O1 0.096418 0.172102 0.117719
O O2 0.249127 0.254523 0.102666
O O3 0.761094 0.240000 0.813643
O O4 0.047620 0.169841 0.883010
O O5 0.414171 0.145125 0.462768
O O6 0.000000 0.193933 0.250000
O O7 0.500000 0.973504 0.750000
O O8 0.522404 0.050984 0.633865
O O9 0.643776 0.952256 0.655293
O O10 0.000000 0.000000 0.000000
O O11 0.500000 0.576883 0.250000
#
# Coordination Sequence:
#
# PCOD9271037 Si02
#       5
#     8   8   4   8   8
#     4   9  17  34  55  78 120 165 208 257 305 369
#     4  10  20  36  56  89 122 168 208 260 314 382
#     4   8  16  32  52  72 108 168 204 252 312 346
#     4  11  22  43  69  97 129 169 211 277 335 395
#     4  10  22  41  65  94 131 167 220 265 332 400
#
# _framework density 23.009664999999998
#
# number of rings (size 3 to 8) (size 9 to 14) (size 15 to 20)
#    0.000    2.222    2.222    0.667    0.000    0.000 
#   20.000    1.111    0.000    0.000    0.000    0.000 
#    0.000    0.000    0.000    0.000    0.000    0.000 
#
# Total GULP energy -100241.392088 kJ/mol
# GULP energy per Si atom -5568.966227 kJ/mol
# Density = 2.295729 g / cm^3
# Si number density = 23.009665 Si / 1000 Ang^3
#
#
#
# Elastic Constant Matrix: (Units=GPa)
#
#
# Indices 1 2 3 4 5 6 
#
# 1 163.7788 11.7898 44.3735 -0.0019 -27.7859 0.0130
# 2 11.7898 65.9110 15.5577 -0.0004 -5.1904 0.0011
# 3 44.3735 15.5577 87.5262 -0.0030 -0.8045 0.0187
# 4 -0.0019 -0.0004 -0.0030 12.8829 -0.0011 58.2603
# 5 -27.7859 -5.1904 -0.8045 -0.0011 32.4589 0.0067
# 6 0.0130 0.0011 0.0187 58.2603 0.0067 -223.7746
#
#
#
# Elastic Compliance Matrix: (Units=1/GPa)
#
#
# Indices 1 2 3 4 5 6 
#
# 1 0.008461 0.000048 -0.004233 0.000000 0.007146 0.000000
# 2 0.000048 0.016036 -0.002852 0.000000 0.002535 0.000000
# 3 -0.004233 -0.002852 0.014044 -0.000001 -0.003731 0.000001
# 4 0.000000 0.000000 -0.000001 0.035649 -0.000001 0.009281
# 5 0.007146 0.002535 -0.003731 -0.000001 0.037238 0.000001
# 6 0.000000 0.000000 0.000001 0.009281 0.000001 -0.002052
#
#
# Mechanical properties :
#
#
# Convention : Reuss Voigt Hill
#
# Bulk Modulus (GPa) = 40.86770 51.18422 46.02596
# Shear Modulus (GPa) = 37.99262 -19.32022 9.33620
#
# Velocity S-wave (km/s) = 4.06785 -2.90083 2.01651
# Velocity P-wave (km/s) = 6.31371 3.32765 5.04659
#
# Compressibility (1/GPa) = 0.02446920
#
# Stress axis : x y z
#
# Youngs Moduli (GPa) = 118.18290 62.35954 71.20704
#
# Poissons Ratio (x) = -0.00301 0.30139
# Poissons Ratio (y) = -0.00571 0.20305
# Poissons Ratio (z) = 0.50023 0.17782
#
# Static dielectric constant tensor:
#      x y z
#    x 2.454090 0.000000 0.818310 
#    y 0.000000 1.829680 0.000000 
#    z 0.818310 0.000000 2.995160 
# 
# From -- ./inp_files/81039.got.cif
#   From: 2010.05.17/outbox.cif.g08.bks.cpg/sg15_41_cif.got.tgz:81039.got - 2010.06.03 18:47:42.
