data_PCOD9271173
_publ_section_title
;
Structure prediction by ZEFSAII (Michael W. Deem and Ramdas Pophale) SiO2 
 PCOD9271173
Probable space group: C 2/C
;
_chemical_formula_sum "Si O2"
_cell_formula_units_Z 40
_cell_length_a 15.937658
_cell_length_b 25.017104
_cell_length_c 8.121694
_cell_angle_alpha 90.000000
_cell_angle_beta 31.280588
_cell_angle_gamma 90.000000
_cell_volume 1681.386642
_symmetry_space_group_name_H-M "C 2/C"
_symmetry_group_IT_number 15
_symmetry_cell_setting 'monoclinic'
loop_
_space_group_symop_operation_xyz
x,y,z
-x,y,1/2-z
-x,-y,-z
x,-y,1/2+z
1/2+x,1/2+y,z
1/2-x,1/2+y,1/2-z
1/2-x,1/2-y,-z
1/2+x,1/2-y,1/2+z
loop_
_atom_site_type_symbol
_atom_site_label
_atom_site_fract_x
_atom_site_fract_y
_atom_site_fract_z
Si Si1 0.244589 0.038704 0.612187
Si Si2 0.500000 0.950612 0.250000
Si Si3 0.000000 0.980934 0.250000
Si Si4 0.909942 0.785307 0.237977
Si Si5 0.500000 0.871421 0.750000
Si Si6 0.500000 0.761777 0.250000
Si Si7 0.843842 0.648565 0.196480
O O1 0.346891 0.089248 0.499312
O O2 0.376248 0.990431 0.362260
O O3 0.110821 0.048449 0.696617
O O4 0.132903 0.017544 0.943174
O O5 0.393813 0.909367 0.539386
O O6 0.750000 0.750000 0.500000
O O7 0.828094 0.841676 0.427418
O O8 0.000000 0.767855 0.250000
O O9 0.001251 0.775413 0.911669
O O10 0.520164 0.841074 0.889045
O O11 0.360762 0.806026 0.526180
#
# Coordination Sequence:
#
# PCOD9271173 Si02
#       7
#     8   4   4   8   4   4   8
#     4  10  21  38  66  90 131 187 224 275 345 398
#     4  10  20  42  64  90 133 190 231 270 336 416
#     4  10  20  36  57  98 120 168 238 284 335 390
#     4  10  23  44  69 101 133 178 223 285 353 419
#     4  11  22  41  62  92 133 184 233 271 330 421
#     4   9  22  43  71  96 132 178 214 281 351 409
#     4  10  22  39  65 100 130 171 234 285 319 413
#
# _framework density 23.789888999999999
#
# number of rings (size 3 to 8) (size 9 to 14) (size 15 to 20)
#    0.000    2.000    0.000    2.400    5.600    6.400 
#   14.400    1.000    0.000    0.000    0.000    0.000 
#    0.000    0.000    0.000    0.000    0.000    0.000 
#
# Total GULP energy -111355.540969 kJ/mol
# GULP energy per Si atom -5567.777048 kJ/mol
# Density = 2.373574 g / cm^3
# Si number density = 23.789889 Si / 1000 Ang^3
#
#
#
# Elastic Constant Matrix: (Units=GPa)
#
#
# Indices 1 2 3 4 5 6 
#
# 1 141.3137 12.3535 27.3484 -0.0001 -6.8194 0.0000
# 2 12.3535 87.4854 41.3306 0.0000 7.6691 -0.0001
# 3 27.3484 41.3306 105.8905 -0.0002 20.3070 -0.0001
# 4 -0.0001 0.0000 -0.0002 303.3566 0.0000 170.8555
# 5 -6.8194 7.6691 20.3070 0.0000 47.5152 0.0000
# 6 0.0000 -0.0001 -0.0001 170.8555 0.0000 135.8670
#
#
#
# Elastic Compliance Matrix: (Units=1/GPa)
#
#
# Indices 1 2 3 4 5 6 
#
# 1 0.007641 -0.000172 -0.002311 0.000000 0.002112 0.000000
# 2 -0.000172 0.014019 -0.005434 0.000000 0.000035 0.000000
# 3 -0.002311 -0.005434 0.013133 0.000000 -0.005068 0.000000
# 4 0.000000 0.000000 0.000000 0.011299 0.000000 -0.014209
# 5 0.002112 0.000035 -0.005068 0.000000 0.023509 0.000000
# 6 0.000000 0.000000 0.000000 -0.014209 0.000000 0.025228
#
#
# Mechanical properties :
#
#
# Convention : Reuss Voigt Hill
#
# Bulk Modulus (GPa) = 52.74759 55.19497 53.97128
# Shear Modulus (GPa) = 42.74095 114.25822 78.49958
#
# Velocity S-wave (km/s) = 4.24323 6.93775 5.75054
# Velocity P-wave (km/s) = 6.79905 9.35028 8.17481
#
# Compressibility (1/GPa) = 0.01895821
#
# Stress axis : x y z
#
# Youngs Moduli (GPa) = 130.87764 71.33226 76.14146
#
# Poissons Ratio (x) = 0.01228 0.17598
# Poissons Ratio (y) = 0.02254 0.41375
# Poissons Ratio (z) = 0.30249 0.38762
#
# Static dielectric constant tensor:
#      x y z
#    x 1.473650 0.000000 0.057370 
#    y 0.000000 2.028310 0.000000 
#    z 0.057370 0.000000 1.959400 
# 
# From -- ./inp_files/52117.got.cif
#   From: 2010.05.17/outbox.cif.g08.bks.cpg/sg15_27_cif.got.tgz:52117.got - 2010.06.03 18:47:42.
