data_PCOD9271043
_publ_section_title
;
Structure prediction by ZEFSAII (Michael W. Deem and Ramdas Pophale) SiO2 
 PCOD9271043
Probable space group: C 2/C
;
_chemical_formula_sum "Si O2"
_cell_formula_units_Z 60
_cell_length_a 14.217096
_cell_length_b 22.299909
_cell_length_c 9.348578
_cell_angle_alpha 90.000000
_cell_angle_beta 78.288683
_cell_angle_gamma 90.000000
_cell_volume 2902.172958
_symmetry_space_group_name_H-M "C 2/C"
_symmetry_group_IT_number 15
_symmetry_cell_setting 'monoclinic'
loop_
_space_group_symop_operation_xyz
x,y,z
-x,y,1/2-z
-x,-y,-z
x,-y,1/2+z
1/2+x,1/2+y,z
1/2-x,1/2+y,1/2-z
1/2-x,1/2-y,-z
1/2+x,1/2-y,1/2+z
loop_
_atom_site_type_symbol
_atom_site_label
_atom_site_fract_x
_atom_site_fract_y
_atom_site_fract_z
Si Si1 0.278081 0.135737 0.079618
Si Si2 0.369306 0.056262 0.607204
Si Si3 0.982522 0.334338 0.409280
Si Si4 0.756011 0.252156 0.765202
Si Si5 0.893213 0.437450 0.770372
Si Si6 0.000000 0.861667 0.250000
Si Si7 0.805936 0.113674 0.674556
Si Si8 0.909991 0.754648 0.447277
O O1 0.244307 0.200974 0.141587
O O2 0.313650 0.099962 0.208283
O O3 0.375293 0.142795 0.957749
O O4 0.204915 0.104971 0.992482
O O5 0.444361 0.110323 0.604779
O O6 0.358664 0.048098 0.440691
O O7 0.270457 0.074698 0.713925
O O8 0.408220 0.997032 0.671465
O O9 0.005808 0.288481 0.527895
O O10 0.000000 0.304752 0.250000
O O11 0.777200 0.183914 0.711974
O O12 0.664618 0.256375 0.898091
O O13 0.847656 0.270217 0.834508
O O14 0.000000 0.408444 0.750000
O O15 0.087592 0.895765 0.297394
O O16 0.952287 0.817681 0.383331
#
# Coordination Sequence:
#
# PCOD9271043 Si02
#       8
#     8   8   8   8   8   4   8   8
#     4  12  24  37  63  97 133 167 212 258 322 389
#     4  12  24  42  64  90 133 171 209 259 318 382
#     4  12  21  35  58  90 133 173 207 255 310 388
#     4  10  21  36  62  89 132 169 215 263 314 383
#     4  12  26  40  66  98 135 169 206 255 323 399
#     4  10  24  40  66  84 128 170 220 268 322 376
#     4  11  23  44  62  91 128 172 218 268 321 369
#     4  10  20  36  56  90 126 173 215 254 319 372
#
# _framework density 20.674164000000001
#
# number of rings (size 3 to 8) (size 9 to 14) (size 15 to 20)
#    0.000    0.800    4.000    4.400    3.733    1.067 
#    0.000    0.000    0.000    3.200    0.000    0.000 
#    0.000    0.000    0.000    0.000    0.000    0.000 
#
# Total GULP energy -167806.099416 kJ/mol
# GULP energy per Si atom -5593.536647 kJ/mol
# Density = 2.062711 g / cm^3
# Si number density = 20.674164 Si / 1000 Ang^3
#
#
#
# Elastic Constant Matrix: (Units=GPa)
#
#
# Indices 1 2 3 4 5 6 
#
# 1 90.1571 1.6395 20.6250 0.0000 17.0023 0.0000
# 2 1.6395 24.8765 16.3320 0.0000 11.8246 0.0000
# 3 20.6250 16.3320 120.7209 0.0000 13.6604 0.0000
# 4 0.0000 0.0000 0.0000 29.4902 0.0000 4.8753
# 5 17.0023 11.8246 13.6604 0.0000 33.8023 0.0000
# 6 0.0000 0.0000 0.0000 4.8753 0.0000 15.1830
#
#
#
# Elastic Compliance Matrix: (Units=1/GPa)
#
#
# Indices 1 2 3 4 5 6 
#
# 1 0.012770 0.003709 -0.001897 0.000000 -0.006954 0.000000
# 2 0.003709 0.052146 -0.005673 0.000000 -0.017815 0.000000
# 3 -0.001897 -0.005673 0.009476 0.000000 -0.000891 0.000000
# 4 0.000000 0.000000 0.000000 0.035811 0.000000 -0.011499
# 5 -0.006954 -0.017815 -0.000891 0.000000 0.039674 0.000000
# 6 0.000000 0.000000 0.000000 -0.011499 0.000000 0.069556
#
#
# Mechanical properties :
#
#
# Convention : Reuss Voigt Hill
#
# Bulk Modulus (GPa) = 14.99887 34.77194 24.88540
# Shear Modulus (GPa) = 20.05008 28.83897 24.44453
#
# Velocity S-wave (km/s) = 3.11756 3.73893 3.44229
# Velocity P-wave (km/s) = 4.49773 5.95776 5.27847
#
# Compressibility (1/GPa) = 0.06667168
#
# Stress axis : x y z
#
# Youngs Moduli (GPa) = 78.31102 19.17680 105.53143
#
# Poissons Ratio (x) = -0.07113 0.20015
# Poissons Ratio (y) = -0.29046 0.59863
# Poissons Ratio (z) = 0.14852 0.10878
#
# Static dielectric constant tensor:
#      x y z
#    x 1.754950 0.000000 0.033740 
#    y 0.000000 1.733640 0.000000 
#    z 0.033740 0.000000 1.765250 
# 
# From -- ./inp_files/42202.got.cif
#   From: 2010.05.17/outbox.cif.g08.bks.cpg/sg15_22_cif.got.tgz:42202.got - 2010.06.03 18:47:42.
