data_PCOD9271972
_publ_section_title
;
Structure prediction by ZEFSAII (Michael W. Deem and Ramdas Pophale) SiO2 
 PCOD9271972
Probable space group: C 2/C
;
_chemical_formula_sum "Si O2"
_cell_formula_units_Z 48
_cell_length_a 11.928351
_cell_length_b 8.344633
_cell_length_c 23.345405
_cell_angle_alpha 90.000000
_cell_angle_beta 72.010728
_cell_angle_gamma 90.000000
_cell_volume 2210.150267
_symmetry_space_group_name_H-M "C 2/C"
_symmetry_group_IT_number 15
_symmetry_cell_setting 'monoclinic'
loop_
_space_group_symop_operation_xyz
x,y,z
-x,y,1/2-z
-x,-y,-z
x,-y,1/2+z
1/2+x,1/2+y,z
1/2-x,1/2+y,1/2-z
1/2-x,1/2-y,-z
1/2+x,1/2-y,1/2+z
loop_
_atom_site_type_symbol
_atom_site_label
_atom_site_fract_x
_atom_site_fract_y
_atom_site_fract_z
Si Si1 0.770869 0.903923 0.074295
Si Si2 0.283750 0.517362 0.191272
Si Si3 0.121533 0.203559 0.499907
Si Si4 0.086461 0.309861 0.028094
Si Si5 0.449612 0.496579 0.887045
Si Si6 0.360851 0.345270 0.289860
O O1 0.652734 0.938833 0.056022
O O2 0.748083 0.898200 0.145096
O O3 0.857048 0.051795 0.045499
O O4 0.832307 0.747884 0.037510
O O5 0.422682 0.545276 0.158275
O O6 0.286122 0.440644 0.253671
O O7 0.203064 0.673406 0.196049
O O8 0.250000 0.250000 0.500000
O O9 0.051748 0.141022 0.566635
O O10 0.044058 0.328573 0.476036
O O11 0.088208 0.158040 0.071235
O O12 0.367246 0.556421 0.848187
O O13 0.500000 0.325174 0.250000
#
# Coordination Sequence:
#
# PCOD9271972 Si02
#       6
#     8   8   8   8   8   8
#     4  10  20  37  61  89 125 158 201 258 312 374
#     4  11  21  44  65  86 128 164 212 268 311 373
#     4  11  20  36  62  94 129 162 204 255 316 386
#     4  10  20  36  62  95 119 166 199 248 326 377
#     4  10  20  40  64  86 127 164 205 254 319 378
#     4  10  25  42  61  91 118 167 215 263 315 368
#
# _framework density 21.717980000000001
#
# number of rings (size 3 to 8) (size 9 to 14) (size 15 to 20)
#    0.000    1.667    3.333    2.000    2.333    0.667 
#    3.000    0.000    0.000    0.000    0.000    0.000 
#    0.000    0.000    0.000    0.000    0.000    0.000 
#
# Total GULP energy -133897.118208 kJ/mol
# GULP energy per Si atom -5579.046592 kJ/mol
# Density = 2.166855 g / cm^3
# Si number density = 21.717980 Si / 1000 Ang^3
#
#
#
# Elastic Constant Matrix: (Units=GPa)
#
#
# Indices 1 2 3 4 5 6 
#
# 1 158.3153 30.2474 38.2348 0.0000 30.3849 0.0000
# 2 30.2474 45.6545 22.3473 0.0000 7.5739 0.0000
# 3 38.2348 22.3473 92.1649 0.0000 40.4683 0.0000
# 4 0.0000 0.0000 0.0000 19.1860 0.0000 2.2578
# 5 30.3849 7.5739 40.4683 0.0000 46.8245 0.0000
# 6 0.0000 0.0000 0.0000 2.2578 0.0000 50.2055
#
#
#
# Elastic Compliance Matrix: (Units=1/GPa)
#
#
# Indices 1 2 3 4 5 6 
#
# 1 0.008066 -0.004434 -0.000464 0.000000 -0.004116 0.000000
# 2 -0.004434 0.027398 -0.006642 0.000000 0.004186 0.000000
# 3 -0.000464 -0.006642 0.019418 0.000000 -0.015407 0.000000
# 4 0.000000 0.000000 0.000000 0.052399 0.000000 -0.002356
# 5 -0.004116 0.004186 -0.015407 0.000000 0.036666 0.000000
# 6 0.000000 0.000000 0.000000 -0.002356 0.000000 0.020024
#
#
# Mechanical properties :
#
#
# Convention : Reuss Voigt Hill
#
# Bulk Modulus (GPa) = 31.44380 53.08817 42.26598
# Shear Modulus (GPa) = 25.29742 36.93021 31.11381
#
# Velocity S-wave (km/s) = 3.41664 4.12812 3.78912
# Velocity P-wave (km/s) = 5.48400 6.87162 6.21665
#
# Compressibility (1/GPa) = 0.03180277
#
# Stress axis : x y z
#
# Youngs Moduli (GPa) = 123.98374 36.49922 51.49928
#
# Poissons Ratio (x) = 0.16183 0.02388
# Poissons Ratio (y) = 0.54973 0.34204
# Poissons Ratio (z) = 0.05749 0.24241
#
# Static dielectric constant tensor:
#      x y z
#    x 1.868760 0.000000 0.011020 
#    y 0.000000 1.836060 0.000000 
#    z 0.011020 0.000000 1.798290 
# 
# From -- ./inp_files/267665.got.cif
#   From: 2010.05.17/outbox.cif.g08.bks.cpg/sg15_134_cif.got.tgz:267665.got - 2010.06.03 18:47:42.
