data_PCOD9271363
_publ_section_title
;
Structure prediction by ZEFSAII (Michael W. Deem and Ramdas Pophale) SiO2 
 PCOD9271363
Probable space group: C 2/C
;
_chemical_formula_sum "Si O2"
_cell_formula_units_Z 40
_cell_length_a 9.165304
_cell_length_b 30.531539
_cell_length_c 15.616503
_cell_angle_alpha 90.000000
_cell_angle_beta 154.528194
_cell_angle_gamma 90.000000
_cell_volume 1879.383373
_symmetry_space_group_name_H-M "C 2/C"
_symmetry_group_IT_number 15
_symmetry_cell_setting 'monoclinic'
loop_
_space_group_symop_operation_xyz
x,y,z
-x,y,1/2-z
-x,-y,-z
x,-y,1/2+z
1/2+x,1/2+y,z
1/2-x,1/2+y,1/2-z
1/2-x,1/2-y,-z
1/2+x,1/2-y,1/2+z
loop_
_atom_site_type_symbol
_atom_site_label
_atom_site_fract_x
_atom_site_fract_y
_atom_site_fract_z
Si Si1 0.505727 0.443735 0.650430
Si Si2 0.590220 0.210239 0.024067
Si Si3 0.299567 0.970093 0.464174
Si Si4 0.702385 0.143558 0.942252
Si Si5 0.319578 0.794579 0.744666
O O1 0.500000 0.434439 0.750000
O O2 0.371385 0.493280 0.566239
O O3 0.259850 0.408030 0.480553
O O4 0.903774 0.441787 0.836895
O O5 0.456479 0.207945 0.050702
O O6 0.000000 0.216969 0.250000
O O7 0.545146 0.166937 0.942626
O O8 0.411625 0.251040 0.884528
O O9 0.000000 0.947689 0.250000
O O10 0.500000 0.000000 0.500000
O O11 0.500000 0.155208 0.750000
O O12 0.072368 0.164708 0.129061
O O13 0.500000 0.799405 0.750000
#
# Coordination Sequence:
#
# PCOD9271363 Si02
#       5
#     8   8   8   8   8
#     4   9  16  32  56  82 109 143 188 234 280 337
#     4  10  20  36  59  80 108 151 190 231 284 348
#     4   7  13  27  52  81 106 138 178 225 281 337
#     4  11  22  37  55  80 114 157 199 233 274 337
#     4  11  21  36  57  85 114 143 185 243 292 335
#
# _framework density 21.283576
#
# number of rings (size 3 to 8) (size 9 to 14) (size 15 to 20)
#    0.000    2.800    0.000    6.600    0.000    0.000 
#    0.000    7.000    0.000   15.600    0.000    0.000 
#    0.000    0.000    0.000    0.400    0.000    0.400 
#
# Total GULP energy -111478.099768 kJ/mol
# GULP energy per Si atom -5573.904988 kJ/mol
# Density = 2.123513 g / cm^3
# Si number density = 21.283576 Si / 1000 Ang^3
#
#
#
# Elastic Constant Matrix: (Units=GPa)
#
#
# Indices 1 2 3 4 5 6 
#
# 1 91.1718 13.0417 24.2591 0.0000 -21.2053 0.0000
# 2 13.0417 55.0681 7.0041 0.0000 -11.0111 0.0000
# 3 24.2591 7.0041 42.4820 0.0000 -18.6066 0.0000
# 4 0.0000 0.0000 0.0000 33.2486 0.0000 -2.6940
# 5 -21.2053 -11.0111 -18.6066 0.0000 33.9025 0.0000
# 6 0.0000 0.0000 0.0000 -2.6940 0.0000 4.5295
#
#
#
# Elastic Compliance Matrix: (Units=1/GPa)
#
#
# Indices 1 2 3 4 5 6 
#
# 1 0.013827 -0.001553 -0.005362 0.000000 0.005202 0.000000
# 2 -0.001553 0.019606 0.000023 0.000000 0.005409 0.000000
# 3 -0.005362 0.000023 0.033085 0.000000 0.014812 0.000000
# 4 0.000000 0.000000 0.000000 0.031599 0.000000 0.018794
# 5 0.005202 0.005409 0.014812 0.000000 0.042636 0.000000
# 6 0.000000 0.000000 0.000000 0.018794 0.000000 0.231955
#
#
# Mechanical properties :
#
#
# Convention : Reuss Voigt Hill
#
# Bulk Modulus (GPa) = 18.96251 30.81465 24.88858
# Shear Modulus (GPa) = 12.37418 23.96391 18.16904
#
# Velocity S-wave (km/s) = 2.41383 3.35913 2.92492
# Velocity P-wave (km/s) = 4.08627 5.43642 4.80896
#
# Compressibility (1/GPa) = 0.05273564
#
# Stress axis : x y z
#
# Youngs Moduli (GPa) = 72.32331 51.00561 30.22555
#
# Poissons Ratio (x) = 0.07919 0.16206
# Poissons Ratio (y) = 0.11229 -0.00071
# Poissons Ratio (z) = 0.38776 -0.00119
#
# Static dielectric constant tensor:
#      x y z
#    x 1.850840 0.000000 0.002510 
#    y 0.000000 1.792180 0.000000 
#    z 0.002510 0.000000 1.892940 
# 
# From -- ./inp_files/139952.got.cif
#   From: 2010.05.17/outbox.cif.g08.bks.cpg/sg15_70_cif.got.tgz:139952.got - 2010.06.03 18:47:42.
