data_PCOD9271338
_publ_section_title
;
Structure prediction by ZEFSAII (Michael W. Deem and Ramdas Pophale) SiO2 
 PCOD9271338
Probable space group: C 2/C
;
_chemical_formula_sum "Si O2"
_cell_formula_units_Z 64
_cell_length_a 25.987052
_cell_length_b 5.123832
_cell_length_c 26.806691
_cell_angle_alpha 90.000000
_cell_angle_beta 135.734095
_cell_angle_gamma 90.000000
_cell_volume 2491.402263
_symmetry_space_group_name_H-M "C 2/C"
_symmetry_group_IT_number 15
_symmetry_cell_setting 'monoclinic'
loop_
_space_group_symop_operation_xyz
x,y,z
-x,y,1/2-z
-x,-y,-z
x,-y,1/2+z
1/2+x,1/2+y,z
1/2-x,1/2+y,1/2-z
1/2-x,1/2-y,-z
1/2+x,1/2-y,1/2+z
loop_
_atom_site_type_symbol
_atom_site_label
_atom_site_fract_x
_atom_site_fract_y
_atom_site_fract_z
Si Si1 0.105428 0.321280 0.208777
Si Si2 0.231680 0.472997 0.931735
Si Si3 0.816096 0.178482 0.690856
Si Si4 0.648496 0.751504 0.540985
Si Si5 0.788085 0.251683 0.298726
Si Si6 0.456742 0.249113 0.448917
Si Si7 0.864869 0.360752 0.555412
Si Si8 0.518499 0.453105 0.395563
O O1 0.131543 0.593539 0.250023
O O2 0.150777 0.095974 0.269760
O O3 0.131956 0.300471 0.169056
O O4 0.023373 0.207547 0.153169
O O5 0.194085 0.242856 0.873711
O O6 0.169474 0.559330 0.927835
O O7 0.269434 0.665607 0.917726
O O8 0.302529 0.362401 0.009884
O O9 0.735257 0.209836 0.660528
O O10 0.624091 0.760615 0.581725
O O11 0.587990 0.553279 0.475939
O O12 0.633254 0.007882 0.497721
O O13 0.761865 0.965513 0.264446
O O14 0.500000 0.500000 0.500000
O O15 0.465555 0.288385 0.395828
O O16 0.500000 0.000000 0.500000
O O17 0.943991 0.232150 0.619345
#
# Coordination Sequence:
#
# PCOD9271338 Si02
#       8
#     8   8   8   8   8   8   8   8
#     4  10  22  38  63  89 127 167 207 253 321 381
#     4  10  23  39  65  92 122 166 218 274 316 376
#     4  10  22  40  60  91 124 162 214 262 308 378
#     4  10  21  38  63  92 125 163 212 262 327 379
#     4   8  16  34  54  82 117 158 202 244 300 366
#     4  10  20  36  58  92 129 163 203 254 314 381
#     4  10  21  42  64  90 125 165 217 264 333 373
#     4  10  22  38  62  92 130 167 206 259 320 398
#
# _framework density 25.688344000000001
#
# number of rings (size 3 to 8) (size 9 to 14) (size 15 to 20)
#    0.000    2.250    1.250    0.375    5.250    0.000 
#    0.000    1.875    0.000    0.000    0.000    0.000 
#    0.000    0.000    0.000    0.000    0.000    0.000 
#
# Total GULP energy -178962.188410 kJ/mol
# GULP energy per Si atom -5592.568388 kJ/mol
# Density = 2.562988 g / cm^3
# Si number density = 25.688344 Si / 1000 Ang^3
#
#
#
# Elastic Constant Matrix: (Units=GPa)
#
#
# Indices 1 2 3 4 5 6 
#
# 1 153.9947 25.9557 36.4280 -0.0014 20.2149 0.0030
# 2 25.9557 129.3862 30.1581 0.0031 10.3005 0.0729
# 3 36.4280 30.1581 75.2626 -0.0012 0.3641 -0.0080
# 4 -0.0014 0.0031 -0.0012 37.4531 -0.0049 9.7540
# 5 20.2149 10.3005 0.3641 -0.0049 30.9777 -0.0016
# 6 0.0030 0.0729 -0.0080 9.7540 -0.0016 28.4902
#
#
#
# Elastic Compliance Matrix: (Units=1/GPa)
#
#
# Indices 1 2 3 4 5 6 
#
# 1 0.008117 -0.000341 -0.003767 0.000000 -0.005139 -0.000001
# 2 -0.000341 0.008788 -0.003344 0.000005 -0.002660 -0.000025
# 3 -0.003767 -0.003344 0.016434 -0.000003 0.003377 0.000015
# 4 0.000000 0.000005 -0.000003 0.029314 0.000002 -0.010036
# 5 -0.005139 -0.002660 0.003377 0.000002 0.036480 0.000009
# 6 -0.000001 -0.000025 0.000015 -0.010036 0.000009 0.038536
#
#
# Mechanical properties :
#
#
# Convention : Reuss Voigt Hill
#
# Bulk Modulus (GPa) = 54.24392 60.41415 57.32904
# Shear Modulus (GPa) = 31.50260 37.12432 34.31346
#
# Velocity S-wave (km/s) = 3.50571 3.80568 3.65877
# Velocity P-wave (km/s) = 6.12770 6.54829 6.34148
#
# Compressibility (1/GPa) = 0.01843525
#
# Stress axis : x y z
#
# Youngs Moduli (GPa) = 123.19857 113.78661 60.85088
#
# Poissons Ratio (x) = 0.03881 0.22924
# Poissons Ratio (y) = 0.04203 0.20346
# Poissons Ratio (z) = 0.46411 0.38045
#
# Static dielectric constant tensor:
#      x y z
#    x 2.093240 -0.001840 0.051540 
#    y -0.001840 2.010890 0.001890 
#    z 0.051540 0.001890 1.921790 
# 
# From -- ./inp_files/319331.got.cif
#   From: 2010.05.17/outbox.cif.g08.bks.cpg/sg15_160_cif.got.tgz:319331.got - 2010.06.03 18:47:42.
