data_PCOD9271062
_publ_section_title
;
Structure prediction by ZEFSAII (Michael W. Deem and Ramdas Pophale) SiO2 
 PCOD9271062
Probable space group: C 2/C
;
_chemical_formula_sum "Si O2"
_cell_formula_units_Z 40
_cell_length_a 20.870204
_cell_length_b 4.952843
_cell_length_c 16.051161
_cell_angle_alpha 90.000000
_cell_angle_beta 60.084979
_cell_angle_gamma 90.000000
_cell_volume 1438.101669
_symmetry_space_group_name_H-M "C 2/C"
_symmetry_group_IT_number 15
_symmetry_cell_setting 'monoclinic'
loop_
_space_group_symop_operation_xyz
x,y,z
-x,y,1/2-z
-x,-y,-z
x,-y,1/2+z
1/2+x,1/2+y,z
1/2-x,1/2+y,1/2-z
1/2-x,1/2-y,-z
1/2+x,1/2-y,1/2+z
loop_
_atom_site_type_symbol
_atom_site_label
_atom_site_fract_x
_atom_site_fract_y
_atom_site_fract_z
Si Si1 0.763369 0.834588 0.354109
Si Si2 0.443790 0.182245 0.087669
Si Si3 0.951131 0.104383 0.863985
Si Si4 0.334960 0.833535 0.250739
Si Si5 0.360944 0.128139 0.978991
O O1 0.709262 0.829557 0.308510
O O2 0.830723 0.027519 0.282939
O O3 0.717514 0.982296 0.455946
O O4 0.791735 0.529756 0.343218
O O5 0.488845 0.424656 0.099904
O O6 0.409551 0.991090 0.181662
O O7 0.381251 0.240734 0.059553
O O8 0.500000 0.000000 0.000000
O O9 0.912858 0.388809 0.910218
O O10 0.000000 0.098426 0.750000
O O11 0.886694 0.883167 0.908998
#
# Coordination Sequence:
#
# PCOD9271062 Si02
#       5
#     8   8   8   8   8
#     4   9  17  30  50  76 102 134 171 215 261 302
#     4   9  20  35  56  83 109 139 178 220 264 313
#     4  11  22  36  55  79 109 141 174 219 270 316
#     4   9  17  29  49  77 106 131 169 218 260 304
#     4  10  20  36  57  79 106 139 180 219 259 316
#
# _framework density 27.814444999999999
#
# number of rings (size 3 to 8) (size 9 to 14) (size 15 to 20)
#    0.000    2.400    0.000    2.400    0.000   12.800 
#    0.000    0.000    0.000    7.200    0.000    0.000 
#    0.000    0.000    0.000    0.000    0.000    0.000 
#
# Total GULP energy -112011.435879 kJ/mol
# GULP energy per Si atom -5600.571794 kJ/mol
# Density = 2.775114 g / cm^3
# Si number density = 27.814445 Si / 1000 Ang^3
#
#
#
# Elastic Constant Matrix: (Units=GPa)
#
#
# Indices 1 2 3 4 5 6 
#
# 1 52.5102 21.2401 22.5294 -0.0048 -7.5738 -0.0452
# 2 21.2401 149.2027 28.1202 0.0066 5.2432 -0.0469
# 3 22.5294 28.1202 151.4956 0.0032 -3.7650 -0.0164
# 4 -0.0048 0.0066 0.0032 42.8596 -0.0045 -27.6405
# 5 -7.5738 5.2432 -3.7650 -0.0045 39.7148 -0.0110
# 6 -0.0452 -0.0469 -0.0164 -27.6405 -0.0110 -10.9724
#
#
#
# Elastic Compliance Matrix: (Units=1/GPa)
#
#
# Indices 1 2 3 4 5 6 
#
# 1 0.021917 -0.002774 -0.002638 -0.000018 0.004296 -0.000033
# 2 -0.002774 0.007340 -0.000989 -0.000005 -0.001592 -0.000005
# 3 -0.002638 -0.000989 0.007184 0.000001 0.000309 0.000002
# 4 -0.000018 -0.000005 0.000001 0.008890 -0.000008 -0.022394
# 5 0.004296 -0.001592 0.000309 -0.000008 0.026238 -0.000018
# 6 -0.000033 -0.000005 0.000002 -0.022394 -0.000018 -0.034725
#
#
# Mechanical properties :
#
#
# Convention : Reuss Voigt Hill
#
# Bulk Modulus (GPa) = 42.30268 55.22090 48.76179
# Shear Modulus (GPa) = 86.91627 33.07498 59.99563
#
# Velocity S-wave (km/s) = 5.59611 3.45212 4.64938
# Velocity P-wave (km/s) = 7.54965 5.98213 6.81113
#
# Compressibility (1/GPa) = 0.02363917
#
# Stress axis : x y z
#
# Youngs Moduli (GPa) = 45.62612 136.24740 139.18972
#
# Poissons Ratio (x) = 0.37794 0.36715
# Poissons Ratio (y) = 0.12656 0.13771
# Poissons Ratio (z) = 0.12035 0.13480
#
# Static dielectric constant tensor:
#      x y z
#    x 2.346600 -0.000010 0.063570 
#    y -0.000010 2.049070 0.000000 
#    z 0.063570 0.000000 2.212150 
# 
# From -- ./inp_files/217420.got.cif
#   From: 2010.05.17/outbox.cif.g08.bks.cpg/sg15_109_cif.got.tgz:217420.got - 2010.06.03 18:47:42.
