data_PCOD9271008
_publ_section_title
;
Structure prediction by ZEFSAII (Michael W. Deem and Ramdas Pophale) SiO2 
 PCOD9271008
Probable space group: C 2/C
;
_chemical_formula_sum "Si O2"
_cell_formula_units_Z 64
_cell_length_a 25.868711
_cell_length_b 19.257897
_cell_length_c 18.282396
_cell_angle_alpha 90.000000
_cell_angle_beta 20.636933
_cell_angle_gamma 90.000000
_cell_volume 3210.022426
_symmetry_space_group_name_H-M "C 2/C"
_symmetry_group_IT_number 15
_symmetry_cell_setting 'monoclinic'
loop_
_space_group_symop_operation_xyz
x,y,z
-x,y,1/2-z
-x,-y,-z
x,-y,1/2+z
1/2+x,1/2+y,z
1/2-x,1/2+y,1/2-z
1/2-x,1/2-y,-z
1/2+x,1/2-y,1/2+z
loop_
_atom_site_type_symbol
_atom_site_label
_atom_site_fract_x
_atom_site_fract_y
_atom_site_fract_z
Si Si1 0.571257 0.336224 0.553958
Si Si2 0.807700 0.687610 0.093817
Si Si3 0.411537 0.544015 0.748311
Si Si4 0.262171 0.603040 0.447186
Si Si5 0.042167 0.169180 0.922326
Si Si6 0.577735 0.175206 0.395912
Si Si7 0.783083 0.057359 0.081133
Si Si8 0.176840 0.583777 0.720327
O O1 0.644526 0.266267 0.488604
O O2 0.396089 0.344451 0.790770
O O3 0.597986 0.342149 0.431411
O O4 0.654456 0.397732 0.484456
O O5 0.828936 0.636464 0.997836
O O6 0.635590 0.673977 0.339769
O O7 0.894770 0.678313 0.053485
O O8 0.342843 0.469314 0.816118
O O9 0.398229 0.608243 0.709085
O O10 0.583746 0.543781 0.539729
O O11 0.337754 0.555147 0.925308
O O12 0.166845 0.593307 0.646214
O O13 0.081091 0.249383 0.854923
O O14 0.708892 0.130410 0.191392
O O15 0.424488 0.133513 0.596889
O O16 0.663774 0.997461 0.252460
#
# Coordination Sequence:
#
# PCOD9271008 Si02
#       8
#     8   8   8   8   8   8   8   8
#     4  10  20  36  56  85 118 151 192 238 285 343
#     4  10  21  38  54  89 116 156 194 232 297 344
#     4  10  20  39  64  87 111 153 203 251 283 346
#     4  10  22  38  60  86 119 157 202 242 281 349
#     4  10  21  37  59  84 119 150 197 248 288 349
#     4  11  22  38  59  84 124 152 187 249 301 360
#     4  10  21  37  62  88 115 149 200 244 298 356
#     4  11  21  38  57  87 119 158 191 238 299 352
#
# _framework density 19.937556000000001
#
# number of rings (size 3 to 8) (size 9 to 14) (size 15 to 20)
#    0.000    1.750    3.750    0.750    0.000    4.500 
#    4.500    0.000    0.000    2.250    0.000    0.000 
#    0.000    0.000    0.000    0.000    0.000    0.000 
#
# Total GULP energy -178365.257820 kJ/mol
# GULP energy per Si atom -5573.914307 kJ/mol
# Density = 1.989218 g / cm^3
# Si number density = 19.937556 Si / 1000 Ang^3
#
#
#
# Elastic Constant Matrix: (Units=GPa)
#
#
# Indices 1 2 3 4 5 6 
#
# 1 60.2468 44.9382 3.2662 -0.0015 0.4859 0.0005
# 2 44.9382 132.8464 32.3331 -0.0017 13.3758 0.0002
# 3 3.2662 32.3331 39.2126 -0.0037 -8.2171 -0.0001
# 4 -0.0015 -0.0017 -0.0037 -6.3903 0.0013 3.3363
# 5 0.4859 13.3758 -8.2171 0.0013 13.3710 0.0002
# 6 0.0005 0.0002 -0.0001 3.3363 0.0002 36.0734
#
#
#
# Elastic Compliance Matrix: (Units=1/GPa)
#
#
# Indices 1 2 3 4 5 6 
#
# 1 0.026898 -0.015168 0.015198 -0.000006 0.023536 0.000000
# 2 -0.015168 0.022573 -0.025213 0.000005 -0.037524 0.000000
# 3 0.015198 -0.025213 0.057615 -0.000017 0.060076 0.000001
# 4 -0.000006 0.000005 -0.000017 -0.149279 -0.000001 0.013806
# 5 0.023536 -0.037524 0.060076 -0.000001 0.148390 -0.000001
# 6 0.000000 0.000000 0.000001 0.013806 -0.000001 0.026444
#
#
# Mechanical properties :
#
#
# Convention : Reuss Voigt Hill
#
# Bulk Modulus (GPa) = 17.63005 43.70898 30.66952
# Shear Modulus (GPa) = 24.76321 18.72871 21.74596
#
# Velocity S-wave (km/s) = 3.52808 3.06824 3.30616
# Velocity P-wave (km/s) = 5.04562 5.87560 5.47636
#
# Compressibility (1/GPa) = 0.05672133
#
# Stress axis : x y z
#
# Youngs Moduli (GPa) = 37.17722 44.30104 17.35674
#
# Poissons Ratio (x) = 0.67194 -0.26379
# Poissons Ratio (y) = 0.56389 0.43761
# Poissons Ratio (z) = -0.56502 1.11694
#
# Static dielectric constant tensor:
#      x y z
#    x 1.707190 0.000000 -0.004610 
#    y 0.000000 1.747710 0.000000 
#    z -0.004610 0.000000 1.698850 
# 
# From -- ./inp_files/223125.got.cif
#   From: 2010.05.17/outbox.cif.g08.bks.cpg/sg15_112_cif.got.tgz:223125.got - 2010.06.03 18:47:42.
