data_PCOD9271834
_publ_section_title
;
Structure prediction by ZEFSAII (Michael W. Deem and Ramdas Pophale) SiO2 
 PCOD9271834
Probable space group: C 2/C
;
_chemical_formula_sum "Si O2"
_cell_formula_units_Z 40
_cell_length_a 11.272442
_cell_length_b 16.308141
_cell_length_c 15.810412
_cell_angle_alpha 90.000000
_cell_angle_beta 147.795361
_cell_angle_gamma 90.000000
_cell_volume 1548.987357
_symmetry_space_group_name_H-M "C 2/C"
_symmetry_group_IT_number 15
_symmetry_cell_setting 'monoclinic'
loop_
_space_group_symop_operation_xyz
x,y,z
-x,y,1/2-z
-x,-y,-z
x,-y,1/2+z
1/2+x,1/2+y,z
1/2-x,1/2+y,1/2-z
1/2-x,1/2-y,-z
1/2+x,1/2-y,1/2+z
loop_
_atom_site_type_symbol
_atom_site_label
_atom_site_fract_x
_atom_site_fract_y
_atom_site_fract_z
Si Si1 0.694370 0.875915 0.652140
Si Si2 0.737312 0.405855 0.355516
Si Si3 0.887230 0.086020 0.909547
Si Si4 0.715518 0.651130 0.482111
Si Si5 0.215102 0.711788 0.330392
O O1 0.472819 0.929063 0.541644
O O2 0.666844 0.870438 0.534754
O O3 0.680493 0.800105 0.709278
O O4 0.962296 0.885532 0.821040
O O5 0.500000 0.434870 0.250000
O O6 0.721289 0.424927 0.246915
O O7 0.741545 0.306941 0.366147
O O8 0.733289 0.117638 0.893471
O O9 0.080071 0.154898 0.019674
O O10 0.000000 0.000000 0.000000
O O11 0.750000 0.750000 0.500000
O O12 0.000000 0.681093 0.250000
#
# Coordination Sequence:
#
# PCOD9271834 Si02
#       5
#     8   8   8   8   8
#     4  10  20  36  62 102 130 177 240 292 337 421
#     4  11  22  40  70 103 131 186 246 293 355 441
#     4  11  25  45  64 100 148 182 229 309 374 425
#     4  10  21  39  65  94 139 186 234 293 356 431
#     4  10  20  39  67  92 133 179 234 285 345 430
#
# _framework density 25.823322999999998
#
# number of rings (size 3 to 8) (size 9 to 14) (size 15 to 20)
#    0.000    1.600    0.000    6.000    0.000    5.600 
#   10.800    4.000    0.000    0.000    0.000    0.000 
#    0.000    0.000    0.000    0.000    0.000    0.000 
#
# Total GULP energy -111542.442284 kJ/mol
# GULP energy per Si atom -5577.122114 kJ/mol
# Density = 2.576455 g / cm^3
# Si number density = 25.823323 Si / 1000 Ang^3
#
#
#
# Elastic Constant Matrix: (Units=GPa)
#
#
# Indices 1 2 3 4 5 6 
#
# 1 161.9403 18.6099 64.1003 -0.0018 1.0182 -0.0020
# 2 18.6099 130.5709 35.7785 -0.0004 15.2792 -0.0024
# 3 64.1003 35.7785 146.2411 0.0001 37.6874 -0.0054
# 4 -0.0018 -0.0004 0.0001 27.6788 -0.0002 -2.5652
# 5 1.0182 15.2792 37.6874 -0.0002 52.4581 -0.0036
# 6 -0.0020 -0.0024 -0.0054 -2.5652 -0.0036 0.3361
#
#
#
# Elastic Compliance Matrix: (Units=1/GPa)
#
#
# Indices 1 2 3 4 5 6 
#
# 1 0.007812 -0.000331 -0.004085 0.000005 0.002880 0.000048
# 2 -0.000331 0.008281 -0.001548 0.000006 -0.001294 0.000062
# 3 -0.004085 -0.001548 0.010886 0.000019 -0.007291 0.000204
# 4 0.000005 0.000006 0.000019 0.123483 0.000050 0.942580
# 5 0.002880 -0.001294 -0.007291 0.000050 0.024622 0.000531
# 6 0.000048 0.000062 0.000204 0.942580 0.000531 10.170680
#
#
# Mechanical properties :
#
#
# Convention : Reuss Voigt Hill
#
# Bulk Modulus (GPa) = 66.43682 75.08108 70.75895
# Shear Modulus (GPa) = 0.48250 37.44548 18.96399
#
# Velocity S-wave (km/s) = 0.43273 3.81210 2.71287
# Velocity P-wave (km/s) = 5.10225 6.96521 6.10521
#
# Compressibility (1/GPa) = 0.01505189
#
# Stress axis : x y z
#
# Youngs Moduli (GPa) = 128.00573 120.75390 91.85870
#
# Poissons Ratio (x) = 0.03997 0.37528
# Poissons Ratio (y) = 0.04237 0.14216
# Poissons Ratio (z) = 0.52295 0.18687
#
# Static dielectric constant tensor:
#      x y z
#    x 2.026730 0.000000 0.038810 
#    y 0.000000 2.044140 0.000000 
#    z 0.038810 0.000000 2.117360 
# 
# From -- ./inp_files/145871.got.cif
#   From: 2010.05.17/outbox.cif.g08.bks.cpg/sg15_73_cif.got.tgz:145871.got - 2010.06.03 18:47:42.
