data_PCOD9271250
_publ_section_title
;
Structure prediction by ZEFSAII (Michael W. Deem and Ramdas Pophale) SiO2 
 PCOD9271250
Probable space group: C 2/C
;
_chemical_formula_sum "Si O2"
_cell_formula_units_Z 64
_cell_length_a 8.047304
_cell_length_b 13.048908
_cell_length_c 28.711885
_cell_angle_alpha 90.000000
_cell_angle_beta 78.175714
_cell_angle_gamma 90.000000
_cell_volume 2951.016549
_symmetry_space_group_name_H-M "C 2/C"
_symmetry_group_IT_number 15
_symmetry_cell_setting 'monoclinic'
loop_
_space_group_symop_operation_xyz
x,y,z
-x,y,1/2-z
-x,-y,-z
x,-y,1/2+z
1/2+x,1/2+y,z
1/2-x,1/2+y,1/2-z
1/2-x,1/2-y,-z
1/2+x,1/2-y,1/2+z
loop_
_atom_site_type_symbol
_atom_site_label
_atom_site_fract_x
_atom_site_fract_y
_atom_site_fract_z
Si Si1 0.102623 0.411562 0.519712
Si Si2 0.628641 0.530105 0.417798
Si Si3 0.221936 0.340817 0.665811
Si Si4 0.320093 0.394325 0.424495
Si Si5 0.800587 0.354103 0.345322
Si Si6 0.449403 0.802616 0.612753
Si Si7 0.699100 0.110038 0.831602
Si Si8 0.794945 0.513518 0.761363
O O1 0.259521 0.445700 0.543492
O O2 0.190554 0.354633 0.471127
O O3 0.970755 0.359103 0.562593
O O4 0.000000 0.500000 0.500000
O O5 0.642586 0.627265 0.382066
O O6 0.440638 0.485718 0.436115
O O7 0.723747 0.438345 0.384875
O O8 0.042772 0.363190 0.649328
O O9 0.218941 0.222254 0.678698
O O10 0.255940 0.411273 0.708340
O O11 0.435885 0.298896 0.402641
O O12 0.231582 0.429329 0.381805
O O13 0.730677 0.242656 0.362286
O O14 0.742219 0.391367 0.297518
O O15 0.000877 0.366186 0.336626
O O16 0.761749 0.033911 0.787830
O O17 0.000000 0.511294 0.750000
#
# Coordination Sequence:
#
# PCOD9271250 Si02
#       8
#     8   8   8   8   8   8   8   8
#     4  11  21  34  55  85 112 144 191 238 286 339
#     4   9  19  37  56  77 111 151 188 233 287 341
#     4   9  19  36  57  81 109 147 188 230 284 344
#     4  10  20  37  56  79 113 152 188 231 282 341
#     4   9  18  37  57  79 112 145 185 240 287 336
#     4   9  20  37  58  79 109 150 188 227 285 345
#     4  10  20  36  58  85 114 147 190 238 284 338
#     4   9  19  36  57  81 113 148 182 231 289 338
#
# _framework density 21.687442999999998
#
# number of rings (size 3 to 8) (size 9 to 14) (size 15 to 20)
#    0.000    2.500    0.000    1.500    0.000    3.000 
#    0.000   20.000    0.000    3.000    0.000    0.000 
#    0.000    0.000    0.000    0.000    0.000    0.000 
#
# Total GULP energy -178523.685337 kJ/mol
# GULP energy per Si atom -5578.865167 kJ/mol
# Density = 2.163808 g / cm^3
# Si number density = 21.687443 Si / 1000 Ang^3
#
#
#
# Elastic Constant Matrix: (Units=GPa)
#
#
# Indices 1 2 3 4 5 6 
#
# 1 31.0861 6.8288 14.8095 0.0000 -0.0566 0.0000
# 2 6.8288 41.8751 25.6328 0.0000 5.2230 0.0000
# 3 14.8095 25.6328 122.6262 0.0000 7.2812 0.0000
# 4 0.0000 0.0000 0.0000 33.7927 0.0000 -2.8378
# 5 -0.0566 5.2230 7.2812 0.0000 19.4020 0.0000
# 6 0.0000 0.0000 0.0000 -2.8378 0.0000 26.1503
#
#
#
# Elastic Compliance Matrix: (Units=1/GPa)
#
#
# Indices 1 2 3 4 5 6 
#
# 1 0.034694 -0.003795 -0.003542 0.000000 0.002452 0.000000
# 2 -0.003795 0.028352 -0.005129 0.000000 -0.005719 0.000000
# 3 -0.003542 -0.005129 0.009792 0.000000 -0.002304 0.000000
# 4 0.000000 0.000000 0.000000 0.029864 0.000000 0.003241
# 5 0.002452 -0.005719 -0.002304 0.000000 0.053952 0.000000
# 6 0.000000 0.000000 0.000000 0.003241 0.000000 0.038592
#
#
# Mechanical properties :
#
#
# Convention : Reuss Voigt Hill
#
# Bulk Modulus (GPa) = 20.87438 32.23664 26.55551
# Shear Modulus (GPa) = 21.17316 25.75675 23.46496
#
# Velocity S-wave (km/s) = 3.12795 3.44995 3.29289
# Velocity P-wave (km/s) = 4.76355 5.54671 5.16998
#
# Compressibility (1/GPa) = 0.04790562
#
# Stress axis : x y z
#
# Youngs Moduli (GPa) = 28.82305 35.27075 102.12922
#
# Poissons Ratio (x) = 0.13387 0.36177
# Poissons Ratio (y) = 0.10939 0.52378
# Poissons Ratio (z) = 0.10210 0.18089
#
# Static dielectric constant tensor:
#      x y z
#    x 1.830320 0.000000 -0.026170 
#    y 0.000000 1.825400 0.000000 
#    z -0.026170 0.000000 1.837690 
# 
# From -- ./inp_files/288759.got.cif
#   From: 2010.05.17/outbox.cif.g08.bks.cpg/sg15_145_cif.got.tgz:288759.got - 2010.06.03 18:47:42.
