data_PCOD9271616
_publ_section_title
;
Structure prediction by ZEFSAII (Michael W. Deem and Ramdas Pophale) SiO2 
 PCOD9271616
Probable space group: C 2/C
;
_chemical_formula_sum "Si O2"
_cell_formula_units_Z 56
_cell_length_a 29.887181
_cell_length_b 11.134081
_cell_length_c 9.323692
_cell_angle_alpha 90.000000
_cell_angle_beta 120.868978
_cell_angle_gamma 90.000000
_cell_volume 2663.103420
_symmetry_space_group_name_H-M "C 2/C"
_symmetry_group_IT_number 15
_symmetry_cell_setting 'monoclinic'
loop_
_space_group_symop_operation_xyz
x,y,z
-x,y,1/2-z
-x,-y,-z
x,-y,1/2+z
1/2+x,1/2+y,z
1/2-x,1/2+y,1/2-z
1/2-x,1/2-y,-z
1/2+x,1/2-y,1/2+z
loop_
_atom_site_type_symbol
_atom_site_label
_atom_site_fract_x
_atom_site_fract_y
_atom_site_fract_z
Si Si1 0.874991 0.077639 0.215526
Si Si2 0.662005 0.249967 0.639699
Si Si3 0.617970 0.775784 0.754414
Si Si4 0.466725 0.580943 0.833673
Si Si5 0.326933 0.989929 0.178869
Si Si6 0.823384 0.890059 0.341135
Si Si7 0.739600 0.071893 0.193238
O O1 0.880479 0.195522 0.319407
O O2 0.923094 0.016806 0.215898
O O3 0.858373 0.982945 0.308504
O O4 0.832026 0.099141 0.024025
O O5 0.644337 0.266185 0.447394
O O6 0.664124 0.112321 0.688187
O O7 0.716256 0.324417 0.750724
O O8 0.563602 0.700673 0.658727
O O9 0.654162 0.732469 0.682169
O O10 0.624493 0.920294 0.766609
O O11 0.500000 0.615058 0.750000
O O12 0.500000 0.500000 0.000000
O O13 0.281185 0.067854 0.178920
O O14 0.304787 0.924628 0.000819
O O15 0.766723 0.940968 0.215329
#
# Coordination Sequence:
#
# PCOD9271616 Si02
#       7
#     8   8   8   8   8   8   8
#     4  10  20  37  62  93 126 159 199 262 326 376
#     4  11  23  41  59  86 132 178 218 265 302 365
#     4  11  24  41  60  90 131 166 201 275 331 373
#     4  11  21  40  70 100 117 146 200 261 337 403
#     4  12  25  38  57  88 127 181 223 255 313 363
#     4  10  20  36  60  88 127 167 210 258 312 358
#     4  11  22  37  58  88 122 175 233 259 286 363
#
# _framework density 21.028098
#
# number of rings (size 3 to 8) (size 9 to 14) (size 15 to 20)
#    0.000    1.143    1.429    9.000    4.000    1.143 
#    0.000    0.000    0.000    4.286    0.000    0.000 
#    0.000    0.000    0.000    0.000    0.000    0.000 
#
# Total GULP energy -156075.790520 kJ/mol
# GULP energy per Si atom -5574.135376 kJ/mol
# Density = 2.098024 g / cm^3
# Si number density = 21.028098 Si / 1000 Ang^3
#
#
#
# Elastic Constant Matrix: (Units=GPa)
#
#
# Indices 1 2 3 4 5 6 
#
# 1 73.6326 34.9912 4.5155 0.0000 -8.9691 0.0000
# 2 34.9912 94.0053 17.2965 0.0000 4.4292 0.0000
# 3 4.5155 17.2965 98.0606 0.0000 -13.4670 0.0000
# 4 0.0000 0.0000 0.0000 24.3525 0.0000 -5.1778
# 5 -8.9691 4.4292 -13.4670 0.0000 26.2911 0.0000
# 6 0.0000 0.0000 0.0000 -5.1778 0.0000 29.4864
#
#
#
# Elastic Compliance Matrix: (Units=1/GPa)
#
#
# Indices 1 2 3 4 5 6 
#
# 1 0.017986 -0.007375 0.001598 0.000000 0.008197 0.000000
# 2 -0.007375 0.014253 -0.003065 0.000000 -0.006487 0.000000
# 3 0.001598 -0.003065 0.011629 0.000000 0.007018 0.000000
# 4 0.000000 0.000000 0.000000 0.042656 0.000000 0.007490
# 5 0.008197 -0.006487 0.007018 0.000000 0.045520 0.000000
# 6 0.000000 0.000000 0.000000 0.007490 0.000000 0.035229
#
#
# Mechanical properties :
#
#
# Convention : Reuss Voigt Hill
#
# Bulk Modulus (GPa) = 38.19232 42.14499 40.16865
# Shear Modulus (GPa) = 25.81514 29.95235 27.88375
#
# Velocity S-wave (km/s) = 3.50758 3.77821 3.64541
# Velocity P-wave (km/s) = 5.88270 6.25451 6.07145
#
# Compressibility (1/GPa) = 0.02618328
#
# Stress axis : x y z
#
# Youngs Moduli (GPa) = 55.59809 70.16258 85.99438
#
# Poissons Ratio (x) = 0.51747 -0.13745
# Poissons Ratio (y) = 0.41005 0.26359
# Poissons Ratio (z) = -0.08887 0.21507
#
# Static dielectric constant tensor:
#      x y z
#    x 1.855580 0.000000 0.018500 
#    y 0.000000 1.877340 0.000000 
#    z 0.018500 0.000000 1.744720 
# 
# From -- ./inp_files/69452.got.cif
#   From: 2010.05.17/outbox.cif.g08.bks.cpg/sg15_35_cif.got.tgz:69452.got - 2010.06.03 18:47:42.
