data_PCOD9271765
_publ_section_title
;
Structure prediction by ZEFSAII (Michael W. Deem and Ramdas Pophale) SiO2 
 PCOD9271765
Probable space group: C 2/C
;
_chemical_formula_sum "Si O2"
_cell_formula_units_Z 48
_cell_length_a 13.633807
_cell_length_b 21.484176
_cell_length_c 10.454715
_cell_angle_alpha 90.000000
_cell_angle_beta 129.017724
_cell_angle_gamma 90.000000
_cell_volume 2379.259493
_symmetry_space_group_name_H-M "C 2/C"
_symmetry_group_IT_number 15
_symmetry_cell_setting 'monoclinic'
loop_
_space_group_symop_operation_xyz
x,y,z
-x,y,1/2-z
-x,-y,-z
x,-y,1/2+z
1/2+x,1/2+y,z
1/2-x,1/2+y,1/2-z
1/2-x,1/2-y,-z
1/2+x,1/2-y,1/2+z
loop_
_atom_site_type_symbol
_atom_site_label
_atom_site_fract_x
_atom_site_fract_y
_atom_site_fract_z
Si Si1 0.718943 0.014414 0.720193
Si Si2 0.142880 0.429747 0.895093
Si Si3 0.190129 0.107514 0.324620
Si Si4 0.767651 0.690861 0.169932
Si Si5 0.494558 0.715922 0.879060
Si Si6 0.912314 0.893689 0.487946
O O1 0.653379 0.057252 0.556390
O O2 0.670931 0.988534 0.820250
O O3 0.728735 0.951258 0.647925
O O4 0.848609 0.051099 0.856035
O O5 0.226109 0.370929 0.914647
O O6 0.000000 0.411923 0.750000
O O7 0.243486 0.166039 0.292919
O O8 0.176196 0.117120 0.462561
O O9 0.051587 0.091543 0.154281
O O10 0.898543 0.727709 0.276033
O O11 0.640857 0.729831 0.032677
O O12 0.500000 0.679477 0.750000
O O13 0.432117 0.670039 0.928880
#
# Coordination Sequence:
#
# PCOD9271765 Si02
#       6
#     8   8   8   8   8   8
#     4  11  20  38  61  88 125 165 205 253 309 374
#     4  11  23  39  61  90 126 164 207 256 314 369
#     4   9  20  38  58  93 122 163 201 256 313 366
#     4  10  23  40  63  87 124 161 211 262 307 369
#     4  11  22  39  61  88 121 161 210 261 311 362
#     4  10  20  36  61  89 126 158 209 252 307 375
#
# _framework density 20.174344999999999
#
# number of rings (size 3 to 8) (size 9 to 14) (size 15 to 20)
#    0.000    1.667    1.667    3.000    0.000    2.000 
#    3.000    0.000    0.000    0.000    0.000    0.000 
#    0.000    0.000    0.000    0.000    0.000    0.000 
#
# Total GULP energy -133647.259849 kJ/mol
# GULP energy per Si atom -5568.635827 kJ/mol
# Density = 2.012843 g / cm^3
# Si number density = 20.174345 Si / 1000 Ang^3
#
#
#
# Elastic Constant Matrix: (Units=GPa)
#
#
# Indices 1 2 3 4 5 6 
#
# 1 71.0469 20.1617 34.7852 0.0000 -0.3923 0.0000
# 2 20.1617 51.3954 38.2270 0.0000 5.6685 0.0000
# 3 34.7852 38.2270 76.8595 0.0000 -2.8104 0.0000
# 4 0.0000 0.0000 0.0000 19.8970 0.0000 23.5600
# 5 -0.3923 5.6685 -2.8104 0.0000 34.6710 0.0000
# 6 0.0000 0.0000 0.0000 23.5600 0.0000 34.7783
#
#
#
# Elastic Compliance Matrix: (Units=1/GPa)
#
#
# Indices 1 2 3 4 5 6 
#
# 1 0.018166 -0.001574 -0.007444 0.000000 -0.000140 0.000000
# 2 -0.001574 0.032459 -0.015673 0.000000 -0.006595 0.000000
# 3 -0.007444 -0.015673 0.024337 0.000000 0.004451 0.000000
# 4 0.000000 0.000000 0.000000 0.254028 0.000000 -0.172087
# 5 -0.000140 -0.006595 0.004451 0.000000 0.030280 0.000000
# 6 0.000000 0.000000 0.000000 -0.172087 0.000000 0.145331
#
#
# Mechanical properties :
#
#
# Convention : Reuss Voigt Hill
#
# Bulk Modulus (GPa) = 39.09136 42.84996 40.97066
# Shear Modulus (GPa) = 8.88875 24.94444 16.91660
#
# Velocity S-wave (km/s) = 2.10132 3.52013 2.89886
# Velocity P-wave (km/s) = 5.03053 6.14879 5.61756
#
# Compressibility (1/GPa) = 0.02558110
#
# Stress axis : x y z
#
# Youngs Moduli (GPa) = 55.04898 30.80821 41.08924
#
# Poissons Ratio (x) = 0.04850 0.30585
# Poissons Ratio (y) = 0.08666 0.64397
# Poissons Ratio (z) = 0.40976 0.48284
#
# Static dielectric constant tensor:
#      x y z
#    x 1.750310 0.000000 -0.025220 
#    y 0.000000 1.727970 0.000000 
#    z -0.025220 0.000000 1.740370 
# 
# From -- ./inp_files/99952.got.cif
#   From: 2010.05.17/outbox.cif.g08.bks.cpg/sg15_50_cif.got.tgz:99952.got - 2010.06.03 18:47:42.
