data_PCOD9271172
_publ_section_title
;
Structure prediction by ZEFSAII (Michael W. Deem and Ramdas Pophale) SiO2 
 PCOD9271172
Probable space group: C 2/C
;
_chemical_formula_sum "Si O2"
_cell_formula_units_Z 64
_cell_length_a 24.522927
_cell_length_b 18.190121
_cell_length_c 15.540804
_cell_angle_alpha 90.000000
_cell_angle_beta 158.425589
_cell_angle_gamma 90.000000
_cell_volume 2549.094587
_symmetry_space_group_name_H-M "C 2/C"
_symmetry_group_IT_number 15
_symmetry_cell_setting 'monoclinic'
loop_
_space_group_symop_operation_xyz
x,y,z
-x,y,1/2-z
-x,-y,-z
x,-y,1/2+z
1/2+x,1/2+y,z
1/2-x,1/2+y,1/2-z
1/2-x,1/2-y,-z
1/2+x,1/2-y,1/2+z
loop_
_atom_site_type_symbol
_atom_site_label
_atom_site_fract_x
_atom_site_fract_y
_atom_site_fract_z
Si Si1 0.618715 0.393381 0.162842
Si Si2 0.076721 0.472360 0.743541
Si Si3 0.617599 0.829184 0.043258
Si Si4 0.801452 0.162980 0.161759
Si Si5 0.403808 0.730504 0.682999
Si Si6 0.706723 0.974233 0.618525
Si Si7 0.322752 0.327078 0.504106
Si Si8 0.373349 0.568159 0.623379
O O1 0.761730 0.342086 0.356079
O O2 0.656485 0.469675 0.168021
O O3 0.596107 0.415895 0.229989
O O4 0.478623 0.348260 0.924617
O O5 0.012689 0.389584 0.653104
O O6 0.928506 0.519708 0.513779
O O7 0.142729 0.494494 0.933573
O O8 0.217416 0.472080 0.888356
O O9 0.721906 0.851373 0.276978
O O10 0.536139 0.750924 0.944660
O O11 0.747622 0.108039 0.156810
O O12 0.770204 0.137880 0.017305
O O13 0.719408 0.240320 0.050389
O O14 0.500000 0.771672 0.750000
O O15 0.250000 0.750000 0.500000
O O16 0.363924 0.653114 0.580166
O O17 0.500000 0.335913 0.750000
O O18 0.500000 0.533535 0.750000
#
# Coordination Sequence:
#
# PCOD9271172 Si02
#       8
#     8   8   8   8   8   8   8   8
#     4  10  20  39  68  95 133 182 234 283 345 418
#     4   9  19  37  64  96 131 169 215 276 352 412
#     4  11  21  39  67  97 139 181 232 282 357 416
#     4  11  23  44  68  97 135 181 246 286 334 409
#     4  11  21  32  57  97 138 184 227 280 349 425
#     4   9  20  37  72 100 125 176 233 283 339 422
#     4  11  25  44  64  97 140 184 233 296 340 396
#     4  10  20  36  57  96 143 176 218 281 349 424
#
# _framework density 25.106954999999999
#
# number of rings (size 3 to 8) (size 9 to 14) (size 15 to 20)
#    0.000    1.750    2.500    2.625    5.250    0.000 
#    0.000    4.375    0.000    0.000    0.000    0.000 
#    0.000    0.000    0.000    0.000    0.000    0.000 
#
# Total GULP energy -178334.283121 kJ/mol
# GULP energy per Si atom -5572.946348 kJ/mol
# Density = 2.504981 g / cm^3
# Si number density = 25.106955 Si / 1000 Ang^3
#
#
#
# Elastic Constant Matrix: (Units=GPa)
#
#
# Indices 1 2 3 4 5 6 
#
# 1 113.9903 4.4027 51.7284 0.0000 36.3944 0.0000
# 2 4.4027 78.7868 17.0023 0.0000 22.6658 0.0000
# 3 51.7284 17.0023 115.0472 0.0000 32.1447 0.0000
# 4 0.0000 0.0000 0.0000 17.0546 0.0000 7.1909
# 5 36.3944 22.6658 32.1447 0.0000 58.2622 0.0000
# 6 0.0000 0.0000 0.0000 7.1909 0.0000 6.6345
#
#
#
# Elastic Compliance Matrix: (Units=1/GPa)
#
#
# Indices 1 2 3 4 5 6 
#
# 1 0.012633 0.002032 -0.004202 0.000000 -0.006363 0.000000
# 2 0.002032 0.014661 -0.001338 0.000000 -0.006234 0.000000
# 3 -0.004202 -0.001338 0.011705 0.000000 -0.003312 0.000000
# 4 0.000000 0.000000 0.000000 0.107985 0.000000 -0.117041
# 5 -0.006363 -0.006234 -0.003312 0.000000 0.025391 0.000000
# 6 0.000000 0.000000 0.000000 -0.117041 0.000000 0.277584
#
#
# Mechanical properties :
#
#
# Convention : Reuss Voigt Hill
#
# Bulk Modulus (GPa) = 31.26898 50.45455 40.86176
# Shear Modulus (GPa) = 10.69205 32.03633 21.36419
#
# Velocity S-wave (km/s) = 2.06588 3.57598 2.92023
# Velocity P-wave (km/s) = 4.26284 6.09833 5.26125
#
# Compressibility (1/GPa) = 0.03198058
#
# Stress axis : x y z
#
# Youngs Moduli (GPa) = 79.15885 68.20689 85.43502
#
# Poissons Ratio (x) = -0.13856 0.35904
# Poissons Ratio (y) = -0.16081 0.11433
# Poissons Ratio (z) = 0.33266 0.09128
#
# Static dielectric constant tensor:
#      x y z
#    x 4.116500 0.000000 -2.766800 
#    y 0.000000 2.187050 0.000000 
#    z -2.766800 0.000000 5.645550 
# 
# From -- ./inp_files/223178.got.cif
#   From: 2010.05.17/outbox.cif.g08.bks.cpg/sg15_112_cif.got.tgz:223178.got - 2010.06.03 18:47:42.
