data_PCOD9271739
_publ_section_title
;
Structure prediction by ZEFSAII (Michael W. Deem and Ramdas Pophale) SiO2 
 PCOD9271739
Probable space group: C 2/C
;
_chemical_formula_sum "Si O2"
_cell_formula_units_Z 56
_cell_length_a 33.160678
_cell_length_b 10.738780
_cell_length_c 9.114618
_cell_angle_alpha 90.000000
_cell_angle_beta 59.090030
_cell_angle_gamma 90.000000
_cell_volume 2784.785322
_symmetry_space_group_name_H-M "C 2/C"
_symmetry_group_IT_number 15
_symmetry_cell_setting 'monoclinic'
loop_
_space_group_symop_operation_xyz
x,y,z
-x,y,1/2-z
-x,-y,-z
x,-y,1/2+z
1/2+x,1/2+y,z
1/2-x,1/2+y,1/2-z
1/2-x,1/2-y,-z
1/2+x,1/2-y,1/2+z
loop_
_atom_site_type_symbol
_atom_site_label
_atom_site_fract_x
_atom_site_fract_y
_atom_site_fract_z
Si Si1 0.995480 0.648091 0.984485
Si Si2 0.421359 0.807248 0.359177
Si Si3 0.598716 0.537164 0.008491
Si Si4 0.461878 0.593814 0.649474
Si Si5 0.264583 0.967050 0.448954
Si Si6 0.199713 0.096795 0.803205
Si Si7 0.322126 0.125161 0.112467
O O1 0.958479 0.666705 0.920008
O O2 0.048754 0.678715 0.842005
O O3 0.978922 0.762468 0.119419
O O4 0.000000 0.500000 0.000000
O O5 0.405687 0.664251 0.390943
O O6 0.376189 0.892906 0.466056
O O7 0.559760 0.447735 0.154482
O O8 0.582264 0.576189 0.877644
O O9 0.654044 0.506559 0.901932
O O10 0.500000 0.500000 0.500000
O O11 0.229414 0.905438 0.397918
O O12 0.290923 0.886718 0.523532
O O13 0.232846 0.058837 0.606939
O O14 0.302670 0.033883 0.273442
O O15 0.182008 0.236606 0.814930
#
# Coordination Sequence:
#
# PCOD9271739 Si02
#       7
#     8   8   8   8   8   8   8
#     4  10  21  38  59  80 119 155 195 243 294 347
#     4   9  20  38  56  80 115 159 187 241 298 349
#     4  10  20  36  61  87 115 157 192 240 292 354
#     4  11  20  37  61  86 119 154 199 237 294 348
#     4  10  21  36  59  86 115 155 194 246 296 362
#     4  10  20  38  59  86 121 149 195 246 303 346
#     4  10  21  36  61  84 115 153 200 241 298 354
#
# _framework density 20.109269000000001
#
# number of rings (size 3 to 8) (size 9 to 14) (size 15 to 20)
#    0.000    2.000    1.429    2.143    2.000    0.000 
#    5.143    0.000    3.143    0.000    0.000    0.000 
#    0.000    0.000    0.000    0.000    0.000    0.000 
#
# Total GULP energy -155906.591989 kJ/mol
# GULP energy per Si atom -5568.092571 kJ/mol
# Density = 2.006350 g / cm^3
# Si number density = 20.109269 Si / 1000 Ang^3
#
#
#
# Elastic Constant Matrix: (Units=GPa)
#
#
# Indices 1 2 3 4 5 6 
#
# 1 69.2236 5.3242 37.7597 0.0000 -21.2213 0.0000
# 2 5.3242 79.9496 25.1294 0.0000 -7.6340 0.0000
# 3 37.7597 25.1294 93.6477 0.0000 -11.3423 0.0000
# 4 0.0000 0.0000 0.0000 14.7243 0.0000 -5.0791
# 5 -21.2213 -7.6340 -11.3423 0.0000 36.3085 0.0000
# 6 0.0000 0.0000 0.0000 -5.0791 0.0000 17.5508
#
#
#
# Elastic Compliance Matrix: (Units=1/GPa)
#
#
# Indices 1 2 3 4 5 6 
#
# 1 0.022031 0.002123 -0.008147 0.000000 0.010778 0.000000
# 2 0.002123 0.013978 -0.004262 0.000000 0.002848 0.000000
# 3 -0.008147 -0.004262 0.014989 0.000000 -0.000976 0.000000
# 4 0.000000 0.000000 0.000000 0.075446 0.000000 0.021834
# 5 0.010778 0.002848 -0.000976 0.000000 0.034135 0.000000
# 6 0.000000 0.000000 0.000000 0.021834 0.000000 0.063296
#
#
# Mechanical properties :
#
#
# Convention : Reuss Voigt Hill
#
# Bulk Modulus (GPa) = 32.86767 42.13860 37.50314
# Shear Modulus (GPa) = 19.63942 25.35723 22.49833
#
# Velocity S-wave (km/s) = 3.12851 3.55487 3.34848
# Velocity P-wave (km/s) = 5.42495 6.15222 5.79999
#
# Compressibility (1/GPa) = 0.03042503
#
# Stress axis : x y z
#
# Youngs Moduli (GPa) = 45.39089 71.54076 66.71620
#
# Poissons Ratio (x) = -0.15187 0.54356
# Poissons Ratio (y) = -0.09636 0.28433
# Poissons Ratio (z) = 0.36982 0.30489
#
# Static dielectric constant tensor:
#      x y z
#    x 1.741910 0.000000 -0.013100 
#    y 0.000000 2.002630 0.000000 
#    z -0.013100 0.000000 1.745520 
# 
# From -- ./inp_files/69304.got.cif
#   From: 2010.05.17/outbox.cif.g08.bks.cpg/sg15_35_cif.got.tgz:69304.got - 2010.06.03 18:47:42.
