data_PCOD9271392
_publ_section_title
;
Structure prediction by ZEFSAII (Michael W. Deem and Ramdas Pophale) SiO2 
 PCOD9271392
Probable space group: C 2/C
;
_chemical_formula_sum "Si O2"
_cell_formula_units_Z 56
_cell_length_a 18.212352
_cell_length_b 28.162995
_cell_length_c 9.612720
_cell_angle_alpha 90.000000
_cell_angle_beta 147.782146
_cell_angle_gamma 90.000000
_cell_volume 2628.647669
_symmetry_space_group_name_H-M "C 2/C"
_symmetry_group_IT_number 15
_symmetry_cell_setting 'monoclinic'
loop_
_space_group_symop_operation_xyz
x,y,z
-x,y,1/2-z
-x,-y,-z
x,-y,1/2+z
1/2+x,1/2+y,z
1/2-x,1/2+y,1/2-z
1/2-x,1/2-y,-z
1/2+x,1/2-y,1/2+z
loop_
_atom_site_type_symbol
_atom_site_label
_atom_site_fract_x
_atom_site_fract_y
_atom_site_fract_z
Si Si1 0.849963 0.424956 0.580829
Si Si2 0.642401 0.815800 0.375590
Si Si3 0.772163 0.616822 0.249450
Si Si4 0.226659 0.603733 0.823621
Si Si5 0.654262 0.035267 0.934965
Si Si6 0.460899 0.720294 0.397899
Si Si7 0.000000 0.821457 0.250000
Si Si8 0.500000 0.646028 0.250000
O O1 0.838720 0.400880 0.712316
O O2 0.759812 0.399642 0.319034
O O3 0.808555 0.480270 0.517303
O O4 0.000000 0.422214 0.750000
O O5 0.637809 0.847285 0.509907
O O6 0.640463 0.852390 0.244050
O O7 0.543529 0.772352 0.176128
O O8 0.799985 0.795742 0.634864
O O9 0.757479 0.569778 0.322994
O O10 0.631409 0.644428 0.987486
O O11 0.164427 0.557541 0.797266
O O12 0.381183 0.613826 0.122089
O O13 0.500000 0.038362 0.750000
O O14 0.512755 0.712596 0.636630
O O15 0.547029 0.683408 0.442581
#
# Coordination Sequence:
#
# PCOD9271392 Si02
#       8
#     8   8   8   8   8   8   4   4
#     4  11  22  37  57  86 120 153 199 254 300 340
#     4   8  18  36  58  78 114 157 207 229 282 359
#     4  10  20  37  60  91 119 156 200 248 301 363
#     4  10  20  37  58  85 117 153 194 245 298 362
#     4  10  21  39  61  82 114 163 207 242 291 356
#     4   9  17  36  57  83 112 159 195 239 288 354
#     4  10  20  36  63  90 124 152 193 252 316 350
#     4  10  20  36  59  84 120 156 189 238 312 366
#
# _framework density 21.303730000000002
#
# number of rings (size 3 to 8) (size 9 to 14) (size 15 to 20)
#    0.000    2.286    0.000    3.429    0.000    2.286 
#    9.000    4.286    0.000    6.857    0.000    0.000 
#    0.000    0.000    0.000    0.000    0.000    0.000 
#
# Total GULP energy -156213.030434 kJ/mol
# GULP energy per Si atom -5579.036801 kJ/mol
# Density = 2.125524 g / cm^3
# Si number density = 21.303730 Si / 1000 Ang^3
#
#
#
# Elastic Constant Matrix: (Units=GPa)
#
#
# Indices 1 2 3 4 5 6 
#
# 1 110.0002 61.3037 30.7879 0.0000 -34.6960 0.0000
# 2 61.3037 146.9386 57.3656 0.0000 -15.5941 0.0000
# 3 30.7879 57.3656 87.0643 0.0000 -21.5530 0.0000
# 4 0.0000 0.0000 0.0000 25.3574 0.0000 -3.1323
# 5 -34.6960 -15.5941 -21.5530 0.0000 45.3610 0.0000
# 6 0.0000 0.0000 0.0000 -3.1323 0.0000 28.6706
#
#
#
# Elastic Compliance Matrix: (Units=1/GPa)
#
#
# Indices 1 2 3 4 5 6 
#
# 1 0.015134 -0.005559 0.000798 0.000000 0.010043 0.000000
# 2 -0.005559 0.011209 -0.006254 0.000000 -0.003370 0.000000
# 3 0.000798 -0.006254 0.016935 0.000000 0.006507 0.000000
# 4 0.000000 0.000000 0.000000 0.039976 0.000000 0.004367
# 5 0.010043 -0.003370 0.006507 0.000000 0.031660 0.000000
# 6 0.000000 0.000000 0.000000 0.004367 0.000000 0.035356
#
#
# Mechanical properties :
#
#
# Convention : Reuss Voigt Hill
#
# Bulk Modulus (GPa) = 47.06649 71.43530 59.25090
# Shear Modulus (GPa) = 27.87328 32.84751 30.36040
#
# Velocity S-wave (km/s) = 3.62107 3.93092 3.77917
# Velocity P-wave (km/s) = 6.29475 7.36257 6.84950
#
# Compressibility (1/GPa) = 0.02124654
#
# Stress axis : x y z
#
# Youngs Moduli (GPa) = 66.07711 89.21537 59.04927
#
# Poissons Ratio (x) = 0.49599 -0.04710
# Poissons Ratio (y) = 0.36735 0.36928
# Poissons Ratio (z) = -0.05271 0.55793
#
# Static dielectric constant tensor:
#      x y z
#    x 1.843740 0.000000 0.011000 
#    y 0.000000 1.755510 0.000000 
#    z 0.011000 0.000000 1.870370 
# 
# From -- ./inp_files/52400.got.cif
#   From: 2010.05.17/outbox.cif.g08.bks.cpg/sg15_27_cif.got.tgz:52400.got - 2010.06.03 18:47:42.
