data_PCOD9271992
_publ_section_title
;
Structure prediction by ZEFSAII (Michael W. Deem and Ramdas Pophale) SiO2 
 PCOD9271992
Probable space group: C 2/C
;
_chemical_formula_sum "Si O2"
_cell_formula_units_Z 52
_cell_length_a 23.440890
_cell_length_b 8.160053
_cell_length_c 11.064413
_cell_angle_alpha 90.000000
_cell_angle_beta 87.208282
_cell_angle_gamma 90.000000
_cell_volume 2113.877045
_symmetry_space_group_name_H-M "C 2/C"
_symmetry_group_IT_number 15
_symmetry_cell_setting 'monoclinic'
loop_
_space_group_symop_operation_xyz
x,y,z
-x,y,1/2-z
-x,-y,-z
x,-y,1/2+z
1/2+x,1/2+y,z
1/2-x,1/2+y,1/2-z
1/2-x,1/2-y,-z
1/2+x,1/2-y,1/2+z
loop_
_atom_site_type_symbol
_atom_site_label
_atom_site_fract_x
_atom_site_fract_y
_atom_site_fract_z
Si Si1 0.092194 0.227094 0.662663
Si Si2 0.502944 0.227186 0.955210
Si Si3 0.314553 0.115354 0.479801
Si Si4 0.222598 0.029008 0.128695
Si Si5 0.417165 0.947723 0.611723
Si Si6 0.500000 0.512154 0.250000
Si Si7 0.775004 0.111528 0.627794
O O1 0.044951 0.254170 0.564282
O O2 0.152870 0.233706 0.587097
O O3 0.097214 0.373329 0.758022
O O4 0.059972 0.085227 0.739119
O O5 0.501437 0.379976 0.869324
O O6 0.530736 0.075474 0.880639
O O7 0.441786 0.185961 0.016434
O O8 0.264311 0.123074 0.585114
O O9 0.364696 0.031245 0.551061
O O10 0.284471 0.988522 0.389760
O O11 0.260384 0.196901 0.146736
O O12 0.196537 0.975951 0.259779
O O13 0.193240 0.083788 0.004404
#
# Coordination Sequence:
#
# PCOD9271992 Si02
#       7
#     8   8   8   8   8   4   8
#     4  11  21  38  61  83 121 170 215 258 321 359
#     4  10  23  36  56  85 116 168 224 260 301 370
#     4   9  20  36  63  90 119 158 219 259 300 377
#     4   9  19  38  66  94 128 159 211 251 324 382
#     4  10  20  36  63  81 115 169 223 257 303 370
#     4  12  24  36  58  84 132 164 214 272 316 360
#     4   9  19  38  68  97 125 168 200 261 313 398
#
# _framework density 24.599350000000001
#
# number of rings (size 3 to 8) (size 9 to 14) (size 15 to 20)
#    0.923    1.231    1.538    1.385    6.462    0.615 
#    0.000    0.000   10.154    0.000    0.000    0.000 
#    0.000    0.000    0.000    0.000    0.000    0.000 
#
# Total GULP energy -145053.888755 kJ/mol
# GULP energy per Si atom -5578.995721 kJ/mol
# Density = 2.454336 g / cm^3
# Si number density = 24.599350 Si / 1000 Ang^3
#
#
#
# Elastic Constant Matrix: (Units=GPa)
#
#
# Indices 1 2 3 4 5 6 
#
# 1 97.9703 1.0246 25.5079 0.0000 -14.9875 0.0000
# 2 1.0246 71.3694 41.2247 0.0000 -10.1711 0.0000
# 3 25.5079 41.2247 146.6512 0.0000 10.4856 0.0000
# 4 0.0000 0.0000 0.0000 97.5087 0.0000 -18.5295
# 5 -14.9875 -10.1711 10.4856 0.0000 38.7569 0.0000
# 6 0.0000 0.0000 0.0000 -18.5295 0.0000 31.2404
#
#
#
# Elastic Compliance Matrix: (Units=1/GPa)
#
#
# Indices 1 2 3 4 5 6 
#
# 1 0.011974 0.002589 -0.003253 0.000000 0.006190 0.000000
# 2 0.002589 0.018659 -0.006238 0.000000 0.007586 0.000000
# 3 -0.003253 -0.006238 0.009530 0.000000 -0.005473 0.000000
# 4 0.000000 0.000000 0.000000 0.011558 0.000000 0.006856
# 5 0.006190 0.007586 -0.005473 0.000000 0.031667 0.000000
# 6 0.000000 0.000000 0.000000 0.006856 0.000000 0.036076
#
#
# Mechanical properties :
#
#
# Convention : Reuss Voigt Hill
#
# Bulk Modulus (GPa) = 37.93775 50.16727 44.05251
# Shear Modulus (GPa) = 35.19806 50.05010 42.62408
#
# Velocity S-wave (km/s) = 3.78677 4.51556 4.16713
# Velocity P-wave (km/s) = 5.88007 6.90109 6.41094
#
# Compressibility (1/GPa) = 0.02635897
#
# Stress axis : x y z
#
# Youngs Moduli (GPa) = 83.51375 53.59460 104.93627
#
# Poissons Ratio (x) = -0.13878 0.34138
# Poissons Ratio (y) = -0.21625 0.65457
# Poissons Ratio (z) = 0.27169 0.33431
#
# Static dielectric constant tensor:
#      x y z
#    x 1.947980 0.000000 -0.025420 
#    y 0.000000 2.019910 0.000000 
#    z -0.025420 0.000000 1.962110 
# 
# From -- ./inp_files/125301.got.cif
#   From: 2010.05.17/outbox.cif.g08.bks.cpg/sg15_63_cif.got.tgz:125301.got - 2010.06.03 18:47:42.
