data_PCOD9271997
_publ_section_title
;
Structure prediction by ZEFSAII (Michael W. Deem and Ramdas Pophale) SiO2 
 PCOD9271997
Probable space group: C 2/C
;
_chemical_formula_sum "Si O2"
_cell_formula_units_Z 40
_cell_length_a 5.347748
_cell_length_b 30.091481
_cell_length_c 11.657971
_cell_angle_alpha 90.000000
_cell_angle_beta 104.255128
_cell_angle_gamma 90.000000
_cell_volume 1818.255248
_symmetry_space_group_name_H-M "C 2/C"
_symmetry_group_IT_number 15
_symmetry_cell_setting 'monoclinic'
loop_
_space_group_symop_operation_xyz
x,y,z
-x,y,1/2-z
-x,-y,-z
x,-y,1/2+z
1/2+x,1/2+y,z
1/2-x,1/2+y,1/2-z
1/2-x,1/2-y,-z
1/2+x,1/2-y,1/2+z
loop_
_atom_site_type_symbol
_atom_site_label
_atom_site_fract_x
_atom_site_fract_y
_atom_site_fract_z
Si Si1 0.058531 0.399053 0.507758
Si Si2 0.710306 0.185825 0.913440
Si Si3 0.929496 0.222014 0.375383
Si Si4 0.500000 0.727374 0.750000
Si Si5 0.593445 0.450741 0.540013
Si Si6 0.500000 0.085207 0.250000
O O1 0.329837 0.422955 0.514226
O O2 0.046421 0.357070 0.424196
O O3 0.807339 0.431043 0.475132
O O4 0.066032 0.386541 0.644576
O O5 0.557151 0.230697 0.919785
O O6 0.187054 0.195224 0.701723
O O7 0.958239 0.185698 0.026837
O O8 0.634907 0.237229 0.349675
O O9 0.000000 0.212002 0.250000
O O10 0.500000 0.500000 0.500000
O O11 0.758779 0.444506 0.677327
#
# Coordination Sequence:
#
# PCOD9271997 Si02
#       6
#     8   8   8   4   8   4
#     4  10  22  39  65  95 132 164 216 272 327 393
#     4  10  21  38  61  88 130 173 225 274 333 391
#     4   9  20  38  57  87 125 174 229 275 333 384
#     4  10  20  36  63  84 130 184 226 278 326 393
#     4  10  21  41  67  93 133 167 204 270 337 407
#     4   8  22  36  67  98 128 166 212 268 336 393
#
# _framework density 21.999112
#
# number of rings (size 3 to 8) (size 9 to 14) (size 15 to 20)
#    1.200    1.200    0.000    1.800    2.800    1.600 
#    0.000    4.000   11.000    0.000    0.000    0.000 
#    0.000    0.000    0.000    0.000    0.000    0.000 
#
# Total GULP energy -111384.564604 kJ/mol
# GULP energy per Si atom -5569.228230 kJ/mol
# Density = 2.194904 g / cm^3
# Si number density = 21.999112 Si / 1000 Ang^3
#
#
#
# Elastic Constant Matrix: (Units=GPa)
#
#
# Indices 1 2 3 4 5 6 
#
# 1 121.3090 38.1581 21.0653 0.0000 10.1516 0.0000
# 2 38.1581 68.9863 13.9873 0.0000 -2.1268 0.0000
# 3 21.0653 13.9873 62.3258 0.0000 2.5461 0.0000
# 4 0.0000 0.0000 0.0000 17.1676 0.0000 -4.7379
# 5 10.1516 -2.1268 2.5461 0.0000 26.3238 0.0000
# 6 0.0000 0.0000 0.0000 -4.7379 0.0000 30.9156
#
#
#
# Elastic Compliance Matrix: (Units=1/GPa)
#
#
# Indices 1 2 3 4 5 6 
#
# 1 0.010769 -0.005647 -0.002193 0.000000 -0.004397 0.000000
# 2 -0.005647 0.018213 -0.002337 0.000000 0.003875 0.000000
# 3 -0.002193 -0.002337 0.017352 0.000000 -0.001022 0.000000
# 4 0.000000 0.000000 0.000000 0.060822 0.000000 0.009321
# 5 -0.004397 0.003875 -0.001022 0.000000 0.040096 0.000000
# 6 0.000000 0.000000 0.000000 0.009321 0.000000 0.033775
#
#
# Mechanical properties :
#
#
# Convention : Reuss Voigt Hill
#
# Bulk Modulus (GPa) = 38.49206 44.33808 41.41507
# Shear Modulus (GPa) = 23.80511 26.84209 25.32360
#
# Velocity S-wave (km/s) = 3.29309 3.49685 3.39650
# Velocity P-wave (km/s) = 5.65635 6.04170 5.85220
#
# Compressibility (1/GPa) = 0.02597939
#
# Stress axis : x y z
#
# Youngs Moduli (GPa) = 92.86337 54.90698 57.63036
#
# Poissons Ratio (x) = 0.31008 0.12636
# Poissons Ratio (y) = 0.52443 0.13468
# Poissons Ratio (z) = 0.20361 0.12831
#
# Static dielectric constant tensor:
#      x y z
#    x 1.928580 0.000000 0.106010 
#    y 0.000000 1.764270 0.000000 
#    z 0.106010 0.000000 1.972060 
# 
# From -- ./inp_files/130247.got.cif
#   From: 2010.05.17/outbox.cif.g08.bks.cpg/sg15_66_cif.got.tgz:130247.got - 2010.06.03 18:47:42.
