data_PCOD9271480
_publ_section_title
;
Structure prediction by ZEFSAII (Michael W. Deem and Ramdas Pophale) SiO2 
 PCOD9271480
Probable space group: C 2/C
;
_chemical_formula_sum "Si O2"
_cell_formula_units_Z 40
_cell_length_a 6.199710
_cell_length_b 18.237862
_cell_length_c 22.657781
_cell_angle_alpha 90.000000
_cell_angle_beta 121.055384
_cell_angle_gamma 90.000000
_cell_volume 2194.702967
_symmetry_space_group_name_H-M "C 2/C"
_symmetry_group_IT_number 15
_symmetry_cell_setting 'monoclinic'
loop_
_space_group_symop_operation_xyz
x,y,z
-x,y,1/2-z
-x,-y,-z
x,-y,1/2+z
1/2+x,1/2+y,z
1/2-x,1/2+y,1/2-z
1/2-x,1/2-y,-z
1/2+x,1/2-y,1/2+z
loop_
_atom_site_type_symbol
_atom_site_label
_atom_site_fract_x
_atom_site_fract_y
_atom_site_fract_z
Si Si1 0.572583 0.664291 0.920999
Si Si2 0.224923 0.460936 0.423950
Si Si3 0.395441 0.555999 0.075634
Si Si4 0.635026 0.794312 0.539322
Si Si5 0.334600 0.563251 0.668993
O O1 0.433119 0.600387 0.937848
O O2 0.423476 0.738229 0.915879
O O3 0.580293 0.635166 0.855348
O O4 0.861264 0.674306 0.982074
O O5 0.326226 0.536150 0.409702
O O6 0.222828 0.465469 0.494477
O O7 0.962575 0.434559 0.360777
O O8 0.322606 0.639045 0.079346
O O9 0.359182 0.504491 0.126812
O O10 0.750000 0.750000 0.500000
O O11 0.500000 0.553150 0.750000
#
# Coordination Sequence:
#
# PCOD9271480 Si02
#       5
#     8   8   8   8   8
#     4  10  21  34  60  89 116 151 192 245 297 356
#     4  10  20  36  59  90 112 148 199 253 291 343
#     4  10  21  33  61  85 115 148 192 246 293 343
#     4  11  20  35  58  91 119 147 189 246 306 351
#     4  11  23  39  59  85 118 159 201 243 298 360
#
# _framework density 18.225701999999998
#
# number of rings (size 3 to 8) (size 9 to 14) (size 15 to 20)
#    0.000    1.600    4.000    0.600    5.600    3.200 
#    0.000    0.000    8.800    0.000    0.000    0.000 
#    0.000    0.000    0.000    0.000    0.000    0.000 
#
# Total GULP energy -111537.383991 kJ/mol
# GULP energy per Si atom -5576.869200 kJ/mol
# Density = 1.818422 g / cm^3
# Si number density = 18.225702 Si / 1000 Ang^3
#
#
#
# Elastic Constant Matrix: (Units=GPa)
#
#
# Indices 1 2 3 4 5 6 
#
# 1 112.7523 61.5249 48.8079 0.0000 7.7136 0.0000
# 2 61.5249 126.0307 43.7359 0.0000 -4.8273 0.0000
# 3 48.8079 43.7359 106.5403 0.0000 7.7246 0.0000
# 4 0.0000 0.0000 0.0000 15.8500 0.0000 -6.7077
# 5 7.7136 -4.8273 7.7246 0.0000 13.3419 0.0000
# 6 0.0000 0.0000 0.0000 -6.7077 0.0000 48.4757
#
#
#
# Elastic Compliance Matrix: (Units=1/GPa)
#
#
# Indices 1 2 3 4 5 6 
#
# 1 0.014253 -0.006099 -0.003412 0.000000 -0.008472 0.000000
# 2 -0.006099 0.012311 -0.002963 0.000000 0.009696 0.000000
# 3 -0.003412 -0.002963 0.012630 0.000000 -0.006412 0.000000
# 4 0.000000 0.000000 0.000000 0.067016 0.000000 0.009273
# 5 -0.008472 0.009696 -0.006412 0.000000 0.087070 0.000000
# 6 0.000000 0.000000 0.000000 0.009273 0.000000 0.021912
#
#
# Mechanical properties :
#
#
# Convention : Reuss Voigt Hill
#
# Bulk Modulus (GPa) = 70.18524 72.60675 71.39599
# Shear Modulus (GPa) = 20.41736 28.28383 24.35059
#
# Velocity S-wave (km/s) = 3.35065 3.94365 3.65918
# Velocity P-wave (km/s) = 7.31858 7.78848 7.55719
#
# Compressibility (1/GPa) = 0.01424801
#
# Stress axis : x y z
#
# Youngs Moduli (GPa) = 70.15946 81.22584 79.17362
#
# Poissons Ratio (x) = 0.49536 0.27013
# Poissons Ratio (y) = 0.42787 0.23460
# Poissons Ratio (z) = 0.23938 0.24068
#
# Static dielectric constant tensor:
#      x y z
#    x 1.694660 0.000000 -0.003350 
#    y 0.000000 1.668730 0.000000 
#    z -0.003350 0.000000 1.578890 
# 
# From -- ./inp_files/184224.got.cif
#   From: 2010.05.17/outbox.cif.g08.bks.cpg/sg15_93_cif.got.tgz:184224.got - 2010.06.03 18:47:42.
