data_PCOD9271015
_publ_section_title
;
Structure prediction by ZEFSAII (Michael W. Deem and Ramdas Pophale) SiO2 
 PCOD9271015
Probable space group: C 2/C
;
_chemical_formula_sum "Si O2"
_cell_formula_units_Z 48
_cell_length_a 5.832008
_cell_length_b 12.914696
_cell_length_c 25.143841
_cell_angle_alpha 90.000000
_cell_angle_beta 71.812979
_cell_angle_gamma 90.000000
_cell_volume 1799.190221
_symmetry_space_group_name_H-M "C 2/C"
_symmetry_group_IT_number 15
_symmetry_cell_setting 'monoclinic'
loop_
_space_group_symop_operation_xyz
x,y,z
-x,y,1/2-z
-x,-y,-z
x,-y,1/2+z
1/2+x,1/2+y,z
1/2-x,1/2+y,1/2-z
1/2-x,1/2-y,-z
1/2+x,1/2-y,1/2+z
loop_
_atom_site_type_symbol
_atom_site_label
_atom_site_fract_x
_atom_site_fract_y
_atom_site_fract_z
Si Si1 0.196426 0.136377 0.284618
Si Si2 0.438181 0.335343 0.426579
Si Si3 0.994378 0.556024 0.151232
Si Si4 0.348298 0.616243 0.043478
Si Si5 0.576071 0.415559 0.191180
Si Si6 0.849167 0.803313 0.895887
O O1 0.462801 0.122679 0.298411
O O2 0.000000 0.167773 0.250000
O O3 0.081266 0.204977 0.341493
O O4 0.106647 0.015146 0.296437
O O5 0.353506 0.408490 0.480986
O O6 0.283938 0.228923 0.442398
O O7 0.430887 0.370505 0.366765
O O8 0.712175 0.301448 0.416995
O O9 0.219121 0.542491 0.095742
O O10 0.848091 0.456045 0.178799
O O11 0.816577 0.621606 0.127040
O O12 0.601723 0.641332 0.052078
O O13 0.500000 0.353029 0.250000
#
# Coordination Sequence:
#
# PCOD9271015 Si02
#       6
#     8   8   8   8   8   8
#     4   9  19  37  59  81 106 158 203 236 293 354
#     4  10  20  36  56  86 121 151 195 247 300 357
#     4   9  19  38  59  81 114 147 203 244 288 361
#     4   9  19  37  61  82 112 158 199 243 297 351
#     4  10  22  37  54  84 119 155 189 244 307 349
#     4   9  18  35  56  85 114 149 197 242 294 351
#
# _framework density 26.678668999999999
#
# number of rings (size 3 to 8) (size 9 to 14) (size 15 to 20)
#    0.000    2.667    0.000    0.500    0.000    8.000 
#    9.000    7.500    0.000    0.000    0.000    0.000 
#    0.000    0.000    0.000    0.000    0.000    0.000 
#
# Total GULP energy -133686.437086 kJ/mol
# GULP energy per Si atom -5570.268212 kJ/mol
# Density = 2.661795 g / cm^3
# Si number density = 26.678669 Si / 1000 Ang^3
#
#
#
# Elastic Constant Matrix: (Units=GPa)
#
#
# Indices 1 2 3 4 5 6 
#
# 1 135.1688 15.0961 52.2682 0.0000 8.6077 0.0000
# 2 15.0961 62.1408 45.9574 0.0000 3.4274 0.0000
# 3 52.2682 45.9574 262.7729 0.0000 31.7513 0.0000
# 4 0.0000 0.0000 0.0000 42.8174 0.0000 7.5960
# 5 8.6077 3.4274 31.7513 0.0000 35.2160 0.0000
# 6 0.0000 0.0000 0.0000 7.5960 0.0000 16.1004
#
#
#
# Elastic Compliance Matrix: (Units=1/GPa)
#
#
# Indices 1 2 3 4 5 6 
#
# 1 0.008070 -0.000914 -0.001367 0.000000 -0.000651 0.000000
# 2 -0.000914 0.018636 -0.003238 0.000000 0.001329 0.000000
# 3 -0.001367 -0.003238 0.005123 0.000000 -0.003970 0.000000
# 4 0.000000 0.000000 0.000000 0.025488 0.000000 -0.012025
# 5 -0.000651 0.001329 -0.003970 0.000000 0.032006 0.000000
# 6 0.000000 0.000000 0.000000 -0.012025 0.000000 0.067783
#
#
# Mechanical properties :
#
#
# Convention : Reuss Voigt Hill
#
# Bulk Modulus (GPa) = 48.09475 76.30287 62.19881
# Shear Modulus (GPa) = 28.55917 41.94415 35.25166
#
# Velocity S-wave (km/s) = 3.27538 3.96940 3.63897
# Velocity P-wave (km/s) = 5.68953 7.04776 6.40475
#
# Compressibility (1/GPa) = 0.02079229
#
# Stress axis : x y z
#
# Youngs Moduli (GPa) = 123.91279 53.65951 195.17976
#
# Poissons Ratio (x) = 0.04904 0.26676
# Poissons Ratio (y) = 0.11323 0.63202
# Poissons Ratio (z) = 0.16935 0.17376
#
# Static dielectric constant tensor:
#      x y z
#    x 2.470850 0.000000 -0.189810 
#    y 0.000000 2.139270 0.000000 
#    z -0.189810 0.000000 2.202790 
# 
# From -- ./inp_files/260843.got.cif
#   From: 2010.05.17/outbox.cif.g08.bks.cpg/sg15_131_cif.got.tgz:260843.got - 2010.06.03 18:47:42.
