data_PCOD9271855
_publ_section_title
;
Structure prediction by ZEFSAII (Michael W. Deem and Ramdas Pophale) SiO2 
 PCOD9271855
Probable space group: C 2/C
;
_chemical_formula_sum "Si O2"
_cell_formula_units_Z 60
_cell_length_a 26.790770
_cell_length_b 22.472941
_cell_length_c 14.357011
_cell_angle_alpha 90.000000
_cell_angle_beta 158.575770
_cell_angle_gamma 90.000000
_cell_volume 3157.357266
_symmetry_space_group_name_H-M "C 2/C"
_symmetry_group_IT_number 15
_symmetry_cell_setting 'monoclinic'
loop_
_space_group_symop_operation_xyz
x,y,z
-x,y,1/2-z
-x,-y,-z
x,-y,1/2+z
1/2+x,1/2+y,z
1/2-x,1/2+y,1/2-z
1/2-x,1/2-y,-z
1/2+x,1/2-y,1/2+z
loop_
_atom_site_type_symbol
_atom_site_label
_atom_site_fract_x
_atom_site_fract_y
_atom_site_fract_z
Si Si1 0.267979 0.549769 0.732014
Si Si2 0.978991 0.107556 0.979173
Si Si3 0.500000 0.871936 0.750000
Si Si4 0.868175 0.134653 0.071284
Si Si5 0.652492 0.298298 0.557477
Si Si6 0.907906 0.294468 0.411422
Si Si7 0.379264 0.427516 0.967971
Si Si8 0.350862 0.260612 0.261807
O O1 0.129440 0.584409 0.467973
O O2 0.367727 0.559377 0.817804
O O3 0.329220 0.584515 0.928017
O O4 0.273948 0.480661 0.767888
O O5 0.085672 0.109771 0.249386
O O6 0.045793 0.091603 0.997481
O O7 0.902821 0.171672 0.849270
O O8 0.476159 0.830165 0.617678
O O9 0.000000 0.165777 0.250000
O O10 0.733647 0.173297 0.854929
O O11 0.632921 0.271493 0.625312
O O12 0.691734 0.367049 0.619730
O O13 0.759603 0.255929 0.691870
O O14 0.500000 0.295296 0.250000
O O15 0.020576 0.283537 0.528361
O O16 0.500000 0.444968 0.250000
O O17 0.250000 0.250000 0.000000
#
# Coordination Sequence:
#
# PCOD9271855 Si02
#       8
#     8   8   4   8   8   8   8   8
#     4  10  21  38  62  86 117 157 206 245 298 361
#     4  11  21  38  60  89 115 158 204 249 301 365
#     4  10  20  36  62  86 112 160 200 252 298 358
#     4   9  20  37  59  87 117 156 203 249 296 361
#     4  11  20  34  55  87 122 152 195 254 306 356
#     4  11  19  36  59  87 121 152 202 253 304 369
#     4  11  22  38  58  85 118 156 201 255 303 353
#     4  12  20  34  58  87 121 152 198 255 314 363
#
# _framework density 19.003233999999999
#
# number of rings (size 3 to 8) (size 9 to 14) (size 15 to 20)
#    0.000    1.333    3.333    5.600    0.000    0.533 
#    0.000    1.333    1.467    4.000    0.000    0.000 
#    0.000    0.000    0.000    0.000    0.000    0.000 
#
# Total GULP energy -167409.554839 kJ/mol
# GULP energy per Si atom -5580.318495 kJ/mol
# Density = 1.895998 g / cm^3
# Si number density = 19.003234 Si / 1000 Ang^3
#
#
#
# Elastic Constant Matrix: (Units=GPa)
#
#
# Indices 1 2 3 4 5 6 
#
# 1 62.0028 -12.2376 18.0371 0.0000 9.0064 0.0000
# 2 -12.2376 87.1447 20.9158 0.0000 12.4597 0.0000
# 3 18.0371 20.9158 80.9430 0.0000 6.4009 0.0000
# 4 0.0000 0.0000 0.0000 14.0041 0.0000 5.8913
# 5 9.0064 12.4597 6.4009 0.0000 24.8951 0.0000
# 6 0.0000 0.0000 0.0000 5.8913 0.0000 19.1879
#
#
#
# Elastic Compliance Matrix: (Units=1/GPa)
#
#
# Indices 1 2 3 4 5 6 
#
# 1 0.019883 0.005234 -0.005111 0.000000 -0.008498 0.000000
# 2 0.005234 0.014373 -0.004248 0.000000 -0.007995 0.000000
# 3 -0.005111 -0.004248 0.014573 0.000000 0.000228 0.000000
# 4 0.000000 0.000000 0.000000 0.081999 0.000000 -0.025176
# 5 -0.008498 -0.007995 0.000228 0.000000 0.047186 0.000000
# 6 0.000000 0.000000 0.000000 -0.025176 0.000000 0.059846
#
#
# Mechanical properties :
#
#
# Convention : Reuss Voigt Hill
#
# Bulk Modulus (GPa) = 24.64392 31.50236 28.07314
# Shear Modulus (GPa) = 19.25777 25.17575 22.21676
#
# Velocity S-wave (km/s) = 3.18684 3.64375 3.42293
# Velocity P-wave (km/s) = 5.15147 5.85798 5.51605
#
# Compressibility (1/GPa) = 0.04057796
#
# Stress axis : x y z
#
# Youngs Moduli (GPa) = 50.29524 69.57597 68.62027
#
# Poissons Ratio (x) = -0.36415 0.35072
# Poissons Ratio (y) = -0.26324 0.29150
# Poissons Ratio (z) = 0.25706 0.29556
#
# Static dielectric constant tensor:
#      x y z
#    x 1.685000 0.000000 0.004970 
#    y 0.000000 1.689610 0.000000 
#    z 0.004970 0.000000 1.677920 
# 
# From -- ./inp_files/179094.got.cif
#   From: 2010.05.17/outbox.cif.g08.bks.cpg/sg15_90_cif.got.tgz:179094.got - 2010.06.03 18:47:42.
