data_PCOD9271431
_publ_section_title
;
Structure prediction by ZEFSAII (Michael W. Deem and Ramdas Pophale) SiO2 
 PCOD9271431
Probable space group: C 2/C
;
_chemical_formula_sum "Si O2"
_cell_formula_units_Z 56
_cell_length_a 10.840038
_cell_length_b 12.728405
_cell_length_c 25.743566
_cell_angle_alpha 90.000000
_cell_angle_beta 37.858889
_cell_angle_gamma 90.000000
_cell_volume 2179.932080
_symmetry_space_group_name_H-M "C 2/C"
_symmetry_group_IT_number 15
_symmetry_cell_setting 'monoclinic'
loop_
_space_group_symop_operation_xyz
x,y,z
-x,y,1/2-z
-x,-y,-z
x,-y,1/2+z
1/2+x,1/2+y,z
1/2-x,1/2+y,1/2-z
1/2-x,1/2-y,-z
1/2+x,1/2-y,1/2+z
loop_
_atom_site_type_symbol
_atom_site_label
_atom_site_fract_x
_atom_site_fract_y
_atom_site_fract_z
Si Si1 0.505720 0.407307 0.455244
Si Si2 0.751825 0.220214 0.104165
Si Si3 0.000000 0.801584 0.750000
Si Si4 0.349023 0.767262 0.391486
Si Si5 0.822641 0.467032 0.662397
Si Si6 0.418873 0.113779 0.973845
Si Si7 0.000000 0.853881 0.250000
Si Si8 0.284480 0.961864 0.798122
O O1 0.500000 0.500000 0.500000
O O2 0.296932 0.345518 0.536860
O O3 0.673516 0.325562 0.418652
O O4 0.597961 0.459366 0.372816
O O5 0.547118 0.280398 0.184782
O O6 0.769481 0.141265 0.148409
O O7 0.915324 0.313436 0.053646
O O8 0.030083 0.737407 0.791844
O O9 0.804700 0.873194 0.819356
O O10 0.396004 0.837731 0.424375
O O11 0.288412 0.650675 0.431185
O O12 0.684207 0.570430 0.701753
O O13 0.831985 0.447504 0.721233
O O14 0.011684 0.496242 0.562252
O O15 0.500000 0.998629 0.750000
#
# Coordination Sequence:
#
# PCOD9271431 Si02
#       8
#     8   8   4   8   8   8   4   8
#     4   9  20  34  53  82 116 146 188 243 295 344
#     4   9  17  35  56  78 107 150 191 238 287 351
#     4  11  24  38  59  88 124 154 203 242 296 347
#     4  10  20  36  59  87 115 158 196 249 292 356
#     4  10  22  37  56  86 116 156 194 244 291 352
#     4   9  19  36  60  80 114 156 202 233 298 352
#     4   9  18  38  59  74 110 154 195 232 286 361
#     4  11  20  33  56  86 115 147 191 244 297 346
#
# _framework density 25.688876
#
# number of rings (size 3 to 8) (size 9 to 14) (size 15 to 20)
#    0.000    2.286    0.714    1.714    3.000    1.714 
#    0.000    0.714    0.000    0.000    0.000    0.000 
#    0.000    0.000    0.000    0.000    0.000    0.000 
#
# Total GULP energy -156193.405523 kJ/mol
# GULP energy per Si atom -5578.335912 kJ/mol
# Density = 2.563041 g / cm^3
# Si number density = 25.688876 Si / 1000 Ang^3
#
#
#
# Elastic Constant Matrix: (Units=GPa)
#
#
# Indices 1 2 3 4 5 6 
#
# 1 33.1671 15.6120 0.6353 0.0006 14.0186 -0.0010
# 2 15.6120 69.7137 36.0454 0.0006 9.6203 -0.0014
# 3 0.6353 36.0454 69.9241 -0.0031 13.7797 0.0055
# 4 0.0006 0.0006 -0.0031 -26.4452 0.0011 128.4264
# 5 14.0186 9.6203 13.7797 0.0011 24.8543 -0.0017
# 6 -0.0010 -0.0014 0.0055 128.4264 -0.0017 -229.8383
#
#
#
# Elastic Compliance Matrix: (Units=1/GPa)
#
#
# Indices 1 2 3 4 5 6 
#
# 1 0.048196 -0.012991 0.011928 0.000000 -0.028769 0.000000
# 2 -0.012991 0.023169 -0.012913 0.000000 0.005518 0.000000
# 3 0.011928 -0.012913 0.023789 0.000000 -0.014919 0.000001
# 4 0.000000 0.000000 0.000000 0.022068 0.000000 0.012331
# 5 -0.028769 0.005518 -0.014919 0.000000 0.062596 -0.000001
# 6 0.000000 0.000000 0.000001 0.012331 -0.000001 0.002539
#
#
# Mechanical properties :
#
#
# Convention : Reuss Voigt Hill
#
# Bulk Modulus (GPa) = 14.88013 30.82115 22.85064
# Shear Modulus (GPa) = 21.48606 -38.25170 -8.38282
#
# Velocity S-wave (km/s) = 2.89519 -3.86299 -1.80840
# Velocity P-wave (km/s) = 4.12082 2.80589 2.13403
#
# Compressibility (1/GPa) = 0.06720373
#
# Stress axis : x y z
#
# Youngs Moduli (GPa) = 20.74842 43.16198 42.03579
#
# Poissons Ratio (x) = 0.56070 -0.50141
# Poissons Ratio (y) = 0.26954 0.54279
# Poissons Ratio (z) = -0.24749 0.55734
#
# Static dielectric constant tensor:
#      x y z
#    x 1.906670 0.000000 -0.100090 
#    y 0.000000 2.090740 0.000000 
#    z -0.100090 0.000000 2.149430 
# 
# From -- ./inp_files/292863.got.cif
#   From: 2010.05.17/outbox.cif.g08.bks.cpg/sg15_147_cif.got.tgz:292863.got - 2010.06.03 18:47:42.
