data_PCOD9271311
_publ_section_title
;
Structure prediction by ZEFSAII (Michael W. Deem and Ramdas Pophale) SiO2 
 PCOD9271311
Probable space group: C 2/C
;
_chemical_formula_sum "Si O2"
_cell_formula_units_Z 64
_cell_length_a 27.951930
_cell_length_b 5.370949
_cell_length_c 24.020345
_cell_angle_alpha 90.000000
_cell_angle_beta 108.885795
_cell_angle_gamma 90.000000
_cell_volume 3412.001712
_symmetry_space_group_name_H-M "C 2/C"
_symmetry_group_IT_number 15
_symmetry_cell_setting 'monoclinic'
loop_
_space_group_symop_operation_xyz
x,y,z
-x,y,1/2-z
-x,-y,-z
x,-y,1/2+z
1/2+x,1/2+y,z
1/2-x,1/2+y,1/2-z
1/2-x,1/2-y,-z
1/2+x,1/2-y,1/2+z
loop_
_atom_site_type_symbol
_atom_site_label
_atom_site_fract_x
_atom_site_fract_y
_atom_site_fract_z
Si Si1 0.035112 0.190671 0.303442
Si Si2 0.399261 0.456136 0.407021
Si Si3 0.785005 0.101467 0.828023
Si Si4 0.560532 0.958836 0.019643
Si Si5 0.278346 0.605481 0.692383
Si Si6 0.954903 0.794867 0.318278
Si Si7 0.110703 0.821355 0.305703
Si Si8 0.056484 0.434357 0.891048
O O1 0.056231 0.284720 0.369721
O O2 0.000000 0.363375 0.250000
O O3 0.084953 0.092766 0.292466
O O4 0.993769 0.982939 0.302933
O O5 0.339223 0.426073 0.377172
O O6 0.418890 0.719919 0.438518
O O7 0.423549 0.424567 0.355023
O O8 0.416930 0.219578 0.450272
O O9 0.753265 0.351870 0.830801
O O10 0.791810 0.103945 0.763394
O O11 0.754518 0.851249 0.830108
O O12 0.500000 0.000000 0.000000
O O13 0.573635 0.904193 0.960028
O O14 0.330131 0.644086 0.678148
O O15 0.915509 0.689712 0.257804
O O16 0.996255 0.620097 0.363173
O O17 0.089027 0.704301 0.354947
#
# Coordination Sequence:
#
# PCOD9271311 Si02
#       8
#     8   8   8   8   8   8   8   8
#     4   9  19  34  54  87 123 162 198 248 313 385
#     4  12  24  43  64  92 126 173 200 266 310 367
#     4  10  22  41  64  91 127 154 206 261 321 376
#     4  12  26  40  65  91 129 174 222 248 296 360
#     4  10  21  40  64  97 119 156 203 266 321 378
#     4  10  20  36  58  89 129 158 203 250 328 377
#     4  10  21  36  61  92 124 162 198 262 329 372
#     4  11  22  37  57  88 129 169 210 252 296 388
#
# _framework density 18.757318000000001
#
# number of rings (size 3 to 8) (size 9 to 14) (size 15 to 20)
#    0.000    1.500    2.500    3.750    5.250    0.000 
#    0.000    0.000    0.000    4.500    0.000    0.000 
#    0.000    0.000    0.000    0.000    0.000    0.000 
#
# Total GULP energy -178208.733923 kJ/mol
# GULP energy per Si atom -5569.022935 kJ/mol
# Density = 1.871463 g / cm^3
# Si number density = 18.757318 Si / 1000 Ang^3
#
#
#
# Elastic Constant Matrix: (Units=GPa)
#
#
# Indices 1 2 3 4 5 6 
#
# 1 145.5281 48.7073 55.5032 0.0001 18.4119 -0.0002
# 2 48.7073 100.5117 36.4788 -0.0001 18.5904 -0.0004
# 3 55.5032 36.4788 98.1321 -0.0001 1.6759 0.0001
# 4 0.0001 -0.0001 -0.0001 25.8647 0.0000 4.2456
# 5 18.4119 18.5904 1.6759 0.0000 37.9751 0.0001
# 6 -0.0002 -0.0004 0.0001 4.2456 0.0001 17.7609
#
#
#
# Elastic Compliance Matrix: (Units=1/GPa)
#
#
# Indices 1 2 3 4 5 6 
#
# 1 0.009891 -0.002497 -0.004609 0.000000 -0.003370 0.000000
# 2 -0.002497 0.013379 -0.003472 0.000000 -0.005185 0.000000
# 3 -0.004609 -0.003472 0.014031 0.000000 0.003315 0.000000
# 4 0.000000 0.000000 0.000000 0.040242 0.000000 -0.009619
# 5 -0.003370 -0.005185 0.003315 0.000000 0.030359 0.000000
# 6 0.000000 0.000000 0.000000 -0.009619 0.000000 0.058603
#
#
# Mechanical properties :
#
#
# Convention : Reuss Voigt Hill
#
# Bulk Modulus (GPa) = 61.94015 69.50562 65.72288
# Shear Modulus (GPa) = 25.90104 29.88565 27.89335
#
# Velocity S-wave (km/s) = 3.72001 3.99592 3.86043
# Velocity P-wave (km/s) = 7.17947 7.64366 7.41520
#
# Compressibility (1/GPa) = 0.01614462
#
# Stress axis : x y z
#
# Youngs Moduli (GPa) = 101.09752 74.74673 71.27051
#
# Poissons Ratio (x) = 0.18668 0.32846
# Poissons Ratio (y) = 0.25249 0.24746
# Poissons Ratio (z) = 0.46592 0.25953
#
# Static dielectric constant tensor:
#      x y z
#    x 1.639010 0.000000 -0.007380 
#    y 0.000000 1.768060 0.000000 
#    z -0.007380 0.000000 1.749650 
# 
# From -- ./inp_files/281207.got.cif
#   From: 2010.05.17/outbox.cif.g08.bks.cpg/sg15_141_cif.got.tgz:281207.got - 2010.06.03 18:47:42.
