data_PCOD9271490
_publ_section_title
;
Structure prediction by ZEFSAII (Michael W. Deem and Ramdas Pophale) SiO2 
 PCOD9271490
Probable space group: C 2/C
;
_chemical_formula_sum "Si O2"
_cell_formula_units_Z 40
_cell_length_a 5.231005
_cell_length_b 27.867336
_cell_length_c 12.059466
_cell_angle_alpha 90.000000
_cell_angle_beta 110.374245
_cell_angle_gamma 90.000000
_cell_volume 1647.978304
_symmetry_space_group_name_H-M "C 2/C"
_symmetry_group_IT_number 15
_symmetry_cell_setting 'monoclinic'
loop_
_space_group_symop_operation_xyz
x,y,z
-x,y,1/2-z
-x,-y,-z
x,-y,1/2+z
1/2+x,1/2+y,z
1/2-x,1/2+y,1/2-z
1/2-x,1/2-y,-z
1/2+x,1/2-y,1/2+z
loop_
_atom_site_type_symbol
_atom_site_label
_atom_site_fract_x
_atom_site_fract_y
_atom_site_fract_z
Si Si1 0.437650 0.725117 0.623051
Si Si2 0.083560 0.557199 0.884560
Si Si3 0.212319 0.975641 0.883043
Si Si4 0.420017 0.168067 0.577020
Si Si5 0.317403 0.872320 0.826731
O O1 0.500000 0.751582 0.750000
O O2 0.250000 0.750000 0.500000
O O3 0.707040 0.703752 0.604265
O O4 0.231837 0.683851 0.635050
O O5 0.103102 0.614036 0.883015
O O6 0.000000 0.540020 0.750000
O O7 0.845929 0.528055 0.911650
O O8 0.342619 0.541195 0.998077
O O9 0.380986 0.927746 0.869439
O O10 0.000000 0.979319 0.750000
O O11 0.361317 0.162585 0.437199
O O12 0.500000 0.860142 0.750000
O O13 0.000000 0.870669 0.750000
#
# Coordination Sequence:
#
# PCOD9271490 Si02
#       5
#     8   8   8   8   8
#     4  12  27  49  74 102 135 170 216 278 349 424
#     4  10  20  36  59  90 131 178 225 274 328 386
#     4   9  20  35  55  90 134 182 233 277 319 376
#     4  11  25  44  70 104 136 173 224 280 340 408
#     4  10  20  38  64  98 142 188 234 280 326 386
#
# _framework density 24.272162999999999
#
# number of rings (size 3 to 8) (size 9 to 14) (size 15 to 20)
#    0.000    1.600    0.000    4.200    0.000    5.600 
#    0.000    4.000    0.000    0.000    0.000    0.000 
#    0.000    0.000    0.000    0.000    0.000    0.000 
#
# Total GULP energy -111435.104008 kJ/mol
# GULP energy per Si atom -5571.755200 kJ/mol
# Density = 2.421692 g / cm^3
# Si number density = 24.272163 Si / 1000 Ang^3
#
#
#
# Elastic Constant Matrix: (Units=GPa)
#
#
# Indices 1 2 3 4 5 6 
#
# 1 118.2562 26.9946 44.7823 0.0000 -23.5563 0.0000
# 2 26.9946 80.1031 26.7955 0.0000 -2.7653 0.0000
# 3 44.7823 26.7955 243.2467 0.0000 -6.6695 0.0000
# 4 0.0000 0.0000 0.0000 57.1919 0.0000 17.0668
# 5 -23.5563 -2.7653 -6.6695 0.0000 34.2066 0.0000
# 6 0.0000 0.0000 0.0000 17.0668 0.0000 32.8606
#
#
#
# Elastic Compliance Matrix: (Units=1/GPa)
#
#
# Indices 1 2 3 4 5 6 
#
# 1 0.011138 -0.002997 -0.001525 0.000000 0.007131 0.000000
# 2 -0.002997 0.013789 -0.000998 0.000000 -0.001144 0.000000
# 3 -0.001525 -0.000998 0.004495 0.000000 -0.000254 0.000000
# 4 0.000000 0.000000 0.000000 0.020692 0.000000 -0.010747
# 5 0.007131 -0.001144 -0.000254 0.000000 0.034003 0.000000
# 6 0.000000 0.000000 0.000000 -0.010747 0.000000 0.036013
#
#
# Mechanical properties :
#
#
# Convention : Reuss Voigt Hill
#
# Bulk Modulus (GPa) = 54.40623 70.97231 62.68927
# Shear Modulus (GPa) = 36.41726 47.72072 42.06899
#
# Velocity S-wave (km/s) = 3.87767 4.43885 4.16771
# Velocity P-wave (km/s) = 6.52013 7.45485 7.00310
#
# Compressibility (1/GPa) = 0.01838025
#
# Stress axis : x y z
#
# Youngs Moduli (GPa) = 89.78019 72.52419 222.47916
#
# Poissons Ratio (x) = 0.21738 0.33926
# Poissons Ratio (y) = 0.26910 0.22214
# Poissons Ratio (z) = 0.13691 0.07241
#
# Static dielectric constant tensor:
#      x y z
#    x 1.968130 0.000000 0.038490 
#    y 0.000000 1.925080 0.000000 
#    z 0.038490 0.000000 2.094000 
# 
# From -- ./inp_files/74078.got.cif
#   From: 2010.05.17/outbox.cif.g08.bks.cpg/sg15_38_cif.got.tgz:74078.got - 2010.06.03 18:47:42.
