data_PCOD9271883
_publ_section_title
;
Structure prediction by ZEFSAII (Michael W. Deem and Ramdas Pophale) SiO2 
 PCOD9271883
Probable space group: C 2/C
;
_chemical_formula_sum "Si O2"
_cell_formula_units_Z 36
_cell_length_a 14.865622
_cell_length_b 7.119587
_cell_length_c 25.067201
_cell_angle_alpha 90.000000
_cell_angle_beta 30.113473
_cell_angle_gamma 90.000000
_cell_volume 1331.067533
_symmetry_space_group_name_H-M "C 2/C"
_symmetry_group_IT_number 15
_symmetry_cell_setting 'monoclinic'
loop_
_space_group_symop_operation_xyz
x,y,z
-x,y,1/2-z
-x,-y,-z
x,-y,1/2+z
1/2+x,1/2+y,z
1/2-x,1/2+y,1/2-z
1/2-x,1/2-y,-z
1/2+x,1/2-y,1/2+z
loop_
_atom_site_type_symbol
_atom_site_label
_atom_site_fract_x
_atom_site_fract_y
_atom_site_fract_z
Si Si1 0.825030 0.483452 0.908077
Si Si2 0.806720 0.970892 0.409464
Si Si3 0.219296 0.450851 0.720573
Si Si4 0.000000 0.000000 0.000000
Si Si5 0.272819 0.483818 0.311615
O O1 0.809375 0.256414 0.910674
O O2 0.033584 0.528401 0.793278
O O3 0.778289 0.539122 0.992420
O O4 0.683220 0.555281 0.938464
O O5 0.711782 0.029000 0.402903
O O6 0.015114 0.024712 0.300001
O O7 0.397887 0.553785 0.609758
O O8 0.195844 0.437761 0.796194
O O9 0.251289 0.242028 0.680929
#
# Coordination Sequence:
#
# PCOD9271883 Si02
#       5
#     8   8   8   4   8
#     4  10  20  36  62  89 114 161 210 246 300 359
#     4   9  18  36  63  86 115 159 210 245 289 372
#     4  11  23  37  63  91 121 163 204 252 304 367
#     4  12  20  38  60  90 122 160 200 264 292 362
#     4  10  20  38  62  91 122 155 204 252 306 360
#
# _framework density 27.045960000000001
#
# number of rings (size 3 to 8) (size 9 to 14) (size 15 to 20)
#    0.000    1.778    4.444    0.667    0.000    0.889 
#    0.000    1.111    9.778    0.000    0.000    0.000 
#    0.000    0.000    0.000    0.000    0.000    0.000 
#
# Total GULP energy -100362.215760 kJ/mol
# GULP energy per Si atom -5575.678653 kJ/mol
# Density = 2.698440 g / cm^3
# Si number density = 27.045960 Si / 1000 Ang^3
#
#
#
# Elastic Constant Matrix: (Units=GPa)
#
#
# Indices 1 2 3 4 5 6 
#
# 1 215.9993 27.1364 80.4962 -0.0002 3.5836 0.0020
# 2 27.1364 99.0332 -6.7380 -0.0018 19.6648 0.0052
# 3 80.4962 -6.7380 120.2183 0.0000 7.8343 0.0001
# 4 -0.0002 -0.0018 0.0000 -2.5171 0.0000 11.1145
# 5 3.5836 19.6648 7.8343 0.0000 49.0481 -0.0009
# 6 0.0020 0.0052 0.0001 11.1145 -0.0009 17.4297
#
#
#
# Elastic Compliance Matrix: (Units=1/GPa)
#
#
# Indices 1 2 3 4 5 6 
#
# 1 0.006646 -0.002379 -0.004662 0.000000 0.001213 0.000000
# 2 -0.002379 0.011922 0.002588 -0.000006 -0.005020 0.000000
# 3 -0.004662 0.002588 0.011753 -0.000001 -0.002574 0.000000
# 4 0.000000 -0.000006 -0.000001 -0.104117 0.000004 0.066393
# 5 0.001213 -0.005020 -0.002574 0.000004 0.022723 0.000000
# 6 0.000000 0.000000 0.000000 0.066393 0.000000 0.015036
#
#
# Mechanical properties :
#
#
# Convention : Reuss Voigt Hill
#
# Bulk Modulus (GPa) = 46.69655 70.78224 58.73939
# Shear Modulus (GPa) = -250.10347 35.08255 -107.51046
#
# Velocity S-wave (km/s) = -9.62675 3.60550 -6.31168
# Velocity P-wave (km/s) = 10.30837 6.60006 5.59919
#
# Compressibility (1/GPa) = 0.02141486
#
# Stress axis : x y z
#
# Youngs Moduli (GPa) = 150.46737 83.87584 85.08527
#
# Poissons Ratio (x) = 0.19955 0.39670
# Poissons Ratio (y) = 0.35799 -0.22023
# Poissons Ratio (z) = 0.70154 -0.21710
#
# Static dielectric constant tensor:
#      x y z
#    x 2.033030 0.000000 0.055280 
#    y 0.000000 2.254460 0.000000 
#    z 0.055280 0.000000 2.074230 
# 
# From -- ./inp_files/141991.got.cif
#   From: 2010.05.17/outbox.cif.g08.bks.cpg/sg15_71_cif.got.tgz:141991.got - 2010.06.03 18:47:42.
