data_PCOD9271585
_publ_section_title
;
Structure prediction by ZEFSAII (Michael W. Deem and Ramdas Pophale) SiO2 
 PCOD9271585
Probable space group: C 2/C
;
_chemical_formula_sum "Si O2"
_cell_formula_units_Z 56
_cell_length_a 10.482360
_cell_length_b 11.551237
_cell_length_c 18.505404
_cell_angle_alpha 90.000000
_cell_angle_beta 105.955928
_cell_angle_gamma 90.000000
_cell_volume 2154.385534
_symmetry_space_group_name_H-M "C 2/C"
_symmetry_group_IT_number 15
_symmetry_cell_setting 'monoclinic'
loop_
_space_group_symop_operation_xyz
x,y,z
-x,y,1/2-z
-x,-y,-z
x,-y,1/2+z
1/2+x,1/2+y,z
1/2-x,1/2+y,1/2-z
1/2-x,1/2-y,-z
1/2+x,1/2-y,1/2+z
loop_
_atom_site_type_symbol
_atom_site_label
_atom_site_fract_x
_atom_site_fract_y
_atom_site_fract_z
Si Si1 0.345458 0.245014 0.892555
Si Si2 0.645820 0.190990 0.765752
Si Si3 0.434849 0.523242 0.359993
Si Si4 0.695961 0.950789 0.723088
Si Si5 0.762398 0.026177 0.572504
Si Si6 0.381016 0.170608 0.515023
Si Si7 0.396463 0.750875 0.864614
O O1 0.293102 0.222782 0.802905
O O2 0.364998 0.383932 0.904357
O O3 0.254715 0.165601 0.930157
O O4 0.495836 0.193465 0.913781
O O5 0.500000 0.235147 0.750000
O O6 0.735384 0.244874 0.841336
O O7 0.646516 0.052233 0.767746
O O8 0.350787 0.556984 0.274520
O O9 0.591400 0.530083 0.401581
O O10 0.426166 0.383410 0.358878
O O11 0.702393 0.994673 0.641690
O O12 0.593130 0.844254 0.697618
O O13 0.673956 0.959637 0.499625
O O14 0.250000 0.250000 0.500000
O O15 0.447413 0.204569 0.448199
#
# Coordination Sequence:
#
# PCOD9271585 Si02
#       7
#     8   8   8   8   8   8   8
#     4  11  22  38  63  90 121 158 213 253 305 378
#     4  10  20  36  60  87 115 155 201 255 300 360
#     4  11  21  39  62  87 123 163 197 254 317 358
#     4   9  20  38  57  88 118 153 202 251 299 367
#     4  10  22  39  62  89 118 160 209 252 306 369
#     4  11  21  39  64  88 118 164 203 256 308 366
#     4  10  22  38  60  88 123 152 205 249 299 380
#
# _framework density 25.993490999999999
#
# number of rings (size 3 to 8) (size 9 to 14) (size 15 to 20)
#    0.000    1.714    2.857    1.714    2.000    0.571 
#    5.143    0.714    0.000    0.000    0.000    0.000 
#    0.000    0.000    0.000    0.000    0.000    0.000 
#
# Total GULP energy -155924.541200 kJ/mol
# GULP energy per Si atom -5568.733614 kJ/mol
# Density = 2.593433 g / cm^3
# Si number density = 25.993491 Si / 1000 Ang^3
#
#
#
# Elastic Constant Matrix: (Units=GPa)
#
#
# Indices 1 2 3 4 5 6 
#
# 1 40.1324 9.3220 1.4526 0.0000 12.7163 0.0000
# 2 9.3220 178.2875 7.6632 0.0000 -14.4039 0.0000
# 3 1.4526 7.6632 70.0898 0.0000 16.0434 0.0000
# 4 0.0000 0.0000 0.0000 33.0090 0.0000 4.6268
# 5 12.7163 -14.4039 16.0434 0.0000 21.6291 0.0000
# 6 0.0000 0.0000 0.0000 4.6268 0.0000 40.5325
#
#
#
# Elastic Compliance Matrix: (Units=1/GPa)
#
#
# Indices 1 2 3 4 5 6 
#
# 1 0.034446 -0.004294 0.006078 0.000000 -0.027619 0.000000
# 2 -0.004294 0.006674 -0.002693 0.000000 0.008966 0.000000
# 3 0.006078 -0.002693 0.018868 0.000000 -0.019362 0.000000
# 4 0.000000 0.000000 0.000000 0.030787 0.000000 -0.003514
# 5 -0.027619 0.008966 -0.019362 0.000000 0.082805 0.000000
# 6 0.000000 0.000000 0.000000 -0.003514 0.000000 0.025073
#
#
# Mechanical properties :
#
#
# Convention : Reuss Voigt Hill
#
# Bulk Modulus (GPa) = 17.19120 36.15393 26.67257
# Shear Modulus (GPa) = 22.74172 37.03891 29.89031
#
# Velocity S-wave (km/s) = 2.96108 3.77892 3.39472
# Velocity P-wave (km/s) = 4.28003 5.74277 5.06449
#
# Compressibility (1/GPa) = 0.05816928
#
# Stress axis : x y z
#
# Youngs Moduli (GPa) = 29.03072 149.84541 53.00054
#
# Poissons Ratio (x) = 0.64339 -0.32211
# Poissons Ratio (y) = 0.12465 0.14273
# Poissons Ratio (z) = -0.17643 0.40353
#
# Static dielectric constant tensor:
#      x y z
#    x 2.065380 0.000000 -0.041230 
#    y 0.000000 2.270910 0.000000 
#    z -0.041230 0.000000 2.024800 
# 
# From -- ./inp_files/237070.got.cif
#   From: 2010.05.17/outbox.cif.g08.bks.cpg/sg15_119_cif.got.tgz:237070.got - 2010.06.03 18:47:42.
