data_PCOD9271067
_publ_section_title
;
Structure prediction by ZEFSAII (Michael W. Deem and Ramdas Pophale) SiO2 
 PCOD9271067
Probable space group: C 2/C
;
_chemical_formula_sum "Si O2"
_cell_formula_units_Z 64
_cell_length_a 18.996043
_cell_length_b 8.157469
_cell_length_c 16.262986
_cell_angle_alpha 90.000000
_cell_angle_beta 89.743298
_cell_angle_gamma 90.000000
_cell_volume 2520.081031
_symmetry_space_group_name_H-M "C 2/C"
_symmetry_group_IT_number 15
_symmetry_cell_setting 'monoclinic'
loop_
_space_group_symop_operation_xyz
x,y,z
-x,y,1/2-z
-x,-y,-z
x,-y,1/2+z
1/2+x,1/2+y,z
1/2-x,1/2+y,1/2-z
1/2-x,1/2-y,-z
1/2+x,1/2-y,1/2+z
loop_
_atom_site_type_symbol
_atom_site_label
_atom_site_fract_x
_atom_site_fract_y
_atom_site_fract_z
Si Si1 0.229445 0.698886 0.124744
Si Si2 0.012407 0.184410 0.874062
Si Si3 0.640251 0.806970 0.783694
Si Si4 0.487593 0.315590 0.625938
Si Si5 0.140251 0.693030 0.783694
Si Si6 0.395768 0.190310 0.979715
Si Si7 0.770555 0.301114 0.375256
Si Si8 0.895768 0.309689 0.979715
O O1 0.182492 0.752909 0.203812
O O2 0.305897 0.771904 0.141209
O O3 0.234378 0.500000 0.125325
O O4 0.181277 0.746672 0.047809
O O5 0.064932 0.227315 0.799954
O O6 0.947249 0.298806 0.899342
O O7 0.986423 0.000000 0.867807
O O8 0.065282 0.203974 0.952072
O O9 0.694103 0.771904 0.858791
O O10 0.629975 1.000000 0.776885
O O11 0.435068 0.272685 0.700046
O O12 0.552751 0.201194 0.600658
O O13 0.434718 0.296026 0.547928
O O14 0.182492 0.752909 0.703812
O O15 0.318723 0.246672 0.952191
O O16 0.394310 1.000000 0.006001
#
# Coordination Sequence:
#
# PCOD9271067 Si02
#       8
#     8   8   8   8   8   8   8   8
#     4   9  20  37  57  81 107 137 176 221 265 313
#     4  11  22  36  54  79 110 141 178 219 261 313
#     4  10  20  36  57  80 108 141 176 216 264 315
#     4  11  22  36  54  79 110 141 178 219 261 313
#     4  10  20  36  57  80 108 141 176 216 264 315
#     4  10  20  37  58  79 106 139 177 220 267 314
#     4   9  20  37  57  81 107 137 176 221 265 313
#     4  10  20  37  58  79 106 139 177 220 267 314
#
# _framework density 25.39601
#
# number of rings (size 3 to 8) (size 9 to 14) (size 15 to 20)
#    0.000    2.000    0.000    5.250    0.000    5.000 
#    0.000    5.000    0.000    0.000    0.000    0.000 
#    0.000    0.000    0.000    0.000    0.000    0.000 
#
# Total GULP energy -179168.381530 kJ/mol
# GULP energy per Si atom -5599.011923 kJ/mol
# Density = 2.533821 g / cm^3
# Si number density = 25.396010 Si / 1000 Ang^3
#
#
#
# Elastic Constant Matrix: (Units=GPa)
#
#
# Indices 1 2 3 4 5 6 
#
# 1 147.3484 4.8456 18.0268 0.0000 3.6238 0.0000
# 2 4.8456 54.8708 -3.6533 0.0000 1.4126 0.0000
# 3 18.0268 -3.6533 51.8060 0.0000 2.0223 0.0000
# 4 0.0000 0.0000 0.0000 22.1503 0.0000 -1.3254
# 5 3.6238 1.4126 2.0223 0.0000 53.6999 0.0000
# 6 0.0000 0.0000 0.0000 -1.3254 0.0000 33.4877
#
#
#
# Elastic Compliance Matrix: (Units=1/GPa)
#
#
# Indices 1 2 3 4 5 6 
#
# 1 0.007130 -0.000788 -0.002522 0.000000 -0.000365 0.000000
# 2 -0.000788 0.018413 0.001592 0.000000 -0.000491 0.000000
# 3 -0.002522 0.001592 0.020318 0.000000 -0.000637 0.000000
# 4 0.000000 0.000000 0.000000 0.045253 0.000000 0.001791
# 5 -0.000365 -0.000491 -0.000637 0.000000 0.018684 0.000000
# 6 0.000000 0.000000 0.000000 0.001791 0.000000 0.029933
#
#
# Mechanical properties :
#
#
# Convention : Reuss Voigt Hill
#
# Bulk Modulus (GPa) = 23.57195 32.49592 28.03393
# Shear Modulus (GPa) = 31.78467 37.52132 34.65300
#
# Velocity S-wave (km/s) = 3.54158 3.84793 3.69793
# Velocity P-wave (km/s) = 5.10153 5.70662 5.41254
#
# Compressibility (1/GPa) = 0.04242331
#
# Stress axis : x y z
#
# Youngs Moduli (GPa) = 140.24982 54.30984 49.21836
#
# Poissons Ratio (x) = 0.04281 0.12415
# Poissons Ratio (y) = 0.11054 -0.07835
# Poissons Ratio (z) = 0.35376 -0.08646
#
# Static dielectric constant tensor:
#      x y z
#    x 1.970570 0.000000 -0.017800 
#    y 0.000000 1.835400 0.000000 
#    z -0.017800 0.000000 2.180930 
# 
# From -- ./inp_files/247482.got.cif
#   From: 2010.05.17/outbox.cif.g08.bks.cpg/sg15_124_cif.got.tgz:247482.got - 2010.06.03 18:47:42.
