data_PCOD9271886
_publ_section_title
;
Structure prediction by ZEFSAII (Michael W. Deem and Ramdas Pophale) SiO2 
 PCOD9271886
Probable space group: C 2/C
;
_chemical_formula_sum "Si O2"
_cell_formula_units_Z 60
_cell_length_a 19.519420
_cell_length_b 15.982882
_cell_length_c 9.553009
_cell_angle_alpha 90.000000
_cell_angle_beta 80.573976
_cell_angle_gamma 90.000000
_cell_volume 2940.074556
_symmetry_space_group_name_H-M "C 2/C"
_symmetry_group_IT_number 15
_symmetry_cell_setting 'monoclinic'
loop_
_space_group_symop_operation_xyz
x,y,z
-x,y,1/2-z
-x,-y,-z
x,-y,1/2+z
1/2+x,1/2+y,z
1/2-x,1/2+y,1/2-z
1/2-x,1/2-y,-z
1/2+x,1/2-y,1/2+z
loop_
_atom_site_type_symbol
_atom_site_label
_atom_site_fract_x
_atom_site_fract_y
_atom_site_fract_z
Si Si1 0.268190 0.108944 0.206474
Si Si2 0.000000 0.572891 0.750000
Si Si3 0.822303 0.063167 0.771291
Si Si4 0.656392 0.336367 0.955548
Si Si5 0.280815 0.866515 0.400269
Si Si6 0.632295 0.966851 0.618485
Si Si7 0.452580 0.464167 0.638748
Si Si8 0.614790 0.838345 0.380865
O O1 0.223953 0.159890 0.334764
O O2 0.341227 0.084421 0.254340
O O3 0.223665 0.022337 0.197178
O O4 0.274080 0.162442 0.062187
O O5 0.941625 0.511833 0.834971
O O6 0.959602 0.632905 0.654638
O O7 0.791151 0.116166 0.653568
O O8 0.900498 0.034634 0.714954
O O9 0.821378 0.120712 0.907763
O O10 0.597636 0.393961 0.905524
O O11 0.623651 0.244712 0.968882
O O12 0.334643 0.827981 0.270841
O O13 0.313302 0.958590 0.413172
O O14 0.636243 0.912961 0.477015
O O15 0.500000 0.433173 0.750000
O O16 0.500000 0.500000 0.500000
#
# Coordination Sequence:
#
# PCOD9271886 Si02
#       8
#     8   4   8   8   8   8   8   8
#     4  10  20  36  63  92 121 158 207 255 296 363
#     4  10  22  40  64  92 118 162 216 252 296 366
#     4  10  20  37  60  91 120 159 205 248 293 366
#     4  11  24  39  59  91 127 160 199 252 315 363
#     4  10  20  36  62  89 118 157 204 249 299 363
#     4  10  20  39  65  88 119 160 207 251 302 370
#     4  11  22  39  64  88 116 162 209 249 297 365
#     4  11  24  40  61  90 127 162 196 255 318 362
#
# _framework density 20.407647000000001
#
# number of rings (size 3 to 8) (size 9 to 14) (size 15 to 20)
#    0.000    1.600    1.333    6.000    2.800    3.733 
#    0.000    1.333    0.000    0.000    0.000    0.000 
#    0.000    0.000    0.000    0.000    0.000    0.000 
#
# Total GULP energy -167548.064157 kJ/mol
# GULP energy per Si atom -5584.935472 kJ/mol
# Density = 2.036120 g / cm^3
# Si number density = 20.407647 Si / 1000 Ang^3
#
#
#
# Elastic Constant Matrix: (Units=GPa)
#
#
# Indices 1 2 3 4 5 6 
#
# 1 92.9625 19.7095 26.3840 0.0000 10.1672 0.0000
# 2 19.7095 57.3735 11.1245 0.0000 2.7952 0.0000
# 3 26.3840 11.1245 95.7902 0.0000 2.8617 0.0000
# 4 0.0000 0.0000 0.0000 17.5204 0.0000 3.2184
# 5 10.1672 2.7952 2.8617 0.0000 35.6891 0.0000
# 6 0.0000 0.0000 0.0000 3.2184 0.0000 12.7395
#
#
#
# Elastic Compliance Matrix: (Units=1/GPa)
#
#
# Indices 1 2 3 4 5 6 
#
# 1 0.012715 -0.003638 -0.002987 0.000000 -0.003098 0.000000
# 2 -0.003638 0.018926 -0.001186 0.000000 -0.000351 0.000000
# 3 -0.002987 -0.001186 0.011399 0.000000 0.000030 0.000000
# 4 0.000000 0.000000 0.000000 0.059854 0.000000 -0.015121
# 5 -0.003098 -0.000351 0.000030 0.000000 0.028927 0.000000
# 6 0.000000 0.000000 0.000000 -0.015121 0.000000 0.082316
#
#
# Mechanical properties :
#
#
# Convention : Reuss Voigt Hill
#
# Bulk Modulus (GPa) = 36.47062 40.06246 38.26654
# Shear Modulus (GPa) = 20.92944 25.78370 23.35657
#
# Velocity S-wave (km/s) = 3.20592 3.55834 3.38672
# Velocity P-wave (km/s) = 5.62261 6.04616 5.83823
#
# Compressibility (1/GPa) = 0.02741933
#
# Stress axis : x y z
#
# Youngs Moduli (GPa) = 78.64794 52.83651 87.72685
#
# Poissons Ratio (x) = 0.19221 0.26205
# Poissons Ratio (y) = 0.28611 0.10400
# Poissons Ratio (z) = 0.23493 0.06264
#
# Static dielectric constant tensor:
#      x y z
#    x 1.712750 0.000000 0.008310 
#    y 0.000000 1.739300 0.000000 
#    z 0.008310 0.000000 1.777670 
# 
# From -- ./inp_files/56542.got.cif
#   From: 2010.05.17/outbox.cif.g08.bks.cpg/sg15_29_cif.got.tgz:56542.got - 2010.06.03 18:47:42.
