data_PCOD9271735
_publ_section_title
;
Structure prediction by ZEFSAII (Michael W. Deem and Ramdas Pophale) SiO2 
 PCOD9271735
Probable space group: C 2/C
;
_chemical_formula_sum "Si O2"
_cell_formula_units_Z 60
_cell_length_a 14.708015
_cell_length_b 10.080217
_cell_length_c 23.003413
_cell_angle_alpha 90.000000
_cell_angle_beta 61.015745
_cell_angle_gamma 90.000000
_cell_volume 2983.332186
_symmetry_space_group_name_H-M "C 2/C"
_symmetry_group_IT_number 15
_symmetry_cell_setting 'monoclinic'
loop_
_space_group_symop_operation_xyz
x,y,z
-x,y,1/2-z
-x,-y,-z
x,-y,1/2+z
1/2+x,1/2+y,z
1/2-x,1/2+y,1/2-z
1/2-x,1/2-y,-z
1/2+x,1/2-y,1/2+z
loop_
_atom_site_type_symbol
_atom_site_label
_atom_site_fract_x
_atom_site_fract_y
_atom_site_fract_z
Si Si1 0.000000 0.133428 0.250000
Si Si2 0.235981 0.692632 0.088392
Si Si3 0.138681 0.391872 0.926677
Si Si4 0.803177 0.044767 0.955284
Si Si5 0.219557 0.249458 0.207794
Si Si6 0.741401 0.546071 0.307112
Si Si7 0.052514 0.328207 0.432158
Si Si8 0.011625 0.917500 0.875829
O O1 0.106626 0.214841 0.217282
O O2 0.000975 0.055506 0.310454
O O3 0.172272 0.822996 0.090062
O O4 0.201960 0.610932 0.155245
O O5 0.350269 0.753569 0.067615
O O6 0.244850 0.597312 0.030355
O O7 0.228213 0.449716 0.941494
O O8 0.193202 0.289931 0.866362
O O9 0.091054 0.521903 0.909063
O O10 0.044877 0.334440 0.994086
O O11 0.910053 0.973404 0.937762
O O12 0.219569 0.403280 0.224073
O O13 0.238329 0.153852 0.256941
O O14 0.620674 0.523385 0.362459
O O15 0.021839 0.239660 0.386227
#
# Coordination Sequence:
#
# PCOD9271735 Si02
#       8
#     4   8   8   8   8   8   8   8
#     4  10  22  40  56  86 116 156 198 242 310 354
#     4   9  21  39  59  87 123 157 201 246 306 360
#     4  10  21  38  60  88 119 160 201 248 314 361
#     4  10  20  36  61  86 121 159 190 257 298 365
#     4  11  24  41  64  88 119 164 205 257 303 373
#     4  10  25  40  63  87 119 161 208 249 305 370
#     4   9  21  37  60  88 120 156 200 256 296 367
#     4  10  21  37  61  86 119 158 203 246 301 370
#
# _framework density 20.111739
#
# number of rings (size 3 to 8) (size 9 to 14) (size 15 to 20)
#    0.000    2.133    1.333    0.000   11.200    2.667 
#    0.000    1.333    0.000    0.000    0.000    0.000 
#    0.000    0.000    0.000    0.000    0.000    0.000 
#
# Total GULP energy -167385.344222 kJ/mol
# GULP energy per Si atom -5579.511474 kJ/mol
# Density = 2.006596 g / cm^3
# Si number density = 20.111739 Si / 1000 Ang^3
#
#
#
# Elastic Constant Matrix: (Units=GPa)
#
#
# Indices 1 2 3 4 5 6 
#
# 1 18.0706 0.6525 -2.2140 0.0000 0.3417 0.0000
# 2 0.6525 69.4884 21.9472 0.0000 8.9952 0.0000
# 3 -2.2140 21.9472 47.9237 0.0000 6.4870 0.0000
# 4 0.0000 0.0000 0.0000 30.3986 0.0000 1.5560
# 5 0.3417 8.9952 6.4870 0.0000 35.1116 0.0000
# 6 0.0000 0.0000 0.0000 1.5560 0.0000 14.3237
#
#
#
# Elastic Compliance Matrix: (Units=1/GPa)
#
#
# Indices 1 2 3 4 5 6 
#
# 1 0.055819 -0.001485 0.003365 0.000000 -0.000784 0.000000
# 2 -0.001485 0.017169 -0.007526 0.000000 -0.002994 0.000000
# 3 0.003365 -0.007526 0.024833 0.000000 -0.002693 0.000000
# 4 0.000000 0.000000 0.000000 0.033080 0.000000 -0.003594
# 5 -0.000784 -0.002994 -0.002693 0.000000 0.029753 0.000000
# 6 0.000000 0.000000 0.000000 -0.003594 0.000000 0.070205
#
#
# Mechanical properties :
#
#
# Convention : Reuss Voigt Hill
#
# Bulk Modulus (GPa) = 11.55685 19.58378 15.57032
# Shear Modulus (GPa) = 18.45047 23.63992 21.04520
#
# Velocity S-wave (km/s) = 3.03214 3.43217 3.23834
# Velocity P-wave (km/s) = 4.24468 5.04629 4.66274
#
# Compressibility (1/GPa) = 0.08652879
#
# Stress axis : x y z
#
# Youngs Moduli (GPa) = 17.91496 58.24283 40.26857
#
# Poissons Ratio (x) = 0.08652 -0.13551
# Poissons Ratio (y) = 0.02661 0.30308
# Poissons Ratio (z) = -0.06029 0.43836
#
# Static dielectric constant tensor:
#      x y z
#    x 1.712360 0.000000 -0.001250 
#    y 0.000000 1.717900 0.000000 
#    z -0.001250 0.000000 1.724240 
# 
# From -- ./inp_files/273107.got.cif
#   From: 2010.05.17/outbox.cif.g08.bks.cpg/sg15_137_cif.got.tgz:273107.got - 2010.06.03 18:47:42.
