data_PCOD9271434
_publ_section_title
;
Structure prediction by ZEFSAII (Michael W. Deem and Ramdas Pophale) SiO2 
 PCOD9271434
Probable space group: C 2/C
;
_chemical_formula_sum "Si O2"
_cell_formula_units_Z 64
_cell_length_a 11.763933
_cell_length_b 27.065349
_cell_length_c 9.453304
_cell_angle_alpha 90.000000
_cell_angle_beta 90.223849
_cell_angle_gamma 90.000000
_cell_volume 3009.861305
_symmetry_space_group_name_H-M "C 2/C"
_symmetry_group_IT_number 15
_symmetry_cell_setting 'monoclinic'
loop_
_space_group_symop_operation_xyz
x,y,z
-x,y,1/2-z
-x,-y,-z
x,-y,1/2+z
1/2+x,1/2+y,z
1/2-x,1/2+y,1/2-z
1/2-x,1/2-y,-z
1/2+x,1/2-y,1/2+z
loop_
_atom_site_type_symbol
_atom_site_label
_atom_site_fract_x
_atom_site_fract_y
_atom_site_fract_z
Si Si1 0.788700 0.625498 0.292264
Si Si2 0.151403 0.816652 0.455258
Si Si3 0.096810 0.831389 0.962329
Si Si4 0.091873 0.549425 0.383456
Si Si5 0.614771 0.062431 0.945087
Si Si6 0.438877 0.777962 0.102782
Si Si7 0.371077 0.210679 0.126721
Si Si8 0.262474 0.860996 0.202021
O O1 0.664332 0.645278 0.330735
O O2 0.813814 0.588603 0.163090
O O3 0.825388 0.592419 0.426767
O O4 0.869131 0.673277 0.259198
O O5 0.243805 0.797678 0.567041
O O6 0.119395 0.769627 0.353887
O O7 0.217284 0.854121 0.357653
O O8 0.038209 0.836227 0.526933
O O9 0.114860 0.772067 0.959350
O O10 0.153891 0.856518 0.098876
O O11 0.136423 0.495582 0.426046
O O12 0.000000 0.544477 0.250000
O O13 0.016790 0.567593 0.514776
O O14 0.663622 0.090026 0.811106
O O15 0.500000 0.763259 0.250000
O O16 0.345765 0.817826 0.145871
O O17 0.534976 0.798549 0.995194
#
# Coordination Sequence:
#
# PCOD9271434 Si02
#       8
#     8   8   8   8   8   8   8   8
#     4  10  20  36  59  87 118 153 195 242 307 365
#     4  10  21  37  56  84 123 159 211 240 284 347
#     4  10  23  35  57  82 116 166 201 243 290 352
#     4   9  18  38  61  88 119 151 191 251 313 373
#     4   9  20  36  58  88 118 148 193 246 310 364
#     4  11  21  35  55  85 124 153 203 251 291 354
#     4  10  21  36  57  88 118 160 198 252 291 350
#     4  11  20  37  55  86 118 155 197 245 305 358
#
# _framework density 21.263439000000002
#
# number of rings (size 3 to 8) (size 9 to 14) (size 15 to 20)
#    0.000    2.000    1.250    2.250    3.500    2.500 
#    6.750    5.000    0.000    0.750    6.500    0.000 
#    0.000    0.000    0.000    0.000    0.000    0.000 
#
# Total GULP energy -178628.992373 kJ/mol
# GULP energy per Si atom -5582.156012 kJ/mol
# Density = 2.121504 g / cm^3
# Si number density = 21.263439 Si / 1000 Ang^3
#
#
#
# Elastic Constant Matrix: (Units=GPa)
#
#
# Indices 1 2 3 4 5 6 
#
# 1 108.5587 59.5879 51.0524 0.0000 -42.0922 0.0000
# 2 59.5879 94.0467 34.6941 0.0000 -32.1303 0.0000
# 3 51.0524 34.6941 60.4553 0.0000 -27.3679 0.0000
# 4 0.0000 0.0000 0.0000 33.4032 0.0000 -11.0926
# 5 -42.0922 -32.1303 -27.3679 0.0000 54.8226 0.0000
# 6 0.0000 0.0000 0.0000 -11.0926 0.0000 27.6485
#
#
#
# Elastic Compliance Matrix: (Units=1/GPa)
#
#
# Indices 1 2 3 4 5 6 
#
# 1 0.020329 -0.006881 -0.010307 0.000000 0.006430 0.000000
# 2 -0.006881 0.017083 -0.002393 0.000000 0.003534 0.000000
# 3 -0.010307 -0.002393 0.028942 0.000000 0.005132 0.000000
# 4 0.000000 0.000000 0.000000 0.034539 0.000000 0.013857
# 5 0.006430 0.003534 0.005132 0.000000 0.027811 0.000000
# 6 0.000000 0.000000 0.000000 0.013857 0.000000 0.041728
#
#
# Mechanical properties :
#
#
# Convention : Reuss Voigt Hill
#
# Bulk Modulus (GPa) = 36.77685 61.52551 49.15118
# Shear Modulus (GPa) = 22.86674 31.02329 26.94502
#
# Velocity S-wave (km/s) = 3.28289 3.82383 3.56364
# Velocity P-wave (km/s) = 5.63056 6.96371 6.33231
#
# Compressibility (1/GPa) = 0.02719102
#
# Stress axis : x y z
#
# Youngs Moduli (GPa) = 49.19008 58.53715 34.55229
#
# Poissons Ratio (x) = 0.40282 0.35615
# Poissons Ratio (y) = 0.33850 0.08267
# Poissons Ratio (z) = 0.50702 0.14006
#
# Static dielectric constant tensor:
#      x y z
#    x 1.788360 0.000000 0.049840 
#    y 0.000000 1.781590 0.000000 
#    z 0.049840 0.000000 1.875090 
# 
# From -- ./inp_files/90784.got.cif
#   From: 2010.05.17/outbox.cif.g08.bks.cpg/sg15_46_cif.got.tgz:90784.got - 2010.06.03 18:47:42.
