data_PCOD9271564
_publ_section_title
;
Structure prediction by ZEFSAII (Michael W. Deem and Ramdas Pophale) SiO2 
 PCOD9271564
Probable space group: C 2/C
;
_chemical_formula_sum "Si O2"
_cell_formula_units_Z 56
_cell_length_a 13.827374
_cell_length_b 11.878079
_cell_length_c 24.410482
_cell_angle_alpha 90.000000
_cell_angle_beta 134.454118
_cell_angle_gamma 90.000000
_cell_volume 2861.843076
_symmetry_space_group_name_H-M "C 2/C"
_symmetry_group_IT_number 15
_symmetry_cell_setting 'monoclinic'
loop_
_space_group_symop_operation_xyz
x,y,z
-x,y,1/2-z
-x,-y,-z
x,-y,1/2+z
1/2+x,1/2+y,z
1/2-x,1/2+y,1/2-z
1/2-x,1/2-y,-z
1/2+x,1/2-y,1/2+z
loop_
_atom_site_type_symbol
_atom_site_label
_atom_site_fract_x
_atom_site_fract_y
_atom_site_fract_z
Si Si1 0.363005 0.574671 0.229265
Si Si2 0.768031 0.765420 0.853584
Si Si3 0.848700 0.542206 0.932364
Si Si4 0.406737 0.492479 0.872472
Si Si5 0.305277 0.567167 0.521959
Si Si6 0.587155 0.204757 0.378495
Si Si7 0.201397 0.771881 0.203876
O O1 0.500000 0.559881 0.250000
O O2 0.239454 0.508783 0.151899
O O3 0.395904 0.535320 0.303553
O O4 0.311309 0.702041 0.214135
O O5 0.851958 0.677088 0.923777
O O6 0.627192 0.773587 0.831293
O O7 0.754170 0.713413 0.787256
O O8 0.833765 0.888990 0.873802
O O9 0.763021 0.510930 0.952419
O O10 0.000000 0.500000 0.000000
O O11 0.565476 0.502678 0.950754
O O12 0.338542 0.616143 0.845210
O O13 0.366066 0.683985 0.569916
O O14 0.182676 0.601898 0.434071
O O15 0.432034 0.195405 0.335427
#
# Coordination Sequence:
#
# PCOD9271564 Si02
#       7
#     8   8   8   8   8   8   8
#     4  11  21  37  61  86 117 160 199 242 297 359
#     4  10  21  35  59  87 116 155 201 248 293 354
#     4  11  21  36  60  87 118 157 204 247 290 349
#     4  10  20  37  61  85 116 158 196 244 303 355
#     4   9  18  33  55  82 114 151 197 235 292 355
#     4   9  18  33  55  85 114 146 192 251 289 337
#     4  10  20  36  60  86 115 150 200 247 297 358
#
# _framework density 19.567809
#
# number of rings (size 3 to 8) (size 9 to 14) (size 15 to 20)
#    0.000    2.000    2.857    1.286    0.000    1.714 
#    0.000    3.571    3.143    0.000    0.000    0.000 
#    0.000    0.000    0.000    0.000    0.000    0.000 
#
# Total GULP energy -156041.232332 kJ/mol
# GULP energy per Si atom -5572.901155 kJ/mol
# Density = 1.952327 g / cm^3
# Si number density = 19.567809 Si / 1000 Ang^3
#
#
#
# Elastic Constant Matrix: (Units=GPa)
#
#
# Indices 1 2 3 4 5 6 
#
# 1 39.1210 16.7366 19.0042 0.0000 7.1544 0.0000
# 2 16.7366 72.0783 27.4327 0.0000 9.2841 0.0000
# 3 19.0042 27.4327 64.8366 0.0000 26.1003 0.0000
# 4 0.0000 0.0000 0.0000 21.4892 0.0000 3.8437
# 5 7.1544 9.2841 26.1003 0.0000 28.0278 0.0000
# 6 0.0000 0.0000 0.0000 3.8437 0.0000 17.1897
#
#
#
# Elastic Compliance Matrix: (Units=1/GPa)
#
#
# Indices 1 2 3 4 5 6 
#
# 1 0.030963 -0.004440 -0.007370 0.000000 0.000431 0.000000
# 2 -0.004440 0.017222 -0.006631 0.000000 0.001603 0.000000
# 3 -0.007370 -0.006631 0.029990 0.000000 -0.023850 0.000000
# 4 0.000000 0.000000 0.000000 0.048474 0.000000 -0.010839
# 5 0.000431 0.001603 -0.023850 0.000000 0.057248 0.000000
# 6 0.000000 0.000000 0.000000 -0.010839 0.000000 0.060598
#
#
# Mechanical properties :
#
#
# Convention : Reuss Voigt Hill
#
# Bulk Modulus (GPa) = 24.21720 33.59809 28.90764
# Shear Modulus (GPa) = 16.94111 20.86550 18.90331
#
# Velocity S-wave (km/s) = 2.94558 3.26899 3.11149
# Velocity P-wave (km/s) = 4.89607 5.60855 5.26437
#
# Compressibility (1/GPa) = 0.04129297
#
# Stress axis : x y z
#
# Youngs Moduli (GPa) = 32.29683 58.06575 33.34439
#
# Poissons Ratio (x) = 0.25781 0.24576
# Poissons Ratio (y) = 0.14340 0.22110
# Poissons Ratio (z) = 0.23803 0.38502
#
# Static dielectric constant tensor:
#      x y z
#    x 1.692660 0.000000 -0.009610 
#    y 0.000000 1.717330 0.000000 
#    z -0.009610 0.000000 1.727220 
# 
# From -- ./inp_files/295954.got.cif
#   From: 2010.05.17/outbox.cif.g08.bks.cpg/sg15_148_cif.got.tgz:295954.got - 2010.06.03 18:47:42.
