data_PCOD9271493
_publ_section_title
;
Structure prediction by ZEFSAII (Michael W. Deem and Ramdas Pophale) SiO2 
 PCOD9271493
Probable space group: C 2/C
;
_chemical_formula_sum "Si O2"
_cell_formula_units_Z 32
_cell_length_a 5.502011
_cell_length_b 30.076936
_cell_length_c 9.643556
_cell_angle_alpha 90.000000
_cell_angle_beta 115.296232
_cell_angle_gamma 90.000000
_cell_volume 1442.825599
_symmetry_space_group_name_H-M "C 2/C"
_symmetry_group_IT_number 15
_symmetry_cell_setting 'monoclinic'
loop_
_space_group_symop_operation_xyz
x,y,z
-x,y,1/2-z
-x,-y,-z
x,-y,1/2+z
1/2+x,1/2+y,z
1/2-x,1/2+y,1/2-z
1/2-x,1/2-y,-z
1/2+x,1/2-y,1/2+z
loop_
_atom_site_type_symbol
_atom_site_label
_atom_site_fract_x
_atom_site_fract_y
_atom_site_fract_z
Si Si1 0.588069 0.450301 0.059745
Si Si2 0.897246 0.415780 0.415286
Si Si3 0.174895 0.777806 0.659748
Si Si4 0.235224 0.319066 0.095460
O O1 0.747735 0.438257 0.243983
O O2 0.309647 0.424099 0.010306
O O3 0.809390 0.436506 0.001099
O O4 0.500000 0.500000 0.000000
O O5 0.932626 0.362840 0.414000
O O6 0.500000 0.774511 0.750000
O O7 0.090130 0.727596 0.595290
O O8 0.150958 0.812880 0.531244
O O9 0.000000 0.789898 0.750000
O O10 0.500000 0.324229 0.250000
#
# Coordination Sequence:
#
# PCOD9271493 Si02
#       4
#     8   8   8   8
#     4  10  20  36  59  91 121 151 203 274 329 376
#     4  10  21  36  63  91 117 166 212 265 310 414
#     4  10  24  40  62  96 143 179 215 279 324 384
#     4  10  21  40  68  98 130 180 231 263 326 392
#
# _framework density 22.178705000000001
#
# number of rings (size 3 to 8) (size 9 to 14) (size 15 to 20)
#    0.000    2.000    2.500    0.750    3.500   11.000 
#    0.000    0.000   22.000    0.000    0.000    0.000 
#    0.000    0.000    0.000    0.000    0.000    0.000 
#
# Total GULP energy -89189.583334 kJ/mol
# GULP energy per Si atom -5574.348958 kJ/mol
# Density = 2.212822 g / cm^3
# Si number density = 22.178705 Si / 1000 Ang^3
#
#
#
# Elastic Constant Matrix: (Units=GPa)
#
#
# Indices 1 2 3 4 5 6 
#
# 1 176.9212 39.8209 34.4391 0.0000 -9.0548 0.0000
# 2 39.8209 141.5985 44.1485 0.0000 8.5179 0.0000
# 3 34.4391 44.1485 59.3789 0.0000 -18.8712 0.0000
# 4 0.0000 0.0000 0.0000 34.0380 0.0000 -16.0545
# 5 -9.0548 8.5179 -18.8712 0.0000 19.7896 0.0000
# 6 0.0000 0.0000 0.0000 -16.0545 0.0000 -51.0090
#
#
#
# Elastic Compliance Matrix: (Units=1/GPa)
#
#
# Indices 1 2 3 4 5 6 
#
# 1 0.006453 -0.000998 -0.002763 0.000000 0.000748 0.000000
# 2 -0.000998 0.014061 -0.017138 0.000000 -0.022851 0.000000
# 3 -0.002763 -0.017138 0.047533 0.000000 0.051440 0.000000
# 4 0.000000 0.000000 0.000000 0.025581 0.000000 -0.008051
# 5 0.000748 -0.022851 0.051440 0.000000 0.109762 0.000000
# 6 0.000000 0.000000 0.000000 -0.008051 0.000000 -0.017070
#
#
# Mechanical properties :
#
#
# Convention : Reuss Voigt Hill
#
# Bulk Modulus (GPa) = 38.09565 68.30173 53.19869
# Shear Modulus (GPa) = 21.10885 17.86306 19.48596
#
# Velocity S-wave (km/s) = 3.08841 2.84106 2.96732
# Velocity P-wave (km/s) = 5.47099 6.45175 5.98150
#
# Compressibility (1/GPa) = 0.02624972
#
# Stress axis : x y z
#
# Youngs Moduli (GPa) = 154.96677 71.11921 21.03785
#
# Poissons Ratio (x) = 0.07100 0.05812
# Poissons Ratio (y) = 0.15471 0.36054
# Poissons Ratio (z) = 0.42814 1.21882
#
# Static dielectric constant tensor:
#      x y z
#    x 1.788060 0.000000 0.037400 
#    y 0.000000 1.853860 0.000000 
#    z 0.037400 0.000000 1.821550 
# 
# From -- ./inp_files/20293.got.cif
#   From: 2010.05.17/outbox.cif.g08.bks.cpg/sg15_11_cif.got.tgz:20293.got - 2010.06.03 18:47:42.
