data_PCOD9271071
_publ_section_title
;
Structure prediction by ZEFSAII (Michael W. Deem and Ramdas Pophale) SiO2 
 PCOD9271071
Probable space group: C 2/C
;
_chemical_formula_sum "Si O2"
_cell_formula_units_Z 48
_cell_length_a 20.249569
_cell_length_b 18.463700
_cell_length_c 16.450729
_cell_angle_alpha 90.000000
_cell_angle_beta 156.230204
_cell_angle_gamma 90.000000
_cell_volume 2479.091202
_symmetry_space_group_name_H-M "C 2/C"
_symmetry_group_IT_number 15
_symmetry_cell_setting 'monoclinic'
loop_
_space_group_symop_operation_xyz
x,y,z
-x,y,1/2-z
-x,-y,-z
x,-y,1/2+z
1/2+x,1/2+y,z
1/2-x,1/2+y,1/2-z
1/2-x,1/2-y,-z
1/2+x,1/2-y,1/2+z
loop_
_atom_site_type_symbol
_atom_site_label
_atom_site_fract_x
_atom_site_fract_y
_atom_site_fract_z
Si Si1 0.188592 0.310499 0.045563
Si Si2 0.500000 0.550790 0.250000
Si Si3 0.648870 0.468211 0.560935
Si Si4 0.838282 0.164310 0.161350
Si Si5 0.000000 0.707062 0.750000
Si Si6 0.306918 0.846130 0.631725
Si Si7 0.411270 0.392245 0.420409
O O1 0.211717 0.224799 0.056935
O O2 0.298754 0.336854 0.244428
O O3 0.236204 0.350309 0.013567
O O4 0.999667 0.328238 0.849984
O O5 0.529226 0.500476 0.358502
O O6 0.353948 0.606001 0.105947
O O7 0.767936 0.415399 0.644227
O O8 0.541023 0.423912 0.502634
O O9 0.698010 0.541837 0.664916
O O10 0.904666 0.241290 0.205320
O O11 0.970386 0.140682 0.377218
O O12 0.645316 0.166854 0.961919
#
# Coordination Sequence:
#
# PCOD9271071 Si02
#       7
#     8   4   8   8   4   8   8
#     4  10  21  37  58  85 114 145 191 238 281 334
#     4   9  18  36  56  76 108 149 182 216 272 335
#     4  10  20  36  57  80 113 150 184 225 282 338
#     4   9  19  35  56  81 106 140 181 223 273 325
#     4   9  18  36  58  78 106 141 180 222 270 333
#     4  10  21  37  58  82 112 154 190 228 284 342
#     4  10  21  36  56  85 114 144 185 233 281 328
#
# _framework density 19.361934000000002
#
# number of rings (size 3 to 8) (size 9 to 14) (size 15 to 20)
#    0.000    2.333    0.000    2.000    0.000    6.000 
#    0.000   11.667    0.000    0.000    0.000    0.000 
#    0.000    0.000    0.000    0.000    0.000    0.000 
#
# Total GULP energy -133626.730865 kJ/mol
# GULP energy per Si atom -5567.780453 kJ/mol
# Density = 1.931787 g / cm^3
# Si number density = 19.361934 Si / 1000 Ang^3
#
#
#
# Elastic Constant Matrix: (Units=GPa)
#
#
# Indices 1 2 3 4 5 6 
#
# 1 68.1717 32.9412 29.6794 0.0000 -0.1576 0.0000
# 2 32.9412 69.1016 39.4032 0.0000 8.9693 0.0000
# 3 29.6794 39.4032 99.5420 -0.0001 -0.4551 -0.0001
# 4 0.0000 0.0000 -0.0001 20.9352 0.0000 0.6684
# 5 -0.1576 8.9693 -0.4551 0.0000 29.6939 0.0000
# 6 0.0000 0.0000 -0.0001 0.6684 0.0000 40.7744
#
#
#
# Elastic Compliance Matrix: (Units=1/GPa)
#
#
# Indices 1 2 3 4 5 6 
#
# 1 0.019819 -0.008290 -0.002616 0.000000 0.002569 0.000000
# 2 -0.008290 0.023197 -0.006744 0.000000 -0.007154 0.000000
# 3 -0.002616 -0.006744 0.013506 0.000000 0.002230 0.000000
# 4 0.000000 0.000000 0.000000 0.047791 0.000000 -0.000783
# 5 0.002569 -0.007154 0.002230 0.000000 0.035886 0.000000
# 6 0.000000 0.000000 0.000000 -0.000783 0.000000 0.024538
#
#
# Mechanical properties :
#
#
# Convention : Reuss Voigt Hill
#
# Bulk Modulus (GPa) = 47.11785 48.98475 48.05130
# Shear Modulus (GPa) = 24.14170 27.26681 25.70426
#
# Velocity S-wave (km/s) = 3.53493 3.75676 3.64753
# Velocity P-wave (km/s) = 6.40696 6.64621 6.52768
#
# Compressibility (1/GPa) = 0.02122338
#
# Stress axis : x y z
#
# Youngs Moduli (GPa) = 50.45560 43.10883 74.04320
#
# Poissons Ratio (x) = 0.35736 0.19371
# Poissons Ratio (y) = 0.41826 0.49931
# Poissons Ratio (z) = 0.13200 0.29070
#
# Static dielectric constant tensor:
#      x y z
#    x 1.699710 0.000000 -0.005300 
#    y 0.000000 1.714020 0.000000 
#    z -0.005300 0.000000 1.669850 
# 
# From -- ./inp_files/216318.got.cif
#   From: 2010.05.17/outbox.cif.g08.bks.cpg/sg15_109_cif.got.tgz:216318.got - 2010.06.03 18:47:42.
