data_PCOD9271909
_publ_section_title
;
Structure prediction by ZEFSAII (Michael W. Deem and Ramdas Pophale) SiO2 
 PCOD9271909
Probable space group: C 2/C
;
_chemical_formula_sum "Si O2"
_cell_formula_units_Z 52
_cell_length_a 11.356591
_cell_length_b 21.443777
_cell_length_c 9.016579
_cell_angle_alpha 90.000000
_cell_angle_beta 68.234181
_cell_angle_gamma 90.000000
_cell_volume 2039.247208
_symmetry_space_group_name_H-M "C 2/C"
_symmetry_group_IT_number 15
_symmetry_cell_setting 'monoclinic'
loop_
_space_group_symop_operation_xyz
x,y,z
-x,y,1/2-z
-x,-y,-z
x,-y,1/2+z
1/2+x,1/2+y,z
1/2-x,1/2+y,1/2-z
1/2-x,1/2-y,-z
1/2+x,1/2-y,1/2+z
loop_
_atom_site_type_symbol
_atom_site_label
_atom_site_fract_x
_atom_site_fract_y
_atom_site_fract_z
Si Si1 0.935785 0.603046 0.053888
Si Si2 0.561134 0.357891 0.925267
Si Si3 0.000000 0.300277 0.750000
Si Si4 0.191326 0.421284 0.331441
Si Si5 0.683802 0.702095 0.644636
Si Si6 0.256567 0.535009 0.133491
Si Si7 0.295888 0.317054 0.924663
O O1 0.858147 0.563878 0.212915
O O2 0.826783 0.638962 0.017708
O O3 0.022693 0.652807 0.104812
O O4 0.039039 0.571177 0.902392
O O5 0.616260 0.427617 0.880372
O O6 0.416209 0.345328 0.955727
O O7 0.646346 0.317242 0.770426
O O8 0.595760 0.338185 0.075047
O O9 0.897777 0.252984 0.730347
O O10 0.234822 0.348991 0.307630
O O11 0.257390 0.463120 0.176225
O O12 0.231070 0.450605 0.473327
O O13 0.750000 0.750000 0.500000
O O14 0.250000 0.250000 0.000000
#
# Coordination Sequence:
#
# PCOD9271909 Si02
#       7
#     8   8   4   8   8   8   8
#     4  11  20  38  66  94 128 179 220 289 354 397
#     4   9  21  40  61  90 135 183 219 280 355 410
#     4  12  20  38  68  98 128 168 228 286 352 410
#     4  11  22  41  69 100 133 180 231 291 347 412
#     4  11  21  38  65  96 128 172 231 287 345 418
#     4  10  21  41  69  95 132 177 234 285 348 412
#     4  10  20  36  62  90 131 179 219 271 347 418
#
# _framework density 25.499606
#
# number of rings (size 3 to 8) (size 9 to 14) (size 15 to 20)
#    0.000    1.538    3.077    3.231    0.000    0.000 
#    0.000   13.846    3.385   28.615    0.000    0.000 
#    0.000    0.000    0.000    0.000    0.000    0.000 
#
# Total GULP energy -145462.416136 kJ/mol
# GULP energy per Si atom -5594.708313 kJ/mol
# Density = 2.544157 g / cm^3
# Si number density = 25.499606 Si / 1000 Ang^3
#
#
#
# Elastic Constant Matrix: (Units=GPa)
#
#
# Indices 1 2 3 4 5 6 
#
# 1 141.8856 42.5444 27.1187 0.0000 -11.2462 0.0000
# 2 42.5444 153.6812 41.6807 0.0000 -12.2057 0.0000
# 3 27.1187 41.6807 75.3393 0.0000 -1.3763 0.0000
# 4 0.0000 0.0000 0.0000 44.6096 0.0000 -1.4322
# 5 -11.2462 -12.2057 -1.3763 0.0000 33.9559 0.0000
# 6 0.0000 0.0000 0.0000 -1.4322 0.0000 28.4482
#
#
#
# Elastic Compliance Matrix: (Units=1/GPa)
#
#
# Indices 1 2 3 4 5 6 
#
# 1 0.008051 -0.001519 -0.002020 0.000000 0.002039 0.000000
# 2 -0.001519 0.008175 -0.003935 0.000000 0.002276 0.000000
# 3 -0.002020 -0.003935 0.016151 0.000000 -0.001429 0.000000
# 4 0.000000 0.000000 0.000000 0.022453 0.000000 0.001130
# 5 0.002039 0.002276 -0.001429 0.000000 0.030885 0.000000
# 6 0.000000 0.000000 0.000000 0.001130 0.000000 0.035208
#
#
# Mechanical properties :
#
#
# Convention : Reuss Voigt Hill
#
# Bulk Modulus (GPa) = 57.37324 65.95485 61.66405
# Shear Modulus (GPa) = 35.29014 38.70691 36.99852
#
# Velocity S-wave (km/s) = 3.72418 3.90030 3.81326
# Velocity P-wave (km/s) = 6.40634 6.79738 6.60475
#
# Compressibility (1/GPa) = 0.01742973
#
# Stress axis : x y z
#
# Youngs Moduli (GPa) = 124.20585 122.31853 61.91471
#
# Poissons Ratio (x) = 0.18580 0.12510
# Poissons Ratio (y) = 0.18866 0.24361
# Poissons Ratio (z) = 0.25095 0.48128
#
# Static dielectric constant tensor:
#      x y z
#    x 2.038630 0.000000 -0.026580 
#    y 0.000000 2.016450 0.000000 
#    z -0.026580 0.000000 2.087640 
# 
# From -- ./inp_files/89497.got.cif
#   From: 2010.05.17/outbox.cif.g08.bks.cpg/sg15_45_cif.got.tgz:89497.got - 2010.06.03 18:47:42.
