data_PCOD9271691
_publ_section_title
;
Structure prediction by ZEFSAII (Michael W. Deem and Ramdas Pophale) SiO2 
 PCOD9271691
Probable space group: C 2/C
;
_chemical_formula_sum "Si O2"
_cell_formula_units_Z 48
_cell_length_a 29.803991
_cell_length_b 8.736956
_cell_length_c 19.168555
_cell_angle_alpha 90.000000
_cell_angle_beta 154.230947
_cell_angle_gamma 90.000000
_cell_volume 2169.992801
_symmetry_space_group_name_H-M "C 2/C"
_symmetry_group_IT_number 15
_symmetry_cell_setting 'monoclinic'
loop_
_space_group_symop_operation_xyz
x,y,z
-x,y,1/2-z
-x,-y,-z
x,-y,1/2+z
1/2+x,1/2+y,z
1/2-x,1/2+y,1/2-z
1/2-x,1/2-y,-z
1/2+x,1/2-y,1/2+z
loop_
_atom_site_type_symbol
_atom_site_label
_atom_site_fract_x
_atom_site_fract_y
_atom_site_fract_z
Si Si1 0.405195 0.682516 0.187949
Si Si2 0.705542 0.826167 0.340947
Si Si3 0.315740 0.806988 0.659590
Si Si4 0.500000 0.410326 0.250000
Si Si5 0.500000 0.070987 0.750000
Si Si6 0.044607 0.625085 0.505556
Si Si7 0.348314 0.154294 0.987617
O O1 0.340616 0.714152 0.165404
O O2 0.454524 0.519510 0.245937
O O3 0.488653 0.816159 0.299363
O O4 0.327111 0.703503 0.012980
O O5 0.699685 0.008653 0.351901
O O6 0.634029 0.792893 0.175128
O O7 0.250000 0.750000 0.500000
O O8 0.440107 0.791476 0.832931
O O9 0.267092 0.705671 0.654950
O O10 0.412126 0.307927 0.093124
O O11 0.600845 0.965875 0.887769
O O12 0.000000 0.500000 0.500000
O O13 0.111430 0.587361 0.529624
#
# Coordination Sequence:
#
# PCOD9271691 Si02
#       7
#     8   8   8   4   4   8   8
#     4  10  20  38  65  87 130 172 215 268 340 399
#     4  10  21  41  60  90 131 172 213 268 340 405
#     4  11  21  39  72  98 129 173 227 280 332 398
#     4  10  20  38  64 100 122 166 228 288 316 398
#     4  10  20  36  60  94 116 168 216 268 322 402
#     4  10  23  42  62  96 136 174 217 277 338 400
#     4  11  21  40  66  96 129 169 229 279 334 396
#
# _framework density 22.119886999999999
#
# number of rings (size 3 to 8) (size 9 to 14) (size 15 to 20)
#    0.000    1.667    1.667    5.000    0.000    0.000 
#   12.000    0.833    0.000    0.000    0.000    0.000 
#    0.000    0.000    0.000    0.000    0.000    0.000 
#
# Total GULP energy -133607.125856 kJ/mol
# GULP energy per Si atom -5566.963577 kJ/mol
# Density = 2.206954 g / cm^3
# Si number density = 22.119887 Si / 1000 Ang^3
#
#
#
# Elastic Constant Matrix: (Units=GPa)
#
#
# Indices 1 2 3 4 5 6 
#
# 1 80.8335 10.7092 12.3218 0.0000 2.2910 0.0000
# 2 10.7092 90.7363 11.8825 0.0000 0.9617 0.0000
# 3 12.3218 11.8825 117.3123 0.0000 -0.4744 0.0000
# 4 0.0000 0.0000 0.0000 22.6645 0.0000 3.4953
# 5 2.2910 0.9617 -0.4744 0.0000 29.2458 0.0000
# 6 0.0000 0.0000 0.0000 3.4953 0.0000 26.8045
#
#
#
# Elastic Compliance Matrix: (Units=1/GPa)
#
#
# Indices 1 2 3 4 5 6 
#
# 1 0.012760 -0.001337 -0.001209 0.000000 -0.000975 0.000000
# 2 -0.001337 0.011314 -0.001007 0.000000 -0.000284 0.000000
# 3 -0.001209 -0.001007 0.008754 0.000000 0.000270 0.000000
# 4 0.000000 0.000000 0.000000 0.045027 0.000000 -0.005872
# 5 -0.000975 -0.000284 0.000270 0.000000 0.034283 0.000000
# 6 0.000000 0.000000 0.000000 -0.005872 0.000000 0.038073
#
#
# Mechanical properties :
#
#
# Convention : Reuss Voigt Hill
#
# Bulk Modulus (GPa) = 38.87638 39.85656 39.36647
# Shear Modulus (GPa) = 30.14026 32.67419 31.40723
#
# Velocity S-wave (km/s) = 3.69533 3.84753 3.77220
# Velocity P-wave (km/s) = 5.98504 6.14781 6.06697
#
# Compressibility (1/GPa) = 0.02572256
#
# Stress axis : x y z
#
# Youngs Moduli (GPa) = 78.36876 88.38901 114.23001
#
# Poissons Ratio (x) = 0.11821 0.13807
# Poissons Ratio (y) = 0.10481 0.11499
# Poissons Ratio (z) = 0.09473 0.08897
#
# Static dielectric constant tensor:
#      x y z
#    x 1.991320 0.000000 0.021200 
#    y 0.000000 1.846190 0.000000 
#    z 0.021200 0.000000 1.891340 
# 
# From -- ./inp_files/224720.got.cif
#   From: 2010.05.17/outbox.cif.g08.bks.cpg/sg15_113_cif.got.tgz:224720.got - 2010.06.03 18:47:42.
