data_PCOD9271726
_publ_section_title
;
Structure prediction by ZEFSAII (Michael W. Deem and Ramdas Pophale) SiO2 
 PCOD9271726
Probable space group: C 2/C
;
_chemical_formula_sum "Si O2"
_cell_formula_units_Z 60
_cell_length_a 9.155590
_cell_length_b 14.892471
_cell_length_c 24.055048
_cell_angle_alpha 90.000000
_cell_angle_beta 107.892061
_cell_angle_gamma 90.000000
_cell_volume 3121.264970
_symmetry_space_group_name_H-M "C 2/C"
_symmetry_group_IT_number 15
_symmetry_cell_setting 'monoclinic'
loop_
_space_group_symop_operation_xyz
x,y,z
-x,y,1/2-z
-x,-y,-z
x,-y,1/2+z
1/2+x,1/2+y,z
1/2-x,1/2+y,1/2-z
1/2-x,1/2-y,-z
1/2+x,1/2-y,1/2+z
loop_
_atom_site_type_symbol
_atom_site_label
_atom_site_fract_x
_atom_site_fract_y
_atom_site_fract_z
Si Si1 0.500000 0.360555 0.250000
Si Si2 0.085282 0.188808 0.637979
Si Si3 0.838943 0.387805 0.888207
Si Si4 0.812261 0.846314 0.521958
Si Si5 0.066664 0.905490 0.482669
Si Si6 0.142760 0.515223 0.449857
Si Si7 0.148127 0.450323 0.331836
Si Si8 0.700129 0.982221 0.215926
O O1 0.473703 0.310054 0.305440
O O2 0.348117 0.421024 0.224035
O O3 0.092503 0.289298 0.615289
O O4 0.252535 0.140606 0.656945
O O5 0.988342 0.125082 0.584586
O O6 0.701224 0.373810 0.915469
O O7 0.793921 0.434438 0.825222
O O8 0.967322 0.453134 0.931051
O O9 0.750000 0.750000 0.500000
O O10 0.982608 0.842841 0.516979
O O11 0.699431 0.918456 0.478439
O O12 0.247991 0.913692 0.507105
O O13 0.000000 0.000000 0.500000
O O14 0.185084 0.510002 0.389623
O O15 0.190878 0.502561 0.280472
O O16 0.964978 0.434037 0.313398
#
# Coordination Sequence:
#
# PCOD9271726 Si02
#       8
#     4   8   8   8   8   8   8   8
#     4  10  24  40  62  86 116 148 200 248 294 340
#     4  11  21  40  59  85 120 155 196 243 289 348
#     4  11  23  38  58  89 122 151 197 245 291 349
#     4  11  20  37  57  85 116 157 196 237 284 349
#     4  10  20  36  61  84 118 159 193 235 296 346
#     4  10  21  36  59  86 121 155 192 241 297 346
#     4   9  17  39  60  81 111 157 196 230 293 353
#     4   9  21  36  62  85 111 153 196 242 294 350
#
# _framework density 19.222975000000002
#
# number of rings (size 3 to 8) (size 9 to 14) (size 15 to 20)
#    0.000    1.867    4.000    0.400    3.733    2.667 
#    0.000    4.000    0.000    1.600    0.000    0.000 
#    0.000    0.000    0.000    0.000    0.000    0.000 
#
# Total GULP energy -167053.475077 kJ/mol
# GULP energy per Si atom -5568.449169 kJ/mol
# Density = 1.917922 g / cm^3
# Si number density = 19.222975 Si / 1000 Ang^3
#
#
#
# Elastic Constant Matrix: (Units=GPa)
#
#
# Indices 1 2 3 4 5 6 
#
# 1 59.2673 4.9685 25.8744 0.0000 -9.3837 0.0000
# 2 4.9685 54.1876 26.8071 0.0000 2.5758 0.0000
# 3 25.8744 26.8071 99.8042 0.0000 -8.9981 0.0000
# 4 0.0000 0.0000 0.0000 25.5585 0.0000 -1.5196
# 5 -9.3837 2.5758 -8.9981 0.0000 28.3468 0.0000
# 6 0.0000 0.0000 0.0000 -1.5196 0.0000 16.8868
#
#
#
# Elastic Compliance Matrix: (Units=1/GPa)
#
#
# Indices 1 2 3 4 5 6 
#
# 1 0.019707 0.000301 -0.004740 0.000000 0.004992 0.000000
# 2 0.000301 0.021705 -0.006256 0.000000 -0.003859 0.000000
# 3 -0.004740 -0.006256 0.013217 0.000000 0.003195 0.000000
# 4 0.000000 0.000000 0.000000 0.039336 0.000000 0.003540
# 5 0.004992 -0.003859 0.003195 0.000000 0.038294 0.000000
# 6 0.000000 0.000000 0.000000 0.003540 0.000000 0.059536
#
#
# Mechanical properties :
#
#
# Convention : Reuss Voigt Hill
#
# Bulk Modulus (GPa) = 30.08512 36.50655 33.29584
# Shear Modulus (GPa) = 22.29501 24.53238 23.41369
#
# Velocity S-wave (km/s) = 3.40929 3.57627 3.49378
# Velocity P-wave (km/s) = 5.58411 6.00710 5.79946
#
# Compressibility (1/GPa) = 0.03323902
#
# Stress axis : x y z
#
# Youngs Moduli (GPa) = 50.74307 46.07231 75.66179
#
# Poissons Ratio (x) = -0.01385 0.35862
# Poissons Ratio (y) = -0.01525 0.47332
# Poissons Ratio (z) = 0.24051 0.28821
#
# Static dielectric constant tensor:
#      x y z
#    x 1.716350 0.000000 -0.018560 
#    y 0.000000 1.639340 0.000000 
#    z -0.018560 0.000000 1.712940 
# 
# From -- ./inp_files/264357.got.cif
#   From: 2010.05.17/outbox.cif.g08.bks.cpg/sg15_133_cif.got.tgz:264357.got - 2010.06.03 18:47:42.
