data_PCOD9271123
_publ_section_title
;
Structure prediction by ZEFSAII (Michael W. Deem and Ramdas Pophale) SiO2 
 PCOD9271123
Probable space group: C 2/C
;
_chemical_formula_sum "Si O2"
_cell_formula_units_Z 64
_cell_length_a 21.857741
_cell_length_b 18.898954
_cell_length_c 13.247636
_cell_angle_alpha 90.000000
_cell_angle_beta 34.724818
_cell_angle_gamma 90.000000
_cell_volume 3117.299595
_symmetry_space_group_name_H-M "C 2/C"
_symmetry_group_IT_number 15
_symmetry_cell_setting 'monoclinic'
loop_
_space_group_symop_operation_xyz
x,y,z
-x,y,1/2-z
-x,-y,-z
x,-y,1/2+z
1/2+x,1/2+y,z
1/2-x,1/2+y,1/2-z
1/2-x,1/2-y,-z
1/2+x,1/2-y,1/2+z
loop_
_atom_site_type_symbol
_atom_site_label
_atom_site_fract_x
_atom_site_fract_y
_atom_site_fract_z
Si Si1 0.020596 0.955768 0.605995
Si Si2 0.802031 0.332085 0.542373
Si Si3 0.820356 0.842556 0.202092
Si Si4 0.442286 0.804979 0.530452
Si Si5 0.535343 0.057883 0.368399
Si Si6 0.690774 0.814771 0.184933
Si Si7 0.668101 0.942025 0.498820
Si Si8 0.664706 0.448347 0.798526
O O1 0.081560 0.892262 0.465719
O O2 0.000000 0.939718 0.750000
O O3 0.910382 0.965393 0.695514
O O4 0.096180 0.024345 0.486067
O O5 0.907486 0.333924 0.467381
O O6 0.773299 0.250275 0.566478
O O7 0.806235 0.360054 0.422149
O O8 0.706411 0.368884 0.734282
O O9 0.867842 0.763804 0.152158
O O10 0.735294 0.850375 0.225084
O O11 0.753441 0.877302 0.384039
O O12 0.429236 0.870159 0.624243
O O13 0.568856 0.787682 0.359591
O O14 0.434803 0.073820 0.431241
O O15 0.628292 0.036177 0.163792
O O16 0.500000 0.000000 0.500000
O O17 0.729239 0.005382 0.359706
#
# Coordination Sequence:
#
# PCOD9271123 Si02
#       8
#     8   8   8   8   8   8   8   8
#     4  10  21  37  62  87 121 163 202 248 312 374
#     4  10  21  34  56  88 124 156 204 259 302 362
#     4  10  21  39  62  88 121 166 209 256 318 379
#     4  11  22  36  60  89 119 159 209 258 304 376
#     4  11  24  41  63  91 122 166 211 258 318 387
#     4  10  20  36  57  85 124 164 199 255 316 363
#     4  10  23  42  62  86 127 165 204 258 324 376
#     4  10  21  37  58  89 119 159 202 254 302 370
#
# _framework density 20.53059
#
# number of rings (size 3 to 8) (size 9 to 14) (size 15 to 20)
#    0.000    1.750    1.250    2.625    1.750    5.500 
#    0.000    0.000    0.000    3.000    0.000    0.000 
#    0.000    0.000    0.000    0.000    0.000    0.000 
#
# Total GULP energy -178421.046429 kJ/mol
# GULP energy per Si atom -5575.657701 kJ/mol
# Density = 2.048386 g / cm^3
# Si number density = 20.530590 Si / 1000 Ang^3
#
#
#
# Elastic Constant Matrix: (Units=GPa)
#
#
# Indices 1 2 3 4 5 6 
#
# 1 73.1817 20.1891 13.8347 0.0000 -8.3615 0.0000
# 2 20.1891 58.5972 20.7820 0.0000 13.1111 0.0000
# 3 13.8347 20.7820 78.0612 0.0000 4.6498 0.0000
# 4 0.0000 0.0000 0.0000 18.7152 0.0000 -5.6726
# 5 -8.3615 13.1111 4.6498 0.0000 24.1521 0.0000
# 6 0.0000 0.0000 0.0000 -5.6726 0.0000 27.5519
#
#
#
# Elastic Compliance Matrix: (Units=1/GPa)
#
#
# Indices 1 2 3 4 5 6 
#
# 1 0.017307 -0.007734 -0.001634 0.000000 0.010505 0.000000
# 2 -0.007734 0.024660 -0.004287 0.000000 -0.015239 0.000000
# 3 -0.001634 -0.004287 0.014300 0.000000 -0.000992 0.000000
# 4 0.000000 0.000000 0.000000 0.056989 0.000000 0.011733
# 5 0.010505 -0.015239 -0.000992 0.000000 0.053505 0.000000
# 6 0.000000 0.000000 0.000000 0.011733 0.000000 0.038711
#
#
# Mechanical properties :
#
#
# Convention : Reuss Voigt Hill
#
# Bulk Modulus (GPa) = 34.53231 35.49462 35.01346
# Shear Modulus (GPa) = 20.62405 24.41947 22.52176
#
# Velocity S-wave (km/s) = 3.17291 3.45254 3.31567
# Velocity P-wave (km/s) = 5.50269 5.76364 5.63467
#
# Compressibility (1/GPa) = 0.02895839
#
# Stress axis : x y z
#
# Youngs Moduli (GPa) = 57.77868 40.55069 69.92803
#
# Poissons Ratio (x) = 0.31362 0.11427
# Poissons Ratio (y) = 0.44686 0.29977
# Poissons Ratio (z) = 0.09442 0.17383
#
# Static dielectric constant tensor:
#      x y z
#    x 1.747160 0.000000 0.029700 
#    y 0.000000 1.769700 0.000000 
#    z 0.029700 0.000000 1.803360 
# 
# From -- ./inp_files/114239.got.cif
#   From: 2010.05.17/outbox.cif.g08.bks.cpg/sg15_58_cif.got.tgz:114239.got - 2010.06.03 18:47:42.
