data_PCOD9271507
_publ_section_title
;
Structure prediction by ZEFSAII (Michael W. Deem and Ramdas Pophale) SiO2 
 PCOD9271507
Probable space group: C 2/C
;
_chemical_formula_sum "Si O2"
_cell_formula_units_Z 60
_cell_length_a 12.003908
_cell_length_b 13.992158
_cell_length_c 18.385862
_cell_angle_alpha 90.000000
_cell_angle_beta 97.118083
_cell_angle_gamma 90.000000
_cell_volume 3064.299636
_symmetry_space_group_name_H-M "C 2/C"
_symmetry_group_IT_number 15
_symmetry_cell_setting 'monoclinic'
loop_
_space_group_symop_operation_xyz
x,y,z
-x,y,1/2-z
-x,-y,-z
x,-y,1/2+z
1/2+x,1/2+y,z
1/2-x,1/2+y,1/2-z
1/2-x,1/2-y,-z
1/2+x,1/2-y,1/2+z
loop_
_atom_site_type_symbol
_atom_site_label
_atom_site_fract_x
_atom_site_fract_y
_atom_site_fract_z
Si Si1 0.153363 0.830294 0.980912
Si Si2 0.049158 0.222970 0.616720
Si Si3 0.186222 0.514511 0.053120
Si Si4 0.054389 0.591258 0.439737
Si Si5 0.392928 0.956134 0.189208
Si Si6 0.687060 0.261714 0.832434
Si Si7 0.000000 0.908897 0.250000
Si Si8 0.713794 0.543116 0.277793
O O1 0.119147 0.804307 0.896207
O O2 0.216293 0.931699 0.983067
O O3 0.250000 0.750000 0.000000
O O4 0.064136 0.823709 0.037935
O O5 0.177499 0.256961 0.643807
O O6 0.961045 0.309390 0.603031
O O7 0.013410 0.154592 0.678836
O O8 0.223398 0.518494 0.140238
O O9 0.070857 0.575366 0.038556
O O10 0.146857 0.417178 0.010898
O O11 0.078559 0.505526 0.385123
O O12 0.500000 0.961558 0.250000
O O13 0.354008 0.845810 0.182335
O O14 0.295832 0.017173 0.219189
O O15 0.677603 0.345934 0.773068
O O16 0.107853 0.975060 0.265634
#
# Coordination Sequence:
#
# PCOD9271507 Si02
#       8
#     8   8   8   8   8   8   4   8
#     4   9  16  34  59  85 120 159 209 247 303 376
#     4  11  21  38  63  94 119 171 207 257 310 389
#     4  10  20  36  59  93 126 157 207 267 309 369
#     4  11  21  33  64  96 127 156 205 269 322 357
#     4  12  23  36  64 100 128 160 214 272 325 362
#     4  10  21  39  61  89 126 164 211 258 307 383
#     4  12  28  42  64  84 132 174 212 250 324 394
#     4  11  24  45  61  90 130 170 213 259 317 384
#
# _framework density 19.580331000000001
#
# number of rings (size 3 to 8) (size 9 to 14) (size 15 to 20)
#    0.000    1.333    6.667    1.600    5.600    0.000 
#    0.000    3.333    0.000    0.000    0.000    0.000 
#    0.000    0.000    0.000    0.000    0.000    0.000 
#
# Total GULP energy -167266.464865 kJ/mol
# GULP energy per Si atom -5575.548829 kJ/mol
# Density = 1.953577 g / cm^3
# Si number density = 19.580331 Si / 1000 Ang^3
#
#
#
# Elastic Constant Matrix: (Units=GPa)
#
#
# Indices 1 2 3 4 5 6 
#
# 1 47.0287 30.0249 23.4443 0.0000 -15.2346 0.0000
# 2 30.0249 99.3524 34.1972 0.0000 -26.6562 0.0000
# 3 23.4443 34.1972 62.2264 0.0000 -24.5589 0.0000
# 4 0.0000 0.0000 0.0000 36.4370 0.0000 1.7543
# 5 -15.2346 -26.6562 -24.5589 0.0000 27.7632 0.0000
# 6 0.0000 0.0000 0.0000 1.7543 0.0000 17.3541
#
#
#
# Elastic Compliance Matrix: (Units=1/GPa)
#
#
# Indices 1 2 3 4 5 6 
#
# 1 0.029487 -0.005311 -0.005865 0.000000 0.005893 0.000000
# 2 -0.005311 0.015046 -0.002637 0.000000 0.009199 0.000000
# 3 -0.005865 -0.002637 0.026825 0.000000 0.017979 0.000000
# 4 0.000000 0.000000 0.000000 0.027579 0.000000 -0.002788
# 5 0.005893 0.009199 0.017979 0.000000 0.063988 0.000000
# 6 0.000000 0.000000 0.000000 -0.002788 0.000000 0.057905
#
#
# Mechanical properties :
#
#
# Convention : Reuss Voigt Hill
#
# Bulk Modulus (GPa) = 22.86676 42.66005 32.76340
# Shear Modulus (GPa) = 19.00891 24.37361 21.69126
#
# Velocity S-wave (km/s) = 3.11917 3.53200 3.33199
# Velocity P-wave (km/s) = 4.96751 6.20225 5.61890
#
# Compressibility (1/GPa) = 0.04373160
#
# Stress axis : x y z
#
# Youngs Moduli (GPa) = 33.91283 66.46255 37.27883
#
# Poissons Ratio (x) = 0.35301 0.21863
# Poissons Ratio (y) = 0.18013 0.09831
# Poissons Ratio (z) = 0.19889 0.17527
#
# Static dielectric constant tensor:
#      x y z
#    x 1.666650 0.000000 0.013310 
#    y 0.000000 1.723530 0.000000 
#    z 0.013310 0.000000 1.802520 
# 
# From -- ./inp_files/197872.got.cif
#   From: 2010.05.17/outbox.cif.g08.bks.cpg/sg15_99_cif.got.tgz:197872.got - 2010.06.03 18:47:42.
