data_PCOD9271446
_publ_section_title
;
Structure prediction by ZEFSAII (Michael W. Deem and Ramdas Pophale) SiO2 
 PCOD9271446
Probable space group: C 2/C
;
_chemical_formula_sum "Si O2"
_cell_formula_units_Z 60
_cell_length_a 16.098263
_cell_length_b 20.491131
_cell_length_c 16.201129
_cell_angle_alpha 90.000000
_cell_angle_beta 141.210013
_cell_angle_gamma 90.000000
_cell_volume 3348.026187
_symmetry_space_group_name_H-M "C 2/C"
_symmetry_group_IT_number 15
_symmetry_cell_setting 'monoclinic'
loop_
_space_group_symop_operation_xyz
x,y,z
-x,y,1/2-z
-x,-y,-z
x,-y,1/2+z
1/2+x,1/2+y,z
1/2-x,1/2+y,1/2-z
1/2-x,1/2-y,-z
1/2+x,1/2-y,1/2+z
loop_
_atom_site_type_symbol
_atom_site_label
_atom_site_fract_x
_atom_site_fract_y
_atom_site_fract_z
Si Si1 0.500000 0.247252 0.750000
Si Si2 0.536071 0.338282 0.933977
Si Si3 0.620848 0.543413 0.127263
Si Si4 0.318562 0.844265 0.222372
Si Si5 0.631755 0.958925 0.122668
Si Si6 0.697459 0.870769 0.841299
Si Si7 0.647175 0.249176 0.599245
Si Si8 0.902896 0.368032 0.553988
O O1 0.549375 0.295991 0.860732
O O2 0.602313 0.198446 0.783762
O O3 0.437037 0.400213 0.857018
O O4 0.473360 0.289475 0.953444
O O5 0.678105 0.362467 0.074709
O O6 0.738650 0.501946 0.259361
O O7 0.691617 0.580096 0.105729
O O8 0.500000 0.500000 0.000000
O O9 0.387035 0.908592 0.314713
O O10 0.299333 0.796223 0.285542
O O11 0.655403 0.915431 0.060050
O O12 0.500000 0.000000 0.000000
O O13 0.743874 0.799850 0.847189
O O14 0.555326 0.886528 0.690638
O O15 0.676261 0.871323 0.922375
O O16 0.600960 0.203635 0.488892
#
# Coordination Sequence:
#
# PCOD9271446 Si02
#       8
#     4   8   8   8   8   8   8   8
#     4  10  22  40  58 100 120 158 212 258 318 360
#     4  10  20  38  62  87 123 159 198 256 301 364
#     4  11  22  42  63  83 120 163 205 244 305 362
#     4  10  20  38  62  87 122 158 201 257 299 363
#     4  11  22  42  61  87 118 163 209 240 299 369
#     4  10  20  36  59  88 117 154 192 250 293 349
#     4   9  19  33  61  88 117 154 192 237 306 353
#     4  10  20  36  59  88 119 150 197 247 289 355
#
# _framework density 17.921005999999998
#
# number of rings (size 3 to 8) (size 9 to 14) (size 15 to 20)
#    0.000    1.867    2.667    1.600    0.000    0.000 
#    9.600    0.000    0.000    0.000    0.000    0.000 
#    0.000    0.000    0.000    0.000    0.000    0.000 
#
# Total GULP energy -167264.466018 kJ/mol
# GULP energy per Si atom -5575.482201 kJ/mol
# Density = 1.788022 g / cm^3
# Si number density = 17.921006 Si / 1000 Ang^3
#
#
#
# Elastic Constant Matrix: (Units=GPa)
#
#
# Indices 1 2 3 4 5 6 
#
# 1 108.3679 53.1284 54.6876 0.0000 -8.9077 0.0000
# 2 53.1284 114.9649 58.1040 0.0000 1.2122 0.0000
# 3 54.6876 58.1040 101.7480 0.0001 3.4528 0.0000
# 4 0.0000 0.0000 0.0001 40.4579 0.0000 5.1063
# 5 -8.9077 1.2122 3.4528 0.0000 23.0576 0.0000
# 6 0.0000 0.0000 0.0000 5.1063 0.0000 19.9913
#
#
#
# Elastic Compliance Matrix: (Units=1/GPa)
#
#
# Indices 1 2 3 4 5 6 
#
# 1 0.014652 -0.003861 -0.005900 0.000000 0.006747 0.000000
# 2 -0.003861 0.013248 -0.005444 0.000000 -0.001373 0.000000
# 3 -0.005900 -0.005444 0.016258 0.000000 -0.004428 0.000000
# 4 0.000000 0.000000 0.000000 0.025540 0.000000 -0.006524
# 5 0.006747 -0.001373 -0.004428 0.000000 0.046711 0.000000
# 6 0.000000 0.000000 0.000000 -0.006524 0.000000 0.051688
#
#
# Mechanical properties :
#
#
# Convention : Reuss Voigt Hill
#
# Bulk Modulus (GPa) = 72.72536 72.99121 72.85828
# Shear Modulus (GPa) = 24.61953 27.31208 25.96580
#
# Velocity S-wave (km/s) = 3.71048 3.90811 3.81058
# Velocity P-wave (km/s) = 7.68284 7.82191 7.75269
#
# Compressibility (1/GPa) = 0.01375036
#
# Stress axis : x y z
#
# Youngs Moduli (GPa) = 68.24817 75.48133 61.50730
#
# Poissons Ratio (x) = 0.29141 0.36287
# Poissons Ratio (y) = 0.26348 0.33484
# Poissons Ratio (z) = 0.40264 0.41092
#
# Static dielectric constant tensor:
#      x y z
#    x 1.587680 0.000000 0.003900 
#    y 0.000000 1.630640 0.000000 
#    z 0.003900 0.000000 1.599500 
# 
# From -- ./inp_files/156374.got.cif
#   From: 2010.05.17/outbox.cif.g08.bks.cpg/sg15_79_cif.got.tgz:156374.got - 2010.06.03 18:47:42.
