data_PCOD9271580
_publ_section_title
;
Structure prediction by ZEFSAII (Michael W. Deem and Ramdas Pophale) SiO2 
 PCOD9271580
Probable space group: C 2/C
;
_chemical_formula_sum "Si O2"
_cell_formula_units_Z 60
_cell_length_a 6.094836
_cell_length_b 26.414838
_cell_length_c 19.672024
_cell_angle_alpha 90.000000
_cell_angle_beta 63.196959
_cell_angle_gamma 90.000000
_cell_volume 2826.814819
_symmetry_space_group_name_H-M "C 2/C"
_symmetry_group_IT_number 15
_symmetry_cell_setting 'monoclinic'
loop_
_space_group_symop_operation_xyz
x,y,z
-x,y,1/2-z
-x,-y,-z
x,-y,1/2+z
1/2+x,1/2+y,z
1/2-x,1/2+y,1/2-z
1/2-x,1/2-y,-z
1/2+x,1/2-y,1/2+z
loop_
_atom_site_type_symbol
_atom_site_label
_atom_site_fract_x
_atom_site_fract_y
_atom_site_fract_z
Si Si1 0.579452 0.792102 0.422758
Si Si2 0.000000 0.415452 0.750000
Si Si3 0.194944 0.353889 0.285927
Si Si4 0.498060 0.356676 0.824003
Si Si5 0.704995 0.389016 0.028097
Si Si6 0.177078 0.947268 0.161261
Si Si7 0.964638 0.810974 0.968488
Si Si8 0.399204 0.053531 0.117234
O O1 0.661462 0.803870 0.335282
O O2 0.672866 0.839069 0.454815
O O3 0.646651 0.737164 0.442660
O O4 0.285816 0.795294 0.461126
O O5 0.231754 0.379329 0.705128
O O6 0.014323 0.448057 0.816340
O O7 0.500000 0.358958 0.250000
O O8 0.130964 0.406333 0.334493
O O9 0.000000 0.351542 0.250000
O O10 0.500000 0.331525 0.750000
O O11 0.420508 0.321082 0.895511
O O12 0.315332 0.404497 0.850303
O O13 0.571604 0.418343 0.108893
O O14 0.546117 0.363237 0.991262
O O15 0.899616 0.425553 0.963646
O O16 0.000000 0.961193 0.250000
O O17 0.297305 0.998228 0.116510
#
# Coordination Sequence:
#
# PCOD9271580 Si02
#       8
#     8   4   8   8   8   8   8   8
#     4  10  24  41  67  94 130 176 226 282 341 415
#     4  10  20  36  60  86 124 174 202 270 326 400
#     4  10  24  46  69 101 140 183 234 293 346 412
#     4  10  21  38  60  90 130 164 213 273 335 398
#     4  11  22  42  64  92 133 170 224 283 338 413
#     4  10  23  41  65  95 130 181 223 280 340 409
#     4  11  22  42  66  97 127 178 223 274 350 411
#     4  11  21  40  63  93 132 167 223 269 341 407
#
# _framework density 21.225303
#
# number of rings (size 3 to 8) (size 9 to 14) (size 15 to 20)
#    0.000    1.600    2.667    2.000    6.533    0.533 
#    1.200    0.667    0.000    0.000    0.000    0.000 
#    0.000    0.000    0.000    0.000    0.000    0.000 
#
# Total GULP energy -167018.061836 kJ/mol
# GULP energy per Si atom -5567.268728 kJ/mol
# Density = 2.117699 g / cm^3
# Si number density = 21.225303 Si / 1000 Ang^3
#
#
#
# Elastic Constant Matrix: (Units=GPa)
#
#
# Indices 1 2 3 4 5 6 
#
# 1 48.9461 8.2927 28.0237 0.0000 9.7949 0.0000
# 2 8.2927 81.7862 35.8682 0.0000 8.2740 0.0000
# 3 28.0237 35.8682 99.3234 0.0000 10.4644 0.0000
# 4 0.0000 0.0000 0.0000 19.0108 0.0000 -2.2998
# 5 9.7949 8.2740 10.4644 0.0000 30.7797 0.0000
# 6 0.0000 0.0000 0.0000 -2.2998 0.0000 15.8250
#
#
#
# Elastic Compliance Matrix: (Units=1/GPa)
#
#
# Indices 1 2 3 4 5 6 
#
# 1 0.025418 0.001068 -0.006923 0.000000 -0.006022 0.000000
# 2 0.001068 0.014718 -0.005356 0.000000 -0.002476 0.000000
# 3 -0.006923 -0.005356 0.014076 0.000000 -0.001143 0.000000
# 4 0.000000 0.000000 0.000000 0.053543 0.000000 0.007781
# 5 -0.006022 -0.002476 -0.001143 0.000000 0.035459 0.000000
# 6 0.000000 0.000000 0.000000 0.007781 0.000000 0.064322
#
#
# Mechanical properties :
#
#
# Convention : Reuss Voigt Hill
#
# Bulk Modulus (GPa) = 31.45506 41.60277 36.52892
# Shear Modulus (GPa) = 20.78531 23.64784 22.21658
#
# Velocity S-wave (km/s) = 3.13272 3.34149 3.23879
# Velocity P-wave (km/s) = 5.28555 5.87626 5.58872
#
# Compressibility (1/GPa) = 0.03179138
#
# Stress axis : x y z
#
# Youngs Moduli (GPa) = 39.34146 67.94455 71.04385
#
# Poissons Ratio (x) = -0.07257 0.49183
# Poissons Ratio (y) = -0.04202 0.38048
# Poissons Ratio (z) = 0.27236 0.36388
#
# Static dielectric constant tensor:
#      x y z
#    x 1.834610 0.000000 0.003870 
#    y 0.000000 1.802540 0.000000 
#    z 0.003870 0.000000 1.824750 
# 
# From -- ./inp_files/228438.got.cif
#   From: 2010.05.17/outbox.cif.g08.bks.cpg/sg15_115_cif.got.tgz:228438.got - 2010.06.03 18:47:42.
