data_PCOD9271888
_publ_section_title
;
Structure prediction by ZEFSAII (Michael W. Deem and Ramdas Pophale) SiO2 
 PCOD9271888
Probable space group: C 2/C
;
_chemical_formula_sum "Si O2"
_cell_formula_units_Z 52
_cell_length_a 9.165353
_cell_length_b 26.366048
_cell_length_c 12.813237
_cell_angle_alpha 90.000000
_cell_angle_beta 127.261788
_cell_angle_gamma 90.000000
_cell_volume 2464.332446
_symmetry_space_group_name_H-M "C 2/C"
_symmetry_group_IT_number 15
_symmetry_cell_setting 'monoclinic'
loop_
_space_group_symop_operation_xyz
x,y,z
-x,y,1/2-z
-x,-y,-z
x,-y,1/2+z
1/2+x,1/2+y,z
1/2-x,1/2+y,1/2-z
1/2-x,1/2-y,-z
1/2+x,1/2-y,1/2+z
loop_
_atom_site_type_symbol
_atom_site_label
_atom_site_fract_x
_atom_site_fract_y
_atom_site_fract_z
Si Si1 0.376257 0.047511 0.412181
Si Si2 0.367309 0.138570 0.907187
Si Si3 0.638590 0.462361 0.999494
Si Si4 0.386505 0.705836 0.594346
Si Si5 0.409533 0.215015 0.608826
Si Si6 0.500000 0.988959 0.750000
Si Si7 0.837096 0.860671 0.391296
O O1 0.479917 0.098694 0.493280
O O2 0.187065 0.039724 0.395873
O O3 0.395533 0.043582 0.294783
O O4 0.500000 0.000000 0.500000
O O5 0.224028 0.153255 0.934393
O O6 0.445252 0.194502 0.910950
O O7 0.248645 0.121082 0.755852
O O8 0.839901 0.476016 0.132939
O O9 0.577758 0.406813 0.010024
O O10 0.500000 0.500000 0.000000
O O11 0.500000 0.718240 0.750000
O O12 0.250000 0.750000 0.500000
O O13 0.535868 0.687948 0.575197
O O14 0.500000 0.239494 0.750000
O O15 0.250000 0.250000 0.500000
O O16 0.327008 0.161725 0.612200
#
# Coordination Sequence:
#
# PCOD9271888 Si02
#       7
#     8   8   8   8   8   4   8
#     4  10  21  39  64  90 128 165 208 261 321 382
#     4  10  20  38  64  88 118 168 211 258 320 384
#     4  11  23  40  65  95 127 168 215 264 319 391
#     4  10  22  39  60  89 123 165 218 268 321 383
#     4  10  20  36  62  89 120 160 210 265 324 384
#     4  10  24  42  62  92 138 166 208 268 328 378
#     4  10  20  37  63  90 121 160 217 262 307 391
#
# _framework density 21.101049
#
# number of rings (size 3 to 8) (size 9 to 14) (size 15 to 20)
#    0.000    1.846    1.538    2.769    5.385    0.615 
#    4.154    1.538    0.000    0.000    0.000    0.000 
#    0.000    0.000    0.000    0.000    0.000    0.000 
#
# Total GULP energy -144845.166876 kJ/mol
# GULP energy per Si atom -5570.967957 kJ/mol
# Density = 2.105302 g / cm^3
# Si number density = 21.101049 Si / 1000 Ang^3
#
#
#
# Elastic Constant Matrix: (Units=GPa)
#
#
# Indices 1 2 3 4 5 6 
#
# 1 100.1871 26.0824 31.3860 0.0000 -18.8252 0.0000
# 2 26.0824 68.7179 36.1563 0.0000 -3.8516 0.0000
# 3 31.3860 36.1563 75.6455 0.0000 -0.6312 0.0000
# 4 0.0000 0.0000 0.0000 28.2682 0.0000 11.7423
# 5 -18.8252 -3.8516 -0.6312 0.0000 38.9890 0.0000
# 6 0.0000 0.0000 0.0000 11.7423 0.0000 33.4613
#
#
#
# Elastic Compliance Matrix: (Units=1/GPa)
#
#
# Indices 1 2 3 4 5 6 
#
# 1 0.013055 -0.002398 -0.004220 0.000000 0.005998 0.000000
# 2 -0.002398 0.020005 -0.008561 0.000000 0.000680 0.000000
# 3 -0.004220 -0.008561 0.019041 0.000000 -0.002575 0.000000
# 4 0.000000 0.000000 0.000000 0.041412 0.000000 -0.014532
# 5 0.005998 0.000680 -0.002575 0.000000 0.028570 0.000000
# 6 0.000000 0.000000 0.000000 -0.014532 0.000000 0.034985
#
#
# Mechanical properties :
#
#
# Convention : Reuss Voigt Hill
#
# Bulk Modulus (GPa) = 45.99462 47.97780 46.98621
# Shear Modulus (GPa) = 25.68391 30.20540 27.94466
#
# Velocity S-wave (km/s) = 3.49260 3.78757 3.64308
# Velocity P-wave (km/s) = 6.17325 6.47411 6.32547
#
# Compressibility (1/GPa) = 0.02174167
#
# Stress axis : x y z
#
# Youngs Moduli (GPa) = 76.60011 49.98720 52.51832
#
# Poissons Ratio (x) = 0.11989 0.22163
# Poissons Ratio (y) = 0.18372 0.44961
# Poissons Ratio (z) = 0.32326 0.42794
#
# Static dielectric constant tensor:
#      x y z
#    x 1.779710 0.000000 -0.037340 
#    y 0.000000 1.715570 0.000000 
#    z -0.037340 0.000000 1.809710 
# 
# From -- ./inp_files/81517.got.cif
#   From: 2010.05.17/outbox.cif.g08.bks.cpg/sg15_41_cif.got.tgz:81517.got - 2010.06.03 18:47:42.
