data_PCOD9271218
_publ_section_title
;
Structure prediction by ZEFSAII (Michael W. Deem and Ramdas Pophale) SiO2 
 PCOD9271218
Probable space group: C 2/C
;
_chemical_formula_sum "Si O2"
_cell_formula_units_Z 32
_cell_length_a 20.231755
_cell_length_b 8.020523
_cell_length_c 13.337285
_cell_angle_alpha 90.000000
_cell_angle_beta 130.121263
_cell_angle_gamma 90.000000
_cell_volume 1654.949399
_symmetry_space_group_name_H-M "C 2/C"
_symmetry_group_IT_number 15
_symmetry_cell_setting 'monoclinic'
loop_
_space_group_symop_operation_xyz
x,y,z
-x,y,1/2-z
-x,-y,-z
x,-y,1/2+z
1/2+x,1/2+y,z
1/2-x,1/2+y,1/2-z
1/2-x,1/2-y,-z
1/2+x,1/2-y,1/2+z
loop_
_atom_site_type_symbol
_atom_site_label
_atom_site_fract_x
_atom_site_fract_y
_atom_site_fract_z
Si Si1 0.774248 0.291989 0.409552
Si Si2 0.009347 0.231924 0.451533
Si Si3 0.350495 0.490074 0.848436
Si Si4 0.967786 0.584323 0.111690
O O1 0.750000 0.250000 0.500000
O O2 0.704430 0.404275 0.283978
O O3 0.790781 0.126172 0.359422
O O4 0.865834 0.387662 0.500667
O O5 0.010453 0.389968 0.380562
O O6 0.921323 0.125984 0.361752
O O7 0.012010 0.312322 0.565710
O O8 0.091319 0.110918 0.524857
O O9 0.000000 0.646036 0.250000
#
# Coordination Sequence:
#
# PCOD9271218 Si02
#       4
#     8   8   8   8
#     4  11  23  37  59  86 116 150 185 233 285 335
#     4   9  20  38  59  80 109 149 187 230 278 329
#     4  10  21  39  58  81 114 148 189 235 280 331
#     4  10  20  36  58  83 111 145 186 229 278 336
#
# _framework density 19.335937999999999
#
# number of rings (size 3 to 8) (size 9 to 14) (size 15 to 20)
#    0.000    2.000    0.000    3.000    0.000    6.000 
#    0.000    6.250    0.000    0.000    0.000    0.000 
#    0.000    0.000    0.000    0.000    0.000    0.000 
#
# Total GULP energy -89370.873521 kJ/mol
# GULP energy per Si atom -5585.679595 kJ/mol
# Density = 1.929193 g / cm^3
# Si number density = 19.335938 Si / 1000 Ang^3
#
#
#
# Elastic Constant Matrix: (Units=GPa)
#
#
# Indices 1 2 3 4 5 6 
#
# 1 61.8587 47.9458 48.8656 0.0000 -7.8552 0.0000
# 2 47.9458 114.5411 42.4205 0.0000 5.3143 0.0000
# 3 48.8656 42.4205 104.5581 0.0000 -3.6421 0.0000
# 4 0.0000 0.0000 0.0000 29.6593 0.0000 12.6537
# 5 -7.8552 5.3143 -3.6421 0.0000 25.7711 0.0000
# 6 0.0000 0.0000 0.0000 12.6537 0.0000 24.8181
#
#
#
# Elastic Compliance Matrix: (Units=1/GPa)
#
#
# Indices 1 2 3 4 5 6 
#
# 1 0.035360 -0.011012 -0.011661 0.000000 0.011401 0.000000
# 2 -0.011012 0.013897 -0.000712 0.000000 -0.006323 0.000000
# 3 -0.011661 -0.000712 0.015259 0.000000 -0.001251 0.000000
# 4 0.000000 0.000000 0.000000 0.043089 0.000000 -0.021969
# 5 0.011401 -0.006323 -0.001251 0.000000 0.043405 0.000000
# 6 0.000000 0.000000 0.000000 -0.021969 0.000000 0.051494
#
#
# Mechanical properties :
#
#
# Convention : Reuss Voigt Hill
#
# Bulk Modulus (GPa) = 56.34808 62.15797 59.25303
# Shear Modulus (GPa) = 19.59320 25.49810 22.54565
#
# Velocity S-wave (km/s) = 3.18670 3.63532 3.41837
# Velocity P-wave (km/s) = 6.53796 7.05952 6.80374
#
# Compressibility (1/GPa) = 0.01774683
#
# Stress axis : x y z
#
# Youngs Moduli (GPa) = 28.28023 71.95808 65.53430
#
# Poissons Ratio (x) = 0.79239 0.76420
# Poissons Ratio (y) = 0.31142 0.04666
# Poissons Ratio (z) = 0.32978 0.05124
#
# Static dielectric constant tensor:
#      x y z
#    x 1.665520 0.000000 0.016360 
#    y 0.000000 1.684950 0.000000 
#    z 0.016360 0.000000 1.633450 
# 
# From -- ./inp_files/102370.got.cif
#   From: 2010.05.17/outbox.cif.g08.bks.cpg/sg15_52_cif.got.tgz:102370.got - 2010.06.03 18:47:42.
