data_PCOD9271125
_publ_section_title
;
Structure prediction by ZEFSAII (Michael W. Deem and Ramdas Pophale) SiO2 
 PCOD9271125
Probable space group: C 2/C
;
_chemical_formula_sum "Si O2"
_cell_formula_units_Z 56
_cell_length_a 15.661496
_cell_length_b 13.087174
_cell_length_c 15.169893
_cell_angle_alpha 90.000000
_cell_angle_beta 73.191201
_cell_angle_gamma 90.000000
_cell_volume 2976.448689
_symmetry_space_group_name_H-M "C 2/C"
_symmetry_group_IT_number 15
_symmetry_cell_setting 'monoclinic'
loop_
_space_group_symop_operation_xyz
x,y,z
-x,y,1/2-z
-x,-y,-z
x,-y,1/2+z
1/2+x,1/2+y,z
1/2-x,1/2+y,1/2-z
1/2-x,1/2-y,-z
1/2+x,1/2-y,1/2+z
loop_
_atom_site_type_symbol
_atom_site_label
_atom_site_fract_x
_atom_site_fract_y
_atom_site_fract_z
Si Si1 0.974844 0.474880 0.655592
Si Si2 0.175378 0.674497 0.556921
Si Si3 0.893963 0.296920 0.952919
Si Si4 0.222065 0.851788 0.117285
Si Si5 0.189243 0.732220 0.733746
Si Si6 0.481034 0.790800 0.105663
Si Si7 0.785467 0.569165 0.129201
O O1 0.983329 0.584742 0.605485
O O2 0.872147 0.445522 0.665761
O O3 0.000000 0.492360 0.750000
O O4 0.042342 0.385991 0.603603
O O5 0.250000 0.750000 0.500000
O O6 0.193507 0.648487 0.653535
O O7 0.175421 0.589823 0.480889
O O8 0.083046 0.736303 0.587601
O O9 0.863305 0.208607 0.894549
O O10 0.801702 0.340765 0.021261
O O11 0.945265 0.253180 0.022666
O O12 0.255132 0.798656 0.197077
O O13 0.221693 0.971159 0.140589
O O14 0.088224 0.740752 0.798596
O O15 0.230073 0.835075 0.681817
#
# Coordination Sequence:
#
# PCOD9271125 Si02
#       7
#     8   8   8   8   8   8   8
#     4  12  21  33  60  95 123 158 205 260 316 370
#     4  10  21  36  60  84 118 157 206 260 306 364
#     4  10  20  36  57  85 131 156 193 264 310 371
#     4  10  21  38  56  91 126 164 204 248 325 372
#     4  10  21  37  57  88 123 164 207 258 302 380
#     4  11  20  37  58  91 120 152 209 253 313 367
#     4  11  21  38  59  90 129 165 209 254 324 377
#
# _framework density 18.814367000000001
#
# number of rings (size 3 to 8) (size 9 to 14) (size 15 to 20)
#    0.000    1.429    4.286    3.429    0.000    0.000 
#    7.714    0.000    0.000   13.714    0.000    0.000 
#    0.000    0.000    0.000    0.000    0.000    0.000 
#
# Total GULP energy -156087.528565 kJ/mol
# GULP energy per Si atom -5574.554592 kJ/mol
# Density = 1.877154 g / cm^3
# Si number density = 18.814367 Si / 1000 Ang^3
#
#
#
# Elastic Constant Matrix: (Units=GPa)
#
#
# Indices 1 2 3 4 5 6 
#
# 1 114.4267 42.8299 53.1806 0.0000 5.4349 0.0000
# 2 42.8299 72.2772 41.6614 0.0000 0.2394 0.0000
# 3 53.1806 41.6614 103.2652 0.0000 12.2883 0.0000
# 4 0.0000 0.0000 0.0000 21.4604 0.0000 -6.0077
# 5 5.4349 0.2394 12.2883 0.0000 34.6179 0.0000
# 6 0.0000 0.0000 0.0000 -6.0077 0.0000 28.8352
#
#
#
# Elastic Compliance Matrix: (Units=1/GPa)
#
#
# Indices 1 2 3 4 5 6 
#
# 1 0.012694 -0.004922 -0.004509 0.000000 -0.000358 0.000000
# 2 -0.004922 0.020157 -0.005923 0.000000 0.002736 0.000000
# 3 -0.004509 -0.005923 0.014937 0.000000 -0.004553 0.000000
# 4 0.000000 0.000000 0.000000 0.049484 0.000000 0.010310
# 5 -0.000358 0.002736 -0.004553 0.000000 0.030540 0.000000
# 6 0.000000 0.000000 0.000000 0.010310 0.000000 0.036828
#
#
# Mechanical properties :
#
#
# Convention : Reuss Voigt Hill
#
# Bulk Modulus (GPa) = 58.54564 62.81255 60.67909
# Shear Modulus (GPa) = 24.87038 27.13585 26.00312
#
# Velocity S-wave (km/s) = 3.63971 3.80187 3.72168
# Velocity P-wave (km/s) = 6.98917 7.26156 7.12666
#
# Compressibility (1/GPa) = 0.01708069
#
# Stress axis : x y z
#
# Youngs Moduli (GPa) = 78.77654 49.60965 66.94647
#
# Poissons Ratio (x) = 0.24418 0.30186
# Poissons Ratio (y) = 0.38774 0.39653
# Poissons Ratio (z) = 0.35520 0.29384
#
# Static dielectric constant tensor:
#      x y z
#    x 1.679860 0.000000 0.021920 
#    y 0.000000 1.656660 0.000000 
#    z 0.021920 0.000000 1.690670 
# 
# From -- ./inp_files/160826.got.cif
#   From: 2010.05.17/outbox.cif.g08.bks.cpg/sg15_81_cif.got.tgz:160826.got - 2010.06.03 18:47:42.
