data_PCOD9271347
_publ_section_title
;
Structure prediction by ZEFSAII (Michael W. Deem and Ramdas Pophale) SiO2 
 PCOD9271347
Probable space group: C 2/C
;
_chemical_formula_sum "Si O2"
_cell_formula_units_Z 64
_cell_length_a 20.839347
_cell_length_b 22.310212
_cell_length_c 8.224782
_cell_angle_alpha 90.000000
_cell_angle_beta 122.207374
_cell_angle_gamma 90.000000
_cell_volume 3235.538034
_symmetry_space_group_name_H-M "C 2/C"
_symmetry_group_IT_number 15
_symmetry_cell_setting 'monoclinic'
loop_
_space_group_symop_operation_xyz
x,y,z
-x,y,1/2-z
-x,-y,-z
x,-y,1/2+z
1/2+x,1/2+y,z
1/2-x,1/2+y,1/2-z
1/2-x,1/2-y,-z
1/2+x,1/2-y,1/2+z
loop_
_atom_site_type_symbol
_atom_site_label
_atom_site_fract_x
_atom_site_fract_y
_atom_site_fract_z
Si Si1 0.400847 0.298481 0.947162
Si Si2 0.589983 0.371614 0.867059
Si Si3 0.435186 0.049857 0.438225
Si Si4 0.692035 0.799842 0.353800
Si Si5 0.067661 0.678835 0.949784
Si Si6 0.823267 0.485158 0.535884
Si Si7 0.764075 0.923834 0.348437
Si Si8 0.917955 0.788783 0.331027
O O1 0.385784 0.344517 0.776634
O O2 0.361666 0.236345 0.842713
O O3 0.381101 0.309973 0.110925
O O4 0.491589 0.294506 0.065936
O O5 0.500000 0.385444 0.750000
O O6 0.647365 0.424789 0.988151
O O7 0.602719 0.324750 0.032947
O O8 0.462640 0.114606 0.532539
O O9 0.383631 0.056439 0.209559
O O10 0.500000 0.000000 0.500000
O O11 0.376487 0.023626 0.489238
O O12 0.750000 0.750000 0.500000
O O13 0.639219 0.824768 0.427231
O O14 0.734700 0.856297 0.335652
O O15 0.000000 0.708262 0.750000
O O16 0.092644 0.719535 0.134805
O O17 0.759866 0.446610 0.360235
O O18 0.782119 0.531967 0.596907
#
# Coordination Sequence:
#
# PCOD9271347 Si02
#       8
#     8   8   8   8   8   8   8   8
#     4  10  20  36  58  93 130 160 203 259 319 390
#     4  10  20  43  69  91 125 165 205 266 337 395
#     4  11  23  40  59  88 121 173 227 266 309 378
#     4  12  22  39  63  92 128 171 209 261 338 392
#     4  12  21  37  59  86 125 171 216 268 318 378
#     4  10  24  42  60  84 127 169 214 267 325 375
#     4  11  23  44  63  90 127 168 213 271 331 392
#     4  10  20  36  60  93 125 161 211 256 323 390
#
# _framework density 19.780327
#
# number of rings (size 3 to 8) (size 9 to 14) (size 15 to 20)
#    0.000    1.250    5.000    1.500    3.500    0.000 
#    9.000    1.875    0.000    0.000    0.000    0.000 
#    0.000    0.000    0.000    0.000    0.000    0.000 
#
# Total GULP energy -178457.760175 kJ/mol
# GULP energy per Si atom -5576.805005 kJ/mol
# Density = 1.973531 g / cm^3
# Si number density = 19.780327 Si / 1000 Ang^3
#
#
#
# Elastic Constant Matrix: (Units=GPa)
#
#
# Indices 1 2 3 4 5 6 
#
# 1 51.8996 12.9826 25.8841 0.0000 10.0320 0.0000
# 2 12.9826 48.9996 27.1744 0.0000 7.4815 0.0000
# 3 25.8841 27.1744 123.8113 0.0000 -9.8571 0.0000
# 4 0.0000 0.0000 0.0000 26.5446 0.0000 11.2351
# 5 10.0320 7.4815 -9.8571 0.0000 23.1903 0.0000
# 6 0.0000 0.0000 0.0000 11.2351 0.0000 22.4490
#
#
#
# Elastic Compliance Matrix: (Units=1/GPa)
#
#
# Indices 1 2 3 4 5 6 
#
# 1 0.025095 -0.001353 -0.005981 0.000000 -0.012962 0.000000
# 2 -0.001353 0.025791 -0.006204 0.000000 -0.010372 0.000000
# 3 -0.005981 -0.006204 0.011441 0.000000 0.009452 0.000000
# 4 0.000000 0.000000 0.000000 0.047797 0.000000 -0.023921
# 5 -0.012962 -0.010372 0.009452 0.000000 0.056093 0.000000
# 6 0.000000 0.000000 0.000000 -0.023921 0.000000 0.056517
#
#
# Mechanical properties :
#
#
# Convention : Reuss Voigt Hill
#
# Bulk Modulus (GPa) = 28.36742 39.64364 34.00553
# Shear Modulus (GPa) = 19.11606 25.01474 22.06540
#
# Velocity S-wave (km/s) = 3.11210 3.56002 3.34357
# Velocity P-wave (km/s) = 5.22359 6.08143 5.66876
#
# Compressibility (1/GPa) = 0.03525171
#
# Stress axis : x y z
#
# Youngs Moduli (GPa) = 39.84856 38.77349 87.40193
#
# Poissons Ratio (x) = 0.05245 0.52279
# Poissons Ratio (y) = 0.05390 0.54221
# Poissons Ratio (z) = 0.23835 0.24054
#
# Static dielectric constant tensor:
#      x y z
#    x 1.709730 0.000000 -0.027550 
#    y 0.000000 1.692820 0.000000 
#    z -0.027550 0.000000 1.790790 
# 
# From -- ./inp_files/63438.got.cif
#   From: 2010.05.17/outbox.cif.g08.bks.cpg/sg15_32_cif.got.tgz:63438.got - 2010.06.03 18:47:42.
