data_PCOD9271009
_publ_section_title
;
Structure prediction by ZEFSAII (Michael W. Deem and Ramdas Pophale) SiO2 
 PCOD9271009
Probable space group: C 2/C
;
_chemical_formula_sum "Si O2"
_cell_formula_units_Z 36
_cell_length_a 10.587578
_cell_length_b 21.681891
_cell_length_c 8.253073
_cell_angle_alpha 90.000000
_cell_angle_beta 98.946161
_cell_angle_gamma 90.000000
_cell_volume 1871.517241
_symmetry_space_group_name_H-M "C 2/C"
_symmetry_group_IT_number 15
_symmetry_cell_setting 'monoclinic'
loop_
_space_group_symop_operation_xyz
x,y,z
-x,y,1/2-z
-x,-y,-z
x,-y,1/2+z
1/2+x,1/2+y,z
1/2-x,1/2+y,1/2-z
1/2-x,1/2-y,-z
1/2+x,1/2-y,1/2+z
loop_
_atom_site_type_symbol
_atom_site_label
_atom_site_fract_x
_atom_site_fract_y
_atom_site_fract_z
Si Si1 0.500000 0.003408 0.250000
Si Si2 0.090470 0.191354 0.117484
Si Si3 0.148988 0.426099 0.054730
Si Si4 0.880805 0.303455 0.613117
Si Si5 0.943660 0.936838 0.059598
O O1 0.553199 0.045722 0.402778
O O2 0.610913 0.957793 0.213533
O O3 0.244783 0.191883 0.181502
O O4 0.000000 0.210187 0.250000
O O5 0.088298 0.238290 0.964776
O O6 0.041985 0.124043 0.049114
O O7 0.291968 0.444544 0.042729
O O8 0.135383 0.352948 0.035175
O O9 0.000000 0.319374 0.750000
O O10 0.000000 0.925516 0.250000
O O11 0.000000 0.000000 0.000000
#
# Coordination Sequence:
#
# PCOD9271009 Si02
#       5
#     4   8   8   8   8
#     4  10  20  36  56  86 114 150 194 244 288 362
#     4  10  23  40  61  89 120 159 207 246 306 361
#     4  10  21  37  58  86 118 155 195 243 302 348
#     4  10  21  41  60  86 124 157 200 255 296 365
#     4  11  22  39  60  87 120 157 196 250 297 360
#
# _framework density 19.23573
#
# number of rings (size 3 to 8) (size 9 to 14) (size 15 to 20)
#    0.000    1.778    1.111    2.667    1.556    2.667 
#    4.000    0.000    0.000    0.000    0.000    0.000 
#    0.000    0.000    0.000    0.000    0.000    0.000 
#
# Total GULP energy -100336.195087 kJ/mol
# GULP energy per Si atom -5574.233060 kJ/mol
# Density = 1.919195 g / cm^3
# Si number density = 19.235730 Si / 1000 Ang^3
#
#
#
# Elastic Constant Matrix: (Units=GPa)
#
#
# Indices 1 2 3 4 5 6 
#
# 1 79.7339 38.9585 20.7084 0.0000 1.0756 0.0000
# 2 38.9585 116.0425 13.2052 0.0000 -12.3845 0.0000
# 3 20.7084 13.2052 40.5183 0.0000 -3.7342 0.0000
# 4 0.0000 0.0000 0.0000 34.0994 0.0000 -7.3704
# 5 1.0756 -12.3845 -3.7342 0.0000 31.5138 0.0000
# 6 0.0000 0.0000 0.0000 -7.3704 0.0000 31.3218
#
#
#
# Elastic Compliance Matrix: (Units=1/GPa)
#
#
# Indices 1 2 3 4 5 6 
#
# 1 0.017069 -0.005272 -0.007330 0.000000 -0.003523 0.000000
# 2 -0.005272 0.010910 -0.000454 0.000000 0.004414 0.000000
# 3 -0.007330 -0.000454 0.028897 0.000000 0.003496 0.000000
# 4 0.000000 0.000000 0.000000 0.030898 0.000000 0.007271
# 5 -0.003523 0.004414 0.003496 0.000000 0.034001 0.000000
# 6 0.000000 0.000000 0.000000 0.007271 0.000000 0.033638
#
#
# Mechanical properties :
#
#
# Convention : Reuss Voigt Hill
#
# Bulk Modulus (GPa) = 32.50716 42.44877 37.47796
# Shear Modulus (GPa) = 26.07144 30.28183 28.17664
#
# Velocity S-wave (km/s) = 3.68552 3.97199 3.83143
# Velocity P-wave (km/s) = 5.92004 6.56895 6.25292
#
# Compressibility (1/GPa) = 0.03076246
#
# Stress axis : x y z
#
# Youngs Moduli (GPa) = 58.58510 91.65592 34.60581
#
# Poissons Ratio (x) = 0.48325 0.25367
# Poissons Ratio (y) = 0.30889 0.01572
# Poissons Ratio (z) = 0.42944 0.04164
#
# Static dielectric constant tensor:
#      x y z
#    x 1.664760 0.000000 -0.009100 
#    y 0.000000 1.703460 0.000000 
#    z -0.009100 0.000000 1.668770 
# 
# From -- ./inp_files/22537.got.cif
#   From: 2010.05.17/outbox.cif.g08.bks.cpg/sg15_12_cif.got.tgz:22537.got - 2010.06.03 18:47:42.
