data_PCOD9271199
_publ_section_title
;
Structure prediction by ZEFSAII (Michael W. Deem and Ramdas Pophale) SiO2 
 PCOD9271199
Probable space group: C 2/C
;
_chemical_formula_sum "Si O2"
_cell_formula_units_Z 44
_cell_length_a 28.696046
_cell_length_b 5.028668
_cell_length_c 15.676991
_cell_angle_alpha 90.000000
_cell_angle_beta 119.094475
_cell_angle_gamma 90.000000
_cell_volume 1976.784258
_symmetry_space_group_name_H-M "C 2/C"
_symmetry_group_IT_number 15
_symmetry_cell_setting 'monoclinic'
loop_
_space_group_symop_operation_xyz
x,y,z
-x,y,1/2-z
-x,-y,-z
x,-y,1/2+z
1/2+x,1/2+y,z
1/2-x,1/2+y,1/2-z
1/2-x,1/2-y,-z
1/2+x,1/2-y,1/2+z
loop_
_atom_site_type_symbol
_atom_site_label
_atom_site_fract_x
_atom_site_fract_y
_atom_site_fract_z
Si Si1 0.679107 0.736618 0.026255
Si Si2 0.285393 0.226106 0.769438
Si Si3 0.917211 0.123150 0.063429
Si Si4 0.000000 0.859531 0.250000
Si Si5 0.285932 0.949783 0.087300
Si Si6 0.527153 0.133782 0.443223
O O1 0.642866 0.477425 0.985069
O O2 0.671023 0.922180 0.937205
O O3 0.674378 0.843184 0.118232
O O4 0.742205 0.668780 0.077055
O O5 0.264822 0.526918 0.762398
O O6 0.306246 0.180644 0.692461
O O7 0.949749 0.039388 0.177538
O O8 0.945460 0.921631 0.019738
O O9 0.928818 0.423383 0.050006
O O10 0.990308 0.686253 0.326734
O O11 0.250000 0.750000 0.000000
O O12 0.500000 0.000000 0.500000
#
# Coordination Sequence:
#
# PCOD9271199 Si02
#       6
#     8   8   8   4   8   8
#     4  10  22  38  58  93 124 161 212 255 303 371
#     4  10  20  36  58  81 120 164 205 250 304 356
#     4  10  22  39  63  93 123 162 206 263 313 375
#     4   8  22  38  66  86 128 158 198 266 320 366
#     4  10  20  37  61  82 126 170 205 252 306 364
#     4  10  21  41  65  87 124 162 203 257 321 377
#
# _framework density 22.258372999999999
#
# number of rings (size 3 to 8) (size 9 to 14) (size 15 to 20)
#    1.091    1.091    1.818    1.091    2.545    0.000 
#    3.273    1.818    0.000    0.000    0.000    0.000 
#    0.000    0.000    0.000    0.000    0.000    0.000 
#
# Total GULP energy -122562.324770 kJ/mol
# GULP energy per Si atom -5571.014762 kJ/mol
# Density = 2.220771 g / cm^3
# Si number density = 22.258373 Si / 1000 Ang^3
#
#
#
# Elastic Constant Matrix: (Units=GPa)
#
#
# Indices 1 2 3 4 5 6 
#
# 1 55.7026 -1.1967 31.1703 0.0000 -6.3694 0.0000
# 2 -1.1967 54.9037 4.2168 -0.0001 -6.2158 0.0002
# 3 31.1703 4.2168 136.9342 0.0000 -25.5003 0.0000
# 4 0.0000 -0.0001 0.0000 27.4253 0.0000 -0.7666
# 5 -6.3694 -6.2158 -25.5003 0.0000 30.7516 0.0000
# 6 0.0000 0.0002 0.0000 -0.7666 0.0000 30.9627
#
#
#
# Elastic Compliance Matrix: (Units=1/GPa)
#
#
# Indices 1 2 3 4 5 6 
#
# 1 0.020619 0.000874 -0.004603 0.000000 0.000630 0.000000
# 2 0.000874 0.018680 -0.000044 0.000000 0.003920 0.000000
# 3 -0.004603 -0.000044 0.009665 0.000000 0.007052 0.000000
# 4 0.000000 0.000000 0.000000 0.036488 0.000000 0.000903
# 5 0.000630 0.003920 0.007052 0.000000 0.039290 0.000000
# 6 0.000000 0.000000 0.000000 0.000903 0.000000 0.032319
#
#
# Mechanical properties :
#
#
# Convention : Reuss Voigt Hill
#
# Bulk Modulus (GPa) = 24.14382 35.10237 29.62310
# Shear Modulus (GPa) = 28.02482 32.05128 30.03805
#
# Velocity S-wave (km/s) = 3.55219 3.79880 3.67756
# Velocity P-wave (km/s) = 5.26257 5.91995 5.60092
#
# Compressibility (1/GPa) = 0.04141846
#
# Stress axis : x y z
#
# Youngs Moduli (GPa) = 48.49863 53.53328 103.46336
#
# Poissons Ratio (x) = -0.04681 0.47625
# Poissons Ratio (y) = -0.04240 0.00458
# Poissons Ratio (z) = 0.22324 0.00237
#
# Static dielectric constant tensor:
#      x y z
#    x 1.868440 0.000000 -0.062790 
#    y 0.000000 1.872890 0.000000 
#    z -0.062790 0.000000 1.870250 
# 
# From -- ./inp_files/179829.got.cif
#   From: 2010.05.17/outbox.cif.g08.bks.cpg/sg15_90_cif.got.tgz:179829.got - 2010.06.03 18:47:42.
