data_PCOD9271957
_publ_section_title
;
Structure prediction by ZEFSAII (Michael W. Deem and Ramdas Pophale) SiO2 
 PCOD9271957
Probable space group: C 2/C
;
_chemical_formula_sum "Si O2"
_cell_formula_units_Z 52
_cell_length_a 17.358242
_cell_length_b 9.755543
_cell_length_c 14.173787
_cell_angle_alpha 90.000000
_cell_angle_beta 93.996671
_cell_angle_gamma 90.000000
_cell_volume 2394.339013
_symmetry_space_group_name_H-M "C 2/C"
_symmetry_group_IT_number 15
_symmetry_cell_setting 'monoclinic'
loop_
_space_group_symop_operation_xyz
x,y,z
-x,y,1/2-z
-x,-y,-z
x,-y,1/2+z
1/2+x,1/2+y,z
1/2-x,1/2+y,1/2-z
1/2-x,1/2-y,-z
1/2+x,1/2-y,1/2+z
loop_
_atom_site_type_symbol
_atom_site_label
_atom_site_fract_x
_atom_site_fract_y
_atom_site_fract_z
Si Si1 0.725703 0.213126 0.759325
Si Si2 0.821732 0.346676 0.038970
Si Si3 0.343918 0.510289 0.298428
Si Si4 0.264757 0.884095 0.438789
Si Si5 0.500000 0.349891 0.750000
Si Si6 0.521004 0.717650 0.453187
Si Si7 0.893906 0.935658 0.018639
O O1 0.678175 0.170725 0.847861
O O2 0.718512 0.376443 0.743331
O O3 0.697209 0.151781 0.657275
O O4 0.808830 0.141385 0.783486
O O5 0.905123 0.301478 0.007673
O O6 0.750000 0.250000 0.000000
O O7 0.805561 0.498243 0.001134
O O8 0.424654 0.554046 0.257808
O O9 0.358737 0.533331 0.411776
O O10 0.250000 0.750000 0.500000
O O11 0.176500 0.932294 0.415513
O O12 0.499574 0.255252 0.656930
O O13 0.552927 0.562141 0.449475
O O14 0.445661 0.701015 0.511861
#
# Coordination Sequence:
#
# PCOD9271957 Si02
#       7
#     8   8   8   8   4   8   8
#     4  12  22  38  62  96 128 170 214 270 321 387
#     4  12  22  40  65  97 123 167 221 266 310 387
#     4  11  21  37  63  91 126 165 216 268 324 381
#     4  12  23  38  59  90 137 165 208 266 332 377
#     4  10  20  36  62  94 116 168 218 264 310 382
#     4  10  20  36  64  90 124 159 221 268 312 384
#     4  10  20  38  58  92 125 166 202 270 331 374
#
# _framework density 21.717894000000001
#
# number of rings (size 3 to 8) (size 9 to 14) (size 15 to 20)
#    0.000    0.923    6.154    1.846    0.000    0.000 
#    0.000    0.769    0.000    0.923    0.000    0.000 
#    0.000    0.000    0.000    0.000    0.000    0.000 
#
# Total GULP energy -145125.345229 kJ/mol
# GULP energy per Si atom -5581.744047 kJ/mol
# Density = 2.166846 g / cm^3
# Si number density = 21.717894 Si / 1000 Ang^3
#
#
#
# Elastic Constant Matrix: (Units=GPa)
#
#
# Indices 1 2 3 4 5 6 
#
# 1 87.2775 19.9188 3.6958 0.0000 0.3793 0.0000
# 2 19.9188 81.9889 29.0817 0.0000 9.5200 0.0000
# 3 3.6958 29.0817 103.8289 0.0000 -5.1895 0.0000
# 4 0.0000 0.0000 0.0000 25.2952 0.0000 6.6317
# 5 0.3793 9.5200 -5.1895 0.0000 27.2802 0.0000
# 6 0.0000 0.0000 0.0000 6.6317 0.0000 45.0107
#
#
#
# Elastic Compliance Matrix: (Units=1/GPa)
#
#
# Indices 1 2 3 4 5 6 
#
# 1 0.012177 -0.003274 0.000537 0.000000 0.001075 0.000000
# 2 -0.003274 0.015292 -0.004474 0.000000 -0.006142 0.000000
# 3 0.000537 -0.004474 0.011048 0.000000 0.003655 0.000000
# 4 0.000000 0.000000 0.000000 0.041122 0.000000 -0.006059
# 5 0.001075 -0.006142 0.003655 0.000000 0.039480 0.000000
# 6 0.000000 0.000000 0.000000 -0.006059 0.000000 0.023110
#
#
# Mechanical properties :
#
#
# Convention : Reuss Voigt Hill
#
# Bulk Modulus (GPa) = 41.49913 42.05422 41.77667
# Shear Modulus (GPa) = 30.36155 34.21047 32.28601
#
# Velocity S-wave (km/s) = 3.74304 3.97321 3.85984
# Velocity P-wave (km/s) = 6.15062 6.36038 6.25638
#
# Compressibility (1/GPa) = 0.02409689
#
# Stress axis : x y z
#
# Youngs Moduli (GPa) = 82.11887 65.39309 90.51538
#
# Poissons Ratio (x) = 0.21409 -0.04863
# Poissons Ratio (y) = 0.26885 0.40494
# Poissons Ratio (z) = -0.04412 0.29255
#
# Static dielectric constant tensor:
#      x y z
#    x 1.959250 0.000000 0.029500 
#    y 0.000000 1.796500 0.000000 
#    z 0.029500 0.000000 1.859940 
# 
# From -- ./inp_files/166279.got.cif
#   From: 2010.05.17/outbox.cif.g08.bks.cpg/sg15_84_cif.got.tgz:166279.got - 2010.06.03 18:47:42.
