data_PCOD9271967
_publ_section_title
;
Structure prediction by ZEFSAII (Michael W. Deem and Ramdas Pophale) SiO2 
 PCOD9271967
Probable space group: C 2/C
;
_chemical_formula_sum "Si O2"
_cell_formula_units_Z 52
_cell_length_a 14.100259
_cell_length_b 29.400999
_cell_length_c 8.591592
_cell_angle_alpha 90.000000
_cell_angle_beta 128.578233
_cell_angle_gamma 90.000000
_cell_volume 2784.420616
_symmetry_space_group_name_H-M "C 2/C"
_symmetry_group_IT_number 15
_symmetry_cell_setting 'monoclinic'
loop_
_space_group_symop_operation_xyz
x,y,z
-x,y,1/2-z
-x,-y,-z
x,-y,1/2+z
1/2+x,1/2+y,z
1/2-x,1/2+y,1/2-z
1/2-x,1/2-y,-z
1/2+x,1/2-y,1/2+z
loop_
_atom_site_type_symbol
_atom_site_label
_atom_site_fract_x
_atom_site_fract_y
_atom_site_fract_z
Si Si1 0.500000 0.106981 0.750000
Si Si2 0.132022 0.225700 0.302364
Si Si3 0.632480 0.229239 0.468487
Si Si4 0.141152 0.543519 0.425532
Si Si5 0.174866 0.366978 0.164989
Si Si6 0.359555 0.377927 0.613169
Si Si7 0.199757 0.449001 0.631765
O O1 0.416848 0.136017 0.781089
O O2 0.422247 0.074619 0.558377
O O3 0.250000 0.250000 0.500000
O O4 0.120438 0.243709 0.116834
O O5 0.158466 0.171884 0.331415
O O6 0.000000 0.232946 0.250000
O O7 0.750000 0.250000 0.500000
O O8 0.662869 0.177224 0.546650
O O9 0.500000 0.231040 0.250000
O O10 0.147229 0.588323 0.536967
O O11 0.200116 0.500671 0.572659
O O12 0.201048 0.551798 0.318921
O O13 0.000000 0.532521 0.250000
O O14 0.302487 0.373867 0.382460
O O15 0.500000 0.387064 0.750000
O O16 0.298795 0.417601 0.650688
#
# Coordination Sequence:
#
# PCOD9271967 Si02
#       7
#     4   8   8   8   8   8   8
#     4  10  20  36  62  94 130 164 212 258 324 386
#     4  11  23  45  70  95 131 181 227 275 332 401
#     4  12  28  43  67 101 140 172 225 280 338 394
#     4  12  22  40  64 100 140 163 209 267 345 386
#     4  11  24  41  66  99 131 170 217 273 330 394
#     4  10  24  45  67  90 130 174 229 265 323 390
#     4  11  22  38  65  97 127 174 208 263 321 398
#
# _framework density 18.675339000000001
#
# number of rings (size 3 to 8) (size 9 to 14) (size 15 to 20)
#    0.000    0.923    3.846    3.692    5.385    1.231 
#    0.000    3.846    0.000    0.000    0.000    0.000 
#    0.000    0.000    0.000    0.000    0.000    0.000 
#
# Total GULP energy -145219.259191 kJ/mol
# GULP energy per Si atom -5585.356123 kJ/mol
# Density = 1.863283 g / cm^3
# Si number density = 18.675339 Si / 1000 Ang^3
#
#
#
# Elastic Constant Matrix: (Units=GPa)
#
#
# Indices 1 2 3 4 5 6 
#
# 1 106.7434 84.0651 81.0154 0.0000 -1.8920 0.0000
# 2 84.0651 140.5228 52.0264 0.0000 -2.5361 0.0000
# 3 81.0154 52.0264 130.4907 0.0000 -1.3510 0.0000
# 4 0.0000 0.0000 0.0000 84.2205 0.0000 -119.9242
# 5 -1.8920 -2.5361 -1.3510 0.0000 30.3564 0.0000
# 6 0.0000 0.0000 0.0000 -119.9242 0.0000 264.4224
#
#
#
# Elastic Compliance Matrix: (Units=1/GPa)
#
#
# Indices 1 2 3 4 5 6 
#
# 1 0.029349 -0.012680 -0.013164 0.000000 0.000184 0.000000
# 2 -0.012680 0.013836 0.002361 0.000000 0.000471 0.000000
# 3 -0.013164 0.002361 0.014895 0.000000 0.000040 0.000000
# 4 0.000000 0.000000 0.000000 0.033522 0.000000 0.015203
# 5 0.000184 0.000471 0.000040 0.000000 0.032994 0.000000
# 6 0.000000 0.000000 0.000000 0.015203 0.000000 0.010677
#
#
# Mechanical properties :
#
#
# Convention : Reuss Voigt Hill
#
# Bulk Modulus (GPa) = 89.97523 90.21896 90.09709
# Shear Modulus (GPa) = 26.88966 86.50988 56.69977
#
# Velocity S-wave (km/s) = 3.79865 6.81349 5.51604
# Velocity P-wave (km/s) = 8.21723 10.50296 9.42961
#
# Compressibility (1/GPa) = 0.01111417
#
# Stress axis : x y z
#
# Youngs Moduli (GPa) = 34.07301 72.27277 67.13576
#
# Poissons Ratio (x) = 0.91644 0.88375
# Poissons Ratio (y) = 0.43206 -0.15850
# Poissons Ratio (z) = 0.44853 -0.17063
#
# Static dielectric constant tensor:
#      x y z
#    x 1.622540 0.000000 0.053150 
#    y 0.000000 1.637070 0.000000 
#    z 0.053150 0.000000 1.608550 
# 
# From -- ./inp_files/43389.got.cif
#   From: 2010.05.17/outbox.cif.g08.bks.cpg/sg15_22_cif.got.tgz:43389.got - 2010.06.03 18:47:42.
