data_PCOD9271851
_publ_section_title
;
Structure prediction by ZEFSAII (Michael W. Deem and Ramdas Pophale) SiO2 
 PCOD9271851
Probable space group: C 2/C
;
_chemical_formula_sum "Si O2"
_cell_formula_units_Z 32
_cell_length_a 9.777237
_cell_length_b 23.925559
_cell_length_c 7.816764
_cell_angle_alpha 90.000000
_cell_angle_beta 55.886380
_cell_angle_gamma 90.000000
_cell_volume 1513.900397
_symmetry_space_group_name_H-M "C 2/C"
_symmetry_group_IT_number 15
_symmetry_cell_setting 'monoclinic'
loop_
_space_group_symop_operation_xyz
x,y,z
-x,y,1/2-z
-x,-y,-z
x,-y,1/2+z
1/2+x,1/2+y,z
1/2-x,1/2+y,1/2-z
1/2-x,1/2-y,-z
1/2+x,1/2-y,1/2+z
loop_
_atom_site_type_symbol
_atom_site_label
_atom_site_fract_x
_atom_site_fract_y
_atom_site_fract_z
Si Si1 0.149585 0.917226 0.412811
Si Si2 0.000000 0.997348 0.750000
Si Si3 0.816859 0.288416 0.705766
Si Si4 0.181126 0.674545 0.913381
Si Si5 0.500000 0.329167 0.750000
O O1 0.066408 0.960121 0.343253
O O2 0.287587 0.882830 0.211192
O O3 0.033821 0.868076 0.563105
O O4 0.151948 0.957449 0.579773
O O5 0.805495 0.223773 0.768554
O O6 0.668513 0.298202 0.678257
O O7 0.995670 0.303769 0.507786
O O8 0.800018 0.325142 0.892848
#
# Coordination Sequence:
#
# PCOD9271851 Si02
#       5
#     8   4   8   8   4
#     4  10  20  36  62  85 116 155 197 246 296 343
#     4   9  20  38  60  88 112 154 208 249 294 344
#     4  10  22  37  59  93 124 154 193 231 290 365
#     4  10  21  39  60  86 124 161 190 234 292 355
#     4  11  22  36  62  94 120 152 192 241 294 352
#
# _framework density 21.137452
#
# number of rings (size 3 to 8) (size 9 to 14) (size 15 to 20)
#    0.000    2.000    0.000    3.000    0.000    9.000 
#    0.000    0.000    0.000   51.000    0.000    0.000 
#    0.000    0.000    0.000    0.000    0.000    0.000 
#
# Total GULP energy -89087.382169 kJ/mol
# GULP energy per Si atom -5567.961386 kJ/mol
# Density = 2.108934 g / cm^3
# Si number density = 21.137452 Si / 1000 Ang^3
#
#
#
# Elastic Constant Matrix: (Units=GPa)
#
#
# Indices 1 2 3 4 5 6 
#
# 1 101.5315 31.9213 30.8895 0.0000 -13.4933 0.0000
# 2 31.9213 97.5094 70.9201 0.0000 -8.2108 0.0000
# 3 30.8895 70.9201 108.6382 0.0000 -9.6726 0.0000
# 4 0.0000 0.0000 0.0000********** 0.0000 6338.5614
# 5 -13.4933 -8.2108 -9.6726 0.0000 24.0977 0.0000
# 6 0.0000 0.0000 0.0000 6338.5614 0.0000-2347.6732
#
#
#
# Elastic Compliance Matrix: (Units=1/GPa)
#
#
# Indices 1 2 3 4 5 6 
#
# 1 0.011701 -0.002493 -0.001236 0.000000 0.005206 0.000000
# 2 -0.002493 0.020117 -0.012380 0.000000 0.000489 0.000000
# 3 -0.001236 -0.012380 0.017838 0.000000 0.002250 0.000000
# 4 0.000000 0.000000 0.000000 0.004275 0.000000 0.011543
# 5 0.005206 0.000489 0.002250 0.000000 0.045483 0.000000
# 6 0.000000 0.000000 0.000000 0.011543 0.000000 0.030740
#
#
# Mechanical properties :
#
#
# Convention : Reuss Voigt Hill
#
# Bulk Modulus (GPa) = 57.34604 63.90455 60.62530
# Shear Modulus (GPa) = 29.72904 -3829.07782 -1899.67439
#
# Velocity S-wave (km/s) = 3.75435 -42.60805 -30.01126
# Velocity P-wave (km/s) = 6.78104 48.89066 34.23678
#
# Compressibility (1/GPa) = 0.01743799
#
# Stress axis : x y z
#
# Youngs Moduli (GPa) = 85.46338 49.70888 56.05862
#
# Poissons Ratio (x) = 0.12394 0.06928
# Poissons Ratio (y) = 0.21308 0.69402
# Poissons Ratio (z) = 0.10561 0.61541
#
# Static dielectric constant tensor:
#      x y z
#    x 1.760100 0.000000 0.059230 
#    y 0.000000 1.748950 0.000000 
#    z 0.059230 0.000000 1.930890 
# 
# From -- ./inp_files/30075.got.cif
#   From: 2010.05.17/outbox.cif.g08.bks.cpg/sg15_16_cif.got.tgz:30075.got - 2010.06.03 18:47:42.
