data_PCOD9271401
_publ_section_title
;
Structure prediction by ZEFSAII (Michael W. Deem and Ramdas Pophale) SiO2 
 PCOD9271401
Probable space group: C 2/C
;
_chemical_formula_sum "Si O2"
_cell_formula_units_Z 32
_cell_length_a 26.674757
_cell_length_b 6.891117
_cell_length_c 16.682051
_cell_angle_alpha 90.000000
_cell_angle_beta 158.951976
_cell_angle_gamma 90.000000
_cell_volume 1101.325789
_symmetry_space_group_name_H-M "C 2/C"
_symmetry_group_IT_number 15
_symmetry_cell_setting 'monoclinic'
loop_
_space_group_symop_operation_xyz
x,y,z
-x,y,1/2-z
-x,-y,-z
x,-y,1/2+z
1/2+x,1/2+y,z
1/2-x,1/2+y,1/2-z
1/2-x,1/2-y,-z
1/2+x,1/2-y,1/2+z
loop_
_atom_site_type_symbol
_atom_site_label
_atom_site_fract_x
_atom_site_fract_y
_atom_site_fract_z
Si Si1 0.444835 0.983221 0.785984
Si Si2 0.704246 0.899954 0.275725
Si Si3 0.300296 0.553389 0.681443
Si Si4 0.529896 0.593361 0.414099
O O1 0.356486 0.994731 0.736751
O O2 0.349287 0.887986 0.575559
O O3 0.459109 0.208365 0.781316
O O4 0.597116 0.916606 0.041159
O O5 0.709659 0.671387 0.304552
O O6 0.856850 0.975680 0.480201
O O7 0.413684 0.546320 0.778266
O O8 0.374046 0.655690 0.865872
#
# Coordination Sequence:
#
# PCOD9271401 Si02
#       4
#     8   8   8   8
#     4  10  22  39  58  83 115 148 185 231 279 329
#     4  10  20  36  59  85 113 147 188 230 275 332
#     4  10  22  39  58  83 115 148 185 231 279 329
#     4  10  20  36  59  85 113 147 188 230 275 332
#
# _framework density 29.055890999999999
#
# number of rings (size 3 to 8) (size 9 to 14) (size 15 to 20)
#    0.000    2.000    0.000    4.500    0.000    7.000 
#    0.000   22.500    0.000   24.000    0.000    0.000 
#    0.000    0.000    0.000    0.000    0.000    0.000 
#
# Total GULP energy -89871.217300 kJ/mol
# GULP energy per Si atom -5616.951081 kJ/mol
# Density = 2.898976 g / cm^3
# Si number density = 29.055891 Si / 1000 Ang^3
#
#
#
# Elastic Constant Matrix: (Units=GPa)
#
#
# Indices 1 2 3 4 5 6 
#
# 1 122.2181 12.0182 36.0351 0.0000 31.3419 0.0000
# 2 12.0182 76.3218 22.0745 0.0000 -16.0153 0.0000
# 3 36.0351 22.0745 216.5033 0.0000 -15.8882 0.0000
# 4 0.0000 0.0000 0.0000 42.7327 0.0000 -5.6286
# 5 31.3419 -16.0153 -15.8882 0.0000 68.7964 0.0000
# 6 0.0000 0.0000 0.0000 -5.6286 0.0000 25.3691
#
#
#
# Elastic Compliance Matrix: (Units=1/GPa)
#
#
# Indices 1 2 3 4 5 6 
#
# 1 0.010447 -0.002292 -0.001926 0.000000 -0.005738 0.000000
# 2 -0.002292 0.014586 -0.000793 0.000000 0.004256 0.000000
# 3 -0.001926 -0.000793 0.005159 0.000000 0.001884 0.000000
# 4 0.000000 0.000000 0.000000 0.024106 0.000000 0.005348
# 5 -0.005738 0.004256 0.001884 0.000000 0.018576 0.000000
# 6 0.000000 0.000000 0.000000 0.005348 0.000000 0.040605
#
#
# Mechanical properties :
#
#
# Convention : Reuss Voigt Hill
#
# Bulk Modulus (GPa) = 49.58225 61.69985 55.64105
# Shear Modulus (GPa) = 38.39570 50.37400 44.38485
#
# Velocity S-wave (km/s) = 3.63911 4.16828 3.91265
# Velocity P-wave (km/s) = 5.89567 6.66686 6.29309
#
# Compressibility (1/GPa) = 0.02016851
#
# Stress axis : x y z
#
# Youngs Moduli (GPa) = 95.72348 68.55921 193.85036
#
# Poissons Ratio (x) = 0.15713 0.37338
# Poissons Ratio (y) = 0.21939 0.15379
# Poissons Ratio (z) = 0.18438 0.05439
#
# Static dielectric constant tensor:
#      x y z
#    x 2.252550 0.000000 0.009600 
#    y 0.000000 2.247320 0.000000 
#    z 0.009600 0.000000 2.144860 
# 
# From -- ./inp_files/117800.got.cif
#   From: 2010.05.17/outbox.cif.g08.bks.cpg/sg15_59_cif.got.tgz:117800.got - 2010.06.03 18:47:42.
