data_PCOD9271648
_publ_section_title
;
Structure prediction by ZEFSAII (Michael W. Deem and Ramdas Pophale) SiO2 
 PCOD9271648
Probable space group: C 2/C
;
_chemical_formula_sum "Si O2"
_cell_formula_units_Z 40
_cell_length_a 14.737680
_cell_length_b 8.048774
_cell_length_c 25.845326
_cell_angle_alpha 90.000000
_cell_angle_beta 151.312104
_cell_angle_gamma 90.000000
_cell_volume 1471.691073
_symmetry_space_group_name_H-M "C 2/C"
_symmetry_group_IT_number 15
_symmetry_cell_setting 'monoclinic'
loop_
_space_group_symop_operation_xyz
x,y,z
-x,y,1/2-z
-x,-y,-z
x,-y,1/2+z
1/2+x,1/2+y,z
1/2-x,1/2+y,1/2-z
1/2-x,1/2-y,-z
1/2+x,1/2-y,1/2+z
loop_
_atom_site_type_symbol
_atom_site_label
_atom_site_fract_x
_atom_site_fract_y
_atom_site_fract_z
Si Si1 0.812112 0.769989 0.708246
Si Si2 0.221946 0.940693 0.708678
Si Si3 0.758424 0.097215 0.079995
Si Si4 0.200327 0.931684 0.497800
Si Si5 0.724788 0.241463 0.364022
O O1 0.844225 0.582172 0.742419
O O2 0.701851 0.779079 0.598497
O O3 0.016945 0.858374 0.809204
O O4 0.707072 0.867756 0.701874
O O5 0.020581 0.027175 0.616050
O O6 0.202587 0.794521 0.657092
O O7 0.714489 0.918886 0.083485
O O8 0.704922 0.069254 0.992975
O O9 0.250000 0.750000 0.500000
O O10 0.237017 0.907462 0.576734
O O11 0.500000 0.255113 0.250000
#
# Coordination Sequence:
#
# PCOD9271648 Si02
#       5
#     8   8   8   8   8
#     4  10  20  36  60  90 124 157 206 243 303 361
#     4  11  23  36  65  95 121 165 209 249 300 374
#     4   9  19  40  60  85 128 161 191 256 305 355
#     4   9  21  40  62  85 127 163 200 253 310 357
#     4  11  21  38  68  86 119 164 208 249 314 355
#
# _framework density 27.179618000000001
#
# number of rings (size 3 to 8) (size 9 to 14) (size 15 to 20)
#    0.000    2.000    2.000    1.800    8.400    0.000 
#    0.000    5.000    4.400    0.000    0.000    0.000 
#    0.000    0.000    0.000    0.000    0.000    0.000 
#
# Total GULP energy -111810.757430 kJ/mol
# GULP energy per Si atom -5590.537871 kJ/mol
# Density = 2.711776 g / cm^3
# Si number density = 27.179618 Si / 1000 Ang^3
#
#
#
# Elastic Constant Matrix: (Units=GPa)
#
#
# Indices 1 2 3 4 5 6 
#
# 1 109.8664 37.5915 6.7485 0.0000 -22.8637 0.0000
# 2 37.5915 122.2508 -5.7562 -0.0001 -10.2997 0.0000
# 3 6.7485 -5.7562 47.4884 0.0000 2.4077 0.0000
# 4 0.0000 -0.0001 0.0000 22.0312 -0.0001 -6.3711
# 5 -22.8637 -10.2997 2.4077 -0.0001 44.3004 0.0000
# 6 0.0000 0.0000 0.0000 -6.3711 0.0000 25.5645
#
#
#
# Elastic Compliance Matrix: (Units=1/GPa)
#
#
# Indices 1 2 3 4 5 6 
#
# 1 0.011428 -0.003176 -0.002277 0.000000 0.005283 0.000000
# 2 -0.003176 0.009266 0.001553 0.000000 0.000431 0.000000
# 3 -0.002277 0.001553 0.021671 0.000000 -0.001992 0.000000
# 4 0.000000 0.000000 0.000000 0.048915 0.000000 0.012190
# 5 0.005283 0.000431 -0.001992 0.000000 0.025508 0.000000
# 6 0.000000 0.000000 0.000000 0.012190 0.000000 0.042155
#
#
# Mechanical properties :
#
#
# Convention : Reuss Voigt Hill
#
# Bulk Modulus (GPa) = 28.93198 39.64146 34.28672
# Shear Modulus (GPa) = 28.04811 34.44734 31.24773
#
# Velocity S-wave (km/s) = 3.21589 3.56391 3.39436
# Velocity P-wave (km/s) = 4.94541 5.61711 5.29193
#
# Compressibility (1/GPa) = 0.03456383
#
# Stress axis : x y z
#
# Youngs Moduli (GPa) = 87.50391 107.92209 46.14557
#
# Poissons Ratio (x) = 0.34278 0.10507
# Poissons Ratio (y) = 0.27792 -0.07165
# Poissons Ratio (z) = 0.19924 -0.16757
#
# Static dielectric constant tensor:
#      x y z
#    x 2.244730 0.000000 -0.024640 
#    y 0.000000 2.088830 0.000000 
#    z -0.024640 0.000000 2.034710 
# 
# From -- ./inp_files/294936.got.cif
#   From: 2010.05.17/outbox.cif.g08.bks.cpg/sg15_148_cif.got.tgz:294936.got - 2010.06.03 18:47:42.
