data_PCOD9271014
_publ_section_title
;
Structure prediction by ZEFSAII (Michael W. Deem and Ramdas Pophale) SiO2 
 PCOD9271014
Probable space group: C 2/C
;
_chemical_formula_sum "Si O2"
_cell_formula_units_Z 44
_cell_length_a 5.046258
_cell_length_b 12.445917
_cell_length_c 29.796586
_cell_angle_alpha 90.000000
_cell_angle_beta 86.692726
_cell_angle_gamma 90.000000
_cell_volume 1868.266979
_symmetry_space_group_name_H-M "C 2/C"
_symmetry_group_IT_number 15
_symmetry_cell_setting 'monoclinic'
loop_
_space_group_symop_operation_xyz
x,y,z
-x,y,1/2-z
-x,-y,-z
x,-y,1/2+z
1/2+x,1/2+y,z
1/2-x,1/2+y,1/2-z
1/2-x,1/2-y,-z
1/2+x,1/2-y,1/2+z
loop_
_atom_site_type_symbol
_atom_site_label
_atom_site_fract_x
_atom_site_fract_y
_atom_site_fract_z
Si Si1 0.500000 0.356363 0.250000
Si Si2 0.037187 0.017173 0.447227
Si Si3 0.280413 0.501748 0.822947
Si Si4 0.476654 0.891640 0.598886
Si Si5 0.121507 0.238034 0.199790
Si Si6 0.321625 0.649268 0.623822
O O1 0.713529 0.437852 0.225154
O O2 0.417998 0.275335 0.211055
O O3 0.252099 0.105822 0.430975
O O4 0.759486 0.054928 0.428011
O O5 0.179005 0.912093 0.423606
O O6 0.000000 0.000000 0.500000
O O7 0.027277 0.463240 0.855067
O O8 0.412065 0.384251 0.813301
O O9 0.476825 0.571845 0.851505
O O10 0.419422 0.769724 0.612733
O O11 0.070298 0.319565 0.158960
O O12 0.000000 0.253136 0.250000
#
# Coordination Sequence:
#
# PCOD9271014 Si02
#       6
#     4   8   8   8   8   8
#     4  10  20  36  56  86 120 164 210 264 320 376
#     4  11  24  43  69 100 131 168 218 273 329 391
#     4   9  19  41  57  86 129 163 215 264 320 382
#     4  10  23  42  66  96 131 169 214 262 323 393
#     4  10  20  38  59  87 121 165 215 265 323 388
#     4   9  22  42  62  91 128 174 210 269 327 384
#
# _framework density 23.551237
#
# number of rings (size 3 to 8) (size 9 to 14) (size 15 to 20)
#    0.000    2.182    0.909    0.545    2.545    4.364 
#   27.818    0.000    0.000    0.000    0.000    0.000 
#    0.000    0.000    0.000    0.000    0.000    0.000 
#
# Total GULP energy -122526.123477 kJ/mol
# GULP energy per Si atom -5569.369249 kJ/mol
# Density = 2.349763 g / cm^3
# Si number density = 23.551237 Si / 1000 Ang^3
#
#
#
# Elastic Constant Matrix: (Units=GPa)
#
#
# Indices 1 2 3 4 5 6 
#
# 1 56.7457 -2.3618 17.0822 0.0000 -5.8739 0.0000
# 2 -2.3618 141.2343 54.5088 0.0000 11.1774 0.0000
# 3 17.0822 54.5088 157.4857 0.0000 -28.8136 0.0000
# 4 0.0000 0.0000 0.0000 22.2368 0.0000 -11.9149
# 5 -5.8739 11.1774 -28.8136 0.0000 36.6417 0.0000
# 6 0.0000 0.0000 0.0000 -11.9149 0.0000 13.7569
#
#
#
# Elastic Compliance Matrix: (Units=1/GPa)
#
#
# Indices 1 2 3 4 5 6 
#
# 1 0.018426 0.001094 -0.002217 0.000000 0.000877 0.000000
# 2 0.001094 0.009315 -0.004474 0.000000 -0.006185 0.000000
# 3 -0.002217 -0.004474 0.009722 0.000000 0.008655 0.000000
# 4 0.000000 0.000000 0.000000 0.083912 0.000000 0.072676
# 5 0.000877 -0.006185 0.008655 0.000000 0.036124 0.000000
# 6 0.000000 0.000000 0.000000 0.072676 0.000000 0.135636
#
#
# Mechanical properties :
#
#
# Convention : Reuss Voigt Hill
#
# Bulk Modulus (GPa) = 38.06676 54.88046 46.47361
# Shear Modulus (GPa) = 15.97007 33.60952 24.78979
#
# Velocity S-wave (km/s) = 2.60686 3.78177 3.24788
# Velocity P-wave (km/s) = 5.02587 6.51323 5.81729
#
# Compressibility (1/GPa) = 0.02626964
#
# Stress axis : x y z
#
# Youngs Moduli (GPa) = 54.27059 107.35329 102.85519
#
# Poissons Ratio (x) = -0.11749 0.22804
# Poissons Ratio (y) = -0.05940 0.46021
# Poissons Ratio (z) = 0.12032 0.48034
#
# Static dielectric constant tensor:
#      x y z
#    x 2.086790 0.000000 -0.049430 
#    y 0.000000 1.898800 0.000000 
#    z -0.049430 0.000000 2.003090 
# 
# From -- ./inp_files/304930.got.cif
#   From: 2010.05.17/outbox.cif.g08.bks.cpg/sg15_153_cif.got.tgz:304930.got - 2010.06.03 18:47:42.
