data_PCOD9271263
_publ_section_title
;
Structure prediction by ZEFSAII (Michael W. Deem and Ramdas Pophale) SiO2 
 PCOD9271263
Probable space group: C 2/C
;
_chemical_formula_sum "Si O2"
_cell_formula_units_Z 56
_cell_length_a 20.268869
_cell_length_b 9.959632
_cell_length_c 16.685864
_cell_angle_alpha 90.000000
_cell_angle_beta 41.273196
_cell_angle_gamma 90.000000
_cell_volume 2221.954527
_symmetry_space_group_name_H-M "C 2/C"
_symmetry_group_IT_number 15
_symmetry_cell_setting 'monoclinic'
loop_
_space_group_symop_operation_xyz
x,y,z
-x,y,1/2-z
-x,-y,-z
x,-y,1/2+z
1/2+x,1/2+y,z
1/2-x,1/2+y,1/2-z
1/2-x,1/2-y,-z
1/2+x,1/2-y,1/2+z
loop_
_atom_site_type_symbol
_atom_site_label
_atom_site_fract_x
_atom_site_fract_y
_atom_site_fract_z
Si Si1 0.839766 0.212815 0.348403
Si Si2 0.722327 0.097383 0.738768
Si Si3 0.440973 0.425594 0.434896
Si Si4 0.653523 0.409176 0.148387
Si Si5 0.822549 0.307663 0.759353
Si Si6 0.018894 0.675570 0.002368
Si Si7 0.565408 0.725053 0.073997
O O1 0.796043 0.320132 0.326419
O O2 0.854556 0.252889 0.428699
O O3 0.956042 0.210341 0.213476
O O4 0.800976 0.058257 0.378725
O O5 0.799275 0.188534 0.717902
O O6 0.739271 0.941317 0.703890
O O7 0.620758 0.101146 0.886370
O O8 0.550813 0.417682 0.293686
O O9 0.371447 0.396244 0.421988
O O10 0.442739 0.322778 0.506191
O O11 0.417014 0.578015 0.478737
O O12 0.700414 0.271892 0.138258
O O13 0.938913 0.355535 0.645559
O O14 0.952075 0.674134 0.982649
#
# Coordination Sequence:
#
# PCOD9271263 Si02
#       7
#     8   8   8   8   8   8   8
#     4   8  15  31  53  80 112 146 183 227 274 326
#     4  11  23  39  58  83 113 148 187 231 280 332
#     4   8  14  27  53  84 112 144 184 225 273 329
#     4   8  15  31  53  80 112 146 183 227 274 326
#     4  11  23  39  58  83 113 148 187 231 280 332
#     4  10  20  36  58  86 115 146 183 232 279 326
#     4   8  14  27  53  84 112 144 184 225 273 329
#
# _framework density 25.203035
#
# number of rings (size 3 to 8) (size 9 to 14) (size 15 to 20)
#    0.000    2.857    0.000    3.429    0.000    3.429 
#    0.000   14.286    0.000    0.000    0.000    0.000 
#    0.000    0.000    0.000    0.000    0.000    0.000 
#
# Total GULP energy -156349.503018 kJ/mol
# GULP energy per Si atom -5583.910822 kJ/mol
# Density = 2.514567 g / cm^3
# Si number density = 25.203035 Si / 1000 Ang^3
#
#
#
# Elastic Constant Matrix: (Units=GPa)
#
#
# Indices 1 2 3 4 5 6 
#
# 1 82.6884 52.1522 11.6553 0.0000 19.4446 0.0000
# 2 52.1522 139.5872 45.9816 0.0000 8.4189 0.0000
# 3 11.6553 45.9816 88.2671 0.0000 -5.2138 0.0000
# 4 0.0000 0.0000 0.0000 41.9913 0.0000 0.8713
# 5 19.4446 8.4189 -5.2138 0.0000 40.3946 0.0000
# 6 0.0000 0.0000 0.0000 0.8713 0.0000 25.2536
#
#
#
# Elastic Compliance Matrix: (Units=1/GPa)
#
#
# Indices 1 2 3 4 5 6 
#
# 1 0.017708 -0.006371 0.000560 0.000000 -0.007124 0.000000
# 2 -0.006371 0.011178 -0.004976 0.000000 0.000095 0.000000
# 3 0.000560 -0.004976 0.014000 0.000000 0.002575 0.000000
# 4 0.000000 0.000000 0.000000 0.023832 0.000000 -0.000822
# 5 -0.007124 0.000095 0.002575 0.000000 0.028498 0.000000
# 6 0.000000 0.000000 0.000000 -0.000822 0.000000 0.039627
#
#
# Mechanical properties :
#
#
# Convention : Reuss Voigt Hill
#
# Bulk Modulus (GPa) = 46.92385 58.90234 52.91309
# Shear Modulus (GPa) = 30.57751 34.91148 32.74449
#
# Velocity S-wave (km/s) = 3.48695 3.72588 3.60839
# Velocity P-wave (km/s) = 5.90512 6.47545 6.19685
#
# Compressibility (1/GPa) = 0.02131112
#
# Stress axis : x y z
#
# Youngs Moduli (GPa) = 56.47157 89.46448 71.43057
#
# Poissons Ratio (x) = 0.56995 -0.03998
# Poissons Ratio (y) = 0.35976 0.35544
# Poissons Ratio (z) = -0.03160 0.44518
#
# Static dielectric constant tensor:
#      x y z
#    x 2.018250 0.000000 -0.057290 
#    y 0.000000 1.981380 0.000000 
#    z -0.057290 0.000000 2.116220 
# 
# From -- ./inp_files/218527.got.cif
#   From: 2010.05.17/outbox.cif.g08.bks.cpg/sg15_110_cif.got.tgz:218527.got - 2010.06.03 18:47:42.
