data_PCOD9271537
_publ_section_title
;
Structure prediction by ZEFSAII (Michael W. Deem and Ramdas Pophale) SiO2 
 PCOD9271537
Probable space group: C 2/C
;
_chemical_formula_sum "Si O2"
_cell_formula_units_Z 44
_cell_length_a 6.099487
_cell_length_b 22.664214
_cell_length_c 17.417963
_cell_angle_alpha 90.000000
_cell_angle_beta 51.493747
_cell_angle_gamma 90.000000
_cell_volume 1884.247729
_symmetry_space_group_name_H-M "C 2/C"
_symmetry_group_IT_number 15
_symmetry_cell_setting 'monoclinic'
loop_
_space_group_symop_operation_xyz
x,y,z
-x,y,1/2-z
-x,-y,-z
x,-y,1/2+z
1/2+x,1/2+y,z
1/2-x,1/2+y,1/2-z
1/2-x,1/2-y,-z
1/2+x,1/2-y,1/2+z
loop_
_atom_site_type_symbol
_atom_site_label
_atom_site_fract_x
_atom_site_fract_y
_atom_site_fract_z
Si Si1 0.544343 0.419361 0.652420
Si Si2 0.562410 0.531790 0.566742
Si Si3 0.909069 0.317954 0.398525
Si Si4 0.108318 0.700099 0.427542
Si Si5 0.000000 0.594416 0.750000
Si Si6 0.199102 0.870290 0.936944
O O1 0.500000 0.434101 0.750000
O O2 0.684474 0.478810 0.589740
O O3 0.700025 0.357239 0.621732
O O4 0.293880 0.403894 0.645958
O O5 0.500000 0.500000 0.500000
O O6 0.752193 0.586339 0.497867
O O7 0.274073 0.555971 0.668254
O O8 0.026604 0.301680 0.457063
O O9 0.799500 0.258089 0.382353
O O10 0.623084 0.352779 0.480662
O O11 0.069618 0.361619 0.306338
O O12 0.882315 0.687841 0.410504
#
# Coordination Sequence:
#
# PCOD9271537 Si02
#       6
#     8   8   8   8   4   8
#     4  10  22  35  54  88 122 159 204 254 311 374
#     4   9  20  38  59  89 123 161 213 261 317 380
#     4   9  20  37  59  87 116 159 208 256 315 375
#     4  10  20  36  60  83 122 163 201 259 319 371
#     4  10  20  38  66  88 126 166 208 270 312 376
#     4   9  19  38  60  83 115 161 209 253 315 379
#
# _framework density 23.351495
#
# number of rings (size 3 to 8) (size 9 to 14) (size 15 to 20)
#    0.000    2.545    0.000    1.636    1.273    5.818 
#    0.000    2.727    4.000    0.000    0.000    0.000 
#    0.000    0.000    0.000    0.000    0.000    0.000 
#
# Total GULP energy -122575.768435 kJ/mol
# GULP energy per Si atom -5571.625838 kJ/mol
# Density = 2.329835 g / cm^3
# Si number density = 23.351495 Si / 1000 Ang^3
#
#
#
# Elastic Constant Matrix: (Units=GPa)
#
#
# Indices 1 2 3 4 5 6 
#
# 1 54.4156 21.6907 35.2236 0.0000 17.9383 0.0000
# 2 21.6907 121.8520 44.7155 0.0000 5.2569 0.0000
# 3 35.2236 44.7155 91.4387 0.0000 17.5764 0.0000
# 4 0.0000 0.0000 0.0000 32.1644 0.0000 4.6012
# 5 17.9383 5.2569 17.5764 0.0000 26.4192 0.0000
# 6 0.0000 0.0000 0.0000 4.6012 0.0000 40.5531
#
#
#
# Elastic Compliance Matrix: (Units=1/GPa)
#
#
# Indices 1 2 3 4 5 6 
#
# 1 0.028521 -0.001744 -0.007428 0.000000 -0.014076 0.000000
# 2 -0.001744 0.010157 -0.004740 0.000000 0.002317 0.000000
# 3 -0.007428 -0.004740 0.017160 0.000000 -0.005429 0.000000
# 4 0.000000 0.000000 0.000000 0.031603 0.000000 -0.003586
# 5 -0.014076 0.002317 -0.005429 0.000000 0.050560 0.000000
# 6 0.000000 0.000000 0.000000 -0.003586 0.000000 0.025066
#
#
# Mechanical properties :
#
#
# Convention : Reuss Voigt Hill
#
# Bulk Modulus (GPa) = 35.69862 52.32953 44.01408
# Shear Modulus (GPa) = 24.97149 30.89910 27.93530
#
# Velocity S-wave (km/s) = 3.27368 3.64155 3.46250
# Velocity P-wave (km/s) = 5.44151 6.33556 5.90548
#
# Compressibility (1/GPa) = 0.02801229
#
# Stress axis : x y z
#
# Youngs Moduli (GPa) = 35.06211 98.45698 58.27669
#
# Poissons Ratio (x) = 0.17169 0.43289
# Poissons Ratio (y) = 0.06114 0.27626
# Poissons Ratio (z) = 0.26045 0.46673
#
# Static dielectric constant tensor:
#      x y z
#    x 1.974310 0.000000 0.066470 
#    y 0.000000 1.941970 0.000000 
#    z 0.066470 0.000000 1.884430 
# 
# From -- ./inp_files/185444.got.cif
#   From: 2010.05.17/outbox.cif.g08.bks.cpg/sg15_93_cif.got.tgz:185444.got - 2010.06.03 18:47:42.
