data_PCOD9271252
_publ_section_title
;
Structure prediction by ZEFSAII (Michael W. Deem and Ramdas Pophale) SiO2 
 PCOD9271252
Probable space group: C 2/C
;
_chemical_formula_sum "Si O2"
_cell_formula_units_Z 40
_cell_length_a 25.598505
_cell_length_b 7.194226
_cell_length_c 15.723266
_cell_angle_alpha 90.000000
_cell_angle_beta 149.978461
_cell_angle_gamma 90.000000
_cell_volume 1448.752178
_symmetry_space_group_name_H-M "C 2/C"
_symmetry_group_IT_number 15
_symmetry_cell_setting 'monoclinic'
loop_
_space_group_symop_operation_xyz
x,y,z
-x,y,1/2-z
-x,-y,-z
x,-y,1/2+z
1/2+x,1/2+y,z
1/2-x,1/2+y,1/2-z
1/2-x,1/2-y,-z
1/2+x,1/2-y,1/2+z
loop_
_atom_site_type_symbol
_atom_site_label
_atom_site_fract_x
_atom_site_fract_y
_atom_site_fract_z
Si Si1 0.260264 0.067883 0.265001
Si Si2 0.963757 0.174012 0.606087
Si Si3 0.809150 0.522135 0.657867
Si Si4 0.514998 0.880401 0.367569
Si Si5 0.659469 0.571957 0.797605
O O1 0.287325 0.927461 0.224620
O O2 0.280509 0.529315 0.039687
O O3 0.218010 0.995692 0.295771
O O4 0.157755 0.153298 0.078114
O O5 0.980890 0.394539 0.628917
O O6 0.000000 0.110829 0.750000
O O7 0.035346 0.062166 0.640428
O O8 0.827486 0.297469 0.682571
O O9 0.910722 0.641471 0.775422
O O10 0.871595 0.328164 0.936542
O O11 0.500000 0.814585 0.250000
#
# Coordination Sequence:
#
# PCOD9271252 Si02
#       5
#     8   8   8   8   8
#     4  12  20  32  60  90 112 146 192 238 276 330
#     4  10  20  36  58  85 115 148 188 234 281 334
#     4  10  20  36  58  85 115 148 188 234 281 334
#     4  10  20  36  58  85 115 148 188 234 281 334
#     4  10  20  36  58  85 115 148 188 234 281 334
#
# _framework density 27.609966
#
# number of rings (size 3 to 8) (size 9 to 14) (size 15 to 20)
#    0.000    1.600    4.000    2.400    0.000    0.000 
#    0.000    0.000    0.000    9.600    0.000    0.000 
#    0.000    0.000    0.000    0.000    0.000    0.000 
#
# Total GULP energy -111972.555751 kJ/mol
# GULP energy per Si atom -5598.627788 kJ/mol
# Density = 2.754712 g / cm^3
# Si number density = 27.609966 Si / 1000 Ang^3
#
#
#
# Elastic Constant Matrix: (Units=GPa)
#
#
# Indices 1 2 3 4 5 6 
#
# 1 173.9672 -18.8006 101.6771 0.0000 6.6844 0.0000
# 2 -18.8006 77.1340 22.2120 0.0000 9.2372 0.0000
# 3 101.6771 22.2120 225.2731 0.0000 2.4370 0.0000
# 4 0.0000 0.0000 0.0000 40.9866 0.0000 5.0227
# 5 6.6844 9.2372 2.4370 0.0000 60.7470 0.0000
# 6 0.0000 0.0000 0.0000 5.0227 0.0000 26.3433
#
#
#
# Elastic Compliance Matrix: (Units=1/GPa)
#
#
# Indices 1 2 3 4 5 6 
#
# 1 0.008649 0.003484 -0.004233 0.000000 -0.001312 0.000000
# 2 0.003484 0.014989 -0.003023 0.000000 -0.002541 0.000000
# 3 -0.004233 -0.003023 0.006641 0.000000 0.000659 0.000000
# 4 0.000000 0.000000 0.000000 0.024982 0.000000 -0.004763
# 5 -0.001312 -0.002541 0.000659 0.000000 0.016966 0.000000
# 6 0.000000 0.000000 0.000000 -0.004763 0.000000 0.038868
#
#
# Mechanical properties :
#
#
# Convention : Reuss Voigt Hill
#
# Bulk Modulus (GPa) = 43.98574 76.28349 60.13462
# Shear Modulus (GPa) = 39.61427 50.36777 44.99102
#
# Velocity S-wave (km/s) = 3.79196 4.27577 4.04111
# Velocity P-wave (km/s) = 5.92770 7.21562 6.60314
#
# Compressibility (1/GPa) = 0.02273464
#
# Stress axis : x y z
#
# Youngs Moduli (GPa) = 115.61595 66.71746 150.58708
#
# Poissons Ratio (x) = -0.23246 0.63747
# Poissons Ratio (y) = -0.40284 0.45523
# Poissons Ratio (z) = 0.48943 0.20169
#
# Static dielectric constant tensor:
#      x y z
#    x 2.133750 0.000000 -0.001560 
#    y 0.000000 2.287130 0.000000 
#    z -0.001560 0.000000 2.049760 
# 
# From -- ./inp_files/172809.got.cif
#   From: 2010.05.17/outbox.cif.g08.bks.cpg/sg15_87_cif.got.tgz:172809.got - 2010.06.03 18:47:42.
