data_PCOD9271646
_publ_section_title
;
Structure prediction by ZEFSAII (Michael W. Deem and Ramdas Pophale) SiO2 
 PCOD9271646
Probable space group: C 2/C
;
_chemical_formula_sum "Si O2"
_cell_formula_units_Z 40
_cell_length_a 13.985100
_cell_length_b 20.640983
_cell_length_c 8.065500
_cell_angle_alpha 90.000000
_cell_angle_beta 48.110651
_cell_angle_gamma 90.000000
_cell_volume 1733.222938
_symmetry_space_group_name_H-M "C 2/C"
_symmetry_group_IT_number 15
_symmetry_cell_setting 'monoclinic'
loop_
_space_group_symop_operation_xyz
x,y,z
-x,y,1/2-z
-x,-y,-z
x,-y,1/2+z
1/2+x,1/2+y,z
1/2-x,1/2+y,1/2-z
1/2-x,1/2-y,-z
1/2+x,1/2-y,1/2+z
loop_
_atom_site_type_symbol
_atom_site_label
_atom_site_fract_x
_atom_site_fract_y
_atom_site_fract_z
Si Si1 0.578314 0.277352 0.813712
Si Si2 0.000000 0.511355 0.750000
Si Si3 0.875841 0.077160 0.216977
Si Si4 0.884901 0.414857 0.668365
Si Si5 0.500000 0.469699 0.250000
Si Si6 0.173012 0.736310 0.254954
O O1 0.500000 0.244272 0.750000
O O2 0.611322 0.350996 0.727425
O O3 0.714685 0.253050 0.732939
O O4 0.541694 0.277150 0.420013
O O5 0.892371 0.457738 0.825270
O O6 0.007274 0.558532 0.582861
O O7 0.741551 0.069112 0.285528
O O8 0.889972 0.021813 0.336102
O O9 0.974532 0.068467 0.948288
O O10 0.877886 0.337900 0.695857
O O11 0.250000 0.750000 0.000000
#
# Coordination Sequence:
#
# PCOD9271646 Si02
#       6
#     8   4   8   8   4   8
#     4  11  24  45  65  99 128 176 221 281 332 402
#     4  10  22  44  64  96 132 168 224 270 336 394
#     4  10  21  38  62  91 130 159 222 255 344 380
#     4  10  23  41  66  94 128 171 216 275 330 395
#     4  10  20  36  60  90 122 168 196 270 316 412
#     4  11  26  44  71  96 135 175 231 274 338 398
#
# _framework density 23.078393999999999
#
# number of rings (size 3 to 8) (size 9 to 14) (size 15 to 20)
#    0.000    1.600    1.000    2.400    9.800    0.000 
#    0.000    0.000    0.000    0.000    0.000    0.000 
#    0.000    0.000    0.000    0.000    0.000    0.000 
#
# Total GULP energy -111356.186777 kJ/mol
# GULP energy per Si atom -5567.809339 kJ/mol
# Density = 2.302587 g / cm^3
# Si number density = 23.078394 Si / 1000 Ang^3
#
#
#
# Elastic Constant Matrix: (Units=GPa)
#
#
# Indices 1 2 3 4 5 6 
#
# 1 110.4715 27.3271 -18.9419 0.0000 -11.4920 0.0000
# 2 27.3271 89.4723 12.3911 0.0000 2.5439 0.0000
# 3 -18.9419 12.3911 38.7838 0.0000 6.1615 0.0000
# 4 0.0000 0.0000 0.0000 19.1958 0.0000 -5.2812
# 5 -11.4920 2.5439 6.1615 0.0000 42.0582 0.0000
# 6 0.0000 0.0000 0.0000 -5.2812 0.0000 39.6836
#
#
#
# Elastic Compliance Matrix: (Units=1/GPa)
#
#
# Indices 1 2 3 4 5 6 
#
# 1 0.011581 -0.004537 0.006716 0.000000 0.002455 0.000000
# 2 -0.004537 0.013473 -0.006342 0.000000 -0.001126 0.000000
# 3 0.006716 -0.006342 0.031470 0.000000 -0.002392 0.000000
# 4 0.000000 0.000000 0.000000 0.054074 0.000000 0.007196
# 5 0.002455 -0.001126 -0.002392 0.000000 0.024866 0.000000
# 6 0.000000 0.000000 0.000000 0.007196 0.000000 0.026157
#
#
# Mechanical properties :
#
#
# Convention : Reuss Voigt Hill
#
# Bulk Modulus (GPa) = 20.74756 31.14225 25.94491
# Shear Modulus (GPa) = 26.87983 34.71761 30.79872
#
# Velocity S-wave (km/s) = 3.41650 3.88278 3.65708
# Velocity P-wave (km/s) = 4.95710 5.79868 5.39433
#
# Compressibility (1/GPa) = 0.04819844
#
# Stress axis : x y z
#
# Youngs Moduli (GPa) = 86.34559 74.22454 31.77631
#
# Poissons Ratio (x) = 0.33677 -0.21340
# Poissons Ratio (y) = 0.39176 0.20151
# Poissons Ratio (z) = -0.57988 0.47070
#
# Static dielectric constant tensor:
#      x y z
#    x 2.104750 0.000000 0.136710 
#    y 0.000000 1.854220 0.000000 
#    z 0.136710 0.000000 2.122880 
# 
# From -- ./inp_files/51112.got.cif
#   From: 2010.05.17/outbox.cif.g08.bks.cpg/sg15_26_cif.got.tgz:51112.got - 2010.06.03 18:47:42.
