data_PCOD9271538
_publ_section_title
;
Structure prediction by ZEFSAII (Michael W. Deem and Ramdas Pophale) SiO2 
 PCOD9271538
Probable space group: C 2/C
;
_chemical_formula_sum "Si O2"
_cell_formula_units_Z 52
_cell_length_a 10.477267
_cell_length_b 26.584931
_cell_length_c 11.426344
_cell_angle_alpha 90.000000
_cell_angle_beta 54.610054
_cell_angle_gamma 90.000000
_cell_volume 2594.601678
_symmetry_space_group_name_H-M "C 2/C"
_symmetry_group_IT_number 15
_symmetry_cell_setting 'monoclinic'
loop_
_space_group_symop_operation_xyz
x,y,z
-x,y,1/2-z
-x,-y,-z
x,-y,1/2+z
1/2+x,1/2+y,z
1/2-x,1/2+y,1/2-z
1/2-x,1/2-y,-z
1/2+x,1/2-y,1/2+z
loop_
_atom_site_type_symbol
_atom_site_label
_atom_site_fract_x
_atom_site_fract_y
_atom_site_fract_z
Si Si1 0.422211 0.275320 0.669837
Si Si2 0.615529 0.609034 0.340544
Si Si3 0.293385 0.961350 0.166518
Si Si4 0.560054 0.382424 0.347029
Si Si5 0.000000 0.023546 0.250000
Si Si6 0.422731 0.735400 0.661191
Si Si7 0.442062 0.935821 0.653017
O O1 0.500000 0.255465 0.750000
O O2 0.443830 0.335770 0.660488
O O3 0.482973 0.255127 0.510794
O O4 0.238209 0.264876 0.765198
O O5 0.589737 0.608026 0.492385
O O6 0.512164 0.562644 0.349914
O O7 0.790925 0.598191 0.205093
O O8 0.202450 0.920622 0.292852
O O9 0.380124 0.006391 0.188367
O O10 0.419503 0.935210 0.015045
O O11 0.156162 0.990346 0.167754
O O12 0.500000 0.390974 0.250000
O O13 0.610377 0.324482 0.326755
O O14 0.500000 0.745193 0.750000
O O15 0.500000 0.921083 0.750000
#
# Coordination Sequence:
#
# PCOD9271538 Si02
#       7
#     8   8   8   8   4   8   8
#     4  11  22  42  65  95 125 166 206 265 309 378
#     4  10  22  37  61  83 117 155 203 240 300 359
#     4  10  21  35  55  81 114 152 197 241 299 340
#     4  10  20  37  58  86 112 156 203 245 290 367
#     4  10  20  36  60  84 108 160 202 238 290 358
#     4  10  23  40  64  94 127 162 211 254 319 372
#     4  10  22  35  50  83 117 149 193 247 294 354
#
# _framework density 20.041611
#
# number of rings (size 3 to 8) (size 9 to 14) (size 15 to 20)
#    0.000    1.846    1.538    1.846    2.154    3.077 
#    0.000    0.769    0.000    0.000    0.000    0.000 
#    0.000    0.000    0.000    0.000    0.000    0.000 
#
# Total GULP energy -144860.274671 kJ/mol
# GULP energy per Si atom -5571.549026 kJ/mol
# Density = 1.999600 g / cm^3
# Si number density = 20.041611 Si / 1000 Ang^3
#
#
#
# Elastic Constant Matrix: (Units=GPa)
#
#
# Indices 1 2 3 4 5 6 
#
# 1 77.1050 -3.5329 33.3653 0.0000 12.8683 0.0000
# 2 -3.5329 12.3235 5.2838 0.0000 7.6195 0.0000
# 3 33.3653 5.2838 123.5549 0.0000 2.6079 0.0000
# 4 0.0000 0.0000 0.0000 12.8590 0.0000 -0.1329
# 5 12.8683 7.6195 2.6079 0.0000 29.2779 0.0000
# 6 0.0000 0.0000 0.0000 -0.1329 0.0000 9.2535
#
#
#
# Elastic Compliance Matrix: (Units=1/GPa)
#
#
# Indices 1 2 3 4 5 6 
#
# 1 0.017667 0.014047 -0.005140 0.000000 -0.010963 0.000000
# 2 0.014047 0.109511 -0.007759 0.000000 -0.033983 0.000000
# 3 -0.005140 -0.007759 0.009741 0.000000 0.003411 0.000000
# 4 0.000000 0.000000 0.000000 0.077778 0.000000 0.001117
# 5 -0.010963 -0.033983 0.003411 0.000000 0.047514 0.000000
# 6 0.000000 0.000000 0.000000 0.001117 0.000000 0.108083
#
#
# Mechanical properties :
#
#
# Convention : Reuss Voigt Hill
#
# Bulk Modulus (GPa) = 7.18319 31.46842 19.32580
# Shear Modulus (GPa) = 12.06552 22.13589 17.10070
#
# Velocity S-wave (km/s) = 2.45628 3.32700 2.92423
# Velocity P-wave (km/s) = 3.41121 5.52216 4.58969
#
# Compressibility (1/GPa) = 0.13921396
#
# Stress axis : x y z
#
# Youngs Moduli (GPa) = 56.60325 9.13153 102.65406
#
# Poissons Ratio (x) = -0.12827 0.52766
# Poissons Ratio (y) = -0.79509 0.79651
# Poissons Ratio (z) = 0.29095 0.07085
#
# Static dielectric constant tensor:
#      x y z
#    x 1.755700 0.000000 0.000860 
#    y 0.000000 1.737370 0.000000 
#    z 0.000860 0.000000 1.768510 
# 
# From -- ./inp_files/92556.got.cif
#   From: 2010.05.17/outbox.cif.g08.bks.cpg/sg15_47_cif.got.tgz:92556.got - 2010.06.03 18:47:42.
