data_PCOD9271673
_publ_section_title
;
Structure prediction by ZEFSAII (Michael W. Deem and Ramdas Pophale) SiO2 
 PCOD9271673
Probable space group: C 2/C
;
_chemical_formula_sum "Si O2"
_cell_formula_units_Z 48
_cell_length_a 15.046687
_cell_length_b 18.277466
_cell_length_c 17.626563
_cell_angle_alpha 90.000000
_cell_angle_beta 148.373368
_cell_angle_gamma 90.000000
_cell_volume 2541.979678
_symmetry_space_group_name_H-M "C 2/C"
_symmetry_group_IT_number 15
_symmetry_cell_setting 'monoclinic'
loop_
_space_group_symop_operation_xyz
x,y,z
-x,y,1/2-z
-x,-y,-z
x,-y,1/2+z
1/2+x,1/2+y,z
1/2-x,1/2+y,1/2-z
1/2-x,1/2-y,-z
1/2+x,1/2-y,1/2+z
loop_
_atom_site_type_symbol
_atom_site_label
_atom_site_fract_x
_atom_site_fract_y
_atom_site_fract_z
Si Si1 0.661889 0.325065 0.416708
Si Si2 0.550999 0.575802 0.626070
Si Si3 0.300139 0.193056 0.603172
Si Si4 0.276934 0.786470 0.803643
Si Si5 0.003468 0.089345 0.411798
Si Si6 0.164206 0.667073 0.604570
O O1 0.500000 0.304611 0.250000
O O2 0.750000 0.250000 0.500000
O O3 0.586147 0.374298 0.428511
O O4 0.784880 0.358849 0.443181
O O5 0.514130 0.582985 0.510622
O O6 0.533377 0.492798 0.641748
O O7 0.741713 0.605464 0.777505
O O8 0.500000 0.176867 0.750000
O O9 0.250000 0.250000 0.500000
O O10 0.258456 0.230792 0.653346
O O11 0.178743 0.122842 0.508189
O O12 0.246691 0.741287 0.702803
O O13 0.143089 0.852214 0.711968
O O14 0.465630 0.816636 0.955098
#
# Coordination Sequence:
#
# PCOD9271673 Si02
#       6
#     8   8   8   8   8   8
#     4  10  20  36  60  92 122 158 210 247 300 370
#     4  10  23  42  61  91 134 171 200 262 319 383
#     4  12  23  41  64  95 116 161 218 270 315 374
#     4  12  21  39  68  93 123 163 216 265 316 384
#     4  11  23  43  65  89 132 168 207 263 333 368
#     4  11  20  37  64  94 126 162 210 257 311 378
#
# _framework density 18.882919999999999
#
# number of rings (size 3 to 8) (size 9 to 14) (size 15 to 20)
#    0.000    1.000    5.000    3.000    0.000    0.667 
#    9.000    4.167    0.000    0.000    0.000    0.000 
#    0.000    0.000    0.000    0.000    0.000    0.000 
#
# Total GULP energy -133762.472868 kJ/mol
# GULP energy per Si atom -5573.436370 kJ/mol
# Density = 1.883994 g / cm^3
# Si number density = 18.882920 Si / 1000 Ang^3
#
#
#
# Elastic Constant Matrix: (Units=GPa)
#
#
# Indices 1 2 3 4 5 6 
#
# 1 64.9025 7.6597 27.0922 -0.0005 16.2487 -0.0011
# 2 7.6597 114.1333 50.4409 -0.0102 20.8636 -0.0019
# 3 27.0922 50.4409 106.4807 -0.0245 43.6041 -0.0042
# 4 -0.0005 -0.0102 -0.0245 12.6003 -0.0049 8.4792
# 5 16.2487 20.8636 43.6041 -0.0049 38.8647 0.0014
# 6 -0.0011 -0.0019 -0.0042 8.4792 0.0014 25.3302
#
#
#
# Elastic Compliance Matrix: (Units=1/GPa)
#
#
# Indices 1 2 3 4 5 6 
#
# 1 0.017717 0.001026 -0.003210 -0.000009 -0.004357 0.000003
# 2 0.001026 0.011141 -0.005391 -0.000002 -0.000362 0.000001
# 3 -0.003210 -0.005391 0.020399 0.000033 -0.018651 -0.000007
# 4 -0.000009 -0.000002 0.000033 0.102439 -0.000018 -0.034291
# 5 -0.004357 -0.000362 -0.018651 -0.000018 0.048672 0.000000
# 6 0.000003 0.000001 -0.000007 -0.034291 0.000000 0.050957
#
#
# Mechanical properties :
#
#
# Convention : Reuss Voigt Hill
#
# Bulk Modulus (GPa) = 29.31750 50.65580 39.98665
# Shear Modulus (GPa) = 17.99568 28.71396 23.35482
#
# Velocity S-wave (km/s) = 3.09044 3.90376 3.52066
# Velocity P-wave (km/s) = 5.31922 6.87049 6.14401
#
# Compressibility (1/GPa) = 0.03410933
#
# Stress axis : x y z
#
# Youngs Moduli (GPa) = 56.44221 89.75582 49.02137
#
# Poissons Ratio (x) = -0.09208 0.15734
# Poissons Ratio (y) = -0.05790 0.26425
# Poissons Ratio (z) = 0.18116 0.48383
#
# Static dielectric constant tensor:
#      x y z
#    x 1.749590 0.000000 0.013370 
#    y 0.000000 1.671550 0.000010 
#    z 0.013370 0.000010 1.650010 
# 
# From -- ./inp_files/206508.got.cif
#   From: 2010.05.17/outbox.cif.g08.bks.cpg/sg15_104_cif.got.tgz:206508.got - 2010.06.03 18:47:42.
