data_PCOD9271233
_publ_section_title
;
Structure prediction by ZEFSAII (Michael W. Deem and Ramdas Pophale) SiO2 
 PCOD9271233
Probable space group: C 2/C
;
_chemical_formula_sum "Si O2"
_cell_formula_units_Z 48
_cell_length_a 7.913242
_cell_length_b 18.688253
_cell_length_c 14.293123
_cell_angle_alpha 90.000000
_cell_angle_beta 94.824544
_cell_angle_gamma 90.000000
_cell_volume 2106.244635
_symmetry_space_group_name_H-M "C 2/C"
_symmetry_group_IT_number 15
_symmetry_cell_setting 'monoclinic'
loop_
_space_group_symop_operation_xyz
x,y,z
-x,y,1/2-z
-x,-y,-z
x,-y,1/2+z
1/2+x,1/2+y,z
1/2-x,1/2+y,1/2-z
1/2-x,1/2-y,-z
1/2+x,1/2-y,1/2+z
loop_
_atom_site_type_symbol
_atom_site_label
_atom_site_fract_x
_atom_site_fract_y
_atom_site_fract_z
Si Si1 0.247979 0.210529 0.899997
Si Si2 0.340635 0.949399 0.371563
Si Si3 0.126352 0.220235 0.614304
Si Si4 0.057386 0.205234 0.393913
Si Si5 0.221195 0.437670 0.355118
Si Si6 0.523922 0.541185 0.363473
O O1 0.282667 0.126463 0.910866
O O2 0.403066 0.245983 0.851019
O O3 0.060316 0.220365 0.849831
O O4 0.250000 0.250000 0.000000
O O5 0.542196 0.956792 0.395013
O O6 0.310533 0.944632 0.257866
O O7 0.209668 0.010486 0.396495
O O8 0.087517 0.228683 0.502234
O O9 0.263145 0.280203 0.647550
O O10 0.218736 0.143760 0.628023
O O11 0.007724 0.122776 0.392822
O O12 0.374951 0.489295 0.391868
O O13 0.500000 0.540730 0.250000
#
# Coordination Sequence:
#
# PCOD9271233 Si02
#       6
#     8   8   8   8   8   8
#     4  10  20  36  58  84 116 150 190 236 279 343
#     4  10  20  37  59  83 112 150 197 234 284 344
#     4  10  20  37  59  82 115 152 190 230 288 342
#     4  10  22  37  56  85 120 146 187 242 284 337
#     4  10  20  36  60  82 110 153 194 235 282 348
#     4  10  22  39  57  84 117 149 188 240 289 337
#
# _framework density 22.789376000000001
#
# number of rings (size 3 to 8) (size 9 to 14) (size 15 to 20)
#    0.000    2.000    3.333    0.000    0.000    3.333 
#    0.000    0.833    0.000    0.000    0.000    0.000 
#    0.000    0.000    0.000    0.000    0.000    0.000 
#
# Total GULP energy -134105.482495 kJ/mol
# GULP energy per Si atom -5587.728437 kJ/mol
# Density = 2.273751 g / cm^3
# Si number density = 22.789376 Si / 1000 Ang^3
#
#
#
# Elastic Constant Matrix: (Units=GPa)
#
#
# Indices 1 2 3 4 5 6 
#
# 1 184.7602 30.1052 1.3327 0.0000 6.5081 0.0000
# 2 30.1052 75.5640 -27.4300 0.0000 2.0774 0.0000
# 3 1.3327 -27.4300 56.1566 0.0000 8.8620 0.0000
# 4 0.0000 0.0000 0.0000 27.5705 0.0000 0.1995
# 5 6.5081 2.0774 8.8620 0.0000 16.3164 0.0000
# 6 0.0000 0.0000 0.0000 0.1995 0.0000 37.7644
#
#
#
# Elastic Compliance Matrix: (Units=1/GPa)
#
#
# Indices 1 2 3 4 5 6 
#
# 1 0.005923 -0.002797 -0.001301 0.000000 -0.001300 0.000000
# 2 -0.002797 0.018151 0.009976 0.000000 -0.006614 0.000000
# 3 -0.001301 0.009976 0.024970 0.000000 -0.014313 0.000000
# 4 0.000000 0.000000 0.000000 0.036272 0.000000 -0.000192
# 5 -0.001300 -0.006614 -0.014313 0.000000 0.070423 0.000000
# 6 0.000000 0.000000 0.000000 -0.000192 0.000000 0.026481
#
#
# Mechanical properties :
#
#
# Convention : Reuss Voigt Hill
#
# Bulk Modulus (GPa) = 16.44719 36.05516 26.25117
# Shear Modulus (GPa) = 26.21501 37.16180 31.68840
#
# Velocity S-wave (km/s) = 3.39531 4.04253 3.73297
# Velocity P-wave (km/s) = 4.75432 6.13553 5.48855
#
# Compressibility (1/GPa) = 0.06080066
#
# Stress axis : x y z
#
# Youngs Moduli (GPa) = 168.82571 55.09270 40.04823
#
# Poissons Ratio (x) = 0.15407 0.05212
# Poissons Ratio (y) = 0.47213 -0.39953
# Poissons Ratio (z) = 0.21972 -0.54962
#
# Static dielectric constant tensor:
#      x y z
#    x 1.834620 0.000000 0.037630 
#    y 0.000000 1.758880 0.000000 
#    z 0.037630 0.000000 1.833390 
# 
# From -- ./inp_files/189201.got.cif
#   From: 2010.05.17/outbox.cif.g08.bks.cpg/sg15_95_cif.got.tgz:189201.got - 2010.06.03 18:47:42.
