data_PCOD9271147
_publ_section_title
;
Structure prediction by ZEFSAII (Michael W. Deem and Ramdas Pophale) SiO2 
 PCOD9271147
Probable space group: C 2/C
;
_chemical_formula_sum "Si O2"
_cell_formula_units_Z 40
_cell_length_a 22.904878
_cell_length_b 9.424560
_cell_length_c 28.357194
_cell_angle_alpha 90.000000
_cell_angle_beta 19.479208
_cell_angle_gamma 90.000000
_cell_volume 2041.278542
_symmetry_space_group_name_H-M "C 2/C"
_symmetry_group_IT_number 15
_symmetry_cell_setting 'monoclinic'
loop_
_space_group_symop_operation_xyz
x,y,z
-x,y,1/2-z
-x,-y,-z
x,-y,1/2+z
1/2+x,1/2+y,z
1/2-x,1/2+y,1/2-z
1/2-x,1/2-y,-z
1/2+x,1/2-y,1/2+z
loop_
_atom_site_type_symbol
_atom_site_label
_atom_site_fract_x
_atom_site_fract_y
_atom_site_fract_z
Si Si1 0.036517 0.048442 0.025786
Si Si2 0.418763 0.710186 0.942708
Si Si3 0.862126 0.590200 0.163679
Si Si4 0.112352 0.921674 0.207424
Si Si5 0.111418 0.358926 0.961780
O O1 0.840624 0.080771 0.191766
O O2 0.112803 0.924068 0.999348
O O3 0.139654 0.195458 0.951975
O O4 0.000000 0.000000 0.000000
O O5 0.583205 0.797878 0.838768
O O6 0.482168 0.656310 0.843436
O O7 0.252165 0.812671 0.077223
O O8 0.940513 0.639661 0.053996
O O9 0.946020 0.437658 0.112128
O O10 0.000000 0.983999 0.250000
O O11 0.226670 0.039654 0.148014
#
# Coordination Sequence:
#
# PCOD9271147 Si02
#       5
#     8   8   8   8   8
#     4  12  21  33  59  95 125 152 191 254 321 375
#     4  11  22  39  65  92 119 161 211 254 308 368
#     4  10  20  36  57  87 126 150 193 249 315 367
#     4  11  24  45  63  86 124 171 214 253 295 366
#     4  10  22  36  58  88 120 164 194 248 315 364
#
# _framework density 19.595562000000001
#
# number of rings (size 3 to 8) (size 9 to 14) (size 15 to 20)
#    0.000    1.200    4.000    3.000    2.800    0.000 
#    0.000    2.000    0.000    0.000    0.000    0.000 
#    0.000    0.000    0.000    0.000    0.000    0.000 
#
# Total GULP energy -111582.125959 kJ/mol
# GULP energy per Si atom -5579.106298 kJ/mol
# Density = 1.955096 g / cm^3
# Si number density = 19.595562 Si / 1000 Ang^3
#
#
#
# Elastic Constant Matrix: (Units=GPa)
#
#
# Indices 1 2 3 4 5 6 
#
# 1 93.8772 24.0716 13.6816 -0.0028 1.5314 -0.0004
# 2 24.0716 106.3122 19.1141 -0.0288 -2.7976 0.0080
# 3 13.6816 19.1141 44.3791 -0.0390 10.2982 0.0197
# 4 -0.0028 -0.0288 -0.0390 7.1305 0.0114 3.7632
# 5 1.5314 -2.7976 10.2982 0.0114 19.4472 -0.0053
# 6 -0.0004 0.0080 0.0197 3.7632 -0.0053 19.8127
#
#
#
# Elastic Compliance Matrix: (Units=1/GPa)
#
#
# Indices 1 2 3 4 5 6 
#
# 1 0.011590 -0.002132 -0.002704 -0.000024 0.000212 0.000008
# 2 -0.002132 0.010917 -0.005071 0.000008 0.004424 0.000000
# 3 -0.002704 -0.005071 0.029267 0.000201 -0.016015 -0.000070
# 4 -0.000024 0.000008 0.000201 0.155869 -0.000202 -0.029606
# 5 0.000212 0.004424 -0.016015 -0.000202 0.060522 0.000069
# 6 0.000008 0.000000 -0.000070 -0.029606 0.000069 0.056096
#
#
# Mechanical properties :
#
#
# Convention : Reuss Voigt Hill
#
# Bulk Modulus (GPa) = 31.28978 39.81144 35.55061
# Shear Modulus (GPa) = 14.09524 21.79149 17.94336
#
# Velocity S-wave (km/s) = 2.68490 3.33838 3.02931
# Velocity P-wave (km/s) = 5.06103 5.93467 5.51518
#
# Compressibility (1/GPa) = 0.03195932
#
# Stress axis : x y z
#
# Youngs Moduli (GPa) = 86.28437 91.59790 34.16769
#
# Poissons Ratio (x) = 0.19533 0.09238
# Poissons Ratio (y) = 0.18400 0.17327
# Poissons Ratio (z) = 0.23330 0.46451
#
# Static dielectric constant tensor:
#      x y z
#    x 1.730790 0.000000 0.108960 
#    y 0.000000 1.744680 0.000000 
#    z 0.108960 0.000000 1.823520 
# 
# From -- ./inp_files/109564.got.cif
#   From: 2010.05.17/outbox.cif.g08.bks.cpg/sg15_55_cif.got.tgz:109564.got - 2010.06.03 18:47:42.
