data_PCOD9271550
_publ_section_title
;
Structure prediction by ZEFSAII (Michael W. Deem and Ramdas Pophale) SiO2 
 PCOD9271550
Probable space group: C 2/C
;
_chemical_formula_sum "Si O2"
_cell_formula_units_Z 56
_cell_length_a 19.110008
_cell_length_b 8.211332
_cell_length_c 18.955913
_cell_angle_alpha 90.000000
_cell_angle_beta 55.844496
_cell_angle_gamma 90.000000
_cell_volume 2461.478393
_symmetry_space_group_name_H-M "C 2/C"
_symmetry_group_IT_number 15
_symmetry_cell_setting 'monoclinic'
loop_
_space_group_symop_operation_xyz
x,y,z
-x,y,1/2-z
-x,-y,-z
x,-y,1/2+z
1/2+x,1/2+y,z
1/2-x,1/2+y,1/2-z
1/2-x,1/2-y,-z
1/2+x,1/2-y,1/2+z
loop_
_atom_site_type_symbol
_atom_site_label
_atom_site_fract_x
_atom_site_fract_y
_atom_site_fract_z
Si Si1 0.909072 0.060129 0.968010
Si Si2 0.673177 0.783919 0.990027
Si Si3 0.337553 0.710264 0.869072
Si Si4 0.434795 0.298473 0.183318
Si Si5 0.053792 0.503362 0.654560
Si Si6 0.809254 0.822158 0.640402
Si Si7 0.232023 0.198843 0.813579
O O1 0.848804 0.130944 0.939026
O O2 0.003806 0.075908 0.888748
O O3 0.878588 0.879324 0.996511
O O4 0.894930 0.157632 0.048296
O O5 0.602854 0.897403 0.066593
O O6 0.750000 0.750000 0.000000
O O7 0.721173 0.811731 0.888451
O O8 0.404735 0.636330 0.776144
O O9 0.248921 0.715555 0.879677
O O10 0.369804 0.896085 0.856433
O O11 0.351160 0.268243 0.186297
O O12 0.489730 0.133788 0.160569
O O13 0.000000 0.583390 0.750000
O O14 0.808657 0.746295 0.718353
O O15 0.769951 0.005265 0.669505
#
# Coordination Sequence:
#
# PCOD9271550 Si02
#       7
#     8   8   8   8   8   8   8
#     4  10  20  36  60  85 111 149 191 230 278 338
#     4  11  24  38  55  85 119 145 184 240 286 334
#     4   9  18  37  59  83 113 148 191 229 271 340
#     4   9  20  38  59  82 112 150 190 230 276 339
#     4   9  18  35  58  83 113 147 186 232 282 333
#     4  10  21  36  57  82 114 152 191 234 279 334
#     4  10  23  41  56  82 117 149 191 237 283 338
#
# _framework density 22.750557000000001
#
# number of rings (size 3 to 8) (size 9 to 14) (size 15 to 20)
#    0.000    2.286    0.000    3.429    0.000    9.714 
#    0.000    8.571    0.000    0.000    0.000    0.000 
#    0.000    0.000    0.000    0.000    0.000    0.000 
#
# Total GULP energy -156217.863202 kJ/mol
# GULP energy per Si atom -5579.209400 kJ/mol
# Density = 2.269878 g / cm^3
# Si number density = 22.750557 Si / 1000 Ang^3
#
#
#
# Elastic Constant Matrix: (Units=GPa)
#
#
# Indices 1 2 3 4 5 6 
#
# 1 39.6139 -8.5750 -1.9078 0.0001 14.6933 0.0002
# 2 -8.5750 24.7753 6.0791 0.0001 -6.0420 0.0005
# 3 -1.9078 6.0791 127.3587 0.0000 8.3645 0.0000
# 4 0.0001 0.0001 0.0000 24.6555 0.0000 7.1950
# 5 14.6933 -6.0420 8.3645 0.0000 30.6196 0.0000
# 6 0.0002 0.0005 0.0000 7.1950 0.0000 9.0314
#
#
#
# Elastic Compliance Matrix: (Units=1/GPa)
#
#
# Indices 1 2 3 4 5 6 
#
# 1 0.032193 0.007398 0.001067 0.000000 -0.014280 -0.000001
# 2 0.007398 0.044980 -0.002430 0.000001 0.005989 -0.000003
# 3 0.001067 -0.002430 0.008196 0.000000 -0.003230 0.000000
# 4 0.000000 0.000001 0.000000 0.052844 0.000000 -0.042099
# 5 -0.014280 0.005989 -0.003230 0.000000 0.041576 0.000000
# 6 -0.000001 -0.000003 0.000000 -0.042099 0.000000 0.144263
#
#
# Mechanical properties :
#
#
# Convention : Reuss Voigt Hill
#
# Bulk Modulus (GPa) = 10.26273 20.32675 15.29474
# Shear Modulus (GPa) = 14.51541 25.93805 20.22673
#
# Velocity S-wave (km/s) = 2.52865 3.38021 2.98495
# Velocity P-wave (km/s) = 3.61196 4.91817 4.31478
#
# Compressibility (1/GPa) = 0.09743997
#
# Stress axis : x y z
#
# Youngs Moduli (GPa) = 31.06256 22.23208 122.01148
#
# Poissons Ratio (x) = -0.16447 -0.13018
# Poissons Ratio (y) = -0.22980 0.29643
# Poissons Ratio (z) = -0.03314 0.05401
#
# Static dielectric constant tensor:
#      x y z
#    x 1.867260 0.000000 0.000850 
#    y 0.000000 1.858020 0.000000 
#    z 0.000850 0.000000 1.947290 
# 
# From -- ./inp_files/213812.got.cif
#   From: 2010.05.17/outbox.cif.g08.bks.cpg/sg15_107_cif.got.tgz:213812.got - 2010.06.03 18:47:42.
