data_PCOD9271987
_publ_section_title
;
Structure prediction by ZEFSAII (Michael W. Deem and Ramdas Pophale) SiO2 
 PCOD9271987
Probable space group: C 2/C
;
_chemical_formula_sum "Si O2"
_cell_formula_units_Z 56
_cell_length_a 17.925013
_cell_length_b 8.728135
_cell_length_c 16.826357
_cell_angle_alpha 90.000000
_cell_angle_beta 116.305091
_cell_angle_gamma 90.000000
_cell_volume 2359.911298
_symmetry_space_group_name_H-M "C 2/C"
_symmetry_group_IT_number 15
_symmetry_cell_setting 'monoclinic'
loop_
_space_group_symop_operation_xyz
x,y,z
-x,y,1/2-z
-x,-y,-z
x,-y,1/2+z
1/2+x,1/2+y,z
1/2-x,1/2+y,1/2-z
1/2-x,1/2-y,-z
1/2+x,1/2-y,1/2+z
loop_
_atom_site_type_symbol
_atom_site_label
_atom_site_fract_x
_atom_site_fract_y
_atom_site_fract_z
Si Si1 0.271090 0.190460 0.768728
Si Si2 0.500000 0.941861 0.250000
Si Si3 0.411797 0.324785 0.521546
Si Si4 0.042381 0.665711 0.388225
Si Si5 0.380558 0.301048 0.693804
Si Si6 0.896142 0.840183 0.944310
Si Si7 0.858604 0.627107 0.353316
Si Si8 0.000000 0.070277 0.750000
O O1 0.294729 0.247462 0.690482
O O2 0.323360 0.303760 0.849394
O O3 0.174694 0.237581 0.721249
O O4 0.301704 0.021967 0.808531
O O5 0.559275 0.822198 0.234840
O O6 0.563387 0.046138 0.329484
O O7 0.388686 0.296331 0.602328
O O8 0.511582 0.329216 0.551105
O O9 0.384255 0.493062 0.477859
O O10 0.370547 0.193968 0.447499
O O11 0.954732 0.596806 0.376006
O O12 0.023511 0.824972 0.335324
O O13 0.102592 0.707240 0.487783
O O14 0.421602 0.463046 0.733733
#
# Coordination Sequence:
#
# PCOD9271987 Si02
#       8
#     8   4   8   8   8   8   8   4
#     4  12  26  43  65  90 134 173 218 258 325 381
#     4  10  20  36  62  98 132 156 210 276 320 374
#     4  10  22  40  67  96 129 161 219 264 322 373
#     4  10  21  39  66  98 128 161 214 267 322 371
#     4  11  22  38  65  96 128 172 207 266 322 383
#     4  10  21  39  66  99 126 165 212 266 312 388
#     4  11  26  43  64  91 129 178 215 264 314 390
#     4  10  20  36  66  98 128 166 202 268 324 378
#
# _framework density 23.729707000000001
#
# number of rings (size 3 to 8) (size 9 to 14) (size 15 to 20)
#    0.000    1.429    2.857    2.571    8.000    1.714 
#    0.000    0.000    0.000    5.143    0.000    0.000 
#    0.000    0.000    0.000    0.000    0.000    0.000 
#
# Total GULP energy -156330.103823 kJ/mol
# GULP energy per Si atom -5583.217994 kJ/mol
# Density = 2.367570 g / cm^3
# Si number density = 23.729707 Si / 1000 Ang^3
#
#
#
# Elastic Constant Matrix: (Units=GPa)
#
#
# Indices 1 2 3 4 5 6 
#
# 1 19.6024 11.1418 17.4790 0.0000 -1.9251 0.0000
# 2 11.1418 128.7986 37.3613 0.0000 -18.3236 0.0000
# 3 17.4790 37.3613 121.8859 0.0000 -18.2378 0.0000
# 4 0.0000 0.0000 0.0000 34.7584 0.0000 2.0065
# 5 -1.9251 -18.3236 -18.2378 0.0000 26.3922 0.0000
# 6 0.0000 0.0000 0.0000 2.0065 0.0000 25.5843
#
#
#
# Elastic Compliance Matrix: (Units=1/GPa)
#
#
# Indices 1 2 3 4 5 6 
#
# 1 0.059763 -0.003329 -0.008079 0.000000 -0.003535 0.000000
# 2 -0.003329 0.009236 -0.001595 0.000000 0.005067 0.000000
# 3 -0.008079 -0.001595 0.010705 0.000000 0.005701 0.000000
# 4 0.000000 0.000000 0.000000 0.028901 0.000000 -0.002267
# 5 -0.003535 0.005067 0.005701 0.000000 0.045089 0.000000
# 6 0.000000 0.000000 0.000000 -0.002267 0.000000 0.039264
#
#
# Mechanical properties :
#
#
# Convention : Reuss Voigt Hill
#
# Bulk Modulus (GPa) = 18.62314 44.69459 31.65886
# Shear Modulus (GPa) = 21.10921 30.96729 26.03825
#
# Velocity S-wave (km/s) = 2.98580 3.61640 3.31612
# Velocity P-wave (km/s) = 4.44429 6.02607 5.29459
#
# Compressibility (1/GPa) = 0.05369664
#
# Stress axis : x y z
#
# Youngs Moduli (GPa) = 16.73281 108.27563 93.41508
#
# Poissons Ratio (x) = 0.36048 0.75467
# Poissons Ratio (y) = 0.05571 0.14903
# Poissons Ratio (z) = 0.13518 0.17274
#
# Static dielectric constant tensor:
#      x y z
#    x 2.148140 0.000000 -0.006740 
#    y 0.000000 1.915380 0.000000 
#    z -0.006740 0.000000 1.973930 
# 
# From -- ./inp_files/214047.got.cif
#   From: 2010.05.17/outbox.cif.g08.bks.cpg/sg15_108_cif.got.tgz:214047.got - 2010.06.03 18:47:42.
