data_PCOD9271680
_publ_section_title
;
Structure prediction by ZEFSAII (Michael W. Deem and Ramdas Pophale) SiO2 
 PCOD9271680
Probable space group: C 2/C
;
_chemical_formula_sum "Si O2"
_cell_formula_units_Z 60
_cell_length_a 10.070924
_cell_length_b 27.070291
_cell_length_c 9.502510
_cell_angle_alpha 90.000000
_cell_angle_beta 100.054557
_cell_angle_gamma 90.000000
_cell_volume 2550.814734
_symmetry_space_group_name_H-M "C 2/C"
_symmetry_group_IT_number 15
_symmetry_cell_setting 'monoclinic'
loop_
_space_group_symop_operation_xyz
x,y,z
-x,y,1/2-z
-x,-y,-z
x,-y,1/2+z
1/2+x,1/2+y,z
1/2-x,1/2+y,1/2-z
1/2-x,1/2-y,-z
1/2+x,1/2-y,1/2+z
loop_
_atom_site_type_symbol
_atom_site_label
_atom_site_fract_x
_atom_site_fract_y
_atom_site_fract_z
Si Si1 0.880279 0.200189 0.122691
Si Si2 0.469091 0.546503 0.896654
Si Si3 0.813298 0.780514 0.308079
Si Si4 0.784653 0.385113 0.228646
Si Si5 0.500000 0.797945 0.750000
Si Si6 0.363319 0.970916 0.791790
Si Si7 0.615147 0.132349 0.049352
Si Si8 0.754075 0.555652 0.969890
O O1 0.819556 0.253186 0.158157
O O2 0.761818 0.158751 0.105876
O O3 0.000000 0.186915 0.250000
O O4 0.907960 0.208600 0.962164
O O5 0.500000 0.524978 0.750000
O O6 0.329795 0.576779 0.859609
O O7 0.603452 0.578943 0.943614
O O8 0.500000 0.500000 0.000000
O O9 0.782839 0.833602 0.242565
O O10 0.876125 0.739633 0.219963
O O11 0.837125 0.408178 0.383487
O O12 0.883419 0.373617 0.118088
O O13 0.484954 0.831634 0.885161
O O14 0.500000 0.994418 0.750000
O O15 0.396978 0.920933 0.880663
O O16 0.285933 0.955703 0.636125
O O17 0.282874 0.005223 0.886048
#
# Coordination Sequence:
#
# PCOD9271680 Si02
#       8
#     8   8   8   8   4   8   8   8
#     4   9  19  40  62  94 124 172 221 269 338 398
#     4  10  20  36  60  92 129 164 208 271 328 392
#     4   9  20  38  64  91 132 172 215 275 332 398
#     4  10  22  41  65  97 135 174 219 273 342 403
#     4  10  20  40  68  90 130 178 220 274 336 386
#     4  12  24  43  64  90 138 180 226 277 325 395
#     4  10  21  41  65  92 130 176 226 275 338 396
#     4  11  24  40  64  99 129 176 226 266 336 399
#
# _framework density 23.521896000000002
#
# number of rings (size 3 to 8) (size 9 to 14) (size 15 to 20)
#    0.000    1.867    0.667    4.400    2.800    2.133 
#    2.400    4.667    0.000    0.000    0.000    0.000 
#    0.000    0.000    0.000    0.000    0.000    0.000 
#
# Total GULP energy -167290.943481 kJ/mol
# GULP energy per Si atom -5576.364783 kJ/mol
# Density = 2.346836 g / cm^3
# Si number density = 23.521896 Si / 1000 Ang^3
#
#
#
# Elastic Constant Matrix: (Units=GPa)
#
#
# Indices 1 2 3 4 5 6 
#
# 1 57.5709 3.4615 14.7712 0.0000 -6.8511 0.0000
# 2 3.4615 128.4863 27.9690 0.0000 -22.3991 0.0000
# 3 14.7712 27.9690 122.3626 0.0000 -10.5510 0.0000
# 4 0.0000 0.0000 0.0000 14.5040 0.0000 -0.1053
# 5 -6.8511 -22.3991 -10.5510 0.0000 37.7784 0.0000
# 6 0.0000 0.0000 0.0000 -0.1053 0.0000 22.7194
#
#
#
# Elastic Compliance Matrix: (Units=1/GPa)
#
#
# Indices 1 2 3 4 5 6 
#
# 1 0.018226 0.000481 -0.002050 0.000000 0.003018 0.000000
# 2 0.000481 0.009001 -0.001688 0.000000 0.004952 0.000000
# 3 -0.002050 -0.001688 0.008902 0.000000 0.001113 0.000000
# 4 0.000000 0.000000 0.000000 0.068949 0.000000 0.000319
# 5 0.003018 0.004952 0.001113 0.000000 0.030265 0.000000
# 6 0.000000 0.000000 0.000000 0.000319 0.000000 0.044017
#
#
# Mechanical properties :
#
#
# Convention : Reuss Voigt Hill
#
# Bulk Modulus (GPa) = 33.76700 44.53591 39.15146
# Shear Modulus (GPa) = 25.54345 32.48157 29.01251
#
# Velocity S-wave (km/s) = 3.29894 3.72009 3.51583
# Velocity P-wave (km/s) = 5.37563 6.11776 5.75866
#
# Compressibility (1/GPa) = 0.02961471
#
# Stress axis : x y z
#
# Youngs Moduli (GPa) = 54.86638 111.10049 112.33647
#
# Poissons Ratio (x) = -0.05348 0.23029
# Poissons Ratio (y) = -0.02641 0.18967
# Poissons Ratio (z) = 0.11247 0.18759
#
# Static dielectric constant tensor:
#      x y z
#    x 2.063010 0.000000 0.008980 
#    y 0.000000 1.895000 0.000000 
#    z 0.008980 0.000000 1.919000 
# 
# From -- ./inp_files/35283.got.cif
#   From: 2010.05.17/outbox.cif.g08.bks.cpg/sg15_18_cif.got.tgz:35283.got - 2010.06.03 18:47:42.
