data_PCOD9271092
_publ_section_title
;
Structure prediction by ZEFSAII (Michael W. Deem and Ramdas Pophale) SiO2 
 PCOD9271092
Probable space group: C 2/C
;
_chemical_formula_sum "Si O2"
_cell_formula_units_Z 56
_cell_length_a 8.490392
_cell_length_b 32.758482
_cell_length_c 13.736541
_cell_angle_alpha 90.000000
_cell_angle_beta 50.081530
_cell_angle_gamma 90.000000
_cell_volume 2930.222965
_symmetry_space_group_name_H-M "C 2/C"
_symmetry_group_IT_number 15
_symmetry_cell_setting 'monoclinic'
loop_
_space_group_symop_operation_xyz
x,y,z
-x,y,1/2-z
-x,-y,-z
x,-y,1/2+z
1/2+x,1/2+y,z
1/2-x,1/2+y,1/2-z
1/2-x,1/2-y,-z
1/2+x,1/2-y,1/2+z
loop_
_atom_site_type_symbol
_atom_site_label
_atom_site_fract_x
_atom_site_fract_y
_atom_site_fract_z
Si Si1 0.931519 0.777735 0.619389
Si Si2 0.346641 0.961666 0.567605
Si Si3 0.161823 0.287641 0.909231
Si Si4 0.050031 0.623023 0.389757
Si Si5 0.229911 0.488925 0.694960
Si Si6 0.596818 0.441889 0.472181
Si Si7 0.660013 0.367010 0.908139
O O1 0.744102 0.772684 0.770539
O O2 0.888597 0.819320 0.578769
O O3 0.986873 0.740638 0.525995
O O4 0.137184 0.785114 0.601872
O O5 0.448300 0.917723 0.547409
O O6 0.228896 0.972553 0.713897
O O7 0.216590 0.955570 0.521840
O O8 0.500000 0.000000 0.500000
O O9 0.090862 0.334448 0.928250
O O10 0.235054 0.620541 0.236687
O O11 0.836673 0.625626 0.416914
O O12 0.376307 0.464031 0.564759
O O13 0.281204 0.536826 0.663780
O O14 0.000000 0.481426 0.750000
O O15 0.540204 0.394529 0.493747
#
# Coordination Sequence:
#
# PCOD9271092 Si02
#       7
#     8   8   8   8   8   8   8
#     4   9  18  34  60  84 113 144 184 232 286 351
#     4  12  23  37  59  83 113 154 194 242 290 339
#     4   9  18  35  58  87 111 144 185 231 287 346
#     4  10  21  35  56  82 115 144 194 241 274 339
#     4  11  22  39  55  82 114 147 195 243 288 344
#     4  11  23  36  61  81 112 155 192 245 289 343
#     4  10  20  36  57  83 112 149 189 236 285 333
#
# _framework density 19.111172
#
# number of rings (size 3 to 8) (size 9 to 14) (size 15 to 20)
#    0.000    1.714    2.857    2.143    2.000    1.714 
#    0.000    1.429    3.143    1.714    0.000    0.000 
#    0.000    0.000    0.000    0.000    0.000    0.000 
#
# Total GULP energy -156240.810136 kJ/mol
# GULP energy per Si atom -5580.028933 kJ/mol
# Density = 1.906767 g / cm^3
# Si number density = 19.111172 Si / 1000 Ang^3
#
#
#
# Elastic Constant Matrix: (Units=GPa)
#
#
# Indices 1 2 3 4 5 6 
#
# 1 56.4608 50.5933 23.6959 0.0000 -0.2020 0.0000
# 2 50.5933 159.3735 56.6490 0.0000 7.9764 0.0000
# 3 23.6959 56.6490 44.4148 0.0000 3.4567 0.0000
# 4 0.0000 0.0000 0.0000 39.2291 0.0000 -1.1678
# 5 -0.2020 7.9764 3.4567 0.0000 18.9011 0.0000
# 6 0.0000 0.0000 0.0000 -1.1678 0.0000 32.5821
#
#
#
# Elastic Compliance Matrix: (Units=1/GPa)
#
#
# Indices 1 2 3 4 5 6 
#
# 1 0.025902 -0.006222 -0.006198 0.000000 0.004036 0.000000
# 2 -0.006222 0.013064 -0.013095 0.000000 -0.003185 0.000000
# 3 -0.006198 -0.013095 0.042706 0.000000 -0.002350 0.000000
# 4 0.000000 0.000000 0.000000 0.025519 0.000000 0.000915
# 5 0.004036 -0.003185 -0.002350 0.000000 0.054724 0.000000
# 6 0.000000 0.000000 0.000000 0.000915 0.000000 0.030724
#
#
# Mechanical properties :
#
#
# Convention : Reuss Voigt Hill
#
# Bulk Modulus (GPa) = 32.63331 58.01393 45.32362
# Shear Modulus (GPa) = 19.69421 26.76316 23.22869
#
# Velocity S-wave (km/s) = 3.21363 3.74624 3.49011
# Velocity P-wave (km/s) = 5.55720 7.00959 6.32522
#
# Compressibility (1/GPa) = 0.03064353
#
# Stress axis : x y z
#
# Youngs Moduli (GPa) = 38.60695 76.54912 23.41574
#
# Poissons Ratio (x) = 0.47626 0.14513
# Poissons Ratio (y) = 0.24020 0.30662
# Poissons Ratio (z) = 0.23928 1.00239
#
# Static dielectric constant tensor:
#      x y z
#    x 1.660350 0.000000 0.003980 
#    y 0.000000 1.690020 0.000000 
#    z 0.003980 0.000000 1.716410 
# 
# From -- ./inp_files/139470.got.cif
#   From: 2010.05.17/outbox.cif.g08.bks.cpg/sg15_70_cif.got.tgz:139470.got - 2010.06.03 18:47:42.
