data_PCOD9271655
_publ_section_title
;
Structure prediction by ZEFSAII (Michael W. Deem and Ramdas Pophale) SiO2 
 PCOD9271655
Probable space group: C 2/C
;
_chemical_formula_sum "Si O2"
_cell_formula_units_Z 44
_cell_length_a 9.804028
_cell_length_b 16.586322
_cell_length_c 22.298409
_cell_angle_alpha 90.000000
_cell_angle_beta 142.048879
_cell_angle_gamma 90.000000
_cell_volume 2229.953772
_symmetry_space_group_name_H-M "C 2/C"
_symmetry_group_IT_number 15
_symmetry_cell_setting 'monoclinic'
loop_
_space_group_symop_operation_xyz
x,y,z
-x,y,1/2-z
-x,-y,-z
x,-y,1/2+z
1/2+x,1/2+y,z
1/2-x,1/2+y,1/2-z
1/2-x,1/2-y,-z
1/2+x,1/2-y,1/2+z
loop_
_atom_site_type_symbol
_atom_site_label
_atom_site_fract_x
_atom_site_fract_y
_atom_site_fract_z
Si Si1 0.628763 0.656180 0.415614
Si Si2 0.957323 0.322052 0.358027
Si Si3 0.734376 0.990430 0.614156
Si Si4 0.845791 0.949637 0.901581
Si Si5 0.000000 0.132873 0.750000
Si Si6 0.092103 0.498524 0.200314
O O1 0.530308 0.738077 0.354673
O O2 0.645470 0.584720 0.374011
O O3 0.477178 0.626331 0.419420
O O4 0.875393 0.670456 0.527351
O O5 0.701077 0.319694 0.289459
O O6 0.988114 0.405559 0.332829
O O7 0.685864 0.980246 0.667764
O O8 0.500000 0.000000 0.500000
O O9 0.878610 0.072127 0.661259
O O10 0.611586 0.941853 0.854850
O O11 0.767501 0.996664 0.814637
O O12 0.000000 0.000000 0.000000
#
# Coordination Sequence:
#
# PCOD9271655 Si02
#       6
#     8   8   8   8   4   8
#     4  11  21  37  67  92 129 167 207 268 331 378
#     4  10  21  38  60  95 128 168 207 263 332 385
#     4  11  19  38  65  99 122 166 220 269 310 391
#     4  11  21  40  63  90 126 170 216 268 310 385
#     4  10  20  36  60  90 132 172 212 256 322 378
#     4  10  22  38  64  95 121 168 217 255 324 381
#
# _framework density 19.731351
#
# number of rings (size 3 to 8) (size 9 to 14) (size 15 to 20)
#    0.000    1.455    5.455    2.182    0.000    1.455 
#    0.000    5.455    0.000    8.727    0.000    0.000 
#    0.000    0.000    0.000    0.000    0.000    0.000 
#
# Total GULP energy -122671.187293 kJ/mol
# GULP energy per Si atom -5575.963059 kJ/mol
# Density = 1.968644 g / cm^3
# Si number density = 19.731351 Si / 1000 Ang^3
#
#
#
# Elastic Constant Matrix: (Units=GPa)
#
#
# Indices 1 2 3 4 5 6 
#
# 1 100.7451 20.5442 25.9178 0.0000 10.0523 0.0000
# 2 20.5442 84.0812 21.5051 0.0000 11.2349 0.0000
# 3 25.9178 21.5051 133.9271 0.0000 8.6145 0.0000
# 4 0.0000 0.0000 0.0000 29.6873 0.0000 4.2186
# 5 10.0523 11.2349 8.6145 0.0000 33.1988 0.0000
# 6 0.0000 0.0000 0.0000 4.2186 0.0000 25.2182
#
#
#
# Elastic Compliance Matrix: (Units=1/GPa)
#
#
# Indices 1 2 3 4 5 6 
#
# 1 0.010976 -0.001958 -0.001666 0.000000 -0.002229 0.000000
# 2 -0.001958 0.013227 -0.001521 0.000000 -0.003489 0.000000
# 3 -0.001666 -0.001521 0.008103 0.000000 -0.001083 0.000000
# 4 0.000000 0.000000 0.000000 0.034505 0.000000 -0.005772
# 5 -0.002229 -0.003489 -0.001083 0.000000 0.032258 0.000000
# 6 0.000000 0.000000 0.000000 -0.005772 0.000000 0.040619
#
#
# Mechanical properties :
#
#
# Convention : Reuss Voigt Hill
#
# Bulk Modulus (GPa) = 45.42078 50.52083 47.97080
# Shear Modulus (GPa) = 31.78294 34.33994 33.06144
#
# Velocity S-wave (km/s) = 4.01781 4.17631 4.09782
# Velocity P-wave (km/s) = 6.67782 6.99395 6.83771
#
# Compressibility (1/GPa) = 0.02201635
#
# Stress axis : x y z
#
# Youngs Moduli (GPa) = 91.10467 75.60447 123.40973
#
# Poissons Ratio (x) = 0.14803 0.20565
# Poissons Ratio (y) = 0.17838 0.18765
# Poissons Ratio (z) = 0.15182 0.11496
#
# Static dielectric constant tensor:
#      x y z
#    x 1.735210 0.000000 0.046200 
#    y 0.000000 1.709480 0.000000 
#    z 0.046200 0.000000 1.714310 
# 
# From -- ./inp_files/292943.got.cif
#   From: 2010.05.17/outbox.cif.g08.bks.cpg/sg15_147_cif.got.tgz:292943.got - 2010.06.03 18:47:42.
