data_PCOD9271329
_publ_section_title
;
Structure prediction by ZEFSAII (Michael W. Deem and Ramdas Pophale) SiO2 
 PCOD9271329
Probable space group: C 2/C
;
_chemical_formula_sum "Si O2"
_cell_formula_units_Z 48
_cell_length_a 14.346893
_cell_length_b 22.231509
_cell_length_c 10.323680
_cell_angle_alpha 90.000000
_cell_angle_beta 136.645278
_cell_angle_gamma 90.000000
_cell_volume 2260.529493
_symmetry_space_group_name_H-M "C 2/C"
_symmetry_group_IT_number 15
_symmetry_cell_setting 'monoclinic'
loop_
_space_group_symop_operation_xyz
x,y,z
-x,y,1/2-z
-x,-y,-z
x,-y,1/2+z
1/2+x,1/2+y,z
1/2-x,1/2+y,1/2-z
1/2-x,1/2-y,-z
1/2+x,1/2-y,1/2+z
loop_
_atom_site_type_symbol
_atom_site_label
_atom_site_fract_x
_atom_site_fract_y
_atom_site_fract_z
Si Si1 0.198647 0.382351 0.347074
Si Si2 0.726184 0.126304 0.162360
Si Si3 0.162028 0.504038 0.166950
Si Si4 0.421006 0.533975 0.802680
Si Si5 0.970755 0.150867 0.001104
Si Si6 0.013567 0.717403 0.920325
O O1 0.158855 0.388090 0.455994
O O2 0.203155 0.449475 0.299791
O O3 0.347116 0.354063 0.476695
O O4 0.095604 0.336413 0.171937
O O5 0.885980 0.126119 0.306155
O O6 0.692770 0.073613 0.229030
O O7 0.658172 0.190804 0.113514
O O8 0.265062 0.489228 0.150996
O O9 0.000000 0.500000 0.000000
O O10 0.500000 0.521338 0.750000
O O11 0.500000 0.500000 0.000000
O O12 0.427865 0.605566 0.842084
O O13 0.002494 0.221254 0.016837
O O14 0.000000 0.731031 0.750000
#
# Coordination Sequence:
#
# PCOD9271329 Si02
#       6
#     8   8   8   8   8   8
#     4  10  22  36  56  92 125 165 214 271 317 387
#     4  11  21  35  59  90 127 164 215 265 328 376
#     4  11  23  38  61  92 132 168 211 270 331 383
#     4  11  26  45  68 100 130 169 220 270 327 393
#     4  11  22  37  62  88 123 162 207 266 325 382
#     4  10  20  36  58  91 127 167 216 269 322 380
#
# _framework density 21.233962999999999
#
# number of rings (size 3 to 8) (size 9 to 14) (size 15 to 20)
#    0.000    1.333    3.333    2.500    4.667    3.333 
#    0.000    0.000    0.000   11.000    0.000    0.000 
#    0.000    0.000    0.000    0.000    0.000    0.000 
#
# Total GULP energy -133724.337534 kJ/mol
# GULP energy per Si atom -5571.847397 kJ/mol
# Density = 2.118563 g / cm^3
# Si number density = 21.233963 Si / 1000 Ang^3
#
#
#
# Elastic Constant Matrix: (Units=GPa)
#
#
# Indices 1 2 3 4 5 6 
#
# 1 91.2129 19.5627 30.9121 0.0000 18.0512 0.0000
# 2 19.5627 120.6648 25.2803 0.0000 -7.4636 0.0000
# 3 30.9121 25.2803 63.6914 0.0000 33.7131 0.0000
# 4 0.0000 0.0000 0.0000 37.5712 0.0000 7.5456
# 5 18.0512 -7.4636 33.7131 0.0000 37.3059 0.0000
# 6 0.0000 0.0000 0.0000 7.5456 0.0000 29.0212
#
#
#
# Elastic Compliance Matrix: (Units=1/GPa)
#
#
# Indices 1 2 3 4 5 6 
#
# 1 0.013311 -0.001372 -0.004526 0.000000 -0.002625 0.000000
# 2 -0.001372 0.011466 -0.010449 0.000000 0.012401 0.000000
# 3 -0.004526 -0.010449 0.042158 0.000000 -0.037998 0.000000
# 4 0.000000 0.000000 0.000000 0.028083 0.000000 -0.007302
# 5 -0.002625 0.012401 -0.037998 0.000000 0.064895 0.000000
# 6 0.000000 0.000000 0.000000 -0.007302 0.000000 0.036356
#
#
# Mechanical properties :
#
#
# Convention : Reuss Voigt Hill
#
# Bulk Modulus (GPa) = 29.20539 47.45326 38.32932
# Shear Modulus (GPa) = 20.80060 34.10060 27.45060
#
# Velocity S-wave (km/s) = 3.13324 4.01177 3.59941
# Velocity P-wave (km/s) = 5.18397 6.62234 5.94680
#
# Compressibility (1/GPa) = 0.03424026
#
# Stress axis : x y z
#
# Youngs Moduli (GPa) = 75.12525 87.21396 23.72016
#
# Poissons Ratio (x) = 0.11966 0.10737
# Poissons Ratio (y) = 0.10308 0.24785
# Poissons Ratio (z) = 0.34005 0.91130
#
# Static dielectric constant tensor:
#      x y z
#    x 1.863900 0.000000 0.017500 
#    y 0.000000 1.823470 0.000000 
#    z 0.017500 0.000000 1.809740 
# 
# From -- ./inp_files/99981.got.cif
#   From: 2010.05.17/outbox.cif.g08.bks.cpg/sg15_50_cif.got.tgz:99981.got - 2010.06.03 18:47:42.
