data_PCOD9271088
_publ_section_title
;
Structure prediction by ZEFSAII (Michael W. Deem and Ramdas Pophale) SiO2 
 PCOD9271088
Probable space group: C 2/C
;
_chemical_formula_sum "Si O2"
_cell_formula_units_Z 48
_cell_length_a 14.642765
_cell_length_b 29.139064
_cell_length_c 8.321957
_cell_angle_alpha 90.000000
_cell_angle_beta 138.066651
_cell_angle_gamma 90.000000
_cell_volume 2372.866514
_symmetry_space_group_name_H-M "C 2/C"
_symmetry_group_IT_number 15
_symmetry_cell_setting 'monoclinic'
loop_
_space_group_symop_operation_xyz
x,y,z
-x,y,1/2-z
-x,-y,-z
x,-y,1/2+z
1/2+x,1/2+y,z
1/2-x,1/2+y,1/2-z
1/2-x,1/2-y,-z
1/2+x,1/2-y,1/2+z
loop_
_atom_site_type_symbol
_atom_site_label
_atom_site_fract_x
_atom_site_fract_y
_atom_site_fract_z
Si Si1 0.843350 0.321698 0.556685
Si Si2 0.500000 0.307194 0.750000
Si Si3 0.736308 0.659011 0.388554
Si Si4 0.813846 0.252646 0.819296
Si Si5 0.434641 0.952795 0.844334
Si Si6 0.000000 0.394640 0.250000
Si Si7 0.835439 0.898671 0.023284
O O1 0.835661 0.286930 0.698557
O O2 0.796390 0.287139 0.356391
O O3 0.734704 0.362876 0.440982
O O4 0.000000 0.338103 0.750000
O O5 0.377902 0.340431 0.629805
O O6 0.451500 0.274035 0.543856
O O7 0.764728 0.711969 0.387728
O O8 0.873142 0.636610 0.624567
O O9 0.684975 0.630104 0.168140
O O10 0.500000 0.946111 0.750000
O O11 0.269557 0.942505 0.611751
O O12 0.470302 0.920388 0.043621
O O13 0.500000 0.000000 0.000000
O O14 0.000000 0.907424 0.250000
#
# Coordination Sequence:
#
# PCOD9271088 Si02
#       7
#     8   4   8   8   8   4   8
#     4  10  20  36  57  82 115 168 220 263 314 379
#     4  12  21  32  52  78 116 164 214 256 312 361
#     4  10  22  36  56  84 124 172 208 267 316 364
#     4  10  21  33  52  82 123 163 219 272 311 356
#     4  11  23  44  76 100 125 165 207 264 329 403
#     4  10  23  44  66  96 134 160 218 262 318 397
#     4  10  22  40  61  92 129 161 207 265 327 389
#
# _framework density 20.228695999999999
#
# number of rings (size 3 to 8) (size 9 to 14) (size 15 to 20)
#    0.000    1.667    0.833    3.500    0.000   11.333 
#    0.000    0.833    1.833    0.000    0.000    0.000 
#    0.000    0.000    0.000    0.000    0.000    0.000 
#
# Total GULP energy -133664.045610 kJ/mol
# GULP energy per Si atom -5569.335234 kJ/mol
# Density = 2.018265 g / cm^3
# Si number density = 20.228696 Si / 1000 Ang^3
#
#
#
# Elastic Constant Matrix: (Units=GPa)
#
#
# Indices 1 2 3 4 5 6 
#
# 1 116.4840 50.3790 54.1392 0.0000 30.0647 0.0000
# 2 50.3790 97.3639 55.1910 0.0000 24.1168 0.0000
# 3 54.1392 55.1910 117.3275 0.0000 37.5653 0.0000
# 4 0.0000 0.0000 0.0000 7.7017 0.0000 8.3645
# 5 30.0647 24.1168 37.5653 0.0000 47.1004 0.0000
# 6 0.0000 0.0000 0.0000 8.3645 0.0000 22.0343
#
#
#
# Elastic Compliance Matrix: (Units=1/GPa)
#
#
# Indices 1 2 3 4 5 6 
#
# 1 0.012559 -0.004037 -0.002674 0.000000 -0.003817 0.000000
# 2 -0.004037 0.015539 -0.005002 0.000000 -0.001391 0.000000
# 3 -0.002674 -0.005002 0.014428 0.000000 -0.007239 0.000000
# 4 0.000000 0.000000 0.000000 0.220926 0.000000 -0.083866
# 5 -0.003817 -0.001391 -0.007239 0.000000 0.030153 0.000000
# 6 0.000000 0.000000 0.000000 -0.083866 0.000000 0.077221
#
#
# Mechanical properties :
#
#
# Convention : Reuss Voigt Hill
#
# Bulk Modulus (GPa) = 52.35583 72.28821 62.32202
# Shear Modulus (GPa) = 12.48074 26.79835 19.63954
#
# Velocity S-wave (km/s) = 2.48661 3.64369 3.11927
# Velocity P-wave (km/s) = 5.84657 7.31539 6.62184
#
# Compressibility (1/GPa) = 0.01910007
#
# Stress axis : x y z
#
# Youngs Moduli (GPa) = 79.62518 64.35293 69.31192
#
# Poissons Ratio (x) = 0.25980 0.18534
# Poissons Ratio (y) = 0.32146 0.34667
# Poissons Ratio (z) = 0.21292 0.32187
#
# Static dielectric constant tensor:
#      x y z
#    x 1.788140 0.000000 -0.024390 
#    y 0.000000 1.710350 0.000000 
#    z -0.024390 0.000000 1.765980 
# 
# From -- ./inp_files/43996.got.cif
#   From: 2010.05.17/outbox.cif.g08.bks.cpg/sg15_22_cif.got.tgz:43996.got - 2010.06.03 18:47:42.
