data_PCOD9271613
_publ_section_title
;
Structure prediction by ZEFSAII (Michael W. Deem and Ramdas Pophale) SiO2 
 PCOD9271613
Probable space group: C 2/C
;
_chemical_formula_sum "Si O2"
_cell_formula_units_Z 56
_cell_length_a 18.645602
_cell_length_b 25.064113
_cell_length_c 9.300660
_cell_angle_alpha 90.000000
_cell_angle_beta 41.308073
_cell_angle_gamma 90.000000
_cell_volume 2869.176036
_symmetry_space_group_name_H-M "C 2/C"
_symmetry_group_IT_number 15
_symmetry_cell_setting 'monoclinic'
loop_
_space_group_symop_operation_xyz
x,y,z
-x,y,1/2-z
-x,-y,-z
x,-y,1/2+z
1/2+x,1/2+y,z
1/2-x,1/2+y,1/2-z
1/2-x,1/2-y,-z
1/2+x,1/2-y,1/2+z
loop_
_atom_site_type_symbol
_atom_site_label
_atom_site_fract_x
_atom_site_fract_y
_atom_site_fract_z
Si Si1 0.417697 0.073267 0.116703
Si Si2 0.211261 0.378134 0.440680
Si Si3 0.192406 0.736186 0.826419
Si Si4 0.670867 0.955770 0.247081
Si Si5 0.116503 0.720668 0.643526
Si Si6 0.278037 0.113604 0.081770
Si Si7 0.629069 0.655050 0.553340
O O1 0.385341 0.105432 0.306466
O O2 0.379761 0.103936 0.033521
O O3 0.344840 0.019206 0.222996
O O4 0.544935 0.062542 0.923376
O O5 0.185203 0.322108 0.404390
O O6 0.219889 0.425563 0.311041
O O7 0.314587 0.369360 0.389612
O O8 0.111646 0.743699 0.811666
O O9 0.310938 0.744846 0.575929
O O10 0.168408 0.783599 0.974130
O O11 0.732157 0.934699 0.013575
O O12 0.187305 0.666694 0.554768
O O13 0.000000 0.712268 0.750000
O O14 0.178758 0.125241 0.338159
O O15 0.500000 0.652124 0.750000
#
# Coordination Sequence:
#
# PCOD9271613 Si02
#       7
#     8   8   8   8   8   8   8
#     4  10  22  35  59  92 126 153 187 238 302 359
#     4  11  22  38  59  90 121 155 201 244 296 356
#     4  10  22  38  57  89 121 159 205 240 293 358
#     4  11  20  37  60  91 122 157 191 235 300 368
#     4  10  20  36  60  88 121 158 197 244 294 355
#     4  10  20  38  59  82 120 158 197 240 294 359
#     4  10  24  42  59  83 120 160 202 255 296 342
#
# _framework density 19.517799
#
# number of rings (size 3 to 8) (size 9 to 14) (size 15 to 20)
#    0.000    1.714    1.429    3.000    2.000    3.429 
#    2.571    0.714    0.000   13.714    0.000    1.000 
#    0.000    0.000    0.000    0.000    0.000    0.000 
#
# Total GULP energy -156336.918239 kJ/mol
# GULP energy per Si atom -5583.461366 kJ/mol
# Density = 1.947338 g / cm^3
# Si number density = 19.517799 Si / 1000 Ang^3
#
#
#
# Elastic Constant Matrix: (Units=GPa)
#
#
# Indices 1 2 3 4 5 6 
#
# 1 78.9033 19.5223 46.5823 0.0000 3.3296 0.0000
# 2 19.5223 96.6197 41.5136 0.0000 6.0316 0.0000
# 3 46.5823 41.5136 69.6422 0.0000 3.8564 0.0000
# 4 0.0000 0.0000 0.0000 19.0114 0.0000 -9.7446
# 5 3.3296 6.0316 3.8564 0.0000 29.9565 0.0000
# 6 0.0000 0.0000 0.0000 -9.7446 0.0000 -20.4368
#
#
#
# Elastic Compliance Matrix: (Units=1/GPa)
#
#
# Indices 1 2 3 4 5 6 
#
# 1 0.021389 0.002498 -0.015749 0.000000 -0.000853 0.000000
# 2 0.002498 0.014296 -0.010090 0.000000 -0.001857 0.000000
# 3 -0.015749 -0.010090 0.030919 0.000000 -0.000198 0.000000
# 4 0.000000 0.000000 0.000000 0.042269 0.000000 -0.020155
# 5 -0.000853 -0.001857 -0.000198 0.000000 0.033876 0.000000
# 6 0.000000 0.000000 0.000000 -0.020155 0.000000 -0.039321
#
#
# Mechanical properties :
#
#
# Convention : Reuss Voigt Hill
#
# Bulk Modulus (GPa) = 50.19345 51.15571 50.67458
# Shear Modulus (GPa) = 31.89766 14.87601 23.38683
#
# Velocity S-wave (km/s) = 4.04702 2.76375 3.46530
# Velocity P-wave (km/s) = 6.90003 6.03747 6.48311
#
# Compressibility (1/GPa) = 0.01992292
#
# Stress axis : x y z
#
# Youngs Moduli (GPa) = 46.75242 69.94776 32.34274
#
# Poissons Ratio (x) = -0.17474 0.50936
# Poissons Ratio (y) = -0.11679 0.32634
# Poissons Ratio (z) = 0.73629 0.70578
#
# Static dielectric constant tensor:
#      x y z
#    x 1.676180 0.000000 0.030270 
#    y 0.000000 1.712090 0.000000 
#    z 0.030270 0.000000 1.672440 
# 
# From -- ./inp_files/52302.got.cif
#   From: 2010.05.17/outbox.cif.g08.bks.cpg/sg15_27_cif.got.tgz:52302.got - 2010.06.03 18:47:42.
