data_PCOD9271058
_publ_section_title
;
Structure prediction by ZEFSAII (Michael W. Deem and Ramdas Pophale) SiO2 
 PCOD9271058
Probable space group: C 2/C
;
_chemical_formula_sum "Si O2"
_cell_formula_units_Z 64
_cell_length_a 14.191239
_cell_length_b 27.721389
_cell_length_c 8.861635
_cell_angle_alpha 90.000000
_cell_angle_beta 111.354974
_cell_angle_gamma 90.000000
_cell_volume 3246.821944
_symmetry_space_group_name_H-M "C 2/C"
_symmetry_group_IT_number 15
_symmetry_cell_setting 'monoclinic'
loop_
_space_group_symop_operation_xyz
x,y,z
-x,y,1/2-z
-x,-y,-z
x,-y,1/2+z
1/2+x,1/2+y,z
1/2-x,1/2+y,1/2-z
1/2-x,1/2-y,-z
1/2+x,1/2-y,1/2+z
loop_
_atom_site_type_symbol
_atom_site_label
_atom_site_fract_x
_atom_site_fract_y
_atom_site_fract_z
Si Si1 0.809543 0.066352 0.872605
Si Si2 0.275647 0.340618 0.177174
Si Si3 0.948366 0.938306 0.949298
Si Si4 0.717708 0.768394 0.734034
Si Si5 0.095233 0.828569 0.539915
Si Si6 0.412730 0.174812 0.098516
Si Si7 0.967560 0.257970 0.058022
Si Si8 0.333933 0.500602 0.135039
O O1 0.791127 0.121442 0.819262
O O2 0.773040 0.033516 0.712500
O O3 0.931670 0.060053 0.955254
O O4 0.772988 0.039927 0.002079
O O5 0.253928 0.286829 0.221238
O O6 0.367778 0.335273 0.111676
O O7 0.178309 0.356273 0.021148
O O8 0.921865 0.882414 0.913220
O O9 0.908051 0.968025 0.783547
O O10 0.892532 0.963288 0.059016
O O11 0.815414 0.801923 0.813683
O O12 0.641994 0.785911 0.824294
O O13 0.649594 0.769818 0.544195
O O14 0.998592 0.793881 0.504042
O O15 0.500000 0.150610 0.250000
O O16 0.468220 0.202663 0.996318
O O17 0.000000 0.257746 0.250000
#
# Coordination Sequence:
#
# PCOD9271058 Si02
#       8
#     8   8   8   8   8   8   8   8
#     4  11  20  32  55  79 106 144 180 216 268 314
#     4  11  19  34  57  82 101 141 191 222 258 320
#     4  11  20  33  53  74 111 145 180 214 264 317
#     4  10  20  36  57  75 108 145 184 226 256 313
#     4  11  21  35  53  81 110 143 189 223 258 317
#     4   9  18  36  56  72 101 139 182 219 260 314
#     4  11  22  35  52  76 110 149 176 217 276 311
#     4  10  21  36  50  75 110 145 176 220 264 320
#
# _framework density 19.711580999999999
#
# number of rings (size 3 to 8) (size 9 to 14) (size 15 to 20)
#    0.000    1.500    3.750    4.500    0.000    3.500 
#    2.250    0.000    0.000    0.000    0.000    0.875 
#    0.000    0.000    0.000    0.000    0.000    0.000 
#
# Total GULP energy -178628.101896 kJ/mol
# GULP energy per Si atom -5582.128184 kJ/mol
# Density = 1.966672 g / cm^3
# Si number density = 19.711581 Si / 1000 Ang^3
#
#
#
# Elastic Constant Matrix: (Units=GPa)
#
#
# Indices 1 2 3 4 5 6 
#
# 1 27.7109 5.0753 12.1396 0.0000 6.6150 0.0000
# 2 5.0753 97.0372 24.0654 0.0000 2.9820 0.0000
# 3 12.1396 24.0654 96.3070 0.0000 2.2171 0.0000
# 4 0.0000 0.0000 0.0000 33.3011 0.0000 8.3169
# 5 6.6150 2.9820 2.2171 0.0000 21.4668 0.0000
# 6 0.0000 0.0000 0.0000 8.3169 0.0000 13.3828
#
#
#
# Elastic Compliance Matrix: (Units=1/GPa)
#
#
# Indices 1 2 3 4 5 6 
#
# 1 0.041174 -0.000601 -0.004761 0.000000 -0.012113 0.000000
# 2 -0.000601 0.011028 -0.002655 0.000000 -0.001073 0.000000
# 3 -0.004761 -0.002655 0.011633 0.000000 0.000635 0.000000
# 4 0.000000 0.000000 0.000000 0.035546 0.000000 -0.022090
# 5 -0.012113 -0.001073 0.000635 0.000000 0.050400 0.000000
# 6 0.000000 0.000000 0.000000 -0.022090 0.000000 0.088451
#
#
# Mechanical properties :
#
#
# Convention : Reuss Voigt Hill
#
# Bulk Modulus (GPa) = 20.92015 33.73508 27.32762
# Shear Modulus (GPa) = 18.50487 25.61513 22.06000
#
# Velocity S-wave (km/s) = 3.06728 3.60876 3.34898
# Velocity P-wave (km/s) = 4.81461 5.87501 5.37104
#
# Compressibility (1/GPa) = 0.04780081
#
# Stress axis : x y z
#
# Youngs Moduli (GPa) = 24.28710 90.67636 85.96582
#
# Poissons Ratio (x) = 0.05445 0.40930
# Poissons Ratio (y) = 0.01458 0.22827
# Poissons Ratio (z) = 0.11563 0.24078
#
# Static dielectric constant tensor:
#      x y z
#    x 1.729300 0.000000 -0.002150 
#    y 0.000000 1.682170 0.000000 
#    z -0.002150 0.000000 1.769920 
# 
# From -- ./inp_files/43579.got.cif
#   From: 2010.05.17/outbox.cif.g08.bks.cpg/sg15_22_cif.got.tgz:43579.got - 2010.06.03 18:47:42.
