data_PCOD9271893
_publ_section_title
;
Structure prediction by ZEFSAII (Michael W. Deem and Ramdas Pophale) SiO2 
 PCOD9271893
Probable space group: C 2/C
;
_chemical_formula_sum "Si O2"
_cell_formula_units_Z 44
_cell_length_a 13.203968
_cell_length_b 5.587353
_cell_length_c 25.721988
_cell_angle_alpha 90.000000
_cell_angle_beta 83.217845
_cell_angle_gamma 90.000000
_cell_volume 1884.366503
_symmetry_space_group_name_H-M "C 2/C"
_symmetry_group_IT_number 15
_symmetry_cell_setting 'monoclinic'
loop_
_space_group_symop_operation_xyz
x,y,z
-x,y,1/2-z
-x,-y,-z
x,-y,1/2+z
1/2+x,1/2+y,z
1/2-x,1/2+y,1/2-z
1/2-x,1/2-y,-z
1/2+x,1/2-y,1/2+z
loop_
_atom_site_type_symbol
_atom_site_label
_atom_site_fract_x
_atom_site_fract_y
_atom_site_fract_z
Si Si1 0.376891 0.244729 0.344483
Si Si2 0.000000 0.452978 0.250000
Si Si3 0.097635 0.764060 0.979317
Si Si4 0.202149 0.547538 0.552442
Si Si5 0.060159 0.928241 0.577935
Si Si6 0.789759 0.722848 0.723996
O O1 0.442758 0.114785 0.296472
O O2 0.351558 0.077556 0.394939
O O3 0.440119 0.464775 0.365024
O O4 0.266544 0.314002 0.327709
O O5 0.089756 0.306634 0.273551
O O6 0.183785 0.950736 0.955727
O O7 0.021783 0.732922 0.935750
O O8 0.152132 0.535966 0.000970
O O9 0.044449 0.871932 0.034450
O O10 0.172637 0.821117 0.562593
O O11 0.741301 0.494703 0.758247
#
# Coordination Sequence:
#
# PCOD9271893 Si02
#       6
#     8   4   8   8   8   8
#     4  10  24  41  60  96 123 166 224 269 332 402
#     4  10  24  48  66  90 136 174 216 288 342 392
#     4   9  20  37  57  90 126 165 207 262 327 389
#     4  10  20  37  59  88 126 164 211 265 321 396
#     4  10  20  36  62  89 125 165 212 259 327 398
#     4  10  24  46  69  95 130 173 226 281 340 401
#
# _framework density 23.350024000000001
#
# number of rings (size 3 to 8) (size 9 to 14) (size 15 to 20)
#    0.000    2.182    0.000    1.091    5.091    5.818 
#    6.545    3.636    0.000    0.000    0.000    0.000 
#    0.000    0.000    0.000    0.000    0.000    0.000 
#
# Total GULP energy -122661.362557 kJ/mol
# GULP energy per Si atom -5575.516480 kJ/mol
# Density = 2.329688 g / cm^3
# Si number density = 23.350024 Si / 1000 Ang^3
#
#
#
# Elastic Constant Matrix: (Units=GPa)
#
#
# Indices 1 2 3 4 5 6 
#
# 1 127.4831 12.9415 50.5514 0.0000 15.6268 0.0000
# 2 12.9415 30.4422 16.2889 0.0000 -0.8018 0.0000
# 3 50.5514 16.2889 109.9956 0.0000 19.0575 0.0000
# 4 0.0000 0.0000 0.0000 28.4444 0.0000 -5.3648
# 5 15.6268 -0.8018 19.0575 0.0000 45.0416 0.0000
# 6 0.0000 0.0000 0.0000 -5.3648 0.0000 26.2465
#
#
#
# Elastic Compliance Matrix: (Units=1/GPa)
#
#
# Indices 1 2 3 4 5 6 
#
# 1 0.009823 -0.002145 -0.003885 0.000000 -0.001803 0.000000
# 2 -0.002145 0.036549 -0.005038 0.000000 0.003526 0.000000
# 3 -0.003885 -0.005038 0.012307 0.000000 -0.003949 0.000000
# 4 0.000000 0.000000 0.000000 0.036566 0.000000 0.007474
# 5 -0.001803 0.003526 -0.003949 0.000000 0.024561 0.000000
# 6 0.000000 0.000000 0.000000 0.007474 0.000000 0.039628
#
#
# Mechanical properties :
#
#
# Convention : Reuss Voigt Hill
#
# Bulk Modulus (GPa) = 27.36350 47.49827 37.43088
# Shear Modulus (GPa) = 25.80642 32.48911 29.14777
#
# Velocity S-wave (km/s) = 3.32806 3.73419 3.53696
# Velocity P-wave (km/s) = 5.14900 6.24325 5.72235
#
# Compressibility (1/GPa) = 0.03654504
#
# Stress axis : x y z
#
# Youngs Moduli (GPa) = 101.79923 27.36020 81.25632
#
# Poissons Ratio (x) = 0.05869 0.31565
# Poissons Ratio (y) = 0.21836 0.40934
# Poissons Ratio (z) = 0.39545 0.13783
#
# Static dielectric constant tensor:
#      x y z
#    x 1.937920 0.000000 0.001470 
#    y 0.000000 2.030070 0.000000 
#    z 0.001470 0.000000 1.861890 
# 
# From -- ./inp_files/271873.got.cif
#   From: 2010.05.17/outbox.cif.g08.bks.cpg/sg15_136_cif.got.tgz:271873.got - 2010.06.03 18:47:42.
