data_PCOD9271080
_publ_section_title
;
Structure prediction by ZEFSAII (Michael W. Deem and Ramdas Pophale) SiO2 
 PCOD9271080
Probable space group: C 2/C
;
_chemical_formula_sum "Si O2"
_cell_formula_units_Z 48
_cell_length_a 27.335222
_cell_length_b 13.493556
_cell_length_c 8.454410
_cell_angle_alpha 90.000000
_cell_angle_beta 144.137448
_cell_angle_gamma 90.000000
_cell_volume 1826.894297
_symmetry_space_group_name_H-M "C 2/C"
_symmetry_group_IT_number 15
_symmetry_cell_setting 'monoclinic'
loop_
_space_group_symop_operation_xyz
x,y,z
-x,y,1/2-z
-x,-y,-z
x,-y,1/2+z
1/2+x,1/2+y,z
1/2-x,1/2+y,1/2-z
1/2-x,1/2-y,-z
1/2+x,1/2-y,1/2+z
loop_
_atom_site_type_symbol
_atom_site_label
_atom_site_fract_x
_atom_site_fract_y
_atom_site_fract_z
Si Si1 0.588957 0.120064 0.489303
Si Si2 0.750000 0.250000 0.500000
Si Si3 0.768113 0.589481 0.873671
Si Si4 0.000000 0.129141 0.250000
Si Si5 0.671406 0.730371 0.411151
Si Si6 0.124119 0.044045 0.086865
Si Si7 0.923847 0.803346 0.279686
O O1 0.500000 0.064282 0.250000
O O2 0.666535 0.074239 0.595085
O O3 0.618653 0.170734 0.732509
O O4 0.571729 0.215354 0.332989
O O5 0.797559 0.364700 0.614578
O O6 0.834985 0.203717 0.631678
O O7 0.712093 0.694802 0.686724
O O8 0.712549 0.494255 0.754804
O O9 0.998452 0.198112 0.397420
O O10 0.074559 0.056026 0.487087
O O11 0.750000 0.750000 0.500000
O O12 0.635335 0.625038 0.252876
O O13 0.073941 0.098119 0.818019
#
# Coordination Sequence:
#
# PCOD9271080 Si02
#       7
#     8   4   8   4   8   8   8
#     4   9  20  35  58  81 110 156 199 241 283 337
#     4  10  20  40  52  82 114 164 190 226 288 354
#     4  10  20  36  57  81 117 150 199 235 285 353
#     4  12  22  34  54  92 130 146 184 250 306 342
#     4   9  20  37  55  82 112 156 194 228 285 363
#     4  11  22  35  58  88 117 157 191 244 295 348
#     4  10  22  35  55  84 121 156 193 238 290 359
#
# _framework density 26.274097999999999
#
# number of rings (size 3 to 8) (size 9 to 14) (size 15 to 20)
#    0.000    2.000    1.667    2.500    7.000    0.000 
#    0.000    0.000    0.000    4.000    2.167    0.000 
#    0.000    0.000    0.000    0.000    0.000    0.000 
#
# Total GULP energy -133655.176623 kJ/mol
# GULP energy per Si atom -5568.965693 kJ/mol
# Density = 2.621430 g / cm^3
# Si number density = 26.274098 Si / 1000 Ang^3
#
#
#
# Elastic Constant Matrix: (Units=GPa)
#
#
# Indices 1 2 3 4 5 6 
#
# 1 129.1648 8.6263 10.3093 0.0000 21.1673 0.0000
# 2 8.6263 38.3025 24.0516 0.0000 -6.3101 0.0000
# 3 10.3093 24.0516 91.5215 0.0000 -3.7754 0.0000
# 4 0.0000 0.0000 0.0000 27.0768 0.0000 9.7980
# 5 21.1673 -6.3101 -3.7754 0.0000 42.9307 0.0000
# 6 0.0000 0.0000 0.0000 9.7980 0.0000 35.2966
#
#
#
# Elastic Compliance Matrix: (Units=1/GPa)
#
#
# Indices 1 2 3 4 5 6 
#
# 1 0.008715 -0.002393 -0.000546 0.000000 -0.004697 0.000000
# 2 -0.002393 0.032585 -0.008077 0.000000 0.005259 0.000000
# 3 -0.000546 -0.008077 0.013120 0.000000 0.000236 0.000000
# 4 0.000000 0.000000 0.000000 0.041056 0.000000 -0.011397
# 5 -0.004697 0.005259 0.000236 0.000000 0.026403 0.000000
# 6 0.000000 0.000000 0.000000 -0.011397 0.000000 0.031495
#
#
# Mechanical properties :
#
#
# Convention : Reuss Voigt Hill
#
# Bulk Modulus (GPa) = 30.87630 38.32926 34.60278
# Shear Modulus (GPa) = 26.85231 35.46091 31.15661
#
# Velocity S-wave (km/s) = 3.20035 3.67775 3.44732
# Velocity P-wave (km/s) = 5.04316 5.71440 5.38924
#
# Compressibility (1/GPa) = 0.03238730
#
# Stress axis : x y z
#
# Youngs Moduli (GPa) = 114.74147 30.68886 76.21818
#
# Poissons Ratio (x) = 0.07345 0.04165
# Poissons Ratio (y) = 0.27463 0.61559
# Poissons Ratio (z) = 0.06270 0.24786
#
# Static dielectric constant tensor:
#      x y z
#    x 3.756860 0.000000 -2.192120 
#    y 0.000000 5.239550 0.000000 
#    z -2.192120 0.000000 5.614210 
# 
# From -- ./inp_files/66543.got.cif
#   From: 2010.05.17/outbox.cif.g08.bks.cpg/sg15_34_cif.got.tgz:66543.got - 2010.06.03 18:47:42.
