data_PCOD9271846
_publ_section_title
;
Structure prediction by ZEFSAII (Michael W. Deem and Ramdas Pophale) SiO2 
 PCOD9271846
Probable space group: C 2/C
;
_chemical_formula_sum "Si O2"
_cell_formula_units_Z 44
_cell_length_a 9.557184
_cell_length_b 15.648830
_cell_length_c 23.617297
_cell_angle_alpha 90.000000
_cell_angle_beta 149.032256
_cell_angle_gamma 90.000000
_cell_volume 1817.498987
_symmetry_space_group_name_H-M "C 2/C"
_symmetry_group_IT_number 15
_symmetry_cell_setting 'monoclinic'
loop_
_space_group_symop_operation_xyz
x,y,z
-x,y,1/2-z
-x,-y,-z
x,-y,1/2+z
1/2+x,1/2+y,z
1/2-x,1/2+y,1/2-z
1/2-x,1/2-y,-z
1/2+x,1/2-y,1/2+z
loop_
_atom_site_type_symbol
_atom_site_label
_atom_site_fract_x
_atom_site_fract_y
_atom_site_fract_z
Si Si1 0.303008 0.638203 0.333669
Si Si2 0.945110 0.762805 0.986468
Si Si3 0.316086 0.743255 0.808833
Si Si4 0.500000 0.466635 0.750000
Si Si5 0.031186 0.411993 0.979018
Si Si6 0.106407 0.944863 0.170146
O O1 0.485951 0.672363 0.449280
O O2 0.345332 0.692635 0.290148
O O3 0.313861 0.535330 0.329876
O O4 0.000000 0.658331 0.250000
O O5 0.965499 0.663832 0.974767
O O6 0.151279 0.763009 0.111215
O O7 0.632082 0.764958 0.900734
O O8 0.232801 0.643833 0.768815
O O9 0.453506 0.526388 0.787026
O O10 0.767899 0.409523 0.848657
O O11 0.313017 0.416288 0.042932
O O12 0.000000 0.500000 0.000000
#
# Coordination Sequence:
#
# PCOD9271846 Si02
#       6
#     8   8   8   4   8   8
#     4  10  21  37  64  92 127 168 208 252 313 375
#     4   9  18  35  57  86 121 157 208 255 303 376
#     4   9  19  34  58  88 118 165 209 247 306 375
#     4  10  20  36  62  84 124 156 214 260 310 364
#     4   9  19  34  59  87 116 160 205 259 306 363
#     4  10  21  36  62  92 122 165 210 258 311 370
#
# _framework density 24.209091999999998
#
# number of rings (size 3 to 8) (size 9 to 14) (size 15 to 20)
#    0.000    2.545    0.000    1.091    8.909    2.182 
#    0.000    3.636   16.000    0.000    0.000    0.000 
#    0.000    0.000    0.000    0.000    0.000    0.000 
#
# Total GULP energy -122483.760083 kJ/mol
# GULP energy per Si atom -5567.443640 kJ/mol
# Density = 2.415399 g / cm^3
# Si number density = 24.209092 Si / 1000 Ang^3
#
#
#
# Elastic Constant Matrix: (Units=GPa)
#
#
# Indices 1 2 3 4 5 6 
#
# 1 73.5663 33.9540 30.1500 -0.0002 -26.4353 0.0000
# 2 33.9540 122.7673 17.8806 -0.0004 -29.6877 -0.0001
# 3 30.1500 17.8806 84.3890 -0.0012 -17.5034 0.0004
# 4 -0.0002 -0.0004 -0.0012 26.3108 -0.0001 -5.4304
# 5 -26.4353 -29.6877 -17.5034 -0.0001 38.3914 -0.0002
# 6 0.0000 -0.0001 0.0004 -5.4304 -0.0002 27.2659
#
#
#
# Elastic Compliance Matrix: (Units=1/GPa)
#
#
# Indices 1 2 3 4 5 6 
#
# 1 0.020197 -0.002532 -0.004640 0.000000 0.009834 0.000000
# 2 -0.002532 0.010361 0.000011 0.000000 0.006274 0.000000
# 3 -0.004640 0.000011 0.014186 0.000001 0.003281 0.000000
# 4 0.000000 0.000000 0.000001 0.039636 0.000001 0.007894
# 5 0.009834 0.006274 0.003281 0.000001 0.039166 0.000000
# 6 0.000000 0.000000 0.000000 0.007894 0.000000 0.038248
#
#
# Mechanical properties :
#
#
# Convention : Reuss Voigt Hill
#
# Bulk Modulus (GPa) = 32.87155 49.41021 41.14088
# Shear Modulus (GPa) = 26.84451 31.64283 29.24367
#
# Velocity S-wave (km/s) = 3.33357 3.61926 3.47935
# Velocity P-wave (km/s) = 5.33147 6.15788 5.75951
#
# Compressibility (1/GPa) = 0.03042144
#
# Stress axis : x y z
#
# Youngs Moduli (GPa) = 49.51213 96.51249 70.49296
#
# Poissons Ratio (x) = 0.24439 0.32707
# Poissons Ratio (y) = 0.12537 -0.00074
# Poissons Ratio (z) = 0.22972 -0.00101
#
# Static dielectric constant tensor:
#      x y z
#    x 1.969690 0.000000 0.027330 
#    y 0.000000 2.086610 0.000000 
#    z 0.027330 0.000000 2.130410 
# 
# From -- ./inp_files/292934.got.cif
#   From: 2010.05.17/outbox.cif.g08.bks.cpg/sg15_147_cif.got.tgz:292934.got - 2010.06.03 18:47:42.
