data_PCOD9271652
_publ_section_title
;
Structure prediction by ZEFSAII (Michael W. Deem and Ramdas Pophale) SiO2 
 PCOD9271652
Probable space group: C 2/C
;
_chemical_formula_sum "Si O2"
_cell_formula_units_Z 24
_cell_length_a 21.376972
_cell_length_b 8.323655
_cell_length_c 19.744416
_cell_angle_alpha 90.000000
_cell_angle_beta 15.164949
_cell_angle_gamma 90.000000
_cell_volume 919.052370
_symmetry_space_group_name_H-M "C 2/C"
_symmetry_group_IT_number 15
_symmetry_cell_setting 'monoclinic'
loop_
_space_group_symop_operation_xyz
x,y,z
-x,y,1/2-z
-x,-y,-z
x,-y,1/2+z
1/2+x,1/2+y,z
1/2-x,1/2+y,1/2-z
1/2-x,1/2-y,-z
1/2+x,1/2-y,1/2+z
loop_
_atom_site_type_symbol
_atom_site_label
_atom_site_fract_x
_atom_site_fract_y
_atom_site_fract_z
Si Si1 0.758146 0.340448 0.289210
Si Si2 0.637114 0.609777 0.665699
Si Si3 0.525629 0.909085 0.581266
O O1 0.491404 0.269285 0.564693
O O2 0.794289 0.487524 0.302968
O O3 0.820180 0.400517 0.148432
O O4 0.500000 0.514832 0.750000
O O5 0.750000 0.750000 0.500000
O O6 0.528416 0.730009 0.836264
O O7 0.831451 0.513364 0.505502
#
# Coordination Sequence:
#
# PCOD9271652 Si02
#       3
#     8   8   8
#     4  11  24  39  61  90 129 166 196 255 310 378
#     4   9  18  34  60  88 118 156 207 260 296 348
#     4  10  20  36  60  90 126 158 209 253 311 365
#
# _framework density 26.113852000000001
#
# number of rings (size 3 to 8) (size 9 to 14) (size 15 to 20)
#    0.000    2.000    3.333    0.000    0.000   10.667 
#    0.000    0.000    0.000   26.000    0.000    0.000 
#    0.000    0.000    0.000    0.000    0.000    0.000 
#
# Total GULP energy -66941.155955 kJ/mol
# GULP energy per Si atom -5578.429663 kJ/mol
# Density = 2.605442 g / cm^3
# Si number density = 26.113852 Si / 1000 Ang^3
#
#
#
# Elastic Constant Matrix: (Units=GPa)
#
#
# Indices 1 2 3 4 5 6 
#
# 1 234.2721 50.6627 48.5431 -0.0014 -61.5917 -0.0008
# 2 50.6627 64.3054 45.9657 -0.0113 -11.8838 -0.0004
# 3 48.5431 45.9657 95.9090 -0.0142 -37.2694 0.0000
# 4 -0.0014 -0.0113 -0.0142 56.1561 0.0010 -18.7358
# 5 -61.5917 -11.8838 -37.2694 0.0010 52.5994 0.0015
# 6 -0.0008 -0.0004 0.0000 -18.7358 0.0015 31.3805
#
#
#
# Elastic Compliance Matrix: (Units=1/GPa)
#
#
# Indices 1 2 3 4 5 6 
#
# 1 0.007481 -0.006171 0.002806 -0.000001 0.009354 -0.000001
# 2 -0.006171 0.029281 -0.015383 0.000003 -0.011510 0.000002
# 3 0.002806 -0.015383 0.022500 0.000003 0.015753 0.000001
# 4 -0.000001 0.000003 0.000003 0.022237 0.000001 0.013277
# 5 0.009354 -0.011510 0.015753 0.000001 0.038525 -0.000001
# 6 -0.000001 0.000002 0.000001 0.013277 -0.000001 0.039794
#
#
# Mechanical properties :
#
#
# Convention : Reuss Voigt Hill
#
# Bulk Modulus (GPa) = 45.94159 76.09218 61.01689
# Shear Modulus (GPa) = 24.44173 44.64820 34.54496
#
# Velocity S-wave (km/s) = 3.06268 4.13940 3.64106
# Velocity P-wave (km/s) = 5.48978 7.21443 6.41037
#
# Compressibility (1/GPa) = 0.02176677
#
# Stress axis : x y z
#
# Youngs Moduli (GPa) = 133.67720 34.15204 44.44443
#
# Poissons Ratio (x) = 0.21074 -0.12470
# Poissons Ratio (y) = 0.82488 0.68367
# Poissons Ratio (z) = -0.37508 0.52534
#
# Static dielectric constant tensor:
#      x y z
#    x 2.119100 0.000000 -0.176280 
#    y 0.000000 2.078860 0.000010 
#    z -0.176280 0.000010 2.488490 
# 
# From -- ./inp_files/12335.got.cif
#   From: 2010.05.17/outbox.cif.g08.bks.cpg/sg15_7_cif.got.tgz:12335.got - 2010.06.03 18:47:42.
