data_PCOD9271929
_publ_section_title
;
Structure prediction by ZEFSAII (Michael W. Deem and Ramdas Pophale) SiO2 
 PCOD9271929
Probable space group: C 2/C
;
_chemical_formula_sum "Si O2"
_cell_formula_units_Z 40
_cell_length_a 18.573682
_cell_length_b 8.410615
_cell_length_c 10.123537
_cell_angle_alpha 90.000000
_cell_angle_beta 107.734162
_cell_angle_gamma 90.000000
_cell_volume 1506.308459
_symmetry_space_group_name_H-M "C 2/C"
_symmetry_group_IT_number 15
_symmetry_cell_setting 'monoclinic'
loop_
_space_group_symop_operation_xyz
x,y,z
-x,y,1/2-z
-x,-y,-z
x,-y,1/2+z
1/2+x,1/2+y,z
1/2-x,1/2+y,1/2-z
1/2-x,1/2-y,-z
1/2+x,1/2-y,1/2+z
loop_
_atom_site_type_symbol
_atom_site_label
_atom_site_fract_x
_atom_site_fract_y
_atom_site_fract_z
Si Si1 0.292850 0.790562 0.275898
Si Si2 0.474833 0.151533 0.577670
Si Si3 0.079899 0.815628 0.452404
Si Si4 0.195391 0.010918 0.885756
Si Si5 0.850260 0.517332 0.118298
O O1 0.349404 0.711812 0.410655
O O2 0.213684 0.856681 0.283875
O O3 0.288082 0.662484 0.159290
O O4 0.339090 0.945437 0.255265
O O5 0.500000 0.155894 0.750000
O O6 0.507529 0.295440 0.505916
O O7 0.386521 0.120068 0.547547
O O8 0.500000 0.000000 0.500000
O O9 0.109674 0.967967 0.388772
O O10 0.092662 0.665257 0.361079
O O11 0.265261 0.048973 0.022859
#
# Coordination Sequence:
#
# PCOD9271929 Si02
#       5
#     8   8   8   8   8
#     4  11  20  36  59  85 126 165 210 271 331 381
#     4  10  20  39  66  93 126 168 218 265 327 389
#     4  10  21  38  59  88 127 161 214 270 332 381
#     4  11  22  36  58  93 126 167 213 272 325 389
#     4  10  20  36  62  92 116 163 216 272 320 391
#
# _framework density 26.554987000000001
#
# number of rings (size 3 to 8) (size 9 to 14) (size 15 to 20)
#    0.000    1.600    2.000    5.400    0.000    0.000 
#    0.000    1.000    0.000    0.000    0.000    0.000 
#    0.000    0.000    0.000    0.000    0.000    0.000 
#
# Total GULP energy -111551.896565 kJ/mol
# GULP energy per Si atom -5577.594828 kJ/mol
# Density = 2.649455 g / cm^3
# Si number density = 26.554987 Si / 1000 Ang^3
#
#
#
# Elastic Constant Matrix: (Units=GPa)
#
#
# Indices 1 2 3 4 5 6 
#
# 1 136.7033 32.6245 21.9761 0.0000 -53.1645 0.0000
# 2 32.6245 61.7716 36.0118 0.0000 -12.5296 0.0000
# 3 21.9761 36.0118 65.3073 0.0000 -21.1388 0.0000
# 4 0.0000 0.0000 0.0000 34.7849 0.0000 -21.9321
# 5 -53.1645 -12.5296 -21.1388 0.0000 41.9078 0.0000
# 6 0.0000 0.0000 0.0000 -21.9321 0.0000 41.8563
#
#
#
# Elastic Compliance Matrix: (Units=1/GPa)
#
#
# Indices 1 2 3 4 5 6 
#
# 1 0.016699 -0.007717 0.005673 0.000000 0.021739 0.000000
# 2 -0.007717 0.027437 -0.015592 0.000000 -0.009452 0.000000
# 3 0.005673 -0.015592 0.027275 0.000000 0.016292 0.000000
# 4 0.000000 0.000000 0.000000 0.042932 0.000000 0.022496
# 5 0.021739 -0.009452 0.016292 0.000000 0.056832 0.000000
# 6 0.000000 0.000000 0.000000 0.022496 0.000000 0.035679
#
#
# Mechanical properties :
#
#
# Convention : Reuss Voigt Hill
#
# Bulk Modulus (GPa) = 27.67176 49.44522 38.55849
# Shear Modulus (GPa) = 19.67162 35.25444 27.46303
#
# Velocity S-wave (km/s) = 2.72470 3.64758 3.21938
# Velocity P-wave (km/s) = 4.51019 6.03325 5.32644
#
# Compressibility (1/GPa) = 0.03613792
#
# Stress axis : x y z
#
# Youngs Moduli (GPa) = 59.88270 36.44681 36.66405
#
# Poissons Ratio (x) = 0.28127 -0.20798
# Poissons Ratio (y) = 0.46213 0.57167
# Poissons Ratio (z) = -0.33969 0.56828
#
# Static dielectric constant tensor:
#      x y z
#    x 2.023010 0.000000 -0.047640 
#    y 0.000000 2.176480 0.000000 
#    z -0.047640 0.000000 2.284850 
# 
# From -- ./inp_files/102798.got.cif
#   From: 2010.05.17/outbox.cif.g08.bks.cpg/sg15_52_cif.got.tgz:102798.got - 2010.06.03 18:47:42.
