data_PCOD9271643
_publ_section_title
;
Structure prediction by ZEFSAII (Michael W. Deem and Ramdas Pophale) SiO2 
 PCOD9271643
Probable space group: C 2/C
;
_chemical_formula_sum "Si O2"
_cell_formula_units_Z 52
_cell_length_a 14.462521
_cell_length_b 14.452408
_cell_length_c 14.069459
_cell_angle_alpha 90.000000
_cell_angle_beta 58.004917
_cell_angle_gamma 90.000000
_cell_volume 2494.051313
_symmetry_space_group_name_H-M "C 2/C"
_symmetry_group_IT_number 15
_symmetry_cell_setting 'monoclinic'
loop_
_space_group_symop_operation_xyz
x,y,z
-x,y,1/2-z
-x,-y,-z
x,-y,1/2+z
1/2+x,1/2+y,z
1/2-x,1/2+y,1/2-z
1/2-x,1/2-y,-z
1/2+x,1/2-y,1/2+z
loop_
_atom_site_type_symbol
_atom_site_label
_atom_site_fract_x
_atom_site_fract_y
_atom_site_fract_z
Si Si1 0.399645 0.086134 0.437825
Si Si2 0.000000 0.270788 0.250000
Si Si3 0.715512 0.847569 0.215991
Si Si4 0.774121 0.437594 0.822763
Si Si5 0.132580 0.425347 0.915767
Si Si6 0.597076 0.263817 0.515712
Si Si7 0.642699 0.265447 0.936697
O O1 0.373853 0.061480 0.343658
O O2 0.521249 0.068354 0.413207
O O3 0.366819 0.192931 0.471755
O O4 0.336121 0.017550 0.544831
O O5 0.909636 0.332984 0.248012
O O6 0.929791 0.209922 0.361883
O O7 0.710853 0.793179 0.319481
O O8 0.744781 0.955908 0.195367
O O9 0.801082 0.805204 0.094568
O O10 0.786563 0.394118 0.710893
O O11 0.690822 0.368103 0.920145
O O12 0.115496 0.346634 0.002802
O O13 0.482964 0.279633 0.525065
#
# Coordination Sequence:
#
# PCOD9271643 Si02
#       7
#     8   4   8   8   8   8   8
#     4  10  21  36  58  90 125 148 202 252 307 356
#     4  10  22  36  62  92 118 152 210 248 308 366
#     4  11  22  38  60  89 121 158 199 255 304 361
#     4  12  22  36  63  86 121 162 202 248 311 359
#     4  10  20  36  60  90 121 155 194 258 305 354
#     4  10  21  40  59  85 126 161 198 250 305 360
#     4  10  22  40  58  87 121 161 201 247 302 371
#
# _framework density 20.849610999999999
#
# number of rings (size 3 to 8) (size 9 to 14) (size 15 to 20)
#    0.000    1.538    3.077    2.308    4.308    0.615 
#    0.000    0.000    0.000    0.000    0.000    0.000 
#    0.000    0.000    0.000    0.000    0.000    0.000 
#
# Total GULP energy -144742.708239 kJ/mol
# GULP energy per Si atom -5567.027240 kJ/mol
# Density = 2.080216 g / cm^3
# Si number density = 20.849611 Si / 1000 Ang^3
#
#
#
# Elastic Constant Matrix: (Units=GPa)
#
#
# Indices 1 2 3 4 5 6 
#
# 1 21.7513 15.9066 9.7620 0.0000 -10.2960 0.0000
# 2 15.9066 76.5094 11.9064 0.0000 -13.3744 0.0000
# 3 9.7620 11.9064 98.9103 0.0000 -0.9876 0.0000
# 4 0.0000 0.0000 0.0000 21.9011 0.0000 -4.0324
# 5 -10.2960 -13.3744 -0.9876 0.0000 27.1360 0.0000
# 6 0.0000 0.0000 0.0000 -4.0324 0.0000 11.0725
#
#
#
# Elastic Compliance Matrix: (Units=1/GPa)
#
#
# Indices 1 2 3 4 5 6 
#
# 1 0.064233 -0.009127 -0.005044 0.000000 0.019689 0.000000
# 2 -0.009127 0.015875 -0.000967 0.000000 0.004326 0.000000
# 3 -0.005044 -0.000967 0.010704 0.000000 -0.002001 0.000000
# 4 0.000000 0.000000 0.000000 0.048941 0.000000 0.017824
# 5 0.019689 0.004326 -0.002001 0.000000 0.046381 0.000000
# 6 0.000000 0.000000 0.000000 0.017824 0.000000 0.096805
#
#
# Mechanical properties :
#
#
# Convention : Reuss Voigt Hill
#
# Bulk Modulus (GPa) = 16.51940 30.25789 23.38864
# Shear Modulus (GPa) = 14.99725 22.66167 18.82946
#
# Velocity S-wave (km/s) = 2.68490 3.30041 3.00844
# Velocity P-wave (km/s) = 4.18950 5.39143 4.82801
#
# Compressibility (1/GPa) = 0.06053488
#
# Stress axis : x y z
#
# Youngs Moduli (GPa) = 15.56831 62.99389 93.41939
#
# Poissons Ratio (x) = 0.57498 0.47123
# Poissons Ratio (y) = 0.14210 0.09033
# Poissons Ratio (z) = 0.07853 0.06091
#
# Static dielectric constant tensor:
#      x y z
#    x 1.772800 0.000000 0.011910 
#    y 0.000000 1.781250 0.000000 
#    z 0.011910 0.000000 1.828490 
# 
# From -- ./inp_files/153868.got.cif
#   From: 2010.05.17/outbox.cif.g08.bks.cpg/sg15_77_cif.got.tgz:153868.got - 2010.06.03 18:47:42.
