data_PCOD9271047
_publ_section_title
;
Structure prediction by ZEFSAII (Michael W. Deem and Ramdas Pophale) SiO2 
 PCOD9271047
Probable space group: C 2/C
;
_chemical_formula_sum "Si O2"
_cell_formula_units_Z 60
_cell_length_a 21.836938
_cell_length_b 9.638900
_cell_length_c 10.802424
_cell_angle_alpha 90.000000
_cell_angle_beta 103.662302
_cell_angle_gamma 90.000000
_cell_volume 2209.402066
_symmetry_space_group_name_H-M "C 2/C"
_symmetry_group_IT_number 15
_symmetry_cell_setting 'monoclinic'
loop_
_space_group_symop_operation_xyz
x,y,z
-x,y,1/2-z
-x,-y,-z
x,-y,1/2+z
1/2+x,1/2+y,z
1/2-x,1/2+y,1/2-z
1/2-x,1/2-y,-z
1/2+x,1/2-y,1/2+z
loop_
_atom_site_type_symbol
_atom_site_label
_atom_site_fract_x
_atom_site_fract_y
_atom_site_fract_z
Si Si1 0.915503 0.702454 0.892450
Si Si2 0.154272 0.245670 0.614431
Si Si3 0.000000 0.149633 0.250000
Si Si4 0.450109 0.390559 0.125508
Si Si5 0.932875 0.584367 0.282249
Si Si6 0.213163 0.755095 0.747728
Si Si7 0.682674 0.492494 0.933774
Si Si8 0.316818 0.983959 0.074122
O O1 0.926543 0.541134 0.878647
O O2 0.842495 0.742979 0.876664
O O3 0.878914 0.562640 0.150158
O O4 0.942115 0.763889 0.775324
O O5 0.090216 0.282499 0.651510
O O6 0.212703 0.257669 0.738565
O O7 0.160588 0.103286 0.540778
O O8 0.166762 0.370066 0.522707
O O9 0.975389 0.048924 0.128958
O O10 0.500000 0.340217 0.250000
O O11 0.451125 0.282944 0.015780
O O12 0.377126 0.414079 0.127606
O O13 0.000000 0.567680 0.250000
O O14 0.196571 0.885877 0.827799
O O15 0.202687 0.613694 0.819986
O O16 0.751131 0.555305 0.001187
#
# Coordination Sequence:
#
# PCOD9271047 Si02
#       8
#     8   8   4   8   8   8   8   8
#     4  11  20  37  61  91 134 177 218 275 340 404
#     4   9  19  35  62  92 129 170 226 272 326 395
#     4  10  20  36  56  92 122 164 228 272 340 392
#     4  10  22  34  63  98 126 168 221 284 347 395
#     4  11  23  38  63  94 133 181 228 268 328 413
#     4   8  15  33  60  93 121 169 224 268 323 398
#     4   9  16  36  63  93 128 165 219 285 333 399
#     4   8  18  34  60  92 126 170 222 267 323 400
#
# _framework density 27.156669000000001
#
# number of rings (size 3 to 8) (size 9 to 14) (size 15 to 20)
#    0.400    2.133    2.000    2.000    1.867    0.533 
#    0.000    0.000    4.400    4.800    0.000    0.000 
#    0.000    0.000    0.000    0.000    0.000    0.000 
#
# Total GULP energy -167894.347259 kJ/mol
# GULP energy per Si atom -5596.478242 kJ/mol
# Density = 2.709486 g / cm^3
# Si number density = 27.156669 Si / 1000 Ang^3
#
#
#
# Elastic Constant Matrix: (Units=GPa)
#
#
# Indices 1 2 3 4 5 6 
#
# 1 233.5091 46.3890 76.2403 0.0000 16.7345 0.0000
# 2 46.3890 87.2115 40.4577 0.0000 -11.1277 0.0000
# 3 76.2403 40.4577 86.5451 0.0000 25.0278 0.0000
# 4 0.0000 0.0000 0.0000 34.4818 0.0000 -5.7441
# 5 16.7345 -11.1277 25.0278 0.0000 41.6229 0.0000
# 6 0.0000 0.0000 0.0000 -5.7441 0.0000 25.3680
#
#
#
# Elastic Compliance Matrix: (Units=1/GPa)
#
#
# Indices 1 2 3 4 5 6 
#
# 1 0.006077 -0.000826 -0.005081 0.000000 0.000391 0.000000
# 2 -0.000826 0.018929 -0.011719 0.000000 0.012439 0.000000
# 3 -0.005081 -0.011719 0.026418 0.000000 -0.016975 0.000000
# 4 0.000000 0.000000 0.000000 0.030138 0.000000 0.006824
# 5 0.000391 0.012439 -0.016975 0.000000 0.037401 0.000000
# 6 0.000000 0.000000 0.000000 0.006824 0.000000 0.040965
#
#
# Mechanical properties :
#
#
# Convention : Reuss Voigt Hill
#
# Bulk Modulus (GPa) = 61.82859 81.49332 71.66096
# Shear Modulus (GPa) = 24.92909 36.57313 30.75111
#
# Velocity S-wave (km/s) = 3.03309 3.67378 3.36871
# Velocity P-wave (km/s) = 5.92309 6.93320 6.44796
#
# Compressibility (1/GPa) = 0.01617375
#
# Stress axis : x y z
#
# Youngs Moduli (GPa) = 164.54433 52.82871 37.85349
#
# Poissons Ratio (x) = 0.04363 0.19232
# Poissons Ratio (y) = 0.13588 0.44359
# Poissons Ratio (z) = 0.83601 0.61908
#
# Static dielectric constant tensor:
#      x y z
#    x 2.071280 0.000000 0.033820 
#    y 0.000000 2.137470 0.000000 
#    z 0.033820 0.000000 2.182130 
# 
# From -- ./inp_files/167272.got.cif
#   From: 2010.05.17/outbox.cif.g08.bks.cpg/sg15_84_cif.got.tgz:167272.got - 2010.06.03 18:47:42.
