data_PCOD9271906
_publ_section_title
;
Structure prediction by ZEFSAII (Michael W. Deem and Ramdas Pophale) SiO2 
 PCOD9271906
Probable space group: C 2/C
;
_chemical_formula_sum "Si O2"
_cell_formula_units_Z 56
_cell_length_a 11.248041
_cell_length_b 18.727367
_cell_length_c 22.506612
_cell_angle_alpha 90.000000
_cell_angle_beta 32.656058
_cell_angle_gamma 90.000000
_cell_volume 2558.182217
_symmetry_space_group_name_H-M "C 2/C"
_symmetry_group_IT_number 15
_symmetry_cell_setting 'monoclinic'
loop_
_space_group_symop_operation_xyz
x,y,z
-x,y,1/2-z
-x,-y,-z
x,-y,1/2+z
1/2+x,1/2+y,z
1/2-x,1/2+y,1/2-z
1/2-x,1/2-y,-z
1/2+x,1/2-y,1/2+z
loop_
_atom_site_type_symbol
_atom_site_label
_atom_site_fract_x
_atom_site_fract_y
_atom_site_fract_z
Si Si1 0.500000 0.372313 0.250000
Si Si2 0.269611 0.151380 0.310572
Si Si3 0.905760 0.207385 0.549678
Si Si4 0.165748 0.500066 0.876502
Si Si5 0.367748 0.149780 0.133611
Si Si6 0.500000 0.874977 0.250000
Si Si7 0.612026 0.371413 0.077913
Si Si8 0.777393 0.989565 0.202303
O O1 0.700709 0.427503 0.170057
O O2 0.529138 0.334469 0.174453
O O3 0.500000 0.158981 0.250000
O O4 0.290817 0.171354 0.232096
O O5 0.076129 0.194285 0.424870
O O6 0.208654 0.066195 0.334742
O O7 0.864240 0.287884 0.587222
O O8 0.664587 0.172804 0.641497
O O9 0.022242 0.170423 0.558476
O O10 0.261183 0.419642 0.835810
O O11 0.117594 0.503478 0.826536
O O12 0.000000 0.500000 0.000000
O O13 0.625568 0.128678 0.032653
O O14 0.664375 0.928514 0.212507
O O15 0.510290 0.452168 0.121514
#
# Coordination Sequence:
#
# PCOD9271906 Si02
#       8
#     4   8   8   8   8   4   8   8
#     4  10  20  37  60  97 118 162 200 262 312 360
#     4  11  22  38  64  93 125 159 211 262 315 363
#     4  11  25  42  62  92 126 171 207 257 312 383
#     4  10  20  38  61  89 122 157 207 256 307 365
#     4  11  23  41  60  91 127 166 206 256 314 376
#     4  10  22  45  64  87 130 164 212 254 312 380
#     4  10  20  36  62  90 125 155 209 252 307 372
#     4   9  21  38  63  97 120 164 205 263 315 360
#
# _framework density 21.890543000000001
#
# number of rings (size 3 to 8) (size 9 to 14) (size 15 to 20)
#    0.000    1.714    3.571    0.429    0.000    6.286 
#    5.143    0.714    0.000    0.000    0.000    0.000 
#    0.000    0.000    0.000    0.000    0.000    0.000 
#
# Total GULP energy -156088.313455 kJ/mol
# GULP energy per Si atom -5574.582623 kJ/mol
# Density = 2.184072 g / cm^3
# Si number density = 21.890543 Si / 1000 Ang^3
#
#
#
# Elastic Constant Matrix: (Units=GPa)
#
#
# Indices 1 2 3 4 5 6 
#
# 1 25.0059 12.0328 19.6918 0.4353 18.4924 -0.1735
# 2 12.0328 59.5836 -3.5070 -1.2237 11.2745 0.5015
# 3 19.6918 -3.5070 103.3166 2.2418 33.6853 -0.9058
# 4 0.4353 -1.2237 2.2418 1765.5486 0.5235 -700.7365
# 5 18.4924 11.2745 33.6853 0.5235 42.1849 -0.2161
# 6 -0.1735 0.5015 -0.9058 -700.7365 -0.2161 304.1640
#
#
#
# Elastic Compliance Matrix: (Units=1/GPa)
#
#
# Indices 1 2 3 4 5 6 
#
# 1 0.064774 -0.009382 -0.005710 -0.000010 -0.021327 -0.000003
# 2 -0.009382 0.019700 0.003829 0.000008 -0.004210 -0.000011
# 3 -0.005710 0.003829 0.014081 -0.000010 -0.009764 0.000003
# 4 -0.000010 0.000008 -0.000010 0.006614 0.000006 0.015238
# 5 -0.021327 -0.004210 -0.009764 0.000006 0.041976 0.000009
# 6 -0.000003 -0.000011 0.000003 0.015238 0.000009 0.038394
#
#
# Mechanical properties :
#
#
# Convention : Reuss Voigt Hill
#
# Bulk Modulus (GPa) = 13.15278 27.14903 20.15091
# Shear Modulus (GPa) = 21.42160 433.02539 227.22349
#
# Velocity S-wave (km/s) = 3.13162 14.07989 10.19927
# Velocity P-wave (km/s) = 4.37007 16.63591 12.16246
#
# Compressibility (1/GPa) = 0.07602953
#
# Stress axis : x y z
#
# Youngs Moduli (GPa) = 15.43825 50.76117 71.01748
#
# Poissons Ratio (x) = 0.47623 0.40554
# Poissons Ratio (y) = 0.14484 -0.27195
# Poissons Ratio (z) = 0.08816 -0.19438
#
# Static dielectric constant tensor:
#      x y z
#    x 1.847310 0.000010 -0.035130 
#    y 0.000010 1.905850 -0.000020 
#    z -0.035130 -0.000020 1.849190 
# 
# From -- ./inp_files/270942.got.cif
#   From: 2010.05.17/outbox.cif.g08.bks.cpg/sg15_136_cif.got.tgz:270942.got - 2010.06.03 18:47:42.
