data_PCOD9271464
_publ_section_title
;
Structure prediction by ZEFSAII (Michael W. Deem and Ramdas Pophale) SiO2 
 PCOD9271464
Probable space group: C 2/C
;
_chemical_formula_sum "Si O2"
_cell_formula_units_Z 48
_cell_length_a 13.070416
_cell_length_b 17.980341
_cell_length_c 14.667986
_cell_angle_alpha 90.000000
_cell_angle_beta 138.378785
_cell_angle_gamma 90.000000
_cell_volume 2289.595117
_symmetry_space_group_name_H-M "C 2/C"
_symmetry_group_IT_number 15
_symmetry_cell_setting 'monoclinic'
loop_
_space_group_symop_operation_xyz
x,y,z
-x,y,1/2-z
-x,-y,-z
x,-y,1/2+z
1/2+x,1/2+y,z
1/2-x,1/2+y,1/2-z
1/2-x,1/2-y,-z
1/2+x,1/2-y,1/2+z
loop_
_atom_site_type_symbol
_atom_site_label
_atom_site_fract_x
_atom_site_fract_y
_atom_site_fract_z
Si Si1 0.506969 0.963467 0.363144
Si Si2 0.688290 0.279921 0.053332
Si Si3 0.614189 0.803651 0.157355
Si Si4 0.991194 0.087479 0.465202
Si Si5 0.243539 0.530359 0.174395
Si Si6 0.589619 0.370687 0.218985
O O1 0.500000 0.978395 0.250000
O O2 0.436057 0.883116 0.336554
O O3 0.669926 0.959114 0.525252
O O4 0.398085 0.019610 0.348384
O O5 0.533809 0.236778 0.978935
O O6 0.639501 0.367629 0.024024
O O7 0.750000 0.250000 0.000000
O O8 0.821406 0.261529 0.212599
O O9 0.763416 0.817280 0.195312
O O10 0.858621 0.088172 0.300212
O O11 0.979992 0.127472 0.556585
O O12 0.000000 0.000000 0.500000
O O13 0.337079 0.453256 0.228360
O O14 0.500000 0.353724 0.250000
#
# Coordination Sequence:
#
# PCOD9271464 Si02
#       6
#     8   8   8   8   8   8
#     4  10  20  36  59  88 132 168 211 276 346 379
#     4  11  22  40  63  93 127 174 210 270 338 405
#     4  10  23  40  58  89 133 162 216 272 328 406
#     4   9  20  39  61  91 130 159 223 275 321 398
#     4   9  20  36  58  92 122 170 220 272 317 419
#     4   9  19  39  63  88 122 170 213 273 336 382
#
# _framework density 20.964406
#
# number of rings (size 3 to 8) (size 9 to 14) (size 15 to 20)
#    0.000    2.333    0.000    2.500    4.667    0.000 
#    6.000    3.333    0.000    1.000    0.000    0.000 
#    0.000    0.000    0.000    0.000    0.000    0.000 
#
# Total GULP energy -133710.712135 kJ/mol
# GULP energy per Si atom -5571.279672 kJ/mol
# Density = 2.091669 g / cm^3
# Si number density = 20.964406 Si / 1000 Ang^3
#
#
#
# Elastic Constant Matrix: (Units=GPa)
#
#
# Indices 1 2 3 4 5 6 
#
# 1 86.3461 14.7874 -7.7066 -0.0002 -32.3542 -0.0002
# 2 14.7874 49.6789 1.0253 -0.0001 -3.3263 -0.0001
# 3 -7.7066 1.0253 110.0158 -0.0003 -23.1468 -0.0004
# 4 -0.0002 -0.0001 -0.0003 31.7384 -0.0001 1.8909
# 5 -32.3542 -3.3263 -23.1468 -0.0001 29.2459 -0.0001
# 6 -0.0002 -0.0001 -0.0004 1.8909 -0.0001 15.7644
#
#
#
# Elastic Compliance Matrix: (Units=1/GPa)
#
#
# Indices 1 2 3 4 5 6 
#
# 1 0.027622 -0.005900 0.009932 0.000000 0.037748 0.000001
# 2 -0.005900 0.021555 -0.001766 0.000000 -0.005472 0.000000
# 3 0.009932 -0.001766 0.014483 0.000000 0.022249 0.000001
# 4 0.000000 0.000000 0.000000 0.031734 0.000001 -0.003806
# 5 0.037748 -0.005472 0.022249 0.000001 0.092939 0.000002
# 6 0.000001 0.000000 0.000001 -0.003806 0.000002 0.063891
#
#
# Mechanical properties :
#
#
# Convention : Reuss Voigt Hill
#
# Bulk Modulus (GPa) = 14.66402 29.13922 21.90162
# Shear Modulus (GPa) = 18.48957 31.21207 24.85082
#
# Velocity S-wave (km/s) = 2.97299 3.86270 3.44667
# Velocity P-wave (km/s) = 4.33529 5.81580 5.12924
#
# Compressibility (1/GPa) = 0.06819410
#
# Stress axis : x y z
#
# Youngs Moduli (GPa) = 36.20262 46.39211 69.04680
#
# Poissons Ratio (x) = 0.27370 -0.68576
# Poissons Ratio (y) = 0.21358 0.12190
# Poissons Ratio (z) = -0.35956 0.08191
#
# Static dielectric constant tensor:
#      x y z
#    x 1.725080 0.000000 -0.006800 
#    y 0.000000 1.812950 0.000000 
#    z -0.006800 0.000000 1.802670 
# 
# From -- ./inp_files/147460.got.cif
#   From: 2010.05.17/outbox.cif.g08.bks.cpg/sg15_74_cif.got.tgz:147460.got - 2010.06.03 18:47:42.
