data_PCOD9271404
_publ_section_title
;
Structure prediction by ZEFSAII (Michael W. Deem and Ramdas Pophale) SiO2 
 PCOD9271404
Probable space group: C 2/C
;
_chemical_formula_sum "Si O2"
_cell_formula_units_Z 64
_cell_length_a 9.205915
_cell_length_b 14.089301
_cell_length_c 32.764105
_cell_angle_alpha 90.000000
_cell_angle_beta 131.059682
_cell_angle_gamma 90.000000
_cell_volume 3204.357158
_symmetry_space_group_name_H-M "C 2/C"
_symmetry_group_IT_number 15
_symmetry_cell_setting 'monoclinic'
loop_
_space_group_symop_operation_xyz
x,y,z
-x,y,1/2-z
-x,-y,-z
x,-y,1/2+z
1/2+x,1/2+y,z
1/2-x,1/2+y,1/2-z
1/2-x,1/2-y,-z
1/2+x,1/2-y,1/2+z
loop_
_atom_site_type_symbol
_atom_site_label
_atom_site_fract_x
_atom_site_fract_y
_atom_site_fract_z
Si Si1 0.691515 0.589580 0.379526
Si Si2 0.577772 0.405761 0.406292
Si Si3 0.897465 0.367294 0.834100
Si Si4 0.668345 0.239281 0.938292
Si Si5 0.512258 0.394476 0.018765
Si Si6 0.270217 0.155430 0.705025
Si Si7 0.633018 0.493224 0.735359
Si Si8 0.711025 0.276206 0.590113
O O1 0.682919 0.497839 0.407376
O O2 0.845238 0.597793 0.370671
O O3 0.716727 0.678574 0.414437
O O4 0.487705 0.574297 0.317934
O O5 0.588687 0.395824 0.456349
O O6 0.349677 0.396354 0.353413
O O7 0.680008 0.317096 0.404343
O O8 0.786648 0.266305 0.807832
O O9 0.818598 0.439799 0.786308
O O10 0.121550 0.349371 0.867922
O O11 0.768501 0.144361 0.940090
O O12 0.439887 0.247483 0.902911
O O13 0.750000 0.250000 0.000000
O O14 0.500000 0.500000 0.000000
O O15 0.402314 0.323355 0.968286
O O16 0.500000 0.146690 0.750000
O O17 0.182089 0.095416 0.726108
O O18 0.500000 0.506015 0.750000
#
# Coordination Sequence:
#
# PCOD9271404 Si02
#       8
#     8   8   8   8   8   8   8   8
#     4  10  20  39  62  85 118 159 198 245 297 354
#     4  10  21  38  59  86 117 152 198 244 292 352
#     4  10  21  40  61  86 119 158 198 244 298 357
#     4  10  21  38  58  83 116 152 194 243 295 351
#     4  11  23  40  60  84 116 155 195 244 297 354
#     4  10  20  36  59  85 115 154 193 236 292 353
#     4   9  20  38  60  87 120 156 199 245 297 355
#     4  10  22  39  59  88 119 152 197 243 294 354
#
# _framework density 19.972805000000001
#
# number of rings (size 3 to 8) (size 9 to 14) (size 15 to 20)
#    0.000    2.000    0.000    4.500    0.000    5.000 
#    0.000   18.125    0.000    0.000    0.000    0.000 
#    0.000    0.000    0.000    0.000    0.000    0.000 
#
# Total GULP energy -178375.228780 kJ/mol
# GULP energy per Si atom -5574.225899 kJ/mol
# Density = 1.992735 g / cm^3
# Si number density = 19.972805 Si / 1000 Ang^3
#
#
#
# Elastic Constant Matrix: (Units=GPa)
#
#
# Indices 1 2 3 4 5 6 
#
# 1 61.8028 26.9299 27.2651 0.0000 14.3833 0.0000
# 2 26.9299 75.6147 20.6014 0.0000 -7.5080 0.0000
# 3 27.2651 20.6014 40.1366 0.0000 2.5746 0.0000
# 4 0.0000 0.0000 0.0000 31.8279 0.0000 -9.2916
# 5 14.3833 -7.5080 2.5746 0.0000 33.9674 0.0000
# 6 0.0000 0.0000 0.0000 -9.2916 0.0000 24.0954
#
#
#
# Elastic Compliance Matrix: (Units=1/GPa)
#
#
# Indices 1 2 3 4 5 6 
#
# 1 0.029106 -0.007533 -0.015081 0.000000 -0.012847 0.000000
# 2 -0.007533 0.017890 -0.004546 0.000000 0.007488 0.000000
# 3 -0.015081 -0.004546 0.037329 0.000000 0.002552 0.000000
# 4 0.000000 0.000000 0.000000 0.035405 0.000000 0.013653
# 5 -0.012847 0.007488 0.002552 0.000000 0.036342 0.000000
# 6 0.000000 0.000000 0.000000 0.013653 0.000000 0.046766
#
#
# Mechanical properties :
#
#
# Convention : Reuss Voigt Hill
#
# Bulk Modulus (GPa) = 33.32750 36.34965 34.83857
# Shear Modulus (GPa) = 18.71545 24.82868 21.77206
#
# Velocity S-wave (km/s) = 3.06444 3.52962 3.30523
# Velocity P-wave (km/s) = 5.40775 5.90339 5.66100
#
# Compressibility (1/GPa) = 0.03000525
#
# Stress axis : x y z
#
# Youngs Moduli (GPa) = 34.35739 55.89797 26.78852
#
# Poissons Ratio (x) = 0.42105 0.40401
# Poissons Ratio (y) = 0.25880 0.12178
# Poissons Ratio (z) = 0.51816 0.25411
#
# Static dielectric constant tensor:
#      x y z
#    x 1.700400 0.000000 0.029130 
#    y 0.000000 1.696150 0.000000 
#    z 0.029130 0.000000 1.756460 
# 
# From -- ./inp_files/308278.got.cif
#   From: 2010.05.17/outbox.cif.g08.bks.cpg/sg15_155_cif.got.tgz:308278.got - 2010.06.03 18:47:42.
