data_PCOD9271403
_publ_section_title
;
Structure prediction by ZEFSAII (Michael W. Deem and Ramdas Pophale) SiO2 
 PCOD9271403
Probable space group: C 2/C
;
_chemical_formula_sum "Si O2"
_cell_formula_units_Z 48
_cell_length_a 11.062531
_cell_length_b 8.673431
_cell_length_c 23.196410
_cell_angle_alpha 90.000000
_cell_angle_beta 101.910441
_cell_angle_gamma 90.000000
_cell_volume 2177.781668
_symmetry_space_group_name_H-M "C 2/C"
_symmetry_group_IT_number 15
_symmetry_cell_setting 'monoclinic'
loop_
_space_group_symop_operation_xyz
x,y,z
-x,y,1/2-z
-x,-y,-z
x,-y,1/2+z
1/2+x,1/2+y,z
1/2-x,1/2+y,1/2-z
1/2-x,1/2-y,-z
1/2+x,1/2-y,1/2+z
loop_
_atom_site_type_symbol
_atom_site_label
_atom_site_fract_x
_atom_site_fract_y
_atom_site_fract_z
Si Si1 0.863254 0.136317 0.496989
Si Si2 0.469971 0.838349 0.916378
Si Si3 0.873345 0.095211 0.220752
Si Si4 0.205000 0.533513 0.898574
Si Si5 0.298704 0.609742 0.083451
Si Si6 0.675308 0.663175 0.696103
O O1 0.750000 0.250000 0.500000
O O2 0.981900 0.236683 0.525073
O O3 0.824193 0.062241 0.432666
O O4 0.857762 0.993763 0.540579
O O5 0.347155 0.929182 0.923554
O O6 0.424474 0.728642 0.859386
O O7 0.581648 0.943376 0.904340
O O8 0.862521 0.075568 0.151119
O O9 0.753779 0.192948 0.226238
O O10 0.000000 0.179417 0.250000
O O11 0.873041 0.939698 0.257397
O O12 0.198179 0.705562 0.925288
O O13 0.228631 0.565958 0.833934
#
# Coordination Sequence:
#
# PCOD9271403 Si02
#       6
#     8   8   8   8   8   8
#     4  10  20  36  59  85 114 148 187 228 278 334
#     4   9  20  39  57  82 114 145 186 232 276 331
#     4  10  22  39  58  81 111 146 186 231 275 328
#     4   9  20  38  58  83 114 147 184 229 279 332
#     4  10  22  38  57  84 113 148 190 227 278 334
#     4  10  23  38  57  85 111 145 190 227 279 335
#
# _framework density 22.040776000000001
#
# number of rings (size 3 to 8) (size 9 to 14) (size 15 to 20)
#    0.000    2.667    0.000    1.500    0.000   14.667 
#    0.000   10.000    0.000    0.000    0.000    0.000 
#    0.000    0.000    0.000    0.000    0.000    0.000 
#
# Total GULP energy -134022.300477 kJ/mol
# GULP energy per Si atom -5584.262520 kJ/mol
# Density = 2.199061 g / cm^3
# Si number density = 22.040776 Si / 1000 Ang^3
#
#
#
# Elastic Constant Matrix: (Units=GPa)
#
#
# Indices 1 2 3 4 5 6 
#
# 1 91.6952 3.5382 10.1539 0.0000 14.5665 0.0000
# 2 3.5382 53.1771 11.7345 0.0000 -3.0371 0.0000
# 3 10.1539 11.7345 29.4389 0.0000 4.8782 0.0000
# 4 0.0000 0.0000 0.0000 22.9376 0.0000 -1.7861
# 5 14.5665 -3.0371 4.8782 0.0000 26.0188 0.0000
# 6 0.0000 0.0000 0.0000 -1.7861 0.0000 26.7864
#
#
#
# Elastic Compliance Matrix: (Units=1/GPa)
#
#
# Indices 1 2 3 4 5 6 
#
# 1 0.012267 -0.000526 -0.002965 0.000000 -0.006373 0.000000
# 2 -0.000526 0.021068 -0.008951 0.000000 0.004432 0.000000
# 3 -0.002965 -0.008951 0.039691 0.000000 -0.006826 0.000000
# 4 0.000000 0.000000 0.000000 0.043824 0.000000 0.002922
# 5 -0.006373 0.004432 -0.006826 0.000000 0.043799 0.000000
# 6 0.000000 0.000000 0.000000 0.002922 0.000000 0.037527
#
#
# Mechanical properties :
#
#
# Convention : Reuss Voigt Hill
#
# Bulk Modulus (GPa) = 20.77219 25.01828 22.89523
# Shear Modulus (GPa) = 20.91111 25.07418 22.99265
#
# Velocity S-wave (km/s) = 3.08351 3.37653 3.23334
# Velocity P-wave (km/s) = 4.70344 5.15527 4.93453
#
# Compressibility (1/GPa) = 0.04814129
#
# Stress axis : x y z
#
# Youngs Moduli (GPa) = 81.52133 47.46440 25.19491
#
# Poissons Ratio (x) = 0.02496 0.07471
# Poissons Ratio (y) = 0.04286 0.22552
# Poissons Ratio (z) = 0.24174 0.42486
#
# Static dielectric constant tensor:
#      x y z
#    x 1.846810 0.000000 -0.000240 
#    y 0.000000 1.811870 0.000000 
#    z -0.000240 0.000000 1.792060 
# 
# From -- ./inp_files/267624.got.cif
#   From: 2010.05.17/outbox.cif.g08.bks.cpg/sg15_134_cif.got.tgz:267624.got - 2010.06.03 18:47:42.
