data_PCOD9271901
_publ_section_title
;
Structure prediction by ZEFSAII (Michael W. Deem and Ramdas Pophale) SiO2 
 PCOD9271901
Probable space group: C 2/C
;
_chemical_formula_sum "Si O2"
_cell_formula_units_Z 64
_cell_length_a 16.741740
_cell_length_b 8.966142
_cell_length_c 27.345247
_cell_angle_alpha 90.000000
_cell_angle_beta 133.549390
_cell_angle_gamma 90.000000
_cell_volume 2975.052903
_symmetry_space_group_name_H-M "C 2/C"
_symmetry_group_IT_number 15
_symmetry_cell_setting 'monoclinic'
loop_
_space_group_symop_operation_xyz
x,y,z
-x,y,1/2-z
-x,-y,-z
x,-y,1/2+z
1/2+x,1/2+y,z
1/2-x,1/2+y,1/2-z
1/2-x,1/2-y,-z
1/2+x,1/2-y,1/2+z
loop_
_atom_site_type_symbol
_atom_site_label
_atom_site_fract_x
_atom_site_fract_y
_atom_site_fract_z
Si Si1 0.677386 0.185094 0.035318
Si Si2 0.747767 0.154624 0.675283
Si Si3 0.904067 0.616893 0.978286
Si Si4 0.435176 0.173738 0.306913
Si Si5 0.781561 0.309747 0.838799
Si Si6 0.593771 0.657703 0.413132
Si Si7 0.875851 0.192045 0.556434
Si Si8 0.097129 0.332510 0.208379
O O1 0.664824 0.224355 0.086562
O O2 0.798780 0.225615 0.068121
O O3 0.671377 0.007402 0.027385
O O4 0.587447 0.257457 0.962346
O O5 0.669488 0.187849 0.595829
O O6 0.858755 0.247812 0.733305
O O7 0.670813 0.171672 0.690351
O O8 0.768020 0.977173 0.679147
O O9 0.929979 0.739667 0.029703
O O10 0.000000 0.500000 0.000000
O O11 0.363364 0.192482 0.326973
O O12 0.553862 0.243649 0.368351
O O13 0.450260 0.997529 0.305864
O O14 0.681495 0.199452 0.787128
O O15 0.609293 0.485075 0.432335
O O16 0.491539 0.702825 0.336615
O O17 0.750000 0.250000 0.500000
#
# Coordination Sequence:
#
# PCOD9271901 Si02
#       8
#     8   8   8   8   8   8   8   8
#     4  10  21  38  58  85 120 163 204 253 313 375
#     4   9  19  37  62  92 121 159 208 258 307 372
#     4  11  21  41  68  93 126 167 213 261 322 381
#     4  10  21  38  62  89 123 162 208 261 318 374
#     4   9  19  38  62  87 116 155 207 252 308 374
#     4  11  23  37  58  85 124 162 205 258 315 385
#     4  12  24  40  61  91 122 167 213 261 320 386
#     4  10  20  36  62  90 122 162 200 256 318 372
#
# _framework density 21.512222000000001
#
# number of rings (size 3 to 8) (size 9 to 14) (size 15 to 20)
#    0.000    1.750    1.250    4.500    1.750    2.500 
#    0.000    5.000    2.750    0.000    0.000    0.000 
#    0.000    0.000    0.000    0.000    0.000    0.000 
#
# Total GULP energy -178483.346986 kJ/mol
# GULP energy per Si atom -5577.604593 kJ/mol
# Density = 2.146326 g / cm^3
# Si number density = 21.512222 Si / 1000 Ang^3
#
#
#
# Elastic Constant Matrix: (Units=GPa)
#
#
# Indices 1 2 3 4 5 6 
#
# 1 34.6572 19.0557 20.5528 0.0000 2.4495 0.0000
# 2 19.0557 33.9175 36.8453 0.0000 -1.9086 0.0000
# 3 20.5528 36.8453 125.4025 0.0000 9.7415 0.0000
# 4 0.0000 0.0000 0.0000 45.4168 0.0000 -4.0943
# 5 2.4495 -1.9086 9.7415 0.0000 22.4880 0.0000
# 6 0.0000 0.0000 0.0000 -4.0943 0.0000 18.8277
#
#
#
# Elastic Compliance Matrix: (Units=1/GPa)
#
#
# Indices 1 2 3 4 5 6 
#
# 1 0.042834 -0.025657 0.001086 0.000000 -0.007314 0.000000
# 2 -0.025657 0.060731 -0.014753 0.000000 0.014340 0.000000
# 3 0.001086 -0.014753 0.012663 0.000000 -0.006856 0.000000
# 4 0.000000 0.000000 0.000000 0.022459 0.000000 0.004884
# 5 -0.007314 0.014340 -0.006856 0.000000 0.049452 0.000000
# 6 0.000000 0.000000 0.000000 0.004884 0.000000 0.054175
#
#
# Mechanical properties :
#
#
# Convention : Reuss Voigt Hill
#
# Bulk Modulus (GPa) = 26.60849 38.54276 32.57563
# Shear Modulus (GPa) = 14.99309 25.18138 20.08724
#
# Velocity S-wave (km/s) = 2.64286 3.42506 3.05906
# Velocity P-wave (km/s) = 4.65927 5.79629 5.25860
#
# Compressibility (1/GPa) = 0.03758199
#
# Stress axis : x y z
#
# Youngs Moduli (GPa) = 23.34620 16.46607 78.96730
#
# Poissons Ratio (x) = 0.42246 -0.08578
# Poissons Ratio (y) = 0.59898 1.16498
# Poissons Ratio (z) = -0.02536 0.24292
#
# Static dielectric constant tensor:
#      x y z
#    x 1.868850 0.000000 0.024530 
#    y 0.000000 1.757660 0.000000 
#    z 0.024530 0.000000 1.813390 
# 
# From -- ./inp_files/315762.got.cif
#   From: 2010.05.17/outbox.cif.g08.bks.cpg/sg15_158_cif.got.tgz:315762.got - 2010.06.03 18:47:42.
