data_PCOD9271278
_publ_section_title
;
Structure prediction by ZEFSAII (Michael W. Deem and Ramdas Pophale) SiO2 
 PCOD9271278
Probable space group: C 2/C
;
_chemical_formula_sum "Si O2"
_cell_formula_units_Z 56
_cell_length_a 21.685835
_cell_length_b 13.430883
_cell_length_c 8.906572
_cell_angle_alpha 90.000000
_cell_angle_beta 92.048960
_cell_angle_gamma 90.000000
_cell_volume 2592.468802
_symmetry_space_group_name_H-M "C 2/C"
_symmetry_group_IT_number 15
_symmetry_cell_setting 'monoclinic'
loop_
_space_group_symop_operation_xyz
x,y,z
-x,y,1/2-z
-x,-y,-z
x,-y,1/2+z
1/2+x,1/2+y,z
1/2-x,1/2+y,1/2-z
1/2-x,1/2-y,-z
1/2+x,1/2-y,1/2+z
loop_
_atom_site_type_symbol
_atom_site_label
_atom_site_fract_x
_atom_site_fract_y
_atom_site_fract_z
Si Si1 0.359207 0.247852 0.533872
Si Si2 0.976696 0.653367 0.416180
Si Si3 0.393609 0.454768 0.066391
Si Si4 0.812677 0.912318 0.333795
Si Si5 0.933765 0.135455 0.271761
Si Si6 0.674398 0.046886 0.828784
Si Si7 0.407846 0.059203 0.960286
O O1 0.425935 0.233226 0.460131
O O2 0.313784 0.308973 0.423360
O O3 0.377342 0.303369 0.691347
O O4 0.332192 0.139210 0.558855
O O5 0.943067 0.545452 0.430608
O O6 0.000000 0.668278 0.250000
O O7 0.039086 0.640760 0.517640
O O8 0.349501 0.400845 0.181860
O O9 0.432655 0.532224 0.172236
O O10 0.351378 0.518760 0.949940
O O11 0.428058 0.386038 0.948793
O O12 0.746483 0.962954 0.303377
O O13 0.000000 0.184117 0.250000
O O14 0.637793 0.078564 0.678703
O O15 0.635494 0.956954 0.898085
#
# Coordination Sequence:
#
# PCOD9271278 Si02
#       7
#     8   8   8   8   8   8   8
#     4  10  24  35  56  85 121 160 188 244 307 349
#     4  10  20  38  58  86 123 152 197 248 295 366
#     4   9  20  38  62  82 112 148 204 238 288 354
#     4  10  20  40  59  85 117 157 198 246 293 351
#     4  10  20  36  58  87 111 149 189 245 297 349
#     4  11  21  38  59  86 118 155 202 245 293 351
#     4  10  21  35  62  88 112 156 203 246 296 346
#
# _framework density 21.601030999999999
#
# number of rings (size 3 to 8) (size 9 to 14) (size 15 to 20)
#    0.000    2.000    1.429    1.714    2.000    1.143 
#    0.000    2.143    0.000    0.000    0.000    0.000 
#    0.000    0.000    0.000    0.000    0.000    0.000 
#
# Total GULP energy -156269.878325 kJ/mol
# GULP energy per Si atom -5581.067083 kJ/mol
# Density = 2.155187 g / cm^3
# Si number density = 21.601031 Si / 1000 Ang^3
#
#
#
# Elastic Constant Matrix: (Units=GPa)
#
#
# Indices 1 2 3 4 5 6 
#
# 1 98.8284 -1.3569 33.1962 0.0000 3.7368 0.0000
# 2 -1.3569 23.7502 -5.3789 0.0000 -3.5287 0.0000
# 3 33.1962 -5.3789 102.7943 0.0000 -5.3429 0.0000
# 4 0.0000 0.0000 0.0000 13.5474 0.0000 -2.5511
# 5 3.7368 -3.5287 -5.3429 0.0000 28.3631 0.0000
# 6 0.0000 0.0000 0.0000 -2.5511 0.0000 19.7354
#
#
#
# Elastic Compliance Matrix: (Units=1/GPa)
#
#
# Indices 1 2 3 4 5 6 
#
# 1 0.011495 -0.000561 -0.003862 0.000000 -0.002312 0.000000
# 2 -0.000561 0.043596 0.002775 0.000000 0.006021 0.000000
# 3 -0.003862 0.002775 0.011275 0.000000 0.002978 0.000000
# 4 0.000000 0.000000 0.000000 0.075656 0.000000 0.009780
# 5 -0.002312 0.006021 0.002978 0.000000 0.036872 0.000000
# 6 0.000000 0.000000 0.000000 0.009780 0.000000 0.051934
#
#
# Mechanical properties :
#
#
# Convention : Reuss Voigt Hill
#
# Bulk Modulus (GPa) = 15.85509 30.92154 23.38831
# Shear Modulus (GPa) = 19.59643 25.59002 22.59322
#
# Velocity S-wave (km/s) = 3.01524 3.44563 3.23760
# Velocity P-wave (km/s) = 4.41341 5.49325 4.98267
#
# Compressibility (1/GPa) = 0.06307124
#
# Stress axis : x y z
#
# Youngs Moduli (GPa) = 86.99098 22.93789 88.68924
#
# Poissons Ratio (x) = 0.01288 0.34251
# Poissons Ratio (y) = 0.04883 -0.24615
# Poissons Ratio (z) = 0.33595 -0.06366
#
# Static dielectric constant tensor:
#      x y z
#    x 1.778790 0.000000 -0.023070 
#    y 0.000000 1.830520 0.000000 
#    z -0.023070 0.000000 1.813360 
# 
# From -- ./inp_files/55628.got.cif
#   From: 2010.05.17/outbox.cif.g08.bks.cpg/sg15_28_cif.got.tgz:55628.got - 2010.06.03 18:47:42.
