data_PCOD9271074
_publ_section_title
;
Structure prediction by ZEFSAII (Michael W. Deem and Ramdas Pophale) SiO2 
 PCOD9271074
Probable space group: C 2/C
;
_chemical_formula_sum "Si O2"
_cell_formula_units_Z 56
_cell_length_a 5.516939
_cell_length_b 25.991498
_cell_length_c 20.376454
_cell_angle_alpha 90.000000
_cell_angle_beta 66.038476
_cell_angle_gamma 90.000000
_cell_volume 2670.041392
_symmetry_space_group_name_H-M "C 2/C"
_symmetry_group_IT_number 15
_symmetry_cell_setting 'monoclinic'
loop_
_space_group_symop_operation_xyz
x,y,z
-x,y,1/2-z
-x,-y,-z
x,-y,1/2+z
1/2+x,1/2+y,z
1/2-x,1/2+y,1/2-z
1/2-x,1/2-y,-z
1/2+x,1/2-y,1/2+z
loop_
_atom_site_type_symbol
_atom_site_label
_atom_site_fract_x
_atom_site_fract_y
_atom_site_fract_z
Si Si1 0.023316 0.177716 0.170592
Si Si2 0.861201 0.197007 0.955483
Si Si3 0.522350 0.947007 0.455482
Si Si4 0.924222 0.976937 0.080585
Si Si5 0.084026 0.726936 0.580585
Si Si6 0.474138 0.875000 0.933909
Si Si7 0.285095 0.072284 0.329408
O O1 0.948467 0.226633 0.135287
O O2 0.325678 0.166436 0.116928
O O3 0.000000 0.188290 0.250000
O O4 0.865877 0.125000 0.172745
O O5 0.651775 0.190783 0.919142
O O6 0.171826 0.201424 0.906672
O O7 0.750000 0.250000 0.000000
O O8 0.796272 0.152769 0.015208
O O9 0.358157 0.951424 0.406671
O O10 0.408102 0.902770 0.515207
O O11 0.840797 0.940784 0.419142
O O12 0.500000 0.000000 0.500000
O O13 0.895675 0.023368 0.135287
O O14 0.000000 0.000000 0.000000
O O15 0.250000 0.750000 0.500000
O O16 0.426466 0.916437 0.883072
O O17 0.500000 0.061709 0.250000
#
# Coordination Sequence:
#
# PCOD9271074 Si02
#       7
#     8   8   8   8   8   8   8
#     4  12  24  35  55  88 126 159 185 237 306 377
#     4  10  20  36  57  81 111 150 197 244 277 341
#     4  10  20  36  57  81 111 150 197 244 277 341
#     4  10  20  38  55  75 118 149 199 233 276 348
#     4  10  20  38  55  75 118 149 199 233 276 348
#     4  12  22  36  60  86 123 152 190 248 297 350
#     4  12  24  35  55  88 126 159 185 237 306 377
#
# _framework density 20.973458999999998
#
# number of rings (size 3 to 8) (size 9 to 14) (size 15 to 20)
#    0.000    1.143    7.143    3.429    0.000    0.000 
#    0.000    0.000    0.000    0.000    0.000    6.000 
#    0.000    0.000    0.000    0.000    0.000    0.000 
#
# Total GULP energy -156242.487581 kJ/mol
# GULP energy per Si atom -5580.088842 kJ/mol
# Density = 2.092572 g / cm^3
# Si number density = 20.973459 Si / 1000 Ang^3
#
#
#
# Elastic Constant Matrix: (Units=GPa)
#
#
# Indices 1 2 3 4 5 6 
#
# 1 140.9937 4.7726 19.8388 0.0000 -3.0798 0.0000
# 2 4.7726 42.0840 50.7234 0.0000 1.7964 0.0000
# 3 19.8388 50.7234 93.4524 0.0000 1.2217 0.0000
# 4 0.0000 0.0000 0.0000 25.6737 0.0000 -0.2565
# 5 -3.0798 1.7964 1.2217 0.0000 21.3448 0.0000
# 6 0.0000 0.0000 0.0000 -0.2565 0.0000 32.2256
#
#
#
# Elastic Compliance Matrix: (Units=1/GPa)
#
#
# Indices 1 2 3 4 5 6 
#
# 1 0.007467 0.002998 -0.003225 0.000000 0.001010 0.000000
# 2 0.002998 0.070204 -0.038699 0.000000 -0.003261 0.000000
# 3 -0.003225 -0.038699 0.032378 0.000000 0.000938 0.000000
# 4 0.000000 0.000000 0.000000 0.038954 0.000000 0.000310
# 5 0.001010 -0.003261 0.000938 0.000000 0.047216 0.000000
# 6 0.000000 0.000000 0.000000 0.000310 0.000000 0.031034
#
#
# Mechanical properties :
#
#
# Convention : Reuss Voigt Hill
#
# Bulk Modulus (GPa) = 31.05974 47.46661 39.26318
# Shear Modulus (GPa) = 15.83093 29.26183 22.54638
#
# Velocity S-wave (km/s) = 2.75036 3.73927 3.28227
# Velocity P-wave (km/s) = 4.99271 6.42835 5.75547
#
# Compressibility (1/GPa) = 0.03219602
#
# Stress axis : x y z
#
# Youngs Moduli (GPa) = 133.92379 14.24412 30.88547
#
# Poissons Ratio (x) = -0.04270 0.09962
# Poissons Ratio (y) = -0.40145 1.19523
# Poissons Ratio (z) = 0.43195 0.55123
#
# Static dielectric constant tensor:
#      x y z
#    x 1.882690 0.000000 -0.006840 
#    y 0.000000 1.798880 0.000000 
#    z -0.006840 0.000000 1.707600 
# 
# From -- ./inp_files/228412.got.cif
#   From: 2010.05.17/outbox.cif.g08.bks.cpg/sg15_115_cif.got.tgz:228412.got - 2010.06.03 18:47:42.
