data_PCOD9271142
_publ_section_title
;
Structure prediction by ZEFSAII (Michael W. Deem and Ramdas Pophale) SiO2 
 PCOD9271142
Probable space group: C 2/C
;
_chemical_formula_sum "Si O2"
_cell_formula_units_Z 64
_cell_length_a 7.713906
_cell_length_b 16.008646
_cell_length_c 25.018453
_cell_angle_alpha 90.000000
_cell_angle_beta 107.531797
_cell_angle_gamma 90.000000
_cell_volume 2946.000600
_symmetry_space_group_name_H-M "C 2/C"
_symmetry_group_IT_number 15
_symmetry_cell_setting 'monoclinic'
loop_
_space_group_symop_operation_xyz
x,y,z
-x,y,1/2-z
-x,-y,-z
x,-y,1/2+z
1/2+x,1/2+y,z
1/2-x,1/2+y,1/2-z
1/2-x,1/2-y,-z
1/2+x,1/2-y,1/2+z
loop_
_atom_site_type_symbol
_atom_site_label
_atom_site_fract_x
_atom_site_fract_y
_atom_site_fract_z
Si Si1 0.542533 0.383206 0.473643
Si Si2 0.670394 0.891717 0.083479
Si Si3 0.061555 0.288004 0.500721
Si Si4 0.751676 0.187850 0.183651
Si Si5 0.553091 0.310071 0.313535
Si Si6 0.339480 0.665051 0.312731
Si Si7 0.356536 0.066222 0.412016
Si Si8 0.556017 0.539023 0.091655
O O1 0.735747 0.402321 0.465649
O O2 0.518425 0.283959 0.468797
O O3 0.410132 0.444915 0.427661
O O4 0.545591 0.407692 0.535947
O O5 0.832988 0.873742 0.139840
O O6 0.556420 0.974935 0.084983
O O7 0.551102 0.809570 0.062812
O O8 0.250000 0.250000 0.500000
O O9 0.089845 0.373846 0.534773
O O10 0.631425 0.271730 0.178357
O O11 0.786764 0.150648 0.245891
O O12 0.634089 0.122298 0.139277
O O13 0.948890 0.196648 0.172826
O O14 0.500000 0.343868 0.250000
O O15 0.695148 0.234183 0.317948
O O16 0.329350 0.586545 0.352324
O O17 0.145430 0.042968 0.401904
#
# Coordination Sequence:
#
# PCOD9271142 Si02
#       8
#     8   8   8   8   8   8   8   8
#     4  10  20  36  57  87 121 162 204 248 311 375
#     4  11  24  40  59  92 127 163 205 264 312 371
#     4  12  23  38  60  87 125 165 208 248 313 376
#     4   9  19  37  64  94 121 165 214 254 312 378
#     4  10  21  40  65  94 125 164 214 258 312 374
#     4   9  18  36  64  94 125 169 204 262 313 368
#     4  10  21  39  59  90 126 161 209 255 315 371
#     4   9  18  35  58  87 127 158 202 252 312 373
#
# _framework density 21.724367000000001
#
# number of rings (size 3 to 8) (size 9 to 14) (size 15 to 20)
#    0.000    2.000    1.250    2.250    1.750    1.000 
#    9.000    0.000    0.000    0.000    9.750    0.000 
#    0.000    0.000    0.000    0.000    0.000    0.000 
#
# Total GULP energy -178411.311777 kJ/mol
# GULP energy per Si atom -5575.353493 kJ/mol
# Density = 2.167492 g / cm^3
# Si number density = 21.724367 Si / 1000 Ang^3
#
#
#
# Elastic Constant Matrix: (Units=GPa)
#
#
# Indices 1 2 3 4 5 6 
#
# 1 50.6296 9.3616 20.0886 0.0000 4.9655 0.0000
# 2 9.3616 90.6814 54.4511 0.0000 17.1317 0.0000
# 3 20.0886 54.4511 117.5938 0.0000 9.5382 0.0000
# 4 0.0000 0.0000 0.0000 29.5487 0.0000 5.6916
# 5 4.9655 17.1317 9.5382 0.0000 20.0141 0.0000
# 6 0.0000 0.0000 0.0000 5.6916 0.0000 19.0090
#
#
#
# Elastic Compliance Matrix: (Units=1/GPa)
#
#
# Indices 1 2 3 4 5 6 
#
# 1 0.021487 0.000808 -0.003699 0.000000 -0.004259 0.000000
# 2 0.000808 0.017554 -0.007314 0.000000 -0.011741 0.000000
# 3 -0.003699 -0.007314 0.012420 0.000000 0.001259 0.000000
# 4 0.000000 0.000000 0.000000 0.035914 0.000000 -0.010753
# 5 -0.004259 -0.011741 0.001259 0.000000 0.060471 0.000000
# 6 0.000000 0.000000 0.000000 -0.010753 0.000000 0.055826
#
#
# Mechanical properties :
#
#
# Convention : Reuss Voigt Hill
#
# Bulk Modulus (GPa) = 32.20522 47.41194 39.80858
# Shear Modulus (GPa) = 21.32792 25.38126 23.35459
#
# Velocity S-wave (km/s) = 3.13669 3.42179 3.28234
# Velocity P-wave (km/s) = 5.28915 6.12236 5.72094
#
# Compressibility (1/GPa) = 0.03105087
#
# Stress axis : x y z
#
# Youngs Moduli (GPa) = 46.53873 56.96668 80.51300
#
# Poissons Ratio (x) = -0.04601 0.29783
# Poissons Ratio (y) = -0.03759 0.58887
# Poissons Ratio (z) = 0.17216 0.41665
#
# Static dielectric constant tensor:
#      x y z
#    x 1.877790 0.000000 -0.012670 
#    y 0.000000 1.711510 0.000000 
#    z -0.012670 0.000000 1.835570 
# 
# From -- ./inp_files/288803.got.cif
#   From: 2010.05.17/outbox.cif.g08.bks.cpg/sg15_145_cif.got.tgz:288803.got - 2010.06.03 18:47:42.
