data_PCOD9271068
_publ_section_title
;
Structure prediction by ZEFSAII (Michael W. Deem and Ramdas Pophale) SiO2 
 PCOD9271068
Probable space group: C 2/C
;
_chemical_formula_sum "Si O2"
_cell_formula_units_Z 40
_cell_length_a 5.128217
_cell_length_b 20.662489
_cell_length_c 17.884175
_cell_angle_alpha 90.000000
_cell_angle_beta 77.620203
_cell_angle_gamma 90.000000
_cell_volume 1850.974527
_symmetry_space_group_name_H-M "C 2/C"
_symmetry_group_IT_number 15
_symmetry_cell_setting 'monoclinic'
loop_
_space_group_symop_operation_xyz
x,y,z
-x,y,1/2-z
-x,-y,-z
x,-y,1/2+z
1/2+x,1/2+y,z
1/2-x,1/2+y,1/2-z
1/2-x,1/2-y,-z
1/2+x,1/2-y,1/2+z
loop_
_atom_site_type_symbol
_atom_site_label
_atom_site_fract_x
_atom_site_fract_y
_atom_site_fract_z
Si Si1 0.621732 0.100460 0.630399
Si Si2 0.571848 0.764810 0.398299
Si Si3 0.188927 0.441178 0.964798
Si Si4 0.424434 0.521307 0.832241
Si Si5 0.457672 0.189644 0.075736
O O1 0.498578 0.171809 0.645373
O O2 0.753571 0.094000 0.539078
O O3 0.371557 0.051813 0.652467
O O4 0.858691 0.078034 0.669352
O O5 0.541711 0.789669 0.486139
O O6 0.344900 0.712375 0.396957
O O7 0.854911 0.729143 0.379460
O O8 0.425095 0.472583 0.902316
O O9 0.036486 0.387881 0.924269
O O10 0.000000 0.500000 0.000000
O O11 0.500000 0.488147 0.750000
#
# Coordination Sequence:
#
# PCOD9271068 Si02
#       5
#     8   8   8   8   8
#     4  10  20  36  57  80 108 145 189 233 278 333
#     4   9  17  30  50  77 105 135 178 226 271 317
#     4   9  20  35  56  83 114 148 186 226 274 336
#     4  11  22  36  55  81 112 147 185 232 285 338
#     4   9  17  29  49  78 109 138 172 223 272 316
#
# _framework density 21.610237999999999
#
# number of rings (size 3 to 8) (size 9 to 14) (size 15 to 20)
#    0.000    2.400    0.000    2.400    0.000   12.800 
#    0.000    0.000    0.000    4.800    0.000    0.000 
#    0.000    0.000    0.000    0.000    0.000    0.200 
#
# Total GULP energy -111547.769720 kJ/mol
# GULP energy per Si atom -5577.388486 kJ/mol
# Density = 2.156105 g / cm^3
# Si number density = 21.610238 Si / 1000 Ang^3
#
#
#
# Elastic Constant Matrix: (Units=GPa)
#
#
# Indices 1 2 3 4 5 6 
#
# 1 83.1306 26.9780 4.7213 0.0000 -8.0476 0.0000
# 2 26.9780 109.8697 14.4008 0.0000 -4.9446 0.0000
# 3 4.7213 14.4008 61.7595 0.0000 -3.1335 0.0000
# 4 0.0000 0.0000 0.0000 -2.5464 0.0000 -7.4509
# 5 -8.0476 -4.9446 -3.1335 0.0000 8.7648 0.0000
# 6 0.0000 0.0000 0.0000 -7.4509 0.0000 6.6158
#
#
#
# Elastic Compliance Matrix: (Units=1/GPa)
#
#
# Indices 1 2 3 4 5 6 
#
# 1 0.014079 -0.002973 0.000191 0.000000 0.011318 0.000000
# 2 -0.002973 0.010202 -0.002035 0.000000 0.002298 0.000000
# 3 0.000191 -0.002035 0.016909 0.000000 0.005073 0.000000
# 4 0.000000 0.000000 0.000000 -0.091425 0.000000 -0.102966
# 5 0.011318 0.002298 0.005073 0.000000 0.127595 0.000000
# 6 0.000000 0.000000 0.000000 -0.102966 0.000000 0.035190
#
#
# Mechanical properties :
#
#
# Convention : Reuss Voigt Hill
#
# Bulk Modulus (GPa) = 31.68897 38.55110 35.12003
# Shear Modulus (GPa) = 37.67853 16.47748 27.07800
#
# Velocity S-wave (km/s) = 4.18011 2.76431 3.54364
# Velocity P-wave (km/s) = 6.16389 5.29779 5.74717
#
# Compressibility (1/GPa) = 0.03155672
#
# Stress axis : x y z
#
# Youngs Moduli (GPa) = 71.02881 98.02217 59.13977
#
# Poissons Ratio (x) = 0.29139 -0.01130
# Poissons Ratio (y) = 0.21115 0.12035
# Poissons Ratio (z) = -0.01358 0.19947
#
# Static dielectric constant tensor:
#      x y z
#    x 1.792530 0.000000 0.042780 
#    y 0.000000 1.799750 0.000000 
#    z 0.042780 0.000000 1.980950 
# 
# From -- ./inp_files/227126.got.cif
#   From: 2010.05.17/outbox.cif.g08.bks.cpg/sg15_114_cif.got.tgz:227126.got - 2010.06.03 18:47:42.
