data_PCOD9271004
_publ_section_title
;
Structure prediction by ZEFSAII (Michael W. Deem and Ramdas Pophale) SiO2 
 PCOD9271004
Probable space group: C 2/C
;
_chemical_formula_sum "Si O2"
_cell_formula_units_Z 64
_cell_length_a 14.209208
_cell_length_b 23.333048
_cell_length_c 8.848881
_cell_angle_alpha 90.000000
_cell_angle_beta 79.236557
_cell_angle_gamma 90.000000
_cell_volume 2882.179174
_symmetry_space_group_name_H-M "C 2/C"
_symmetry_group_IT_number 15
_symmetry_cell_setting 'monoclinic'
loop_
_space_group_symop_operation_xyz
x,y,z
-x,y,1/2-z
-x,-y,-z
x,-y,1/2+z
1/2+x,1/2+y,z
1/2-x,1/2+y,1/2-z
1/2-x,1/2-y,-z
1/2+x,1/2-y,1/2+z
loop_
_atom_site_type_symbol
_atom_site_label
_atom_site_fract_x
_atom_site_fract_y
_atom_site_fract_z
Si Si1 0.428435 0.056158 0.128499
Si Si2 0.156238 0.501536 0.093443
Si Si3 0.258843 0.112013 0.577888
Si Si4 0.400657 0.540084 0.696674
Si Si5 0.338420 0.563099 0.404940
Si Si6 0.706725 0.289090 0.883192
Si Si7 0.799986 0.336893 0.588154
Si Si8 0.389923 0.193539 0.746364
O O1 0.500000 0.062002 0.250000
O O2 0.356599 0.009307 0.225142
O O3 0.379674 0.117280 0.116557
O O4 0.433998 0.031061 0.955834
O O5 0.177760 0.564950 0.027421
O O6 0.246805 0.464874 0.017683
O O7 0.180502 0.081473 0.707185
O O8 0.203297 0.149662 0.467745
O O9 0.333424 0.149453 0.653957
O O10 0.500000 0.550203 0.750000
O O11 0.414463 0.554157 0.515769
O O12 0.367386 0.475145 0.752199
O O13 0.300302 0.627012 0.388066
O O14 0.783920 0.292432 0.725778
O O15 0.618150 0.255340 0.834495
O O16 0.750000 0.250000 0.000000
O O17 0.832135 0.309894 0.421358
O O18 0.500000 0.178813 0.750000
#
# Coordination Sequence:
#
# PCOD9271004 Si02
#       8
#     8   8   8   8   8   8   8   8
#     4  11  23  33  55  95 130 171 214 253 302 383
#     4  10  20  36  56  84 128 173 199 251 312 379
#     4  10  21  42  66  86 132 167 212 260 328 392
#     4  11  22  39  63  98 133 173 213 263 317 388
#     4  10  21  38  61  91 132 173 211 251 321 383
#     4  10  23  45  67  89 119 171 215 279 335 381
#     4  11  22  42  67  90 129 177 210 266 334 389
#     4  11  25  43  68  98 123 164 218 279 334 388
#
# _framework density 22.205418999999999
#
# number of rings (size 3 to 8) (size 9 to 14) (size 15 to 20)
#    0.000    1.500    2.500    3.375    5.250    0.500 
#    2.250    0.000    0.000    0.000    0.000    0.000 
#    0.000    0.000    0.000    0.000    0.000    0.000 
#
# Total GULP energy -178511.987437 kJ/mol
# GULP energy per Si atom -5578.499607 kJ/mol
# Density = 2.215488 g / cm^3
# Si number density = 22.205419 Si / 1000 Ang^3
#
#
#
# Elastic Constant Matrix: (Units=GPa)
#
#
# Indices 1 2 3 4 5 6 
#
# 1 82.4873 27.8159 15.9155 0.0000 25.9105 0.0000
# 2 27.8159 65.8751 35.1252 0.0000 6.3246 0.0000
# 3 15.9155 35.1252 119.8204 0.0000 13.0844 0.0000
# 4 0.0000 0.0000 0.0000 39.1681 0.0000 7.2126
# 5 25.9105 6.3246 13.0844 0.0000 37.9639 0.0000
# 6 0.0000 0.0000 0.0000 7.2126 0.0000 11.6544
#
#
#
# Elastic Compliance Matrix: (Units=1/GPa)
#
#
# Indices 1 2 3 4 5 6 
#
# 1 0.017846 -0.006926 0.000898 0.000000 -0.011336 0.000000
# 2 -0.006926 0.020736 -0.005505 0.000000 0.003170 0.000000
# 3 0.000898 -0.005505 0.010191 0.000000 -0.003208 0.000000
# 4 0.000000 0.000000 0.000000 0.028815 0.000000 -0.017833
# 5 -0.011336 0.003170 -0.003208 0.000000 0.034655 0.000000
# 6 0.000000 0.000000 0.000000 -0.017833 0.000000 0.096841
#
#
# Mechanical properties :
#
#
# Convention : Reuss Voigt Hill
#
# Bulk Modulus (GPa) = 38.90094 47.32176 43.11135
# Shear Modulus (GPa) = 20.77123 30.37902 25.57513
#
# Velocity S-wave (km/s) = 3.06177 3.70278 3.39743
# Velocity P-wave (km/s) = 5.48233 6.29587 5.90313
#
# Compressibility (1/GPa) = 0.02570632
#
# Stress axis : x y z
#
# Youngs Moduli (GPa) = 56.03486 48.22632 98.12961
#
# Poissons Ratio (x) = 0.33401 -0.08809
# Poissons Ratio (y) = 0.38809 0.54018
# Poissons Ratio (z) = -0.05030 0.26548
#
# Static dielectric constant tensor:
#      x y z
#    x 1.972110 0.000000 0.035800 
#    y 0.000000 1.861990 0.000000 
#    z 0.035800 0.000000 1.837940 
# 
# From -- ./inp_files/42627.got.cif
#   From: 2010.05.17/outbox.cif.g08.bks.cpg/sg15_22_cif.got.tgz:42627.got - 2010.06.03 18:47:42.
