data_PCOD9271326
_publ_section_title
;
Structure prediction by ZEFSAII (Michael W. Deem and Ramdas Pophale) SiO2 
 PCOD9271326
Probable space group: C 2/C
;
_chemical_formula_sum "Si O2"
_cell_formula_units_Z 44
_cell_length_a 16.922527
_cell_length_b 10.842843
_cell_length_c 28.054950
_cell_angle_alpha 90.000000
_cell_angle_beta 157.748365
_cell_angle_gamma 90.000000
_cell_volume 1949.326339
_symmetry_space_group_name_H-M "C 2/C"
_symmetry_group_IT_number 15
_symmetry_cell_setting 'monoclinic'
loop_
_space_group_symop_operation_xyz
x,y,z
-x,y,1/2-z
-x,-y,-z
x,-y,1/2+z
1/2+x,1/2+y,z
1/2-x,1/2+y,1/2-z
1/2-x,1/2-y,-z
1/2+x,1/2-y,1/2+z
loop_
_atom_site_type_symbol
_atom_site_label
_atom_site_fract_x
_atom_site_fract_y
_atom_site_fract_z
Si Si1 0.164007 0.863841 0.029812
Si Si2 0.706867 0.869467 0.918764
Si Si3 0.623901 0.638486 0.214857
Si Si4 0.340081 0.370142 0.289947
Si Si5 0.752659 0.292806 0.659077
Si Si6 0.500000 0.668574 0.250000
O O1 0.310652 0.756026 0.128776
O O2 0.274287 0.994934 0.093260
O O3 0.087851 0.841903 0.933319
O O4 0.955595 0.866525 0.945121
O O5 0.466687 0.853573 0.798256
O O6 0.736510 0.775791 0.891229
O O7 0.905885 0.860379 0.064718
O O8 0.713444 0.515602 0.238372
O O9 0.750373 0.767210 0.277076
O O10 0.576015 0.606716 0.243076
O O11 0.245672 0.328637 0.186900
#
# Coordination Sequence:
#
# PCOD9271326 Si02
#       6
#     8   8   8   8   8   4
#     4  10  22  39  61  92 129 173 217 262 321 396
#     4  10  20  36  62  92 127 173 218 265 320 389
#     4  10  24  43  67  97 132 172 217 265 324 389
#     4  10  22  43  65  94 133 174 213 267 327 386
#     4  10  20  36  58  91 123 162 218 269 314 375
#     4  12  22  40  66  98 130 170 216 274 324 378
#
# _framework density 22.571901
#
# number of rings (size 3 to 8) (size 9 to 14) (size 15 to 20)
#    0.000    1.818    0.000    3.818    0.000    8.727 
#    0.000   17.273    0.000    1.091    0.000    0.000 
#    0.000    0.000    0.000    0.000    0.000    0.000 
#
# Total GULP energy -122604.890695 kJ/mol
# GULP energy per Si atom -5572.949577 kJ/mol
# Density = 2.252053 g / cm^3
# Si number density = 22.571901 Si / 1000 Ang^3
#
#
#
# Elastic Constant Matrix: (Units=GPa)
#
#
# Indices 1 2 3 4 5 6 
#
# 1 72.0644 37.6019 17.3419 -0.0012 8.4815 0.0015
# 2 37.6019 85.3477 19.9695 -0.0001 12.5524 0.0002
# 3 17.3419 19.9695 66.8505 0.0109 -5.8547 0.0034
# 4 -0.0012 -0.0001 0.0109 8.9086 -0.0022 -11.9680
# 5 8.4815 12.5524 -5.8547 -0.0022 36.6602 -0.0014
# 6 0.0015 0.0002 0.0034 -11.9680 -0.0014 -0.3224
#
#
#
# Elastic Compliance Matrix: (Units=1/GPa)
#
#
# Indices 1 2 3 4 5 6 
#
# 1 0.018584 -0.007175 -0.002879 0.000002 -0.002303 -0.000003
# 2 -0.007175 0.016334 -0.003410 -0.000001 -0.004477 -0.000002
# 3 -0.002879 -0.003410 0.017124 0.000003 0.004569 0.000018
# 4 0.000002 -0.000001 0.000003 0.002207 -0.000003 -0.081913
# 5 -0.002303 -0.004477 0.004569 -0.000003 0.030073 -0.000003
# 6 -0.000003 -0.000002 0.000018 -0.081913 -0.000003 -0.060973
#
#
# Mechanical properties :
#
#
# Convention : Reuss Voigt Hill
#
# Bulk Modulus (GPa) = 39.81901 41.56547 40.69224
# Shear Modulus (GPa) = 85.25080 19.00590 52.12835
#
# Velocity S-wave (km/s) = 6.15228 2.90490 4.81087
# Velocity P-wave (km/s) = 8.25510 5.45031 6.99473
#
# Compressibility (1/GPa) = 0.02511364
#
# Stress axis : x y z
#
# Youngs Moduli (GPa) = 53.80871 61.22014 58.39607
#
# Poissons Ratio (x) = 0.43928 0.16814
# Poissons Ratio (y) = 0.38610 0.19914
# Poissons Ratio (z) = 0.15493 0.20877
#
# Static dielectric constant tensor:
#      x y z
#    x 1.933250 0.000000 0.014590 
#    y 0.000000 1.891480 0.000000 
#    z 0.014590 0.000000 1.816470 
# 
# From -- ./inp_files/316263.got.cif
#   From: 2010.05.17/outbox.cif.g08.bks.cpg/sg15_159_cif.got.tgz:316263.got - 2010.06.03 18:47:42.
