data_PCOD9271488
_publ_section_title
;
Structure prediction by ZEFSAII (Michael W. Deem and Ramdas Pophale) SiO2 
 PCOD9271488
Probable space group: C 2/C
;
_chemical_formula_sum "Si O2"
_cell_formula_units_Z 56
_cell_length_a 15.939490
_cell_length_b 14.263540
_cell_length_c 19.204462
_cell_angle_alpha 90.000000
_cell_angle_beta 148.069149
_cell_angle_gamma 90.000000
_cell_volume 2309.264458
_symmetry_space_group_name_H-M "C 2/C"
_symmetry_group_IT_number 15
_symmetry_cell_setting 'monoclinic'
loop_
_space_group_symop_operation_xyz
x,y,z
-x,y,1/2-z
-x,-y,-z
x,-y,1/2+z
1/2+x,1/2+y,z
1/2-x,1/2+y,1/2-z
1/2-x,1/2-y,-z
1/2+x,1/2-y,1/2+z
loop_
_atom_site_type_symbol
_atom_site_label
_atom_site_fract_x
_atom_site_fract_y
_atom_site_fract_z
Si Si1 0.714035 0.003740 0.265996
Si Si2 0.014881 0.770862 0.629263
Si Si3 0.370185 0.693830 0.878147
Si Si4 0.681692 0.081417 0.380731
Si Si5 0.473728 0.659153 0.654159
Si Si6 0.136698 0.954079 0.768816
Si Si7 0.630318 0.917327 0.440555
O O1 0.834758 0.917289 0.358794
O O2 0.534748 0.966717 0.150507
O O3 0.749918 0.078839 0.351242
O O4 0.740172 0.044282 0.208484
O O5 0.197346 0.739765 0.759044
O O6 0.012762 0.872027 0.663772
O O7 0.961704 0.774160 0.511435
O O8 0.912148 0.691682 0.596051
O O9 0.452328 0.711123 0.860999
O O10 0.500000 0.109331 0.250000
O O11 0.789713 0.141042 0.507749
O O12 0.679159 0.973550 0.406053
O O13 0.500000 0.697217 0.750000
O O14 0.555499 0.555714 0.713631
O O15 0.236797 0.933971 0.907960
#
# Coordination Sequence:
#
# PCOD9271488 Si02
#       7
#     8   8   8   8   8   8   8
#     4   9  20  36  62  89 118 156 205 252 288 347
#     4  11  21  39  60  91 125 159 197 239 307 364
#     4  10  22  39  61  87 122 158 201 250 294 359
#     4  10  20  38  59  88 123 150 194 251 299 350
#     4  11  22  40  63  90 117 155 207 255 294 347
#     4  11  20  37  64  90 117 160 202 245 299 358
#     4  10  20  36  59  90 126 155 197 246 299 361
#
# _framework density 24.250145
#
# number of rings (size 3 to 8) (size 9 to 14) (size 15 to 20)
#    0.000    1.714    2.857    2.143    0.000    2.286 
#    0.000    7.143    0.000    2.571    0.000    0.000 
#    0.000    0.000    0.000    0.000    0.000    0.000 
#
# Total GULP energy -156896.684958 kJ/mol
# GULP energy per Si atom -5603.453034 kJ/mol
# Density = 2.419495 g / cm^3
# Si number density = 24.250145 Si / 1000 Ang^3
#
#
#
# Elastic Constant Matrix: (Units=GPa)
#
#
# Indices 1 2 3 4 5 6 
#
# 1 111.7911 10.8978 35.9653 0.0000 -17.1640 0.0001
# 2 10.8978 86.9455 16.0465 0.0001 -6.2010 0.0000
# 3 35.9653 16.0465 159.4265 0.0001 -18.8342 0.0001
# 4 0.0000 0.0001 0.0001 7.2604 0.0001 1.6914
# 5 -17.1640 -6.2010 -18.8342 0.0001 35.9576 0.0001
# 6 0.0001 0.0000 0.0001 1.6914 0.0001 23.4902
#
#
#
# Elastic Compliance Matrix: (Units=1/GPa)
#
#
# Indices 1 2 3 4 5 6 
#
# 1 0.010167 -0.000675 -0.001776 0.000000 0.003806 0.000000
# 2 -0.000675 0.011840 -0.000891 0.000000 0.001253 0.000000
# 3 -0.001776 -0.000891 0.007083 0.000000 0.002708 0.000000
# 4 0.000000 0.000000 0.000000 0.140084 0.000000 -0.010087
# 5 0.003806 0.001253 0.002708 0.000000 0.031262 0.000000
# 6 0.000000 0.000000 0.000000 -0.010087 0.000000 0.043297
#
#
# Mechanical properties :
#
#
# Convention : Reuss Voigt Hill
#
# Bulk Modulus (GPa) = 44.63347 53.77581 49.20464
# Shear Modulus (GPa) = 19.38841 33.02519 26.20680
#
# Velocity S-wave (km/s) = 2.83064 3.69434 3.29095
# Velocity P-wave (km/s) = 5.39711 6.35776 5.89703
#
# Compressibility (1/GPa) = 0.02240471
#
# Stress axis : x y z
#
# Youngs Moduli (GPa) = 98.35900 84.45997 141.18688
#
# Poissons Ratio (x) = 0.05702 0.25074
# Poissons Ratio (y) = 0.06640 0.12586
# Poissons Ratio (z) = 0.17468 0.07529
#
# Static dielectric constant tensor:
#      x y z
#    x 1.915840 0.000000 0.022040 
#    y 0.000000 1.947260 0.000000 
#    z 0.022040 0.000000 1.875480 
# 
# From -- ./inp_files/62663.got.cif
#   From: 2010.05.17/outbox.cif.g08.bks.cpg/sg15_32_cif.got.tgz:62663.got - 2010.06.03 18:47:42.
