data_PCOD9271712
_publ_section_title
;
Structure prediction by ZEFSAII (Michael W. Deem and Ramdas Pophale) SiO2 
 PCOD9271712
Probable space group: C 2/C
;
_chemical_formula_sum "Si O2"
_cell_formula_units_Z 60
_cell_length_a 10.646406
_cell_length_b 28.428780
_cell_length_c 17.383941
_cell_angle_alpha 90.000000
_cell_angle_beta 147.419500
_cell_angle_gamma 90.000000
_cell_volume 2833.233167
_symmetry_space_group_name_H-M "C 2/C"
_symmetry_group_IT_number 15
_symmetry_cell_setting 'monoclinic'
loop_
_space_group_symop_operation_xyz
x,y,z
-x,y,1/2-z
-x,-y,-z
x,-y,1/2+z
1/2+x,1/2+y,z
1/2-x,1/2+y,1/2-z
1/2-x,1/2-y,-z
1/2+x,1/2-y,1/2+z
loop_
_atom_site_type_symbol
_atom_site_label
_atom_site_fract_x
_atom_site_fract_y
_atom_site_fract_z
Si Si1 0.112891 0.139164 0.571294
Si Si2 0.963109 0.327872 0.956189
Si Si3 0.935867 0.959553 0.127391
Si Si4 0.763976 0.762597 0.418512
Si Si5 0.626108 0.106463 0.664249
Si Si6 0.500000 0.379672 0.750000
Si Si7 0.137180 0.936580 0.955218
Si Si8 0.867162 0.380893 0.600648
O O1 0.133575 0.185049 0.531237
O O2 0.337477 0.138571 0.742491
O O3 0.110386 0.091531 0.520203
O O4 0.877788 0.141749 0.499595
O O5 0.936533 0.272746 0.960310
O O6 0.722432 0.346924 0.868116
O O7 0.997818 0.345190 0.886677
O O8 0.143473 0.358875 0.100265
O O9 0.000000 0.969984 0.250000
O O10 0.161335 0.929633 0.220683
O O11 0.712057 0.926906 0.990316
O O12 0.904579 0.008232 0.066232
O O13 0.500000 0.760263 0.250000
O O14 0.750000 0.750000 0.500000
O O15 0.390400 0.076625 0.550537
O O16 0.535904 0.412630 0.695010
O O17 0.000000 0.391706 0.750000
#
# Coordination Sequence:
#
# PCOD9271712 Si02
#       8
#     8   8   8   8   8   4   8   8
#     4  11  25  44  64  99 144 173 230 287 349 406
#     4  11  22  42  70  97 134 181 230 280 344 410
#     4  11  23  44  67 102 137 186 233 282 354 423
#     4  12  25  43  73 104 133 176 232 288 349 410
#     4  10  23  42  67  96 137 179 221 291 342 404
#     4  10  20  36  60  98 130 162 220 290 322 384
#     4  11  22  38  67  96 135 178 231 282 340 408
#     4  11  26  43  69  96 141 184 225 287 344 414
#
# _framework density 21.177219000000001
#
# number of rings (size 3 to 8) (size 9 to 14) (size 15 to 20)
#    0.000    1.067    2.667    4.400    1.867    6.400 
#    0.000    0.000    0.000    0.000    0.000    0.000 
#    0.000    0.000    0.000    0.000    0.000    0.000 
#
# Total GULP energy -167425.054995 kJ/mol
# GULP energy per Si atom -5580.835166 kJ/mol
# Density = 2.112902 g / cm^3
# Si number density = 21.177219 Si / 1000 Ang^3
#
#
#
# Elastic Constant Matrix: (Units=GPa)
#
#
# Indices 1 2 3 4 5 6 
#
# 1 73.9964 41.7277 15.1591 0.0000 -18.0696 0.0000
# 2 41.7277 116.7059 28.3775 0.0000 -3.2499 0.0000
# 3 15.1591 28.3775 78.3179 -0.0001 -19.0014 0.0003
# 4 0.0000 0.0000 -0.0001 25.2652 -0.0001 0.2869
# 5 -18.0696 -3.2499 -19.0014 -0.0001 39.7008 0.0002
# 6 0.0000 0.0000 0.0003 0.2869 0.0002 19.8160
#
#
#
# Elastic Compliance Matrix: (Units=1/GPa)
#
#
# Indices 1 2 3 4 5 6 
#
# 1 0.019328 -0.006876 0.000846 0.000000 0.008639 0.000000
# 2 -0.006876 0.011876 -0.003955 0.000000 -0.004050 0.000000
# 3 0.000846 -0.003955 0.015899 0.000000 0.007671 0.000000
# 4 0.000000 0.000000 0.000000 0.039587 0.000000 -0.000573
# 5 0.008639 -0.004050 0.007671 0.000000 0.032460 0.000000
# 6 0.000000 0.000000 0.000000 -0.000573 0.000000 0.050473
#
#
# Mechanical properties :
#
#
# Convention : Reuss Voigt Hill
#
# Bulk Modulus (GPa) = 36.85451 48.83875 42.84663
# Shear Modulus (GPa) = 25.17180 29.20679 27.18930
#
# Velocity S-wave (km/s) = 3.45139 3.71773 3.58703
# Velocity P-wave (km/s) = 5.77265 6.44521 6.11818
#
# Compressibility (1/GPa) = 0.02713372
#
# Stress axis : x y z
#
# Youngs Moduli (GPa) = 51.73896 84.20480 62.89812
#
# Poissons Ratio (x) = 0.57897 -0.05323
# Poissons Ratio (y) = 0.35575 0.24875
# Poissons Ratio (z) = -0.04379 0.33302
#
# Static dielectric constant tensor:
#      x y z
#    x 1.789430 0.000000 -0.021980 
#    y 0.000000 1.765920 0.000000 
#    z -0.021980 0.000000 1.872610 
# 
# From -- ./inp_files/201274.got.cif
#   From: 2010.05.17/outbox.cif.g08.bks.cpg/sg15_101_cif.got.tgz:201274.got - 2010.06.03 18:47:42.
