data_PCOD9271902
_publ_section_title
;
Structure prediction by ZEFSAII (Michael W. Deem and Ramdas Pophale) SiO2 
 PCOD9271902
Probable space group: C 2/C
;
_chemical_formula_sum "Si O2"
_cell_formula_units_Z 40
_cell_length_a 19.603176
_cell_length_b 8.892541
_cell_length_c 10.811102
_cell_angle_alpha 90.000000
_cell_angle_beta 107.853353
_cell_angle_gamma 90.000000
_cell_volume 1793.858584
_symmetry_space_group_name_H-M "C 2/C"
_symmetry_group_IT_number 15
_symmetry_cell_setting 'monoclinic'
loop_
_space_group_symop_operation_xyz
x,y,z
-x,y,1/2-z
-x,-y,-z
x,-y,1/2+z
1/2+x,1/2+y,z
1/2-x,1/2+y,1/2-z
1/2-x,1/2-y,-z
1/2+x,1/2-y,1/2+z
loop_
_atom_site_type_symbol
_atom_site_label
_atom_site_fract_x
_atom_site_fract_y
_atom_site_fract_z
Si Si1 0.662764 0.283749 0.069242
Si Si2 0.793196 0.712037 0.822704
Si Si3 0.577836 0.280568 0.254400
Si Si4 0.194280 0.067488 0.967888
Si Si5 0.081296 0.506677 0.095841
O O1 0.741275 0.281073 0.175620
O O2 0.609766 0.351573 0.146350
O O3 0.667710 0.397609 0.959375
O O4 0.627614 0.120126 0.033117
O O5 0.786669 0.874903 0.884545
O O6 0.872795 0.643657 0.854123
O O7 0.754964 0.602958 0.902495
O O8 0.500000 0.330101 0.250000
O O9 0.630910 0.322084 0.392049
O O10 0.578830 0.104373 0.220997
O O11 0.000000 0.500000 0.000000
#
# Coordination Sequence:
#
# PCOD9271902 Si02
#       5
#     8   8   8   8   8
#     4   9  21  36  60  91 121 159 212 253 305 377
#     4  10  20  36  62  90 123 165 211 251 314 370
#     4   9  20  38  60  84 121 162 205 250 320 369
#     4  10  20  37  63  87 120 169 205 255 314 370
#     4  10  21  39  60  89 126 164 207 262 312 375
#
# _framework density 22.298302
#
# number of rings (size 3 to 8) (size 9 to 14) (size 15 to 20)
#    1.200    1.200    0.000    2.400    2.800    1.600 
#    0.000    0.000    0.000    0.000    0.000    0.000 
#    0.000    0.000    0.000    0.000    0.000    0.000 
#
# Total GULP energy -111439.926948 kJ/mol
# GULP energy per Si atom -5571.996347 kJ/mol
# Density = 2.224755 g / cm^3
# Si number density = 22.298302 Si / 1000 Ang^3
#
#
#
# Elastic Constant Matrix: (Units=GPa)
#
#
# Indices 1 2 3 4 5 6 
#
# 1 130.7064 32.6621 22.6957 0.0000 24.6522 0.0000
# 2 32.6621 76.9912 19.7920 0.0000 7.0502 0.0000
# 3 22.6957 19.7920 40.5017 0.0000 18.1848 0.0000
# 4 0.0000 0.0000 0.0000 29.6988 0.0000 -3.7929
# 5 24.6522 7.0502 18.1848 0.0000 35.2394 0.0000
# 6 0.0000 0.0000 0.0000 -3.7929 0.0000 34.5973
#
#
#
# Elastic Compliance Matrix: (Units=1/GPa)
#
#
# Indices 1 2 3 4 5 6 
#
# 1 0.009738 -0.003268 -0.001425 0.000000 -0.005423 0.000000
# 2 -0.003268 0.015979 -0.007247 0.000000 0.002829 0.000000
# 3 -0.001425 -0.007247 0.036355 0.000000 -0.016314 0.000000
# 4 0.000000 0.000000 0.000000 0.034150 0.000000 0.003744
# 5 -0.005423 0.002829 -0.016314 0.000000 0.040024 0.000000
# 6 0.000000 0.000000 0.000000 0.003744 0.000000 0.029314
#
#
# Mechanical properties :
#
#
# Convention : Reuss Voigt Hill
#
# Bulk Modulus (GPa) = 26.18414 44.27764 35.23089
# Shear Modulus (GPa) = 24.73162 31.44373 28.08768
#
# Velocity S-wave (km/s) = 3.33397 3.75926 3.55298
# Velocity P-wave (km/s) = 5.15641 6.22437 5.71539
#
# Compressibility (1/GPa) = 0.03819106
#
# Stress axis : x y z
#
# Youngs Moduli (GPa) = 102.69450 62.58225 27.50647
#
# Poissons Ratio (x) = 0.20453 0.03919
# Poissons Ratio (y) = 0.33562 0.19935
# Poissons Ratio (z) = 0.14630 0.45356
#
# Static dielectric constant tensor:
#      x y z
#    x 1.830330 0.000000 -0.025300 
#    y 0.000000 1.891450 0.000000 
#    z -0.025300 0.000000 1.892920 
# 
# From -- ./inp_files/116005.got.cif
#   From: 2010.05.17/outbox.cif.g08.bks.cpg/sg15_59_cif.got.tgz:116005.got - 2010.06.03 18:47:42.
