data_PCOD9271921
_publ_section_title
;
Structure prediction by ZEFSAII (Michael W. Deem and Ramdas Pophale) SiO2 
 PCOD9271921
Probable space group: C 2/C
;
_chemical_formula_sum "Si O2"
_cell_formula_units_Z 40
_cell_length_a 11.896509
_cell_length_b 9.531253
_cell_length_c 15.468978
_cell_angle_alpha 90.000000
_cell_angle_beta 87.370210
_cell_angle_gamma 90.000000
_cell_volume 1752.159099
_symmetry_space_group_name_H-M "C 2/C"
_symmetry_group_IT_number 15
_symmetry_cell_setting 'monoclinic'
loop_
_space_group_symop_operation_xyz
x,y,z
-x,y,1/2-z
-x,-y,-z
x,-y,1/2+z
1/2+x,1/2+y,z
1/2-x,1/2+y,1/2-z
1/2-x,1/2-y,-z
1/2+x,1/2-y,1/2+z
loop_
_atom_site_type_symbol
_atom_site_label
_atom_site_fract_x
_atom_site_fract_y
_atom_site_fract_z
Si Si1 0.361754 0.245920 0.058269
Si Si2 0.175901 0.528956 0.011600
Si Si3 0.618121 0.354510 0.784889
Si Si4 0.273736 0.904501 0.305446
Si Si5 0.904615 0.842791 0.508488
O O1 0.323420 0.303796 0.151498
O O2 0.250000 0.250000 0.000000
O O3 0.465694 0.342903 0.024862
O O4 0.386576 0.080310 0.048893
O O5 0.170172 0.468185 0.109580
O O6 0.306743 0.553694 0.977839
O O7 0.130301 0.685147 0.014784
O O8 0.500000 0.399416 0.750000
O O9 0.648312 0.198951 0.751136
O O10 0.714892 0.466936 0.758895
O O11 0.605667 0.354775 0.888226
#
# Coordination Sequence:
#
# PCOD9271921 Si02
#       5
#     8   8   8   8   8
#     4  10  20  36  62  91 119 160 213 262 307 381
#     4   9  20  39  64  94 123 163 219 267 312 384
#     4  11  24  44  63  93 137 176 207 271 331 387
#     4  10  24  42  62  97 127 169 219 260 332 386
#     4  10  21  39  66  95 125 167 219 267 323 376
#
# _framework density 22.828975
#
# number of rings (size 3 to 8) (size 9 to 14) (size 15 to 20)
#    0.000    2.000    0.000    3.000    2.800    8.800 
#    7.200    0.000    0.000    0.000    0.000    0.000 
#    0.000    0.000    0.000    0.000    0.000    0.000 
#
# Total GULP energy -111664.260433 kJ/mol
# GULP energy per Si atom -5583.213022 kJ/mol
# Density = 2.277702 g / cm^3
# Si number density = 22.828975 Si / 1000 Ang^3
#
#
#
# Elastic Constant Matrix: (Units=GPa)
#
#
# Indices 1 2 3 4 5 6 
#
# 1 85.8859 10.5793 5.2753 0.0000 -11.2296 0.0000
# 2 10.5793 102.7983 13.3016 0.0000 11.1500 0.0000
# 3 5.2753 13.3016 39.2563 0.0000 -5.4438 0.0000
# 4 0.0000 0.0000 0.0000 77.6191 0.0000 -4.4832
# 5 -11.2296 11.1500 -5.4438 0.0000 28.7433 0.0000
# 6 0.0000 0.0000 0.0000 -4.4832 0.0000 46.3869
#
#
#
# Elastic Compliance Matrix: (Units=1/GPa)
#
#
# Indices 1 2 3 4 5 6 
#
# 1 0.012624 -0.001870 -0.000286 0.000000 0.005603 0.000000
# 2 -0.001870 0.011116 -0.004328 0.000000 -0.005862 0.000000
# 3 -0.000286 -0.004328 0.027930 0.000000 0.006857 0.000000
# 4 0.000000 0.000000 0.000000 0.012956 0.000000 0.001252
# 5 0.005603 -0.005862 0.006857 0.000000 0.040553 0.000000
# 6 0.000000 0.000000 0.000000 0.001252 0.000000 0.021679
#
#
# Mechanical properties :
#
#
# Convention : Reuss Voigt Hill
#
# Bulk Modulus (GPa) = 25.83877 31.80588 28.82232
# Shear Modulus (GPa) = 32.73850 43.80214 38.27032
#
# Velocity S-wave (km/s) = 3.79103 4.38506 4.09882
# Velocity P-wave (km/s) = 5.52318 6.29292 5.92057
#
# Compressibility (1/GPa) = 0.03870154
#
# Stress axis : x y z
#
# Youngs Moduli (GPa) = 79.21503 89.95907 35.80442
#
# Poissons Ratio (x) = 0.16822 0.01023
# Poissons Ratio (y) = 0.14813 0.15497
# Poissons Ratio (z) = 0.02264 0.38937
#
# Static dielectric constant tensor:
#      x y z
#    x 1.974420 0.000000 0.000280 
#    y 0.000000 1.965360 0.000000 
#    z 0.000280 0.000000 1.821760 
# 
# From -- ./inp_files/195090.got.cif
#   From: 2010.05.17/outbox.cif.g08.bks.cpg/sg15_98_cif.got.tgz:195090.got - 2010.06.03 18:47:42.
