data_PCOD9271904
_publ_section_title
;
Structure prediction by ZEFSAII (Michael W. Deem and Ramdas Pophale) SiO2 
 PCOD9271904
Probable space group: C 2/C
;
_chemical_formula_sum "Si O2"
_cell_formula_units_Z 52
_cell_length_a 16.849949
_cell_length_b 18.617223
_cell_length_c 7.969097
_cell_angle_alpha 90.000000
_cell_angle_beta 76.484221
_cell_angle_gamma 90.000000
_cell_volume 2430.666575
_symmetry_space_group_name_H-M "C 2/C"
_symmetry_group_IT_number 15
_symmetry_cell_setting 'monoclinic'
loop_
_space_group_symop_operation_xyz
x,y,z
-x,y,1/2-z
-x,-y,-z
x,-y,1/2+z
1/2+x,1/2+y,z
1/2-x,1/2+y,1/2-z
1/2-x,1/2-y,-z
1/2+x,1/2-y,1/2+z
loop_
_atom_site_type_symbol
_atom_site_label
_atom_site_fract_x
_atom_site_fract_y
_atom_site_fract_z
Si Si1 0.628358 0.414416 0.467677
Si Si2 0.834425 0.074924 0.942977
Si Si3 0.500000 0.081309 0.250000
Si Si4 0.536564 0.176501 0.558193
Si Si5 0.204063 0.385797 0.009458
Si Si6 0.024074 0.827643 0.039157
Si Si7 0.673774 0.025238 0.188350
O O1 0.629912 0.496231 0.529801
O O2 0.652195 0.413901 0.259939
O O3 0.699626 0.370205 0.528408
O O4 0.539156 0.381429 0.518256
O O5 0.886320 0.137163 0.008939
O O6 0.740902 0.067813 0.045053
O O7 0.517142 0.128302 0.406336
O O8 0.581586 0.037018 0.177484
O O9 0.500000 0.147601 0.750000
O O10 0.635469 0.175257 0.530484
O O11 0.493206 0.251950 0.539645
O O12 0.189105 0.440279 0.171747
O O13 0.187756 0.439645 0.862374
O O14 0.000000 0.820983 0.250000
#
# Coordination Sequence:
#
# PCOD9271904 Si02
#       7
#     8   8   4   8   8   8   8
#     4  10  20  36  62  90 124 156 203 260 304 366
#     4  10  20  36  63  91 121 158 202 257 312 365
#     4  10  24  42  62  88 128 156 202 262 300 370
#     4  11  25  39  63  87 124 168 209 248 302 377
#     4  10  22  37  59  93 123 154 203 257 304 373
#     4  10  22  42  59  84 125 169 207 253 306 363
#     4  10  21  37  61  89 121 158 192 261 314 351
#
# _framework density 21.393308000000001
#
# number of rings (size 3 to 8) (size 9 to 14) (size 15 to 20)
#    0.000    1.846    0.769    4.154    5.385    4.308 
#    0.000    2.308    0.000    0.000    0.000    0.000 
#    0.000    0.000    0.000    0.000    0.000    0.000 
#
# Total GULP energy -145144.036920 kJ/mol
# GULP energy per Si atom -5582.462958 kJ/mol
# Density = 2.134462 g / cm^3
# Si number density = 21.393308 Si / 1000 Ang^3
#
#
#
# Elastic Constant Matrix: (Units=GPa)
#
#
# Indices 1 2 3 4 5 6 
#
# 1 136.6834 32.7208 20.4760 0.0000 6.4337 0.0000
# 2 32.7208 44.0905 6.4575 0.0000 -0.9864 0.0000
# 3 20.4760 6.4575 58.9866 0.0000 9.3697 0.0000
# 4 0.0000 0.0000 0.0000 18.1076 0.0000 34.5192
# 5 6.4337 -0.9864 9.3697 0.0000 27.9206 0.0000
# 6 0.0000 0.0000 0.0000 34.5192 0.0000 130.1155
#
#
#
# Elastic Compliance Matrix: (Units=1/GPa)
#
#
# Indices 1 2 3 4 5 6 
#
# 1 0.009314 -0.006619 -0.002251 0.000000 -0.001625 0.000000
# 2 -0.006619 0.027836 -0.001213 0.000000 0.002916 0.000000
# 3 -0.002251 -0.001213 0.018793 0.000000 -0.005831 0.000000
# 4 0.000000 0.000000 0.000000 0.111735 0.000000 -0.029643
# 5 -0.001625 0.002916 -0.005831 0.000000 0.038250 0.000000
# 6 0.000000 0.000000 0.000000 -0.029643 0.000000 0.015550
#
#
# Mechanical properties :
#
#
# Convention : Reuss Voigt Hill
#
# Bulk Modulus (GPa) = 27.94980 39.89657 33.92318
# Shear Modulus (GPa) = 19.71846 47.23581 33.47714
#
# Velocity S-wave (km/s) = 3.03926 4.70400 3.96010
# Velocity P-wave (km/s) = 5.04076 6.94213 6.06640
#
# Compressibility (1/GPa) = 0.03577843
#
# Stress axis : x y z
#
# Youngs Moduli (GPa) = 107.36078 35.92506 53.21069
#
# Poissons Ratio (x) = 0.23780 0.11975
# Poissons Ratio (y) = 0.71064 0.06453
# Poissons Ratio (z) = 0.24162 0.04357
#
# Static dielectric constant tensor:
#      x y z
#    x 1.824930 0.000000 -0.000700 
#    y 0.000000 1.768720 0.000000 
#    z -0.000700 0.000000 1.835380 
# 
# From -- ./inp_files/40774.got.cif
#   From: 2010.05.17/outbox.cif.g08.bks.cpg/sg15_21_cif.got.tgz:40774.got - 2010.06.03 18:47:42.
