data_PCOD9271718
_publ_section_title
;
Structure prediction by ZEFSAII (Michael W. Deem and Ramdas Pophale) SiO2 
 PCOD9271718
Probable space group: C 2/C
;
_chemical_formula_sum "Si O2"
_cell_formula_units_Z 52
_cell_length_a 26.019577
_cell_length_b 4.916326
_cell_length_c 20.458042
_cell_angle_alpha 90.000000
_cell_angle_beta 127.526576
_cell_angle_gamma 90.000000
_cell_volume 2075.472479
_symmetry_space_group_name_H-M "C 2/C"
_symmetry_group_IT_number 15
_symmetry_cell_setting 'monoclinic'
loop_
_space_group_symop_operation_xyz
x,y,z
-x,y,1/2-z
-x,-y,-z
x,-y,1/2+z
1/2+x,1/2+y,z
1/2-x,1/2+y,1/2-z
1/2-x,1/2-y,-z
1/2+x,1/2-y,1/2+z
loop_
_atom_site_type_symbol
_atom_site_label
_atom_site_fract_x
_atom_site_fract_y
_atom_site_fract_z
Si Si1 0.500000 0.016731 0.250000
Si Si2 0.408589 0.706328 0.578675
Si Si3 0.452903 0.796974 0.035310
Si Si4 0.787508 0.660113 0.917027
Si Si5 0.075506 0.804982 0.696741
Si Si6 0.339999 0.805233 0.735816
Si Si7 0.167797 0.840030 0.127162
O O1 0.553475 0.200354 0.328037
O O2 0.464263 0.823831 0.274307
O O3 0.420993 0.397004 0.567127
O O4 0.332825 0.782023 0.514591
O O5 0.441470 0.893683 0.547702
O O6 0.528426 0.730691 0.097930
O O7 0.408514 0.732287 0.939062
O O8 0.712800 0.743056 0.860135
O O9 0.796818 0.356606 0.897402
O O10 0.819127 0.857101 0.886451
O O11 0.138604 0.615661 0.741403
O O12 0.097463 0.112431 0.723997
O O13 0.310957 0.714967 0.783111
#
# Coordination Sequence:
#
# PCOD9271718 Si02
#       7
#     4   8   8   8   8   8   8
#     4  10  22  44  62  78 106 152 194 238 298 326
#     4   9  19  35  62  82 104 144 194 233 271 337
#     4   9  19  36  55  85 111 144 189 229 275 329
#     4  10  20  38  58  86 118 151 184 220 275 343
#     4  11  24  37  57  83 113 147 193 242 278 326
#     4  12  23  36  56  89 119 148 186 229 274 337
#     4  10  20  36  61  82 117 158 182 218 276 337
#
# _framework density 25.054534
#
# number of rings (size 3 to 8) (size 9 to 14) (size 15 to 20)
#    0.000    1.846    0.000    4.615    0.000    6.769 
#    0.000    1.538    0.000    0.000    0.000    0.000 
#    0.000    0.000    0.000    0.000    0.000    0.000 
#
# Total GULP energy -145558.672824 kJ/mol
# GULP energy per Si atom -5598.410493 kJ/mol
# Density = 2.499751 g / cm^3
# Si number density = 25.054534 Si / 1000 Ang^3
#
#
#
# Elastic Constant Matrix: (Units=GPa)
#
#
# Indices 1 2 3 4 5 6 
#
# 1 28.7677 4.9021 17.5550 0.0005 2.7548 0.0036
# 2 4.9021 77.6838 4.7975 -0.0012 -0.0792 0.0026
# 3 17.5550 4.7975 181.3516 -0.0010 35.8151 0.0008
# 4 0.0005 -0.0012 -0.0010 30.1982 -0.0013 3.4976
# 5 2.7548 -0.0792 35.8151 -0.0013 37.3830 -0.0005
# 6 0.0036 0.0026 0.0008 3.4976 -0.0005 32.6653
#
#
#
# Elastic Compliance Matrix: (Units=1/GPa)
#
#
# Indices 1 2 3 4 5 6 
#
# 1 0.037313 -0.002124 -0.003715 0.000000 0.000805 -0.000004
# 2 -0.002124 0.013020 -0.000216 0.000001 0.000391 -0.000001
# 3 -0.003715 -0.000216 0.007185 0.000000 -0.006610 0.000000
# 4 0.000000 0.000001 0.000000 0.033530 0.000001 -0.003590
# 5 0.000805 0.000391 -0.006610 0.000001 0.033025 0.000000
# 6 -0.000004 -0.000001 0.000000 -0.003590 0.000000 0.030998
#
#
# Mechanical properties :
#
#
# Convention : Reuss Voigt Hill
#
# Bulk Modulus (GPa) = 22.02243 38.03469 30.02856
# Shear Modulus (GPa) = 27.42470 37.41920 32.42195
#
# Velocity S-wave (km/s) = 3.31206 3.86879 3.60120
# Velocity P-wave (km/s) = 4.84100 5.93047 5.41321
#
# Compressibility (1/GPa) = 0.04540825
#
# Stress axis : x y z
#
# Youngs Moduli (GPa) = 26.80041 76.80199 139.18065
#
# Poissons Ratio (x) = 0.16315 0.51700
# Poissons Ratio (y) = 0.05693 0.03007
# Poissons Ratio (z) = 0.09955 0.01659
#
# Static dielectric constant tensor:
#      x y z
#    x 1.998600 0.000000 0.053100 
#    y 0.000000 1.875770 0.000000 
#    z 0.053100 0.000000 2.010440 
# 
# From -- ./inp_files/284090.got.cif
#   From: 2010.05.17/outbox.cif.g08.bks.cpg/sg15_143_cif.got.tgz:284090.got - 2010.06.03 18:47:42.
