data_PCOD9271742
_publ_section_title
;
Structure prediction by ZEFSAII (Michael W. Deem and Ramdas Pophale) SiO2 
 PCOD9271742
Probable space group: C 2/C
;
_chemical_formula_sum "Si O2"
_cell_formula_units_Z 48
_cell_length_a 12.189329
_cell_length_b 29.023047
_cell_length_c 8.452732
_cell_angle_alpha 90.000000
_cell_angle_beta 124.023452
_cell_angle_gamma 90.000000
_cell_volume 2478.415758
_symmetry_space_group_name_H-M "C 2/C"
_symmetry_group_IT_number 15
_symmetry_cell_setting 'monoclinic'
loop_
_space_group_symop_operation_xyz
x,y,z
-x,y,1/2-z
-x,-y,-z
x,-y,1/2+z
1/2+x,1/2+y,z
1/2-x,1/2+y,1/2-z
1/2-x,1/2-y,-z
1/2+x,1/2-y,1/2+z
loop_
_atom_site_type_symbol
_atom_site_label
_atom_site_fract_x
_atom_site_fract_y
_atom_site_fract_z
Si Si1 0.741455 0.156602 0.218444
Si Si2 0.630884 0.402693 0.952314
Si Si3 0.612408 0.239761 0.975520
Si Si4 0.513917 0.325910 0.076298
Si Si5 0.357479 0.066046 0.209735
Si Si6 0.349526 0.973876 0.060210
O O1 0.793510 0.133522 0.099239
O O2 0.867918 0.182263 0.388537
O O3 0.710192 0.114789 0.312269
O O4 0.625551 0.191656 0.080691
O O5 0.500000 0.419493 0.750000
O O6 0.575781 0.372815 0.053303
O O7 0.740799 0.442187 0.060978
O O8 0.500000 0.238342 0.750000
O O9 0.750000 0.250000 0.000000
O O10 0.593024 0.281730 0.080456
O O11 0.500000 0.329661 0.250000
O O12 0.500000 0.076054 0.250000
O O13 0.359038 0.041814 0.384961
O O14 0.303062 0.026550 0.048951
O O15 0.500000 0.969940 0.250000
#
# Coordination Sequence:
#
# PCOD9271742 Si02
#       6
#     8   8   8   8   8   8
#     4  10  22  41  62  89 124 167 207 252 307 377
#     4   9  19  40  61  85 121 166 210 246 304 373
#     4  12  22  44  70  90 123 167 208 249 313 381
#     4  11  23  39  61  92 128 160 200 265 313 363
#     4  10  21  38  59  90 128 159 205 258 307 363
#     4  10  20  36  61  87 118 162 205 255 307 358
#
# _framework density 19.367208999999999
#
# number of rings (size 3 to 8) (size 9 to 14) (size 15 to 20)
#    0.000    1.667    3.333    2.500    0.000    6.667 
#    3.000    8.333    0.000    0.000    0.000    0.000 
#    0.000    0.000    0.000    0.000    0.000    0.000 
#
# Total GULP energy -133807.526049 kJ/mol
# GULP energy per Si atom -5575.313585 kJ/mol
# Density = 1.932313 g / cm^3
# Si number density = 19.367209 Si / 1000 Ang^3
#
#
#
# Elastic Constant Matrix: (Units=GPa)
#
#
# Indices 1 2 3 4 5 6 
#
# 1 109.5892 51.3283 42.3330 0.0000 -7.1238 0.0000
# 2 51.3283 86.1611 33.8553 0.0000 5.7146 0.0000
# 3 42.3330 33.8553 20.3776 0.0000 0.9744 0.0000
# 4 0.0000 0.0000 0.0000 -2.4572 0.0000 -10.5398
# 5 -7.1238 5.7146 0.9744 0.0000 28.7758 0.0000
# 6 0.0000 0.0000 0.0000 -10.5398 0.0000 -17.4735
#
#
#
# Elastic Compliance Matrix: (Units=1/GPa)
#
#
# Indices 1 2 3 4 5 6 
#
# 1 0.124204 0.074952 -0.383932 0.000000 0.028864 0.000000
# 2 0.074952 0.079326 -0.288101 0.000000 0.012558 0.000000
# 3 -0.383932 -0.288101 1.329277 0.000000 -0.082846 0.000000
# 4 0.000000 0.000000 0.000000 0.256385 0.000000 -0.154649
# 5 0.028864 0.012558 -0.082846 0.000000 0.042209 0.000000
# 6 0.000000 0.000000 0.000000 -0.154649 0.000000 0.036054
#
#
# Mechanical properties :
#
#
# Convention : Reuss Voigt Hill
#
# Bulk Modulus (GPa) = 2.95293 52.35124 27.65209
# Shear Modulus (GPa) = 1.57505 7.67646 4.62575
#
# Velocity S-wave (km/s) = 0.90279 1.99305 1.54714
# Velocity P-wave (km/s) = 1.61701 5.69086 4.18333
#
# Compressibility (1/GPa) = 0.33864664
#
# Stress axis : x y z
#
# Youngs Moduli (GPa) = 8.05126 12.60626 0.75229
#
# Poissons Ratio (x) = -0.94487 0.28883
# Poissons Ratio (y) = -0.60346 0.21673
# Poissons Ratio (z) = 3.09113 3.63187
#
# Static dielectric constant tensor:
#      x y z
#    x 1.687140 0.000000 0.092570 
#    y 0.000000 1.716870 0.000000 
#    z 0.092570 0.000000 2.252560 
# 
# From -- ./inp_files/33806.got.cif
#   From: 2010.05.17/outbox.cif.g08.bks.cpg/sg15_17_cif.got.tgz:33806.got - 2010.06.03 18:47:42.
