data_PCOD9271195
_publ_section_title
;
Structure prediction by ZEFSAII (Michael W. Deem and Ramdas Pophale) SiO2 
 PCOD9271195
Probable space group: C 2/C
;
_chemical_formula_sum "Si O2"
_cell_formula_units_Z 60
_cell_length_a 14.165244
_cell_length_b 18.080868
_cell_length_c 12.326871
_cell_angle_alpha 90.000000
_cell_angle_beta 83.833024
_cell_angle_gamma 90.000000
_cell_volume 3138.886735
_symmetry_space_group_name_H-M "C 2/C"
_symmetry_group_IT_number 15
_symmetry_cell_setting 'monoclinic'
loop_
_space_group_symop_operation_xyz
x,y,z
-x,y,1/2-z
-x,-y,-z
x,-y,1/2+z
1/2+x,1/2+y,z
1/2-x,1/2+y,1/2-z
1/2-x,1/2-y,-z
1/2+x,1/2-y,1/2+z
loop_
_atom_site_type_symbol
_atom_site_label
_atom_site_fract_x
_atom_site_fract_y
_atom_site_fract_z
Si Si1 0.915425 0.257342 0.832719
Si Si2 0.293647 0.607177 0.543087
Si Si3 0.500000 0.515358 0.250000
Si Si4 0.319068 0.378570 0.801661
Si Si5 0.697887 0.564559 0.423063
Si Si6 0.186402 0.321546 0.469591
Si Si7 0.280046 0.782372 0.267608
Si Si8 0.990013 0.108301 0.936411
O O1 0.822961 0.242601 0.769001
O O2 0.947510 0.177856 0.876908
O O3 0.000000 0.286656 0.750000
O O4 0.898825 0.310720 0.936863
O O5 0.264280 0.609011 0.420769
O O6 0.287875 0.522538 0.582043
O O7 0.239783 0.661806 0.631502
O O8 0.406314 0.627229 0.530473
O O9 0.589809 0.567691 0.215513
O O10 0.495316 0.459332 0.148780
O O11 0.270043 0.399113 0.693804
O O12 0.336144 0.290906 0.795431
O O13 0.756622 0.604544 0.510242
O O14 0.588437 0.585503 0.464766
O O15 0.250000 0.250000 0.500000
O O16 0.168975 0.316073 0.344521
#
# Coordination Sequence:
#
# PCOD9271195 Si02
#       8
#     8   8   4   8   8   8   8   8
#     4  11  19  35  62  87 116 156 201 250 285 352
#     4  12  25  35  58  87 125 165 192 250 301 365
#     4  12  22  36  56  94 130 160 190 242 298 372
#     4  12  24  37  55  85 127 162 201 235 299 369
#     4  12  22  37  56  88 125 159 203 239 300 361
#     4  10  20  36  58  81 115 158 202 248 282 348
#     4  11  22  42  56  84 122 162 204 243 301 360
#     4  12  20  35  57  92 129 158 192 233 310 365
#
# _framework density 19.115057
#
# number of rings (size 3 to 8) (size 9 to 14) (size 15 to 20)
#    0.000    0.533   10.000    1.600    1.867    0.000 
#    0.000    0.000    0.000    0.000    1.733    1.867 
#    0.000    0.000    0.000    0.000    0.000    0.000 
#
# Total GULP energy -167433.863698 kJ/mol
# GULP energy per Si atom -5581.128790 kJ/mol
# Density = 1.907155 g / cm^3
# Si number density = 19.115057 Si / 1000 Ang^3
#
#
#
# Elastic Constant Matrix: (Units=GPa)
#
#
# Indices 1 2 3 4 5 6 
#
# 1 21.6685 5.7674 9.5091 0.0000 -15.3193 0.0000
# 2 5.7674 75.8579 30.2300 0.0000 -3.5424 0.0000
# 3 9.5091 30.2300 141.8466 0.0000 -35.9168 0.0000
# 4 0.0000 0.0000 0.0000 36.9751 0.0000 -5.9193
# 5 -15.3193 -3.5424 -35.9168 0.0000 28.7669 0.0000
# 6 0.0000 0.0000 0.0000 -5.9193 0.0000 25.2674
#
#
#
# Elastic Compliance Matrix: (Units=1/GPa)
#
#
# Indices 1 2 3 4 5 6 
#
# 1 0.083668 -0.007859 0.010387 0.000000 0.056556 0.000000
# 2 -0.007859 0.015325 -0.004856 0.000000 -0.008362 0.000000
# 3 0.010387 -0.004856 0.012631 0.000000 0.020703 0.000000
# 4 0.000000 0.000000 0.000000 0.028099 0.000000 0.006583
# 5 0.056556 -0.008362 0.020703 0.000000 0.089700 0.000000
# 6 0.000000 0.000000 0.000000 0.006583 0.000000 0.041119
#
#
# Mechanical properties :
#
#
# Convention : Reuss Voigt Hill
#
# Bulk Modulus (GPa) = 9.34878 36.70953 23.02916
# Shear Modulus (GPa) = 16.08467 31.12631 23.60549
#
# Velocity S-wave (km/s) = 2.90395 4.03968 3.51795
# Velocity P-wave (km/s) = 4.01812 6.40351 5.34557
#
# Compressibility (1/GPa) = 0.10696583
#
# Stress axis : x y z
#
# Youngs Moduli (GPa) = 11.95197 65.25323 79.17131
#
# Poissons Ratio (x) = 0.51284 -0.82232
# Poissons Ratio (y) = 0.09393 0.38449
# Poissons Ratio (z) = -0.12414 0.31689
#
# Static dielectric constant tensor:
#      x y z
#    x 1.690790 0.000000 0.005060 
#    y 0.000000 1.659170 0.000000 
#    z 0.005060 0.000000 1.746140 
# 
# From -- ./inp_files/98326.got.cif
#   From: 2010.05.17/outbox.cif.g08.bks.cpg/sg15_50_cif.got.tgz:98326.got - 2010.06.03 18:47:42.
