data_PCOD9271946
_publ_section_title
;
Structure prediction by ZEFSAII (Michael W. Deem and Ramdas Pophale) SiO2 
 PCOD9271946
Probable space group: C 2/C
;
_chemical_formula_sum "Si O2"
_cell_formula_units_Z 48
_cell_length_a 19.900478
_cell_length_b 28.503622
_cell_length_c 10.618178
_cell_angle_alpha 90.000000
_cell_angle_beta 20.867988
_cell_angle_gamma 90.000000
_cell_volume 2145.492347
_symmetry_space_group_name_H-M "C 2/C"
_symmetry_group_IT_number 15
_symmetry_cell_setting 'monoclinic'
loop_
_space_group_symop_operation_xyz
x,y,z
-x,y,1/2-z
-x,-y,-z
x,-y,1/2+z
1/2+x,1/2+y,z
1/2-x,1/2+y,1/2-z
1/2-x,1/2-y,-z
1/2+x,1/2-y,1/2+z
loop_
_atom_site_type_symbol
_atom_site_label
_atom_site_fract_x
_atom_site_fract_y
_atom_site_fract_z
Si Si1 0.815117 0.154914 0.190562
Si Si2 0.500000 0.521077 0.250000
Si Si3 0.146660 0.946203 0.824588
Si Si4 0.000000 0.495076 0.250000
Si Si5 0.000802 0.657997 0.954153
Si Si6 0.363107 0.064060 0.677369
Si Si7 0.533347 0.248179 0.335106
O O1 0.921383 0.105735 0.023872
O O2 0.648477 0.152099 0.583376
O O3 0.706662 0.158168 0.246503
O O4 0.935311 0.200977 0.010506
O O5 0.500017 0.485097 0.369196
O O6 0.320887 0.554783 0.587919
O O7 0.253577 0.945655 0.501937
O O8 0.329514 0.960924 0.586665
O O9 0.012835 0.529018 0.349635
O O10 0.040654 0.614425 0.976787
O O11 0.048490 0.707481 0.934045
O O12 0.500000 0.232495 0.250000
O O13 0.750000 0.250000 0.000000
#
# Coordination Sequence:
#
# PCOD9271946 Si02
#       7
#     8   4   8   4   8   8   8
#     4  10  22  43  68  96 125 173 220 262 328 397
#     4  10  22  36  58  90 132 168 218 264 322 380
#     4  10  20  37  62  90 126 170 217 264 319 388
#     4  10  20  36  62  92 126 170 220 268 324 374
#     4  10  22  43  67  92 130 170 216 269 325 396
#     4  10  21  39  58  91 128 171 216 268 322 389
#     4  12  25  45  68  99 131 163 217 276 337 399
#
# _framework density 22.372488000000001
#
# number of rings (size 3 to 8) (size 9 to 14) (size 15 to 20)
#    0.000    1.667    1.667    3.500    2.333    1.333 
#    6.000    0.000    0.000    0.000    0.000    0.000 
#    0.000    0.000    0.000    0.000    0.000    0.000 
#
# Total GULP energy -133646.995707 kJ/mol
# GULP energy per Si atom -5568.624821 kJ/mol
# Density = 2.232157 g / cm^3
# Si number density = 22.372488 Si / 1000 Ang^3
#
#
#
# Elastic Constant Matrix: (Units=GPa)
#
#
# Indices 1 2 3 4 5 6 
#
# 1 75.4502 51.3934 14.7252 -0.0152 9.9106 0.0028
# 2 51.3934 186.0300 37.9375 -0.0346 -20.2201 0.0053
# 3 14.7252 37.9375 63.6192 -0.0569 -3.7162 0.0290
# 4 -0.0152 -0.0346 -0.0569 34.6585 0.0144 10.7106
# 5 9.9106 -20.2201 -3.7162 0.0144 42.2008 0.0010
# 6 0.0028 0.0053 0.0290 10.7106 0.0010 27.7342
#
#
#
# Elastic Compliance Matrix: (Units=1/GPa)
#
#
# Indices 1 2 3 4 5 6 
#
# 1 0.018198 -0.005521 -0.001331 0.000003 -0.007036 0.000000
# 2 -0.005521 0.008098 -0.003266 -0.000003 0.004889 0.000003
# 3 -0.001331 -0.003266 0.017993 0.000035 0.000332 -0.000032
# 4 0.000003 -0.000003 0.000035 0.032763 -0.000010 -0.012653
# 5 -0.007036 0.004889 0.000332 -0.000010 0.027721 0.000002
# 6 0.000000 0.000003 -0.000032 -0.012653 0.000002 0.040943
#
#
# Mechanical properties :
#
#
# Convention : Reuss Voigt Hill
#
# Bulk Modulus (GPa) = 41.57154 59.24574 50.40864
# Shear Modulus (GPa) = 28.74064 35.65493 32.19779
#
# Velocity S-wave (km/s) = 3.58808 3.99644 3.79775
# Velocity P-wave (km/s) = 5.98228 6.91624 6.46614
#
# Compressibility (1/GPa) = 0.02405492
#
# Stress axis : x y z
#
# Youngs Moduli (GPa) = 54.94992 123.48595 55.57599
#
# Poissons Ratio (x) = 0.68176 0.07397
# Poissons Ratio (y) = 0.30337 0.18149
# Poissons Ratio (z) = 0.07313 0.40326
#
# Static dielectric constant tensor:
#      x y z
#    x 1.986460 0.000000 -0.041820 
#    y 0.000000 1.817490 0.000020 
#    z -0.041820 0.000020 1.876960 
# 
# From -- ./inp_files/115057.got.cif
#   From: 2010.05.17/outbox.cif.g08.bks.cpg/sg15_58_cif.got.tgz:115057.got - 2010.06.03 18:47:42.
