data_PCOD9271415
_publ_section_title
;
Structure prediction by ZEFSAII (Michael W. Deem and Ramdas Pophale) SiO2 
 PCOD9271415
Probable space group: C 2/C
;
_chemical_formula_sum "Si O2"
_cell_formula_units_Z 48
_cell_length_a 8.633256
_cell_length_b 18.353359
_cell_length_c 17.070416
_cell_angle_alpha 90.000000
_cell_angle_beta 104.374926
_cell_angle_gamma 90.000000
_cell_volume 2620.112580
_symmetry_space_group_name_H-M "C 2/C"
_symmetry_group_IT_number 15
_symmetry_cell_setting 'monoclinic'
loop_
_space_group_symop_operation_xyz
x,y,z
-x,y,1/2-z
-x,-y,-z
x,-y,1/2+z
1/2+x,1/2+y,z
1/2-x,1/2+y,1/2-z
1/2-x,1/2-y,-z
1/2+x,1/2-y,1/2+z
loop_
_atom_site_type_symbol
_atom_site_label
_atom_site_fract_x
_atom_site_fract_y
_atom_site_fract_z
Si Si1 0.343358 0.669199 0.105671
Si Si2 0.061055 0.378327 0.667921
Si Si3 0.591333 0.169140 0.929878
Si Si4 0.178474 0.328950 0.984690
Si Si5 0.596123 0.979648 0.341800
Si Si6 0.406010 0.441963 0.934233
O O1 0.240017 0.645467 0.168676
O O2 0.403702 0.752992 0.113669
O O3 0.478535 0.609903 0.102192
O O4 0.221283 0.668788 0.016283
O O5 0.000000 0.376246 0.750000
O O6 0.945474 0.327650 0.602920
O O7 0.019114 0.460003 0.631142
O O8 0.622762 0.098263 0.882918
O O9 0.421297 0.156729 0.949830
O O10 0.309908 0.388791 0.980869
O O11 0.250000 0.250000 0.000000
O O12 0.500000 0.967419 0.250000
O O13 0.769559 0.019071 0.364045
O O14 0.500000 0.500000 0.000000
#
# Coordination Sequence:
#
# PCOD9271415 Si02
#       6
#     8   8   8   8   8   8
#     4  10  20  36  64  94 114 155 207 254 294 356
#     4   9  21  39  60  82 122 160 199 243 307 365
#     4  10  20  37  61  89 122 156 199 249 305 361
#     4  10  20  36  59  85 122 156 198 247 296 357
#     4  10  22  41  57  84 129 162 195 246 312 365
#     4  11  21  35  64  93 118 152 211 255 289 355
#
# _framework density 18.319823
#
# number of rings (size 3 to 8) (size 9 to 14) (size 15 to 20)
#    0.000    2.000    3.333    0.000    2.333    2.000 
#    3.000    7.500    0.000    0.000    0.000    0.000 
#    0.000    0.000    0.000    0.000    0.000    0.000 
#
# Total GULP energy -133688.066213 kJ/mol
# GULP energy per Si atom -5570.336092 kJ/mol
# Density = 1.827813 g / cm^3
# Si number density = 18.319823 Si / 1000 Ang^3
#
#
#
# Elastic Constant Matrix: (Units=GPa)
#
#
# Indices 1 2 3 4 5 6 
#
# 1 142.2210 78.1456 27.5191 0.0000 -16.4488 0.0000
# 2 78.1456 143.4496 44.0118 0.0000 -9.7816 0.0000
# 3 27.5191 44.0118 46.3482 0.0000 -0.3798 0.0000
# 4 0.0000 0.0000 0.0000 19.7685 0.0000 4.4991
# 5 -16.4488 -9.7816 -0.3798 0.0000 21.7896 0.0000
# 6 0.0000 0.0000 0.0000 4.4991 0.0000 30.4862
#
#
#
# Elastic Compliance Matrix: (Units=1/GPa)
#
#
# Indices 1 2 3 4 5 6 
#
# 1 0.010747 -0.004956 -0.001627 0.000000 0.005860 0.000000
# 2 -0.004956 0.012533 -0.008945 0.000000 0.001729 0.000000
# 3 -0.001627 -0.008945 0.030997 0.000000 -0.004703 0.000000
# 4 0.000000 0.000000 0.000000 0.052344 0.000000 -0.007725
# 5 0.005860 0.001729 -0.004703 0.000000 0.051011 0.000000
# 6 0.000000 0.000000 0.000000 -0.007725 0.000000 0.033942
#
#
# Mechanical properties :
#
#
# Convention : Reuss Voigt Hill
#
# Bulk Modulus (GPa) = 43.06224 70.15243 56.60733
# Shear Modulus (GPa) = 21.70433 26.56500 24.13466
#
# Velocity S-wave (km/s) = 3.44575 3.81211 3.63355
# Velocity P-wave (km/s) = 6.27597 7.59951 6.96923
#
# Compressibility (1/GPa) = 0.02322220
#
# Stress axis : x y z
#
# Youngs Moduli (GPa) = 93.05078 79.78961 32.26120
#
# Poissons Ratio (x) = 0.39541 0.05249
# Poissons Ratio (y) = 0.46113 0.28856
# Poissons Ratio (z) = 0.15139 0.71368
#
# Static dielectric constant tensor:
#      x y z
#    x 1.871160 0.000000 0.011780 
#    y 0.000000 1.638170 0.000000 
#    z 0.011780 0.000000 1.683610 
# 
# From -- ./inp_files/189938.got.cif
#   From: 2010.05.17/outbox.cif.g08.bks.cpg/sg15_95_cif.got.tgz:189938.got - 2010.06.03 18:47:42.
