data_PCOD9271611
_publ_section_title
;
Structure prediction by ZEFSAII (Michael W. Deem and Ramdas Pophale) SiO2 
 PCOD9271611
Probable space group: C 2/C
;
_chemical_formula_sum "Si O2"
_cell_formula_units_Z 44
_cell_length_a 11.359162
_cell_length_b 9.601728
_cell_length_c 21.501618
_cell_angle_alpha 90.000000
_cell_angle_beta 134.469388
_cell_angle_gamma 90.000000
_cell_volume 1673.542656
_symmetry_space_group_name_H-M "C 2/C"
_symmetry_group_IT_number 15
_symmetry_cell_setting 'monoclinic'
loop_
_space_group_symop_operation_xyz
x,y,z
-x,y,1/2-z
-x,-y,-z
x,-y,1/2+z
1/2+x,1/2+y,z
1/2-x,1/2+y,1/2-z
1/2-x,1/2-y,-z
1/2+x,1/2-y,1/2+z
loop_
_atom_site_type_symbol
_atom_site_label
_atom_site_fract_x
_atom_site_fract_y
_atom_site_fract_z
Si Si1 0.106376 0.897522 0.458977
Si Si2 0.455285 0.048044 0.598581
Si Si3 0.000000 0.547395 0.250000
Si Si4 0.509083 0.350667 0.646351
Si Si5 0.755274 0.074356 0.155775
Si Si6 0.739910 0.736159 0.887089
O O1 0.102664 0.807433 0.520176
O O2 0.131448 0.796525 0.409307
O O3 0.268713 0.996618 0.525379
O O4 0.973684 0.010484 0.388911
O O5 0.492472 0.210440 0.599957
O O6 0.560659 0.940507 0.595692
O O7 0.510288 0.036920 0.690590
O O8 0.844198 0.647714 0.185422
O O9 0.653784 0.359253 0.751400
O O10 0.341012 0.359837 0.626832
O O11 0.784101 0.908678 0.157725
#
# Coordination Sequence:
#
# PCOD9271611 Si02
#       6
#     8   8   4   8   8   8
#     4   9  19  38  63  88 126 163 200 263 319 361
#     4  11  23  38  65  93 122 166 211 256 317 381
#     4  10  20  36  60  88 120 156 208 260 296 376
#     4  10  21  41  61  92 129 163 203 267 310 374
#     4  10  22  39  64  88 124 167 206 251 320 369
#     4   9  18  35  59  88 117 161 202 248 310 369
#
# _framework density 26.291533000000001
#
# number of rings (size 3 to 8) (size 9 to 14) (size 15 to 20)
#    0.000    2.182    0.000    3.818    2.545    2.909 
#    0.000    0.909    4.000    0.000    0.000    0.000 
#    0.000    0.000    0.000    0.000    0.000    0.000 
#
# Total GULP energy -122894.173394 kJ/mol
# GULP energy per Si atom -5586.098791 kJ/mol
# Density = 2.623169 g / cm^3
# Si number density = 26.291533 Si / 1000 Ang^3
#
#
#
# Elastic Constant Matrix: (Units=GPa)
#
#
# Indices 1 2 3 4 5 6 
#
# 1 69.1679 13.1566 12.2159 0.0000 -14.4777 0.0000
# 2 13.1566 100.5732 36.0460 0.0000 -2.6624 0.0000
# 3 12.2159 36.0460 105.3032 0.0000 -15.2716 0.0000
# 4 0.0000 0.0000 0.0000 46.6559 0.0000 -15.6159
# 5 -14.4777 -2.6624 -15.2716 0.0000 19.4060 0.0000
# 6 0.0000 0.0000 0.0000 -15.6159 0.0000 40.8003
#
#
#
# Elastic Compliance Matrix: (Units=1/GPa)
#
#
# Indices 1 2 3 4 5 6 
#
# 1 0.017539 -0.002170 0.000635 0.000000 0.013287 0.000000
# 2 -0.002170 0.011651 -0.004221 0.000000 -0.003343 0.000000
# 3 0.000635 -0.004221 0.012251 0.000000 0.009535 0.000000
# 4 0.000000 0.000000 0.000000 0.024583 0.000000 0.009409
# 5 0.013287 -0.003343 0.009535 0.000000 0.068489 0.000000
# 6 0.000000 0.000000 0.000000 0.009409 0.000000 0.028111
#
#
# Mechanical properties :
#
#
# Convention : Reuss Voigt Hill
#
# Bulk Modulus (GPa) = 33.41309 44.20902 38.81106
# Shear Modulus (GPa) = 27.15731 35.61415 31.38573
#
# Velocity S-wave (km/s) = 3.21741 3.68446 3.45883
# Velocity P-wave (km/s) = 5.15156 5.91200 5.54483
#
# Compressibility (1/GPa) = 0.02992839
#
# Stress axis : x y z
#
# Youngs Moduli (GPa) = 57.01448 85.82664 81.62896
#
# Poissons Ratio (x) = 0.18627 -0.05185
# Poissons Ratio (y) = 0.12374 0.34458
# Poissons Ratio (z) = -0.03622 0.36230
#
# Static dielectric constant tensor:
#      x y z
#    x 2.243980 0.000000 0.055940 
#    y 0.000000 2.022370 0.000000 
#    z 0.055940 0.000000 2.008260 
# 
# From -- ./inp_files/272930.got.cif
#   From: 2010.05.17/outbox.cif.g08.bks.cpg/sg15_137_cif.got.tgz:272930.got - 2010.06.03 18:47:42.
