data_PCOD9271377
_publ_section_title
;
Structure prediction by ZEFSAII (Michael W. Deem and Ramdas Pophale) SiO2 
 PCOD9271377
Probable space group: C 2/C
;
_chemical_formula_sum "Si O2"
_cell_formula_units_Z 40
_cell_length_a 6.159356
_cell_length_b 24.949528
_cell_length_c 11.732662
_cell_angle_alpha 90.000000
_cell_angle_beta 105.372562
_cell_angle_gamma 90.000000
_cell_volume 1738.486990
_symmetry_space_group_name_H-M "C 2/C"
_symmetry_group_IT_number 15
_symmetry_cell_setting 'monoclinic'
loop_
_space_group_symop_operation_xyz
x,y,z
-x,y,1/2-z
-x,-y,-z
x,-y,1/2+z
1/2+x,1/2+y,z
1/2-x,1/2+y,1/2-z
1/2-x,1/2-y,-z
1/2+x,1/2-y,1/2+z
loop_
_atom_site_type_symbol
_atom_site_label
_atom_site_fract_x
_atom_site_fract_y
_atom_site_fract_z
Si Si1 0.625483 0.508268 0.644000
Si Si2 0.865847 0.111678 0.344691
Si Si3 0.912232 0.325484 0.532912
Si Si4 0.274854 0.117439 0.581203
Si Si5 0.447631 0.279293 0.371087
O O1 0.500000 0.517686 0.750000
O O2 0.500000 0.500000 0.500000
O O3 0.724288 0.448993 0.677096
O O4 0.774036 0.561413 0.646999
O O5 0.671351 0.150037 0.360618
O O6 0.000000 0.127176 0.250000
O O7 0.059505 0.113314 0.467954
O O8 0.685377 0.301838 0.448538
O O9 0.091038 0.277133 0.570345
O O10 0.010113 0.371894 0.467056
O O11 0.230454 0.172335 0.645087
O O12 0.500000 0.265005 0.250000
#
# Coordination Sequence:
#
# PCOD9271377 Si02
#       5
#     8   8   8   8   8
#     4   9  18  36  60  86 122 161 196 249 309 359
#     4   9  20  36  57  86 119 155 196 248 305 360
#     4  10  22  38  57  87 114 152 207 244 299 374
#     4  10  20  36  59  83 117 155 199 247 298 365
#     4  10  22  39  55  82 119 154 193 252 304 359
#
# _framework density 23.008514000000002
#
# number of rings (size 3 to 8) (size 9 to 14) (size 15 to 20)
#    0.000    2.400    0.000    1.200    2.800    1.600 
#    0.000    0.000    0.000   14.400    0.000    0.000 
#    0.000    0.000    0.000    0.000    0.000    0.000 
#
# Total GULP energy -111463.596007 kJ/mol
# GULP energy per Si atom -5573.179800 kJ/mol
# Density = 2.295615 g / cm^3
# Si number density = 23.008514 Si / 1000 Ang^3
#
#
#
# Elastic Constant Matrix: (Units=GPa)
#
#
# Indices 1 2 3 4 5 6 
#
# 1 60.6579 54.7463 34.3006 0.0000 -19.1236 0.0000
# 2 54.7463 156.7805 47.5957 0.0000 -39.3529 0.0000
# 3 34.3006 47.5957 107.7796 0.0000 -22.8771 0.0000
# 4 0.0000 0.0000 0.0000 34.8735 0.0000 -14.9621
# 5 -19.1236 -39.3529 -22.8771 0.0000 36.3236 0.0000
# 6 0.0000 0.0000 0.0000 -14.9621 0.0000 66.5840
#
#
#
# Elastic Compliance Matrix: (Units=1/GPa)
#
#
# Indices 1 2 3 4 5 6 
#
# 1 0.026486 -0.006975 -0.004609 0.000000 0.003485 0.000000
# 2 -0.006975 0.011047 -0.001036 0.000000 0.007644 0.000000
# 3 -0.004609 -0.001036 0.012062 0.000000 0.004047 0.000000
# 4 0.000000 0.000000 0.000000 0.031735 0.000000 0.007131
# 5 0.003485 0.007644 0.004047 0.000000 0.040195 0.000000
# 6 0.000000 0.000000 0.000000 0.007131 0.000000 0.016621
#
#
# Mechanical properties :
#
#
# Convention : Reuss Voigt Hill
#
# Bulk Modulus (GPa) = 41.06063 66.50036 53.78049
# Shear Modulus (GPa) = 29.15384 40.12794 34.64089
#
# Velocity S-wave (km/s) = 3.56348 4.18071 3.88437
# Velocity P-wave (km/s) = 5.90049 7.22978 6.59869
#
# Compressibility (1/GPa) = 0.02435423
#
# Stress axis : x y z
#
# Youngs Moduli (GPa) = 37.75592 90.52234 82.90627
#
# Poissons Ratio (x) = 0.63135 0.38215
# Poissons Ratio (y) = 0.26333 0.08592
# Poissons Ratio (z) = 0.17403 0.09381
#
# Static dielectric constant tensor:
#      x y z
#    x 1.859000 0.000000 0.008610 
#    y 0.000000 1.873180 0.000000 
#    z 0.008610 0.000000 1.952550 
# 
# From -- ./inp_files/73042.got.cif
#   From: 2010.05.17/outbox.cif.g08.bks.cpg/sg15_37_cif.got.tgz:73042.got - 2010.06.03 18:47:42.
