data_PCOD9271905
_publ_section_title
;
Structure prediction by ZEFSAII (Michael W. Deem and Ramdas Pophale) SiO2 
 PCOD9271905
Probable space group: C 2/C
;
_chemical_formula_sum "Si O2"
_cell_formula_units_Z 52
_cell_length_a 12.037901
_cell_length_b 16.053769
_cell_length_c 27.969452
_cell_angle_alpha 90.000000
_cell_angle_beta 152.150089
_cell_angle_gamma 90.000000
_cell_volume 2525.076992
_symmetry_space_group_name_H-M "C 2/C"
_symmetry_group_IT_number 15
_symmetry_cell_setting 'monoclinic'
loop_
_space_group_symop_operation_xyz
x,y,z
-x,y,1/2-z
-x,-y,-z
x,-y,1/2+z
1/2+x,1/2+y,z
1/2-x,1/2+y,1/2-z
1/2-x,1/2-y,-z
1/2+x,1/2-y,1/2+z
loop_
_atom_site_type_symbol
_atom_site_label
_atom_site_fract_x
_atom_site_fract_y
_atom_site_fract_z
Si Si1 0.000000 0.108216 0.250000
Si Si2 0.191463 0.890826 0.464402
Si Si3 0.451021 0.800843 0.965866
Si Si4 0.267285 0.366022 0.368680
Si Si5 0.593203 0.014301 0.876117
Si Si6 0.201666 0.345852 0.493804
Si Si7 0.428308 0.464346 0.821872
O O1 0.786104 0.162161 0.148196
O O2 0.899969 0.055316 0.255583
O O3 0.341037 0.823132 0.492240
O O4 0.938887 0.862100 0.388462
O O5 0.314520 0.936491 0.556965
O O6 0.126076 0.964701 0.403299
O O7 0.390821 0.703669 0.948957
O O8 0.467981 0.844189 0.023898
O O9 0.248409 0.453068 0.390296
O O10 0.000000 0.345915 0.250000
O O11 0.594571 0.094894 0.911986
O O12 0.329246 0.991976 0.757914
O O13 0.250000 0.250000 0.500000
O O14 0.453463 0.386968 0.605523
#
# Coordination Sequence:
#
# PCOD9271905 Si02
#       7
#     4   8   8   8   8   8   8
#     4  10  20  36  62  90 124 158 206 266 330 364
#     4  11  24  40  63  95 125 168 221 268 316 398
#     4  11  22  39  63  94 124 167 215 269 325 387
#     4  12  23  40  63  89 129 175 214 258 332 395
#     4  11  22  42  64  90 130 168 214 273 321 395
#     4  10  22  40  64  94 130 172 213 266 346 392
#     4  10  22  37  64  95 124 167 217 268 325 393
#
# _framework density 20.593430999999999
#
# number of rings (size 3 to 8) (size 9 to 14) (size 15 to 20)
#    0.000    1.231    5.385    0.923    2.154    1.846 
#    0.000    0.000    0.000    0.000    0.000    0.000 
#    0.000    0.000    0.000    0.000    0.000    0.000 
#
# Total GULP energy -145025.002685 kJ/mol
# GULP energy per Si atom -5577.884719 kJ/mol
# Density = 2.054656 g / cm^3
# Si number density = 20.593431 Si / 1000 Ang^3
#
#
#
# Elastic Constant Matrix: (Units=GPa)
#
#
# Indices 1 2 3 4 5 6 
#
# 1 116.5788 25.3048 23.0983 -0.0002 24.1985 0.0000
# 2 25.3048 67.8310 26.8815 0.0002 10.5162 0.0000
# 3 23.0983 26.8815 57.3423 0.0028 15.7862 0.0002
# 4 -0.0002 0.0002 0.0028 16.6458 0.0001 -2.9450
# 5 24.1985 10.5162 15.7862 0.0001 35.3720 0.0000
# 6 0.0000 0.0000 0.0002 -2.9450 0.0000 30.8443
#
#
#
# Elastic Compliance Matrix: (Units=1/GPa)
#
#
# Indices 1 2 3 4 5 6 
#
# 1 0.010628 -0.002455 -0.001516 0.000000 -0.005865 0.000000
# 2 -0.002455 0.018777 -0.007683 0.000001 -0.000474 0.000000
# 3 -0.001516 -0.007683 0.023642 -0.000004 -0.007230 -0.000001
# 4 0.000000 0.000001 -0.000004 0.061108 0.000001 0.005835
# 5 -0.005865 -0.000474 -0.007230 0.000001 0.035651 0.000000
# 6 0.000000 0.000000 -0.000001 0.005835 0.000000 0.032978
#
#
# Mechanical properties :
#
#
# Convention : Reuss Voigt Hill
#
# Bulk Modulus (GPa) = 33.62552 43.59124 38.60838
# Shear Modulus (GPa) = 23.14776 27.67026 25.40901
#
# Velocity S-wave (km/s) = 3.35630 3.66955 3.51642
# Velocity P-wave (km/s) = 5.60209 6.25841 5.93932
#
# Compressibility (1/GPa) = 0.02973932
#
# Stress axis : x y z
#
# Youngs Moduli (GPa) = 94.08694 53.25778 42.29802
#
# Poissons Ratio (x) = 0.13075 0.06412
# Poissons Ratio (y) = 0.23099 0.32497
# Poissons Ratio (z) = 0.14262 0.40917
#
# Static dielectric constant tensor:
#      x y z
#    x 1.771940 0.000000 -0.010410 
#    y 0.000000 1.793740 0.000000 
#    z -0.010410 0.000000 1.734930 
# 
# From -- ./inp_files/182817.got.cif
#   From: 2010.05.17/outbox.cif.g08.bks.cpg/sg15_92_cif.got.tgz:182817.got - 2010.06.03 18:47:42.
