data_PCOD9271273
_publ_section_title
;
Structure prediction by ZEFSAII (Michael W. Deem and Ramdas Pophale) SiO2 
 PCOD9271273
Probable space group: C 2/C
;
_chemical_formula_sum "Si O2"
_cell_formula_units_Z 36
_cell_length_a 7.863447
_cell_length_b 14.196421
_cell_length_c 21.733393
_cell_angle_alpha 90.000000
_cell_angle_beta 143.416925
_cell_angle_gamma 90.000000
_cell_volume 1445.961280
_symmetry_space_group_name_H-M "C 2/C"
_symmetry_group_IT_number 15
_symmetry_cell_setting 'monoclinic'
loop_
_space_group_symop_operation_xyz
x,y,z
-x,y,1/2-z
-x,-y,-z
x,-y,1/2+z
1/2+x,1/2+y,z
1/2-x,1/2+y,1/2-z
1/2-x,1/2-y,-z
1/2+x,1/2-y,1/2+z
loop_
_atom_site_type_symbol
_atom_site_label
_atom_site_fract_x
_atom_site_fract_y
_atom_site_fract_z
Si Si1 0.000000 0.852692 0.750000
Si Si2 0.130987 0.530691 0.627720
Si Si3 0.522173 0.575251 0.450776
Si Si4 0.562635 0.718367 0.564648
Si Si5 0.842170 0.940388 0.307851
O O1 0.735469 0.927235 0.681015
O O2 0.836498 0.788621 0.651538
O O3 0.371922 0.562944 0.650787
O O4 0.114550 0.581810 0.688971
O O5 0.829627 0.550924 0.510975
O O6 0.500000 0.500000 0.500000
O O7 0.511763 0.675583 0.481442
O O8 0.317876 0.539665 0.337071
O O9 0.250000 0.750000 0.500000
O O10 0.641448 0.637213 0.635936
#
# Coordination Sequence:
#
# PCOD9271273 Si02
#       5
#     4   8   8   8   8
#     4  10  20  36  58  86 120 152 198 262 302 338
#     4  10  21  40  61  84 116 161 206 247 298 377
#     4  10  20  36  60  85 116 161 200 239 303 376
#     4  11  22  38  60  91 125 158 202 262 308 354
#     4   9  20  38  59  82 115 161 203 242 302 376
#
# _framework density 24.896932
#
# number of rings (size 3 to 8) (size 9 to 14) (size 15 to 20)
#    0.000    2.222    0.000    4.667    0.000    4.444 
#    0.000   18.889    0.000    0.000    0.000    0.000 
#    0.000    0.000    0.000    0.000    0.000    0.000 
#
# Total GULP energy -100215.252371 kJ/mol
# GULP energy per Si atom -5567.514021 kJ/mol
# Density = 2.484027 g / cm^3
# Si number density = 24.896932 Si / 1000 Ang^3
#
#
#
# Elastic Constant Matrix: (Units=GPa)
#
#
# Indices 1 2 3 4 5 6 
#
# 1 119.0820 26.2901 26.4952 -0.0001 11.5204 0.0000
# 2 26.2901 71.6365 12.4139 0.0000 -1.8243 0.0000
# 3 26.4952 12.4139 85.1417 0.0006 2.6010 0.0000
# 4 -0.0001 0.0000 0.0006 23.7203 0.0001 1.1576
# 5 11.5204 -1.8243 2.6010 0.0001 52.6881 0.0000
# 6 0.0000 0.0000 0.0000 1.1576 0.0000 28.8248
#
#
#
# Elastic Compliance Matrix: (Units=1/GPa)
#
#
# Indices 1 2 3 4 5 6 
#
# 1 0.009886 -0.003243 -0.002538 0.000000 -0.002149 0.000000
# 2 -0.003243 0.015404 -0.001277 0.000000 0.001305 0.000000
# 3 -0.002538 -0.001277 0.012725 0.000000 -0.000117 0.000000
# 4 0.000000 0.000000 0.000000 0.042241 0.000000 -0.001696
# 5 -0.002149 0.001305 -0.000117 0.000000 0.019500 0.000000
# 6 0.000000 0.000000 0.000000 -0.001696 0.000000 0.034761
#
#
# Mechanical properties :
#
#
# Convention : Reuss Voigt Hill
#
# Bulk Modulus (GPa) = 41.84193 45.13985 43.49089
# Shear Modulus (GPa) = 31.92885 35.09071 33.50978
#
# Velocity S-wave (km/s) = 3.58500 3.75832 3.67269
# Velocity P-wave (km/s) = 5.82914 6.08304 5.95744
#
# Compressibility (1/GPa) = 0.02389947
#
# Stress axis : x y z
#
# Youngs Moduli (GPa) = 101.15202 64.91817 78.58772
#
# Poissons Ratio (x) = 0.21053 0.19945
# Poissons Ratio (y) = 0.32804 0.10033
# Poissons Ratio (z) = 0.25672 0.08288
#
# Static dielectric constant tensor:
#      x y z
#    x 1.833280 0.000000 -0.129380 
#    y 0.000000 2.087940 0.000000 
#    z -0.129380 0.000000 1.850070 
# 
# From -- ./inp_files/231647.got.cif
#   From: 2010.05.17/outbox.cif.g08.bks.cpg/sg15_116_cif.got.tgz:231647.got - 2010.06.03 18:47:42.
