data_PCOD9271016
_publ_section_title
;
Structure prediction by ZEFSAII (Michael W. Deem and Ramdas Pophale) SiO2 
 PCOD9271016
Probable space group: C 2/C
;
_chemical_formula_sum "Si O2"
_cell_formula_units_Z 32
_cell_length_a 26.393195
_cell_length_b 8.813157
_cell_length_c 5.284631
_cell_angle_alpha 90.000000
_cell_angle_beta 102.865849
_cell_angle_gamma 90.000000
_cell_volume 1198.382831
_symmetry_space_group_name_H-M "C 2/C"
_symmetry_group_IT_number 15
_symmetry_cell_setting 'monoclinic'
loop_
_space_group_symop_operation_xyz
x,y,z
-x,y,1/2-z
-x,-y,-z
x,-y,1/2+z
1/2+x,1/2+y,z
1/2-x,1/2+y,1/2-z
1/2-x,1/2-y,-z
1/2+x,1/2-y,1/2+z
loop_
_atom_site_type_symbol
_atom_site_label
_atom_site_fract_x
_atom_site_fract_y
_atom_site_fract_z
Si Si1 0.897449 0.342533 0.208027
Si Si2 0.212428 0.340235 0.652636
Si Si3 0.940709 0.681862 0.257698
Si Si4 0.186897 0.073147 0.005585
O O1 0.928471 0.501853 0.276207
O O2 0.904998 0.265162 0.486608
O O3 0.839372 0.385733 0.057125
O O4 0.924625 0.253023 0.010305
O O5 0.250000 0.250000 0.500000
O O6 0.190678 0.228802 0.851233
O O7 0.251396 0.448885 0.850090
O O8 0.000000 0.705218 0.250000
O O9 0.165566 0.958287 0.766238
#
# Coordination Sequence:
#
# PCOD9271016 Si02
#       4
#     8   8   8   8
#     4  10  21  31  55  78 115 156 186 231 293 346
#     4  11  25  38  57  89 119 156 224 242 288 379
#     4  10  20  36  56  86 121 153 192 239 303 373
#     4  11  24  39  58  74 118 160 202 257 298 325
#
# _framework density 26.702652
#
# number of rings (size 3 to 8) (size 9 to 14) (size 15 to 20)
#    0.000    1.500    2.500    3.750   14.000    0.000 
#    0.000    0.000    0.000    0.000    0.000    0.000 
#    0.000   34.000    0.000    0.000    0.000    0.000 
#
# Total GULP energy -89383.479727 kJ/mol
# GULP energy per Si atom -5586.467483 kJ/mol
# Density = 2.664188 g / cm^3
# Si number density = 26.702652 Si / 1000 Ang^3
#
#
#
# Elastic Constant Matrix: (Units=GPa)
#
#
# Indices 1 2 3 4 5 6 
#
# 1 147.3208 -11.4657 41.6325 0.0000 -16.9950 0.0000
# 2 -11.4657 45.3775 14.0053 0.0000 6.6494 0.0000
# 3 41.6325 14.0053 233.2630 0.0000 -42.3415 0.0000
# 4 0.0000 0.0000 0.0000 35.4885 0.0000 11.4074
# 5 -16.9950 6.6494 -42.3415 0.0000 58.4687 0.0000
# 6 0.0000 0.0000 0.0000 11.4074 0.0000 16.0467
#
#
#
# Elastic Compliance Matrix: (Units=1/GPa)
#
#
# Indices 1 2 3 4 5 6 
#
# 1 0.007428 0.002124 -0.001272 0.000000 0.000996 0.000000
# 2 0.002124 0.023932 -0.002531 0.000000 -0.003937 0.000000
# 3 -0.001272 -0.002531 0.005355 0.000000 0.003796 0.000000
# 4 0.000000 0.000000 0.000000 0.036524 0.000000 -0.025965
# 5 0.000996 -0.003937 0.003796 0.000000 0.020589 0.000000
# 6 0.000000 0.000000 0.000000 -0.025965 0.000000 0.080776
#
#
# Mechanical properties :
#
#
# Convention : Reuss Voigt Hill
#
# Bulk Modulus (GPa) = 29.97978 57.14506 43.56242
# Shear Modulus (GPa) = 26.44360 47.45340 36.94850
#
# Velocity S-wave (km/s) = 3.15031 4.22014 3.72385
# Velocity P-wave (km/s) = 4.94816 6.72258 5.90243
#
# Compressibility (1/GPa) = 0.03335582
#
# Stress axis : x y z
#
# Youngs Moduli (GPa) = 134.63205 41.78532 186.73910
#
# Poissons Ratio (x) = -0.08873 0.23760
# Poissons Ratio (y) = -0.28589 0.47255
# Poissons Ratio (z) = 0.17130 0.10574
#
# Static dielectric constant tensor:
#      x y z
#    x 2.149670 0.000000 -0.110420 
#    y 0.000000 2.399370 0.000000 
#    z -0.110420 0.000000 2.199270 
# 
# From -- ./inp_files/14818.got.cif
#   From: 2010.05.17/outbox.cif.g08.bks.cpg/sg15_8_cif.got.tgz:14818.got - 2010.06.03 18:47:42.
