data_PCOD9271609
_publ_section_title
;
Structure prediction by ZEFSAII (Michael W. Deem and Ramdas Pophale) SiO2 
 PCOD9271609
Probable space group: C 2/C
;
_chemical_formula_sum "Si O2"
_cell_formula_units_Z 52
_cell_length_a 13.573568
_cell_length_b 9.230224
_cell_length_c 27.458943
_cell_angle_alpha 90.000000
_cell_angle_beta 48.060660
_cell_angle_gamma 90.000000
_cell_volume 2559.040140
_symmetry_space_group_name_H-M "C 2/C"
_symmetry_group_IT_number 15
_symmetry_cell_setting 'monoclinic'
loop_
_space_group_symop_operation_xyz
x,y,z
-x,y,1/2-z
-x,-y,-z
x,-y,1/2+z
1/2+x,1/2+y,z
1/2-x,1/2+y,1/2-z
1/2-x,1/2-y,-z
1/2+x,1/2-y,1/2+z
loop_
_atom_site_type_symbol
_atom_site_label
_atom_site_fract_x
_atom_site_fract_y
_atom_site_fract_z
Si Si1 0.721812 0.097174 0.701976
Si Si2 0.634603 0.311472 0.653115
Si Si3 0.930627 0.649682 0.030246
Si Si4 0.037804 0.206627 0.082475
Si Si5 0.232699 0.734344 0.212349
Si Si6 0.497863 0.575659 0.553678
Si Si7 0.500000 0.562969 0.750000
O O1 0.631146 0.190247 0.695900
O O2 0.747642 0.195460 0.740844
O O3 0.854504 0.078400 0.626103
O O4 0.683419 0.933217 0.729692
O O5 0.786391 0.364696 0.601570
O O6 0.597584 0.243500 0.613548
O O7 0.540607 0.449334 0.694227
O O8 0.021723 0.757287 0.032863
O O9 0.000000 0.500000 0.000000
O O10 0.912935 0.716797 0.982342
O O11 0.878450 0.230532 0.139185
O O12 0.074631 0.035918 0.062906
O O13 0.124788 0.836274 0.221762
O O14 0.500000 0.500000 0.500000
#
# Coordination Sequence:
#
# PCOD9271609 Si02
#       7
#     8   8   8   8   8   8   4
#     4  10  21  39  61  88 119 161 204 253 308 368
#     4  11  22  39  61  87 123 161 201 249 310 373
#     4  10  20  36  60  88 118 157 203 249 300 364
#     4  10  20  38  60  84 116 159 201 248 304 366
#     4  11  23  39  61  87 119 156 204 256 312 369
#     4   8  17  35  58  81 115 157 196 241 297 355
#     4  12  24  38  56  86 120 156 198 254 310 372
#
# _framework density 20.320118999999998
#
# number of rings (size 3 to 8) (size 9 to 14) (size 15 to 20)
#    0.000    1.846    0.000    5.077    0.000    3.077 
#    0.000    2.308    0.000    0.000    0.000    0.000 
#    0.000    0.000    0.000    0.000    0.000    0.000 
#
# Total GULP energy -144910.113269 kJ/mol
# GULP energy per Si atom -5573.465895 kJ/mol
# Density = 2.027387 g / cm^3
# Si number density = 20.320119 Si / 1000 Ang^3
#
#
#
# Elastic Constant Matrix: (Units=GPa)
#
#
# Indices 1 2 3 4 5 6 
#
# 1 28.6926 13.9764 -2.5999 0.0000 13.0135 0.0000
# 2 13.9764 139.7944 27.4263 0.0000 0.4063 0.0000
# 3 -2.5999 27.4263 87.1899 0.0000 0.5069 0.0000
# 4 0.0000 0.0000 0.0000 33.6886 0.0000 1.1215
# 5 13.0135 0.4063 0.5069 0.0000 34.3127 0.0000
# 6 0.0000 0.0000 0.0000 1.1215 0.0000 19.4732
#
#
#
# Elastic Compliance Matrix: (Units=1/GPa)
#
#
# Indices 1 2 3 4 5 6 
#
# 1 0.045413 -0.005090 0.003055 0.000000 -0.017208 0.000000
# 2 -0.005090 0.008194 -0.002740 0.000000 0.001874 0.000000
# 3 0.003055 -0.002740 0.012430 0.000000 -0.001310 0.000000
# 4 0.000000 0.000000 0.000000 0.029741 0.000000 -0.001713
# 5 -0.017208 0.001874 -0.001310 0.000000 0.035667 0.000000
# 6 0.000000 0.000000 0.000000 -0.001713 0.000000 0.051451
#
#
# Mechanical properties :
#
#
# Convention : Reuss Voigt Hill
#
# Bulk Modulus (GPa) = 17.70294 37.03141 27.36717
# Shear Modulus (GPa) = 23.66579 31.95317 27.80948
#
# Velocity S-wave (km/s) = 3.41640 3.96976 3.70343
# Velocity P-wave (km/s) = 4.92882 6.26703 5.63777
#
# Compressibility (1/GPa) = 0.05648780
#
# Stress axis : x y z
#
# Youngs Moduli (GPa) = 22.02010 122.03466 80.45110
#
# Poissons Ratio (x) = 0.62112 -0.24579
# Poissons Ratio (y) = 0.11208 0.22046
# Poissons Ratio (z) = -0.06728 0.33441
#
# Static dielectric constant tensor:
#      x y z
#    x 1.727350 0.000000 -0.015850 
#    y 0.000000 1.747960 0.000000 
#    z -0.015850 0.000000 1.721970 
# 
# From -- ./inp_files/295019.got.cif
#   From: 2010.05.17/outbox.cif.g08.bks.cpg/sg15_148_cif.got.tgz:295019.got - 2010.06.03 18:47:42.
