data_PCOD9271436
_publ_section_title
;
Structure prediction by ZEFSAII (Michael W. Deem and Ramdas Pophale) SiO2 
 PCOD9271436
Probable space group: C 2/C
;
_chemical_formula_sum "Si O2"
_cell_formula_units_Z 64
_cell_length_a 12.057596
_cell_length_b 12.109179
_cell_length_c 21.293760
_cell_angle_alpha 90.000000
_cell_angle_beta 102.445079
_cell_angle_gamma 90.000000
_cell_volume 3035.997267
_symmetry_space_group_name_H-M "C 2/C"
_symmetry_group_IT_number 15
_symmetry_cell_setting 'monoclinic'
loop_
_space_group_symop_operation_xyz
x,y,z
-x,y,1/2-z
-x,-y,-z
x,-y,1/2+z
1/2+x,1/2+y,z
1/2-x,1/2+y,1/2-z
1/2-x,1/2-y,-z
1/2+x,1/2-y,1/2+z
loop_
_atom_site_type_symbol
_atom_site_label
_atom_site_fract_x
_atom_site_fract_y
_atom_site_fract_z
Si Si1 0.613262 0.361681 0.442143
Si Si2 0.615535 0.673300 0.288601
Si Si3 0.478488 0.587651 0.099486
Si Si4 0.170729 0.640559 0.119192
Si Si5 0.463501 0.211719 0.514584
Si Si6 0.709646 0.340657 0.664694
Si Si7 0.540804 0.211511 0.324872
Si Si8 0.166335 0.610283 0.594609
O O1 0.569803 0.485155 0.443460
O O2 0.554340 0.280977 0.483821
O O3 0.570797 0.319483 0.368800
O O4 0.748500 0.362805 0.452620
O O5 0.500000 0.735715 0.250000
O O6 0.559503 0.589098 0.332090
O O7 0.725230 0.713959 0.341633
O O8 0.679109 0.635452 0.233085
O O9 0.615349 0.593036 0.114018
O O10 0.431070 0.700630 0.063815
O O11 0.199160 0.510265 0.123057
O O12 0.133429 0.672865 0.044320
O O13 0.061055 0.654869 0.149950
O O14 0.536672 0.114795 0.555343
O O15 0.841173 0.356843 0.664574
O O16 0.682861 0.211136 0.645674
O O17 0.500000 0.236411 0.250000
#
# Coordination Sequence:
#
# PCOD9271436 Si02
#       8
#     8   8   8   8   8   8   8   8
#     4  10  20  36  61  89 111 155 201 239 284 344
#     4  10  20  37  60  84 118 152 188 237 294 342
#     4  10  20  38  61  86 118 153 199 238 293 344
#     4  11  21  38  61  89 117 153 199 236 291 351
#     4  10  22  37  59  83 123 152 193 245 288 341
#     4   9  20  38  61  83 117 155 190 242 292 343
#     4  10  20  36  59  87 119 148 193 248 290 338
#     4  10  20  39  60  86 118 158 193 234 293 350
#
# _framework density 21.080389
#
# number of rings (size 3 to 8) (size 9 to 14) (size 15 to 20)
#    0.000    2.000    2.500    1.125    0.000    3.000 
#    0.000    3.125   16.500    0.000    0.000    0.000 
#    0.000    0.000    0.000    0.000    0.000    0.000 
#
# Total GULP energy -178228.430424 kJ/mol
# GULP energy per Si atom -5569.638451 kJ/mol
# Density = 2.103241 g / cm^3
# Si number density = 21.080389 Si / 1000 Ang^3
#
#
#
# Elastic Constant Matrix: (Units=GPa)
#
#
# Indices 1 2 3 4 5 6 
#
# 1 126.3786 14.5788 28.9803 0.0000 15.8060 0.0000
# 2 14.5788 47.3915 4.9976 0.0000 2.0348 0.0000
# 3 28.9803 4.9976 85.3204 0.0000 14.3602 0.0000
# 4 0.0000 0.0000 0.0000 3.3264 0.0000 0.1089
# 5 15.8060 2.0348 14.3602 0.0000 42.8798 0.0000
# 6 0.0000 0.0000 0.0000 0.1089 0.0000 18.3215
#
#
#
# Elastic Compliance Matrix: (Units=1/GPa)
#
#
# Indices 1 2 3 4 5 6 
#
# 1 0.009072 -0.002421 -0.002539 0.000000 -0.002379 0.000000
# 2 -0.002421 0.021894 -0.000462 0.000000 0.000008 0.000000
# 3 -0.002539 -0.000462 0.013192 0.000000 -0.003460 0.000000
# 4 0.000000 0.000000 0.000000 0.300682 0.000000 -0.001787
# 5 -0.002379 0.000008 -0.003460 0.000000 0.025356 0.000000
# 6 0.000000 0.000000 0.000000 -0.001787 0.000000 0.054591
#
#
# Mechanical properties :
#
#
# Convention : Reuss Voigt Hill
#
# Bulk Modulus (GPa) = 30.01650 39.57822 34.79736
# Shear Modulus (GPa) = 11.19231 26.94113 19.06672
#
# Velocity S-wave (km/s) = 2.30670 3.57882 3.01071
# Velocity P-wave (km/s) = 4.62217 5.99107 5.35058
#
# Compressibility (1/GPa) = 0.03331501
#
# Stress axis : x y z
#
# Youngs Moduli (GPa) = 110.23208 45.67495 75.80109
#
# Poissons Ratio (x) = 0.11057 0.19247
# Poissons Ratio (y) = 0.26685 0.03498
# Poissons Ratio (z) = 0.27990 0.02108
#
# Static dielectric constant tensor:
#      x y z
#    x 1.814420 0.000000 0.018120 
#    y 0.000000 1.723240 0.000000 
#    z 0.018120 0.000000 1.795220 
# 
# From -- ./inp_files/269279.got.cif
#   From: 2010.05.17/outbox.cif.g08.bks.cpg/sg15_135_cif.got.tgz:269279.got - 2010.06.03 18:47:42.
