data_PCOD9271922
_publ_section_title
;
Structure prediction by ZEFSAII (Michael W. Deem and Ramdas Pophale) SiO2 
 PCOD9271922
Probable space group: C 2/C
;
_chemical_formula_sum "Si O2"
_cell_formula_units_Z 56
_cell_length_a 8.971398
_cell_length_b 17.954328
_cell_length_c 28.262529
_cell_angle_alpha 90.000000
_cell_angle_beta 141.777782
_cell_angle_gamma 90.000000
_cell_volume 2816.628708
_symmetry_space_group_name_H-M "C 2/C"
_symmetry_group_IT_number 15
_symmetry_cell_setting 'monoclinic'
loop_
_space_group_symop_operation_xyz
x,y,z
-x,y,1/2-z
-x,-y,-z
x,-y,1/2+z
1/2+x,1/2+y,z
1/2-x,1/2+y,1/2-z
1/2-x,1/2-y,-z
1/2+x,1/2-y,1/2+z
loop_
_atom_site_type_symbol
_atom_site_label
_atom_site_fract_x
_atom_site_fract_y
_atom_site_fract_z
Si Si1 0.704387 0.826398 0.337319
Si Si2 0.025158 0.621074 0.552956
Si Si3 0.668461 0.935678 0.929986
Si Si4 0.990570 0.047098 0.067337
Si Si5 0.119808 0.421460 0.174814
Si Si6 0.507621 0.442368 0.150890
Si Si7 0.479089 0.797954 0.543438
O O1 0.500000 0.801540 0.250000
O O2 0.580279 0.887245 0.340143
O O3 0.906275 0.870034 0.357357
O O4 0.800494 0.755676 0.389160
O O5 0.124233 0.633767 0.630749
O O6 0.218836 0.559443 0.583158
O O7 0.031514 0.683101 0.514451
O O8 0.748118 0.596460 0.486906
O O9 0.542485 0.871406 0.928991
O O10 0.808221 0.916185 0.916008
O O11 0.480494 0.000633 0.870157
O O12 0.880645 0.973411 0.014145
O O13 0.083075 0.015675 0.140456
O O14 0.357019 0.435126 0.265213
O O15 0.250000 0.750000 0.500000
#
# Coordination Sequence:
#
# PCOD9271922 Si02
#       7
#     8   8   8   8   8   8   8
#     4  10  22  43  65  87 123 172 211 251 322 398
#     4  11  23  36  59  95 125 157 210 259 310 370
#     4  10  21  39  61  90 120 160 205 256 311 369
#     4  10  20  36  62  91 123 151 203 262 302 372
#     4  10  23  39  67  90 121 161 216 265 308 383
#     4  11  19  40  65  92 119 161 206 257 324 369
#     4  12  24  41  63  87 129 173 206 259 324 378
#
# _framework density 19.881926
#
# number of rings (size 3 to 8) (size 9 to 14) (size 15 to 20)
#    0.000    1.429    4.286    0.857    6.000    0.571 
#    2.571    0.000    0.000    0.000    0.000    0.000 
#    0.000    0.000    0.000    0.000    0.000    0.000 
#
# Total GULP energy -156186.589907 kJ/mol
# GULP energy per Si atom -5578.092497 kJ/mol
# Density = 1.983667 g / cm^3
# Si number density = 19.881926 Si / 1000 Ang^3
#
#
#
# Elastic Constant Matrix: (Units=GPa)
#
#
# Indices 1 2 3 4 5 6 
#
# 1 68.9817 -4.0372 20.6791 0.0001 -12.8266 0.0000
# 2 -4.0372 42.0867 33.2334 0.0001 -7.7612 0.0001
# 3 20.6791 33.2334 104.1732 0.0002 -23.8609 0.0001
# 4 0.0001 0.0001 0.0002 30.3334 0.0001 -7.5975
# 5 -12.8266 -7.7612 -23.8609 0.0001 36.1955 0.0000
# 6 0.0000 0.0001 0.0001 -7.5975 0.0000 23.9657
#
#
#
# Elastic Compliance Matrix: (Units=1/GPa)
#
#
# Indices 1 2 3 4 5 6 
#
# 1 0.016912 0.005733 -0.004160 0.000000 0.004480 0.000000
# 2 0.005733 0.033706 -0.011508 0.000000 0.001673 0.000000
# 3 -0.004160 -0.011508 0.015540 0.000000 0.006303 0.000000
# 4 0.000000 0.000000 0.000000 0.035810 0.000000 0.011352
# 5 0.004480 0.001673 0.006303 0.000000 0.033729 0.000000
# 6 0.000000 0.000000 0.000000 0.011352 0.000000 0.045325
#
#
# Mechanical properties :
#
#
# Convention : Reuss Voigt Hill
#
# Bulk Modulus (GPa) = 21.60323 34.99914 28.30118
# Shear Modulus (GPa) = 23.11374 29.12336 26.11855
#
# Velocity S-wave (km/s) = 3.41332 3.83144 3.62841
# Velocity P-wave (km/s) = 5.14040 6.10041 5.64086
#
# Compressibility (1/GPa) = 0.04628938
#
# Stress axis : x y z
#
# Youngs Moduli (GPa) = 59.12855 29.66828 64.34980
#
# Poissons Ratio (x) = -0.17010 0.26770
# Poissons Ratio (y) = -0.33901 0.74053
# Poissons Ratio (z) = 0.24598 0.34142
#
# Static dielectric constant tensor:
#      x y z
#    x 1.780640 0.000000 -0.019340 
#    y 0.000000 1.703540 0.000000 
#    z -0.019340 0.000000 1.731080 
# 
# From -- ./inp_files/289768.got.cif
#   From: 2010.05.17/outbox.cif.g08.bks.cpg/sg15_145_cif.got.tgz:289768.got - 2010.06.03 18:47:42.
