data_PCOD9271641
_publ_section_title
;
Structure prediction by ZEFSAII (Michael W. Deem and Ramdas Pophale) SiO2 
 PCOD9271641
Probable space group: C 2/C
;
_chemical_formula_sum "Si O2"
_cell_formula_units_Z 36
_cell_length_a 5.309442
_cell_length_b 28.028178
_cell_length_c 12.464878
_cell_angle_alpha 90.000000
_cell_angle_beta 102.977467
_cell_angle_gamma 90.000000
_cell_volume 1807.569935
_symmetry_space_group_name_H-M "C 2/C"
_symmetry_group_IT_number 15
_symmetry_cell_setting 'monoclinic'
loop_
_space_group_symop_operation_xyz
x,y,z
-x,y,1/2-z
-x,-y,-z
x,-y,1/2+z
1/2+x,1/2+y,z
1/2-x,1/2+y,1/2-z
1/2-x,1/2-y,-z
1/2+x,1/2-y,1/2+z
loop_
_atom_site_type_symbol
_atom_site_label
_atom_site_fract_x
_atom_site_fract_y
_atom_site_fract_z
Si Si1 0.000000 0.704936 0.250000
Si Si2 0.242255 0.563544 0.986242
Si Si3 0.835529 0.329318 0.958288
Si Si4 0.588893 0.754012 0.095440
Si Si5 0.314768 0.470903 0.128577
O O1 0.977444 0.674325 0.356163
O O2 0.763153 0.740903 0.212173
O O3 0.499236 0.553739 0.941681
O O4 0.969263 0.553918 0.897492
O O5 0.247535 0.617309 0.028743
O O6 0.254168 0.524692 0.082966
O O7 0.616197 0.288803 0.928504
O O8 0.989628 0.307846 0.075037
O O9 0.750000 0.750000 0.000000
O O10 0.500000 0.471175 0.250000
#
# Coordination Sequence:
#
# PCOD9271641 Si02
#       5
#     4   8   8   8   8
#     4  10  20  36  60  90 120 162 208 252 310 370
#     4  10  23  41  68  93 127 165 213 264 310 378
#     4  10  21  39  60  88 124 161 205 257 309 371
#     4   9  20  37  57  84 124 154 199 258 304 367
#     4  10  22  44  63  94 129 166 208 263 322 373
#
# _framework density 19.916242
#
# number of rings (size 3 to 8) (size 9 to 14) (size 15 to 20)
#    0.000    2.222    0.000    1.333    6.222    1.778 
#   10.000    6.667    0.000    0.000    0.000    0.000 
#    0.000    0.000    0.000    0.000    0.000    0.000 
#
# Total GULP energy -100221.001479 kJ/mol
# GULP energy per Si atom -5567.833415 kJ/mol
# Density = 1.987091 g / cm^3
# Si number density = 19.916242 Si / 1000 Ang^3
#
#
#
# Elastic Constant Matrix: (Units=GPa)
#
#
# Indices 1 2 3 4 5 6 
#
# 1 69.6927 27.4393 -1.1268 0.0000 4.1508 0.0000
# 2 27.4393 158.4880 39.0938 0.0000 -10.4822 0.0000
# 3 -1.1268 39.0938 64.9344 0.0000 11.6772 0.0000
# 4 0.0000 0.0000 0.0000 9.1979 0.0000 -1.5969
# 5 4.1508 -10.4822 11.6772 0.0000 29.6260 0.0000
# 6 0.0000 0.0000 0.0000 -1.5969 0.0000 18.8651
#
#
#
# Elastic Compliance Matrix: (Units=1/GPa)
#
#
# Indices 1 2 3 4 5 6 
#
# 1 0.016319 -0.004071 0.003664 0.000000 -0.005171 0.000000
# 2 -0.004071 0.009093 -0.006701 0.000000 0.006429 0.000000
# 3 0.003664 -0.006701 0.021544 0.000000 -0.011376 0.000000
# 4 0.000000 0.000000 0.000000 0.110342 0.000000 0.009340
# 5 -0.005171 0.006429 -0.011376 0.000000 0.041237 0.000000
# 6 0.000000 0.000000 0.000000 0.009340 0.000000 0.053799
#
#
# Mechanical properties :
#
#
# Convention : Reuss Voigt Hill
#
# Bulk Modulus (GPa) = 30.54437 47.10309 38.82373
# Shear Modulus (GPa) = 18.02048 26.71837 22.36942
#
# Velocity S-wave (km/s) = 3.01127 3.66667 3.35502
# Velocity P-wave (km/s) = 5.24024 6.45197 5.87741
#
# Compressibility (1/GPa) = 0.03273926
#
# Stress axis : x y z
#
# Youngs Moduli (GPa) = 61.27895 109.98013 46.41722
#
# Poissons Ratio (x) = 0.44774 -0.17008
# Poissons Ratio (y) = 0.24947 0.31104
# Poissons Ratio (z) = -0.22453 0.73697
#
# Static dielectric constant tensor:
#      x y z
#    x 1.808290 0.000000 0.026930 
#    y 0.000000 1.650260 0.000000 
#    z 0.026930 0.000000 1.741690 
# 
# From -- ./inp_files/72469.got.cif
#   From: 2010.05.17/outbox.cif.g08.bks.cpg/sg15_37_cif.got.tgz:72469.got - 2010.06.03 18:47:42.
