data_PCOD9271282
_publ_section_title
;
Structure prediction by ZEFSAII (Michael W. Deem and Ramdas Pophale) SiO2 
 PCOD9271282
Probable space group: C 2/C
;
_chemical_formula_sum "Si O2"
_cell_formula_units_Z 60
_cell_length_a 9.020088
_cell_length_b 16.584754
_cell_length_c 21.885149
_cell_angle_alpha 90.000000
_cell_angle_beta 107.036547
_cell_angle_gamma 90.000000
_cell_volume 3130.263098
_symmetry_space_group_name_H-M "C 2/C"
_symmetry_group_IT_number 15
_symmetry_cell_setting 'monoclinic'
loop_
_space_group_symop_operation_xyz
x,y,z
-x,y,1/2-z
-x,-y,-z
x,-y,1/2+z
1/2+x,1/2+y,z
1/2-x,1/2+y,1/2-z
1/2-x,1/2-y,-z
1/2+x,1/2-y,1/2+z
loop_
_atom_site_type_symbol
_atom_site_label
_atom_site_fract_x
_atom_site_fract_y
_atom_site_fract_z
Si Si1 0.629972 0.856487 0.593647
Si Si2 0.500000 0.098140 0.750000
Si Si3 0.340844 0.030775 0.847209
Si Si4 0.368362 0.088516 0.544870
Si Si5 0.890887 0.861086 0.129641
Si Si6 0.645512 0.557480 0.007311
Si Si7 0.781755 0.294351 0.568312
Si Si8 0.762418 0.815011 0.357473
O O1 0.639516 0.870654 0.522080
O O2 0.451810 0.833535 0.586075
O O3 0.729846 0.779849 0.627158
O O4 0.673311 0.939077 0.632783
O O5 0.420864 0.042641 0.791726
O O6 0.372720 0.154581 0.702789
O O7 0.458108 0.075816 0.908914
O O8 0.178669 0.077868 0.829963
O O9 0.269267 0.138564 0.582400
O O10 0.294457 0.999745 0.530642
O O11 0.793558 0.777384 0.118439
O O12 0.072028 0.840094 0.151233
O O13 0.863959 0.904449 0.060951
O O14 0.660810 0.632173 0.056261
O O15 0.500000 0.500000 0.000000
O O16 0.750000 0.250000 0.500000
#
# Coordination Sequence:
#
# PCOD9271282 Si02
#       8
#     8   4   8   8   8   8   8   8
#     4  11  20  36  64  94 119 156 203 246 302 363
#     4  10  26  48  60  78 118 164 208 254 314 344
#     4  11  22  40  65  87 119 163 202 252 296 366
#     4  11  19  34  60  95 132 158 184 243 314 362
#     4  10  20  36  58  87 114 160 199 241 298 352
#     4  11  18  30  52  91 134 155 185 232 295 370
#     4   9  19  32  50  84 129 157 185 225 286 366
#     4  10  23  41  61  86 125 161 200 250 300 363
#
# _framework density 19.167718000000001
#
# number of rings (size 3 to 8) (size 9 to 14) (size 15 to 20)
#    0.000    1.600    4.000    2.400    0.000    0.533 
#    4.800    4.000    0.000    0.000    0.000    0.000 
#    0.000    0.000    0.000    0.000    0.000    0.000 
#
# Total GULP energy -167466.766459 kJ/mol
# GULP energy per Si atom -5582.225549 kJ/mol
# Density = 1.912409 g / cm^3
# Si number density = 19.167718 Si / 1000 Ang^3
#
#
#
# Elastic Constant Matrix: (Units=GPa)
#
#
# Indices 1 2 3 4 5 6 
#
# 1 62.9627 47.8961 28.9832 0.0000 -5.0673 0.0000
# 2 47.8961 121.7269 35.3727 0.0000 3.9081 0.0000
# 3 28.9832 35.3727 81.0956 0.0000 -5.3508 0.0000
# 4 0.0000 0.0000 0.0000 5.6489 0.0000 1.6590
# 5 -5.0673 3.9081 -5.3508 0.0000 15.6607 0.0000
# 6 0.0000 0.0000 0.0000 1.6590 0.0000 35.7739
#
#
#
# Elastic Compliance Matrix: (Units=1/GPa)
#
#
# Indices 1 2 3 4 5 6 
#
# 1 0.025585 -0.009011 -0.004623 0.000000 0.008948 0.000000
# 2 -0.009011 0.012812 -0.002835 0.000000 -0.007082 0.000000
# 3 -0.004623 -0.002835 0.015518 0.000000 0.004514 0.000000
# 4 0.000000 0.000000 0.000000 0.179469 0.000000 -0.008323
# 5 0.008948 -0.007082 0.004514 0.000000 0.070059 0.000000
# 6 0.000000 0.000000 0.000000 -0.008323 0.000000 0.028339
#
#
# Mechanical properties :
#
#
# Convention : Reuss Voigt Hill
#
# Bulk Modulus (GPa) = 47.67237 54.47656 51.07447
# Shear Modulus (GPa) = 13.45124 21.65225 17.55175
#
# Velocity S-wave (km/s) = 2.65196 3.36463 3.02932
# Velocity P-wave (km/s) = 5.85682 6.60129 6.24017
#
# Compressibility (1/GPa) = 0.02097651
#
# Stress axis : x y z
#
# Youngs Moduli (GPa) = 39.08483 78.05259 64.44156
#
# Poissons Ratio (x) = 0.70332 0.29793
# Poissons Ratio (y) = 0.35219 0.18270
# Poissons Ratio (z) = 0.18070 0.22129
#
# Static dielectric constant tensor:
#      x y z
#    x 1.714490 0.000000 -0.010480 
#    y 0.000000 1.672260 0.000000 
#    z -0.010480 0.000000 1.663860 
# 
# From -- ./inp_files/264345.got.cif
#   From: 2010.05.17/outbox.cif.g08.bks.cpg/sg15_133_cif.got.tgz:264345.got - 2010.06.03 18:47:42.
