data_PCOD9271668
_publ_section_title
;
Structure prediction by ZEFSAII (Michael W. Deem and Ramdas Pophale) SiO2 
 PCOD9271668
Probable space group: C 2/C
;
_chemical_formula_sum "Si O2"
_cell_formula_units_Z 44
_cell_length_a 7.343508
_cell_length_b 19.107006
_cell_length_c 16.188891
_cell_angle_alpha 90.000000
_cell_angle_beta 60.838708
_cell_angle_gamma 90.000000
_cell_volume 1983.593312
_symmetry_space_group_name_H-M "C 2/C"
_symmetry_group_IT_number 15
_symmetry_cell_setting 'monoclinic'
loop_
_space_group_symop_operation_xyz
x,y,z
-x,y,1/2-z
-x,-y,-z
x,-y,1/2+z
1/2+x,1/2+y,z
1/2-x,1/2+y,1/2-z
1/2-x,1/2-y,-z
1/2+x,1/2-y,1/2+z
loop_
_atom_site_type_symbol
_atom_site_label
_atom_site_fract_x
_atom_site_fract_y
_atom_site_fract_z
Si Si1 0.000000 0.373803 0.750000
Si Si2 0.563686 0.986735 0.148078
Si Si3 0.393131 0.155570 0.508126
Si Si4 0.144939 0.039195 0.642119
Si Si5 0.330847 0.592017 0.462871
Si Si6 0.818675 0.794118 0.606911
O O1 0.921238 0.430823 0.835074
O O2 0.196621 0.322168 0.714603
O O3 0.500000 0.953690 0.250000
O O4 0.368473 0.979219 0.131458
O O5 0.753764 0.948839 0.061809
O O6 0.620155 0.120640 0.465495
O O7 0.344922 0.193237 0.432311
O O8 0.379564 0.213506 0.584146
O O9 0.208203 0.099702 0.564740
O O10 0.064862 0.968158 0.617120
O O11 0.000000 0.061085 0.750000
O O12 0.481534 0.656403 0.446618
#
# Coordination Sequence:
#
# PCOD9271668 Si02
#       6
#     4   8   8   8   8   8
#     4  10  20  36  60  92 116 154 202 244 300 364
#     4   9  21  37  59  92 125 150 203 262 306 360
#     4  10  24  41  58  89 126 162 206 253 307 372
#     4  11  22  37  63  94 121 157 210 262 309 365
#     4  11  22  41  65  90 123 163 207 261 307 364
#     4  11  23  40  64  85 126 169 202 248 315 377
#
# _framework density 22.181967
#
# number of rings (size 3 to 8) (size 9 to 14) (size 15 to 20)
#    0.545    1.091    0.000    6.000    3.818    1.455 
#    0.000    0.000    0.000    4.364    0.000    0.000 
#    0.000    0.000    0.000    0.000    0.000    0.000 
#
# Total GULP energy -122761.046275 kJ/mol
# GULP energy per Si atom -5580.047558 kJ/mol
# Density = 2.213148 g / cm^3
# Si number density = 22.181967 Si / 1000 Ang^3
#
#
#
# Elastic Constant Matrix: (Units=GPa)
#
#
# Indices 1 2 3 4 5 6 
#
# 1 63.2015 9.9569 1.4415 0.0000 -8.8537 0.0000
# 2 9.9569 82.7765 7.6828 0.0000 -11.4100 0.0000
# 3 1.4415 7.6828 71.9117 0.0000 -12.8304 0.0000
# 4 0.0000 0.0000 0.0000 24.5011 0.0000 -5.1338
# 5 -8.8537 -11.4100 -12.8304 0.0000 29.2563 0.0000
# 6 0.0000 0.0000 0.0000 -5.1338 0.0000 20.8859
#
#
#
# Elastic Compliance Matrix: (Units=1/GPa)
#
#
# Indices 1 2 3 4 5 6 
#
# 1 0.016702 -0.001410 0.000672 0.000000 0.004799 0.000000
# 2 -0.001410 0.012904 -0.000573 0.000000 0.004354 0.000000
# 3 0.000672 -0.000573 0.015134 0.000000 0.006617 0.000000
# 4 0.000000 0.000000 0.000000 0.043031 0.000000 0.010577
# 5 0.004799 0.004354 0.006617 0.000000 0.040233 0.000000
# 6 0.000000 0.000000 0.000000 0.010577 0.000000 0.050479
#
#
# Mechanical properties :
#
#
# Convention : Reuss Voigt Hill
#
# Bulk Modulus (GPa) = 23.74326 28.45026 26.09676
# Shear Modulus (GPa) = 25.62213 28.18256 26.90234
#
# Velocity S-wave (km/s) = 3.40235 3.56830 3.48631
# Velocity P-wave (km/s) = 5.11485 5.46175 5.29114
#
# Compressibility (1/GPa) = 0.04211722
#
# Stress axis : x y z
#
# Youngs Moduli (GPa) = 59.87484 77.49697 66.07504
#
# Poissons Ratio (x) = 0.10926 -0.04441
# Poissons Ratio (y) = 0.08441 0.03789
# Poissons Ratio (z) = -0.04024 0.04444
#
# Static dielectric constant tensor:
#      x y z
#    x 1.815370 0.000000 0.056820 
#    y 0.000000 1.833580 0.000000 
#    z 0.056820 0.000000 1.944390 
# 
# From -- ./inp_files/190795.got.cif
#   From: 2010.05.17/outbox.cif.g08.bks.cpg/sg15_96_cif.got.tgz:190795.got - 2010.06.03 18:47:42.
