data_PCOD9271163
_publ_section_title
;
Structure prediction by ZEFSAII (Michael W. Deem and Ramdas Pophale) SiO2 
 PCOD9271163
Probable space group: C 2/C
;
_chemical_formula_sum "Si O2"
_cell_formula_units_Z 56
_cell_length_a 21.021999
_cell_length_b 18.185919
_cell_length_c 9.341466
_cell_angle_alpha 90.000000
_cell_angle_beta 144.407779
_cell_angle_gamma 90.000000
_cell_volume 2078.531765
_symmetry_space_group_name_H-M "C 2/C"
_symmetry_group_IT_number 15
_symmetry_cell_setting 'monoclinic'
loop_
_space_group_symop_operation_xyz
x,y,z
-x,y,1/2-z
-x,-y,-z
x,-y,1/2+z
1/2+x,1/2+y,z
1/2-x,1/2+y,1/2-z
1/2-x,1/2-y,-z
1/2+x,1/2-y,1/2+z
loop_
_atom_site_type_symbol
_atom_site_label
_atom_site_fract_x
_atom_site_fract_y
_atom_site_fract_z
Si Si1 0.061002 0.353065 0.015338
Si Si2 0.955418 0.961821 0.276668
Si Si3 0.141789 0.120837 0.206463
Si Si4 0.431531 0.276460 0.377085
Si Si5 0.226387 0.248195 0.189593
Si Si6 0.748059 0.027739 0.528931
Si Si7 0.898519 0.508547 0.471840
O O1 0.000000 0.354604 0.750000
O O2 0.994089 0.301968 0.997921
O O3 0.174756 0.313285 0.189584
O O4 0.069812 0.437971 0.066165
O O5 0.000000 0.028069 0.250000
O O6 0.080232 0.920928 0.458674
O O7 0.000000 0.000000 0.500000
O O8 0.851724 0.925362 0.170824
O O9 0.227477 0.177113 0.294556
O O10 0.202972 0.056008 0.404979
O O11 0.035462 0.166903 0.066126
O O12 0.339235 0.275185 0.329164
O O13 0.362727 0.270671 0.099754
O O14 0.661596 0.056713 0.254718
O O15 0.692123 0.021619 0.580041
O O16 0.000000 0.535161 0.750000
#
# Coordination Sequence:
#
# PCOD9271163 Si02
#       7
#     8   8   8   8   8   8   8
#     4   8  17  35  56  83 120 158 209 257 305 381
#     4  10  20  36  57  91 129 163 204 257 311 378
#     4  10  20  36  59  94 133 161 212 264 310 385
#     4   9  17  32  58  90 126 170 212 258 313 378
#     4   9  17  32  57  91 125 170 211 253 319 372
#     4  11  24  42  66  94 127 172 212 267 330 378
#     4  11  24  45  65  92 125 167 219 269 321 390
#
# _framework density 26.942094000000001
#
# number of rings (size 3 to 8) (size 9 to 14) (size 15 to 20)
#    0.000    2.286    0.000    4.286    2.000    0.000 
#   15.429    2.857    0.000    1.714    0.000    0.000 
#    0.000    0.000    0.000    0.000    0.000    0.000 
#
# Total GULP energy -155908.070118 kJ/mol
# GULP energy per Si atom -5568.145361 kJ/mol
# Density = 2.688077 g / cm^3
# Si number density = 26.942094 Si / 1000 Ang^3
#
#
#
# Elastic Constant Matrix: (Units=GPa)
#
#
# Indices 1 2 3 4 5 6 
#
# 1 149.1771 3.4680 33.5764 0.0000 25.7781 0.0000
# 2 3.4680 84.4688 16.8942 0.0000 11.9964 0.0000
# 3 33.5764 16.8942 97.9035 0.0000 14.7697 0.0000
# 4 0.0000 0.0000 0.0000 33.4426 0.0000 4.3280
# 5 25.7781 11.9964 14.7697 0.0000 50.7130 0.0000
# 6 0.0000 0.0000 0.0000 4.3280 0.0000 36.8646
#
#
#
# Elastic Compliance Matrix: (Units=1/GPa)
#
#
# Indices 1 2 3 4 5 6 
#
# 1 0.007794 0.000622 -0.002260 0.000000 -0.003451 0.000000
# 2 0.000622 0.012595 -0.001976 0.000000 -0.002720 0.000000
# 3 -0.002260 -0.001976 0.011596 0.000000 -0.001761 0.000000
# 4 0.000000 0.000000 0.000000 0.030363 0.000000 -0.003565
# 5 -0.003451 -0.002720 -0.001761 0.000000 0.022629 0.000000
# 6 0.000000 0.000000 0.000000 -0.003565 0.000000 0.027545
#
#
# Mechanical properties :
#
#
# Convention : Reuss Voigt Hill
#
# Bulk Modulus (GPa) = 40.39356 48.82518 44.60937
# Shear Modulus (GPa) = 39.06191 42.71142 40.88667
#
# Velocity S-wave (km/s) = 3.81182 3.98591 3.89983
# Velocity P-wave (km/s) = 5.86503 6.27255 6.07221
#
# Compressibility (1/GPa) = 0.02475642
#
# Stress axis : x y z
#
# Youngs Moduli (GPa) = 128.30564 79.39833 86.23795
#
# Poissons Ratio (x) = -0.04939 0.19487
# Poissons Ratio (y) = -0.07981 0.17044
# Poissons Ratio (z) = 0.28993 0.15692
#
# Static dielectric constant tensor:
#      x y z
#    x 2.133940 0.000000 0.140360 
#    y 0.000000 2.261000 0.000000 
#    z 0.140360 0.000000 2.423630 
# 
# From -- ./inp_files/119853.got.cif
#   From: 2010.05.17/outbox.cif.g08.bks.cpg/sg15_60_cif.got.tgz:119853.got - 2010.06.03 18:47:42.
