data_PCOD9271020
_publ_section_title
;
Structure prediction by ZEFSAII (Michael W. Deem and Ramdas Pophale) SiO2 
 PCOD9271020
Probable space group: C 2/C
;
_chemical_formula_sum "Si O2"
_cell_formula_units_Z 56
_cell_length_a 15.051005
_cell_length_b 14.319526
_cell_length_c 19.741751
_cell_angle_alpha 90.000000
_cell_angle_beta 34.015514
_cell_angle_gamma 90.000000
_cell_volume 2380.212618
_symmetry_space_group_name_H-M "C 2/C"
_symmetry_group_IT_number 15
_symmetry_cell_setting 'monoclinic'
loop_
_space_group_symop_operation_xyz
x,y,z
-x,y,1/2-z
-x,-y,-z
x,-y,1/2+z
1/2+x,1/2+y,z
1/2-x,1/2+y,1/2-z
1/2-x,1/2-y,-z
1/2+x,1/2-y,1/2+z
loop_
_atom_site_type_symbol
_atom_site_label
_atom_site_fract_x
_atom_site_fract_y
_atom_site_fract_z
Si Si1 0.750000 0.250000 0.500000
Si Si2 0.916297 0.584442 0.591832
Si Si3 0.500000 0.347459 0.750000
Si Si4 0.838498 0.940025 0.733782
Si Si5 0.115463 0.886621 0.468433
Si Si6 0.391105 0.268070 0.518534
Si Si7 0.900370 0.666247 0.215850
Si Si8 0.565253 0.958930 0.278346
O O1 0.591131 0.289342 0.636544
O O2 0.802605 0.195034 0.539407
O O3 0.744301 0.540119 0.712381
O O4 0.989022 0.597327 0.620983
O O5 0.000000 0.500000 0.500000
O O6 0.912578 0.675726 0.550785
O O7 0.371463 0.407856 0.789487
O O8 0.724657 0.865341 0.765540
O O9 0.003338 0.942556 0.590317
O O10 0.006513 0.843796 0.478842
O O11 0.247722 0.952111 0.352033
O O12 0.209714 0.299367 0.651664
O O13 0.468140 0.237096 0.397754
O O14 0.980586 0.566680 0.182156
O O15 0.500000 0.921841 0.250000
#
# Coordination Sequence:
#
# PCOD9271020 Si02
#       8
#     4   8   4   8   8   8   8   8
#     4  10  22  34  54  92 134 162 202 256 324 392
#     4  11  22  39  66  90 128 169 215 264 321 388
#     4  10  20  36  56  86 134 166 210 260 322 388
#     4   9  20  38  56  88 127 166 208 260 319 387
#     4  10  23  37  61  94 130 164 205 265 330 389
#     4  11  21  40  67  96 123 170 222 270 322 388
#     4  10  22  41  64  94 128 168 219 269 319 390
#     4  11  25  42  63  97 130 174 212 266 326 392
#
# _framework density 23.52731
#
# number of rings (size 3 to 8) (size 9 to 14) (size 15 to 20)
#    0.000    1.714    2.857    1.714    3.000    8.571 
#    0.000    0.714    1.571    0.000    0.000    0.000 
#    0.000    0.000    0.000    0.000    0.000    0.000 
#
# Total GULP energy -156022.584880 kJ/mol
# GULP energy per Si atom -5572.235174 kJ/mol
# Density = 2.347376 g / cm^3
# Si number density = 23.527310 Si / 1000 Ang^3
#
#
#
# Elastic Constant Matrix: (Units=GPa)
#
#
# Indices 1 2 3 4 5 6 
#
# 1 54.3382 -1.1532 -0.0596 -0.0004 17.9768 0.0002
# 2 -1.1532 52.6110 15.4930 -0.0019 4.0487 0.0007
# 3 -0.0596 15.4930 123.8911 -0.0039 8.0072 0.0013
# 4 -0.0004 -0.0019 -0.0039 41.8498 0.0012 0.8592
# 5 17.9768 4.0487 8.0072 0.0012 21.6626 -0.0004
# 6 0.0002 0.0007 0.0013 0.8592 -0.0004 18.9134
#
#
#
# Elastic Compliance Matrix: (Units=1/GPa)
#
#
# Indices 1 2 3 4 5 6 
#
# 1 0.025793 0.001919 0.001208 0.000001 -0.022209 -0.000001
# 2 0.001919 0.020049 -0.002214 0.000001 -0.004521 -0.000001
# 3 0.001208 -0.002214 0.008592 0.000001 -0.003765 -0.000001
# 4 0.000001 0.000001 0.000001 0.023917 -0.000003 -0.001087
# 5 -0.022209 -0.004521 -0.003765 -0.000003 0.066829 0.000002
# 6 -0.000001 -0.000001 -0.000001 -0.001087 0.000002 0.052922
#
#
# Mechanical properties :
#
#
# Convention : Reuss Voigt Hill
#
# Bulk Modulus (GPa) = 17.77469 28.82230 23.29850
# Shear Modulus (GPa) = 23.25239 30.92250 27.08745
#
# Velocity S-wave (km/s) = 3.14716 3.62929 3.39679
# Velocity P-wave (km/s) = 4.55823 5.46256 5.03075
#
# Compressibility (1/GPa) = 0.05625978
#
# Stress axis : x y z
#
# Youngs Moduli (GPa) = 38.77037 49.87676 116.38220
#
# Poissons Ratio (x) = -0.09570 -0.14058
# Poissons Ratio (y) = -0.07439 0.25768
# Poissons Ratio (z) = -0.04683 0.11043
#
# Static dielectric constant tensor:
#      x y z
#    x 2.045840 0.000000 -0.020480 
#    y 0.000000 1.967370 0.000000 
#    z -0.020480 0.000000 1.932960 
# 
# From -- ./inp_files/249268.got.cif
#   From: 2010.05.17/outbox.cif.g08.bks.cpg/sg15_125_cif.got.tgz:249268.got - 2010.06.03 18:47:42.
