data_PCOD9271804
_publ_section_title
;
Structure prediction by ZEFSAII (Michael W. Deem and Ramdas Pophale) SiO2 
 PCOD9271804
Probable space group: C 2/C
;
_chemical_formula_sum "Si O2"
_cell_formula_units_Z 64
_cell_length_a 20.003527
_cell_length_b 19.177863
_cell_length_c 17.818656
_cell_angle_alpha 90.000000
_cell_angle_beta 29.147367
_cell_angle_gamma 90.000000
_cell_volume 3329.369758
_symmetry_space_group_name_H-M "C 2/C"
_symmetry_group_IT_number 15
_symmetry_cell_setting 'monoclinic'
loop_
_space_group_symop_operation_xyz
x,y,z
-x,y,1/2-z
-x,-y,-z
x,-y,1/2+z
1/2+x,1/2+y,z
1/2-x,1/2+y,1/2-z
1/2-x,1/2-y,-z
1/2+x,1/2-y,1/2+z
loop_
_atom_site_type_symbol
_atom_site_label
_atom_site_fract_x
_atom_site_fract_y
_atom_site_fract_z
Si Si1 0.193454 0.280113 0.478870
Si Si2 0.849802 0.035664 0.360352
Si Si3 0.389436 0.286675 0.647828
Si Si4 0.148616 0.416040 0.611105
Si Si5 0.813630 0.179034 0.709456
Si Si6 0.847052 0.192702 0.366086
Si Si7 0.162802 0.859988 0.945780
Si Si8 0.574251 0.462232 0.359472
O O1 0.250000 0.250000 0.500000
O O2 0.135387 0.353993 0.562119
O O3 0.301686 0.294043 0.306788
O O4 0.108829 0.214431 0.530653
O O5 0.795830 0.113345 0.429017
O O6 0.000000 0.032964 0.250000
O O7 0.759593 0.973384 0.480940
O O8 0.864289 0.017662 0.258129
O O9 0.321309 0.211992 0.695721
O O10 0.549919 0.294854 0.467765
O O11 0.362588 0.299498 0.761171
O O12 0.314860 0.341758 0.663994
O O13 0.206428 0.383236 0.632715
O O14 0.000000 0.450119 0.750000
O O15 0.822786 0.095643 0.707922
O O16 0.750000 0.250000 0.500000
O O17 0.000000 0.198786 0.250000
O O18 0.042790 0.916686 0.068180
O O19 0.500000 0.500000 0.500000
#
# Coordination Sequence:
#
# PCOD9271804 Si02
#       8
#     8   8   8   8   8   8   8   8
#     4   9  19  34  55  89 129 174 213 248 313 388
#     4  11  22  41  66  92 131 170 225 272 330 401
#     4  10  21  40  62  93 132 161 221 276 334 382
#     4  11  22  38  59  94 137 180 215 261 328 400
#     4  10  20  36  61  93 128 170 208 271 328 389
#     4  11  25  45  73  98 123 169 226 282 342 395
#     4   9  20  36  59  91 130 172 211 268 316 384
#     4  11  21  37  64  92 126 171 226 272 331 386
#
# _framework density 19.222857999999999
#
# number of rings (size 3 to 8) (size 9 to 14) (size 15 to 20)
#    0.000    1.750    2.500    2.250    0.000   10.500 
#    0.000    0.000    0.000    1.500    0.000    0.000 
#    0.000    0.000    0.000    0.000    0.000    0.000 
#
# Total GULP energy -178268.863647 kJ/mol
# GULP energy per Si atom -5570.901989 kJ/mol
# Density = 1.917911 g / cm^3
# Si number density = 19.222858 Si / 1000 Ang^3
#
#
#
# Elastic Constant Matrix: (Units=GPa)
#
#
# Indices 1 2 3 4 5 6 
#
# 1 82.9929 23.2935 19.6300 -0.0002 18.1164 -0.0012
# 2 23.2935 115.4697 23.0587 0.0009 5.1215 -0.0014
# 3 19.6300 23.0587 49.9603 0.0008 16.0520 -0.0015
# 4 -0.0002 0.0009 0.0008 35.2019 -0.0013 -3.9694
# 5 18.1164 5.1215 16.0520 -0.0013 33.9275 0.0008
# 6 -0.0012 -0.0014 -0.0015 -3.9694 0.0008 19.9819
#
#
#
# Elastic Compliance Matrix: (Units=1/GPa)
#
#
# Indices 1 2 3 4 5 6 
#
# 1 0.014656 -0.002125 -0.002791 0.000000 -0.006185 0.000001
# 2 -0.002125 0.009864 -0.004250 0.000000 0.001656 0.000000
# 3 -0.002791 -0.004250 0.026403 -0.000001 -0.010360 0.000002
# 4 0.000000 0.000000 -0.000001 0.029058 0.000001 0.005772
# 5 -0.006185 0.001656 -0.010360 0.000001 0.037429 -0.000002
# 6 0.000001 0.000000 0.000002 0.005772 -0.000002 0.051192
#
#
# Mechanical properties :
#
#
# Convention : Reuss Voigt Hill
#
# Bulk Modulus (GPa) = 30.68283 42.26528 36.47406
# Shear Modulus (GPa) = 25.27854 29.98498 27.63176
#
# Velocity S-wave (km/s) = 3.63026 3.95379 3.79548
# Velocity P-wave (km/s) = 5.79379 6.54813 6.18248
#
# Compressibility (1/GPa) = 0.03259151
#
# Stress axis : x y z
#
# Youngs Moduli (GPa) = 68.23283 101.37702 37.87509
#
# Poissons Ratio (x) = 0.21542 0.10569
# Poissons Ratio (y) = 0.14499 0.16097
# Poissons Ratio (z) = 0.19041 0.43085
#
# Static dielectric constant tensor:
#      x y z
#    x 1.692520 0.000000 0.011720 
#    y 0.000000 1.729030 0.000000 
#    z 0.011720 0.000000 1.682980 
# 
# From -- ./inp_files/216165.got.cif
#   From: 2010.05.17/outbox.cif.g08.bks.cpg/sg15_109_cif.got.tgz:216165.got - 2010.06.03 18:47:42.
