data_PCOD9271448
_publ_section_title
;
Structure prediction by ZEFSAII (Michael W. Deem and Ramdas Pophale) SiO2 
 PCOD9271448
Probable space group: C 2/C
;
_chemical_formula_sum "Si O2"
_cell_formula_units_Z 40
_cell_length_a 12.776387
_cell_length_b 12.391637
_cell_length_c 9.599264
_cell_angle_alpha 90.000000
_cell_angle_beta 85.393172
_cell_angle_gamma 90.000000
_cell_volume 1514.848971
_symmetry_space_group_name_H-M "C 2/C"
_symmetry_group_IT_number 15
_symmetry_cell_setting 'monoclinic'
loop_
_space_group_symop_operation_xyz
x,y,z
-x,y,1/2-z
-x,-y,-z
x,-y,1/2+z
1/2+x,1/2+y,z
1/2-x,1/2+y,1/2-z
1/2-x,1/2-y,-z
1/2+x,1/2-y,1/2+z
loop_
_atom_site_type_symbol
_atom_site_label
_atom_site_fract_x
_atom_site_fract_y
_atom_site_fract_z
Si Si1 0.792375 0.325749 0.283200
Si Si2 0.130219 0.508765 0.910389
Si Si3 0.588880 0.615155 0.623240
Si Si4 0.536016 0.834826 0.585980
Si Si5 0.673096 0.611076 0.079685
O O1 0.880628 0.407416 0.215649
O O2 0.697033 0.332666 0.177538
O O3 0.724767 0.356568 0.427201
O O4 0.848685 0.214953 0.323808
O O5 0.231044 0.444838 0.849919
O O6 0.053874 0.411935 0.965096
O O7 0.136349 0.591421 0.040126
O O8 0.500000 0.603795 0.750000
O O9 0.547337 0.713467 0.531476
O O10 0.603176 0.495068 0.563991
O O11 0.500000 0.830134 0.750000
#
# Coordination Sequence:
#
# PCOD9271448 Si02
#       5
#     8   8   8   8   8
#     4  10  22  39  60  87 120 157 199 246 297 352
#     4  10  21  37  61  87 116 158 201 246 292 352
#     4  10  22  39  61  86 118 158 199 244 297 356
#     4  10  20  36  59  88 118 150 199 246 294 348
#     4  10  21  38  59  86 122 157 199 247 296 352
#
# _framework density 26.405272
#
# number of rings (size 3 to 8) (size 9 to 14) (size 15 to 20)
#    0.000    2.000    0.000    3.600    0.000    8.800 
#    0.000   11.000    0.000    0.000    0.000    0.000 
#    0.000    0.000    0.000    0.000    0.000    0.000 
#
# Total GULP energy -111387.911125 kJ/mol
# GULP energy per Si atom -5569.395556 kJ/mol
# Density = 2.634517 g / cm^3
# Si number density = 26.405272 Si / 1000 Ang^3
#
#
#
# Elastic Constant Matrix: (Units=GPa)
#
#
# Indices 1 2 3 4 5 6 
#
# 1 76.0214 37.8805 14.4316 0.0000 -4.0441 0.0000
# 2 37.8805 253.4982 61.9406 0.0000 -4.3336 0.0000
# 3 14.4316 61.9406 88.1612 0.0000 -5.6586 0.0000
# 4 0.0000 0.0000 0.0000 31.5424 0.0000 -4.8789
# 5 -4.0441 -4.3336 -5.6586 0.0000 18.2188 0.0000
# 6 0.0000 0.0000 0.0000 -4.8789 0.0000 34.4147
#
#
#
# Elastic Compliance Matrix: (Units=1/GPa)
#
#
# Indices 1 2 3 4 5 6 
#
# 1 0.014396 -0.001898 -0.000864 0.000000 0.002476 0.000000
# 2 -0.001898 0.005013 -0.003226 0.000000 -0.000231 0.000000
# 3 -0.000864 -0.003226 0.013968 0.000000 0.003379 0.000000
# 4 0.000000 0.000000 0.000000 0.032414 0.000000 0.004595
# 5 0.002476 -0.000231 0.003379 0.000000 0.056433 0.000000
# 6 0.000000 0.000000 0.000000 0.004595 0.000000 0.029709
#
#
# Mechanical properties :
#
#
# Convention : Reuss Voigt Hill
#
# Bulk Modulus (GPa) = 46.72896 71.79848 59.26372
# Shear Modulus (GPa) = 29.23280 37.06371 33.14825
#
# Velocity S-wave (km/s) = 3.33089 3.75059 3.54696
# Velocity P-wave (km/s) = 5.70337 6.78277 6.26635
#
# Compressibility (1/GPa) = 0.02140000
#
# Stress axis : x y z
#
# Youngs Moduli (GPa) = 69.46600 199.49439 71.59338
#
# Poissons Ratio (x) = 0.37856 0.06188
# Poissons Ratio (y) = 0.13182 0.23096
# Poissons Ratio (z) = 0.06004 0.64357
#
# Static dielectric constant tensor:
#      x y z
#    x 2.421030 0.000000 -0.017400 
#    y 0.000000 2.115420 0.000000 
#    z -0.017400 0.000000 2.057350 
# 
# From -- ./inp_files/94898.got.cif
#   From: 2010.05.17/outbox.cif.g08.bks.cpg/sg15_48_cif.got.tgz:94898.got - 2010.06.03 18:47:42.
