data_PCOD9271284
_publ_section_title
;
Structure prediction by ZEFSAII (Michael W. Deem and Ramdas Pophale) SiO2 
 PCOD9271284
Probable space group: C 2/C
;
_chemical_formula_sum "Si O2"
_cell_formula_units_Z 56
_cell_length_a 23.378210
_cell_length_b 19.479842
_cell_length_c 8.271104
_cell_angle_alpha 90.000000
_cell_angle_beta 135.083894
_cell_angle_gamma 90.000000
_cell_volume 2659.551055
_symmetry_space_group_name_H-M "C 2/C"
_symmetry_group_IT_number 15
_symmetry_cell_setting 'monoclinic'
loop_
_space_group_symop_operation_xyz
x,y,z
-x,y,1/2-z
-x,-y,-z
x,-y,1/2+z
1/2+x,1/2+y,z
1/2-x,1/2+y,1/2-z
1/2-x,1/2-y,-z
1/2+x,1/2-y,1/2+z
loop_
_atom_site_type_symbol
_atom_site_label
_atom_site_fract_x
_atom_site_fract_y
_atom_site_fract_z
Si Si1 0.597934 0.185979 0.634487
Si Si2 0.908167 0.940541 0.024032
Si Si3 0.204274 0.746915 0.133234
Si Si4 0.296944 0.526979 0.587064
Si Si5 0.121791 0.193179 0.959584
Si Si6 0.544584 0.737954 0.497872
Si Si7 0.776023 0.400907 0.260358
O O1 0.592163 0.234313 0.468496
O O2 0.514494 0.200320 0.562169
O O3 0.635208 0.116595 0.634997
O O4 0.667771 0.217005 0.893298
O O5 0.842547 0.931800 0.037939
O O6 0.902824 0.862514 0.953601
O O7 0.000000 0.956605 0.250000
O O8 0.871168 0.999044 0.842046
O O9 0.282114 0.705397 0.351116
O O10 0.131630 0.736409 0.112999
O O11 0.227587 0.827886 0.165597
O O12 0.259126 0.459447 0.428453
O O13 0.236525 0.567883 0.584218
O O14 0.070523 0.186144 0.692264
O O15 0.500000 0.706729 0.250000
#
# Coordination Sequence:
#
# PCOD9271284 Si02
#       7
#     8   8   8   8   8   8   8
#     4  10  20  36  58  87 117 149 186 241 298 344
#     4  11  21  35  52  78 113 150 192 237 281 340
#     4  10  20  36  59  88 117 147 186 239 300 356
#     4  10  22  36  53  78 111 160 201 231 274 333
#     4  11  20  34  57  85 113 147 185 232 297 358
#     4  10  21  34  52  86 119 144 179 228 297 354
#     4  10  20  37  57  82 115 151 196 236 277 341
#
# _framework density 21.056186
#
# number of rings (size 3 to 8) (size 9 to 14) (size 15 to 20)
#    0.000    1.714    0.000    6.429    0.000    2.286 
#    0.000   12.143    0.000    0.000    0.000   71.000 
#    0.000    0.000    0.000    0.000    0.000    0.000 
#
# Total GULP energy -155956.058730 kJ/mol
# GULP energy per Si atom -5569.859240 kJ/mol
# Density = 2.100826 g / cm^3
# Si number density = 21.056186 Si / 1000 Ang^3
#
#
#
# Elastic Constant Matrix: (Units=GPa)
#
#
# Indices 1 2 3 4 5 6 
#
# 1 102.1271 12.9246 21.1556 0.0000 29.0053 0.0000
# 2 12.9246 54.3459 11.6935 0.0000 11.0209 0.0000
# 3 21.1556 11.6935 76.5783 0.0000 13.5584 0.0000
# 4 0.0000 0.0000 0.0000 25.2827 0.0000 -3.1629
# 5 29.0053 11.0209 13.5584 0.0000 32.0811 0.0000
# 6 0.0000 0.0000 0.0000 -3.1629 0.0000 25.5194
#
#
#
# Elastic Compliance Matrix: (Units=1/GPa)
#
#
# Indices 1 2 3 4 5 6 
#
# 1 0.013387 -0.000558 -0.001626 0.000000 -0.011225 0.000000
# 2 -0.000558 0.020079 -0.001924 0.000000 -0.005581 0.000000
# 3 -0.001626 -0.001924 0.014510 0.000000 -0.004001 0.000000
# 4 0.000000 0.000000 0.000000 0.040176 0.000000 0.004979
# 5 -0.011225 -0.005581 -0.004001 0.000000 0.044928 0.000000
# 6 0.000000 0.000000 0.000000 0.004979 0.000000 0.039803
#
#
# Mechanical properties :
#
#
# Convention : Reuss Voigt Hill
#
# Bulk Modulus (GPa) = 25.15006 36.06651 30.60829
# Shear Modulus (GPa) = 25.72663 29.06181 27.39422
#
# Velocity S-wave (km/s) = 3.49923 3.71914 3.61086
# Velocity P-wave (km/s) = 5.31943 5.96729 5.65265
#
# Compressibility (1/GPa) = 0.03976134
#
# Stress axis : x y z
#
# Youngs Moduli (GPa) = 74.69888 49.80345 68.91832
#
# Poissons Ratio (x) = 0.02777 0.11205
# Poissons Ratio (y) = 0.04165 0.13260
# Poissons Ratio (z) = 0.12144 0.09582
#
# Static dielectric constant tensor:
#      x y z
#    x 1.888690 0.000000 -0.062400 
#    y 0.000000 1.840490 0.000000 
#    z -0.062400 0.000000 1.824710 
# 
# From -- ./inp_files/67180.got.cif
#   From: 2010.05.17/outbox.cif.g08.bks.cpg/sg15_34_cif.got.tgz:67180.got - 2010.06.03 18:47:42.
