data_PCOD9271056
_publ_section_title
;
Structure prediction by ZEFSAII (Michael W. Deem and Ramdas Pophale) SiO2 
 PCOD9271056
Probable space group: C 2/C
;
_chemical_formula_sum "Si O2"
_cell_formula_units_Z 60
_cell_length_a 19.372744
_cell_length_b 23.889326
_cell_length_c 9.277370
_cell_angle_alpha 90.000000
_cell_angle_beta 136.462090
_cell_angle_gamma 90.000000
_cell_volume 2957.567899
_symmetry_space_group_name_H-M "C 2/C"
_symmetry_group_IT_number 15
_symmetry_cell_setting 'monoclinic'
loop_
_space_group_symop_operation_xyz
x,y,z
-x,y,1/2-z
-x,-y,-z
x,-y,1/2+z
1/2+x,1/2+y,z
1/2-x,1/2+y,1/2-z
1/2-x,1/2-y,-z
1/2+x,1/2-y,1/2+z
loop_
_atom_site_type_symbol
_atom_site_label
_atom_site_fract_x
_atom_site_fract_y
_atom_site_fract_z
Si Si1 0.427137 0.016242 0.517878
Si Si2 0.884043 0.280989 0.049273
Si Si3 0.869674 0.116925 0.325773
Si Si4 0.613221 0.493724 0.229211
Si Si5 0.500000 0.424534 0.250000
Si Si6 0.237696 0.822396 0.076337
Si Si7 0.187995 0.624305 0.258437
Si Si8 0.216037 0.414494 0.118976
O O1 0.369768 0.960940 0.485359
O O2 0.500000 0.000000 0.500000
O O3 0.352049 0.063891 0.352765
O O4 0.500000 0.040032 0.750000
O O5 0.830991 0.305715 0.114373
O O6 0.000000 0.266340 0.250000
O O7 0.810900 0.228400 0.907885
O O8 0.878236 0.326785 0.912796
O O9 0.974462 0.110974 0.569320
O O10 0.793867 0.131955 0.339136
O O11 0.844687 0.056181 0.217638
O O12 0.850688 0.159561 0.168614
O O13 0.593598 0.465348 0.355273
O O14 0.683436 0.450878 0.252355
O O15 0.500000 0.500000 0.000000
O O16 0.270300 0.872863 0.227657
O O17 0.195423 0.620252 0.441458
#
# Coordination Sequence:
#
# PCOD9271056 Si02
#       8
#     8   8   8   8   4   8   8   8
#     4  12  26  40  63 105 140 176 220 265 338 407
#     4  10  24  49  71  91 127 173 229 276 335 387
#     4  10  21  38  62  89 134 172 213 266 322 388
#     4  10  22  35  57  91 136 175 210 254 322 394
#     4  10  20  36  56  94 130 174 220 248 316 400
#     4  10  26  43  70  99 125 172 222 279 334 396
#     4  11  23  41  68  91 132 181 213 273 330 388
#     4  12  25  41  66 100 141 169 224 273 334 399
#
# _framework density 20.286940000000001
#
# number of rings (size 3 to 8) (size 9 to 14) (size 15 to 20)
#    0.000    1.333    4.000    0.400   11.200    2.667 
#    0.000    0.000    0.000    0.000    0.000    0.000 
#    0.000    0.000    0.000    0.000    0.000    0.000 
#
# Total GULP energy -167399.862285 kJ/mol
# GULP energy per Si atom -5579.995410 kJ/mol
# Density = 2.024077 g / cm^3
# Si number density = 20.286940 Si / 1000 Ang^3
#
#
#
# Elastic Constant Matrix: (Units=GPa)
#
#
# Indices 1 2 3 4 5 6 
#
# 1 72.9679 12.9855 18.7422 0.0000 6.2039 0.0000
# 2 12.9855 61.6890 14.1617 0.0000 -1.7233 0.0000
# 3 18.7422 14.1617 76.8960 0.0000 -9.2654 0.0000
# 4 0.0000 0.0000 0.0000 26.8709 0.0000 -3.3977
# 5 6.2039 -1.7233 -9.2654 0.0000 28.8895 0.0000
# 6 0.0000 0.0000 0.0000 -3.3977 0.0000 18.5470
#
#
#
# Elastic Compliance Matrix: (Units=1/GPa)
#
#
# Indices 1 2 3 4 5 6 
#
# 1 0.015557 -0.002512 -0.003900 0.000000 -0.004742 0.000000
# 2 -0.002512 0.017331 -0.002486 0.000000 0.000776 0.000000
# 3 -0.003900 -0.002486 0.015079 0.000000 0.005525 0.000000
# 4 0.000000 0.000000 0.000000 0.038097 0.000000 0.006979
# 5 -0.004742 0.000776 0.005525 0.000000 0.037451 0.000000
# 6 0.000000 0.000000 0.000000 0.006979 0.000000 0.055196
#
#
# Mechanical properties :
#
#
# Convention : Reuss Voigt Hill
#
# Bulk Modulus (GPa) = 33.14519 33.70354 33.42436
# Shear Modulus (GPa) = 24.20546 25.90569 25.05558
#
# Velocity S-wave (km/s) = 3.45795 3.57734 3.51815
# Velocity P-wave (km/s) = 5.68480 5.80626 5.74585
#
# Compressibility (1/GPa) = 0.03017029
#
# Stress axis : x y z
#
# Youngs Moduli (GPa) = 64.28131 57.69848 66.31782
#
# Poissons Ratio (x) = 0.14492 0.25867
# Poissons Ratio (y) = 0.16146 0.16488
# Poissons Ratio (z) = 0.25073 0.14345
#
# Static dielectric constant tensor:
#      x y z
#    x 1.730200 0.000000 0.001520 
#    y 0.000000 1.761870 0.000000 
#    z 0.001520 0.000000 1.735160 
# 
# From -- ./inp_files/58791.got.cif
#   From: 2010.05.17/outbox.cif.g08.bks.cpg/sg15_30_cif.got.tgz:58791.got - 2010.06.03 18:47:42.
