data_PCOD9271358
_publ_section_title
;
Structure prediction by ZEFSAII (Michael W. Deem and Ramdas Pophale) SiO2 
 PCOD9271358
Probable space group: C 2/C
;
_chemical_formula_sum "Si O2"
_cell_formula_units_Z 36
_cell_length_a 11.222684
_cell_length_b 19.599717
_cell_length_c 7.960829
_cell_angle_alpha 90.000000
_cell_angle_beta 120.588605
_cell_angle_gamma 90.000000
_cell_volume 1507.401378
_symmetry_space_group_name_H-M "C 2/C"
_symmetry_group_IT_number 15
_symmetry_cell_setting 'monoclinic'
loop_
_space_group_symop_operation_xyz
x,y,z
-x,y,1/2-z
-x,-y,-z
x,-y,1/2+z
1/2+x,1/2+y,z
1/2-x,1/2+y,1/2-z
1/2-x,1/2-y,-z
1/2+x,1/2-y,1/2+z
loop_
_atom_site_type_symbol
_atom_site_label
_atom_site_fract_x
_atom_site_fract_y
_atom_site_fract_z
Si Si1 0.863122 0.699073 0.909781
Si Si2 0.000000 0.971927 0.750000
Si Si3 0.827428 0.315411 0.788809
Si Si4 0.812436 0.068582 0.838277
Si Si5 0.104869 0.459005 0.692530
O O1 0.797203 0.763855 0.767554
O O2 0.772148 0.634201 0.783012
O O3 0.846715 0.698752 0.101791
O O4 0.029009 0.697266 0.009174
O O5 0.933617 0.924664 0.559767
O O6 0.885983 0.024320 0.744673
O O7 0.803596 0.395770 0.802817
O O8 0.700281 0.017098 0.836178
O O9 0.000000 0.426167 0.750000
O O10 0.000000 0.500000 0.500000
#
# Coordination Sequence:
#
# PCOD9271358 Si02
#       5
#     8   4   8   8   8
#     4  10  20  36  61  90 132 160 218 264 332 370
#     4  10  24  38  62  94 130 170 216 262 336 382
#     4  10  20  36  58  98 123 170 208 276 316 386
#     4  11  22  41  63  94 130 172 211 272 320 398
#     4  12  21  38  66  94 126 161 219 262 319 378
#
# _framework density 23.882159999999999
#
# number of rings (size 3 to 8) (size 9 to 14) (size 15 to 20)
#    0.000    1.333    4.444    2.667    0.000    7.111 
#    0.000    0.000    2.444    4.000    0.000    0.000 
#    0.000    0.000    0.000    0.000    0.000    0.000 
#
# Total GULP energy -100459.016036 kJ/mol
# GULP energy per Si atom -5581.056446 kJ/mol
# Density = 2.382780 g / cm^3
# Si number density = 23.882160 Si / 1000 Ang^3
#
#
#
# Elastic Constant Matrix: (Units=GPa)
#
#
# Indices 1 2 3 4 5 6 
#
# 1 35.7662 23.4416 15.6934 0.0000 8.1607 0.0000
# 2 23.4416 141.2039 60.5581 0.0000 37.1214 0.0000
# 3 15.6934 60.5581 165.8670 0.0000 46.1510 0.0000
# 4 0.0000 0.0000 0.0000 46.4931 0.0000 20.4925
# 5 8.1607 37.1214 46.1510 0.0000 29.0043 0.0000
# 6 0.0000 0.0000 0.0000 20.4925 0.0000 23.3555
#
#
#
# Elastic Compliance Matrix: (Units=1/GPa)
#
#
# Indices 1 2 3 4 5 6 
#
# 1 0.031646 -0.004376 -0.000857 0.000000 -0.001940 0.000000
# 2 -0.004376 0.011281 -0.000054 0.000000 -0.013121 0.000000
# 3 -0.000857 -0.000054 0.010845 0.000000 -0.016946 0.000000
# 4 0.000000 0.000000 0.000000 0.035072 0.000000 -0.030773
# 5 -0.001940 -0.013121 -0.016946 0.000000 0.078781 0.000000
# 6 0.000000 0.000000 0.000000 -0.030773 0.000000 0.069817
#
#
# Mechanical properties :
#
#
# Convention : Reuss Voigt Hill
#
# Bulk Modulus (GPa) = 23.14897 60.24703 41.69800
# Shear Modulus (GPa) = 19.05383 35.98019 27.51701
#
# Velocity S-wave (km/s) = 2.82765 3.88567 3.39809
# Velocity P-wave (km/s) = 4.51385 6.73890 5.73531
#
# Compressibility (1/GPa) = 0.04319847
#
# Stress axis : x y z
#
# Youngs Moduli (GPa) = 31.59946 88.64461 92.21101
#
# Poissons Ratio (x) = 0.38793 0.07899
# Poissons Ratio (y) = 0.13829 0.00496
# Poissons Ratio (z) = 0.02707 0.00477
#
# Static dielectric constant tensor:
#      x y z
#    x 1.987010 0.000000 -0.034840 
#    y 0.000000 1.879340 0.000000 
#    z -0.034840 0.000000 1.924630 
# 
# From -- ./inp_files/30593.got.cif
#   From: 2010.05.17/outbox.cif.g08.bks.cpg/sg15_16_cif.got.tgz:30593.got - 2010.06.03 18:47:42.
