data_PCOD9271813
_publ_section_title
;
Structure prediction by ZEFSAII (Michael W. Deem and Ramdas Pophale) SiO2 
 PCOD9271813
Probable space group: C 2/C
;
_chemical_formula_sum "Si O2"
_cell_formula_units_Z 44
_cell_length_a 5.303658
_cell_length_b 26.158378
_cell_length_c 17.869023
_cell_angle_alpha 90.000000
_cell_angle_beta 116.958296
_cell_angle_gamma 90.000000
_cell_volume 2209.677717
_symmetry_space_group_name_H-M "C 2/C"
_symmetry_group_IT_number 15
_symmetry_cell_setting 'monoclinic'
loop_
_space_group_symop_operation_xyz
x,y,z
-x,y,1/2-z
-x,-y,-z
x,-y,1/2+z
1/2+x,1/2+y,z
1/2-x,1/2+y,1/2-z
1/2-x,1/2-y,-z
1/2+x,1/2-y,1/2+z
loop_
_atom_site_type_symbol
_atom_site_label
_atom_site_fract_x
_atom_site_fract_y
_atom_site_fract_z
Si Si1 0.500000 0.259174 0.750000
Si Si2 0.172558 0.650295 0.485788
Si Si3 0.187103 0.935686 0.201489
Si Si4 0.060001 0.826701 0.170658
Si Si5 0.093435 0.794603 0.926442
Si Si6 0.285473 0.469361 0.022873
O O1 0.756406 0.223379 0.812557
O O2 0.441834 0.283928 0.824524
O O3 0.288137 0.670422 0.581819
O O4 0.364945 0.678531 0.449911
O O5 0.215641 0.588967 0.488718
O O6 0.848857 0.667247 0.438936
O O7 0.500000 0.958130 0.250000
O O8 0.227190 0.878652 0.172336
O O9 0.000000 0.929983 0.250000
O O10 0.973211 0.965739 0.121816
O O11 0.000000 0.828227 0.250000
O O12 0.250000 0.750000 0.000000
O O13 0.500000 0.500000 0.000000
O O14 0.000000 0.500000 0.000000
#
# Coordination Sequence:
#
# PCOD9271813 Si02
#       6
#     4   8   8   8   8   8
#     4  12  24  36  66  90 132 176 234 244 328 388
#     4  11  25  44  65  94 138 170 214 275 332 381
#     4  10  20  36  61  95 128 152 200 275 346 372
#     4  10  21  35  61  95 127 165 211 273 317 387
#     4  12  25  42  64  97 137 179 215 267 321 400
#     4  11  23  42  72  96 122 169 222 273 334 400
#
# _framework density 19.912406000000001
#
# number of rings (size 3 to 8) (size 9 to 14) (size 15 to 20)
#    0.000    1.091    2.727    3.818    2.545    2.909 
#    0.000    0.000   20.000    0.000    0.000    0.000 
#    0.000    0.000    0.000    0.000    0.000    0.000 
#
# Total GULP energy -122561.274344 kJ/mol
# GULP energy per Si atom -5570.967016 kJ/mol
# Density = 1.986708 g / cm^3
# Si number density = 19.912406 Si / 1000 Ang^3
#
#
#
# Elastic Constant Matrix: (Units=GPa)
#
#
# Indices 1 2 3 4 5 6 
#
# 1 128.3876 48.4278 30.4940 0.0000 3.1401 0.0000
# 2 48.4278 81.5556 33.1445 0.0000 -1.9555 0.0000
# 3 30.4940 33.1445 104.0933 0.0000 -2.0568 0.0000
# 4 0.0000 0.0000 0.0000 27.7724 0.0000 14.9784
# 5 3.1401 -1.9555 -2.0568 0.0000 42.3880 0.0000
# 6 0.0000 0.0000 0.0000 14.9784 0.0000 22.9709
#
#
#
# Elastic Compliance Matrix: (Units=1/GPa)
#
#
# Indices 1 2 3 4 5 6 
#
# 1 0.010217 -0.005591 -0.001234 0.000000 -0.001075 0.000000
# 2 -0.005591 0.017152 -0.003803 0.000000 0.001021 0.000000
# 3 -0.001234 -0.003803 0.011188 0.000000 0.000459 0.000000
# 4 0.000000 0.000000 0.000000 0.055538 0.000000 -0.036214
# 5 -0.001075 0.001021 0.000459 0.000000 0.023741 0.000000
# 6 0.000000 0.000000 0.000000 -0.036214 0.000000 0.067147
#
#
# Mechanical properties :
#
#
# Convention : Reuss Voigt Hill
#
# Bulk Modulus (GPa) = 57.80226 59.79658 58.79942
# Shear Modulus (GPa) = 23.58411 32.09095 27.83753
#
# Velocity S-wave (km/s) = 3.44523 4.01884 3.74304
# Velocity P-wave (km/s) = 6.70205 7.18538 6.94792
#
# Compressibility (1/GPa) = 0.01730036
#
# Stress axis : x y z
#
# Youngs Moduli (GPa) = 97.87270 58.30279 89.37881
#
# Poissons Ratio (x) = 0.32599 0.11030
# Poissons Ratio (y) = 0.54724 0.33993
# Poissons Ratio (z) = 0.12078 0.22174
#
# Static dielectric constant tensor:
#      x y z
#    x 1.756370 0.000000 0.059160 
#    y 0.000000 1.806970 0.000000 
#    z 0.059160 0.000000 1.662010 
# 
# From -- ./inp_files/129484.got.cif
#   From: 2010.05.17/outbox.cif.g08.bks.cpg/sg15_65_cif.got.tgz:129484.got - 2010.06.03 18:47:42.
