data_PCOD9271458
_publ_section_title
;
Structure prediction by ZEFSAII (Michael W. Deem and Ramdas Pophale) SiO2 
 PCOD9271458
Probable space group: C 2/C
;
_chemical_formula_sum "Si O2"
_cell_formula_units_Z 48
_cell_length_a 7.907309
_cell_length_b 27.862292
_cell_length_c 10.938296
_cell_angle_alpha 90.000000
_cell_angle_beta 108.688966
_cell_angle_gamma 90.000000
_cell_volume 2282.810826
_symmetry_space_group_name_H-M "C 2/C"
_symmetry_group_IT_number 15
_symmetry_cell_setting 'monoclinic'
loop_
_space_group_symop_operation_xyz
x,y,z
-x,y,1/2-z
-x,-y,-z
x,-y,1/2+z
1/2+x,1/2+y,z
1/2-x,1/2+y,1/2-z
1/2-x,1/2-y,-z
1/2+x,1/2-y,1/2+z
loop_
_atom_site_type_symbol
_atom_site_label
_atom_site_fract_x
_atom_site_fract_y
_atom_site_fract_z
Si Si1 0.609684 0.009300 0.900917
Si Si2 0.291563 0.282348 0.197867
Si Si3 0.280553 0.596126 0.066143
Si Si4 0.775224 0.814197 0.931485
Si Si5 0.208280 0.083073 0.155001
Si Si6 0.793168 0.803108 0.462949
O O1 0.500000 0.013138 0.750000
O O2 0.739698 0.964066 0.907414
O O3 0.706151 0.059522 0.949435
O O4 0.500000 0.000000 0.000000
O O5 0.500000 0.295855 0.250000
O O6 0.282461 0.224701 0.182773
O O7 0.219688 0.303057 0.307299
O O8 0.208038 0.300288 0.051397
O O9 0.495002 0.590122 0.111579
O O10 0.223704 0.580951 0.189573
O O11 0.229849 0.651069 0.025403
O O12 0.721088 0.867845 0.887334
O O13 0.990946 0.808926 0.986445
O O14 0.750000 0.750000 0.500000
#
# Coordination Sequence:
#
# PCOD9271458 Si02
#       6
#     8   8   8   8   8   8
#     4  12  25  45  64  94 131 161 212 273 325 378
#     4   9  18  34  53  85 123 155 202 247 303 365
#     4  10  22  42  65  94 123 170 212 259 317 391
#     4   9  19  36  58  85 116 163 206 251 303 374
#     4  10  21  41  68  88 122 166 217 257 319 382
#     4  10  20  36  59  88 124 158 204 256 305 370
#
# _framework density 21.026709
#
# number of rings (size 3 to 8) (size 9 to 14) (size 15 to 20)
#    0.000    2.000    1.667    1.500    0.000    4.000 
#   12.000    1.667    0.000    0.000    0.000    0.000 
#    0.000    0.000    0.000    0.000    0.000    0.000 
#
# Total GULP energy -133986.088580 kJ/mol
# GULP energy per Si atom -5582.753691 kJ/mol
# Density = 2.097885 g / cm^3
# Si number density = 21.026709 Si / 1000 Ang^3
#
#
#
# Elastic Constant Matrix: (Units=GPa)
#
#
# Indices 1 2 3 4 5 6 
#
# 1 31.7375 27.8359 25.2124 0.0000 -5.2310 0.0000
# 2 27.8359 159.5512 48.5090 0.0000 -13.5671 0.0000
# 3 25.2124 48.5090 105.2212 0.0000 -12.4947 0.0000
# 4 0.0000 0.0000 0.0000 40.2145 0.0000 1.2345
# 5 -5.2310 -13.5671 -12.4947 0.0000 25.7954 0.0000
# 6 0.0000 0.0000 0.0000 1.2345 0.0000 29.8596
#
#
#
# Elastic Compliance Matrix: (Units=1/GPa)
#
#
# Indices 1 2 3 4 5 6 
#
# 1 0.042180 -0.004853 -0.007594 0.000000 0.002323 0.000000
# 2 -0.004853 0.007983 -0.002266 0.000000 0.002117 0.000000
# 3 -0.007594 -0.002266 0.012779 0.000000 0.003458 0.000000
# 4 0.000000 0.000000 0.000000 0.024898 0.000000 -0.001029
# 5 0.002323 0.002117 0.003458 0.000000 0.042026 0.000000
# 6 0.000000 0.000000 0.000000 -0.001029 0.000000 0.033533
#
#
# Mechanical properties :
#
#
# Convention : Reuss Voigt Hill
#
# Bulk Modulus (GPa) = 29.83604 55.51382 42.67493
# Shear Modulus (GPa) = 24.51025 32.17077 28.34051
#
# Velocity S-wave (km/s) = 3.41790 3.91576 3.67527
# Velocity P-wave (km/s) = 5.45861 6.84858 6.19272
#
# Compressibility (1/GPa) = 0.03351651
#
# Stress axis : x y z
#
# Youngs Moduli (GPa) = 23.70797 125.26283 78.25463
#
# Poissons Ratio (x) = 0.60784 0.59426
# Poissons Ratio (y) = 0.11504 0.17735
# Poissons Ratio (z) = 0.18004 0.28388
#
# Static dielectric constant tensor:
#      x y z
#    x 1.802410 0.000000 -0.001200 
#    y 0.000000 1.733540 0.000000 
#    z -0.001200 0.000000 1.764770 
# 
# From -- ./inp_files/79870.got.cif
#   From: 2010.05.17/outbox.cif.g08.bks.cpg/sg15_40_cif.got.tgz:79870.got - 2010.06.03 18:47:42.
