data_PCOD9271110
_publ_section_title
;
Structure prediction by ZEFSAII (Michael W. Deem and Ramdas Pophale) SiO2 
 PCOD9271110
Probable space group: C 2/C
;
_chemical_formula_sum "Si O2"
_cell_formula_units_Z 56
_cell_length_a 15.934356
_cell_length_b 12.169685
_cell_length_c 16.729115
_cell_angle_alpha 90.000000
_cell_angle_beta 46.430558
_cell_angle_gamma 90.000000
_cell_volume 2350.438659
_symmetry_space_group_name_H-M "C 2/C"
_symmetry_group_IT_number 15
_symmetry_cell_setting 'monoclinic'
loop_
_space_group_symop_operation_xyz
x,y,z
-x,y,1/2-z
-x,-y,-z
x,-y,1/2+z
1/2+x,1/2+y,z
1/2-x,1/2+y,1/2-z
1/2-x,1/2-y,-z
1/2+x,1/2-y,1/2+z
loop_
_atom_site_type_symbol
_atom_site_label
_atom_site_fract_x
_atom_site_fract_y
_atom_site_fract_z
Si Si1 0.377630 0.278104 0.332153
Si Si2 0.795079 0.010216 0.122322
Si Si3 0.271575 0.123204 0.068932
Si Si4 0.493555 0.668233 0.504318
Si Si5 0.936596 0.787826 0.867916
Si Si6 0.655503 0.829574 0.812541
Si Si7 0.815351 0.574458 0.462192
O O1 0.500000 0.337315 0.250000
O O2 0.332885 0.246509 0.273447
O O3 0.287344 0.351522 0.436893
O O4 0.398237 0.164276 0.367900
O O5 0.697353 0.052552 0.248778
O O6 0.878141 0.908639 0.091809
O O7 0.727258 0.998493 0.083662
O O8 0.890503 0.107122 0.044062
O O9 0.141971 0.116339 0.119599
O O10 0.265096 0.174895 0.160841
O O11 0.340328 0.008526 0.017743
O O12 0.348214 0.203058 0.965075
O O13 0.507542 0.676650 0.399124
O O14 0.464210 0.782944 0.568221
O O15 0.000000 0.737761 0.750000
#
# Coordination Sequence:
#
# PCOD9271110 Si02
#       7
#     8   8   8   8   8   8   8
#     4  10  22  40  62  85 115 158 200 243 295 353
#     4  10  20  37  60  88 120 158 198 250 298 348
#     4  10  21  37  56  88 120 151 201 240 297 365
#     4  10  20  36  59  91 121 154 207 246 287 365
#     4  10  20  36  57  84 121 163 191 243 298 352
#     4  10  22  37  60  86 120 156 193 251 305 345
#     4  10  21  39  60  85 119 154 196 250 293 350
#
# _framework density 23.825341000000002
#
# number of rings (size 3 to 8) (size 9 to 14) (size 15 to 20)
#    0.000    2.000    1.429    1.714    2.000    1.143 
#    0.000    0.714    3.143    0.000    0.000    0.000 
#    0.000    0.000    0.000    0.000    0.000    0.000 
#
# Total GULP energy -155932.474296 kJ/mol
# GULP energy per Si atom -5569.016939 kJ/mol
# Density = 2.377111 g / cm^3
# Si number density = 23.825341 Si / 1000 Ang^3
#
#
#
# Elastic Constant Matrix: (Units=GPa)
#
#
# Indices 1 2 3 4 5 6 
#
# 1 39.5207 10.7729 42.0301 0.0000 26.7629 0.0000
# 2 10.7729 51.8633 18.3611 0.0000 3.7767 0.0000
# 3 42.0301 18.3611 128.9587 0.0000 19.5441 0.0000
# 4 0.0000 0.0000 0.0000 34.6764 0.0000 -0.2661
# 5 26.7629 3.7767 19.5441 0.0000 33.1970 0.0000
# 6 0.0000 0.0000 0.0000 -0.2661 0.0000 12.1425
#
#
#
# Elastic Compliance Matrix: (Units=1/GPa)
#
#
# Indices 1 2 3 4 5 6 
#
# 1 0.085304 -0.007138 -0.018102 0.000000 -0.057302 0.000000
# 2 -0.007138 0.020916 -0.001277 0.000000 0.004127 0.000000
# 3 -0.018102 -0.001277 0.012739 0.000000 0.007239 0.000000
# 4 0.000000 0.000000 0.000000 0.028843 0.000000 0.000632
# 5 -0.057302 0.004127 0.007239 0.000000 0.071588 0.000000
# 6 0.000000 0.000000 0.000000 0.000632 0.000000 0.082369
#
#
# Mechanical properties :
#
#
# Convention : Reuss Voigt Hill
#
# Bulk Modulus (GPa) = 15.16868 40.29678 27.73273
# Shear Modulus (GPa) = 13.27081 25.94842 19.60961
#
# Velocity S-wave (km/s) = 2.36265 3.30375 2.87201
# Velocity P-wave (km/s) = 3.71797 5.61276 4.76059
#
# Compressibility (1/GPa) = 0.06592532
#
# Stress axis : x y z
#
# Youngs Moduli (GPa) = 11.72279 47.81095 78.50018
#
# Poissons Ratio (x) = 0.34127 1.42098
# Poissons Ratio (y) = 0.08368 0.10025
# Poissons Ratio (z) = 0.21220 0.06106
#
# Static dielectric constant tensor:
#      x y z
#    x 1.995910 0.000000 -0.034770 
#    y 0.000000 1.960590 0.000000 
#    z -0.034770 0.000000 2.059270 
# 
# From -- ./inp_files/162206.got.cif
#   From: 2010.05.17/outbox.cif.g08.bks.cpg/sg15_82_cif.got.tgz:162206.got - 2010.06.03 18:47:42.
