data_PCOD9271470
_publ_section_title
;
Structure prediction by ZEFSAII (Michael W. Deem and Ramdas Pophale) SiO2 
 PCOD9271470
Probable space group: C 2/C
;
_chemical_formula_sum "Si O2"
_cell_formula_units_Z 48
_cell_length_a 11.482309
_cell_length_b 24.046800
_cell_length_c 9.111421
_cell_angle_alpha 90.000000
_cell_angle_beta 85.374754
_cell_angle_gamma 90.000000
_cell_volume 2507.587077
_symmetry_space_group_name_H-M "C 2/C"
_symmetry_group_IT_number 15
_symmetry_cell_setting 'monoclinic'
loop_
_space_group_symop_operation_xyz
x,y,z
-x,y,1/2-z
-x,-y,-z
x,-y,1/2+z
1/2+x,1/2+y,z
1/2-x,1/2+y,1/2-z
1/2-x,1/2-y,-z
1/2+x,1/2-y,1/2+z
loop_
_atom_site_type_symbol
_atom_site_label
_atom_site_fract_x
_atom_site_fract_y
_atom_site_fract_z
Si Si1 0.367122 0.020310 0.532998
Si Si2 0.638470 0.343028 0.217410
Si Si3 0.632197 0.779456 0.801702
Si Si4 0.972034 0.322125 0.407972
Si Si5 0.690638 0.074719 0.649333
Si Si6 0.199387 0.361877 0.560318
O O1 0.345664 0.040173 0.701324
O O2 0.336547 0.073488 0.434180
O O3 0.500000 0.000000 0.500000
O O4 0.292003 0.968120 0.484592
O O5 0.500000 0.345304 0.250000
O O6 0.679506 0.281026 0.256993
O O7 0.699843 0.388266 0.314200
O O8 0.684342 0.354460 0.048084
O O9 0.500000 0.781643 0.750000
O O10 0.699861 0.829297 0.713501
O O11 0.612857 0.789102 0.975308
O O12 0.910083 0.381134 0.381514
O O13 0.000000 0.294465 0.250000
O O14 0.094839 0.333943 0.475383
#
# Coordination Sequence:
#
# PCOD9271470 Si02
#       6
#     8   8   8   8   8   8
#     4  11  20  33  57  88 118 145 180 241 304 354
#     4  10  21  41  59  79 116 163 203 237 283 338
#     4   9  21  34  61  86 116 158 194 243 290 357
#     4  11  18  36  55  90 123 143 183 244 306 344
#     4  11  23  36  57  86 120 151 188 237 299 349
#     4  10  20  36  59  89 117 151 197 238 297 354
#
# _framework density 19.141907
#
# number of rings (size 3 to 8) (size 9 to 14) (size 15 to 20)
#    0.000    1.667    5.000    1.000    2.333    2.000 
#    0.000    3.333    0.000    0.000    0.000    0.000 
#    0.000    0.000    0.000    0.000    0.000    0.000 
#
# Total GULP energy -133962.272142 kJ/mol
# GULP energy per Si atom -5581.761339 kJ/mol
# Density = 1.909834 g / cm^3
# Si number density = 19.141907 Si / 1000 Ang^3
#
#
#
# Elastic Constant Matrix: (Units=GPa)
#
#
# Indices 1 2 3 4 5 6 
#
# 1 59.5213 19.0001 21.9951 0.0000 -20.0587 0.0000
# 2 19.0001 101.8094 49.1360 0.0000 -19.7382 0.0000
# 3 21.9951 49.1360 93.9022 0.0000 -10.7148 0.0000
# 4 0.0000 0.0000 0.0000 27.8684 0.0000 -8.1856
# 5 -20.0587 -19.7382 -10.7148 0.0000 19.8326 0.0000
# 6 0.0000 0.0000 0.0000 -8.1856 0.0000 25.4447
#
#
#
# Elastic Compliance Matrix: (Units=1/GPa)
#
#
# Indices 1 2 3 4 5 6 
#
# 1 0.026810 0.002393 -0.004440 0.000000 0.027098 0.000000
# 2 0.002393 0.015512 -0.007076 0.000000 0.014036 0.000000
# 3 -0.004440 -0.007076 0.015001 0.000000 -0.003428 0.000000
# 4 0.000000 0.000000 0.000000 0.039627 0.000000 0.012748
# 5 0.027098 0.014036 -0.003428 0.000000 0.089946 0.000000
# 6 0.000000 0.000000 0.000000 0.012748 0.000000 0.043402
#
#
# Mechanical properties :
#
#
# Convention : Reuss Voigt Hill
#
# Bulk Modulus (GPa) = 25.59049 48.38837 36.98943
# Shear Modulus (GPa) = 19.11547 25.63592 22.37569
#
# Velocity S-wave (km/s) = 3.16352 3.66356 3.42268
# Velocity P-wave (km/s) = 5.17124 6.57489 5.91485
#
# Compressibility (1/GPa) = 0.03907702
#
# Stress axis : x y z
#
# Youngs Moduli (GPa) = 37.29993 64.46712 66.66348
#
# Poissons Ratio (x) = -0.15428 0.29598
# Poissons Ratio (y) = -0.08926 0.47170
# Poissons Ratio (z) = 0.16561 0.45616
#
# Static dielectric constant tensor:
#      x y z
#    x 1.671430 0.000000 0.015490 
#    y 0.000000 1.680350 0.000000 
#    z 0.015490 0.000000 1.704650 
# 
# From -- ./inp_files/31914.got.cif
#   From: 2010.05.17/outbox.cif.g08.bks.cpg/sg15_16_cif.got.tgz:31914.got - 2010.06.03 18:47:42.
