data_PCOD9271738
_publ_section_title
;
Structure prediction by ZEFSAII (Michael W. Deem and Ramdas Pophale) SiO2 
 PCOD9271738
Probable space group: C 2/C
;
_chemical_formula_sum "Si O2"
_cell_formula_units_Z 52
_cell_length_a 13.584689
_cell_length_b 7.598588
_cell_length_c 25.143128
_cell_angle_alpha 90.000000
_cell_angle_beta 57.491208
_cell_angle_gamma 90.000000
_cell_volume 2188.712070
_symmetry_space_group_name_H-M "C 2/C"
_symmetry_group_IT_number 15
_symmetry_cell_setting 'monoclinic'
loop_
_space_group_symop_operation_xyz
x,y,z
-x,y,1/2-z
-x,-y,-z
x,-y,1/2+z
1/2+x,1/2+y,z
1/2-x,1/2+y,1/2-z
1/2-x,1/2-y,-z
1/2+x,1/2-y,1/2+z
loop_
_atom_site_type_symbol
_atom_site_label
_atom_site_fract_x
_atom_site_fract_y
_atom_site_fract_z
Si Si1 0.223414 0.903265 0.815214
Si Si2 0.753408 0.573631 0.075248
Si Si3 0.791332 0.037614 0.795080
Si Si4 0.500000 0.732362 0.250000
Si Si5 0.562557 0.921490 0.535060
Si Si6 0.025937 0.281760 0.130878
Si Si7 0.907014 0.118443 0.559302
O O1 0.314698 0.744646 0.795897
O O2 0.101573 0.794416 0.844002
O O3 0.254647 0.008753 0.752098
O O4 0.187174 0.023828 0.875397
O O5 0.772846 0.521004 0.131658
O O6 0.620940 0.625147 0.101655
O O7 0.828262 0.753442 0.045290
O O8 0.804153 0.419981 0.023662
O O9 0.897689 0.901969 0.765177
O O10 0.531327 0.844571 0.190067
O O11 0.494114 0.744315 0.567443
O O12 0.500000 0.000000 0.500000
O O13 0.552902 0.060818 0.584272
O O14 0.000000 0.000000 0.500000
#
# Coordination Sequence:
#
# PCOD9271738 Si02
#       7
#     8   8   8   4   8   8   8
#     4  11  21  37  59  84 114 155 199 245 294 353
#     4  10  20  38  59  85 116 153 192 242 304 359
#     4  10  20  37  59  84 116 154 196 244 299 361
#     4   8  20  38  62  90 122 152 192 250 310 360
#     4  10  20  36  61  87 115 154 197 239 292 356
#     4  10  20  38  61  86 117 154 193 241 299 360
#     4  11  22  37  56  85 119 156 201 247 290 348
#
# _framework density 23.758262999999999
#
# number of rings (size 3 to 8) (size 9 to 14) (size 15 to 20)
#    0.000    1.846    0.000    6.000    0.000    0.000 
#    0.000    9.231    0.000    0.923    0.000    0.000 
#    0.000    0.000    0.000    0.000    0.000    0.000 
#
# Total GULP energy -145107.896648 kJ/mol
# GULP energy per Si atom -5581.072948 kJ/mol
# Density = 2.370419 g / cm^3
# Si number density = 23.758263 Si / 1000 Ang^3
#
#
#
# Elastic Constant Matrix: (Units=GPa)
#
#
# Indices 1 2 3 4 5 6 
#
# 1 31.0065 5.6704 17.7730 0.0000 0.8505 0.0000
# 2 5.6704 84.5932 56.7810 0.0000 15.3806 0.0000
# 3 17.7730 56.7810 134.4787 0.0000 16.3770 0.0000
# 4 0.0000 0.0000 0.0000 38.7353 0.0000 2.0268
# 5 0.8505 15.3806 16.3770 0.0000 28.0615 0.0000
# 6 0.0000 0.0000 0.0000 2.0268 0.0000 26.2898
#
#
#
# Elastic Compliance Matrix: (Units=1/GPa)
#
#
# Indices 1 2 3 4 5 6 
#
# 1 0.035018 0.000851 -0.005169 0.000000 0.001489 0.000000
# 2 0.000851 0.017301 -0.006739 0.000000 -0.005576 0.000000
# 3 -0.005169 -0.006739 0.011299 0.000000 -0.002744 0.000000
# 4 0.000000 0.000000 0.000000 0.025921 0.000000 -0.001998
# 5 0.001489 -0.005576 -0.002744 0.000000 0.040248 0.000000
# 6 0.000000 0.000000 0.000000 -0.001998 0.000000 0.038192
#
#
# Mechanical properties :
#
#
# Convention : Reuss Voigt Hill
#
# Bulk Modulus (GPa) = 24.09317 45.61412 34.85365
# Shear Modulus (GPa) = 24.51884 29.94093 27.22988
#
# Velocity S-wave (km/s) = 3.21598 3.55383 3.38912
# Velocity P-wave (km/s) = 4.89418 6.00671 5.47876
#
# Compressibility (1/GPa) = 0.04150554
#
# Stress axis : x y z
#
# Youngs Moduli (GPa) = 28.55714 57.79987 88.50643
#
# Poissons Ratio (x) = -0.04922 0.45747
# Poissons Ratio (y) = -0.02432 0.59640
# Poissons Ratio (z) = 0.14761 0.38949
#
# Static dielectric constant tensor:
#      x y z
#    x 1.993310 0.000000 -0.045080 
#    y 0.000000 1.942160 0.000000 
#    z -0.045080 0.000000 1.976420 
# 
# From -- ./inp_files/294756.got.cif
#   From: 2010.05.17/outbox.cif.g08.bks.cpg/sg15_148_cif.got.tgz:294756.got - 2010.06.03 18:47:42.
