data_PCOD9271162
_publ_section_title
;
Structure prediction by ZEFSAII (Michael W. Deem and Ramdas Pophale) SiO2 
 PCOD9271162
Probable space group: C 2/C
;
_chemical_formula_sum "Si O2"
_cell_formula_units_Z 52
_cell_length_a 15.276228
_cell_length_b 25.974726
_cell_length_c 9.318882
_cell_angle_alpha 90.000000
_cell_angle_beta 47.205569
_cell_angle_gamma 90.000000
_cell_volume 2713.352392
_symmetry_space_group_name_H-M "C 2/C"
_symmetry_group_IT_number 15
_symmetry_cell_setting 'monoclinic'
loop_
_space_group_symop_operation_xyz
x,y,z
-x,y,1/2-z
-x,-y,-z
x,-y,1/2+z
1/2+x,1/2+y,z
1/2-x,1/2+y,1/2-z
1/2-x,1/2-y,-z
1/2+x,1/2-y,1/2+z
loop_
_atom_site_type_symbol
_atom_site_label
_atom_site_fract_x
_atom_site_fract_y
_atom_site_fract_z
Si Si1 0.210249 0.966021 0.057543
Si Si2 0.928842 0.550078 0.531335
Si Si3 0.303194 0.385111 0.679171
Si Si4 0.414143 0.381746 0.119995
Si Si5 0.733249 0.581317 0.973662
Si Si6 0.245493 0.689007 0.998618
Si Si7 0.500000 0.133823 0.250000
O O1 0.333534 0.963756 0.011265
O O2 0.118425 0.934157 0.257552
O O3 0.218132 0.934623 0.900113
O O4 0.178323 0.024824 0.065592
O O5 0.851746 0.570792 0.749790
O O6 0.008858 0.595471 0.376215
O O7 0.000000 0.500000 0.500000
O O8 0.444870 0.378066 0.543042
O O9 0.261351 0.335800 0.637501
O O10 0.244791 0.393133 0.898057
O O11 0.354613 0.386768 0.030693
O O12 0.347232 0.337008 0.285008
O O13 0.250000 0.750000 0.000000
O O14 0.116895 0.667619 0.093312
#
# Coordination Sequence:
#
# PCOD9271162 Si02
#       7
#     8   8   8   8   8   8   4
#     4  10  20  36  57  91 127 170 217 241 301 388
#     4  11  23  38  62  93 137 178 207 260 315 397
#     4  11  22  40  63  92 126 163 213 268 313 377
#     4  10  22  41  61  90 127 161 215 262 313 379
#     4  11  22  37  58  96 130 166 209 252 325 380
#     4  11  25  44  69  93 116 162 224 270 321 383
#     4  12  22  44  70  92 128 170 220 258 324 396
#
# _framework density 19.164484000000002
#
# number of rings (size 3 to 8) (size 9 to 14) (size 15 to 20)
#    0.000    1.231    4.615    5.077    4.308    3.692 
#    0.000    1.538    0.000    0.000    0.000    0.000 
#    0.000    0.000    0.000    0.000    0.000    0.000 
#
# Total GULP energy -145376.870093 kJ/mol
# GULP energy per Si atom -5591.418081 kJ/mol
# Density = 1.912087 g / cm^3
# Si number density = 19.164484 Si / 1000 Ang^3
#
#
#
# Elastic Constant Matrix: (Units=GPa)
#
#
# Indices 1 2 3 4 5 6 
#
# 1 87.2542 32.4518 50.0400 0.0000 14.3475 0.0000
# 2 32.4518 130.4677 31.7821 0.0000 12.5362 0.0000
# 3 50.0400 31.7821 86.0963 0.0000 18.0659 0.0000
# 4 0.0000 0.0000 0.0000 5.9899 0.0000 -0.4109
# 5 14.3475 12.5362 18.0659 0.0000 47.6449 0.0000
# 6 0.0000 0.0000 0.0000 -0.4109 0.0000 14.4091
#
#
#
# Elastic Compliance Matrix: (Units=1/GPa)
#
#
# Indices 1 2 3 4 5 6 
#
# 1 0.017763 -0.002028 -0.009306 0.000000 -0.001287 0.000000
# 2 -0.002028 0.008710 -0.001829 0.000000 -0.000987 0.000000
# 3 -0.009306 -0.001829 0.018480 0.000000 -0.003724 0.000000
# 4 0.000000 0.000000 0.000000 0.167276 0.000000 0.004771
# 5 -0.001287 -0.000987 -0.003724 0.000000 0.023048 0.000000
# 6 0.000000 0.000000 0.000000 0.004771 0.000000 0.069537
#
#
# Mechanical properties :
#
#
# Convention : Reuss Voigt Hill
#
# Bulk Modulus (GPa) = 53.68408 59.15178 56.41793
# Shear Modulus (GPa) = 14.82148 26.24507 20.53327
#
# Velocity S-wave (km/s) = 2.78399 3.70464 3.27681
# Velocity P-wave (km/s) = 6.19736 7.01651 6.61962
#
# Compressibility (1/GPa) = 0.01862750
#
# Stress axis : x y z
#
# Youngs Moduli (GPa) = 56.29576 114.81551 54.11242
#
# Poissons Ratio (x) = 0.23283 0.50355
# Poissons Ratio (y) = 0.11416 0.09899
# Poissons Ratio (z) = 0.52386 0.21004
#
# Static dielectric constant tensor:
#      x y z
#    x 1.709030 0.000000 -0.012800 
#    y 0.000000 1.640960 0.000000 
#    z -0.012800 0.000000 1.689640 
# 
# From -- ./inp_files/43384.got.cif
#   From: 2010.05.17/outbox.cif.g08.bks.cpg/sg15_22_cif.got.tgz:43384.got - 2010.06.03 18:47:42.
