data_PCOD9271288
_publ_section_title
;
Structure prediction by ZEFSAII (Michael W. Deem and Ramdas Pophale) SiO2 
 PCOD9271288
Probable space group: C 2/C
;
_chemical_formula_sum "Si O2"
_cell_formula_units_Z 64
_cell_length_a 26.311924
_cell_length_b 19.524028
_cell_length_c 20.213657
_cell_angle_alpha 90.000000
_cell_angle_beta 18.643718
_cell_angle_gamma 90.000000
_cell_volume 3319.599016
_symmetry_space_group_name_H-M "C 2/C"
_symmetry_group_IT_number 15
_symmetry_cell_setting 'monoclinic'
loop_
_space_group_symop_operation_xyz
x,y,z
-x,y,1/2-z
-x,-y,-z
x,-y,1/2+z
1/2+x,1/2+y,z
1/2-x,1/2+y,1/2-z
1/2-x,1/2-y,-z
1/2+x,1/2-y,1/2+z
loop_
_atom_site_type_symbol
_atom_site_label
_atom_site_fract_x
_atom_site_fract_y
_atom_site_fract_z
Si Si1 0.204382 0.849632 0.756930
Si Si2 0.679560 0.319430 0.055489
Si Si3 0.682960 0.916985 0.508342
Si Si4 0.830412 0.843782 0.207914
Si Si5 0.817772 0.818928 0.950185
Si Si6 0.295238 0.808050 0.268678
Si Si7 0.184425 0.421076 0.009655
Si Si8 0.841891 0.313946 0.720817
O O1 0.250511 0.772431 0.676392
O O2 0.269913 0.899972 0.620913
O O3 0.270626 0.857269 0.748731
O O4 0.015030 0.853550 0.995080
O O5 0.500000 0.311103 0.250000
O O6 0.750000 0.250000 0.000000
O O7 0.700419 0.375794 0.086585
O O8 0.787611 0.338233 0.859133
O O9 0.500000 0.897952 0.750000
O O10 0.726465 0.894137 0.380397
O O11 0.701464 0.997703 0.496102
O O12 0.811282 0.848192 0.152591
O O13 0.784618 0.765291 0.283493
O O14 0.791724 0.878693 0.928967
O O15 0.000000 0.811094 0.750000
O O16 0.750000 0.750000 0.000000
O O17 0.718286 0.832646 0.139841
O O18 0.470884 0.812448 0.022144
O O19 0.000000 0.402432 0.250000
#
# Coordination Sequence:
#
# PCOD9271288 Si02
#       8
#     8   8   8   8   8   8   8   8
#     4  10  20  36  58  87 118 156 199 247 304 358
#     4  12  24  39  64  94 124 162 205 258 308 359
#     4  11  24  42  63  88 125 167 206 250 308 370
#     4  10  20  36  58  87 118 156 199 247 304 358
#     4  12  24  39  64  94 124 162 205 258 308 359
#     4  10  21  34  60  89 121 151 197 255 300 358
#     4  11  24  42  63  88 125 167 206 250 308 370
#     4  10  21  34  60  89 121 151 197 255 300 358
#
# _framework density 19.279436
#
# number of rings (size 3 to 8) (size 9 to 14) (size 15 to 20)
#    0.000    1.250    2.500    3.750    7.000    1.000 
#    0.000    1.250    0.000    4.500    0.000    0.000 
#    0.000    0.000    0.000    0.000    0.000    0.000 
#
# Total GULP energy -178827.058778 kJ/mol
# GULP energy per Si atom -5588.345587 kJ/mol
# Density = 1.923556 g / cm^3
# Si number density = 19.279436 Si / 1000 Ang^3
#
#
#
# Elastic Constant Matrix: (Units=GPa)
#
#
# Indices 1 2 3 4 5 6 
#
# 1 81.3061 22.7903 13.3516 -0.0155 -5.4439 0.0014
# 2 22.7903 57.7375 20.7185 -0.0107 -10.9308 0.0062
# 3 13.3516 20.7185 68.0012 -0.0192 -1.7706 0.0007
# 4 -0.0155 -0.0107 -0.0192 6.6057 0.0035 6.5960
# 5 -5.4439 -10.9308 -1.7706 0.0035 44.4516 -0.0005
# 6 0.0014 0.0062 0.0007 6.5960 -0.0005 24.3071
#
#
#
# Elastic Compliance Matrix: (Units=1/GPa)
#
#
# Indices 1 2 3 4 5 6 
#
# 1 0.013922 -0.004981 -0.001205 0.000028 0.000432 -0.000007
# 2 -0.004981 0.022193 -0.005663 0.000014 0.004622 -0.000009
# 3 -0.001205 -0.005663 0.016645 0.000049 -0.000877 -0.000012
# 4 0.000028 0.000014 0.000049 0.207651 -0.000008 -0.056348
# 5 0.000432 0.004622 -0.000877 -0.000008 0.023651 0.000002
# 6 -0.000007 -0.000009 -0.000012 -0.056348 0.000002 0.056431
#
#
# Mechanical properties :
#
#
# Convention : Reuss Voigt Hill
#
# Bulk Modulus (GPa) = 34.40963 35.64064 35.02513
# Shear Modulus (GPa) = 13.37329 25.08515 19.22922
#
# Velocity S-wave (km/s) = 2.63659 3.61104 3.16158
# Velocity P-wave (km/s) = 5.21109 5.99271 5.61551
#
# Compressibility (1/GPa) = 0.02906163
#
# Stress axis : x y z
#
# Youngs Moduli (GPa) = 71.82754 45.05870 60.07870
#
# Poissons Ratio (x) = 0.22445 0.07237
# Poissons Ratio (y) = 0.35780 0.34025
# Poissons Ratio (z) = 0.08652 0.25519
#
# Static dielectric constant tensor:
#      x y z
#    x 1.546400 0.000030 0.162530 
#    y 0.000030 1.652980 -0.000030 
#    z 0.162530 -0.000030 1.522680 
# 
# From -- ./inp_files/220246.got.cif
#   From: 2010.05.17/outbox.cif.g08.bks.cpg/sg15_111_cif.got.tgz:220246.got - 2010.06.03 18:47:42.
