data_PCOD9271019
_publ_section_title
;
Structure prediction by ZEFSAII (Michael W. Deem and Ramdas Pophale) SiO2 
 PCOD9271019
Probable space group: C 2/C
;
_chemical_formula_sum "Si O2"
_cell_formula_units_Z 64
_cell_length_a 26.150631
_cell_length_b 16.234419
_cell_length_c 10.835250
_cell_angle_alpha 90.000000
_cell_angle_beta 37.945824
_cell_angle_gamma 90.000000
_cell_volume 2828.614227
_symmetry_space_group_name_H-M "C 2/C"
_symmetry_group_IT_number 15
_symmetry_cell_setting 'monoclinic'
loop_
_space_group_symop_operation_xyz
x,y,z
-x,y,1/2-z
-x,-y,-z
x,-y,1/2+z
1/2+x,1/2+y,z
1/2-x,1/2+y,1/2-z
1/2-x,1/2-y,-z
1/2+x,1/2-y,1/2+z
loop_
_atom_site_type_symbol
_atom_site_label
_atom_site_fract_x
_atom_site_fract_y
_atom_site_fract_z
Si Si1 0.377784 0.342822 0.514432
Si Si2 0.482474 0.365208 0.544605
Si Si3 0.622370 0.504025 0.633189
Si Si4 0.189216 0.303423 0.529628
Si Si5 0.197434 0.417154 0.942680
Si Si6 0.811881 0.453590 0.822690
Si Si7 0.850760 0.870197 0.132963
Si Si8 0.081195 0.273384 0.146665
O O1 0.444845 0.326943 0.492250
O O2 0.414694 0.415659 0.359972
O O3 0.355588 0.261582 0.475335
O O4 0.292927 0.383658 0.736921
O O5 0.431105 0.448869 0.671554
O O6 0.579459 0.380903 0.393587
O O7 0.454118 0.297263 0.698221
O O8 0.710651 0.537403 0.513389
O O9 0.634883 0.439804 0.496092
O O10 0.250000 0.250000 0.500000
O O11 0.147296 0.368766 0.702621
O O12 0.252492 0.365288 0.340341
O O13 0.170265 0.453616 0.859361
O O14 0.173730 0.476991 0.101012
O O15 0.146668 0.335774 0.073879
O O16 0.870789 0.778888 0.047086
O O17 0.000000 0.318658 0.250000
#
# Coordination Sequence:
#
# PCOD9271019 Si02
#       8
#     8   8   8   8   8   8   8   8
#     4  11  22  36  60  90 123 164 225 257 321 383
#     4  10  22  39  58  92 129 164 214 266 322 400
#     4  10  20  36  56  86 125 164 204 256 316 394
#     4  12  21  39  62  85 120 170 213 267 315 387
#     4  11  21  40  62  91 124 163 210 273 315 389
#     4  11  23  38  63  93 127 162 220 262 330 374
#     4  10  21  38  59  88 128 169 208 263 327 384
#     4   9  19  38  62  85 119 164 208 257 322 385
#
# _framework density 22.625920000000001
#
# number of rings (size 3 to 8) (size 9 to 14) (size 15 to 20)
#    0.000    1.500    5.000    2.625    0.000    3.000 
#    2.250    1.250    0.000    1.500    0.000    0.000 
#    0.000    0.000    0.000    0.000    0.000    0.000 
#
# Total GULP energy -178353.817206 kJ/mol
# GULP energy per Si atom -5573.556788 kJ/mol
# Density = 2.257442 g / cm^3
# Si number density = 22.625920 Si / 1000 Ang^3
#
#
#
# Elastic Constant Matrix: (Units=GPa)
#
#
# Indices 1 2 3 4 5 6 
#
# 1 81.7470 29.6823 12.3665 0.0000 1.7332 0.0000
# 2 29.6823 88.3319 14.2452 0.0000 -13.2557 0.0000
# 3 12.3665 14.2452 37.5901 0.0000 1.8169 0.0000
# 4 0.0000 0.0000 0.0000 19.0227 0.0000 17.7083
# 5 1.7332 -13.2557 1.8169 0.0000 18.2600 0.0000
# 6 0.0000 0.0000 0.0000 17.7083 0.0000 14.0278
#
#
#
# Elastic Compliance Matrix: (Units=1/GPa)
#
#
# Indices 1 2 3 4 5 6 
#
# 1 0.014632 -0.005240 -0.002589 0.000000 -0.004935 0.000000
# 2 -0.005240 0.015720 -0.004833 0.000000 0.012390 0.000000
# 3 -0.002589 -0.004833 0.029586 0.000000 -0.006206 0.000000
# 4 0.000000 0.000000 0.000000 -0.300141 0.000000 0.378889
# 5 -0.004935 0.012390 -0.006206 0.000000 0.064845 0.000000
# 6 0.000000 0.000000 0.000000 0.378889 0.000000 -0.407012
#
#
# Mechanical properties :
#
#
# Convention : Reuss Voigt Hill
#
# Bulk Modulus (GPa) = 28.88943 35.58413 32.23678
# Shear Modulus (GPa) = -9.16575 20.35377 5.59401
#
# Velocity S-wave (km/s) = -2.01489 3.00255 1.57409
# Velocity P-wave (km/s) = 2.71716 5.27083 4.19313
#
# Compressibility (1/GPa) = 0.03461473
#
# Stress axis : x y z
#
# Youngs Moduli (GPa) = 68.34452 63.61186 33.79987
#
# Poissons Ratio (x) = 0.33331 0.08752
# Poissons Ratio (y) = 0.35810 0.16334
# Poissons Ratio (z) = 0.17697 0.30740
#
# Static dielectric constant tensor:
#      x y z
#    x 1.878550 0.000000 0.090060 
#    y 0.000000 1.858490 0.000000 
#    z 0.090060 0.000000 2.028070 
# 
# From -- ./inp_files/123526.got.cif
#   From: 2010.05.17/outbox.cif.g08.bks.cpg/sg15_62_cif.got.tgz:123526.got - 2010.06.03 18:47:42.
