data_PCOD9271024
_publ_section_title
;
Structure prediction by ZEFSAII (Michael W. Deem and Ramdas Pophale) SiO2 
 PCOD9271024
Probable space group: C 2/C
;
_chemical_formula_sum "Si O2"
_cell_formula_units_Z 52
_cell_length_a 25.803958
_cell_length_b 9.097203
_cell_length_c 10.833600
_cell_angle_alpha 90.000000
_cell_angle_beta 123.383379
_cell_angle_gamma 90.000000
_cell_volume 2123.525078
_symmetry_space_group_name_H-M "C 2/C"
_symmetry_group_IT_number 15
_symmetry_cell_setting 'monoclinic'
loop_
_space_group_symop_operation_xyz
x,y,z
-x,y,1/2-z
-x,-y,-z
x,-y,1/2+z
1/2+x,1/2+y,z
1/2-x,1/2+y,1/2-z
1/2-x,1/2-y,-z
1/2+x,1/2-y,1/2+z
loop_
_atom_site_type_symbol
_atom_site_label
_atom_site_fract_x
_atom_site_fract_y
_atom_site_fract_z
Si Si1 0.725365 0.342446 0.265234
Si Si2 0.000000 0.096741 0.250000
Si Si3 0.441155 0.045148 0.086926
Si Si4 0.786019 0.159839 0.151894
Si Si5 0.974518 0.274845 0.976372
Si Si6 0.137923 0.267645 0.840476
Si Si7 0.635816 0.530716 0.439360
O O1 0.780027 0.268035 0.259373
O O2 0.741671 0.498483 0.350492
O O3 0.693813 0.223768 0.315782
O O4 0.671149 0.389341 0.096628
O O5 0.996426 0.188944 0.371598
O O6 0.063126 0.014143 0.360115
O O7 0.500000 0.006553 0.250000
O O8 0.468834 0.170238 0.033913
O O9 0.386899 0.099972 0.106685
O O10 0.434402 0.906620 0.988269
O O11 0.850104 0.119024 0.168782
O O12 0.750000 0.250000 0.000000
O O13 0.922751 0.211040 0.816181
O O14 0.159847 0.132820 0.953071
#
# Coordination Sequence:
#
# PCOD9271024 Si02
#       7
#     8   4   8   8   8   8   8
#     4  10  20  45  69  97 131 169 217 288 333 396
#     4  12  22  36  62  96 132 180 214 252 340 380
#     4   9  19  35  55  81 124 169 213 265 312 376
#     4   9  21  44  69  96 132 170 222 282 333 394
#     4  10  20  36  56  87 133 172 215 261 314 390
#     4  10  21  39  62  92 127 168 222 269 323 394
#     4  10  23  39  64  97 137 169 221 268 328 401
#
# _framework density 24.487584999999999
#
# number of rings (size 3 to 8) (size 9 to 14) (size 15 to 20)
#    0.000    2.154    2.308    0.000    3.231    3.077 
#    2.769    8.462    0.000    0.000    0.000    0.000 
#    0.000    0.000    0.000    0.000    0.000    0.000 
#
# Total GULP energy -145089.286887 kJ/mol
# GULP energy per Si atom -5580.357188 kJ/mol
# Density = 2.443185 g / cm^3
# Si number density = 24.487585 Si / 1000 Ang^3
#
#
#
# Elastic Constant Matrix: (Units=GPa)
#
#
# Indices 1 2 3 4 5 6 
#
# 1 72.3034 35.3812 41.5988 0.0000 -17.3568 0.0000
# 2 35.3812 62.4268 31.0618 0.0000 -18.5838 0.0000
# 3 41.5988 31.0618 121.2073 0.0000 -8.4712 0.0000
# 4 0.0000 0.0000 0.0000 46.2467 0.0000 -9.3263
# 5 -17.3568 -18.5838 -8.4712 0.0000 37.0607 0.0000
# 6 0.0000 0.0000 0.0000 -9.3263 0.0000 13.6641
#
#
#
# Elastic Compliance Matrix: (Units=1/GPa)
#
#
# Indices 1 2 3 4 5 6 
#
# 1 0.022098 -0.008551 -0.005050 0.000000 0.004907 0.000000
# 2 -0.008551 0.024549 -0.002821 0.000000 0.007661 0.000000
# 3 -0.005050 -0.002821 0.010612 0.000000 -0.001354 0.000000
# 4 0.000000 0.000000 0.000000 0.025075 0.000000 0.017114
# 5 0.004907 0.007661 -0.001354 0.000000 0.032813 0.000000
# 6 0.000000 0.000000 0.000000 0.017114 0.000000 0.084866
#
#
# Mechanical properties :
#
#
# Convention : Reuss Voigt Hill
#
# Bulk Modulus (GPa) = 40.95768 52.44679 46.70224
# Shear Modulus (GPa) = 20.74729 29.25400 25.00064
#
# Velocity S-wave (km/s) = 2.91393 3.46012 3.19870
# Velocity P-wave (km/s) = 5.29939 6.11779 5.72324
#
# Compressibility (1/GPa) = 0.02441545
#
# Stress axis : x y z
#
# Youngs Moduli (GPa) = 45.25209 40.73432 94.23457
#
# Poissons Ratio (x) = 0.34832 0.47588
# Poissons Ratio (y) = 0.38695 0.26585
# Poissons Ratio (z) = 0.22852 0.11492
#
# Static dielectric constant tensor:
#      x y z
#    x 1.952040 0.000000 -0.036690 
#    y 0.000000 1.960930 0.000000 
#    z -0.036690 0.000000 1.972200 
# 
# From -- ./inp_files/121591.got.cif
#   From: 2010.05.17/outbox.cif.g08.bks.cpg/sg15_61_cif.got.tgz:121591.got - 2010.06.03 18:47:42.
