data_PCOD9271407
_publ_section_title
;
Structure prediction by ZEFSAII (Michael W. Deem and Ramdas Pophale) SiO2 
 PCOD9271407
Probable space group: C 2/C
;
_chemical_formula_sum "Si O2"
_cell_formula_units_Z 40
_cell_length_a 18.440017
_cell_length_b 14.087680
_cell_length_c 14.268290
_cell_angle_alpha 90.000000
_cell_angle_beta 33.787223
_cell_angle_gamma 90.000000
_cell_volume 2061.264175
_symmetry_space_group_name_H-M "C 2/C"
_symmetry_group_IT_number 15
_symmetry_cell_setting 'monoclinic'
loop_
_space_group_symop_operation_xyz
x,y,z
-x,y,1/2-z
-x,-y,-z
x,-y,1/2+z
1/2+x,1/2+y,z
1/2-x,1/2+y,1/2-z
1/2-x,1/2-y,-z
1/2+x,1/2-y,1/2+z
loop_
_atom_site_type_symbol
_atom_site_label
_atom_site_fract_x
_atom_site_fract_y
_atom_site_fract_z
Si Si1 0.532234 0.391245 0.946455
Si Si2 0.844492 0.604982 0.431958
Si Si3 0.729030 0.108945 0.454289
Si Si4 0.115911 0.196354 0.052283
Si Si5 0.876777 0.190454 0.954874
O O1 0.651651 0.382307 0.745935
O O2 0.412715 0.345209 0.018402
O O3 0.500000 0.500000 0.000000
O O4 0.570437 0.342721 0.002358
O O5 0.810311 0.500540 0.504701
O O6 0.827334 0.700550 0.511947
O O7 0.744579 0.627752 0.453358
O O8 0.000000 0.602851 0.250000
O O9 0.766010 0.144311 0.520108
O O10 0.629579 0.190511 0.529838
O O11 0.000000 0.176559 0.250000
O O12 0.000000 0.183651 0.750000
#
# Coordination Sequence:
#
# PCOD9271407 Si02
#       5
#     8   8   8   8   8
#     4  11  22  36  59  85 112 151 196 238 283 340
#     4  10  21  38  60  84 116 153 189 238 292 337
#     4  10  20  36  59  85 116 150 186 235 292 343
#     4   9  20  38  58  83 114 149 191 236 282 342
#     4  10  22  40  60  83 115 154 197 238 281 341
#
# _framework density 19.405567000000001
#
# number of rings (size 3 to 8) (size 9 to 14) (size 15 to 20)
#    0.000    2.000    0.000    3.000    0.000    8.000 
#    0.000    6.000    0.000    0.000    0.000    0.000 
#    0.000    0.000    0.000    0.000    0.000    0.000 
#
# Total GULP energy -111440.987152 kJ/mol
# GULP energy per Si atom -5572.049358 kJ/mol
# Density = 1.936140 g / cm^3
# Si number density = 19.405567 Si / 1000 Ang^3
#
#
#
# Elastic Constant Matrix: (Units=GPa)
#
#
# Indices 1 2 3 4 5 6 
#
# 1 165.2904 81.5508 30.5647 0.0008 19.2816 -0.0009
# 2 81.5508 138.1725 1.7344 0.0004 17.3811 -0.0004
# 3 30.5647 1.7344 33.7371 0.0008 5.4982 -0.0009
# 4 0.0008 0.0004 0.0008-1445.5805 -0.0008 1640.5245
# 5 19.2816 17.3811 5.4982 -0.0008 24.3250 0.0009
# 6 -0.0009 -0.0004 -0.0009 1640.5245 0.0009-1813.4386
#
#
#
# Elastic Compliance Matrix: (Units=1/GPa)
#
#
# Indices 1 2 3 4 5 6 
#
# 1 0.011066 -0.006127 -0.009338 0.000000 -0.002283 0.000000
# 2 -0.006127 0.011354 0.005708 0.000000 -0.004546 0.000000
# 3 -0.009338 0.005708 0.038691 0.000000 -0.005422 0.000000
# 4 0.000000 0.000000 0.000000 0.025962 0.000000 0.023487
# 5 -0.002283 -0.004546 -0.005422 0.000000 0.047394 0.000000
# 6 0.000000 0.000000 0.000000 0.023487 0.000000 0.020696
#
#
# Mechanical properties :
#
#
# Convention : Reuss Voigt Hill
#
# Bulk Modulus (GPa) = 24.04048 62.76663 43.40355
# Shear Modulus (GPa) = 26.51921 -632.04883 -302.76481
#
# Velocity S-wave (km/s) = 3.70074 -18.06688 -12.50433
# Velocity P-wave (km/s) = 5.53859 20.06991 13.64048
#
# Compressibility (1/GPa) = 0.04159651
#
# Stress axis : x y z
#
# Youngs Moduli (GPa) = 90.36757 88.07718 25.84559
#
# Poissons Ratio (x) = 0.53963 0.24135
# Poissons Ratio (y) = 0.55367 -0.14752
# Poissons Ratio (z) = 0.84388 -0.50274
#
# Static dielectric constant tensor:
#      x y z
#    x 1.698290 0.000000 -0.049180 
#    y 0.000000 1.674560 0.000000 
#    z -0.049180 0.000000 1.682490 
# 
# From -- ./inp_files/160680.got.cif
#   From: 2010.05.17/outbox.cif.g08.bks.cpg/sg15_81_cif.got.tgz:160680.got - 2010.06.03 18:47:42.
