data_PCOD9271175
_publ_section_title
;
Structure prediction by ZEFSAII (Michael W. Deem and Ramdas Pophale) SiO2 
 PCOD9271175
Probable space group: C 2/C
;
_chemical_formula_sum "Si O2"
_cell_formula_units_Z 52
_cell_length_a 20.281571
_cell_length_b 16.444225
_cell_length_c 8.011660
_cell_angle_alpha 90.000000
_cell_angle_beta 51.116845
_cell_angle_gamma 90.000000
_cell_volume 2079.963985
_symmetry_space_group_name_H-M "C 2/C"
_symmetry_group_IT_number 15
_symmetry_cell_setting 'monoclinic'
loop_
_space_group_symop_operation_xyz
x,y,z
-x,y,1/2-z
-x,-y,-z
x,-y,1/2+z
1/2+x,1/2+y,z
1/2-x,1/2+y,1/2-z
1/2-x,1/2-y,-z
1/2+x,1/2-y,1/2+z
loop_
_atom_site_type_symbol
_atom_site_label
_atom_site_fract_x
_atom_site_fract_y
_atom_site_fract_z
Si Si1 0.354853 0.901453 0.934467
Si Si2 0.376642 0.250766 0.874680
Si Si3 0.474759 0.812643 0.531138
Si Si4 0.243748 0.382278 0.059706
Si Si5 0.434099 0.545057 0.482664
Si Si6 0.308072 0.446751 0.444769
Si Si7 0.000000 0.536093 0.750000
O O1 0.419863 0.830068 0.780506
O O2 0.416865 0.980182 0.855477
O O3 0.306066 0.893047 0.187172
O O4 0.280653 0.898334 0.909427
O O5 0.437290 0.235431 0.619192
O O6 0.308895 0.178256 0.969937
O O7 0.422507 0.234629 0.974214
O O8 0.332009 0.336568 0.943235
O O9 0.491792 0.902494 0.420762
O O10 0.265261 0.468745 0.949363
O O11 0.500000 0.500000 0.500000
O O12 0.371925 0.480068 0.486244
O O13 0.370539 0.590991 0.708143
O O14 0.500000 0.586631 0.250000
#
# Coordination Sequence:
#
# PCOD9271175 Si02
#       7
#     8   8   8   8   8   8   4
#     4  12  22  34  65 101 126 158 201 269 319 375
#     4   9  22  42  58  78 116 178 206 248 299 363
#     4  10  21  40  60  86 127 159 208 252 303 384
#     4  11  22  38  61  86 122 165 209 250 306 376
#     4   9  20  38  56  82 123 160 199 248 317 373
#     4  11  20  37  61  97 121 159 201 263 324 375
#     4  10  20  36  58 100 132 164 190 250 342 376
#
# _framework density 25.000433000000001
#
# number of rings (size 3 to 8) (size 9 to 14) (size 15 to 20)
#    0.000    1.846    1.538    4.154    2.154    0.615 
#    8.308    0.000    6.769    0.000    0.000    0.000 
#    0.000    0.000    0.000    0.000    0.000    0.000 
#
# Total GULP energy -145148.268759 kJ/mol
# GULP energy per Si atom -5582.625722 kJ/mol
# Density = 2.494353 g / cm^3
# Si number density = 25.000433 Si / 1000 Ang^3
#
#
#
# Elastic Constant Matrix: (Units=GPa)
#
#
# Indices 1 2 3 4 5 6 
#
# 1 123.8446 -2.2057 11.9967 0.0000 -35.6863 0.0000
# 2 -2.2057 51.3304 42.7608 0.0000 -8.1772 0.0000
# 3 11.9967 42.7608 172.4047 0.0000 -21.7753 0.0000
# 4 0.0000 0.0000 0.0000 28.8941 0.0000 -13.3296
# 5 -35.6863 -8.1772 -21.7753 0.0000 41.1362 0.0000
# 6 0.0000 0.0000 0.0000 -13.3296 0.0000 31.5264
#
#
#
# Elastic Compliance Matrix: (Units=1/GPa)
#
#
# Indices 1 2 3 4 5 6 
#
# 1 0.010971 0.002072 -0.000025 0.000000 0.009917 0.000000
# 2 0.002072 0.025068 -0.005900 0.000000 0.003658 0.000000
# 3 -0.000025 -0.005900 0.007624 0.000000 0.002842 0.000000
# 4 0.000000 0.000000 0.000000 0.042996 0.000000 0.018179
# 5 0.009917 0.003658 0.002842 0.000000 0.035144 0.000000
# 6 0.000000 0.000000 0.000000 0.018179 0.000000 0.039406
#
#
# Mechanical properties :
#
#
# Convention : Reuss Voigt Hill
#
# Bulk Modulus (GPa) = 27.80989 50.29815 39.05402
# Shear Modulus (GPa) = 27.63955 39.97986 33.80971
#
# Velocity S-wave (km/s) = 3.32861 4.00330 3.68144
# Velocity P-wave (km/s) = 5.09124 6.44446 5.80740
#
# Compressibility (1/GPa) = 0.03595843
#
# Stress axis : x y z
#
# Youngs Moduli (GPa) = 91.14559 39.89135 131.16098
#
# Poissons Ratio (x) = -0.08265 0.00326
# Poissons Ratio (y) = -0.18884 0.77382
# Poissons Ratio (z) = 0.00226 0.23535
#
# Static dielectric constant tensor:
#      x y z
#    x 2.097820 0.000000 -0.015260 
#    y 0.000000 1.938610 0.000000 
#    z -0.015260 0.000000 1.998110 
# 
# From -- ./inp_files/56925.got.cif
#   From: 2010.05.17/outbox.cif.g08.bks.cpg/sg15_29_cif.got.tgz:56925.got - 2010.06.03 18:47:42.
