data_PCOD9271894
_publ_section_title
;
Structure prediction by ZEFSAII (Michael W. Deem and Ramdas Pophale) SiO2 
 PCOD9271894
Probable space group: C 2/C
;
_chemical_formula_sum "Si O2"
_cell_formula_units_Z 60
_cell_length_a 25.152675
_cell_length_b 6.166342
_cell_length_c 21.245114
_cell_angle_alpha 90.000000
_cell_angle_beta 120.595119
_cell_angle_gamma 90.000000
_cell_volume 2836.388656
_symmetry_space_group_name_H-M "C 2/C"
_symmetry_group_IT_number 15
_symmetry_cell_setting 'monoclinic'
loop_
_space_group_symop_operation_xyz
x,y,z
-x,y,1/2-z
-x,-y,-z
x,-y,1/2+z
1/2+x,1/2+y,z
1/2-x,1/2+y,1/2-z
1/2-x,1/2-y,-z
1/2+x,1/2-y,1/2+z
loop_
_atom_site_type_symbol
_atom_site_label
_atom_site_fract_x
_atom_site_fract_y
_atom_site_fract_z
Si Si1 0.965102 0.136178 0.030798
Si Si2 0.500000 0.570626 0.250000
Si Si3 0.840256 0.265322 0.295456
Si Si4 0.534446 0.083764 0.664364
Si Si5 0.305019 0.205308 0.984471
Si Si6 0.564689 0.714138 0.879274
Si Si7 0.260085 0.939775 0.838567
Si Si8 0.654671 0.555304 0.593991
O O1 0.948229 0.964368 0.074939
O O2 0.004400 0.330211 0.081730
O O3 0.900356 0.208366 0.962694
O O4 0.000000 0.000000 0.000000
O O5 0.476451 0.728372 0.290777
O O6 0.443871 0.421751 0.190202
O O7 0.892320 0.428891 0.301524
O O8 0.809937 0.117716 0.222623
O O9 0.789561 0.394910 0.305937
O O10 0.868455 0.100611 0.364221
O O11 0.492708 0.879739 0.656676
O O12 0.320042 0.408908 0.947876
O O13 0.279123 0.025921 0.919393
O O14 0.250000 0.250000 0.000000
O O15 0.369770 0.173978 0.062568
O O16 0.292285 0.708396 0.850020
#
# Coordination Sequence:
#
# PCOD9271894 Si02
#       8
#     8   4   8   8   8   8   8   8
#     4  10  20  36  62  89 126 158 196 259 318 374
#     4  10  24  44  62  90 132 166 214 274 308 376
#     4  11  23  38  63  93 127 165 211 262 324 375
#     4  11  23  40  64  93 121 171 210 259 325 378
#     4  10  24  44  67  93 128 173 216 265 319 379
#     4  10  23  43  62  97 127 162 220 261 309 386
#     4  11  23  41  62  95 130 167 216 269 312 392
#     4  10  21  42  60  92 127 159 208 261 315 381
#
# _framework density 21.153659000000001
#
# number of rings (size 3 to 8) (size 9 to 14) (size 15 to 20)
#    0.000    1.600    2.667    1.200    3.733    1.067 
#    4.800    0.000    0.000    0.000    0.000    0.000 
#    0.000    0.000    0.000    0.000    0.000    0.000 
#
# Total GULP energy -167300.971896 kJ/mol
# GULP energy per Si atom -5576.699063 kJ/mol
# Density = 2.110551 g / cm^3
# Si number density = 21.153659 Si / 1000 Ang^3
#
#
#
# Elastic Constant Matrix: (Units=GPa)
#
#
# Indices 1 2 3 4 5 6 
#
# 1 63.4231 -10.7201 30.8227 0.0004 18.9505 -0.0004
# 2 -10.7201 28.9508 12.1847 -0.0006 8.9070 0.0008
# 3 30.8227 12.1847 111.4796 0.0003 17.4579 -0.0002
# 4 0.0004 -0.0006 0.0003 28.6420 0.0000 6.0974
# 5 18.9505 8.9070 17.4579 0.0000 26.3518 -0.0002
# 6 -0.0004 0.0008 -0.0002 6.0974 -0.0002 17.9887
#
#
#
# Elastic Compliance Matrix: (Units=1/GPa)
#
#
# Indices 1 2 3 4 5 6 
#
# 1 0.029956 0.021430 -0.006825 0.000000 -0.024265 -0.000001
# 2 0.021430 0.054477 -0.007345 0.000002 -0.028959 -0.000003
# 3 -0.006825 -0.007345 0.011718 0.000000 -0.000373 0.000000
# 4 0.000000 0.000002 0.000000 0.037629 -0.000001 -0.012755
# 5 -0.024265 -0.028959 -0.000373 -0.000001 0.065433 0.000002
# 6 -0.000001 -0.000003 0.000000 -0.012755 0.000002 0.059914
#
#
# Mechanical properties :
#
#
# Convention : Reuss Voigt Hill
#
# Bulk Modulus (GPa) = 9.03559 29.82536 19.43048
# Shear Modulus (GPa) = 17.76216 26.03425 21.89820
#
# Velocity S-wave (km/s) = 2.90085 3.51197 3.22094
# Velocity P-wave (km/s) = 3.93708 5.52949 4.79978
#
# Compressibility (1/GPa) = 0.11067342
#
# Stress axis : x y z
#
# Youngs Moduli (GPa) = 33.38187 18.35628 85.33576
#
# Poissons Ratio (x) = -0.39338 0.58242
# Poissons Ratio (y) = -0.71538 0.62675
# Poissons Ratio (z) = 0.22783 0.13482
#
# Static dielectric constant tensor:
#      x y z
#    x 1.821950 0.000000 0.065030 
#    y 0.000000 1.771110 0.000000 
#    z 0.065030 0.000000 1.848610 
# 
# From -- ./inp_files/256775.got.cif
#   From: 2010.05.17/outbox.cif.g08.bks.cpg/sg15_129_cif.got.tgz:256775.got - 2010.06.03 18:47:42.
