data_PCOD9271002
_publ_section_title
;
Structure prediction by ZEFSAII (Michael W. Deem and Ramdas Pophale) SiO2 
 PCOD9271002
Probable space group: C 2/C
;
_chemical_formula_sum "Si O2"
_cell_formula_units_Z 52
_cell_length_a 23.854484
_cell_length_b 8.806176
_cell_length_c 10.093347
_cell_angle_alpha 90.000000
_cell_angle_beta 107.156557
_cell_angle_gamma 90.000000
_cell_volume 2025.929502
_symmetry_space_group_name_H-M "C 2/C"
_symmetry_group_IT_number 15
_symmetry_cell_setting 'monoclinic'
loop_
_space_group_symop_operation_xyz
x,y,z
-x,y,1/2-z
-x,-y,-z
x,-y,1/2+z
1/2+x,1/2+y,z
1/2-x,1/2+y,1/2-z
1/2-x,1/2-y,-z
1/2+x,1/2-y,1/2+z
loop_
_atom_site_type_symbol
_atom_site_label
_atom_site_fract_x
_atom_site_fract_y
_atom_site_fract_z
Si Si1 0.433322 0.680092 0.227546
Si Si2 0.000000 0.624147 0.250000
Si Si3 0.760806 0.685315 0.684733
Si Si4 0.402571 0.657894 0.676605
Si Si5 0.562044 0.067261 0.598009
Si Si6 0.722237 0.502629 0.911331
Si Si7 0.130834 0.693564 0.071107
O O1 0.500000 0.723035 0.250000
O O2 0.430432 0.502104 0.229579
O O3 0.418879 0.764707 0.353137
O O4 0.397522 0.734056 0.076347
O O5 0.045489 0.740653 0.357859
O O6 0.050341 0.509098 0.233590
O O7 0.757609 0.602529 0.825831
O O8 0.697374 0.762043 0.625558
O O9 0.797383 0.840654 0.674749
O O10 0.740832 0.055266 0.933129
O O11 0.335606 0.604769 0.587338
O O12 0.396217 0.737736 0.814506
O O13 0.500000 0.000000 0.500000
O O14 0.614437 0.982077 0.562714
#
# Coordination Sequence:
#
# PCOD9271002 Si02
#       7
#     8   4   8   8   8   8   8
#     4  12  21  36  59  86 124 162 209 253 307 373
#     4  10  20  36  56  84 122 162 200 252 296 372
#     4  10  22  43  69  93 131 162 215 268 322 385
#     4  10  22  37  62  90 123 164 212 253 313 377
#     4  11  21  36  55  85 124 165 207 254 306 373
#     4  10  22  43  68  96 129 166 211 271 321 382
#     4  10  22  40  58  89 125 164 207 260 317 378
#
# _framework density 25.66723
#
# number of rings (size 3 to 8) (size 9 to 14) (size 15 to 20)
#    0.000    1.538    4.615    0.000    0.000    3.692 
#    0.000    0.000    3.385    0.000    0.000    0.000 
#    0.000    0.000    0.000    0.000    0.000    0.000 
#
# Total GULP energy -144742.115516 kJ/mol
# GULP energy per Si atom -5567.004443 kJ/mol
# Density = 2.560881 g / cm^3
# Si number density = 25.667230 Si / 1000 Ang^3
#
#
#
# Elastic Constant Matrix: (Units=GPa)
#
#
# Indices 1 2 3 4 5 6 
#
# 1 58.3698 -62.4229 -15.6983 0.0000 18.6110 0.0000
# 2 -62.4229 -95.7549 -72.0584 0.0000 32.0014 0.0000
# 3 -15.6983 -72.0584 24.9189 0.0000 14.1663 0.0000
# 4 0.0000 0.0000 0.0000 20.2869 0.0000 1.5040
# 5 18.6110 32.0014 14.1663 0.0000 26.3779 0.0000
# 6 0.0000 0.0000 0.0000 1.5040 0.0000 41.9390
#
#
#
# Elastic Compliance Matrix: (Units=1/GPa)
#
#
# Indices 1 2 3 4 5 6 
#
# 1 0.011544 -0.004221 -0.004629 0.000000 -0.000537 0.000000
# 2 -0.004221 -0.000138 -0.006976 0.000000 0.006892 0.000000
# 3 -0.004629 -0.006976 0.014930 0.000000 0.003712 0.000000
# 4 0.000000 0.000000 0.000000 0.049424 0.000000 -0.001772
# 5 -0.000537 0.006892 0.003712 0.000000 0.027934 0.000000
# 6 0.000000 0.000000 0.000000 -0.001772 0.000000 0.023908
#
#
# Mechanical properties :
#
#
# Convention : Reuss Voigt Hill
#
# Bulk Modulus (GPa) = -188.01170 -34.75837 -111.38503
# Shear Modulus (GPa) = 31.74945 26.90166 29.32556
#
# Velocity S-wave (km/s) = 3.52087 3.24094 3.38380
# Velocity P-wave (km/s) = 7.54189 0.65848 5.31255
#
# Compressibility (1/GPa) = -0.00531882
#
# Stress axis : x y z
#
# Youngs Moduli (GPa) = 86.62587 -7251.63393 66.98136
#
# Poissons Ratio (x) = -30.61208 0.31008
# Poissons Ratio (y) = 0.36568 0.46729
# Poissons Ratio (z) = 0.40101 -50.59097
#
# Static dielectric constant tensor:
#      x y z
#    x 5.999880 0.000000 -5.221500 
#    y 0.000000 2.254030 0.000000 
#    z -5.221500 0.000000 9.029440 
# 
# From -- ./inp_files/125655.got.cif
#   From: 2010.05.17/outbox.cif.g08.bks.cpg/sg15_63_cif.got.tgz:125655.got - 2010.06.03 18:47:42.
