data_PCOD9271899
_publ_section_title
;
Structure prediction by ZEFSAII (Michael W. Deem and Ramdas Pophale) SiO2 
 PCOD9271899
Probable space group: C 2/C
;
_chemical_formula_sum "Si O2"
_cell_formula_units_Z 52
_cell_length_a 15.284957
_cell_length_b 14.569037
_cell_length_c 17.204749
_cell_angle_alpha 90.000000
_cell_angle_beta 43.611156
_cell_angle_gamma 90.000000
_cell_volume 2642.662792
_symmetry_space_group_name_H-M "C 2/C"
_symmetry_group_IT_number 15
_symmetry_cell_setting 'monoclinic'
loop_
_space_group_symop_operation_xyz
x,y,z
-x,y,1/2-z
-x,-y,-z
x,-y,1/2+z
1/2+x,1/2+y,z
1/2-x,1/2+y,1/2-z
1/2-x,1/2-y,-z
1/2+x,1/2-y,1/2+z
loop_
_atom_site_type_symbol
_atom_site_label
_atom_site_fract_x
_atom_site_fract_y
_atom_site_fract_z
Si Si1 0.312284 0.530455 0.645294
Si Si2 0.980611 0.266977 0.670677
Si Si3 0.205514 0.698210 0.788288
Si Si4 0.000000 0.976198 0.750000
Si Si5 0.572609 0.588069 0.549853
Si Si6 0.788877 0.118869 0.295923
Si Si7 0.491620 0.106558 0.026999
O O1 0.224188 0.619011 0.711359
O O2 0.451906 0.574184 0.570420
O O3 0.316688 0.466476 0.566249
O O4 0.282821 0.463070 0.736417
O O5 0.079749 0.194607 0.568053
O O6 0.991357 0.362745 0.617534
O O7 0.000000 0.274072 0.750000
O O8 0.841165 0.223615 0.741079
O O9 0.157969 0.792004 0.781113
O O10 0.107184 0.658364 0.912641
O O11 0.880566 0.915122 0.803652
O O12 0.962228 0.037793 0.847669
O O13 0.646097 0.139775 0.414099
O O14 0.500000 0.000000 0.000000
#
# Coordination Sequence:
#
# PCOD9271899 Si02
#       7
#     8   8   8   4   8   8   8
#     4   9  17  33  56  84 114 158 201 242 304 363
#     4  10  21  37  62  97 122 152 207 262 310 363
#     4  10  21  38  61  86 122 165 209 245 306 382
#     4  10  20  36  62  90 120 154 208 262 304 340
#     4   9  17  32  59  89 118 147 196 263 300 348
#     4  10  21  38  60  86 119 160 208 253 301 369
#     4  11  22  39  63  87 125 169 198 246 315 378
#
# _framework density 19.677123000000002
#
# number of rings (size 3 to 8) (size 9 to 14) (size 15 to 20)
#    0.000    2.154    2.308    0.923    0.000    4.308 
#    0.000    6.154    1.692    0.000    0.000    0.000 
#    0.000    0.000    0.000    0.000    0.000    0.000 
#
# Total GULP energy -144978.543469 kJ/mol
# GULP energy per Si atom -5576.097826 kJ/mol
# Density = 1.963234 g / cm^3
# Si number density = 19.677123 Si / 1000 Ang^3
#
#
#
# Elastic Constant Matrix: (Units=GPa)
#
#
# Indices 1 2 3 4 5 6 
#
# 1 59.9449 30.3425 20.6511 0.0000 16.9526 0.0000
# 2 30.3425 117.7905 19.8789 0.0000 11.8743 0.0000
# 3 20.6511 19.8789 74.5611 0.0000 5.8071 0.0000
# 4 0.0000 0.0000 0.0000 14.2739 0.0000 -6.3185
# 5 16.9526 11.8743 5.8071 0.0000 15.8504 0.0000
# 6 0.0000 0.0000 0.0000 -6.3185 0.0000 12.2397
#
#
#
# Elastic Compliance Matrix: (Units=1/GPa)
#
#
# Indices 1 2 3 4 5 6 
#
# 1 0.027078 -0.003731 -0.004598 0.000000 -0.024481 0.000000
# 2 -0.003731 0.009987 -0.001397 0.000000 -0.002979 0.000000
# 3 -0.004598 -0.001397 0.015022 0.000000 0.000461 0.000000
# 4 0.000000 0.000000 0.000000 0.090810 0.000000 0.046879
# 5 -0.024481 -0.002979 0.000461 0.000000 0.091336 0.000000
# 6 0.000000 0.000000 0.000000 0.046879 0.000000 0.105902
#
#
# Mechanical properties :
#
#
# Convention : Reuss Voigt Hill
#
# Bulk Modulus (GPa) = 30.64337 43.78238 37.21288
# Shear Modulus (GPa) = 13.49648 20.56771 17.03210
#
# Velocity S-wave (km/s) = 2.62181 3.23656 2.94526
# Velocity P-wave (km/s) = 4.97715 6.02211 5.52439
#
# Compressibility (1/GPa) = 0.03263349
#
# Stress axis : x y z
#
# Youngs Moduli (GPa) = 36.93023 100.13093 66.56902
#
# Poissons Ratio (x) = 0.37362 0.30610
# Poissons Ratio (y) = 0.13780 0.09301
# Poissons Ratio (z) = 0.16982 0.13990
#
# Static dielectric constant tensor:
#      x y z
#    x 1.677200 0.000000 -0.022250 
#    y 0.000000 1.737300 0.000000 
#    z -0.022250 0.000000 1.734090 
# 
# From -- ./inp_files/96966.got.cif
#   From: 2010.05.17/outbox.cif.g08.bks.cpg/sg15_49_cif.got.tgz:96966.got - 2010.06.03 18:47:42.
