data_PCOD9271154
_publ_section_title
;
Structure prediction by ZEFSAII (Michael W. Deem and Ramdas Pophale) SiO2 
 PCOD9271154
Probable space group: C 2/C
;
_chemical_formula_sum "Si O2"
_cell_formula_units_Z 60
_cell_length_a 16.634267
_cell_length_b 9.488928
_cell_length_c 14.599784
_cell_angle_alpha 90.000000
_cell_angle_beta 74.548425
_cell_angle_gamma 90.000000
_cell_volume 2221.157693
_symmetry_space_group_name_H-M "C 2/C"
_symmetry_group_IT_number 15
_symmetry_cell_setting 'monoclinic'
loop_
_space_group_symop_operation_xyz
x,y,z
-x,y,1/2-z
-x,-y,-z
x,-y,1/2+z
1/2+x,1/2+y,z
1/2-x,1/2+y,1/2-z
1/2-x,1/2-y,-z
1/2+x,1/2-y,1/2+z
loop_
_atom_site_type_symbol
_atom_site_label
_atom_site_fract_x
_atom_site_fract_y
_atom_site_fract_z
Si Si1 0.787537 0.221872 0.693910
Si Si2 0.342901 0.496121 0.033898
Si Si3 0.944275 0.760413 0.452717
Si Si4 0.832976 0.509190 0.499711
Si Si5 0.000000 0.068855 0.250000
Si Si6 0.326601 0.446753 0.737539
Si Si7 0.584418 0.078595 0.330643
Si Si8 0.473987 0.827258 0.379622
O O1 0.707078 0.314224 0.697401
O O2 0.843934 0.328388 0.736542
O O3 0.837449 0.154792 0.590799
O O4 0.767487 0.082941 0.757643
O O5 0.420788 0.574351 0.961504
O O6 0.264061 0.492496 0.991188
O O7 0.331202 0.593673 0.128581
O O8 0.859854 0.669869 0.474551
O O9 0.989826 0.712897 0.532067
O O10 0.007147 0.688302 0.361850
O O11 0.869842 0.458304 0.585997
O O12 0.888781 0.413996 0.414099
O O13 0.917815 0.996919 0.236724
O O14 0.034104 0.179249 0.165532
O O15 0.544897 0.930174 0.315511
#
# Coordination Sequence:
#
# PCOD9271154 Si02
#       8
#     8   8   8   8   4   8   8   8
#     4  10  23  41  59  89 125 163 202 257 304 363
#     4  10  20  36  57  89 119 161 200 251 306 361
#     4   9  17  36  57  89 121 156 192 257 308 358
#     4   9  18  33  57  89 122 153 204 245 305 369
#     4  12  20  40  64  86 114 168 208 256 304 358
#     4  10  25  40  62  86 127 159 211 254 305 358
#     4   9  20  36  59  88 125 155 204 250 308 366
#     4   9  18  32  60  88 114 159 206 249 294 376
#
# _framework density 27.01294
#
# number of rings (size 3 to 8) (size 9 to 14) (size 15 to 20)
#    0.800    1.600    1.333    2.800    1.867    1.067 
#    0.000    4.667    0.000    0.000    0.000    0.000 
#    0.000    0.000    0.000    0.000    0.000    0.000 
#
# Total GULP energy -167493.325403 kJ/mol
# GULP energy per Si atom -5583.110847 kJ/mol
# Density = 2.695146 g / cm^3
# Si number density = 27.012940 Si / 1000 Ang^3
#
#
#
# Elastic Constant Matrix: (Units=GPa)
#
#
# Indices 1 2 3 4 5 6 
#
# 1 127.3258 49.3632 11.1567 0.0000 7.5944 0.0000
# 2 49.3632 152.2865 22.4122 0.0000 -11.7111 0.0000
# 3 11.1567 22.4122 46.3661 0.0000 9.5842 0.0000
# 4 0.0000 0.0000 0.0000 26.6229 0.0000 -17.2475
# 5 7.5944 -11.7111 9.5842 0.0000 34.6642 0.0000
# 6 0.0000 0.0000 0.0000 -17.2475 0.0000 40.6444
#
#
#
# Elastic Compliance Matrix: (Units=1/GPa)
#
#
# Indices 1 2 3 4 5 6 
#
# 1 0.009304 -0.003254 -0.000018 0.000000 -0.003133 0.000000
# 2 -0.003254 0.008641 -0.004396 0.000000 0.004848 0.000000
# 3 -0.000018 -0.004396 0.025458 0.000000 -0.008520 0.000000
# 4 0.000000 0.000000 0.000000 0.051803 0.000000 0.021983
# 5 -0.003133 0.004848 -0.008520 0.000000 0.033528 0.000000
# 6 0.000000 0.000000 0.000000 0.021983 0.000000 0.033932
#
#
# Mechanical properties :
#
#
# Convention : Reuss Voigt Hill
#
# Bulk Modulus (GPa) = 35.62983 54.64920 45.13951
# Shear Modulus (GPa) = 26.68688 36.58937 31.63813
#
# Velocity S-wave (km/s) = 3.14654 3.68436 3.42602
# Velocity P-wave (km/s) = 5.13999 6.19468 5.69182
#
# Compressibility (1/GPa) = 0.02806637
#
# Stress axis : x y z
#
# Youngs Moduli (GPa) = 107.48200 115.72578 39.28054
#
# Poissons Ratio (x) = 0.37658 0.00072
# Poissons Ratio (y) = 0.34975 0.17268
# Poissons Ratio (z) = 0.00196 0.50873
#
# Static dielectric constant tensor:
#      x y z
#    x 2.105920 0.000000 -0.076170 
#    y 0.000000 2.090360 0.000000 
#    z -0.076170 0.000000 2.272660 
# 
# From -- ./inp_files/243363.got.cif
#   From: 2010.05.17/outbox.cif.g08.bks.cpg/sg15_122_cif.got.tgz:243363.got - 2010.06.03 18:47:42.
