data_PCOD9271730
_publ_section_title
;
Structure prediction by ZEFSAII (Michael W. Deem and Ramdas Pophale) SiO2 
 PCOD9271730
Probable space group: C 2/C
;
_chemical_formula_sum "Si O2"
_cell_formula_units_Z 48
_cell_length_a 23.666162
_cell_length_b 10.526745
_cell_length_c 8.236352
_cell_angle_alpha 90.000000
_cell_angle_beta 109.681411
_cell_angle_gamma 90.000000
_cell_volume 1932.030581
_symmetry_space_group_name_H-M "C 2/C"
_symmetry_group_IT_number 15
_symmetry_cell_setting 'monoclinic'
loop_
_space_group_symop_operation_xyz
x,y,z
-x,y,1/2-z
-x,-y,-z
x,-y,1/2+z
1/2+x,1/2+y,z
1/2-x,1/2+y,1/2-z
1/2-x,1/2-y,-z
1/2+x,1/2-y,1/2+z
loop_
_atom_site_type_symbol
_atom_site_label
_atom_site_fract_x
_atom_site_fract_y
_atom_site_fract_z
Si Si1 0.500597 0.722407 0.063515
Si Si2 0.343447 0.930857 0.073194
Si Si3 0.913354 0.372920 0.827016
Si Si4 0.722951 0.159185 0.683892
Si Si5 0.837551 0.156644 0.607058
Si Si6 0.559916 0.525862 0.922429
O O1 0.500000 0.759755 0.250000
O O2 0.449704 0.611114 0.007704
O O3 0.481480 0.838348 0.932736
O O4 0.556085 0.641535 0.048315
O O5 0.300641 0.856924 0.156497
O O6 0.396056 0.993290 0.233751
O O7 0.376321 0.860939 0.959027
O O8 0.306353 0.044896 0.951514
O O9 0.886439 0.266295 0.684430
O O10 0.793324 0.146281 0.716464
O O11 0.702299 0.291999 0.582164
O O12 0.877211 0.035168 0.606022
O O13 0.500000 0.540257 0.750000
#
# Coordination Sequence:
#
# PCOD9271730 Si02
#       6
#     8   8   8   8   8   8
#     4  10  22  37  59  90 116 153 199 237 296 350
#     4   9  20  39  60  81 120 153 195 249 288 340
#     4  10  20  39  62  83 119 156 194 246 292 342
#     4   9  20  37  57  87 115 155 196 239 292 346
#     4  10  20  36  61  85 117 156 195 237 297 349
#     4  10  20  39  59  85 121 155 184 246 296 344
#
# _framework density 24.844329999999999
#
# number of rings (size 3 to 8) (size 9 to 14) (size 15 to 20)
#    0.000    2.333    1.667    0.000    2.333    2.000 
#    0.000    2.500    0.000    0.000    0.000    0.000 
#    0.000    0.000    0.000    0.000    0.000    0.000 
#
# Total GULP energy -134135.750897 kJ/mol
# GULP energy per Si atom -5588.989621 kJ/mol
# Density = 2.478778 g / cm^3
# Si number density = 24.844330 Si / 1000 Ang^3
#
#
#
# Elastic Constant Matrix: (Units=GPa)
#
#
# Indices 1 2 3 4 5 6 
#
# 1 78.7663 26.0228 14.6578 0.0000 -7.8014 0.0000
# 2 26.0228 35.4733 8.6725 0.0000 -4.7887 0.0000
# 3 14.6578 8.6725 67.7444 0.0000 -15.6610 0.0000
# 4 0.0000 0.0000 0.0000 23.5634 0.0000 -4.2602
# 5 -7.8014 -4.7887 -15.6610 0.0000 37.0928 0.0000
# 6 0.0000 0.0000 0.0000 -4.2602 0.0000 38.4238
#
#
#
# Elastic Compliance Matrix: (Units=1/GPa)
#
#
# Indices 1 2 3 4 5 6 
#
# 1 0.017110 -0.011920 -0.001884 0.000000 0.001264 0.000000
# 2 -0.011920 0.037603 -0.001875 0.000000 0.001556 0.000000
# 3 -0.001884 -0.001875 0.016912 0.000000 0.006502 0.000000
# 4 0.000000 0.000000 0.000000 0.043307 0.000000 0.004802
# 5 0.001264 0.001556 0.006502 0.000000 0.030171 0.000000
# 6 0.000000 0.000000 0.000000 0.004802 0.000000 0.026558
#
#
# Mechanical properties :
#
#
# Convention : Reuss Voigt Hill
#
# Bulk Modulus (GPa) = 24.83422 31.18781 28.01102
# Shear Modulus (GPa) = 23.10088 28.65807 25.87947
#
# Velocity S-wave (km/s) = 3.05261 3.40001 3.23099
# Velocity P-wave (km/s) = 4.73732 5.29094 5.02176
#
# Compressibility (1/GPa) = 0.04026701
#
# Stress axis : x y z
#
# Youngs Moduli (GPa) = 58.44610 26.59340 59.12908
#
# Poissons Ratio (x) = 0.31700 0.11138
# Poissons Ratio (y) = 0.69670 0.11087
# Poissons Ratio (z) = 0.11010 0.04986
#
# Static dielectric constant tensor:
#      x y z
#    x 1.975680 0.000000 0.028960 
#    y 0.000000 1.959960 0.000000 
#    z 0.028960 0.000000 2.029540 
# 
# From -- ./inp_files/60555.got.cif
#   From: 2010.05.17/outbox.cif.g08.bks.cpg/sg15_31_cif.got.tgz:60555.got - 2010.06.03 18:47:42.
