data_PCOD9271455
_publ_section_title
;
Structure prediction by ZEFSAII (Michael W. Deem and Ramdas Pophale) SiO2 
 PCOD9271455
Probable space group: C 2/C
;
_chemical_formula_sum "Si O2"
_cell_formula_units_Z 40
_cell_length_a 7.503866
_cell_length_b 30.553940
_cell_length_c 10.332398
_cell_angle_alpha 90.000000
_cell_angle_beta 131.177656
_cell_angle_gamma 90.000000
_cell_volume 1783.031516
_symmetry_space_group_name_H-M "C 2/C"
_symmetry_group_IT_number 15
_symmetry_cell_setting 'monoclinic'
loop_
_space_group_symop_operation_xyz
x,y,z
-x,y,1/2-z
-x,-y,-z
x,-y,1/2+z
1/2+x,1/2+y,z
1/2-x,1/2+y,1/2-z
1/2-x,1/2-y,-z
1/2+x,1/2-y,1/2+z
loop_
_atom_site_type_symbol
_atom_site_label
_atom_site_fract_x
_atom_site_fract_y
_atom_site_fract_z
Si Si1 0.291604 0.411764 0.556666
Si Si2 0.330597 0.995028 0.543611
Si Si3 0.500000 0.766485 0.750000
Si Si4 0.860280 0.311639 0.447862
Si Si5 0.500000 0.854065 0.250000
Si Si6 0.143590 0.400342 0.952930
O O1 0.500000 0.395779 0.750000
O O2 0.334961 0.462475 0.540970
O O3 0.224078 0.384459 0.396832
O O4 0.054760 0.407494 0.530601
O O5 0.500000 0.997768 0.750000
O O6 0.218780 0.946457 0.487888
O O7 0.500000 0.000000 0.500000
O O8 0.287989 0.732207 0.638252
O O9 0.542617 0.797464 0.646953
O O10 0.953626 0.325124 0.353458
O O11 0.734946 0.354715 0.450212
O O12 0.000000 0.395929 0.750000
#
# Coordination Sequence:
#
# PCOD9271455 Si02
#       6
#     8   8   4   8   4   8
#     4  10  20  36  59  88 121 158 198 242 286 339
#     4   9  17  33  55  78 117 160 191 233 285 332
#     4  10  22  40  63  84 114 152 191 246 306 364
#     4  10  21  40  61  86 117 150 194 245 301 355
#     4  10  22  40  61  90 122 156 191 246 294 350
#     4   9  18  35  58  81 117 159 190 236 294 343
#
# _framework density 22.433703999999999
#
# number of rings (size 3 to 8) (size 9 to 14) (size 15 to 20)
#    0.000    2.400    2.000    0.000    0.000    2.400 
#    5.400    9.000    0.000    0.000    0.000    0.000 
#    0.000    0.000    0.000    0.000    0.000    0.000 
#
# Total GULP energy -111479.613871 kJ/mol
# GULP energy per Si atom -5573.980694 kJ/mol
# Density = 2.238264 g / cm^3
# Si number density = 22.433704 Si / 1000 Ang^3
#
#
#
# Elastic Constant Matrix: (Units=GPa)
#
#
# Indices 1 2 3 4 5 6 
#
# 1 48.6273 29.5071 21.5838 0.0000 -29.9855 0.0000
# 2 29.5071 156.9880 66.1945 0.0000 -26.5971 0.0000
# 3 21.5838 66.1945 126.7447 0.0000 -32.0856 0.0000
# 4 0.0000 0.0000 0.0000 29.8142 0.0000 -21.2473
# 5 -29.9855 -26.5971 -32.0856 0.0000 39.7348 0.0000
# 6 0.0000 0.0000 0.0000 -21.2473 0.0000 -8.2085
#
#
#
# Elastic Compliance Matrix: (Units=1/GPa)
#
#
# Indices 1 2 3 4 5 6 
#
# 1 0.040018 -0.003555 0.002620 0.000000 0.029935 0.000000
# 2 -0.003555 0.008694 -0.003948 0.000000 -0.000051 0.000000
# 3 0.002620 -0.003948 0.011736 0.000000 0.008811 0.000000
# 4 0.000000 0.000000 0.000000 0.011791 0.000000 -0.030520
# 5 0.029935 -0.000051 0.008811 0.000000 0.054838 0.000000
# 6 0.000000 0.000000 0.000000 -0.030520 0.000000 -0.042826
#
#
# Mechanical properties :
#
#
# Convention : Reuss Voigt Hill
#
# Bulk Modulus (GPa) = 19.73074 62.99232 41.36153
# Shear Modulus (GPa) = 45.08072 26.60641 35.84356
#
# Velocity S-wave (km/s) = 4.48762 3.44757 4.00153
# Velocity P-wave (km/s) = 5.97209 6.63234 6.31086
#
# Compressibility (1/GPa) = 0.05068233
#
# Stress axis : x y z
#
# Youngs Moduli (GPa) = 24.98874 115.01938 85.20521
#
# Poissons Ratio (x) = 0.40886 -0.22322
# Poissons Ratio (y) = 0.08883 0.33641
# Poissons Ratio (z) = -0.06547 0.45413
#
# Static dielectric constant tensor:
#      x y z
#    x 1.826430 0.000000 0.038550 
#    y 0.000000 1.893390 0.000000 
#    z 0.038550 0.000000 1.955200 
# 
# From -- ./inp_files/81923.got.cif
#   From: 2010.05.17/outbox.cif.g08.bks.cpg/sg15_41_cif.got.tgz:81923.got - 2010.06.03 18:47:42.
