data_PCOD9271700
_publ_section_title
;
Structure prediction by ZEFSAII (Michael W. Deem and Ramdas Pophale) SiO2 
 PCOD9271700
Probable space group: C 2/C
;
_chemical_formula_sum "Si O2"
_cell_formula_units_Z 48
_cell_length_a 10.375699
_cell_length_b 8.908411
_cell_length_c 20.820653
_cell_angle_alpha 90.000000
_cell_angle_beta 108.033080
_cell_angle_gamma 90.000000
_cell_volume 1829.939495
_symmetry_space_group_name_H-M "C 2/C"
_symmetry_group_IT_number 15
_symmetry_cell_setting 'monoclinic'
loop_
_space_group_symop_operation_xyz
x,y,z
-x,y,1/2-z
-x,-y,-z
x,-y,1/2+z
1/2+x,1/2+y,z
1/2-x,1/2+y,1/2-z
1/2-x,1/2-y,-z
1/2+x,1/2-y,1/2+z
loop_
_atom_site_type_symbol
_atom_site_label
_atom_site_fract_x
_atom_site_fract_y
_atom_site_fract_z
Si Si1 0.177704 0.338818 0.591176
Si Si2 0.171984 0.102013 0.704098
Si Si3 0.532422 0.589158 0.393581
Si Si4 0.361825 0.137019 0.851029
Si Si5 0.900614 0.226716 0.547501
Si Si6 0.417838 0.078077 0.178641
O O1 0.168233 0.247440 0.657003
O O2 0.328646 0.315914 0.589090
O O3 0.177318 0.516094 0.602356
O O4 0.036751 0.296373 0.535710
O O5 0.237891 0.146019 0.781924
O O6 0.033813 0.003329 0.677839
O O7 0.284366 0.996938 0.686809
O O8 0.416439 0.710061 0.388578
O O9 0.564084 0.449490 0.443997
O O10 0.485195 0.057386 0.831298
O O11 0.750000 0.250000 0.500000
O O12 0.895005 0.310656 0.616113
O O13 0.500000 0.152251 0.250000
#
# Coordination Sequence:
#
# PCOD9271700 Si02
#       6
#     8   8   8   8   8   8
#     4  10  22  41  60  92 133 168 221 277 326 403
#     4  10  20  36  60  95 132 167 212 266 333 398
#     4  11  23  39  65  94 126 177 223 268 334 394
#     4  10  20  36  62  92 132 170 209 269 331 395
#     4  10  24  46  66  93 133 177 228 281 332 398
#     4   9  19  40  65  93 131 169 213 276 335 396
#
# _framework density 26.230374999999999
#
# number of rings (size 3 to 8) (size 9 to 14) (size 15 to 20)
#    0.000    2.000    1.667    1.000    2.333    4.000 
#    3.000    6.667    0.000    0.000    0.000    0.000 
#    0.000    0.000    0.000    0.000    0.000    0.000 
#
# Total GULP energy -134243.446963 kJ/mol
# GULP energy per Si atom -5593.476957 kJ/mol
# Density = 2.617067 g / cm^3
# Si number density = 26.230375 Si / 1000 Ang^3
#
#
#
# Elastic Constant Matrix: (Units=GPa)
#
#
# Indices 1 2 3 4 5 6 
#
# 1 141.9114 31.9546 43.1393 0.0000 42.3144 0.0000
# 2 31.9546 129.6863 70.8972 0.0000 24.2122 0.0000
# 3 43.1393 70.8972 135.2680 0.0000 48.2662 0.0000
# 4 0.0000 0.0000 0.0000 17.0677 0.0000 18.7228
# 5 42.3144 24.2122 48.2662 0.0000 44.3489 0.0000
# 6 0.0000 0.0000 0.0000 18.7228 0.0000 38.9907
#
#
#
# Elastic Compliance Matrix: (Units=1/GPa)
#
#
# Indices 1 2 3 4 5 6 
#
# 1 0.009974 -0.001124 0.000956 0.000000 -0.009944 0.000000
# 2 -0.001124 0.010939 -0.005929 0.000000 0.001553 0.000000
# 3 0.000956 -0.005929 0.015312 0.000000 -0.014340 0.000000
# 4 0.000000 0.000000 0.000000 0.123805 0.000000 -0.059449
# 5 -0.009944 0.001553 -0.014340 0.000000 0.046795 0.000000
# 6 0.000000 0.000000 0.000000 -0.059449 0.000000 0.054194
#
#
# Mechanical properties :
#
#
# Convention : Reuss Voigt Hill
#
# Bulk Modulus (GPa) = 41.61179 77.64975 59.63077
# Shear Modulus (GPa) = 17.77948 37.47310 27.62629
#
# Velocity S-wave (km/s) = 2.60632 3.78380 3.24885
# Velocity P-wave (km/s) = 4.99556 6.98261 6.07093
#
# Compressibility (1/GPa) = 0.02403165
#
# Stress axis : x y z
#
# Youngs Moduli (GPa) = 100.26120 91.41334 65.30709
#
# Poissons Ratio (x) = 0.10274 -0.06245
# Poissons Ratio (y) = 0.11268 0.38722
# Poissons Ratio (z) = -0.09587 0.54202
#
# Static dielectric constant tensor:
#      x y z
#    x 2.106670 0.000000 -0.013440 
#    y 0.000000 2.029550 0.000000 
#    z -0.013440 0.000000 2.080490 
# 
# From -- ./inp_files/291288.got.cif
#   From: 2010.05.17/outbox.cif.g08.bks.cpg/sg15_146_cif.got.tgz:291288.got - 2010.06.03 18:47:42.
