data_PCOD9271295
_publ_section_title
;
Structure prediction by ZEFSAII (Michael W. Deem and Ramdas Pophale) SiO2 
 PCOD9271295
Probable space group: C 2/C
;
_chemical_formula_sum "Si O2"
_cell_formula_units_Z 60
_cell_length_a 18.021466
_cell_length_b 5.993249
_cell_length_c 24.004913
_cell_angle_alpha 90.000000
_cell_angle_beta 92.012085
_cell_angle_gamma 90.000000
_cell_volume 2591.103286
_symmetry_space_group_name_H-M "C 2/C"
_symmetry_group_IT_number 15
_symmetry_cell_setting 'monoclinic'
loop_
_space_group_symop_operation_xyz
x,y,z
-x,y,1/2-z
-x,-y,-z
x,-y,1/2+z
1/2+x,1/2+y,z
1/2-x,1/2+y,1/2-z
1/2-x,1/2-y,-z
1/2+x,1/2-y,1/2+z
loop_
_atom_site_type_symbol
_atom_site_label
_atom_site_fract_x
_atom_site_fract_y
_atom_site_fract_z
Si Si1 0.799194 0.671683 0.949806
Si Si2 0.768514 0.490442 0.645404
Si Si3 0.500000 0.581694 0.250000
Si Si4 0.352225 0.793215 0.883470
Si Si5 0.083351 0.007402 0.022562
Si Si6 0.385973 0.684198 0.090466
Si Si7 0.105894 0.793170 0.317954
Si Si8 0.013054 0.579563 0.649912
O O1 0.801800 0.420979 0.928067
O O2 0.770602 0.818066 0.897311
O O3 0.881915 0.748931 0.968793
O O4 0.750000 0.750000 0.000000
O O5 0.702891 0.661905 0.659190
O O6 0.828619 0.635261 0.612548
O O7 0.818793 0.347499 0.689056
O O8 0.571613 0.433558 0.266645
O O9 0.482901 0.738249 0.301616
O O10 0.403190 0.622991 0.919741
O O11 0.406961 0.975971 0.859595
O O12 0.127029 0.887568 0.972990
O O13 0.000000 0.000000 0.000000
O O14 0.382514 0.466799 0.130552
O O15 0.467504 0.796930 0.099659
O O16 0.040824 0.620898 0.332378
#
# Coordination Sequence:
#
# PCOD9271295 Si02
#       8
#     8   8   4   8   8   8   8   8
#     4  11  22  36  55  85 127 179 217 247 293 366
#     4  10  21  36  58  89 122 168 205 246 310 374
#     4  10  22  40  68 100 114 150 206 284 334 406
#     4  11  23  37  57  93 135 170 208 258 315 377
#     4  11  22  34  53  86 132 169 214 257 299 353
#     4  10  20  36  58  87 124 170 215 255 300 368
#     4  10  20  39  65  95 117 153 210 265 321 391
#     4  10  22  39  62  97 120 157 209 269 332 381
#
# _framework density 23.156158000000001
#
# number of rings (size 3 to 8) (size 9 to 14) (size 15 to 20)
#    0.000    1.600    0.000    5.200    0.000    9.600 
#    0.000    0.000    0.000    0.000  156.000    0.000 
#    0.000    0.000    0.000    0.000    0.000    0.000 
#
# Total GULP energy -167755.085706 kJ/mol
# GULP energy per Si atom -5591.836190 kJ/mol
# Density = 2.310345 g / cm^3
# Si number density = 23.156158 Si / 1000 Ang^3
#
#
#
# Elastic Constant Matrix: (Units=GPa)
#
#
# Indices 1 2 3 4 5 6 
#
# 1 138.4107 41.3562 23.2215 0.0000 27.2765 0.0000
# 2 41.3562 81.3565 15.8388 0.0000 19.0057 0.0000
# 3 23.2215 15.8388 47.9173 0.0000 21.0197 0.0000
# 4 0.0000 0.0000 0.0000 20.8838 0.0000 20.6484
# 5 27.2765 19.0057 21.0197 0.0000 21.9498 0.0000
# 6 0.0000 0.0000 0.0000 20.6484 0.0000 48.8400
#
#
#
# Elastic Compliance Matrix: (Units=1/GPa)
#
#
# Indices 1 2 3 4 5 6 
#
# 1 0.010052 -0.002718 0.000818 0.000000 -0.010921 0.000000
# 2 -0.002718 0.016191 0.001092 0.000000 -0.011688 0.000000
# 3 0.000818 0.001092 0.036164 0.000000 -0.036594 0.000000
# 4 0.000000 0.000000 0.000000 0.082276 0.000000 -0.034785
# 5 -0.010921 -0.011688 -0.036594 0.000000 0.104294 0.000000
# 6 0.000000 0.000000 0.000000 -0.034785 0.000000 0.035181
#
#
# Mechanical properties :
#
#
# Convention : Reuss Voigt Hill
#
# Bulk Modulus (GPa) = 16.44948 47.61307 32.03127
# Shear Modulus (GPa) = 16.33788 30.81925 23.57857
#
# Velocity S-wave (km/s) = 2.65911 3.65215 3.19445
# Velocity P-wave (km/s) = 4.06779 6.19602 5.24107
#
# Compressibility (1/GPa) = 0.06079219
#
# Stress axis : x y z
#
# Youngs Moduli (GPa) = 99.48330 61.76338 27.65151
#
# Poissons Ratio (x) = 0.16785 -0.02261
# Poissons Ratio (y) = 0.27036 -0.03021
# Poissons Ratio (z) = -0.08135 -0.06747
#
# Static dielectric constant tensor:
#      x y z
#    x 1.924610 0.000000 -0.019800 
#    y 0.000000 1.880520 0.000000 
#    z -0.019800 0.000000 1.839120 
# 
# From -- ./inp_files/314893.got.cif
#   From: 2010.05.17/outbox.cif.g08.bks.cpg/sg15_158_cif.got.tgz:314893.got - 2010.06.03 18:47:42.
