data_PCOD9271623
_publ_section_title
;
Structure prediction by ZEFSAII (Michael W. Deem and Ramdas Pophale) SiO2 
 PCOD9271623
Probable space group: C 2/C
;
_chemical_formula_sum "Si O2"
_cell_formula_units_Z 48
_cell_length_a 15.007943
_cell_length_b 9.654072
_cell_length_c 17.810376
_cell_angle_alpha 90.000000
_cell_angle_beta 117.719710
_cell_angle_gamma 90.000000
_cell_volume 2284.350364
_symmetry_space_group_name_H-M "C 2/C"
_symmetry_group_IT_number 15
_symmetry_cell_setting 'monoclinic'
loop_
_space_group_symop_operation_xyz
x,y,z
-x,y,1/2-z
-x,-y,-z
x,-y,1/2+z
1/2+x,1/2+y,z
1/2-x,1/2+y,1/2-z
1/2-x,1/2-y,-z
1/2+x,1/2-y,1/2+z
loop_
_atom_site_type_symbol
_atom_site_label
_atom_site_fract_x
_atom_site_fract_y
_atom_site_fract_z
Si Si1 0.229188 0.050293 0.710740
Si Si2 0.899609 0.060176 0.214679
Si Si3 0.588509 0.294887 0.387169
Si Si4 0.713896 0.863925 0.544508
Si Si5 0.741386 0.415766 0.557167
Si Si6 0.873980 0.335729 0.839358
O O1 0.135901 0.977375 0.716519
O O2 0.204663 0.212043 0.713082
O O3 0.226413 0.015034 0.621920
O O4 0.328245 0.978494 0.786780
O O5 0.921809 0.925625 0.171690
O O6 0.000000 0.149294 0.250000
O O7 0.806738 0.127305 0.137571
O O8 0.637716 0.351401 0.484414
O O9 0.677957 0.200352 0.389139
O O10 0.484248 0.212090 0.354892
O O11 0.750000 0.750000 0.500000
O O12 0.624043 0.842984 0.568363
O O13 0.708803 0.003120 0.493561
#
# Coordination Sequence:
#
# PCOD9271623 Si02
#       6
#     8   8   8   8   8   8
#     4  11  22  37  63  94 122 161 208 259 308 371
#     4  10  20  36  60  89 117 159 209 249 298 372
#     4  10  22  41  64  89 120 168 207 256 304 381
#     4  10  21  39  58  88 128 157 198 259 317 355
#     4  10  22  39  63  89 123 159 212 256 309 371
#     4  11  23  40  67  90 127 164 208 255 313 370
#
# _framework density 21.012537999999999
#
# number of rings (size 3 to 8) (size 9 to 14) (size 15 to 20)
#    0.000    1.667    3.333    1.000    0.000    4.000 
#    0.000    3.333    0.000    0.000    0.000    0.000 
#    0.000    0.000    0.000    0.000    0.000    0.000 
#
# Total GULP energy -133795.852983 kJ/mol
# GULP energy per Si atom -5574.827208 kJ/mol
# Density = 2.096471 g / cm^3
# Si number density = 21.012538 Si / 1000 Ang^3
#
#
#
# Elastic Constant Matrix: (Units=GPa)
#
#
# Indices 1 2 3 4 5 6 
#
# 1 88.1772 8.5778 32.6031 0.0000 0.4816 0.0000
# 2 8.5778 45.5124 15.4492 0.0000 9.7552 0.0000
# 3 32.6031 15.4492 66.5407 0.0000 -10.6620 0.0000
# 4 0.0000 0.0000 0.0000 17.6368 0.0000 -3.7871
# 5 0.4816 9.7552 -10.6620 0.0000 33.5790 0.0000
# 6 0.0000 0.0000 0.0000 -3.7871 0.0000 33.1394
#
#
#
# Elastic Compliance Matrix: (Units=1/GPa)
#
#
# Indices 1 2 3 4 5 6 
#
# 1 0.014056 0.000446 -0.007421 0.000000 -0.002688 0.000000
# 2 0.000446 0.026873 -0.008123 0.000000 -0.010393 0.000000
# 3 -0.007421 -0.008123 0.022069 0.000000 0.009474 0.000000
# 4 0.000000 0.000000 0.000000 0.058126 0.000000 0.006642
# 5 -0.002688 -0.010393 0.009474 0.000000 0.035846 0.000000
# 6 0.000000 0.000000 0.000000 0.006642 0.000000 0.030935
#
#
# Mechanical properties :
#
#
# Convention : Reuss Voigt Hill
#
# Bulk Modulus (GPa) = 30.48691 34.83229 32.65960
# Shear Modulus (GPa) = 21.83073 26.44437 24.13755
#
# Velocity S-wave (km/s) = 3.22675 3.55139 3.39296
# Velocity P-wave (km/s) = 5.33132 5.78181 5.56113
#
# Compressibility (1/GPa) = 0.03280097
#
# Stress axis : x y z
#
# Youngs Moduli (GPa) = 71.14362 37.21214 45.31325
#
# Poissons Ratio (x) = -0.01660 0.33628
# Poissons Ratio (y) = -0.03173 0.36808
# Poissons Ratio (z) = 0.52798 0.30228
#
# Static dielectric constant tensor:
#      x y z
#    x 2.150270 0.000000 -0.150710 
#    y 0.000000 1.815270 0.000000 
#    z -0.150710 0.000000 1.840180 
# 
# From -- ./inp_files/196578.got.cif
#   From: 2010.05.17/outbox.cif.g08.bks.cpg/sg15_99_cif.got.tgz:196578.got - 2010.06.03 18:47:42.
