data_PCOD9271694
_publ_section_title
;
Structure prediction by ZEFSAII (Michael W. Deem and Ramdas Pophale) SiO2 
 PCOD9271694
Probable space group: C 2/C
;
_chemical_formula_sum "Si O2"
_cell_formula_units_Z 36
_cell_length_a 18.173281
_cell_length_b 6.740633
_cell_length_c 14.558815
_cell_angle_alpha 90.000000
_cell_angle_beta 136.711396
_cell_angle_gamma 90.000000
_cell_volume 1222.862062
_symmetry_space_group_name_H-M "C 2/C"
_symmetry_group_IT_number 15
_symmetry_cell_setting 'monoclinic'
loop_
_space_group_symop_operation_xyz
x,y,z
-x,y,1/2-z
-x,-y,-z
x,-y,1/2+z
1/2+x,1/2+y,z
1/2-x,1/2+y,1/2-z
1/2-x,1/2-y,-z
1/2+x,1/2-y,1/2+z
loop_
_atom_site_type_symbol
_atom_site_label
_atom_site_fract_x
_atom_site_fract_y
_atom_site_fract_z
Si Si1 0.136713 0.979356 0.799806
Si Si2 0.899411 0.481816 0.272722
Si Si3 0.878270 0.571412 0.469459
Si Si4 0.000000 0.000000 0.500000
Si Si5 0.340598 0.543383 0.476343
O O1 0.115068 0.743396 0.776754
O O2 0.262845 0.996994 0.896472
O O3 0.065178 0.062733 0.653626
O O4 0.116564 0.061648 0.882614
O O5 0.889382 0.525370 0.372596
O O6 0.786779 0.572050 0.135592
O O7 0.027638 0.509809 0.379457
O O8 0.881060 0.816270 0.480682
O O9 0.896919 0.143133 0.440913
#
# Coordination Sequence:
#
# PCOD9271694 Si02
#       5
#     8   8   8   4   8
#     4  11  23  39  64  91 119 164 209 244 296 365
#     4  10  20  36  60  94 123 154 198 251 301 353
#     4  10  20  36  60  94 123 154 198 251 301 353
#     4  12  22  40  60  90 122 156 208 252 296 358
#     4  11  23  39  64  91 119 164 209 244 296 365
#
# _framework density 29.439135
#
# number of rings (size 3 to 8) (size 9 to 14) (size 15 to 20)
#    0.000    1.333    4.444    3.333    0.000    2.667 
#    0.000    0.000    0.000   13.333    0.000    0.000 
#    0.000    0.000    0.000    0.000    0.000    0.000 
#
# Total GULP energy -100442.142856 kJ/mol
# GULP energy per Si atom -5580.119048 kJ/mol
# Density = 2.937213 g / cm^3
# Si number density = 29.439135 Si / 1000 Ang^3
#
#
#
# Elastic Constant Matrix: (Units=GPa)
#
#
# Indices 1 2 3 4 5 6 
#
# 1 132.4531 3.6126 83.0124 0.0000 7.2930 0.0000
# 2 3.6126 137.5483 13.2899 0.0000 -6.1518 0.0000
# 3 83.0124 13.2899 288.0188 0.0000 10.7052 0.0000
# 4 0.0000 0.0000 0.0000 20.2524 0.0000 -13.1849
# 5 7.2930 -6.1518 10.7052 0.0000 75.4871 0.0000
# 6 0.0000 0.0000 0.0000 -13.1849 0.0000 17.4121
#
#
#
# Elastic Compliance Matrix: (Units=1/GPa)
#
#
# Indices 1 2 3 4 5 6 
#
# 1 0.009234 -0.000010 -0.002642 0.000000 -0.000518 0.000000
# 2 -0.000010 0.007334 -0.000360 0.000000 0.000650 0.000000
# 3 -0.002642 -0.000360 0.004264 0.000000 -0.000379 0.000000
# 4 0.000000 0.000000 0.000000 0.097386 0.000000 0.073744
# 5 -0.000518 0.000650 -0.000379 0.000000 0.013404 0.000000
# 6 0.000000 0.000000 0.000000 0.073744 0.000000 0.113272
#
#
# Mechanical properties :
#
#
# Convention : Reuss Voigt Hill
#
# Bulk Modulus (GPa) = 67.52609 84.20557 75.86583
# Shear Modulus (GPa) = 19.54233 53.17067 36.35650
#
# Velocity S-wave (km/s) = 2.57927 4.25446 3.51803
# Velocity P-wave (km/s) = 5.64424 7.26631 6.50603
#
# Compressibility (1/GPa) = 0.01480909
#
# Stress axis : x y z
#
# Youngs Moduli (GPa) = 108.29140 136.34670 234.51783
#
# Poissons Ratio (x) = 0.00143 0.61954
# Poissons Ratio (y) = 0.00113 0.08432
# Poissons Ratio (z) = 0.28608 0.04902
#
# Static dielectric constant tensor:
#      x y z
#    x 1.431530 0.000000 0.193170 
#    y 0.000000 2.288240 0.000000 
#    z 0.193170 0.000000 2.119070 
# 
# From -- ./inp_files/166735.got.cif
#   From: 2010.05.17/outbox.cif.g08.bks.cpg/sg15_84_cif.got.tgz:166735.got - 2010.06.03 18:47:42.
