data_PCOD9271558
_publ_section_title
;
Structure prediction by ZEFSAII (Michael W. Deem and Ramdas Pophale) SiO2 
 PCOD9271558
Probable space group: C 2/C
;
_chemical_formula_sum "Si O2"
_cell_formula_units_Z 36
_cell_length_a 17.454720
_cell_length_b 12.508904
_cell_length_c 14.251754
_cell_angle_alpha 90.000000
_cell_angle_beta 37.307243
_cell_angle_gamma 90.000000
_cell_volume 1885.978914
_symmetry_space_group_name_H-M "C 2/C"
_symmetry_group_IT_number 15
_symmetry_cell_setting 'monoclinic'
loop_
_space_group_symop_operation_xyz
x,y,z
-x,y,1/2-z
-x,-y,-z
x,-y,1/2+z
1/2+x,1/2+y,z
1/2-x,1/2+y,1/2-z
1/2-x,1/2-y,-z
1/2+x,1/2-y,1/2+z
loop_
_atom_site_type_symbol
_atom_site_label
_atom_site_fract_x
_atom_site_fract_y
_atom_site_fract_z
Si Si1 0.567101 0.098496 0.386885
Si Si2 0.672091 0.667446 0.600515
Si Si3 0.081980 0.839743 0.397762
Si Si4 0.339751 0.469873 0.562741
Si Si5 0.000000 0.671435 0.250000
O O1 0.554610 0.215818 0.444795
O O2 0.713982 0.072377 0.234146
O O3 0.513043 0.111257 0.334994
O O4 0.500000 0.000000 0.500000
O O5 0.500000 0.693702 0.750000
O O6 0.665550 0.657119 0.720153
O O7 0.669739 0.562063 0.537313
O O8 0.832842 0.699742 0.424349
O O9 0.954049 0.900089 0.493217
O O10 0.140263 0.907972 0.425709
#
# Coordination Sequence:
#
# PCOD9271558 Si02
#       5
#     8   8   8   8   4
#     4  11  24  36  63  86 122 157 199 249 299 355
#     4  11  18  35  62  88 114 152 201 246 285 353
#     4  10  23  37  59  93 118 156 205 238 308 351
#     4  11  21  36  60  89 121 152 197 261 288 348
#     4  10  20  36  60  86 112 152 214 234 286 358
#
# _framework density 19.088231
#
# number of rings (size 3 to 8) (size 9 to 14) (size 15 to 20)
#    0.000    1.333    8.889    0.000    6.222    0.000 
#    0.000    0.000    9.778    2.667    0.000    0.000 
#    0.000    0.000    0.000    0.000    0.000    0.000 
#
# Total GULP energy -100211.830243 kJ/mol
# GULP energy per Si atom -5567.323902 kJ/mol
# Density = 1.904479 g / cm^3
# Si number density = 19.088231 Si / 1000 Ang^3
#
#
#
# Elastic Constant Matrix: (Units=GPa)
#
#
# Indices 1 2 3 4 5 6 
#
# 1 80.8920 63.1978 31.8135 0.0000 7.0433 0.0000
# 2 63.1978 172.8265 57.5336 0.0000 22.3846 0.0000
# 3 31.8135 57.5336 115.8096 0.0000 5.7233 0.0000
# 4 0.0000 0.0000 0.0000 36.7639 0.0000 2.8165
# 5 7.0433 22.3846 5.7233 0.0000 27.5959 0.0000
# 6 0.0000 0.0000 0.0000 2.8165 0.0000 35.4656
#
#
#
# Elastic Compliance Matrix: (Units=1/GPa)
#
#
# Indices 1 2 3 4 5 6 
#
# 1 0.017685 -0.005903 -0.001959 0.000000 0.000681 0.000000
# 2 -0.005903 0.009647 -0.002888 0.000000 -0.005720 0.000000
# 3 -0.001959 -0.002888 0.010576 0.000000 0.000650 0.000000
# 4 0.000000 0.000000 0.000000 0.027367 0.000000 -0.002173
# 5 0.000681 -0.005720 0.000650 0.000000 0.040568 0.000000
# 6 0.000000 0.000000 0.000000 -0.002173 0.000000 0.028369
#
#
# Mechanical properties :
#
#
# Convention : Reuss Voigt Hill
#
# Bulk Modulus (GPa) = 60.94984 74.95755 67.95370
# Shear Modulus (GPa) = 31.02075 34.43064 32.72569
#
# Velocity S-wave (km/s) = 4.03566 4.25168 4.14508
# Velocity P-wave (km/s) = 7.32907 7.96597 7.65415
#
# Compressibility (1/GPa) = 0.01640693
#
# Stress axis : x y z
#
# Youngs Moduli (GPa) = 56.54466 103.65918 94.55440
#
# Poissons Ratio (x) = 0.61189 0.18526
# Poissons Ratio (y) = 0.33378 0.27311
# Poissons Ratio (z) = 0.11079 0.29941
#
# Static dielectric constant tensor:
#      x y z
#    x 1.799450 0.000000 -0.289150 
#    y 0.000000 1.639250 0.000000 
#    z -0.289150 0.000000 2.082490 
# 
# From -- ./inp_files/214719.got.cif
#   From: 2010.05.17/outbox.cif.g08.bks.cpg/sg15_108_cif.got.tgz:214719.got - 2010.06.03 18:47:42.
