data_PCOD9271649
_publ_section_title
;
Structure prediction by ZEFSAII (Michael W. Deem and Ramdas Pophale) SiO2 
 PCOD9271649
Probable space group: C 2/C
;
_chemical_formula_sum "Si O2"
_cell_formula_units_Z 64
_cell_length_a 9.515881
_cell_length_b 12.816208
_cell_length_c 27.992702
_cell_angle_alpha 90.000000
_cell_angle_beta 59.488325
_cell_angle_gamma 90.000000
_cell_volume 2941.180102
_symmetry_space_group_name_H-M "C 2/C"
_symmetry_group_IT_number 15
_symmetry_cell_setting 'monoclinic'
loop_
_space_group_symop_operation_xyz
x,y,z
-x,y,1/2-z
-x,-y,-z
x,-y,1/2+z
1/2+x,1/2+y,z
1/2-x,1/2+y,1/2-z
1/2-x,1/2-y,-z
1/2+x,1/2-y,1/2+z
loop_
_atom_site_type_symbol
_atom_site_label
_atom_site_fract_x
_atom_site_fract_y
_atom_site_fract_z
Si Si1 0.947364 0.597251 0.453748
Si Si2 0.092338 0.790327 0.375363
Si Si3 0.821208 0.268953 0.145651
Si Si4 0.563645 0.408656 0.022379
Si Si5 0.459047 0.216928 0.812567
Si Si6 0.089316 0.524916 0.842321
Si Si7 0.432083 0.782862 0.483148
Si Si8 0.490234 0.817161 0.694996
O O1 0.756515 0.584745 0.497483
O O2 0.012123 0.510015 0.406089
O O3 0.973137 0.701786 0.417088
O O4 0.049365 0.617395 0.484863
O O5 0.274457 0.754836 0.356866
O O6 0.034233 0.895280 0.410929
O O7 0.084599 0.782529 0.319563
O O8 0.682626 0.194269 0.149872
O O9 0.908399 0.224005 0.177916
O O10 0.770775 0.388444 0.169665
O O11 0.960399 0.287325 0.082742
O O12 0.500000 0.500000 0.000000
O O13 0.514467 0.307171 0.000566
O O14 0.500000 0.225598 0.750000
O O15 0.475449 0.097763 0.828688
O O16 0.103230 0.417912 0.809863
O O17 0.250000 0.750000 0.500000
O O18 0.500000 0.813094 0.750000
#
# Coordination Sequence:
#
# PCOD9271649 Si02
#       8
#     8   8   8   8   8   8   8   8
#     4  10  20  38  62  85 124 166 203 257 317 388
#     4  10  20  36  60  90 124 164 209 258 321 385
#     4  10  22  38  61  92 123 159 212 256 312 383
#     4  11  22  38  62  92 125 168 212 256 321 396
#     4  10  20  38  61  87 122 162 209 265 313 369
#     4   9  22  38  64  88 120 158 218 252 315 384
#     4  11  22  38  59  90 127 163 204 253 320 384
#     4  11  21  40  66  90 119 166 214 262 327 376
#
# _framework density 21.759972999999999
#
# number of rings (size 3 to 8) (size 9 to 14) (size 15 to 20)
#    0.750    1.000    0.000    7.125    1.750    0.500 
#    2.250    0.000    5.500    3.000    0.000    0.000 
#    0.000    0.000    0.000    0.000    0.000    0.000 
#
# Total GULP energy -178201.174002 kJ/mol
# GULP energy per Si atom -5568.786688 kJ/mol
# Density = 2.171045 g / cm^3
# Si number density = 21.759973 Si / 1000 Ang^3
#
#
#
# Elastic Constant Matrix: (Units=GPa)
#
#
# Indices 1 2 3 4 5 6 
#
# 1 94.2967 4.9396 13.0399 0.0000 7.1092 0.0000
# 2 4.9396 50.7504 6.9773 0.0000 6.4518 0.0000
# 3 13.0399 6.9773 73.8942 0.0000 21.5207 0.0000
# 4 0.0000 0.0000 0.0000 20.4427 0.0000 11.6897
# 5 7.1092 6.4518 21.5207 0.0000 44.2306 0.0000
# 6 0.0000 0.0000 0.0000 11.6897 0.0000 19.3693
#
#
#
# Elastic Compliance Matrix: (Units=1/GPa)
#
#
# Indices 1 2 3 4 5 6 
#
# 1 0.010931 -0.000733 -0.001607 0.000000 -0.000868 0.000000
# 2 -0.000733 0.020220 -0.001113 0.000000 -0.002290 0.000000
# 3 -0.001607 -0.001113 0.016077 0.000000 -0.007402 0.000000
# 4 0.000000 0.000000 0.000000 0.074695 0.000000 -0.045080
# 5 -0.000868 -0.002290 -0.007402 0.000000 0.026684 0.000000
# 6 0.000000 0.000000 0.000000 -0.045080 0.000000 0.078835
#
#
# Mechanical properties :
#
#
# Convention : Reuss Voigt Hill
#
# Bulk Modulus (GPa) = 24.79983 29.87277 27.33630
# Shear Modulus (GPa) = 20.17858 29.74082 24.95970
#
# Velocity S-wave (km/s) = 3.04851 3.70099 3.39048
# Velocity P-wave (km/s) = 4.87985 5.65873 5.28366
#
# Compressibility (1/GPa) = 0.04032285
#
# Stress axis : x y z
#
# Youngs Moduli (GPa) = 91.48403 49.45666 62.19986
#
# Poissons Ratio (x) = 0.03623 0.09995
# Poissons Ratio (y) = 0.06702 0.06923
# Poissons Ratio (z) = 0.14701 0.05504
#
# Static dielectric constant tensor:
#      x y z
#    x 1.826870 0.000000 0.024850 
#    y 0.000000 2.094610 0.000000 
#    z 0.024850 0.000000 1.874170 
# 
# From -- ./inp_files/308014.got.cif
#   From: 2010.05.17/outbox.cif.g08.bks.cpg/sg15_155_cif.got.tgz:308014.got - 2010.06.03 18:47:42.
