data_PCOD9271734
_publ_section_title
;
Structure prediction by ZEFSAII (Michael W. Deem and Ramdas Pophale) SiO2 
 PCOD9271734
Probable space group: C 2/C
;
_chemical_formula_sum "Si O2"
_cell_formula_units_Z 40
_cell_length_a 26.182893
_cell_length_b 12.779331
_cell_length_c 14.940205
_cell_angle_alpha 90.000000
_cell_angle_beta 20.006283
_cell_angle_gamma 90.000000
_cell_volume 1710.270543
_symmetry_space_group_name_H-M "C 2/C"
_symmetry_group_IT_number 15
_symmetry_cell_setting 'monoclinic'
loop_
_space_group_symop_operation_xyz
x,y,z
-x,y,1/2-z
-x,-y,-z
x,-y,1/2+z
1/2+x,1/2+y,z
1/2-x,1/2+y,1/2-z
1/2-x,1/2-y,-z
1/2+x,1/2-y,1/2+z
loop_
_atom_site_type_symbol
_atom_site_label
_atom_site_fract_x
_atom_site_fract_y
_atom_site_fract_z
Si Si1 0.677407 0.564609 0.665754
Si Si2 0.845593 0.429370 0.536424
Si Si3 0.499933 0.915981 0.921859
Si Si4 0.509566 0.378058 0.866832
Si Si5 0.723127 0.713678 0.881539
O O1 0.748213 0.480179 0.618895
O O2 0.588490 0.492666 0.741119
O O3 0.829497 0.615899 0.379037
O O4 0.565148 0.631683 0.911799
O O5 0.913580 0.520441 0.485501
O O6 0.763714 0.322125 0.695880
O O7 0.000000 0.377825 0.250000
O O8 0.500000 0.000000 0.000000
O O9 0.388986 0.823729 0.126979
O O10 0.631966 0.297561 0.625705
O O11 0.371656 0.365294 0.025560
#
# Coordination Sequence:
#
# PCOD9271734 Si02
#       5
#     8   8   8   8   8
#     4  10  21  37  62  87 120 158 203 247 304 364
#     4  10  21  36  61  92 114 157 210 247 298 367
#     4  11  22  39  63  92 124 163 202 254 308 363
#     4  10  20  36  61  86 118 159 199 246 307 351
#     4  11  21  38  63  87 121 159 203 255 300 361
#
# _framework density 23.388114000000002
#
# number of rings (size 3 to 8) (size 9 to 14) (size 15 to 20)
#    0.000    1.600    6.000    0.000    0.000    2.400 
#    0.000    0.000    8.800    3.600    0.000    0.000 
#    0.000    0.000    0.000    0.000    0.000    0.000 
#
# Total GULP energy -111358.584180 kJ/mol
# GULP energy per Si atom -5567.929209 kJ/mol
# Density = 2.333488 g / cm^3
# Si number density = 23.388114 Si / 1000 Ang^3
#
#
#
# Elastic Constant Matrix: (Units=GPa)
#
#
# Indices 1 2 3 4 5 6 
#
# 1 64.1691 20.6732 3.5291 0.0000 -14.7744 0.0000
# 2 20.6732 43.7239 31.7492 0.0001 -8.8971 -0.0001
# 3 3.5291 31.7492 158.3814 0.0001 -8.5102 -0.0001
# 4 0.0000 0.0001 0.0001 13.5892 -0.0001 -19.4431
# 5 -14.7744 -8.8971 -8.5102 -0.0001 33.3420 0.0001
# 6 0.0000 -0.0001 -0.0001 -19.4431 0.0001 21.5504
#
#
#
# Elastic Compliance Matrix: (Units=1/GPa)
#
#
# Indices 1 2 3 4 5 6 
#
# 1 0.020098 -0.009421 0.001809 0.000000 0.006853 0.000000
# 2 -0.009421 0.032360 -0.006121 0.000000 0.002898 0.000000
# 3 0.001809 -0.006121 0.007560 0.000000 0.001098 0.000000
# 4 0.000000 0.000000 0.000000 -0.252996 0.000000 -0.228257
# 5 0.006853 0.002898 0.001098 0.000000 0.034082 0.000000
# 6 0.000000 0.000000 0.000000 -0.228257 0.000000 -0.159534
#
#
# Mechanical properties :
#
#
# Convention : Reuss Voigt Hill
#
# Bulk Modulus (GPa) = 30.72221 42.01972 36.37096
# Shear Modulus (GPa) = -17.84991 27.71783 4.93396
#
# Velocity S-wave (km/s) = -2.76561 3.44630 1.45402
# Velocity P-wave (km/s) = 1.72226 5.81732 4.28995
#
# Compressibility (1/GPa) = 0.03254974
#
# Stress axis : x y z
#
# Youngs Moduli (GPa) = 49.75740 30.90248 132.28187
#
# Poissons Ratio (x) = 0.29115 -0.23931
# Poissons Ratio (y) = 0.46879 0.80973
# Poissons Ratio (z) = -0.09001 0.18916
#
# Static dielectric constant tensor:
#      x y z
#    x 1.882470 0.000000 0.071160 
#    y 0.000000 1.939990 0.000000 
#    z 0.071160 0.000000 1.946510 
# 
# From -- ./inp_files/133060.got.cif
#   From: 2010.05.17/outbox.cif.g08.bks.cpg/sg15_67_cif.got.tgz:133060.got - 2010.06.03 18:47:42.
