data_PCOD9272015
_publ_section_title
;
Structure prediction by ZEFSAII (Michael W. Deem and Ramdas Pophale) SiO2 
 PCOD9272015
Probable space group: C 2/C
;
_chemical_formula_sum "Si O2"
_cell_formula_units_Z 56
_cell_length_a 14.369031
_cell_length_b 18.816180
_cell_length_c 15.806683
_cell_angle_alpha 90.000000
_cell_angle_beta 145.049590
_cell_angle_gamma 90.000000
_cell_volume 2448.238203
_symmetry_space_group_name_H-M "C 2/C"
_symmetry_group_IT_number 15
_symmetry_cell_setting 'monoclinic'
loop_
_space_group_symop_operation_xyz
x,y,z
-x,y,1/2-z
-x,-y,-z
x,-y,1/2+z
1/2+x,1/2+y,z
1/2-x,1/2+y,1/2-z
1/2-x,1/2-y,-z
1/2+x,1/2-y,1/2+z
loop_
_atom_site_type_symbol
_atom_site_label
_atom_site_fract_x
_atom_site_fract_y
_atom_site_fract_z
Si Si1 0.023673 0.591736 0.361262
Si Si2 0.950068 0.667291 0.482486
Si Si3 0.449387 0.573002 0.917538
Si Si4 0.647338 0.487628 0.424093
Si Si5 0.585074 0.036778 0.642214
Si Si6 0.888810 0.754867 0.763531
Si Si7 0.664286 0.353421 0.009656
O O1 0.993022 0.641605 0.419557
O O2 0.195398 0.550996 0.495971
O O3 0.000000 0.623562 0.250000
O O4 0.901195 0.523859 0.277337
O O5 0.968427 0.603674 0.564851
O O6 0.075216 0.722518 0.616385
O O7 0.767513 0.694649 0.349321
O O8 0.571437 0.571804 0.931047
O O9 0.262484 0.564245 0.751080
O O10 0.500000 0.500000 0.000000
O O11 0.440429 0.633011 0.981990
O O12 0.500000 0.502099 0.250000
O O13 0.687672 0.566473 0.492072
O O14 0.500000 0.000000 0.500000
O O15 0.825277 0.689654 0.656990
O O16 0.052691 0.801107 0.870777
#
# Coordination Sequence:
#
# PCOD9272015 Si02
#       7
#     8   8   8   8   8   8   8
#     4  11  24  38  62  97 130 159 197 270 336 364
#     4  10  22  40  66  88 122 163 224 249 305 369
#     4  10  20  36  63  89 117 160 212 261 303 362
#     4  11  24  38  62  97 130 159 197 270 336 364
#     4  10  20  36  63  89 117 160 212 261 303 362
#     4  10  22  40  68  88 116 172 226 252 280 374
#     4  10  22  40  66  88 122 163 224 249 305 369
#
# _framework density 22.873591999999999
#
# number of rings (size 3 to 8) (size 9 to 14) (size 15 to 20)
#    0.000    1.714    1.429    3.429   12.000    0.000 
#    0.000    1.429    0.000    0.000    0.000    0.000 
#    0.000    0.000    0.000    0.000    0.000    0.000 
#
# Total GULP energy -156177.689930 kJ/mol
# GULP energy per Si atom -5577.774640 kJ/mol
# Density = 2.282153 g / cm^3
# Si number density = 22.873592 Si / 1000 Ang^3
#
#
#
# Elastic Constant Matrix: (Units=GPa)
#
#
# Indices 1 2 3 4 5 6 
#
# 1 87.4175 15.0479 24.2861 -0.0006 3.1270 -0.0002
# 2 15.0479 70.9681 43.1483 -0.0009 -0.3326 -0.0004
# 3 24.2861 43.1483 146.0247 -0.0010 -3.7835 -0.0008
# 4 -0.0006 -0.0009 -0.0010 41.8713 -0.0005 -0.7615
# 5 3.1270 -0.3326 -3.7835 -0.0005 37.3527 -0.0003
# 6 -0.0002 -0.0004 -0.0008 -0.7615 -0.0003 36.8091
#
#
#
# Elastic Compliance Matrix: (Units=1/GPa)
#
#
# Indices 1 2 3 4 5 6 
#
# 1 0.012202 -0.001634 -0.001578 0.000000 -0.001196 0.000000
# 2 -0.001634 0.017400 -0.004875 0.000000 -0.000202 0.000000
# 3 -0.001578 -0.004875 0.008576 0.000000 0.000957 0.000000
# 4 0.000000 0.000000 0.000000 0.023892 0.000000 0.000494
# 5 -0.001196 -0.000202 0.000957 0.000000 0.026967 0.000000
# 6 0.000000 0.000000 0.000000 0.000494 0.000000 0.027177
#
#
# Mechanical properties :
#
#
# Convention : Reuss Voigt Hill
#
# Bulk Modulus (GPa) = 45.44385 52.15276 48.79831
# Shear Modulus (GPa) = 35.78543 38.00184 36.89364
#
# Velocity S-wave (km/s) = 3.95965 4.08043 4.02049
# Velocity P-wave (km/s) = 6.38871 6.71192 6.55231
#
# Compressibility (1/GPa) = 0.02200518
#
# Stress axis : x y z
#
# Youngs Moduli (GPa) = 81.95629 57.47023 116.60635
#
# Poissons Ratio (x) = 0.09389 0.18396
# Poissons Ratio (y) = 0.13389 0.56847
# Poissons Ratio (z) = 0.12929 0.28017
#
# Static dielectric constant tensor:
#      x y z
#    x 1.968100 0.000000 -0.037430 
#    y 0.000000 1.926540 0.000000 
#    z -0.037430 0.000000 1.866430 
# 
# From -- ./inp_files/206978.got.cif
#   From: 2010.05.17/outbox.cif.g08.bks.cpg/sg15_104_cif.got.tgz:206978.got - 2010.06.03 18:47:42.
