data_PCOD9272559
_publ_section_title
;
Structure prediction by ZEFSAII (Michael W. Deem and Ramdas Pophale) SiO2 
 PCOD9272559
Probable space group: C 2/C
;
_chemical_formula_sum "Si O2"
_cell_formula_units_Z 56
_cell_length_a 15.021925
_cell_length_b 15.560627
_cell_length_c 16.644727
_cell_angle_alpha 90.000000
_cell_angle_beta 125.257742
_cell_angle_gamma 90.000000
_cell_volume 3177.015652
_symmetry_space_group_name_H-M "C 2/C"
_symmetry_group_IT_number 15
_symmetry_cell_setting 'monoclinic'
loop_
_space_group_symop_operation_xyz
x,y,z
-x,y,1/2-z
-x,-y,-z
x,-y,1/2+z
1/2+x,1/2+y,z
1/2-x,1/2+y,1/2-z
1/2-x,1/2-y,-z
1/2+x,1/2-y,1/2+z
loop_
_atom_site_type_symbol
_atom_site_label
_atom_site_fract_x
_atom_site_fract_y
_atom_site_fract_z
Si Si1 0.465303 0.626086 0.941788
Si Si2 0.284734 0.289781 0.749137
Si Si3 0.415104 0.963667 0.778262
Si Si4 0.936308 0.274136 0.800780
Si Si5 0.837654 0.045285 0.364254
Si Si6 0.158455 0.740643 0.019824
Si Si7 0.529982 0.851986 0.170217
O O1 0.477287 0.701451 0.882828
O O2 0.388773 0.547792 0.872142
O O3 0.404331 0.671946 0.985555
O O4 0.581101 0.586105 0.027420
O O5 0.195400 0.265047 0.770823
O O6 0.335214 0.382884 0.793215
O O7 0.218506 0.290179 0.631625
O O8 0.375303 0.217212 0.792316
O O9 0.500000 0.966520 0.750000
O O10 0.443091 0.873181 0.835016
O O11 0.290294 0.963142 0.681611
O O12 0.431305 0.052580 0.832589
O O13 0.000000 0.268092 0.750000
O O14 0.250000 0.750000 0.000000
O O15 0.070280 0.676642 0.936735
O O16 0.500000 0.850178 0.250000
#
# Coordination Sequence:
#
# PCOD9272559 Si02
#       7
#     8   8   8   8   8   8   8
#     4  10  21  37  62  82 113 156 200 240 297 348
#     4  10  20  37  58  85 123 150 192 244 287 349
#     4   9  19  34  57  79 112 149 190 233 290 347
#     4   9  19  38  58  79 111 154 196 241 278 337
#     4  10  20  38  58  82 112 160 197 237 295 356
#     4  11  21  35  61  94 121 151 190 244 306 362
#     4  11  20  35  62  91 118 156 188 237 307 354
#
# _framework density 17.626605000000001
#
# number of rings (size 3 to 8) (size 9 to 14) (size 15 to 20)
#    0.000    2.000    2.857    1.714    2.000    0.000 
#    0.000   16.429    0.000    0.000    0.000    0.000 
#    0.000    0.000    0.000    0.000    0.000    0.000 
#
# Total GULP energy -155883.524190 kJ/mol
# GULP energy per Si atom -5567.268721 kJ/mol
# Density = 1.758649 g / cm^3
# Si number density = 17.626605 Si / 1000 Ang^3
#
#
#
# Elastic Constant Matrix: (Units=GPa)
#
#
# Indices 1 2 3 4 5 6 
#
# 1 109.9930 58.0069 38.4177 0.0000 8.6743 0.0000
# 2 58.0069 156.8240 64.9050 0.0000 17.6391 0.0000
# 3 38.4177 64.9050 98.6999 0.0000 23.5910 0.0000
# 4 0.0000 0.0000 0.0000 30.6200 0.0000 3.7533
# 5 8.6743 17.6391 23.5910 0.0000 23.8405 0.0000
# 6 0.0000 0.0000 0.0000 3.7533 0.0000 22.4769
#
#
#
# Elastic Compliance Matrix: (Units=1/GPa)
#
#
# Indices 1 2 3 4 5 6 
#
# 1 0.011685 -0.003365 -0.002507 0.000000 0.000719 0.000000
# 2 -0.003365 0.009749 -0.004807 0.000000 -0.001233 0.000000
# 3 -0.002507 -0.004807 0.017290 0.000000 -0.012640 0.000000
# 4 0.000000 0.000000 0.000000 0.033341 0.000000 -0.005567
# 5 0.000719 -0.001233 -0.012640 0.000000 0.055104 0.000000
# 6 0.000000 0.000000 0.000000 -0.005567 0.000000 0.045420
#
#
# Mechanical properties :
#
#
# Convention : Reuss Voigt Hill
#
# Bulk Modulus (GPa) = 57.58431 76.46400 67.02416
# Shear Modulus (GPa) = 25.03312 28.99999 27.01655
#
# Velocity S-wave (km/s) = 3.77263 4.06056 3.91924
# Velocity P-wave (km/s) = 7.19144 8.09062 7.65425
#
# Compressibility (1/GPa) = 0.01736584
#
# Stress axis : x y z
#
# Youngs Moduli (GPa) = 85.57768 102.57078 57.83815
#
# Poissons Ratio (x) = 0.34520 0.14501
# Poissons Ratio (y) = 0.28801 0.27801
# Poissons Ratio (z) = 0.21455 0.49302
#
# Static dielectric constant tensor:
#      x y z
#    x 1.631030 0.000000 0.007400 
#    y 0.000000 1.636620 0.000000 
#    z 0.007400 0.000000 1.585210 
# 
# From -- ./inp_files/178422.got.cif
#   From: 2010.05.17/outbox.cif.g08.bks.cpg/sg15_90_cif.got.tgz:178422.got - 2010.06.03 18:47:42.
