data_PCOD9272131
_publ_section_title
;
Structure prediction by ZEFSAII (Michael W. Deem and Ramdas Pophale) SiO2 
 PCOD9272131
Probable space group: C 2/C
;
_chemical_formula_sum "Si O2"
_cell_formula_units_Z 56
_cell_length_a 14.872675
_cell_length_b 20.127823
_cell_length_c 17.900682
_cell_angle_alpha 90.000000
_cell_angle_beta 149.887413
_cell_angle_gamma 90.000000
_cell_volume 2688.439397
_symmetry_space_group_name_H-M "C 2/C"
_symmetry_group_IT_number 15
_symmetry_cell_setting 'monoclinic'
loop_
_space_group_symop_operation_xyz
x,y,z
-x,y,1/2-z
-x,-y,-z
x,-y,1/2+z
1/2+x,1/2+y,z
1/2-x,1/2+y,1/2-z
1/2-x,1/2-y,-z
1/2+x,1/2-y,1/2+z
loop_
_atom_site_type_symbol
_atom_site_label
_atom_site_fract_x
_atom_site_fract_y
_atom_site_fract_z
Si Si1 0.023207 0.400601 0.004791
Si Si2 0.719814 0.797415 0.622065
Si Si3 0.452327 0.338338 0.535328
Si Si4 0.112631 0.927989 0.518576
Si Si5 0.795408 0.059582 0.573472
Si Si6 0.263044 0.005966 0.752614
Si Si7 0.687902 0.408922 0.928346
O O1 0.952686 0.326925 0.959880
O O2 0.851261 0.448792 0.867426
O O3 0.161936 0.409562 0.037562
O O4 0.121074 0.428887 0.148488
O O5 0.682825 0.721167 0.579703
O O6 0.729628 0.845174 0.555730
O O7 0.891440 0.809901 0.797889
O O8 0.539013 0.373495 0.524817
O O9 0.348651 0.390981 0.512260
O O10 0.198799 0.905797 0.503209
O O11 0.940145 0.973777 0.374124
O O12 0.251413 0.973676 0.663479
O O13 0.000000 0.062078 0.750000
O O14 0.732972 0.982738 0.519761
O O15 0.500000 0.415864 0.750000
#
# Coordination Sequence:
#
# PCOD9272131 Si02
#       7
#     8   8   8   8   8   8   8
#     4  11  22  39  63  96 128 169 216 260 322 383
#     4  11  24  42  64  90 130 177 216 259 309 383
#     4  11  24  42  64  90 130 177 216 259 309 383
#     4  11  22  39  63  96 128 169 216 260 322 383
#     4  11  22  38  65  99 131 166 204 269 335 380
#     4  10  20  36  64  90 126 162 208 270 316 370
#     4   9  19  37  63  94 127 162 205 257 322 377
#
# _framework density 20.829927999999999
#
# number of rings (size 3 to 8) (size 9 to 14) (size 15 to 20)
#    0.000    1.429    2.857    3.857    6.000    0.571 
#    0.000    2.143    0.000    0.000    0.000    0.000 
#    0.000    0.000    0.000    0.000    0.000    0.000 
#
# Total GULP energy -156370.278630 kJ/mol
# GULP energy per Si atom -5584.652808 kJ/mol
# Density = 2.078252 g / cm^3
# Si number density = 20.829928 Si / 1000 Ang^3
#
#
#
# Elastic Constant Matrix: (Units=GPa)
#
#
# Indices 1 2 3 4 5 6 
#
# 1 110.2037 26.7446 6.7900 0.0062 -8.0219 -0.0008
# 2 26.7446 37.6703 1.5117 -0.0017 -0.3192 -0.0085
# 3 6.7900 1.5117 71.3642 -0.0086 -6.9348 -0.0067
# 4 0.0062 -0.0017 -0.0086 24.0468 -0.0061 7.0458
# 5 -8.0219 -0.3192 -6.9348 -0.0061 23.4399 -0.0019
# 6 -0.0008 -0.0085 -0.0067 7.0458 -0.0019 23.8816
#
#
#
# Elastic Compliance Matrix: (Units=1/GPa)
#
#
# Indices 1 2 3 4 5 6 
#
# 1 0.011305 -0.007973 -0.000557 -0.000002 0.003596 -0.000002
# 2 -0.007973 0.032193 -0.000150 0.000001 -0.002335 0.000011
# 3 -0.000557 -0.000150 0.014466 0.000006 0.004087 0.000003
# 4 -0.000002 0.000001 0.000006 0.045521 0.000012 -0.013430
# 5 0.003596 -0.002335 0.004087 0.000012 0.045070 0.000001
# 6 -0.000002 0.000011 0.000003 -0.013430 0.000001 0.045835
#
#
# Mechanical properties :
#
#
# Convention : Reuss Voigt Hill
#
# Bulk Modulus (GPa) = 24.62906 32.14786 28.38846
# Shear Modulus (GPa) = 22.19395 26.55313 24.37354
#
# Velocity S-wave (km/s) = 3.26772 3.57425 3.42441
# Velocity P-wave (km/s) = 5.10753 5.70094 5.41237
#
# Compressibility (1/GPa) = 0.04060244
#
# Stress axis : x y z
#
# Youngs Moduli (GPa) = 88.45495 31.06247 69.12763
#
# Poissons Ratio (x) = 0.24767 0.03853
# Poissons Ratio (y) = 0.70529 0.01038
# Poissons Ratio (z) = 0.04930 0.00466
#
# Static dielectric constant tensor:
#      x y z
#    x 1.795450 0.000000 0.000170 
#    y 0.000000 1.723630 0.000000 
#    z 0.000170 0.000000 1.779500 
# 
# From -- ./inp_files/206971.got.cif
#   From: 2010.05.17/outbox.cif.g08.bks.cpg/sg15_104_cif.got.tgz:206971.got - 2010.06.03 18:47:42.
