data_PCOD9272542
_publ_section_title
;
Structure prediction by ZEFSAII (Michael W. Deem and Ramdas Pophale) SiO2 
 PCOD9272542
Probable space group: C 2/C
;
_chemical_formula_sum "Si O2"
_cell_formula_units_Z 56
_cell_length_a 12.664070
_cell_length_b 27.963497
_cell_length_c 7.729163
_cell_angle_alpha 90.000000
_cell_angle_beta 54.845789
_cell_angle_gamma 90.000000
_cell_volume 2237.901412
_symmetry_space_group_name_H-M "C 2/C"
_symmetry_group_IT_number 15
_symmetry_cell_setting 'monoclinic'
loop_
_space_group_symop_operation_xyz
x,y,z
-x,y,1/2-z
-x,-y,-z
x,-y,1/2+z
1/2+x,1/2+y,z
1/2-x,1/2+y,1/2-z
1/2-x,1/2-y,-z
1/2+x,1/2-y,1/2+z
loop_
_atom_site_type_symbol
_atom_site_label
_atom_site_fract_x
_atom_site_fract_y
_atom_site_fract_z
Si Si1 0.975118 0.554724 0.980776
Si Si2 0.287356 0.569918 0.349774
Si Si3 0.289774 0.888854 0.220861
Si Si4 0.901658 0.971318 0.217752
Si Si5 0.647145 0.214613 0.197205
Si Si6 0.864132 0.199370 0.570143
Si Si7 0.866747 0.162283 0.172716
O O1 0.068855 0.594846 0.968953
O O2 0.000000 0.556207 0.750000
O O3 0.000000 0.500000 0.000000
O O4 0.828281 0.562998 0.173748
O O5 0.225848 0.601668 0.559179
O O6 0.327568 0.517240 0.369392
O O7 0.393081 0.605741 0.179044
O O8 0.196189 0.930943 0.245101
O O9 0.246137 0.834376 0.238836
O O10 0.000000 0.945900 0.250000
O O11 0.000000 0.000000 0.000000
O O12 0.500000 0.208623 0.250000
O O13 0.633268 0.245166 0.388135
O O14 0.739549 0.170903 0.176090
O O15 0.750000 0.250000 0.000000
O O16 0.857922 0.188090 0.370659
O O17 0.999310 0.181886 0.524836
#
# Coordination Sequence:
#
# PCOD9272542 Si02
#       7
#     8   8   8   8   8   8   8
#     4  10  20  37  58  83 122 165 207 257 310 363
#     4  10  21  39  62  88 122 163 213 266 308 372
#     4  10  21  39  62  90 124 166 214 264 312 372
#     4  12  22  34  57  89 125 165 210 257 314 377
#     4  12  25  46  69  99 141 170 208 276 347 404
#     4  10  22  43  70  99 128 171 223 272 324 398
#     4  10  22  43  71  95 127 174 224 268 324 399
#
# _framework density 25.023444000000001
#
# number of rings (size 3 to 8) (size 9 to 14) (size 15 to 20)
#    0.000    1.429    4.286    1.286    2.000    1.714 
#    2.571    2.143    0.000    0.000    0.000    0.000 
#    0.000    0.000    0.000    0.000    0.000    0.000 
#
# Total GULP energy -155990.104745 kJ/mol
# GULP energy per Si atom -5571.075169 kJ/mol
# Density = 2.496649 g / cm^3
# Si number density = 25.023444 Si / 1000 Ang^3
#
#
#
# Elastic Constant Matrix: (Units=GPa)
#
#
# Indices 1 2 3 4 5 6 
#
# 1 137.6289 18.9659 9.8559 0.0000 -15.0072 0.0000
# 2 18.9659 75.5255 -20.4606 0.0000 1.3013 0.0000
# 3 9.8559 -20.4606 23.2624 0.0000 2.6747 0.0000
# 4 0.0000 0.0000 0.0000 26.4270 0.0000 -2.7118
# 5 -15.0072 1.3013 2.6747 0.0000 31.7672 0.0000
# 6 0.0000 0.0000 0.0000 -2.7118 0.0000 20.2553
#
#
#
# Elastic Compliance Matrix: (Units=1/GPa)
#
#
# Indices 1 2 3 4 5 6 
#
# 1 0.009097 -0.004701 -0.008589 0.000000 0.005213 0.000000
# 2 -0.004701 0.019941 0.020075 0.000000 -0.004728 0.000000
# 3 -0.008589 0.020075 0.065478 0.000000 -0.010393 0.000000
# 4 0.000000 0.000000 0.000000 0.038367 0.000000 0.005137
# 5 0.005213 -0.004728 -0.010393 0.000000 0.035011 0.000000
# 6 0.000000 0.000000 0.000000 0.005137 0.000000 0.050058
#
#
# Mechanical properties :
#
#
# Convention : Reuss Voigt Hill
#
# Bulk Modulus (GPa) = 9.25186 28.12657 18.68921
# Shear Modulus (GPa) = 20.79771 30.89360 25.84566
#
# Velocity S-wave (km/s) = 2.88606 3.51748 3.21730
# Velocity P-wave (km/s) = 3.84852 5.26891 4.61370
#
# Compressibility (1/GPa) = 0.10808640
#
# Stress axis : x y z
#
# Youngs Moduli (GPa) = 109.92311 50.14803 15.27221
#
# Poissons Ratio (x) = 0.23575 0.13117
# Poissons Ratio (y) = 0.51676 -0.30658
# Poissons Ratio (z) = 0.94409 -1.00670
#
# Static dielectric constant tensor:
#      x y z
#    x 2.057790 0.000000 0.038900 
#    y 0.000000 2.013520 0.000000 
#    z 0.038900 0.000000 2.143840 
# 
# From -- ./inp_files/35579.got.cif
#   From: 2010.05.17/outbox.cif.g08.bks.cpg/sg15_18_cif.got.tgz:35579.got - 2010.06.03 18:47:42.
