data_PCOD9272447
_publ_section_title
;
Structure prediction by ZEFSAII (Michael W. Deem and Ramdas Pophale) SiO2 
 PCOD9272447
Probable space group: C 2/C
;
_chemical_formula_sum "Si O2"
_cell_formula_units_Z 56
_cell_length_a 15.595691
_cell_length_b 17.900743
_cell_length_c 21.553809
_cell_angle_alpha 90.000000
_cell_angle_beta 151.075909
_cell_angle_gamma 90.000000
_cell_volume 2910.256720
_symmetry_space_group_name_H-M "C 2/C"
_symmetry_group_IT_number 15
_symmetry_cell_setting 'monoclinic'
loop_
_space_group_symop_operation_xyz
x,y,z
-x,y,1/2-z
-x,-y,-z
x,-y,1/2+z
1/2+x,1/2+y,z
1/2-x,1/2+y,1/2-z
1/2-x,1/2-y,-z
1/2+x,1/2-y,1/2+z
loop_
_atom_site_type_symbol
_atom_site_label
_atom_site_fract_x
_atom_site_fract_y
_atom_site_fract_z
Si Si1 0.574373 0.623236 0.058979
Si Si2 0.689708 0.002085 0.228955
Si Si3 0.150811 0.963875 0.482851
Si Si4 0.909678 0.265245 0.761812
Si Si5 0.338337 0.403492 0.220260
Si Si6 0.880981 0.616141 0.040176
Si Si7 0.306600 0.899625 0.147289
O O1 0.649190 0.561020 0.155401
O O2 0.723887 0.687674 0.146011
O O3 0.568768 0.575307 0.991741
O O4 0.372874 0.646825 0.949009
O O5 0.705131 0.943850 0.182848
O O6 0.662995 0.954082 0.274464
O O7 0.529051 0.057223 0.115418
O O8 0.307984 0.910950 0.559810
O O9 0.006304 0.957490 0.337093
O O10 0.235227 0.043735 0.549389
O O11 0.887171 0.180560 0.770060
O O12 0.000000 0.266540 0.750000
O O13 0.036377 0.304279 0.892686
O O14 0.262311 0.388904 0.104274
O O15 0.500000 0.867530 0.250000
#
# Coordination Sequence:
#
# PCOD9272447 Si02
#       7
#     8   8   8   8   8   8   8
#     4  10  20  37  62  86 119 156 210 258 291 352
#     4  10  20  37  56  85 121 159 201 253 291 362
#     4  11  19  35  57  86 121 145 201 247 299 356
#     4  11  24  39  60  88 126 167 200 246 299 374
#     4  12  24  36  55  87 133 166 192 238 315 377
#     4  11  23  36  56  86 122 168 197 238 308 364
#     4  11  19  35  65  87 108 155 211 269 296 331
#
# _framework density 19.242289
#
# number of rings (size 3 to 8) (size 9 to 14) (size 15 to 20)
#    0.000    1.143    5.714    2.571    2.000    1.143 
#    0.000    0.000    0.000    0.857    0.000    0.000 
#    0.000    0.000    0.000    0.000    0.000    0.000 
#
# Total GULP energy -156003.644406 kJ/mol
# GULP energy per Si atom -5571.558729 kJ/mol
# Density = 1.919849 g / cm^3
# Si number density = 19.242289 Si / 1000 Ang^3
#
#
#
# Elastic Constant Matrix: (Units=GPa)
#
#
# Indices 1 2 3 4 5 6 
#
# 1 84.3523 35.9755 32.6632 0.0018 18.5068 0.0003
# 2 35.9755 67.6106 12.7132 0.0057 -0.7390 0.0014
# 3 32.6632 12.7132 77.2546 0.0059 4.1865 0.0019
# 4 0.0018 0.0057 0.0059 18.7762 0.0004 -4.9381
# 5 18.5068 -0.7390 4.1865 0.0004 37.2676 0.0002
# 6 0.0003 0.0014 0.0019 -4.9381 0.0002 14.5263
#
#
#
# Elastic Compliance Matrix: (Units=1/GPa)
#
#
# Indices 1 2 3 4 5 6 
#
# 1 0.020805 -0.009930 -0.006632 0.000004 -0.009783 0.000003
# 2 -0.009930 0.020015 0.000620 -0.000007 0.005258 -0.000004
# 3 -0.006632 0.000620 0.015562 -0.000005 0.001557 -0.000004
# 4 0.000004 -0.000007 -0.000005 0.058488 -0.000002 0.019883
# 5 -0.009783 0.005258 0.001557 -0.000002 0.031621 -0.000002
# 6 0.000003 -0.000004 -0.000004 0.019883 -0.000002 0.075599
#
#
# Mechanical properties :
#
#
# Convention : Reuss Voigt Hill
#
# Bulk Modulus (GPa) = 40.82096 43.54682 42.18389
# Shear Modulus (GPa) = 19.07380 23.97173 21.52277
#
# Velocity S-wave (km/s) = 3.15182 3.53340 3.34805
# Velocity P-wave (km/s) = 5.87414 6.27108 6.07585
#
# Compressibility (1/GPa) = 0.02449722
#
# Stress axis : x y z
#
# Youngs Moduli (GPa) = 48.06645 49.96195 64.25996
#
# Poissons Ratio (x) = 0.49612 0.42616
# Poissons Ratio (y) = 0.47730 -0.03982
# Poissons Ratio (z) = 0.31877 -0.03096
#
# Static dielectric constant tensor:
#      x y z
#    x 1.738620 0.000000 0.043830 
#    y 0.000000 1.637050 0.000000 
#    z 0.043830 0.000000 1.766030 
# 
# From -- ./inp_files/98242.got.cif
#   From: 2010.05.17/outbox.cif.g08.bks.cpg/sg15_50_cif.got.tgz:98242.got - 2010.06.03 18:47:42.
