data_PCOD9272933
_publ_section_title
;
Structure prediction by ZEFSAII (Michael W. Deem and Ramdas Pophale) SiO2 
 PCOD9272933
Probable space group: C 2/C
;
_chemical_formula_sum "Si O2"
_cell_formula_units_Z 40
_cell_length_a 11.972971
_cell_length_b 14.268499
_cell_length_c 14.916999
_cell_angle_alpha 90.000000
_cell_angle_beta 40.276453
_cell_angle_gamma 90.000000
_cell_volume 1647.457733
_symmetry_space_group_name_H-M "C 2/C"
_symmetry_group_IT_number 15
_symmetry_cell_setting 'monoclinic'
loop_
_space_group_symop_operation_xyz
x,y,z
-x,y,1/2-z
-x,-y,-z
x,-y,1/2+z
1/2+x,1/2+y,z
1/2-x,1/2+y,1/2-z
1/2-x,1/2-y,-z
1/2+x,1/2-y,1/2+z
loop_
_atom_site_type_symbol
_atom_site_label
_atom_site_fract_x
_atom_site_fract_y
_atom_site_fract_z
Si Si1 0.204481 0.921130 0.644681
Si Si2 0.765581 0.277591 0.843666
Si Si3 0.123308 0.954710 0.350849
Si Si4 0.218703 0.899049 0.034475
Si Si5 0.124873 0.764434 0.412004
O O1 0.225439 0.968979 0.730571
O O2 0.286391 0.818819 0.588779
O O3 0.000000 0.911566 0.750000
O O4 0.279410 0.000259 0.532291
O O5 0.799886 0.359604 0.893457
O O6 0.884753 0.274753 0.684202
O O7 0.767630 0.181241 0.899105
O O8 0.565827 0.285410 0.934459
O O9 0.215157 0.865628 0.340867
O O10 0.000000 0.000000 0.500000
O O11 0.983046 0.912936 0.366818
#
# Coordination Sequence:
#
# PCOD9272933 Si02
#       5
#     8   8   8   8   8
#     4  10  20  37  61  90 126 169 207 255 316 379
#     4  10  21  37  64  92 124 160 216 263 308 365
#     4  10  20  38  62  86 125 169 210 245 317 387
#     4   9  19  35  60  89 121 164 209 253 308 369
#     4  11  22  39  65  93 124 166 210 262 315 372
#
# _framework density 24.279834000000001
#
# number of rings (size 3 to 8) (size 9 to 14) (size 15 to 20)
#    0.000    2.000    2.000    2.400    2.800    3.200 
#    0.000    9.000    0.000    0.000    0.000    0.000 
#    0.000    0.000    0.000    0.000    0.000    0.000 
#
# Total GULP energy -111763.169475 kJ/mol
# GULP energy per Si atom -5588.158474 kJ/mol
# Density = 2.422457 g / cm^3
# Si number density = 24.279834 Si / 1000 Ang^3
#
#
#
# Elastic Constant Matrix: (Units=GPa)
#
#
# Indices 1 2 3 4 5 6 
#
# 1 29.9164 40.3813 1.9823 -0.0002 -1.9876 0.0001
# 2 40.3813 191.1774 18.0570 -0.0001 1.4037 0.0001
# 3 1.9823 18.0570 75.4985 -0.0004 7.3898 0.0003
# 4 -0.0002 -0.0001 -0.0004 36.3987 0.0003 4.9449
# 5 -1.9876 1.4037 7.3898 0.0003 23.7625 -0.0002
# 6 0.0001 0.0001 0.0003 4.9449 -0.0002 52.0362
#
#
#
# Elastic Compliance Matrix: (Units=1/GPa)
#
#
# Indices 1 2 3 4 5 6 
#
# 1 0.047283 -0.010090 0.000749 0.000000 0.004318 0.000000
# 2 -0.010090 0.007505 -0.001448 0.000000 -0.000837 0.000000
# 3 0.000749 -0.001448 0.013983 0.000000 -0.004200 0.000000
# 4 0.000000 0.000000 0.000000 0.027833 0.000000 -0.002645
# 5 0.004318 -0.000837 -0.004200 0.000000 0.043800 0.000000
# 6 0.000000 0.000000 0.000000 -0.002645 0.000000 0.019469
#
#
# Mechanical properties :
#
#
# Convention : Reuss Voigt Hill
#
# Bulk Modulus (GPa) = 21.18942 46.38150 33.78546
# Shear Modulus (GPa) = 25.35740 38.18426 31.77083
#
# Velocity S-wave (km/s) = 3.23519 3.97000 3.62128
# Velocity P-wave (km/s) = 4.76460 6.33710 5.60626
#
# Compressibility (1/GPa) = 0.04719336
#
# Stress axis : x y z
#
# Youngs Moduli (GPa) = 21.14928 133.24685 71.51480
#
# Poissons Ratio (x) = 1.34443 -0.05357
# Poissons Ratio (y) = 0.21339 0.10356
# Poissons Ratio (z) = -0.01584 0.19296
#
# Static dielectric constant tensor:
#      x y z
#    x 1.981620 0.000000 0.023160 
#    y 0.000000 2.012040 0.000000 
#    z 0.023160 0.000000 1.929230 
# 
# From -- ./inp_files/126585.got.cif
#   From: 2010.05.17/outbox.cif.g08.bks.cpg/sg15_64_cif.got.tgz:126585.got - 2010.06.03 18:47:42.
