data_PCOD9272853
_publ_section_title
;
Structure prediction by ZEFSAII (Michael W. Deem and Ramdas Pophale) SiO2 
 PCOD9272853
Probable space group: C 2/C
;
_chemical_formula_sum "Si O2"
_cell_formula_units_Z 60
_cell_length_a 16.105504
_cell_length_b 11.562509
_cell_length_c 20.321199
_cell_angle_alpha 90.000000
_cell_angle_beta 44.448100
_cell_angle_gamma 90.000000
_cell_volume 2649.944927
_symmetry_space_group_name_H-M "C 2/C"
_symmetry_group_IT_number 15
_symmetry_cell_setting 'monoclinic'
loop_
_space_group_symop_operation_xyz
x,y,z
-x,y,1/2-z
-x,-y,-z
x,-y,1/2+z
1/2+x,1/2+y,z
1/2-x,1/2+y,1/2-z
1/2-x,1/2-y,-z
1/2+x,1/2-y,1/2+z
loop_
_atom_site_type_symbol
_atom_site_label
_atom_site_fract_x
_atom_site_fract_y
_atom_site_fract_z
Si Si1 0.040281 0.127360 0.024973
Si Si2 0.377955 0.759956 0.726103
Si Si3 0.885372 0.540603 0.140363
Si Si4 0.675375 0.291568 0.945436
Si Si5 0.231108 0.060474 0.544100
Si Si6 0.500000 0.582491 0.750000
Si Si7 0.403812 0.125198 0.981395
Si Si8 0.346776 0.546360 0.660670
O O1 0.946694 0.181355 0.023883
O O2 0.963842 0.033051 0.108324
O O3 0.092108 0.238094 0.032173
O O4 0.139719 0.062799 0.925379
O O5 0.444719 0.864221 0.653970
O O6 0.280912 0.804533 0.832460
O O7 0.461587 0.670633 0.715090
O O8 0.329097 0.676652 0.696945
O O9 0.872170 0.591429 0.074946
O O10 0.758885 0.519486 0.244429
O O11 0.963819 0.426408 0.098898
O O12 0.695309 0.158705 0.957087
O O13 0.693510 0.373652 0.998510
O O14 0.118066 0.024754 0.653773
O O15 0.314015 0.949303 0.488195
#
# Coordination Sequence:
#
# PCOD9272853 Si02
#       8
#     8   8   8   8   8   4   8   8
#     4  11  22  40  63  94 130 173 221 276 330 404
#     4  11  21  38  62  94 125 165 219 275 324 394
#     4  11  22  37  60  91 131 167 213 280 340 388
#     4  10  20  37  60  94 133 166 220 270 335 393
#     4  10  22  36  62  95 133 170 216 276 335 406
#     4  10  22  38  62  90 130 170 212 268 342 394
#     4  11  23  37  61  96 133 166 217 283 343 387
#     4  11  23  38  62  92 129 175 220 271 329 401
#
# _framework density 22.641978999999999
#
# number of rings (size 3 to 8) (size 9 to 14) (size 15 to 20)
#    0.000    1.333    2.667    4.800    5.600    0.000 
#    0.000    0.000    0.000    7.200    3.467    0.933 
#    0.000    0.000    0.000    0.000    0.000    0.000 
#
# Total GULP energy -167549.793665 kJ/mol
# GULP energy per Si atom -5584.993122 kJ/mol
# Density = 2.259044 g / cm^3
# Si number density = 22.641979 Si / 1000 Ang^3
#
#
#
# Elastic Constant Matrix: (Units=GPa)
#
#
# Indices 1 2 3 4 5 6 
#
# 1 33.0164 1.3543 12.9829 0.0000 -1.4256 0.0000
# 2 1.3543 104.3243 36.8237 0.0000 1.8765 0.0000
# 3 12.9829 36.8237 157.7834 0.0000 -15.5908 0.0000
# 4 0.0000 0.0000 0.0000 5.7180 0.0000 3.6412
# 5 -1.4256 1.8765 -15.5908 0.0000 19.2611 0.0000
# 6 0.0000 0.0000 0.0000 3.6412 0.0000 36.2658
#
#
#
# Elastic Compliance Matrix: (Units=1/GPa)
#
#
# Indices 1 2 3 4 5 6 
#
# 1 0.031330 0.000544 -0.002697 0.000000 0.000083 0.000000
# 2 0.000544 0.010646 -0.002856 0.000000 -0.003309 0.000000
# 3 -0.002697 -0.002856 0.007863 0.000000 0.006443 0.000000
# 4 0.000000 0.000000 0.000000 0.186831 0.000000 -0.018758
# 5 0.000083 -0.003309 0.006443 0.000000 0.057462 0.000000
# 6 0.000000 0.000000 0.000000 -0.018758 0.000000 0.029458
#
#
# Mechanical properties :
#
#
# Convention : Reuss Voigt Hill
#
# Bulk Modulus (GPa) = 25.11288 44.16064 34.63676
# Shear Modulus (GPa) = 14.41417 28.51321 21.46369
#
# Velocity S-wave (km/s) = 2.52586 3.55252 3.08224
# Velocity P-wave (km/s) = 4.42967 6.03104 5.29129
#
# Compressibility (1/GPa) = 0.03982020
#
# Stress axis : x y z
#
# Youngs Moduli (GPa) = 31.91872 93.93057 127.17851
#
# Poissons Ratio (x) = -0.05106 0.34294
# Poissons Ratio (y) = -0.01735 0.36326
# Poissons Ratio (z) = 0.08607 0.26829
#
# Static dielectric constant tensor:
#      x y z
#    x 1.815260 0.000000 -0.052510 
#    y 0.000000 1.884170 0.000000 
#    z -0.052510 0.000000 1.824920 
# 
# From -- ./inp_files/248768.got.cif
#   From: 2010.05.17/outbox.cif.g08.bks.cpg/sg15_125_cif.got.tgz:248768.got - 2010.06.03 18:47:42.
