data_PCOD9272627
_publ_section_title
;
Structure prediction by ZEFSAII (Michael W. Deem and Ramdas Pophale) SiO2 
 PCOD9272627
Probable space group: C 2/C
;
_chemical_formula_sum "Si O2"
_cell_formula_units_Z 64
_cell_length_a 12.325883
_cell_length_b 27.443054
_cell_length_c 9.924366
_cell_angle_alpha 90.000000
_cell_angle_beta 84.169078
_cell_angle_gamma 90.000000
_cell_volume 3339.645669
_symmetry_space_group_name_H-M "C 2/C"
_symmetry_group_IT_number 15
_symmetry_cell_setting 'monoclinic'
loop_
_space_group_symop_operation_xyz
x,y,z
-x,y,1/2-z
-x,-y,-z
x,-y,1/2+z
1/2+x,1/2+y,z
1/2-x,1/2+y,1/2-z
1/2-x,1/2-y,-z
1/2+x,1/2-y,1/2+z
loop_
_atom_site_type_symbol
_atom_site_label
_atom_site_fract_x
_atom_site_fract_y
_atom_site_fract_z
Si Si1 0.906802 0.613443 0.556645
Si Si2 0.699509 0.776973 0.164959
Si Si3 0.356485 0.116005 0.884879
Si Si4 0.672151 0.460838 0.371032
Si Si5 0.576688 0.718101 0.960315
Si Si6 0.209253 0.947475 0.049572
Si Si7 0.011355 0.116862 0.592251
Si Si8 0.861598 0.722304 0.523690
O O1 0.880898 0.614876 0.720843
O O2 0.833375 0.569460 0.512865
O O3 0.870822 0.664512 0.493933
O O4 0.036515 0.607164 0.539875
O O5 0.681786 0.828531 0.091445
O O6 0.830463 0.774257 0.165757
O O7 0.638148 0.776430 0.313737
O O8 0.644401 0.735887 0.081465
O O9 0.265293 0.075338 0.916176
O O10 0.689959 0.464851 0.207020
O O11 0.676527 0.511454 0.448063
O O12 0.560299 0.431914 0.410826
O O13 0.537465 0.662589 0.979195
O O14 0.468820 0.750395 0.956885
O O15 0.133890 0.899230 0.045670
O O16 0.000000 0.131933 0.750000
O O17 0.750000 0.750000 0.500000
#
# Coordination Sequence:
#
# PCOD9272627 Si02
#       8
#     8   8   8   8   8   8   8   8
#     4   9  18  33  55  79 106 145 190 234 279 342
#     4  10  21  37  56  84 115 151 199 238 283 345
#     4   9  16  34  59  77 103 145 193 237 275 339
#     4  10  20  37  59  84 109 146 192 242 290 344
#     4  11  21  35  61  85 112 152 194 241 283 334
#     4  10  21  37  59  84 112 146 192 240 295 347
#     4  10  21  36  59  83 110 150 198 231 279 352
#     4  11  22  34  55  84 119 153 192 240 288 343
#
# _framework density 19.163709999999998
#
# number of rings (size 3 to 8) (size 9 to 14) (size 15 to 20)
#    0.000    2.000    2.500    1.500    3.500    0.500 
#    0.000    3.750    0.000    0.000    0.000    0.000 
#    0.000    0.000    0.000    0.000    0.000    0.000 
#
# Total GULP energy -178441.615527 kJ/mol
# GULP energy per Si atom -5576.300485 kJ/mol
# Density = 1.912009 g / cm^3
# Si number density = 19.163710 Si / 1000 Ang^3
#
#
#
# Elastic Constant Matrix: (Units=GPa)
#
#
# Indices 1 2 3 4 5 6 
#
# 1 108.6343 15.5087 6.7048 0.0000 1.7154 0.0000
# 2 15.5087 71.2484 26.5967 0.0000 8.6798 0.0000
# 3 6.7048 26.5967 20.8848 0.0000 4.8066 0.0000
# 4 0.0000 0.0000 0.0000 16.8456 0.0000 10.6902
# 5 1.7154 8.6798 4.8066 0.0000 18.8891 0.0000
# 6 0.0000 0.0000 0.0000 10.6902 0.0000 33.7562
#
#
#
# Elastic Compliance Matrix: (Units=1/GPa)
#
#
# Indices 1 2 3 4 5 6 
#
# 1 0.009508 -0.001784 -0.000818 0.000000 0.000165 0.000000
# 2 -0.001784 0.027355 -0.033361 0.000000 -0.003919 0.000000
# 3 -0.000818 -0.033361 0.092502 0.000000 -0.008134 0.000000
# 4 0.000000 0.000000 0.000000 0.074294 0.000000 -0.023528
# 5 0.000165 -0.003919 -0.008134 0.000000 0.056796 0.000000
# 6 0.000000 0.000000 0.000000 -0.023528 0.000000 0.037075
#
#
# Mechanical properties :
#
#
# Convention : Reuss Voigt Hill
#
# Bulk Modulus (GPa) = 17.41037 33.15421 25.28229
# Shear Modulus (GPa) = 12.86661 24.02867 18.44764
#
# Velocity S-wave (km/s) = 2.59396 3.54483 3.10600
# Velocity P-wave (km/s) = 4.25162 5.83888 5.10729
#
# Compressibility (1/GPa) = 0.05743703
#
# Stress axis : x y z
#
# Youngs Moduli (GPa) = 105.17677 36.55660 10.81059
#
# Poissons Ratio (x) = 0.06523 0.00884
# Poissons Ratio (y) = 0.18766 0.36066
# Poissons Ratio (z) = 0.08604 1.21958
#
# Static dielectric constant tensor:
#      x y z
#    x 1.704180 0.000000 -0.006750 
#    y 0.000000 1.655780 0.000000 
#    z -0.006750 0.000000 1.662230 
# 
# From -- ./inp_files/90812.got.cif
#   From: 2010.05.17/outbox.cif.g08.bks.cpg/sg15_46_cif.got.tgz:90812.got - 2010.06.03 18:47:42.
