data_PCOD9272560
_publ_section_title
;
Structure prediction by ZEFSAII (Michael W. Deem and Ramdas Pophale) SiO2 
 PCOD9272560
Probable space group: C 2/C
;
_chemical_formula_sum "Si O2"
_cell_formula_units_Z 52
_cell_length_a 6.632833
_cell_length_b 24.563134
_cell_length_c 20.930369
_cell_angle_alpha 90.000000
_cell_angle_beta 44.255609
_cell_angle_gamma 90.000000
_cell_volume 2379.733870
_symmetry_space_group_name_H-M "C 2/C"
_symmetry_group_IT_number 15
_symmetry_cell_setting 'monoclinic'
loop_
_space_group_symop_operation_xyz
x,y,z
-x,y,1/2-z
-x,-y,-z
x,-y,1/2+z
1/2+x,1/2+y,z
1/2-x,1/2+y,1/2-z
1/2-x,1/2-y,-z
1/2+x,1/2-y,1/2+z
loop_
_atom_site_type_symbol
_atom_site_label
_atom_site_fract_x
_atom_site_fract_y
_atom_site_fract_z
Si Si1 0.548471 0.306964 0.639247
Si Si2 0.270887 0.071822 0.457781
Si Si3 0.041188 0.770175 0.377607
Si Si4 0.914181 0.072248 0.340545
Si Si5 0.529526 0.315587 0.979179
Si Si6 0.500000 0.270797 0.250000
Si Si7 0.231856 0.013945 0.856503
O O1 0.746671 0.278879 0.647664
O O2 0.461000 0.367331 0.678423
O O3 0.668683 0.310888 0.538680
O O4 0.272815 0.269417 0.691258
O O5 0.570163 0.078706 0.427245
O O6 0.203692 0.127972 0.435885
O O7 0.327043 0.021882 0.396379
O O8 0.993603 0.057774 0.564232
O O9 0.044515 0.799606 0.307964
O O10 0.741420 0.736493 0.438594
O O11 0.103571 0.812787 0.419926
O O12 0.000000 0.055144 0.250000
O O13 0.043396 0.028879 0.358935
O O14 0.500000 0.030989 0.750000
#
# Coordination Sequence:
#
# PCOD9272560 Si02
#       7
#     8   8   8   8   8   4   8
#     4  11  21  34  58  91 123 160 202 256 314 367
#     4  11  23  42  64  91 124 163 209 261 313 371
#     4  10  20  37  58  85 123 159 202 251 306 369
#     4  12  22  35  64  93 126 158 204 262 322 365
#     4  10  21  37  60  88 118 160 206 250 308 372
#     4  10  22  34  54  88 126 160 206 254 304 366
#     4  11  24  42  63  90 124 165 209 259 316 373
#
# _framework density 21.851182000000001
#
# number of rings (size 3 to 8) (size 9 to 14) (size 15 to 20)
#    0.000    1.231    4.615    2.308    3.231    0.000 
#    0.000    1.538    1.692    0.000    0.000    0.000 
#    0.000    0.000    0.000    0.000    0.000    0.000 
#
# Total GULP energy -144857.889249 kJ/mol
# GULP energy per Si atom -5571.457279 kJ/mol
# Density = 2.180145 g / cm^3
# Si number density = 21.851182 Si / 1000 Ang^3
#
#
#
# Elastic Constant Matrix: (Units=GPa)
#
#
# Indices 1 2 3 4 5 6 
#
# 1 91.9547 -11.4708 24.0691 0.0000 18.4499 0.0000
# 2 -11.4708 21.0811 -0.5454 0.0000 -7.1873 0.0000
# 3 24.0691 -0.5454 89.5215 0.0000 5.7963 0.0000
# 4 0.0000 0.0000 0.0000 16.0542 0.0000 -0.1729
# 5 18.4499 -7.1873 5.7963 0.0000 41.3693 0.0000
# 6 0.0000 0.0000 0.0000 -0.1729 0.0000 8.9961
#
#
#
# Elastic Compliance Matrix: (Units=1/GPa)
#
#
# Indices 1 2 3 4 5 6 
#
# 1 0.013336 0.005634 -0.003259 0.000000 -0.004512 0.000000
# 2 0.005634 0.052809 -0.001639 0.000000 0.006892 0.000000
# 3 -0.003259 -0.001639 0.012071 0.000000 -0.000523 0.000000
# 4 0.000000 0.000000 0.000000 0.062302 0.000000 0.001197
# 5 -0.004512 0.006892 -0.000523 0.000000 0.027455 0.000000
# 6 0.000000 0.000000 0.000000 0.001197 0.000000 0.111183
#
#
# Mechanical properties :
#
#
# Convention : Reuss Voigt Hill
#
# Bulk Modulus (GPa) = 12.54920 25.18479 18.86699
# Shear Modulus (GPa) = 16.43403 25.98419 21.20911
#
# Velocity S-wave (km/s) = 2.74540 3.45214 3.11885
# Velocity P-wave (km/s) = 3.97556 5.23835 4.65002
#
# Compressibility (1/GPa) = 0.07968638
#
# Stress axis : x y z
#
# Youngs Moduli (GPa) = 74.98430 18.93627 82.84586
#
# Poissons Ratio (x) = -0.10668 0.27001
# Poissons Ratio (y) = -0.42245 0.13581
# Poissons Ratio (z) = 0.24438 0.03104
#
# Static dielectric constant tensor:
#      x y z
#    x 1.822020 0.000000 0.103750 
#    y 0.000000 1.771350 0.000000 
#    z 0.103750 0.000000 2.103130 
# 
# From -- ./inp_files/228589.got.cif
#   From: 2010.05.17/outbox.cif.g08.bks.cpg/sg15_115_cif.got.tgz:228589.got - 2010.06.03 18:47:42.
