data_PCOD9272813
_publ_section_title
;
Structure prediction by ZEFSAII (Michael W. Deem and Ramdas Pophale) SiO2 
 PCOD9272813
Probable space group: C 2/C
;
_chemical_formula_sum "Si O2"
_cell_formula_units_Z 40
_cell_length_a 15.173167
_cell_length_b 13.176491
_cell_length_c 8.809579
_cell_angle_alpha 90.000000
_cell_angle_beta 109.939640
_cell_angle_gamma 90.000000
_cell_volume 1655.706027
_symmetry_space_group_name_H-M "C 2/C"
_symmetry_group_IT_number 15
_symmetry_cell_setting 'monoclinic'
loop_
_space_group_symop_operation_xyz
x,y,z
-x,y,1/2-z
-x,-y,-z
x,-y,1/2+z
1/2+x,1/2+y,z
1/2-x,1/2+y,1/2-z
1/2-x,1/2-y,-z
1/2+x,1/2-y,1/2+z
loop_
_atom_site_type_symbol
_atom_site_label
_atom_site_fract_x
_atom_site_fract_y
_atom_site_fract_z
Si Si1 0.875503 0.366247 0.504671
Si Si2 0.756798 0.897746 0.662966
Si Si3 0.928995 0.034572 0.833894
Si Si4 0.182940 0.789226 0.299811
Si Si5 0.138886 0.450310 0.308590
O O1 0.885544 0.268893 0.621379
O O2 0.760242 0.359076 0.430958
O O3 0.906732 0.375695 0.345778
O O4 0.911905 0.466785 0.612287
O O5 0.742018 0.791354 0.738076
O O6 0.707230 0.895927 0.469547
O O7 0.860446 0.945331 0.733850
O O8 0.696432 0.974667 0.732233
O O9 0.870124 0.133739 0.839897
O O10 0.000000 0.070903 0.750000
O O11 0.000000 0.000000 0.000000
#
# Coordination Sequence:
#
# PCOD9272813 Si02
#       5
#     8   8   8   8   8
#     4   9  18  30  59  84 125 160 230 265 324 367
#     4  10  20  37  60  89 130 174 229 265 322 407
#     4  12  26  42  62  97 145 173 207 283 361 379
#     4  10  21  37  60  89 127 179 230 260 321 413
#     4   9  15  32  56  89 120 154 216 289 313 352
#
# _framework density 24.158878999999999
#
# number of rings (size 3 to 8) (size 9 to 14) (size 15 to 20)
#    0.000    2.000    4.000    1.200    5.600    0.800 
#    0.000    0.000    0.000    0.000    0.000   36.400 
#    0.000    0.000    0.000    0.800    0.000    0.000 
#
# Total GULP energy -111412.101056 kJ/mol
# GULP energy per Si atom -5570.605053 kJ/mol
# Density = 2.410389 g / cm^3
# Si number density = 24.158879 Si / 1000 Ang^3
#
#
#
# Elastic Constant Matrix: (Units=GPa)
#
#
# Indices 1 2 3 4 5 6 
#
# 1 41.1455 30.4553 19.7140 0.0000 14.9828 0.0000
# 2 30.4553 128.1961 60.0338 0.0000 14.3151 0.0000
# 3 19.7140 60.0338 159.0063 0.0000 4.3695 0.0000
# 4 0.0000 0.0000 0.0000 21.0737 0.0000 -14.8520
# 5 14.9828 14.3151 4.3695 0.0000 33.3891 0.0000
# 6 0.0000 0.0000 0.0000 -14.8520 0.0000 21.3096
#
#
#
# Elastic Compliance Matrix: (Units=1/GPa)
#
#
# Indices 1 2 3 4 5 6 
#
# 1 0.034029 -0.005918 -0.001641 0.000000 -0.012518 0.000000
# 2 -0.005918 0.010959 -0.003360 0.000000 -0.001603 0.000000
# 3 -0.001641 -0.003360 0.007729 0.000000 0.001165 0.000000
# 4 0.000000 0.000000 0.000000 0.093263 0.000000 0.065001
# 5 -0.012518 -0.001603 0.001165 0.000000 0.036102 0.000000
# 6 0.000000 0.000000 0.000000 0.065001 0.000000 0.092230
#
#
# Mechanical properties :
#
#
# Convention : Reuss Voigt Hill
#
# Bulk Modulus (GPa) = 32.38372 60.97269 46.67820
# Shear Modulus (GPa) = 16.31633 29.69747 23.00690
#
# Velocity S-wave (km/s) = 2.60162 3.50988 3.08931
# Velocity P-wave (km/s) = 4.73900 6.45900 5.66466
#
# Compressibility (1/GPa) = 0.03087972
#
# Stress axis : x y z
#
# Youngs Moduli (GPa) = 29.38692 91.25004 129.38352
#
# Poissons Ratio (x) = 0.54002 0.21226
# Poissons Ratio (y) = 0.17391 0.43470
# Poissons Ratio (z) = 0.04821 0.30658
#
# Static dielectric constant tensor:
#      x y z
#    x 1.916380 0.000000 -0.005010 
#    y 0.000000 2.047680 0.000000 
#    z -0.005010 0.000000 1.991260 
# 
# From -- ./inp_files/46738.got.cif
#   From: 2010.05.17/outbox.cif.g08.bks.cpg/sg15_24_cif.got.tgz:46738.got - 2010.06.03 18:47:42.
