data_PCOD9272078
_publ_section_title
;
Structure prediction by ZEFSAII (Michael W. Deem and Ramdas Pophale) SiO2 
 PCOD9272078
Probable space group: C 2/C
;
_chemical_formula_sum "Si O2"
_cell_formula_units_Z 60
_cell_length_a 14.473064
_cell_length_b 10.567326
_cell_length_c 20.961740
_cell_angle_alpha 90.000000
_cell_angle_beta 118.204474
_cell_angle_gamma 90.000000
_cell_volume 2825.271600
_symmetry_space_group_name_H-M "C 2/C"
_symmetry_group_IT_number 15
_symmetry_cell_setting 'monoclinic'
loop_
_space_group_symop_operation_xyz
x,y,z
-x,y,1/2-z
-x,-y,-z
x,-y,1/2+z
1/2+x,1/2+y,z
1/2-x,1/2+y,1/2-z
1/2-x,1/2-y,-z
1/2+x,1/2-y,1/2+z
loop_
_atom_site_type_symbol
_atom_site_label
_atom_site_fract_x
_atom_site_fract_y
_atom_site_fract_z
Si Si1 0.042737 0.643399 0.064227
Si Si2 0.000000 0.487361 0.250000
Si Si3 0.596697 0.594529 0.601066
Si Si4 0.567329 0.878955 0.143476
Si Si5 0.056185 0.871866 0.935164
Si Si6 0.792966 0.459165 0.619477
Si Si7 0.187971 0.309528 0.072664
Si Si8 0.221343 0.439854 0.523050
O O1 0.080992 0.762001 0.118835
O O2 0.035388 0.512283 0.100027
O O3 0.131106 0.616521 0.038733
O O4 0.928091 0.676892 0.997912
O O5 0.945045 0.402453 0.286222
O O6 0.905071 0.564193 0.187501
O O7 0.515563 0.494011 0.603944
O O8 0.572039 0.611722 0.516773
O O9 0.712653 0.535542 0.638748
O O10 0.676117 0.845870 0.143324
O O11 0.309778 0.959541 0.060704
O O12 0.170414 0.865420 0.941525
O O13 0.501749 0.755128 0.103495
O O14 0.734665 0.329154 0.581964
O O15 0.250010 0.420427 0.058445
#
# Coordination Sequence:
#
# PCOD9272078 Si02
#       8
#     8   4   8   8   8   8   8   8
#     4  11  21  37  65 103 129 162 200 269 333 390
#     4  12  28  44  60  90 118 186 224 262 286 386
#     4  10  20  36  63  98 129 161 201 260 339 373
#     4  11  23  43  65  91 137 166 217 255 320 388
#     4  10  20  38  63  98 134 161 199 263 325 391
#     4  11  23  41  63  94 130 170 214 259 318 381
#     4  11  20  41  65  95 129 166 201 271 333 376
#     4  10  22  34  69 105 130 157 203 271 331 382
#
# _framework density 21.236896000000002
#
# number of rings (size 3 to 8) (size 9 to 14) (size 15 to 20)
#    0.000    1.333    2.667    5.200    1.867    2.133 
#    2.400    0.000    0.000    0.800    0.000    0.000 
#    0.000    0.000    0.000    0.000    0.000    0.000 
#
# Total GULP energy -167500.972516 kJ/mol
# GULP energy per Si atom -5583.365751 kJ/mol
# Density = 2.118856 g / cm^3
# Si number density = 21.236896 Si / 1000 Ang^3
#
#
#
# Elastic Constant Matrix: (Units=GPa)
#
#
# Indices 1 2 3 4 5 6 
#
# 1 79.4492 31.2290 31.1276 0.0000 -0.0731 0.0000
# 2 31.2290 151.2187 21.8489 0.0000 15.5940 0.0000
# 3 31.1276 21.8489 43.8205 0.0000 1.6209 0.0000
# 4 0.0000 0.0000 0.0000 11.1718 0.0000 2.2990
# 5 -0.0731 15.5940 1.6209 0.0000 30.5627 0.0000
# 6 0.0000 0.0000 0.0000 2.2990 0.0000 33.8147
#
#
#
# Elastic Compliance Matrix: (Units=1/GPa)
#
#
# Indices 1 2 3 4 5 6 
#
# 1 0.018086 -0.002214 -0.011810 0.000000 0.001799 0.000000
# 2 -0.002214 0.007781 -0.002164 0.000000 -0.003861 0.000000
# 3 -0.011810 -0.002164 0.032312 0.000000 -0.000638 0.000000
# 4 0.000000 0.000000 0.000000 0.090781 0.000000 -0.006172
# 5 0.001799 -0.003861 -0.000638 0.000000 0.034728 0.000000
# 6 0.000000 0.000000 0.000000 -0.006172 0.000000 0.029993
#
#
# Mechanical properties :
#
#
# Convention : Reuss Voigt Hill
#
# Bulk Modulus (GPa) = 38.75529 49.21106 43.98317
# Shear Modulus (GPa) = 19.63431 27.79535 23.71483
#
# Velocity S-wave (km/s) = 3.04392 3.62169 3.34530
# Velocity P-wave (km/s) = 5.53557 6.38056 5.97303
#
# Compressibility (1/GPa) = 0.02580293
#
# Stress axis : x y z
#
# Youngs Moduli (GPa) = 55.29279 128.51850 30.94847
#
# Poissons Ratio (x) = 0.28456 0.36549
# Poissons Ratio (y) = 0.12243 0.06697
# Poissons Ratio (z) = 0.65298 0.27811
#
# Static dielectric constant tensor:
#      x y z
#    x 1.804170 0.000000 -0.001800 
#    y 0.000000 1.811320 0.000000 
#    z -0.001800 0.000000 1.788730 
# 
# From -- ./inp_files/273656.got.cif
#   From: 2010.05.17/outbox.cif.g08.bks.cpg/sg15_137_cif.got.tgz:273656.got - 2010.06.03 18:47:42.
