data_PCOD9272408
_publ_section_title
;
Structure prediction by ZEFSAII (Michael W. Deem and Ramdas Pophale) SiO2 
 PCOD9272408
Probable space group: C 2/C
;
_chemical_formula_sum "Si O2"
_cell_formula_units_Z 56
_cell_length_a 14.084916
_cell_length_b 8.072749
_cell_length_c 23.939772
_cell_angle_alpha 90.000000
_cell_angle_beta 75.736038
_cell_angle_gamma 90.000000
_cell_volume 2638.129348
_symmetry_space_group_name_H-M "C 2/C"
_symmetry_group_IT_number 15
_symmetry_cell_setting 'monoclinic'
loop_
_space_group_symop_operation_xyz
x,y,z
-x,y,1/2-z
-x,-y,-z
x,-y,1/2+z
1/2+x,1/2+y,z
1/2-x,1/2+y,1/2-z
1/2-x,1/2-y,-z
1/2+x,1/2-y,1/2+z
loop_
_atom_site_type_symbol
_atom_site_label
_atom_site_fract_x
_atom_site_fract_y
_atom_site_fract_z
Si Si1 0.492607 0.334794 0.966250
Si Si2 0.640878 0.428758 0.188911
Si Si3 0.862366 0.292448 0.578830
Si Si4 0.927349 0.195050 0.688552
Si Si5 0.978019 0.577963 0.691897
Si Si6 0.339176 0.172090 0.621092
Si Si7 0.855396 0.757427 0.885037
O O1 0.600322 0.283190 0.930278
O O2 0.420798 0.344041 0.923328
O O3 0.500000 0.500000 0.000000
O O4 0.439380 0.213192 0.017585
O O5 0.640414 0.394234 0.255422
O O6 0.534466 0.379865 0.182090
O O7 0.724316 0.314944 0.148539
O O8 0.656669 0.616876 0.165802
O O9 0.894456 0.189450 0.629179
O O10 0.854698 0.483083 0.598601
O O11 0.754449 0.227633 0.577927
O O12 0.939191 0.390440 0.701160
O O13 0.896807 0.683819 0.671384
O O14 0.000000 0.641504 0.750000
O O15 0.079141 0.600535 0.642829
#
# Coordination Sequence:
#
# PCOD9272408 Si02
#       7
#     8   8   8   8   8   8   8
#     4  11  22  41  60  89 119 152 202 248 290 348
#     4  10  20  40  56  88 121 154 195 237 301 352
#     4  10  21  41  62  86 115 159 198 244 294 349
#     4  10  21  38  60  85 123 152 195 243 291 360
#     4  10  20  37  55  87 116 151 191 233 289 350
#     4   9  22  39  61  83 117 156 195 237 295 347
#     4  10  23  38  61  87 120 154 195 245 295 351
#
# _framework density 21.227163000000001
#
# number of rings (size 3 to 8) (size 9 to 14) (size 15 to 20)
#    0.000    2.000    1.429    1.714    4.000    1.143 
#    0.000    7.857    0.000    0.000    0.000    0.000 
#    0.000    0.000    0.000    0.000    0.000    0.000 
#
# Total GULP energy -156279.113700 kJ/mol
# GULP energy per Si atom -5581.396918 kJ/mol
# Density = 2.117885 g / cm^3
# Si number density = 21.227163 Si / 1000 Ang^3
#
#
#
# Elastic Constant Matrix: (Units=GPa)
#
#
# Indices 1 2 3 4 5 6 
#
# 1 68.5648 -2.8123 27.2593 0.0000 -22.9925 0.0000
# 2 -2.8123 29.4908 25.6230 0.0000 -1.5281 0.0000
# 3 27.2593 25.6230 109.3939 0.0000 -13.8752 0.0000
# 4 0.0000 0.0000 0.0000 26.5610 0.0000 -6.3346
# 5 -22.9925 -1.5281 -13.8752 0.0000 36.4214 0.0000
# 6 0.0000 0.0000 0.0000 -6.3346 0.0000 18.7643
#
#
#
# Elastic Compliance Matrix: (Units=1/GPa)
#
#
# Indices 1 2 3 4 5 6 
#
# 1 0.020890 0.007343 -0.005478 0.000000 0.011409 0.000000
# 2 0.007343 0.045310 -0.012203 0.000000 0.001888 0.000000
# 3 -0.005478 -0.012203 0.013514 0.000000 0.001178 0.000000
# 4 0.000000 0.000000 0.000000 0.040946 0.000000 0.013823
# 5 0.011409 0.001888 0.001178 0.000000 0.035186 0.000000
# 6 0.000000 0.000000 0.000000 0.013823 0.000000 0.057959
#
#
# Mechanical properties :
#
#
# Convention : Reuss Voigt Hill
#
# Bulk Modulus (GPa) = 16.93863 34.17661 25.55762
# Shear Modulus (GPa) = 19.67263 26.84132 23.25697
#
# Velocity S-wave (km/s) = 3.04759 3.55981 3.31361
# Velocity P-wave (km/s) = 4.51450 5.74732 5.16781
#
# Compressibility (1/GPa) = 0.05903665
#
# Stress axis : x y z
#
# Youngs Moduli (GPa) = 47.87053 22.07038 73.99685
#
# Poissons Ratio (x) = -0.16206 0.40538
# Poissons Ratio (y) = -0.35151 0.90299
# Poissons Ratio (z) = 0.26225 0.26933
#
# Static dielectric constant tensor:
#      x y z
#    x 1.777730 0.000000 -0.012660 
#    y 0.000000 1.793540 0.000000 
#    z -0.012660 0.000000 1.803810 
# 
# From -- ./inp_files/272660.got.cif
#   From: 2010.05.17/outbox.cif.g08.bks.cpg/sg15_137_cif.got.tgz:272660.got - 2010.06.03 18:47:42.
