data_PCOD9272821
_publ_section_title
;
Structure prediction by ZEFSAII (Michael W. Deem and Ramdas Pophale) SiO2 
 PCOD9272821
Probable space group: C 2/C
;
_chemical_formula_sum "Si O2"
_cell_formula_units_Z 60
_cell_length_a 31.987778
_cell_length_b 7.061651
_cell_length_c 26.327370
_cell_angle_alpha 90.000000
_cell_angle_beta 154.413417
_cell_angle_gamma 90.000000
_cell_volume 2568.357156
_symmetry_space_group_name_H-M "C 2/C"
_symmetry_group_IT_number 15
_symmetry_cell_setting 'monoclinic'
loop_
_space_group_symop_operation_xyz
x,y,z
-x,y,1/2-z
-x,-y,-z
x,-y,1/2+z
1/2+x,1/2+y,z
1/2-x,1/2+y,1/2-z
1/2-x,1/2-y,-z
1/2+x,1/2-y,1/2+z
loop_
_atom_site_type_symbol
_atom_site_label
_atom_site_fract_x
_atom_site_fract_y
_atom_site_fract_z
Si Si1 0.246378 0.223763 0.420202
Si Si2 0.606385 0.561004 0.097523
Si Si3 0.589266 0.698993 0.319517
Si Si4 0.214420 0.132936 0.118282
Si Si5 0.703627 0.788061 0.003726
Si Si6 0.500000 0.332534 0.250000
Si Si7 0.219003 0.444138 0.643875
Si Si8 0.885273 0.496779 0.875378
O O1 0.328068 0.306791 0.546781
O O2 0.141179 0.280164 0.326718
O O3 0.264640 0.218573 0.379926
O O4 0.255135 0.995558 0.438676
O O5 0.636248 0.536458 0.071017
O O6 0.683750 0.480442 0.222065
O O7 0.633195 0.781763 0.136223
O O8 0.500000 0.500000 0.000000
O O9 0.500000 0.800309 0.250000
O O10 0.547467 0.487830 0.263439
O O11 0.180042 0.355351 0.080515
O O12 0.318281 0.079762 0.256767
O O13 0.226114 0.123615 0.070087
O O14 0.587585 0.783207 0.869472
O O15 0.750000 0.750000 0.000000
O O16 0.148920 0.383118 0.612365
O O17 0.000000 0.500000 0.000000
#
# Coordination Sequence:
#
# PCOD9272821 Si02
#       8
#     8   8   8   8   8   4   8   8
#     4  10  20  39  61  82 121 163 201 256 318 378
#     4  10  20  37  60  90 120 160 202 248 312 380
#     4   9  20  39  56  84 120 157 200 262 311 372
#     4   9  21  39  62  84 123 160 204 261 306 371
#     4  11  21  41  62  89 118 164 214 261 322 373
#     4  10  22  36  58  88 118 152 212 258 302 380
#     4   9  20  38  59  84 115 157 202 249 307 367
#     4  10  20  39  59  89 123 155 201 256 308 376
#
# _framework density 23.361238
#
# number of rings (size 3 to 8) (size 9 to 14) (size 15 to 20)
#    0.400    1.867    1.333    0.800    0.933    3.200 
#    9.600    0.000    0.000    0.000    0.000    0.000 
#    0.000    0.000    0.000    0.000    0.000    0.000 
#
# Total GULP energy -167006.107801 kJ/mol
# GULP energy per Si atom -5566.870260 kJ/mol
# Density = 2.330807 g / cm^3
# Si number density = 23.361238 Si / 1000 Ang^3
#
#
#
# Elastic Constant Matrix: (Units=GPa)
#
#
# Indices 1 2 3 4 5 6 
#
# 1 192.1490 18.0861 87.1797 0.0000 2.7523 0.0000
# 2 18.0861 61.8827 -2.2142 -0.0003 -7.1605 0.0001
# 3 87.1797 -2.2142 88.7240 0.0000 25.2474 0.0000
# 4 0.0000 -0.0003 0.0000 27.8520 0.0000 -3.4131
# 5 2.7523 -7.1605 25.2474 0.0000 45.2907 0.0000
# 6 0.0000 0.0001 0.0000 -3.4131 0.0000 27.8748
#
#
#
# Elastic Compliance Matrix: (Units=1/GPa)
#
#
# Indices 1 2 3 4 5 6 
#
# 1 0.011205 -0.003042 -0.012783 0.000000 0.005964 0.000000
# 2 -0.003042 0.017298 0.003078 0.000000 0.001204 0.000000
# 3 -0.012783 0.003078 0.027988 0.000000 -0.014339 0.000000
# 4 0.000000 0.000000 0.000000 0.036451 0.000000 0.004463
# 5 0.005964 0.001204 -0.014339 0.000000 0.029901 0.000000
# 6 0.000000 0.000000 0.000000 0.004463 0.000000 0.036421
#
#
# Mechanical properties :
#
#
# Convention : Reuss Voigt Hill
#
# Bulk Modulus (GPa) = 32.26013 60.98433 46.62223
# Shear Modulus (GPa) = 25.62915 36.18378 30.90646
#
# Velocity S-wave (km/s) = 3.31581 3.93985 3.64123
# Velocity P-wave (km/s) = 5.33842 6.84530 6.13828
#
# Compressibility (1/GPa) = 0.03099801
#
# Stress axis : x y z
#
# Youngs Moduli (GPa) = 89.24639 57.80974 35.72909
#
# Poissons Ratio (x) = 0.17586 0.45672
# Poissons Ratio (y) = 0.27150 -0.10999
# Poissons Ratio (z) = 1.14083 -0.17796
#
# Static dielectric constant tensor:
#      x y z
#    x 2.052970 0.000000 -0.095230 
#    y 0.000000 2.196790 0.000000 
#    z -0.095230 0.000000 2.061840 
# 
# From -- ./inp_files/284309.got.cif
#   From: 2010.05.17/outbox.cif.g08.bks.cpg/sg15_143_cif.got.tgz:284309.got - 2010.06.03 18:47:42.
