data_PCOD9272913
_publ_section_title
;
Structure prediction by ZEFSAII (Michael W. Deem and Ramdas Pophale) SiO2 
 PCOD9272913
Probable space group: C 2/C
;
_chemical_formula_sum "Si O2"
_cell_formula_units_Z 44
_cell_length_a 8.932133
_cell_length_b 22.378991
_cell_length_c 11.504779
_cell_angle_alpha 90.000000
_cell_angle_beta 126.056283
_cell_angle_gamma 90.000000
_cell_volume 1859.179541
_symmetry_space_group_name_H-M "C 2/C"
_symmetry_group_IT_number 15
_symmetry_cell_setting 'monoclinic'
loop_
_space_group_symop_operation_xyz
x,y,z
-x,y,1/2-z
-x,-y,-z
x,-y,1/2+z
1/2+x,1/2+y,z
1/2-x,1/2+y,1/2-z
1/2-x,1/2-y,-z
1/2+x,1/2-y,1/2+z
loop_
_atom_site_type_symbol
_atom_site_label
_atom_site_fract_x
_atom_site_fract_y
_atom_site_fract_z
Si Si1 0.226439 0.449735 0.344237
Si Si2 0.226926 0.871670 0.938736
Si Si3 0.214489 0.584224 0.297343
Si Si4 0.629048 0.839775 0.164553
Si Si5 0.668732 0.188319 0.417854
Si Si6 0.500000 0.264142 0.750000
O O1 0.328484 0.427742 0.507852
O O2 0.283763 0.516814 0.339982
O O3 0.251725 0.394876 0.265361
O O4 0.000000 0.455687 0.250000
O O5 0.262216 0.895031 0.824843
O O6 0.111754 0.810913 0.880640
O O7 0.414282 0.853873 0.089600
O O8 0.294330 0.639256 0.409616
O O9 0.000000 0.583443 0.250000
O O10 0.641177 0.775761 0.235577
O O11 0.627085 0.839342 0.024720
O O12 0.500000 0.201349 0.250000
O O13 0.750000 0.250000 0.500000
#
# Coordination Sequence:
#
# PCOD9272913 Si02
#       6
#     8   8   8   8   8   4
#     4   9  21  34  61  91 110 151 196 256 299 342
#     4  11  21  39  57  87 117 154 196 243 299 353
#     4  10  20  37  61  89 117 151 197 253 299 355
#     4  11  21  36  59  88 118 145 208 245 298 348
#     4  11  23  38  60  91 124 161 197 248 308 362
#     4  12  24  36  60  84 120 160 194 244 296 358
#
# _framework density 23.666353000000001
#
# number of rings (size 3 to 8) (size 9 to 14) (size 15 to 20)
#    0.000    1.455    6.364    1.636    2.545    2.182 
#    0.000    0.909    2.000    0.000    0.000    0.000 
#    0.000    0.000    0.000    0.000    0.000    0.000 
#
# Total GULP energy -122534.850218 kJ/mol
# GULP energy per Si atom -5569.765919 kJ/mol
# Density = 2.361249 g / cm^3
# Si number density = 23.666353 Si / 1000 Ang^3
#
#
#
# Elastic Constant Matrix: (Units=GPa)
#
#
# Indices 1 2 3 4 5 6 
#
# 1 45.6340 41.8786 43.6630 0.0000 -19.2308 0.0000
# 2 41.8786 232.6579 97.4504 0.0000 -22.7229 0.0000
# 3 43.6630 97.4504 139.4511 0.0000 -41.2542 0.0000
# 4 0.0000 0.0000 0.0000 28.2033 0.0000 -1.8155
# 5 -19.2308 -22.7229 -41.2542 0.0000 37.2241 0.0000
# 6 0.0000 0.0000 0.0000 -1.8155 0.0000 16.4460
#
#
#
# Elastic Compliance Matrix: (Units=1/GPa)
#
#
# Indices 1 2 3 4 5 6 
#
# 1 0.034074 -0.002697 -0.006046 0.000000 0.009257 0.000000
# 2 -0.002697 0.006346 -0.004250 0.000000 -0.002229 0.000000
# 3 -0.006046 -0.004250 0.015387 0.000000 0.011335 0.000000
# 4 0.000000 0.000000 0.000000 0.035711 0.000000 0.003942
# 5 0.009257 -0.002229 0.011335 0.000000 0.042849 0.000000
# 6 0.000000 0.000000 0.000000 0.003942 0.000000 0.061240
#
#
# Mechanical properties :
#
#
# Convention : Reuss Voigt Hill
#
# Bulk Modulus (GPa) = 33.53179 87.08079 60.30629
# Shear Modulus (GPa) = 21.59530 32.02472 26.81001
#
# Velocity S-wave (km/s) = 3.02402 3.68254 3.36941
# Velocity P-wave (km/s) = 5.13734 7.41327 6.37765
#
# Compressibility (1/GPa) = 0.02982244
#
# Stress axis : x y z
#
# Youngs Moduli (GPa) = 29.34783 157.58229 64.98988
#
# Poissons Ratio (x) = 0.42501 0.39290
# Poissons Ratio (y) = 0.07915 0.27618
# Poissons Ratio (z) = 0.17742 0.66967
#
# Static dielectric constant tensor:
#      x y z
#    x 2.134590 0.000000 0.057390 
#    y 0.000000 2.000500 0.000000 
#    z 0.057390 0.000000 1.910300 
# 
# From -- ./inp_files/89231.got.cif
#   From: 2010.05.17/outbox.cif.g08.bks.cpg/sg15_45_cif.got.tgz:89231.got - 2010.06.03 18:47:42.
