data_PCOD9272239
_publ_section_title
;
Structure prediction by ZEFSAII (Michael W. Deem and Ramdas Pophale) SiO2 
 PCOD9272239
Probable space group: C 2/C
;
_chemical_formula_sum "Si O2"
_cell_formula_units_Z 48
_cell_length_a 20.805230
_cell_length_b 12.050713
_cell_length_c 13.817957
_cell_angle_alpha 90.000000
_cell_angle_beta 36.148163
_cell_angle_gamma 90.000000
_cell_volume 2043.569197
_symmetry_space_group_name_H-M "C 2/C"
_symmetry_group_IT_number 15
_symmetry_cell_setting 'monoclinic'
loop_
_space_group_symop_operation_xyz
x,y,z
-x,y,1/2-z
-x,-y,-z
x,-y,1/2+z
1/2+x,1/2+y,z
1/2-x,1/2+y,1/2-z
1/2-x,1/2-y,-z
1/2+x,1/2-y,1/2+z
loop_
_atom_site_type_symbol
_atom_site_label
_atom_site_fract_x
_atom_site_fract_y
_atom_site_fract_z
Si Si1 0.428356 0.147528 0.534193
Si Si2 0.175533 0.089433 0.541850
Si Si3 0.500000 0.607919 0.250000
Si Si4 0.583971 0.226481 0.483913
Si Si5 0.000000 0.715118 0.250000
Si Si6 0.301107 0.373499 0.703312
Si Si7 0.792059 0.906372 0.285868
O O1 0.503917 0.134317 0.535397
O O2 0.492565 0.143543 0.355761
O O3 0.387502 0.275136 0.595711
O O4 0.314330 0.088047 0.652947
O O5 0.099687 0.198606 0.637271
O O6 0.228728 0.097878 0.371884
O O7 0.241278 0.095823 0.561732
O O8 0.101814 0.977604 0.635377
O O9 0.473361 0.690915 0.371199
O O10 0.693093 0.167074 0.390543
O O11 0.634916 0.303598 0.336300
O O12 0.353359 0.480023 0.689177
#
# Coordination Sequence:
#
# PCOD9272239 Si02
#       7
#     8   8   4   8   4   8   8
#     4  10  22  36  62  88 123 159 203 260 316 369
#     4  10  20  36  66  90 122 155 215 260 311 364
#     4  11  22  40  67  96 120 176 211 260 313 378
#     4  11  23  41  63  89 131 163 213 261 316 380
#     4   9  18  32  57  94 108 146 197 252 313 350
#     4  10  23  40  58  96 123 165 207 261 322 373
#     4  11  22  40  61  90 125 166 207 268 314 374
#
# _framework density 23.488316999999999
#
# number of rings (size 3 to 8) (size 9 to 14) (size 15 to 20)
#    0.000    1.667    3.333    1.000    2.333    4.000 
#    3.000    3.333    0.000    0.000    0.000    0.000 
#    0.000    0.000    0.000    0.000    0.000    0.000 
#
# Total GULP energy -134027.593911 kJ/mol
# GULP energy per Si atom -5584.483080 kJ/mol
# Density = 2.343486 g / cm^3
# Si number density = 23.488317 Si / 1000 Ang^3
#
#
#
# Elastic Constant Matrix: (Units=GPa)
#
#
# Indices 1 2 3 4 5 6 
#
# 1 61.7815 -8.0736 16.3403 0.0000 -3.2708 0.0000
# 2 -8.0736 47.5312 13.9898 0.0000 2.5251 0.0000
# 3 16.3403 13.9898 86.4693 0.0000 9.2922 0.0000
# 4 0.0000 0.0000 0.0000 31.8756 0.0000 3.3342
# 5 -3.2708 2.5251 9.2922 0.0000 30.2928 0.0000
# 6 0.0000 0.0000 0.0000 3.3342 0.0000 20.2416
#
#
#
# Elastic Compliance Matrix: (Units=1/GPa)
#
#
# Indices 1 2 3 4 5 6 
#
# 1 0.018059 0.004209 -0.004411 0.000000 0.002952 0.000000
# 2 0.004209 0.023089 -0.004522 0.000000 -0.000083 0.000000
# 3 -0.004411 -0.004522 0.013589 0.000000 -0.004268 0.000000
# 4 0.000000 0.000000 0.000000 0.031922 0.000000 -0.005258
# 5 0.002952 -0.000083 -0.004268 0.000000 0.034646 0.000000
# 6 0.000000 0.000000 0.000000 -0.005258 0.000000 0.050269
#
#
# Mechanical properties :
#
#
# Convention : Reuss Voigt Hill
#
# Bulk Modulus (GPa) = 22.08058 26.69945 24.39002
# Shear Modulus (GPa) = 25.49488 28.05037 26.77262
#
# Velocity S-wave (km/s) = 3.29816 3.45951 3.37980
# Velocity P-wave (km/s) = 4.89131 5.22966 5.06331
#
# Compressibility (1/GPa) = 0.04528866
#
# Stress axis : x y z
#
# Youngs Moduli (GPa) = 55.37411 43.31054 73.59142
#
# Poissons Ratio (x) = -0.18229 0.32460
# Poissons Ratio (y) = -0.23306 0.33278
# Poissons Ratio (z) = 0.24425 0.19585
#
# Static dielectric constant tensor:
#      x y z
#    x 1.946620 0.000000 -0.003780 
#    y 0.000000 1.871920 0.000000 
#    z -0.003780 0.000000 1.850750 
# 
# From -- ./inp_files/96253.got.cif
#   From: 2010.05.17/outbox.cif.g08.bks.cpg/sg15_49_cif.got.tgz:96253.got - 2010.06.03 18:47:42.
