data_PCOD9272074
_publ_section_title
;
Structure prediction by ZEFSAII (Michael W. Deem and Ramdas Pophale) SiO2 
 PCOD9272074
Probable space group: C 2/C
;
_chemical_formula_sum "Si O2"
_cell_formula_units_Z 44
_cell_length_a 10.526986
_cell_length_b 21.186547
_cell_length_c 11.511707
_cell_angle_alpha 90.000000
_cell_angle_beta 55.032979
_cell_angle_gamma 90.000000
_cell_volume 2103.988691
_symmetry_space_group_name_H-M "C 2/C"
_symmetry_group_IT_number 15
_symmetry_cell_setting 'monoclinic'
loop_
_space_group_symop_operation_xyz
x,y,z
-x,y,1/2-z
-x,-y,-z
x,-y,1/2+z
1/2+x,1/2+y,z
1/2-x,1/2+y,1/2-z
1/2-x,1/2-y,-z
1/2+x,1/2-y,1/2+z
loop_
_atom_site_type_symbol
_atom_site_label
_atom_site_fract_x
_atom_site_fract_y
_atom_site_fract_z
Si Si1 0.176617 0.769027 0.660289
Si Si2 0.945835 0.630269 0.413912
Si Si3 0.883713 0.101403 0.994642
Si Si4 0.467074 0.729704 0.631177
Si Si5 0.262609 0.585812 0.313961
Si Si6 0.500000 0.513102 0.750000
O O1 0.250000 0.750000 0.500000
O O2 0.285481 0.737263 0.700206
O O3 0.186948 0.844412 0.672015
O O4 0.000000 0.748467 0.750000
O O5 0.769448 0.608533 0.505558
O O6 0.000000 0.631242 0.250000
O O7 0.960242 0.703215 0.444473
O O8 0.075564 0.588509 0.410119
O O9 0.958223 0.170420 0.972178
O O10 0.000559 0.057123 0.863331
O O11 0.826137 0.077718 0.149176
O O12 0.500000 0.720751 0.750000
O O13 0.350240 0.532035 0.338639
#
# Coordination Sequence:
#
# PCOD9272074 Si02
#       6
#     8   8   8   8   8   4
#     4  11  23  42  69 101 136 177 218 280 353 405
#     4   8  18  35  61  86 116 160 205 271 331 377
#     4  11  21  39  61  91 127 169 222 271 330 391
#     4  10  20  36  63  97 129 161 211 278 335 400
#     4  10  22  41  61  87 127 176 215 270 333 399
#     4  12  24  38  62  88 130 182 226 258 322 408
#
# _framework density 20.912659000000001
#
# number of rings (size 3 to 8) (size 9 to 14) (size 15 to 20)
#    0.000    1.818    1.818    3.273    0.000    3.636 
#    0.000    0.000    0.000    0.000    0.000    0.000 
#    0.000    0.000    0.000    0.000    0.000    0.000 
#
# Total GULP energy -122931.534743 kJ/mol
# GULP energy per Si atom -5587.797034 kJ/mol
# Density = 2.086506 g / cm^3
# Si number density = 20.912659 Si / 1000 Ang^3
#
#
#
# Elastic Constant Matrix: (Units=GPa)
#
#
# Indices 1 2 3 4 5 6 
#
# 1 116.7555 26.5075 12.6481 0.0000 -20.0048 0.0000
# 2 26.5075 71.9050 12.1793 0.0000 -9.0517 0.0000
# 3 12.6481 12.1793 61.0489 0.0000 -4.8513 0.0000
# 4 0.0000 0.0000 0.0000 22.2464 0.0000 -12.3194
# 5 -20.0048 -9.0517 -4.8513 0.0000 32.2800 0.0000
# 6 0.0000 0.0000 0.0000 -12.3194 0.0000 12.9985
#
#
#
# Elastic Compliance Matrix: (Units=1/GPa)
#
#
# Indices 1 2 3 4 5 6 
#
# 1 0.010270 -0.002920 -0.001118 0.000000 0.005378 0.000000
# 2 -0.002920 0.015661 -0.002342 0.000000 0.002230 0.000000
# 3 -0.001118 -0.002342 0.017177 0.000000 0.001232 0.000000
# 4 0.000000 0.000000 0.000000 0.094602 0.000000 0.089660
# 5 0.005378 0.002230 0.001232 0.000000 0.035122 0.000000
# 6 0.000000 0.000000 0.000000 0.089660 0.000000 0.161908
#
#
# Mechanical properties :
#
#
# Convention : Reuss Voigt Hill
#
# Bulk Modulus (GPa) = 32.95047 39.15324 36.05185
# Shear Modulus (GPa) = 13.98144 26.72994 20.35569
#
# Velocity S-wave (km/s) = 2.58846 3.57903 3.12327
# Velocity P-wave (km/s) = 4.97232 5.98683 5.50301
#
# Compressibility (1/GPa) = 0.03034858
#
# Stress axis : x y z
#
# Youngs Moduli (GPa) = 97.36743 63.85267 58.21708
#
# Poissons Ratio (x) = 0.18643 0.06508
# Poissons Ratio (y) = 0.28429 0.13636
# Poissons Ratio (z) = 0.10885 0.14956
#
# Static dielectric constant tensor:
#      x y z
#    x 1.790160 0.000000 -0.007400 
#    y 0.000000 1.721730 0.000000 
#    z -0.007400 0.000000 1.726510 
# 
# From -- ./inp_files/30719.got.cif
#   From: 2010.05.17/outbox.cif.g08.bks.cpg/sg15_16_cif.got.tgz:30719.got - 2010.06.03 18:47:42.
