data_PCOD9272788
_publ_section_title
;
Structure prediction by ZEFSAII (Michael W. Deem and Ramdas Pophale) SiO2 
 PCOD9272788
Probable space group: C 2/C
;
_chemical_formula_sum "Si O2"
_cell_formula_units_Z 44
_cell_length_a 12.993708
_cell_length_b 4.909578
_cell_length_c 29.088486
_cell_angle_alpha 90.000000
_cell_angle_beta 102.713861
_cell_angle_gamma 90.000000
_cell_volume 1810.161595
_symmetry_space_group_name_H-M "C 2/C"
_symmetry_group_IT_number 15
_symmetry_cell_setting 'monoclinic'
loop_
_space_group_symop_operation_xyz
x,y,z
-x,y,1/2-z
-x,-y,-z
x,-y,1/2+z
1/2+x,1/2+y,z
1/2-x,1/2+y,1/2-z
1/2-x,1/2-y,-z
1/2+x,1/2-y,1/2+z
loop_
_atom_site_type_symbol
_atom_site_label
_atom_site_fract_x
_atom_site_fract_y
_atom_site_fract_z
Si Si1 0.949130 0.990904 0.545491
Si Si2 0.447791 0.361147 0.645206
Si Si3 0.715527 0.914146 0.771092
Si Si4 0.802651 0.636334 0.131197
Si Si5 0.500000 0.748497 0.250000
Si Si6 0.308489 0.973899 0.536202
O O1 0.999870 0.900394 0.599783
O O2 0.849940 0.776291 0.529685
O O3 0.917122 0.302090 0.552274
O O4 0.000000 0.000000 0.500000
O O5 0.343472 0.554631 0.632562
O O6 0.496085 0.411001 0.700572
O O7 0.407275 0.051753 0.643586
O O8 0.785855 0.105910 0.745941
O O9 0.602268 0.057059 0.757881
O O10 0.756109 0.913748 0.827203
O O11 0.749063 0.537270 0.079240
O O12 0.250000 0.750000 0.500000
#
# Coordination Sequence:
#
# PCOD9272788 Si02
#       6
#     8   8   8   8   4   8
#     4  10  20  37  60  88 121 152 201 260 303 361
#     4   9  19  35  62  84 113 167 196 240 312 369
#     4  11  23  39  63  93 125 162 208 257 310 367
#     4   9  19  37  59  84 119 157 199 247 301 365
#     4  10  22  42  66  88 130 166 210 250 316 378
#     4  10  20  37  63  84 116 164 199 241 317 368
#
# _framework density 24.307223
#
# number of rings (size 3 to 8) (size 9 to 14) (size 15 to 20)
#    0.000    2.182    0.000    3.273    0.000    6.545 
#    3.273    0.000    4.000    0.000    0.000    0.000 
#    0.000    0.000    0.000    0.000    0.000    0.000 
#
# Total GULP energy -122540.934913 kJ/mol
# GULP energy per Si atom -5570.042496 kJ/mol
# Density = 2.425190 g / cm^3
# Si number density = 24.307223 Si / 1000 Ang^3
#
#
#
# Elastic Constant Matrix: (Units=GPa)
#
#
# Indices 1 2 3 4 5 6 
#
# 1 33.1203 5.9709 20.0857 0.0000 -3.6641 0.0000
# 2 5.9709 129.8475 15.5677 0.0000 -4.6873 0.0000
# 3 20.0857 15.5677 201.9289 0.0000 -33.6270 0.0000
# 4 0.0000 0.0000 0.0000 33.2824 0.0000 -10.2687
# 5 -3.6641 -4.6873 -33.6270 0.0000 32.7214 0.0000
# 6 0.0000 0.0000 0.0000 -10.2687 0.0000 13.7969
#
#
#
# Elastic Compliance Matrix: (Units=1/GPa)
#
#
# Indices 1 2 3 4 5 6 
#
# 1 0.032291 -0.001105 -0.003078 0.000000 0.000295 0.000000
# 2 -0.001105 0.007821 -0.000395 0.000000 0.000591 0.000000
# 3 -0.003078 -0.000395 0.006300 0.000000 0.006073 0.000000
# 4 0.000000 0.000000 0.000000 0.039002 0.000000 0.029028
# 5 0.000295 0.000591 0.006073 0.000000 0.036920 0.000000
# 6 0.000000 0.000000 0.000000 0.029028 0.000000 0.094085
#
#
# Mechanical properties :
#
#
# Convention : Reuss Voigt Hill
#
# Bulk Modulus (GPa) = 26.84045 49.79393 38.31719
# Shear Modulus (GPa) = 21.00899 37.51164 29.26031
#
# Velocity S-wave (km/s) = 2.94311 3.93266 3.47330
# Velocity P-wave (km/s) = 4.75555 6.41489 5.64651
#
# Compressibility (1/GPa) = 0.03725720
#
# Stress axis : x y z
#
# Youngs Moduli (GPa) = 30.96816 127.86402 158.72534
#
# Poissons Ratio (x) = 0.14132 0.48851
# Poissons Ratio (y) = 0.03423 0.06263
# Poissons Ratio (z) = 0.09531 0.05045
#
# Static dielectric constant tensor:
#      x y z
#    x 2.022770 0.000000 0.046190 
#    y 0.000000 1.839690 0.000000 
#    z 0.046190 0.000000 2.147550 
# 
# From -- ./inp_files/294263.got.cif
#   From: 2010.05.17/outbox.cif.g08.bks.cpg/sg15_148_cif.got.tgz:294263.got - 2010.06.03 18:47:42.
