data_PCOD9272807
_publ_section_title
;
Structure prediction by ZEFSAII (Michael W. Deem and Ramdas Pophale) SiO2 
 PCOD9272807
Probable space group: C 2/C
;
_chemical_formula_sum "Si O2"
_cell_formula_units_Z 48
_cell_length_a 14.784326
_cell_length_b 23.485165
_cell_length_c 11.594455
_cell_angle_alpha 90.000000
_cell_angle_beta 36.672900
_cell_angle_gamma 90.000000
_cell_volume 2404.355206
_symmetry_space_group_name_H-M "C 2/C"
_symmetry_group_IT_number 15
_symmetry_cell_setting 'monoclinic'
loop_
_space_group_symop_operation_xyz
x,y,z
-x,y,1/2-z
-x,-y,-z
x,-y,1/2+z
1/2+x,1/2+y,z
1/2-x,1/2+y,1/2-z
1/2-x,1/2-y,-z
1/2+x,1/2-y,1/2+z
loop_
_atom_site_type_symbol
_atom_site_label
_atom_site_fract_x
_atom_site_fract_y
_atom_site_fract_z
Si Si1 0.407386 0.672425 0.550773
Si Si2 0.440954 0.426981 0.179535
Si Si3 0.228985 0.016547 0.283655
Si Si4 0.772586 0.227599 0.343642
Si Si5 0.397651 0.888763 0.513122
Si Si6 0.731183 0.084854 0.592581
O O1 0.409930 0.636978 0.666920
O O2 0.275223 0.718935 0.684110
O O3 0.560768 0.704074 0.355074
O O4 0.364473 0.625494 0.498305
O O5 0.500000 0.430123 0.250000
O O6 0.304754 0.470340 0.283972
O O7 0.578036 0.446921 0.956713
O O8 0.362849 0.062981 0.142762
O O9 0.248087 0.976667 0.375181
O O10 0.750000 0.250000 0.500000
O O11 0.660713 0.175649 0.423905
O O12 0.293728 0.914463 0.516850
O O13 0.573332 0.890124 0.303044
#
# Coordination Sequence:
#
# PCOD9272807 Si02
#       6
#     8   8   8   8   8   8
#     4  11  23  40  58  88 119 158 201 252 302 368
#     4  10  21  39  62  90 122 162 207 251 307 365
#     4  10  20  37  60  89 123 160 201 251 301 367
#     4  12  23  36  61  87 122 157 201 251 309 361
#     4  11  21  37  58  91 124 160 195 249 306 366
#     4  10  22  35  57  89 123 158 196 242 312 363
#
# _framework density 19.963771999999999
#
# number of rings (size 3 to 8) (size 9 to 14) (size 15 to 20)
#    0.000    1.333    3.333    3.000    2.333    0.000 
#    0.000    0.833    0.000    0.000    0.000    0.000 
#    0.000    0.000    0.000    0.000    0.000    0.000 
#
# Total GULP energy -133867.084750 kJ/mol
# GULP energy per Si atom -5577.795198 kJ/mol
# Density = 1.991833 g / cm^3
# Si number density = 19.963772 Si / 1000 Ang^3
#
#
#
# Elastic Constant Matrix: (Units=GPa)
#
#
# Indices 1 2 3 4 5 6 
#
# 1 65.7040 30.8913 1.0231 0.0001 7.6884 0.0000
# 2 30.8913 138.3099 21.9293 0.0000 8.9295 0.0000
# 3 1.0231 21.9293 42.8352 0.0001 -8.6014 0.0000
# 4 0.0001 0.0000 0.0001 31.2952 -0.0001 -11.6263
# 5 7.6884 8.9295 -8.6014 -0.0001 22.0789 0.0000
# 6 0.0000 0.0000 0.0000 -11.6263 0.0000 37.5587
#
#
#
# Elastic Compliance Matrix: (Units=1/GPa)
#
#
# Indices 1 2 3 4 5 6 
#
# 1 0.017466 -0.003718 0.000615 0.000000 -0.004339 0.000000
# 2 -0.003718 0.009241 -0.005568 0.000000 -0.004612 0.000000
# 3 0.000615 -0.005568 0.028847 0.000000 0.013276 0.000000
# 4 0.000000 0.000000 0.000000 0.036106 0.000000 0.011177
# 5 -0.004339 -0.004612 0.013276 0.000000 0.053840 0.000000
# 6 0.000000 0.000000 0.000000 0.011177 0.000000 0.030085
#
#
# Mechanical properties :
#
#
# Convention : Reuss Voigt Hill
#
# Bulk Modulus (GPa) = 26.17009 39.39293 32.78151
# Shear Modulus (GPa) = 24.31137 31.05362 27.68249
#
# Velocity S-wave (km/s) = 3.49345 3.94826 3.72780
# Velocity P-wave (km/s) = 5.42305 6.36868 5.91479
#
# Compressibility (1/GPa) = 0.03821155
#
# Stress axis : x y z
#
# Youngs Moduli (GPa) = 57.25360 108.21029 34.66560
#
# Poissons Ratio (x) = 0.40238 -0.02133
# Poissons Ratio (y) = 0.21290 0.19303
# Poissons Ratio (z) = -0.03523 0.60255
#
# Static dielectric constant tensor:
#      x y z
#    x 1.742580 0.000000 0.010170 
#    y 0.000000 1.785890 0.000000 
#    z 0.010170 0.000000 1.750530 
# 
# From -- ./inp_files/99965.got.cif
#   From: 2010.05.17/outbox.cif.g08.bks.cpg/sg15_50_cif.got.tgz:99965.got - 2010.06.03 18:47:42.
