data_PCOD9272911
_publ_section_title
;
Structure prediction by ZEFSAII (Michael W. Deem and Ramdas Pophale) SiO2 
 PCOD9272911
Probable space group: C 2/C
;
_chemical_formula_sum "Si O2"
_cell_formula_units_Z 64
_cell_length_a 30.041866
_cell_length_b 21.405104
_cell_length_c 8.538887
_cell_angle_alpha 90.000000
_cell_angle_beta 147.649233
_cell_angle_gamma 90.000000
_cell_volume 2938.199934
_symmetry_space_group_name_H-M "C 2/C"
_symmetry_group_IT_number 15
_symmetry_cell_setting 'monoclinic'
loop_
_space_group_symop_operation_xyz
x,y,z
-x,y,1/2-z
-x,-y,-z
x,-y,1/2+z
1/2+x,1/2+y,z
1/2-x,1/2+y,1/2-z
1/2-x,1/2-y,-z
1/2+x,1/2-y,1/2+z
loop_
_atom_site_type_symbol
_atom_site_label
_atom_site_fract_x
_atom_site_fract_y
_atom_site_fract_z
Si Si1 0.404488 0.775797 0.015895
Si Si2 0.953864 0.780570 0.964949
Si Si3 0.352140 0.087623 0.388306
Si Si4 0.761462 0.063265 0.886438
Si Si5 0.828357 0.946083 0.244461
Si Si6 0.207572 0.182319 0.350524
Si Si7 0.903228 0.498660 0.758565
Si Si8 0.388430 0.336669 0.247598
O O1 0.500000 0.777573 0.250000
O O2 0.406238 0.764702 0.205844
O O3 0.370671 0.843765 0.882367
O O4 0.367416 0.716797 0.813794
O O5 0.000000 0.749359 0.250000
O O6 0.023996 0.817451 0.074393
O O7 0.881455 0.821294 0.824957
O O8 0.395255 0.036515 0.400776
O O9 0.378183 0.070280 0.642740
O O10 0.255024 0.080246 0.081605
O O11 0.817728 0.066333 0.896690
O O12 0.672262 0.035921 0.562136
O O13 0.742325 0.127698 0.915903
O O14 0.814763 0.018984 0.163001
O O15 0.895744 0.903470 0.356432
O O16 0.250000 0.250000 0.500000
O O17 0.181745 0.168542 0.095279
O O18 0.000000 0.500000 0.000000
#
# Coordination Sequence:
#
# PCOD9272911 Si02
#       8
#     8   8   8   8   8   8   8   8
#     4  10  20  37  61  88 124 164 212 269 328 399
#     4   9  21  43  60  92 131 167 209 276 330 403
#     4  10  22  36  57  83 122 164 221 265 326 392
#     4  10  22  40  62  95 133 172 223 278 330 405
#     4  10  21  39  64  89 128 168 216 272 331 386
#     4  11  24  40  64  95 134 170 221 274 339 398
#     4  10  20  38  57  82 123 173 218 270 325 389
#     4  10  22  39  66  91 127 169 216 272 338 396
#
# _framework density 21.782043999999999
#
# number of rings (size 3 to 8) (size 9 to 14) (size 15 to 20)
#    0.000    2.000    0.000    2.625    5.250    1.500 
#    2.250    0.625    0.000    5.250    0.000    0.000 
#    0.000    0.000    0.000    0.000    0.000    0.000 
#
# Total GULP energy -178252.031373 kJ/mol
# GULP energy per Si atom -5570.375980 kJ/mol
# Density = 2.173247 g / cm^3
# Si number density = 21.782044 Si / 1000 Ang^3
#
#
#
# Elastic Constant Matrix: (Units=GPa)
#
#
# Indices 1 2 3 4 5 6 
#
# 1 86.4473 36.8737 18.7578 0.0000 -8.0013 0.0000
# 2 36.8737 108.9555 12.7728 0.0000 -18.3134 0.0000
# 3 18.7578 12.7728 51.4018 0.0000 -12.8840 0.0000
# 4 0.0000 0.0000 0.0000 5.3134 0.0000 -6.3445
# 5 -8.0013 -18.3134 -12.8840 0.0000 18.5485 0.0000
# 6 0.0000 0.0000 0.0000 -6.3445 0.0000 25.8639
#
#
#
# Elastic Compliance Matrix: (Units=1/GPa)
#
#
# Indices 1 2 3 4 5 6 
#
# 1 0.014355 -0.004574 -0.004458 0.000000 -0.001420 0.000000
# 2 -0.004574 0.012462 0.001407 0.000000 0.011308 0.000000
# 3 -0.004458 0.001407 0.024940 0.000000 0.016790 0.000000
# 4 0.000000 0.000000 0.000000 0.266163 0.000000 0.065291
# 5 -0.001420 0.011308 0.016790 0.000000 0.076127 0.000000
# 6 0.000000 0.000000 0.000000 0.065291 0.000000 0.054680
#
#
# Mechanical properties :
#
#
# Convention : Reuss Voigt Hill
#
# Bulk Modulus (GPa) = 27.39226 42.62369 35.00797
# Shear Modulus (GPa) = 10.50099 21.83851 16.16975
#
# Velocity S-wave (km/s) = 2.19805 3.16981 2.72755
# Velocity P-wave (km/s) = 4.36403 5.74523 5.10159
#
# Compressibility (1/GPa) = 0.03650667
#
# Stress axis : x y z
#
# Youngs Moduli (GPa) = 69.66389 80.24496 40.09604
#
# Poissons Ratio (x) = 0.36706 0.17874
# Poissons Ratio (y) = 0.31866 -0.05642
# Poissons Ratio (z) = 0.31055 -0.11291
#
# Static dielectric constant tensor:
#      x y z
#    x 1.907560 0.000000 -0.035050 
#    y 0.000000 1.881380 0.000000 
#    z -0.035050 0.000000 1.829340 
# 
# From -- ./inp_files/70621.got.cif
#   From: 2010.05.17/outbox.cif.g08.bks.cpg/sg15_36_cif.got.tgz:70621.got - 2010.06.03 18:47:42.
