data_PCOD9272714
_publ_section_title
;
Structure prediction by ZEFSAII (Michael W. Deem and Ramdas Pophale) SiO2 
 PCOD9272714
Probable space group: C 2/C
;
_chemical_formula_sum "Si O2"
_cell_formula_units_Z 64
_cell_length_a 13.120834
_cell_length_b 11.531647
_cell_length_c 22.480656
_cell_angle_alpha 90.000000
_cell_angle_beta 68.597780
_cell_angle_gamma 90.000000
_cell_volume 3166.874718
_symmetry_space_group_name_H-M "C 2/C"
_symmetry_group_IT_number 15
_symmetry_cell_setting 'monoclinic'
loop_
_space_group_symop_operation_xyz
x,y,z
-x,y,1/2-z
-x,-y,-z
x,-y,1/2+z
1/2+x,1/2+y,z
1/2-x,1/2+y,1/2-z
1/2-x,1/2-y,-z
1/2+x,1/2-y,1/2+z
loop_
_atom_site_type_symbol
_atom_site_label
_atom_site_fract_x
_atom_site_fract_y
_atom_site_fract_z
Si Si1 0.827686 0.719521 0.038365
Si Si2 0.577826 0.778680 0.486015
Si Si3 0.105767 0.585963 0.766741
Si Si4 0.206798 0.275377 0.348548
Si Si5 0.104815 0.678436 0.267204
Si Si6 0.465117 0.550767 0.943431
Si Si7 0.831729 0.128800 0.651793
Si Si8 0.243421 0.528235 0.927721
O O1 0.816307 0.821155 0.088933
O O2 0.800258 0.598679 0.076698
O O3 0.750000 0.750000 0.000000
O O4 0.953695 0.702825 0.991856
O O5 0.644269 0.720525 0.417595
O O6 0.565382 0.687701 0.541685
O O7 0.649417 0.894857 0.481765
O O8 0.124090 0.672395 0.817634
O O9 0.091863 0.453527 0.791056
O O10 0.217349 0.589648 0.704133
O O11 0.000000 0.616128 0.750000
O O12 0.291486 0.192900 0.298427
O O13 0.265022 0.389140 0.366139
O O14 0.124531 0.767617 0.315878
O O15 0.000000 0.709286 0.250000
O O16 0.567642 0.539794 0.877166
O O17 0.352363 0.503643 0.941940
O O18 0.500000 0.500000 0.000000
#
# Coordination Sequence:
#
# PCOD9272714 Si02
#       8
#     8   8   8   8   8   8   8   8
#     4  11  22  39  57  89 122 158 192 239 301 355
#     4   9  22  37  58  84 120 153 200 235 288 357
#     4  10  22  40  60  87 111 154 200 240 298 346
#     4   9  21  36  60  85 115 147 198 241 290 351
#     4  10  20  40  61  84 110 150 199 244 292 344
#     4  11  22  39  57  92 122 156 193 244 302 354
#     4  10  23  38  59  83 123 149 189 246 293 351
#     4  10  20  37  60  83 117 157 198 237 288 358
#
# _framework density 20.209199000000002
#
# number of rings (size 3 to 8) (size 9 to 14) (size 15 to 20)
#    0.750    1.250    0.000    3.750    3.500    0.000 
#    0.000    0.000    0.000    3.750    0.000    0.000 
#    0.000    0.000    0.000    0.000    0.000    0.000 
#
# Total GULP energy -178367.621066 kJ/mol
# GULP energy per Si atom -5573.988158 kJ/mol
# Density = 2.016320 g / cm^3
# Si number density = 20.209199 Si / 1000 Ang^3
#
#
#
# Elastic Constant Matrix: (Units=GPa)
#
#
# Indices 1 2 3 4 5 6 
#
# 1 110.3056 0.4106 12.9522 0.0000 2.2519 0.0000
# 2 0.4106 35.1012 -19.1332 0.0000 2.7554 0.0000
# 3 12.9522 -19.1332 50.0226 0.0000 -8.2595 0.0000
# 4 0.0000 0.0000 0.0000 18.7510 0.0000 -4.2582
# 5 2.2519 2.7554 -8.2595 0.0000 27.8985 0.0000
# 6 0.0000 0.0000 0.0000 -4.2582 0.0000 4.6167
#
#
#
# Elastic Compliance Matrix: (Units=1/GPa)
#
#
# Indices 1 2 3 4 5 6 
#
# 1 0.009509 -0.001859 -0.003438 0.000000 -0.001602 0.000000
# 2 -0.001859 0.036365 0.014533 0.000000 0.000861 0.000000
# 3 -0.003438 0.014533 0.027598 0.000000 0.007013 0.000000
# 4 0.000000 0.000000 0.000000 0.067460 0.000000 0.062220
# 5 -0.001602 0.000861 0.007013 0.000000 0.037965 0.000000
# 6 0.000000 0.000000 0.000000 0.062220 0.000000 0.273991
#
#
# Mechanical properties :
#
#
# Convention : Reuss Voigt Hill
#
# Bulk Modulus (GPa) = 10.87632 20.43207 15.65419
# Shear Modulus (GPa) = 10.75122 23.66656 17.20889
#
# Velocity S-wave (km/s) = 2.30901 3.42582 2.92128
# Velocity P-wave (km/s) = 3.53585 5.07745 4.37509
#
# Compressibility (1/GPa) = 0.09194290
#
# Stress axis : x y z
#
# Youngs Moduli (GPa) = 105.16340 27.49905 36.23490
#
# Poissons Ratio (x) = 0.05113 0.12457
# Poissons Ratio (y) = 0.19554 -0.52660
# Poissons Ratio (z) = 0.36153 -0.39964
#
# Static dielectric constant tensor:
#      x y z
#    x 1.727160 0.000000 -0.024080 
#    y 0.000000 1.725150 0.000000 
#    z -0.024080 0.000000 1.715330 
# 
# From -- ./inp_files/269227.got.cif
#   From: 2010.05.17/outbox.cif.g08.bks.cpg/sg15_135_cif.got.tgz:269227.got - 2010.06.03 18:47:42.
