data_PCOD9272749
_publ_section_title
;
Structure prediction by ZEFSAII (Michael W. Deem and Ramdas Pophale) SiO2 
 PCOD9272749
Probable space group: C 2/C
;
_chemical_formula_sum "Si O2"
_cell_formula_units_Z 32
_cell_length_a 16.284684
_cell_length_b 13.263534
_cell_length_c 8.120023
_cell_angle_alpha 90.000000
_cell_angle_beta 129.518229
_cell_angle_gamma 90.000000
_cell_volume 1352.969378
_symmetry_space_group_name_H-M "C 2/C"
_symmetry_group_IT_number 15
_symmetry_cell_setting 'monoclinic'
loop_
_space_group_symop_operation_xyz
x,y,z
-x,y,1/2-z
-x,-y,-z
x,-y,1/2+z
1/2+x,1/2+y,z
1/2-x,1/2+y,1/2-z
1/2-x,1/2-y,-z
1/2+x,1/2-y,1/2+z
loop_
_atom_site_type_symbol
_atom_site_label
_atom_site_fract_x
_atom_site_fract_y
_atom_site_fract_z
Si Si1 0.078273 0.439882 0.479779
Si Si2 0.255202 0.894188 0.349045
Si Si3 0.622907 0.469341 0.863905
Si Si4 0.227234 0.804199 0.793585
O O1 0.165490 0.357273 0.639009
O O2 0.150057 0.528188 0.491652
O O3 0.000000 0.388296 0.250000
O O4 0.000000 0.500000 0.500000
O O5 0.200305 0.715828 0.631919
O O6 0.165665 0.920235 0.368505
O O7 0.500000 0.468217 0.750000
O O8 0.645184 0.392111 0.739860
O O9 0.697328 0.429049 0.105850
O O10 0.250000 0.750000 0.000000
#
# Coordination Sequence:
#
# PCOD9272749 Si02
#       4
#     8   8   8   8
#     4  11  22  40  63  90 123 163 202 249 304 360
#     4  10  21  38  59  90 122 155 202 253 295 357
#     4  10  20  37  60  86 118 158 198 246 300 355
#     4   9  20  37  60  86 116 156 203 240 288 366
#
# _framework density 23.651679999999999
#
# number of rings (size 3 to 8) (size 9 to 14) (size 15 to 20)
#    0.000    2.000    0.000    5.250    0.000    8.000 
#    0.000   12.500    0.000    0.000    0.000    0.000 
#    0.000    0.000    0.000    0.000    0.000    0.000 
#
# Total GULP energy -89328.277341 kJ/mol
# GULP energy per Si atom -5583.017334 kJ/mol
# Density = 2.359785 g / cm^3
# Si number density = 23.651680 Si / 1000 Ang^3
#
#
#
# Elastic Constant Matrix: (Units=GPa)
#
#
# Indices 1 2 3 4 5 6 
#
# 1 144.5830 23.5030 9.6879 0.0000 16.8453 0.0000
# 2 23.5030 100.8916 9.4261 0.0000 6.8964 0.0000
# 3 9.6879 9.4261 53.3959 0.0000 6.5838 0.0000
# 4 0.0000 0.0000 0.0000 27.9269 0.0000 -6.7007
# 5 16.8453 6.8964 6.5838 0.0000 31.8181 0.0000
# 6 0.0000 0.0000 0.0000 -6.7007 0.0000 24.2029
#
#
#
# Elastic Compliance Matrix: (Units=1/GPa)
#
#
# Indices 1 2 3 4 5 6 
#
# 1 0.007617 -0.001466 -0.000682 0.000000 -0.003574 0.000000
# 2 -0.001466 0.010469 -0.001435 0.000000 -0.001196 0.000000
# 3 -0.000682 -0.001435 0.019520 0.000000 -0.003367 0.000000
# 4 0.000000 0.000000 0.000000 0.038356 0.000000 0.010619
# 5 -0.003574 -0.001196 -0.003367 0.000000 0.034276 0.000000
# 6 0.000000 0.000000 0.000000 0.010619 0.000000 0.044257
#
#
# Mechanical properties :
#
#
# Convention : Reuss Voigt Hill
#
# Bulk Modulus (GPa) = 32.85232 42.67827 37.76530
# Shear Modulus (GPa) = 29.10214 33.87316 31.48765
#
# Velocity S-wave (km/s) = 3.51158 3.78850 3.65267
# Velocity P-wave (km/s) = 5.51015 6.10088 5.81302
#
# Compressibility (1/GPa) = 0.03043925
#
# Stress axis : x y z
#
# Youngs Moduli (GPa) = 131.28723 95.52010 51.22882
#
# Poissons Ratio (x) = 0.14007 0.03496
# Poissons Ratio (y) = 0.19251 0.07349
# Poissons Ratio (z) = 0.08960 0.13703
#
# Static dielectric constant tensor:
#      x y z
#    x 1.896660 0.000000 -0.079050 
#    y 0.000000 1.905510 0.000000 
#    z -0.079050 0.000000 1.937960 
# 
# From -- ./inp_files/46805.got.cif
#   From: 2010.05.17/outbox.cif.g08.bks.cpg/sg15_24_cif.got.tgz:46805.got - 2010.06.03 18:47:42.
