data_PCOD9272873
_publ_section_title
;
Structure prediction by ZEFSAII (Michael W. Deem and Ramdas Pophale) SiO2 
 PCOD9272873
Probable space group: C 2/C
;
_chemical_formula_sum "Si O2"
_cell_formula_units_Z 56
_cell_length_a 20.974542
_cell_length_b 6.843098
_cell_length_c 30.082460
_cell_angle_alpha 90.000000
_cell_angle_beta 141.018778
_cell_angle_gamma 90.000000
_cell_volume 2716.155126
_symmetry_space_group_name_H-M "C 2/C"
_symmetry_group_IT_number 15
_symmetry_cell_setting 'monoclinic'
loop_
_space_group_symop_operation_xyz
x,y,z
-x,y,1/2-z
-x,-y,-z
x,-y,1/2+z
1/2+x,1/2+y,z
1/2-x,1/2+y,1/2-z
1/2-x,1/2-y,-z
1/2+x,1/2-y,1/2+z
loop_
_atom_site_type_symbol
_atom_site_label
_atom_site_fract_x
_atom_site_fract_y
_atom_site_fract_z
Si Si1 0.780834 0.294543 0.581070
Si Si2 0.110763 0.562458 0.788833
Si Si3 0.248924 0.913997 0.886961
Si Si4 0.827564 0.345915 0.347191
Si Si5 0.536967 0.871478 0.477361
Si Si6 0.627907 0.855668 0.704982
Si Si7 0.916112 0.706564 0.068504
O O1 0.821096 0.412451 0.645233
O O2 0.853418 0.343400 0.578963
O O3 0.663866 0.332799 0.503647
O O4 0.786443 0.059574 0.592993
O O5 0.162565 0.772794 0.822635
O O6 0.104637 0.494740 0.734505
O O7 0.000000 0.562067 0.750000
O O8 0.285190 0.068564 0.869845
O O9 0.351336 0.789909 0.952167
O O10 0.735419 0.237018 0.274635
O O11 0.854072 0.526914 0.330150
O O12 0.937190 0.242773 0.413258
O O13 0.500000 0.000000 0.500000
O O14 0.561077 0.016823 0.449382
O O15 0.528171 0.721233 0.643402
#
# Coordination Sequence:
#
# PCOD9272873 Si02
#       7
#     8   8   8   8   8   8   8
#     4  10  20  41  61  87 120 163 203 243 303 367
#     4  12  24  38  61  90 125 157 200 256 306 358
#     4  10  21  39  62  88 119 160 201 243 307 363
#     4  10  20  37  61  84 121 158 199 251 305 356
#     4   8  17  36  60  83 117 160 195 249 298 348
#     4  11  21  38  59  88 123 156 199 256 304 357
#     4   9  19  36  64  82 120 166 196 245 308 355
#
# _framework density 20.617380000000001
#
# number of rings (size 3 to 8) (size 9 to 14) (size 15 to 20)
#    0.000    2.000    2.857    0.857    0.000    1.714 
#    2.571    7.143    0.000    0.000    0.000    0.000 
#    0.000    0.000    0.000    0.000    0.000    0.000 
#
# Total GULP energy -155926.362047 kJ/mol
# GULP energy per Si atom -5568.798645 kJ/mol
# Density = 2.057045 g / cm^3
# Si number density = 20.617380 Si / 1000 Ang^3
#
#
#
# Elastic Constant Matrix: (Units=GPa)
#
#
# Indices 1 2 3 4 5 6 
#
# 1 101.0720 16.0936 23.2034 -0.0002 10.1046 -0.0004
# 2 16.0936 19.3692 4.4874 -0.0009 9.7336 -0.0027
# 3 23.2034 4.4874 93.4748 0.0001 16.9406 -0.0008
# 4 -0.0002 -0.0009 0.0001 27.1861 0.0002 1.4615
# 5 10.1046 9.7336 16.9406 0.0002 28.0222 -0.0003
# 6 -0.0004 -0.0027 -0.0008 1.4615 -0.0003 15.9504
#
#
#
# Elastic Compliance Matrix: (Units=1/GPa)
#
#
# Indices 1 2 3 4 5 6 
#
# 1 0.011970 -0.009650 -0.002620 0.000000 0.000620 -0.000001
# 2 -0.009650 0.070418 0.003164 0.000002 -0.022893 0.000011
# 3 -0.002620 0.003164 0.012606 0.000000 -0.007775 0.000001
# 4 0.000000 0.000002 0.000000 0.036966 -0.000001 -0.003387
# 5 0.000620 -0.022893 -0.007775 -0.000001 0.048115 -0.000003
# 6 -0.000001 0.000011 0.000001 -0.003387 -0.000003 0.063005
#
#
# Mechanical properties :
#
#
# Convention : Reuss Voigt Hill
#
# Bulk Modulus (GPa) = 13.02421 33.49832 23.26126
# Shear Modulus (GPa) = 17.42857 25.57384 21.50121
#
# Velocity S-wave (km/s) = 2.91062 3.52576 3.23285
# Velocity P-wave (km/s) = 4.19838 5.73214 5.02414
#
# Compressibility (1/GPa) = 0.07678007
#
# Stress axis : x y z
#
# Youngs Moduli (GPa) = 83.54121 14.20096 79.32922
#
# Poissons Ratio (x) = 0.13704 0.20788
# Poissons Ratio (y) = 0.80619 -0.25099
# Poissons Ratio (z) = 0.21891 -0.04493
#
# Static dielectric constant tensor:
#      x y z
#    x 1.712140 0.000000 0.017110 
#    y 0.000000 1.730330 0.000000 
#    z 0.017110 0.000000 1.869460 
# 
# From -- ./inp_files/298552.got.cif
#   From: 2010.05.17/outbox.cif.g08.bks.cpg/sg15_150_cif.got.tgz:298552.got - 2010.06.03 18:47:42.
