data_PCOD9272244
_publ_section_title
;
Structure prediction by ZEFSAII (Michael W. Deem and Ramdas Pophale) SiO2 
 PCOD9272244
Probable space group: C 2/C
;
_chemical_formula_sum "Si O2"
_cell_formula_units_Z 44
_cell_length_a 13.499846
_cell_length_b 28.477893
_cell_length_c 8.170571
_cell_angle_alpha 90.000000
_cell_angle_beta 138.033105
_cell_angle_gamma 90.000000
_cell_volume 2100.492436
_symmetry_space_group_name_H-M "C 2/C"
_symmetry_group_IT_number 15
_symmetry_cell_setting 'monoclinic'
loop_
_space_group_symop_operation_xyz
x,y,z
-x,y,1/2-z
-x,-y,-z
x,-y,1/2+z
1/2+x,1/2+y,z
1/2-x,1/2+y,1/2-z
1/2-x,1/2-y,-z
1/2+x,1/2-y,1/2+z
loop_
_atom_site_type_symbol
_atom_site_label
_atom_site_fract_x
_atom_site_fract_y
_atom_site_fract_z
Si Si1 0.359625 0.644891 0.358452
Si Si2 0.428499 0.725787 0.985532
Si Si3 0.881602 0.069405 0.838498
Si Si4 0.500000 0.496930 0.250000
Si Si5 0.207336 0.354829 0.316690
Si Si6 0.583381 0.825886 0.680357
O O1 0.450828 0.693436 0.457017
O O2 0.480047 0.604368 0.518890
O O3 0.239739 0.648035 0.354742
O O4 0.275046 0.638740 0.080685
O O5 0.500000 0.738474 0.250000
O O6 0.287957 0.692374 0.847669
O O7 0.390697 0.772031 0.839389
O O8 0.873063 0.037068 0.668086
O O9 0.754861 0.102008 0.758697
O O10 0.927956 0.031436 0.030930
O O11 0.033511 0.347026 0.092325
O O12 0.500000 0.829016 0.750000
#
# Coordination Sequence:
#
# PCOD9272244 Si02
#       6
#     8   8   8   4   8   8
#     4  10  20  38  59  82 114 150 192 226 273 335
#     4   9  19  37  59  80 106 153 202 230 260 325
#     4  10  20  38  64  93 108 140 179 237 279 338
#     4  10  20  36  66  92 112 130 184 232 288 338
#     4  10  20  38  59  82 114 150 192 226 273 335
#     4  12  25  34  50  83 121 156 186 229 280 323
#
# _framework density 20.947469000000002
#
# number of rings (size 3 to 8) (size 9 to 14) (size 15 to 20)
#    0.000    1.818    1.818    3.818    2.545    5.818 
#    3.273    0.000    0.000    6.545    0.000    0.000 
#    0.000    0.000    0.000    0.000    0.000    0.000 
#
# Total GULP energy -122991.718917 kJ/mol
# GULP energy per Si atom -5590.532678 kJ/mol
# Density = 2.089979 g / cm^3
# Si number density = 20.947469 Si / 1000 Ang^3
#
#
#
# Elastic Constant Matrix: (Units=GPa)
#
#
# Indices 1 2 3 4 5 6 
#
# 1 110.3015 39.9988 4.9525 0.0000 5.8920 0.0000
# 2 39.9988 109.1991 8.5477 0.0000 -1.5023 0.0000
# 3 4.9525 8.5477 27.1810 0.0000 8.9247 0.0000
# 4 0.0000 0.0000 0.0000 30.5197 0.0000 -23.3027
# 5 5.8920 -1.5023 8.9247 0.0000 27.7418 0.0000
# 6 0.0000 0.0000 0.0000 -23.3027 0.0000 16.4900
#
#
#
# Elastic Compliance Matrix: (Units=1/GPa)
#
#
# Indices 1 2 3 4 5 6 
#
# 1 0.010621 -0.003935 0.000126 0.000000 -0.002510 0.000000
# 2 -0.003935 0.010913 -0.003559 0.000000 0.002572 0.000000
# 3 0.000126 -0.003559 0.042442 0.000000 -0.013873 0.000000
# 4 0.000000 0.000000 0.000000 -0.414906 0.000000 -0.586320
# 5 -0.002510 0.002572 -0.013873 0.000000 0.041182 0.000000
# 6 0.000000 0.000000 0.000000 -0.586320 0.000000 -0.767908
#
#
# Mechanical properties :
#
#
# Convention : Reuss Voigt Hill
#
# Bulk Modulus (GPa) = 20.30865 39.29774 29.80320
# Shear Modulus (GPa) = -4.77780 27.82915 11.52567
#
# Velocity S-wave (km/s) = -1.51189 3.64884 2.34822
# Velocity P-wave (km/s) = 2.58232 6.04590 4.64872
#
# Compressibility (1/GPa) = 0.04924009
#
# Stress axis : x y z
#
# Youngs Moduli (GPa) = 94.14977 91.63459 23.56162
#
# Poissons Ratio (x) = 0.36058 -0.00297
# Poissons Ratio (y) = 0.37047 0.08386
# Poissons Ratio (z) = -0.01188 0.32615
#
# Static dielectric constant tensor:
#      x y z
#    x 1.801280 0.000000 -0.056540 
#    y 0.000000 1.726050 0.000000 
#    z -0.056540 0.000000 1.766290 
# 
# From -- ./inp_files/33992.got.cif
#   From: 2010.05.17/outbox.cif.g08.bks.cpg/sg15_17_cif.got.tgz:33992.got - 2010.06.03 18:47:42.
