data_PCOD9272987
_publ_section_title
;
Structure prediction by ZEFSAII (Michael W. Deem and Ramdas Pophale) SiO2 
 PCOD9272987
Probable space group: C 2/C
;
_chemical_formula_sum "Si O2"
_cell_formula_units_Z 48
_cell_length_a 9.059817
_cell_length_b 15.350523
_cell_length_c 19.824323
_cell_angle_alpha 90.000000
_cell_angle_beta 66.181412
_cell_angle_gamma 90.000000
_cell_volume 2522.207126
_symmetry_space_group_name_H-M "C 2/C"
_symmetry_group_IT_number 15
_symmetry_cell_setting 'monoclinic'
loop_
_space_group_symop_operation_xyz
x,y,z
-x,y,1/2-z
-x,-y,-z
x,-y,1/2+z
1/2+x,1/2+y,z
1/2-x,1/2+y,1/2-z
1/2-x,1/2-y,-z
1/2+x,1/2-y,1/2+z
loop_
_atom_site_type_symbol
_atom_site_label
_atom_site_fract_x
_atom_site_fract_y
_atom_site_fract_z
Si Si1 0.455683 0.445946 0.575241
Si Si2 0.656335 0.565700 0.171690
Si Si3 0.276395 0.090442 0.841408
Si Si4 0.872878 0.401812 0.170889
Si Si5 0.697513 0.769804 0.906480
Si Si6 0.976529 0.252455 0.064263
O O1 0.500000 0.500000 0.500000
O O2 0.596609 0.444274 0.605354
O O3 0.314926 0.499734 0.637448
O O4 0.413012 0.345755 0.566826
O O5 0.500000 0.569689 0.250000
O O6 0.768611 0.483851 0.167345
O O7 0.758180 0.655663 0.155189
O O8 0.435739 0.080501 0.857800
O O9 0.322369 0.115769 0.757061
O O10 0.170479 0.171810 0.885785
O O11 0.859570 0.318561 0.124515
O O12 0.863048 0.759745 0.919072
O O13 0.548189 0.792351 0.982249
#
# Coordination Sequence:
#
# PCOD9272987 Si02
#       6
#     8   8   8   8   8   8
#     4  11  21  39  63  86 116 156 192 237 291 348
#     4  11  23  38  60  88 117 151 198 243 288 341
#     4  10  20  37  62  84 118 150 193 238 290 344
#     4  10  22  37  57  86 116 153 191 242 289 339
#     4   9  19  34  58  87 108 151 198 235 275 343
#     4   9  19  36  58  83 115 150 194 234 283 346
#
# _framework density 19.030951000000002
#
# number of rings (size 3 to 8) (size 9 to 14) (size 15 to 20)
#    0.000    2.000    3.333    0.000    9.333    0.667 
#    0.000    2.500    3.667    0.000    0.000    0.000 
#    0.000    0.000    0.000    0.000    0.000    0.000 
#
# Total GULP energy -133705.687090 kJ/mol
# GULP energy per Si atom -5571.070295 kJ/mol
# Density = 1.898764 g / cm^3
# Si number density = 19.030951 Si / 1000 Ang^3
#
#
#
# Elastic Constant Matrix: (Units=GPa)
#
#
# Indices 1 2 3 4 5 6 
#
# 1 20.2293 29.4851 16.2905 0.0000 1.1472 0.0000
# 2 29.4851 150.9128 55.5655 0.0000 -19.3510 0.0000
# 3 16.2905 55.5655 79.3423 0.0000 -12.5298 0.0000
# 4 0.0000 0.0000 0.0000 38.5965 0.0000 -5.6632
# 5 1.1472 -19.3510 -12.5298 0.0000 20.9231 0.0000
# 6 0.0000 0.0000 0.0000 -5.6632 0.0000 16.0888
#
#
#
# Elastic Compliance Matrix: (Units=1/GPa)
#
#
# Indices 1 2 3 4 5 6 
#
# 1 0.081130 -0.015411 -0.009739 0.000000 -0.024534 0.000000
# 2 -0.015411 0.012353 -0.003920 0.000000 0.009922 0.000000
# 3 -0.009739 -0.003920 0.018621 0.000000 0.008060 0.000000
# 4 0.000000 0.000000 0.000000 0.027320 0.000000 0.009617
# 5 -0.024534 0.009922 0.008060 0.000000 0.063143 0.000000
# 6 0.000000 0.000000 0.000000 0.009617 0.000000 0.065540
#
#
# Mechanical properties :
#
#
# Convention : Reuss Voigt Hill
#
# Bulk Modulus (GPa) = 18.53098 50.35184 34.44141
# Shear Modulus (GPa) = 14.52497 25.06456 19.79477
#
# Velocity S-wave (km/s) = 2.76566 3.63304 3.22861
# Velocity P-wave (km/s) = 4.46731 6.64184 5.65999
#
# Compressibility (1/GPa) = 0.05396370
#
# Stress axis : x y z
#
# Youngs Moduli (GPa) = 12.32597 80.95261 53.70176
#
# Poissons Ratio (x) = 1.24755 0.52301
# Poissons Ratio (y) = 0.18995 0.21051
# Poissons Ratio (z) = 0.12005 0.31733
#
# Static dielectric constant tensor:
#      x y z
#    x 1.663070 0.000000 0.015690 
#    y 0.000000 1.678000 0.000000 
#    z 0.015690 0.000000 1.706880 
# 
# From -- ./inp_files/237975.got.cif
#   From: 2010.05.17/outbox.cif.g08.bks.cpg/sg15_119_cif.got.tgz:237975.got - 2010.06.03 18:47:42.
