data_PCOD9272494
_publ_section_title
;
Structure prediction by ZEFSAII (Michael W. Deem and Ramdas Pophale) SiO2 
 PCOD9272494
Probable space group: C 2/C
;
_chemical_formula_sum "Si O2"
_cell_formula_units_Z 52
_cell_length_a 13.397266
_cell_length_b 29.222646
_cell_length_c 18.177431
_cell_angle_alpha 90.000000
_cell_angle_beta 156.719161
_cell_angle_gamma 90.000000
_cell_volume 2812.725038
_symmetry_space_group_name_H-M "C 2/C"
_symmetry_group_IT_number 15
_symmetry_cell_setting 'monoclinic'
loop_
_space_group_symop_operation_xyz
x,y,z
-x,y,1/2-z
-x,-y,-z
x,-y,1/2+z
1/2+x,1/2+y,z
1/2-x,1/2+y,1/2-z
1/2-x,1/2-y,-z
1/2+x,1/2-y,1/2+z
loop_
_atom_site_type_symbol
_atom_site_label
_atom_site_fract_x
_atom_site_fract_y
_atom_site_fract_z
Si Si1 0.605246 0.685171 0.655346
Si Si2 0.372820 0.220790 0.243894
Si Si3 0.483525 0.050215 0.567661
Si Si4 0.710190 0.047533 0.565433
Si Si5 0.329096 0.863808 0.560284
Si Si6 0.466755 0.135306 0.642945
Si Si7 0.500000 0.395400 0.750000
O O1 0.645505 0.732523 0.725158
O O2 0.398499 0.697979 0.453137
O O3 0.453239 0.649511 0.604626
O O4 0.858836 0.665619 0.791959
O O5 0.500000 0.230288 0.250000
O O6 0.555321 0.181560 0.400300
O O7 0.662937 0.055876 0.619605
O O8 0.551391 0.082906 0.681630
O O9 0.211483 0.071415 0.357902
O O10 0.453490 0.997129 0.565988
O O11 0.655785 0.092228 0.480424
O O12 0.000000 0.035257 0.750000
O O13 0.500000 0.870230 0.750000
O O14 0.500000 0.146826 0.750000
O O15 0.171960 0.134850 0.420297
#
# Coordination Sequence:
#
# PCOD9272494 Si02
#       7
#     8   8   8   8   8   8   4
#     4  10  20  37  57  86 111 150 191 240 296 355
#     4   9  19  36  56  83 121 144 179 239 304 361
#     4   9  21  37  55  83 121 160 192 241 295 343
#     4  11  19  34  58  88 118 150 200 242 282 355
#     4   9  20  34  54  89 121 146 190 241 293 362
#     4  10  21  40  61  82 114 156 204 244 281 355
#     4   8  20  42  56  82 116 164 196 232 304 332
#
# _framework density 18.487409
#
# number of rings (size 3 to 8) (size 9 to 14) (size 15 to 20)
#    0.923    1.846    0.769    2.769    0.000    7.385 
#    2.769    0.769    0.000    9.231    0.000    0.000 
#    0.000    0.000    0.000    0.000    0.000    0.000 
#
# Total GULP energy -144767.953178 kJ/mol
# GULP energy per Si atom -5567.998199 kJ/mol
# Density = 1.844533 g / cm^3
# Si number density = 18.487409 Si / 1000 Ang^3
#
#
#
# Elastic Constant Matrix: (Units=GPa)
#
#
# Indices 1 2 3 4 5 6 
#
# 1 70.3624 51.8112 20.6750 -0.0029 14.5864 -0.0005
# 2 51.8112 129.4166 24.2782 -0.0009 -2.2755 -0.0022
# 3 20.6750 24.2782 49.6375 -0.0007 10.5150 -0.0053
# 4 -0.0029 -0.0009 -0.0007 15.0924 -0.0036 7.0503
# 5 14.5864 -2.2755 10.5150 -0.0036 21.7366 -0.0005
# 6 -0.0005 -0.0022 -0.0053 7.0503 -0.0005 -12.3744
#
#
#
# Elastic Compliance Matrix: (Units=1/GPa)
#
#
# Indices 1 2 3 4 5 6 
#
# 1 0.026109 -0.010373 -0.002072 -0.000001 -0.017604 0.000002
# 2 -0.010373 0.012838 -0.004142 0.000001 0.010309 0.000000
# 3 -0.002072 -0.004142 0.025439 0.000002 -0.011350 -0.000009
# 4 -0.000001 0.000001 0.000002 0.052331 0.000009 0.029815
# 5 -0.017604 0.010309 -0.011350 0.000009 0.064388 0.000006
# 6 0.000002 0.000000 -0.000009 0.029815 0.000006 -0.063825
#
#
# Mechanical properties :
#
#
# Convention : Reuss Voigt Hill
#
# Bulk Modulus (GPa) = 32.04000 49.21614 40.62807
# Shear Modulus (GPa) = 31.08304 15.06771 23.07537
#
# Velocity S-wave (km/s) = 4.10482 2.85796 3.53677
# Velocity P-wave (km/s) = 6.31145 6.12942 6.22110
#
# Compressibility (1/GPa) = 0.03121099
#
# Stress axis : x y z
#
# Youngs Moduli (GPa) = 38.30144 77.89232 39.30907
#
# Poissons Ratio (x) = 0.80800 0.08145
# Poissons Ratio (y) = 0.39731 0.16283
# Poissons Ratio (z) = 0.07936 0.32266
#
# Static dielectric constant tensor:
#      x y z
#    x 1.618450 0.000000 -0.009470 
#    y 0.000000 1.656490 0.000000 
#    z -0.009470 0.000000 1.669020 
# 
# From -- ./inp_files/245894.got.cif
#   From: 2010.05.17/outbox.cif.g08.bks.cpg/sg15_123_cif.got.tgz:245894.got - 2010.06.03 18:47:42.
