data_PCOD9272733
_publ_section_title
;
Structure prediction by ZEFSAII (Michael W. Deem and Ramdas Pophale) SiO2 
 PCOD9272733
Probable space group: C 2/C
;
_chemical_formula_sum "Si O2"
_cell_formula_units_Z 48
_cell_length_a 7.649846
_cell_length_b 12.240896
_cell_length_c 23.824677
_cell_angle_alpha 90.000000
_cell_angle_beta 82.137288
_cell_angle_gamma 90.000000
_cell_volume 2209.991873
_symmetry_space_group_name_H-M "C 2/C"
_symmetry_group_IT_number 15
_symmetry_cell_setting 'monoclinic'
loop_
_space_group_symop_operation_xyz
x,y,z
-x,y,1/2-z
-x,-y,-z
x,-y,1/2+z
1/2+x,1/2+y,z
1/2-x,1/2+y,1/2-z
1/2-x,1/2-y,-z
1/2+x,1/2-y,1/2+z
loop_
_atom_site_type_symbol
_atom_site_label
_atom_site_fract_x
_atom_site_fract_y
_atom_site_fract_z
Si Si1 0.218075 0.795513 0.391157
Si Si2 0.563311 0.471206 0.312169
Si Si3 0.053002 0.209479 0.311452
Si Si4 0.601847 0.977774 0.054486
Si Si5 0.702857 0.104655 0.859716
Si Si6 0.331239 0.786908 0.937904
O O1 0.384375 0.727160 0.360067
O O2 0.281583 0.869588 0.441335
O O3 0.167748 0.876670 0.341003
O O4 0.041350 0.731826 0.418085
O O5 0.500000 0.451172 0.250000
O O6 0.645193 0.591655 0.317918
O O7 0.373012 0.468959 0.350346
O O8 0.000000 0.194289 0.250000
O O9 0.156251 0.325227 0.307148
O O10 0.456481 0.963380 0.109126
O O11 0.710405 0.085712 0.063125
O O12 0.500000 0.000000 0.000000
O O13 0.737985 0.207990 0.898286
O O14 0.250000 0.750000 0.000000
#
# Coordination Sequence:
#
# PCOD9272733 Si02
#       6
#     8   8   8   8   8   8
#     4  10  23  38  58  86 116 150 191 238 286 344
#     4  10  20  37  60  85 112 147 186 231 289 342
#     4  10  20  37  60  85 112 147 186 231 289 342
#     4  11  22  39  56  82 114 152 192 233 284 334
#     4  10  21  38  56  82 116 144 185 238 276 340
#     4  11  22  39  56  82 114 152 192 233 284 334
#
# _framework density 21.719536000000002
#
# number of rings (size 3 to 8) (size 9 to 14) (size 15 to 20)
#    0.000    1.667    1.667    3.000    0.000    1.333 
#    3.000    0.000    0.000   16.000    0.000    0.000 
#    0.000    0.000    0.000    0.000    0.000    0.000 
#
# Total GULP energy -133681.860784 kJ/mol
# GULP energy per Si atom -5570.077533 kJ/mol
# Density = 2.167010 g / cm^3
# Si number density = 21.719536 Si / 1000 Ang^3
#
#
#
# Elastic Constant Matrix: (Units=GPa)
#
#
# Indices 1 2 3 4 5 6 
#
# 1 38.3582 -12.1758 -4.1430 0.0000 -2.5463 0.0000
# 2 -12.1758 76.0958 8.9717 0.0000 3.7997 0.0000
# 3 -4.1430 8.9717 50.3761 0.0000 16.6063 0.0000
# 4 0.0000 0.0000 0.0000 16.2064 0.0000 -4.7946
# 5 -2.5463 3.7997 16.6063 0.0000 36.8014 0.0000
# 6 0.0000 0.0000 0.0000 -4.7946 0.0000 9.0429
#
#
#
# Elastic Compliance Matrix: (Units=1/GPa)
#
#
# Indices 1 2 3 4 5 6 
#
# 1 0.027604 0.004228 0.001212 0.000000 0.000927 0.000000
# 2 0.004228 0.014075 -0.002087 0.000000 -0.000219 0.000000
# 3 0.001212 -0.002087 0.023757 0.000000 -0.010421 0.000000
# 4 0.000000 0.000000 0.000000 0.073184 0.000000 0.038802
# 5 0.000927 -0.000219 -0.010421 0.000000 0.031962 0.000000
# 6 0.000000 0.000000 0.000000 0.038802 0.000000 0.131157
#
#
# Mechanical properties :
#
#
# Convention : Reuss Voigt Hill
#
# Bulk Modulus (GPa) = 13.86153 16.68176 15.27164
# Shear Modulus (GPa) = 15.67001 23.88862 19.77932
#
# Velocity S-wave (km/s) = 2.68894 3.32002 3.02100
# Velocity P-wave (km/s) = 4.00455 4.73222 4.38351
#
# Compressibility (1/GPa) = 0.07214212
#
# Stress axis : x y z
#
# Youngs Moduli (GPa) = 36.22611 71.04919 42.09249
#
# Poissons Ratio (x) = -0.30038 -0.05101
# Poissons Ratio (y) = -0.15315 0.08784
# Poissons Ratio (z) = -0.04390 0.14826
#
# Static dielectric constant tensor:
#      x y z
#    x 1.838590 0.000000 0.075290 
#    y 0.000000 1.758140 0.000000 
#    z 0.075290 0.000000 1.806440 
# 
# From -- ./inp_files/263059.got.cif
#   From: 2010.05.17/outbox.cif.g08.bks.cpg/sg15_132_cif.got.tgz:263059.got - 2010.06.03 18:47:42.
