data_PCOD9272750
_publ_section_title
;
Structure prediction by ZEFSAII (Michael W. Deem and Ramdas Pophale) SiO2 
 PCOD9272750
Probable space group: C 2/C
;
_chemical_formula_sum "Si O2"
_cell_formula_units_Z 64
_cell_length_a 14.841803
_cell_length_b 16.239115
_cell_length_c 15.342073
_cell_angle_alpha 90.000000
_cell_angle_beta 124.768452
_cell_angle_gamma 90.000000
_cell_volume 3037.534685
_symmetry_space_group_name_H-M "C 2/C"
_symmetry_group_IT_number 15
_symmetry_cell_setting 'monoclinic'
loop_
_space_group_symop_operation_xyz
x,y,z
-x,y,1/2-z
-x,-y,-z
x,-y,1/2+z
1/2+x,1/2+y,z
1/2-x,1/2+y,1/2-z
1/2-x,1/2-y,-z
1/2+x,1/2-y,1/2+z
loop_
_atom_site_type_symbol
_atom_site_label
_atom_site_fract_x
_atom_site_fract_y
_atom_site_fract_z
Si Si1 0.183332 0.831036 0.539032
Si Si2 0.000290 0.539059 0.354131
Si Si3 0.239376 0.764240 0.758296
Si Si4 0.809121 0.408388 0.271796
Si Si5 0.379814 0.493121 0.897265
Si Si6 0.981499 0.733051 0.345697
Si Si7 0.732981 0.945295 0.054781
Si Si8 0.376153 0.413865 0.707241
O O1 0.227326 0.786509 0.649049
O O2 0.165873 0.920420 0.570058
O O3 0.253506 0.861523 0.495292
O O4 0.078062 0.784046 0.444516
O O5 0.116733 0.517333 0.460749
O O6 0.000000 0.535815 0.250000
O O7 0.905127 0.475755 0.326162
O O8 0.980478 0.635067 0.364841
O O9 0.163604 0.685304 0.735492
O O10 0.367319 0.738787 0.827183
O O11 0.202238 0.838481 0.802310
O O12 0.711441 0.436497 0.153985
O O13 0.768066 0.411260 0.348123
O O14 0.389907 0.466024 0.803016
O O15 0.500000 0.500000 0.000000
O O16 0.000000 0.742670 0.250000
O O17 0.820618 0.021595 0.107807
O O18 0.500000 0.387238 0.750000
#
# Coordination Sequence:
#
# PCOD9272750 Si02
#       8
#     8   8   8   8   8   8   8   8
#     4  11  22  38  62  91 123 156 199 257 318 375
#     4  11  23  40  63  90 127 170 211 257 315 384
#     4  11  24  41  61  92 128 163 211 261 311 376
#     4  11  23  39  62  90 125 170 211 257 315 378
#     4  10  20  37  60  86 118 158 206 254 308 370
#     4  11  22  38  63  97 130 160 202 262 325 379
#     4  11  22  39  64  93 124 161 208 262 326 386
#     4  10  23  41  62  87 121 165 213 264 311 371
#
# _framework density 21.069718999999999
#
# number of rings (size 3 to 8) (size 9 to 14) (size 15 to 20)
#    0.000    1.250    0.000    7.875    0.000    5.500 
#    0.000    0.000    0.000   10.500    0.000    0.000 
#    0.000    0.000    0.000    0.000    0.000    0.000 
#
# Total GULP energy -178353.740364 kJ/mol
# GULP energy per Si atom -5573.554386 kJ/mol
# Density = 2.102176 g / cm^3
# Si number density = 21.069719 Si / 1000 Ang^3
#
#
#
# Elastic Constant Matrix: (Units=GPa)
#
#
# Indices 1 2 3 4 5 6 
#
# 1 98.1682 42.9456 32.6018 0.0000 16.9892 0.0000
# 2 42.9456 114.8749 45.8108 0.0000 8.6814 0.0000
# 3 32.6018 45.8108 97.6816 0.0000 22.7978 0.0000
# 4 0.0000 0.0000 0.0000 51.8238 0.0000 16.7472
# 5 16.9892 8.6814 22.7978 0.0000 29.6600 0.0000
# 6 0.0000 0.0000 0.0000 16.7472 0.0000 15.5193
#
#
#
# Elastic Compliance Matrix: (Units=1/GPa)
#
#
# Indices 1 2 3 4 5 6 
#
# 1 0.013333 -0.004066 -0.001265 0.000000 -0.005474 0.000000
# 2 -0.004066 0.011967 -0.004852 0.000000 0.002556 0.000000
# 3 -0.001265 -0.004852 0.015153 0.000000 -0.009502 0.000000
# 4 0.000000 0.000000 0.000000 0.029628 0.000000 -0.031972
# 5 -0.005474 0.002556 -0.009502 0.000000 0.043407 0.000000
# 6 0.000000 0.000000 0.000000 -0.031972 0.000000 0.098938
#
#
# Mechanical properties :
#
#
# Convention : Reuss Voigt Hill
#
# Bulk Modulus (GPa) = 49.78501 61.49344 55.63923
# Shear Modulus (GPa) = 20.87794 32.02506 26.45150
#
# Velocity S-wave (km/s) = 3.15127 3.90289 3.54704
# Velocity P-wave (km/s) = 6.07624 7.03983 6.57571
#
# Compressibility (1/GPa) = 0.02008637
#
# Stress axis : x y z
#
# Youngs Moduli (GPa) = 75.00143 83.56402 65.99513
#
# Poissons Ratio (x) = 0.33979 0.08351
# Poissons Ratio (y) = 0.30497 0.32018
# Poissons Ratio (z) = 0.09490 0.40542
#
# Static dielectric constant tensor:
#      x y z
#    x 1.623750 0.000000 0.099370 
#    y 0.000000 1.783630 0.000000 
#    z 0.099370 0.000000 1.730510 
# 
# From -- ./inp_files/155526.got.cif
#   From: 2010.05.17/outbox.cif.g08.bks.cpg/sg15_78_cif.got.tgz:155526.got - 2010.06.03 18:47:42.
