data_PCOD9272320
_publ_section_title
;
Structure prediction by ZEFSAII (Michael W. Deem and Ramdas Pophale) SiO2 
 PCOD9272320
Probable space group: C 2/C
;
_chemical_formula_sum "Si O2"
_cell_formula_units_Z 40
_cell_length_a 7.592810
_cell_length_b 17.625536
_cell_length_c 18.590520
_cell_angle_alpha 90.000000
_cell_angle_beta 130.617897
_cell_angle_gamma 90.000000
_cell_volume 1888.500406
_symmetry_space_group_name_H-M "C 2/C"
_symmetry_group_IT_number 15
_symmetry_cell_setting 'monoclinic'
loop_
_space_group_symop_operation_xyz
x,y,z
-x,y,1/2-z
-x,-y,-z
x,-y,1/2+z
1/2+x,1/2+y,z
1/2-x,1/2+y,1/2-z
1/2-x,1/2-y,-z
1/2+x,1/2-y,1/2+z
loop_
_atom_site_type_symbol
_atom_site_label
_atom_site_fract_x
_atom_site_fract_y
_atom_site_fract_z
Si Si1 0.500000 0.490489 0.750000
Si Si2 0.467507 0.895865 0.892477
Si Si3 0.500000 0.843891 0.750000
Si Si4 0.138730 0.892251 0.394912
Si Si5 0.394298 0.230026 0.867341
Si Si6 0.368992 0.274064 0.422775
O O1 0.729184 0.441455 0.824229
O O2 0.513727 0.544172 0.683752
O O3 0.563590 0.891239 0.837041
O O4 0.413371 0.810191 0.904314
O O5 0.659962 0.925117 0.999659
O O6 0.710657 0.788112 0.785798
O O7 0.265215 0.842944 0.366010
O O8 0.988572 0.834255 0.402517
O O9 0.599482 0.211472 0.867079
O O10 0.506425 0.272545 0.966184
#
# Coordination Sequence:
#
# PCOD9272320 Si02
#       6
#     4   8   4   8   8   8
#     4  12  27  44  64  99 142 190 220 272 357 408
#     4  11  23  43  67  96 138 183 221 285 336 405
#     4  12  19  38  66 103 130 172 230 278 333 398
#     4  11  22  46  67  97 139 176 228 283 336 399
#     4  10  20  36  69 102 128 166 226 286 335 389
#     4  10  20  41  71  98 128 173 232 283 335 393
#
# _framework density 21.180827000000001
#
# number of rings (size 3 to 8) (size 9 to 14) (size 15 to 20)
#    0.000    1.200    4.000    3.600    0.000    0.000 
#    3.600    1.000    0.000    0.000    0.000    0.000 
#    0.000    0.000    0.000    0.000    0.000    0.000 
#
# Total GULP energy -111858.296598 kJ/mol
# GULP energy per Si atom -5592.914830 kJ/mol
# Density = 2.113262 g / cm^3
# Si number density = 21.180827 Si / 1000 Ang^3
#
#
#
# Elastic Constant Matrix: (Units=GPa)
#
#
# Indices 1 2 3 4 5 6 
#
# 1 99.5610 20.2080 23.9149 0.0000 11.2919 0.0000
# 2 20.2080 57.4726 46.6882 0.0000 12.3949 0.0000
# 3 23.9149 46.6882 131.7257 0.0000 1.6471 0.0000
# 4 0.0000 0.0000 0.0000 20.9307 0.0000 15.3609
# 5 11.2919 12.3949 1.6471 0.0000 28.3009 0.0000
# 6 0.0000 0.0000 0.0000 15.3609 0.0000 17.3699
#
#
#
# Elastic Compliance Matrix: (Units=1/GPa)
#
#
# Indices 1 2 3 4 5 6 
#
# 1 0.011170 -0.002216 -0.001200 0.000000 -0.003416 0.000000
# 2 -0.002216 0.028224 -0.009465 0.000000 -0.010926 0.000000
# 3 -0.001200 -0.009465 0.011114 0.000000 0.003977 0.000000
# 4 0.000000 0.000000 0.000000 0.136121 0.000000 -0.120378
# 5 -0.003416 -0.010926 0.003977 0.000000 0.041251 0.000000
# 6 0.000000 0.000000 0.000000 -0.120378 0.000000 0.164026
#
#
# Mechanical properties :
#
#
# Convention : Reuss Voigt Hill
#
# Bulk Modulus (GPa) = 40.40903 52.26462 46.33683
# Shear Modulus (GPa) = 11.73940 26.51684 19.12812
#
# Velocity S-wave (km/s) = 2.35680 3.54210 3.00840
# Velocity P-wave (km/s) = 5.15029 6.43876 5.83023
#
# Compressibility (1/GPa) = 0.02474694
#
# Stress axis : x y z
#
# Youngs Moduli (GPa) = 89.52948 35.43121 89.97526
#
# Poissons Ratio (x) = 0.07852 0.10794
# Poissons Ratio (y) = 0.19840 0.85157
# Poissons Ratio (z) = 0.10741 0.33534
#
# Static dielectric constant tensor:
#      x y z
#    x 1.758430 0.000000 0.007440 
#    y 0.000000 1.753110 0.000000 
#    z 0.007440 0.000000 1.792600 
# 
# From -- ./inp_files/190707.got.cif
#   From: 2010.05.17/outbox.cif.g08.bks.cpg/sg15_96_cif.got.tgz:190707.got - 2010.06.03 18:47:42.
