data_PCOD9272459
_publ_section_title
;
Structure prediction by ZEFSAII (Michael W. Deem and Ramdas Pophale) SiO2 
 PCOD9272459
Probable space group: C 2/C
;
_chemical_formula_sum "Si O2"
_cell_formula_units_Z 64
_cell_length_a 16.545013
_cell_length_b 7.567274
_cell_length_c 29.238145
_cell_angle_alpha 90.000000
_cell_angle_beta 125.724912
_cell_angle_gamma 90.000000
_cell_volume 2971.812044
_symmetry_space_group_name_H-M "C 2/C"
_symmetry_group_IT_number 15
_symmetry_cell_setting 'monoclinic'
loop_
_space_group_symop_operation_xyz
x,y,z
-x,y,1/2-z
-x,-y,-z
x,-y,1/2+z
1/2+x,1/2+y,z
1/2-x,1/2+y,1/2-z
1/2-x,1/2-y,-z
1/2+x,1/2-y,1/2+z
loop_
_atom_site_type_symbol
_atom_site_label
_atom_site_fract_x
_atom_site_fract_y
_atom_site_fract_z
Si Si1 0.980219 0.221965 0.584277
Si Si2 0.131070 0.373204 0.253010
Si Si3 0.117634 0.615519 0.946118
Si Si4 0.550850 0.804747 0.515949
Si Si5 0.718600 0.403960 0.455646
Si Si6 0.327294 0.144573 0.309134
Si Si7 0.235927 0.519868 0.120818
Si Si8 0.409130 0.228468 0.665375
O O1 0.992549 0.189347 0.533917
O O2 0.085734 0.227414 0.644081
O O3 0.940131 0.425418 0.575148
O O4 0.899913 0.096343 0.581141
O O5 0.226097 0.254216 0.272389
O O6 0.139007 0.548240 0.225478
O O7 0.125926 0.405563 0.305978
O O8 0.028313 0.271862 0.207332
O O9 0.121107 0.681870 0.895935
O O10 0.062028 0.734348 0.966066
O O11 0.224422 0.568930 0.003599
O O12 0.660019 0.834564 0.574308
O O13 0.500000 0.000000 0.500000
O O14 0.750000 0.250000 0.500000
O O15 0.759191 0.375347 0.417667
O O16 0.306468 0.997830 0.342431
O O17 0.347149 0.597942 0.158875
#
# Coordination Sequence:
#
# PCOD9272459 Si02
#       8
#     8   8   8   8   8   8   8   8
#     4   9  16  31  53  77 110 142 174 226 279 322
#     4  10  22  39  58  80 111 143 197 243 279 328
#     4   9  16  31  53  76 106 145 181 211 274 338
#     4   8  15  27  49  76 102 137 175 208 256 338
#     4   9  18  31  50  87 117 139 175 229 267 341
#     4  10  20  39  58  80 105 150 190 235 287 336
#     4   9  19  34  56  77 108 149 182 216 282 339
#     4  10  20  37  57  77 110 150 187 236 280 330
#
# _framework density 21.535684
#
# number of rings (size 3 to 8) (size 9 to 14) (size 15 to 20)
#    0.000    2.750    1.250    0.750    0.000    3.000 
#    4.500    0.000    0.000    7.500    0.000    0.000 
#    0.000    0.000    0.000    0.000    0.000    0.000 
#
# Total GULP energy -178277.266813 kJ/mol
# GULP energy per Si atom -5571.164588 kJ/mol
# Density = 2.148667 g / cm^3
# Si number density = 21.535684 Si / 1000 Ang^3
#
#
#
# Elastic Constant Matrix: (Units=GPa)
#
#
# Indices 1 2 3 4 5 6 
#
# 1 109.3869 7.3443 54.4913 0.0000 -5.4136 0.0000
# 2 7.3443 13.9312 6.4515 0.0000 -2.7617 0.0000
# 3 54.4913 6.4515 99.3072 0.0000 -4.2851 0.0000
# 4 0.0000 0.0000 0.0000 13.4186 0.0000 -4.4691
# 5 -5.4136 -2.7617 -4.2851 0.0000 64.1531 0.0000
# 6 0.0000 0.0000 0.0000 -4.4691 0.0000 29.5520
#
#
#
# Elastic Compliance Matrix: (Units=1/GPa)
#
#
# Indices 1 2 3 4 5 6 
#
# 1 0.012767 -0.003507 -0.006757 0.000000 0.000475 0.000000
# 2 -0.003507 0.075503 -0.002861 0.000000 0.002763 0.000000
# 3 -0.006757 -0.002861 0.013974 0.000000 0.000240 0.000000
# 4 0.000000 0.000000 0.000000 0.078476 0.000000 0.011868
# 5 0.000475 0.002763 0.000240 0.000000 0.015763 0.000000
# 6 0.000000 0.000000 0.000000 0.011868 0.000000 0.035633
#
#
# Mechanical properties :
#
#
# Convention : Reuss Voigt Hill
#
# Bulk Modulus (GPa) = 13.15921 39.91105 26.53513
# Shear Modulus (GPa) = 17.62440 31.71396 24.66918
#
# Velocity S-wave (km/s) = 2.86384 3.84164 3.38820
# Velocity P-wave (km/s) = 4.13027 6.18469 5.25878
#
# Compressibility (1/GPa) = 0.07599241
#
# Stress axis : x y z
#
# Youngs Moduli (GPa) = 78.32771 13.24451 71.56311
#
# Poissons Ratio (x) = 0.04645 0.48355
# Poissons Ratio (y) = 0.27471 0.20477
# Poissons Ratio (z) = 0.52926 0.03790
#
# Static dielectric constant tensor:
#      x y z
#    x 1.851530 0.000000 0.014600 
#    y 0.000000 1.800540 0.000000 
#    z 0.014600 0.000000 1.833310 
# 
# From -- ./inp_files/313174.got.cif
#   From: 2010.05.17/outbox.cif.g08.bks.cpg/sg15_157_cif.got.tgz:313174.got - 2010.06.03 18:47:42.
