data_PCOD9272909
_publ_section_title
;
Structure prediction by ZEFSAII (Michael W. Deem and Ramdas Pophale) SiO2 
 PCOD9272909
Probable space group: C 2/C
;
_chemical_formula_sum "Si O2"
_cell_formula_units_Z 48
_cell_length_a 9.654951
_cell_length_b 15.454629
_cell_length_c 31.160157
_cell_angle_alpha 90.000000
_cell_angle_beta 29.527411
_cell_angle_gamma 90.000000
_cell_volume 2291.469860
_symmetry_space_group_name_H-M "C 2/C"
_symmetry_group_IT_number 15
_symmetry_cell_setting 'monoclinic'
loop_
_space_group_symop_operation_xyz
x,y,z
-x,y,1/2-z
-x,-y,-z
x,-y,1/2+z
1/2+x,1/2+y,z
1/2-x,1/2+y,1/2-z
1/2-x,1/2-y,-z
1/2+x,1/2-y,1/2+z
loop_
_atom_site_type_symbol
_atom_site_label
_atom_site_fract_x
_atom_site_fract_y
_atom_site_fract_z
Si Si1 0.000000 0.906988 0.750000
Si Si2 0.228348 0.375071 0.908042
Si Si3 0.000000 0.810138 0.250000
Si Si4 0.023699 0.800494 0.908858
Si Si5 0.907342 0.989869 0.573318
Si Si6 0.681918 0.566079 0.580431
Si Si7 0.794073 0.554975 0.726802
O O1 0.804518 0.858419 0.837858
O O2 0.813148 0.968834 0.769501
O O3 0.449699 0.329192 0.879738
O O4 0.234659 0.479814 0.914410
O O5 0.917037 0.360160 0.011680
O O6 0.812281 0.752635 0.331966
O O7 0.762929 0.870450 0.292426
O O8 0.079118 0.889386 0.918527
O O9 0.750000 0.750000 0.000000
O O10 0.602623 0.032956 0.659341
O O11 0.000000 0.000000 0.500000
O O12 0.115001 0.035519 0.550611
O O13 0.396291 0.586590 0.682202
#
# Coordination Sequence:
#
# PCOD9272909 Si02
#       7
#     4   8   4   8   8   8   8
#     4   9  18  32  60  88 117 156 216 263 308 366
#     4   9  18  34  58  88 122 159 206 257 313 382
#     4  11  24  40  66  92 131 170 208 273 330 382
#     4  11  24  40  64  93 131 170 214 267 331 383
#     4  11  22  36  64  92 125 167 228 265 310 387
#     4   9  18  33  58  88 118 158 209 262 303 362
#     4  10  20  37  61  88 122 165 220 261 312 388
#
# _framework density 20.947254000000001
#
# number of rings (size 3 to 8) (size 9 to 14) (size 15 to 20)
#    0.000    2.000    0.000    3.500    7.000    5.333 
#    0.000    0.000    7.333    6.000    0.000    0.000 
#    0.000    0.000    0.000    0.000    0.000    0.000 
#
# Total GULP energy -133750.790536 kJ/mol
# GULP energy per Si atom -5572.949606 kJ/mol
# Density = 2.089958 g / cm^3
# Si number density = 20.947254 Si / 1000 Ang^3
#
#
#
# Elastic Constant Matrix: (Units=GPa)
#
#
# Indices 1 2 3 4 5 6 
#
# 1 88.7914 14.8697 33.9723 -0.0069 12.7164 0.0002
# 2 14.8697 48.1444 13.9262 -0.0016 -6.0193 0.0010
# 3 33.9723 13.9262 113.7372 -0.0882 8.5714 -0.0158
# 4 -0.0069 -0.0016 -0.0882 19.1564 0.0272 -3.9847
# 5 12.7164 -6.0193 8.5714 0.0272 49.3876 0.0093
# 6 0.0002 0.0010 -0.0158 -3.9847 0.0093 5.0468
#
#
#
# Elastic Compliance Matrix: (Units=1/GPa)
#
#
# Indices 1 2 3 4 5 6 
#
# 1 0.013650 -0.003662 -0.003374 -0.000008 -0.003375 -0.000011
# 2 -0.003662 0.023002 -0.002032 -0.000022 0.004099 -0.000036
# 3 -0.003374 -0.002032 0.010135 0.000065 -0.001138 0.000086
# 4 -0.000008 -0.000022 0.000065 0.062461 -0.000055 0.049317
# 5 -0.003375 0.004099 -0.001138 -0.000055 0.021814 -0.000088
# 6 -0.000011 -0.000036 0.000086 0.049317 -0.000088 0.237087
#
#
# Mechanical properties :
#
#
# Convention : Reuss Voigt Hill
#
# Bulk Modulus (GPa) = 34.90279 41.80107 38.35193
# Shear Modulus (GPa) = 12.63156 27.24515 19.93835
#
# Velocity S-wave (km/s) = 2.45831 3.61037 3.08853
# Velocity P-wave (km/s) = 4.97555 6.11379 5.57380
#
# Compressibility (1/GPa) = 0.02865100
#
# Stress axis : x y z
#
# Youngs Moduli (GPa) = 73.25971 43.47459 98.67129
#
# Poissons Ratio (x) = 0.15920 0.33296
# Poissons Ratio (y) = 0.26826 0.20046
# Poissons Ratio (z) = 0.24721 0.08832
#
# Static dielectric constant tensor:
#      x y z
#    x 1.697400 0.000000 0.011090 
#    y 0.000000 1.822550 0.000080 
#    z 0.011090 0.000080 1.874370 
# 
# From -- ./inp_files/308734.got.cif
#   From: 2010.05.17/outbox.cif.g08.bks.cpg/sg15_155_cif.got.tgz:308734.got - 2010.06.03 18:47:42.
