data_PCOD9272823
_publ_section_title
;
Structure prediction by ZEFSAII (Michael W. Deem and Ramdas Pophale) SiO2 
 PCOD9272823
Probable space group: C 2/C
;
_chemical_formula_sum "Si O2"
_cell_formula_units_Z 64
_cell_length_a 24.920794
_cell_length_b 18.415868
_cell_length_c 20.618043
_cell_angle_alpha 90.000000
_cell_angle_beta 160.379170
_cell_angle_gamma 90.000000
_cell_volume 3177.418985
_symmetry_space_group_name_H-M "C 2/C"
_symmetry_group_IT_number 15
_symmetry_cell_setting 'monoclinic'
loop_
_space_group_symop_operation_xyz
x,y,z
-x,y,1/2-z
-x,-y,-z
x,-y,1/2+z
1/2+x,1/2+y,z
1/2-x,1/2+y,1/2-z
1/2-x,1/2-y,-z
1/2+x,1/2-y,1/2+z
loop_
_atom_site_type_symbol
_atom_site_label
_atom_site_fract_x
_atom_site_fract_y
_atom_site_fract_z
Si Si1 0.946632 0.785383 0.970245
Si Si2 0.758446 0.771193 0.879509
Si Si3 0.491247 0.428140 0.535265
Si Si4 0.249621 0.031047 0.432574
Si Si5 0.905813 0.440626 0.242761
Si Si6 0.348756 0.864736 0.304981
Si Si7 0.557958 0.092707 0.155993
Si Si8 0.156280 0.625579 0.471769
O O1 0.904734 0.788427 0.998962
O O2 0.934607 0.861943 0.921832
O O3 0.854197 0.720353 0.829267
O O4 0.129735 0.760929 0.182480
O O5 0.684661 0.845913 0.820017
O O6 0.787933 0.708472 0.965314
O O7 0.500000 0.500000 0.500000
O O8 0.599858 0.440261 0.722326
O O9 0.313156 0.404052 0.354720
O O10 0.413501 0.050458 0.579488
O O11 0.286083 0.060750 0.545694
O O12 0.234575 0.943073 0.420361
O O13 0.878211 0.377225 0.262578
O O14 0.880427 0.514465 0.254707
O O15 0.499335 0.899218 0.515792
O O16 0.401250 0.111844 0.019937
O O17 0.000000 0.616425 0.250000
#
# Coordination Sequence:
#
# PCOD9272823 Si02
#       8
#     8   8   8   8   8   8   8   8
#     4  11  23  42  60  93 132 160 210 270 324 372
#     4  11  21  37  60  89 125 167 209 259 312 380
#     4  12  25  40  64  99 129 167 214 270 336 368
#     4  10  22  40  65  86 127 164 210 269 315 395
#     4  10  21  41  61  93 119 168 213 255 329 377
#     4  11  23  39  66  92 125 164 212 269 319 382
#     4  10  20  37  60  90 120 164 212 255 306 387
#     4  11  19  40  60  84 130 171 208 252 319 388
#
# _framework density 20.142133999999999
#
# number of rings (size 3 to 8) (size 9 to 14) (size 15 to 20)
#    0.000    1.250    6.250    2.625    5.250    1.000 
#    0.000    0.625    0.000    0.000    0.000    0.000 
#    0.000    0.000    0.000    0.000    0.000    0.000 
#
# Total GULP energy -178584.438301 kJ/mol
# GULP energy per Si atom -5580.763697 kJ/mol
# Density = 2.009629 g / cm^3
# Si number density = 20.142134 Si / 1000 Ang^3
#
#
#
# Elastic Constant Matrix: (Units=GPa)
#
#
# Indices 1 2 3 4 5 6 
#
# 1 58.8440 13.1635 4.0778 -0.0002 -11.8619 0.0015
# 2 13.1635 90.1069 19.8694 -0.0078 -1.4081 -0.0049
# 3 4.0778 19.8694 63.0733 0.0041 -8.6493 0.0111
# 4 -0.0002 -0.0078 0.0041 32.4736 0.0027 -3.4703
# 5 -11.8619 -1.4081 -8.6493 0.0027 24.1254 0.0042
# 6 0.0015 -0.0049 0.0111 -3.4703 0.0042 23.4076
#
#
#
# Elastic Compliance Matrix: (Units=1/GPa)
#
#
# Indices 1 2 3 4 5 6 
#
# 1 0.019555 -0.002924 0.001001 -0.000002 0.009803 -0.000004
# 2 -0.002924 0.012374 -0.004004 0.000004 -0.002151 0.000006
# 3 0.001001 -0.004004 0.017970 -0.000005 0.006701 -0.000011
# 4 -0.000002 0.000004 -0.000005 0.031290 -0.000007 0.004639
# 5 0.009803 -0.002151 0.006701 -0.000007 0.048547 -0.000014
# 6 -0.000004 0.000006 -0.000011 0.004639 -0.000014 0.043409
#
#
# Mechanical properties :
#
#
# Convention : Reuss Voigt Hill
#
# Bulk Modulus (GPa) = 26.28455 31.80507 29.04481
# Shear Modulus (GPa) = 25.29319 27.66221 26.47770
#
# Velocity S-wave (km/s) = 3.54748 3.70989 3.62960
# Velocity P-wave (km/s) = 5.46419 5.84600 5.65831
#
# Compressibility (1/GPa) = 0.03804517
#
# Stress axis : x y z
#
# Youngs Moduli (GPa) = 51.13784 80.81151 55.64784
#
# Poissons Ratio (x) = 0.23632 -0.05572
# Poissons Ratio (y) = 0.14954 0.22282
# Poissons Ratio (z) = -0.05120 0.32358
#
# Static dielectric constant tensor:
#      x y z
#    x 1.756420 0.000000 0.022780 
#    y 0.000000 1.740960 0.000000 
#    z 0.022780 0.000000 1.707480 
# 
# From -- ./inp_files/258082.got.cif
#   From: 2010.05.17/outbox.cif.g08.bks.cpg/sg15_130_cif.got.tgz:258082.got - 2010.06.03 18:47:42.
