data_PCOD9272539
_publ_section_title
;
Structure prediction by ZEFSAII (Michael W. Deem and Ramdas Pophale) SiO2 
 PCOD9272539
Probable space group: C 2/C
;
_chemical_formula_sum "Si O2"
_cell_formula_units_Z 44
_cell_length_a 8.715204
_cell_length_b 24.534962
_cell_length_c 14.418635
_cell_angle_alpha 90.000000
_cell_angle_beta 129.854169
_cell_angle_gamma 90.000000
_cell_volume 2366.825238
_symmetry_space_group_name_H-M "C 2/C"
_symmetry_group_IT_number 15
_symmetry_cell_setting 'monoclinic'
loop_
_space_group_symop_operation_xyz
x,y,z
-x,y,1/2-z
-x,-y,-z
x,-y,1/2+z
1/2+x,1/2+y,z
1/2-x,1/2+y,1/2-z
1/2-x,1/2-y,-z
1/2+x,1/2-y,1/2+z
loop_
_atom_site_type_symbol
_atom_site_label
_atom_site_fract_x
_atom_site_fract_y
_atom_site_fract_z
Si Si1 0.000000 0.231730 0.250000
Si Si2 0.500000 0.211208 0.250000
Si Si3 0.921657 0.839674 0.888895
Si Si4 0.901121 0.203581 0.854002
Si Si5 0.000000 0.110305 0.750000
Si Si6 0.721560 0.990565 0.124714
Si Si7 0.951865 0.031757 0.385290
O O1 0.963896 0.190226 0.150881
O O2 0.184195 0.269825 0.289410
O O3 0.310641 0.175986 0.203474
O O4 0.469344 0.251554 0.151140
O O5 0.930810 0.904484 0.895214
O O6 0.007926 0.813193 0.014201
O O7 0.911093 0.149696 0.794260
O O8 0.181482 0.069932 0.849431
O O9 0.769265 0.007905 0.250431
O O10 0.861212 0.025809 0.111407
O O11 0.500000 0.000000 0.000000
O O12 0.000000 0.000000 0.500000
#
# Coordination Sequence:
#
# PCOD9272539 Si02
#       7
#     4   4   8   8   4   8   8
#     4  10  22  35  54  86 114 145 186 228 286 346
#     4   9  22  36  56  84 110 148 190 225 282 344
#     4  11  20  37  57  80 116 149 182 236 285 333
#     4  10  20  37  58  83 113 147 190 233 282 341
#     4   9  20  39  58  82 114 149 190 241 282 336
#     4  10  22  40  58  83 117 152 191 240 293 345
#     4  10  22  39  59  87 115 149 196 239 284 347
#
# _framework density 18.590302999999999
#
# number of rings (size 3 to 8) (size 9 to 14) (size 15 to 20)
#    0.000    2.182    0.000    4.364    0.000    5.091 
#    0.000    5.455    0.000    0.000    0.000    0.000 
#    0.000    0.000    0.000    0.000    0.000    0.000 
#
# Total GULP energy -122559.241355 kJ/mol
# GULP energy per Si atom -5570.874607 kJ/mol
# Density = 1.854799 g / cm^3
# Si number density = 18.590303 Si / 1000 Ang^3
#
#
#
# Elastic Constant Matrix: (Units=GPa)
#
#
# Indices 1 2 3 4 5 6 
#
# 1 72.6899 44.0847 43.5898 0.0000 -14.7587 0.0000
# 2 44.0847 150.7451 56.4571 0.0000 -13.7474 0.0000
# 3 43.5898 56.4571 132.4963 0.0000 -15.7067 0.0000
# 4 0.0000 0.0000 0.0000 19.1103 0.0000 -8.6509
# 5 -14.7587 -13.7474 -15.7067 0.0000 40.3070 0.0000
# 6 0.0000 0.0000 0.0000 -8.6509 0.0000 -5.0259
#
#
#
# Elastic Compliance Matrix: (Units=1/GPa)
#
#
# Indices 1 2 3 4 5 6 
#
# 1 0.019433 -0.003681 -0.004330 0.000000 0.004173 0.000000
# 2 -0.003681 0.008672 -0.002404 0.000000 0.000673 0.000000
# 3 -0.004330 -0.002404 0.010182 0.000000 0.001562 0.000000
# 4 0.000000 0.000000 0.000000 0.029411 0.000000 -0.050624
# 5 0.004173 0.000673 0.001562 0.000000 0.027176 0.000000
# 6 0.000000 0.000000 0.000000 -0.050624 0.000000 -0.111831
#
#
# Mechanical properties :
#
#
# Convention : Reuss Voigt Hill
#
# Bulk Modulus (GPa) = 57.28699 71.57716 64.43208
# Shear Modulus (GPa) = 515.86229 24.99827 270.43028
#
# Velocity S-wave (km/s) = 16.67610 3.67099 12.07412
# Velocity P-wave (km/s) = 20.04176 7.52025 15.13649
#
# Compressibility (1/GPa) = 0.01745597
#
# Stress axis : x y z
#
# Youngs Moduli (GPa) = 51.45780 115.31285 98.21553
#
# Poissons Ratio (x) = 0.42445 0.42530
# Poissons Ratio (y) = 0.18941 0.23615
# Poissons Ratio (z) = 0.22283 0.27726
#
# Static dielectric constant tensor:
#      x y z
#    x 1.609520 0.000000 0.002000 
#    y 0.000000 1.646450 0.000000 
#    z 0.002000 0.000000 1.663680 
# 
# From -- ./inp_files/79999.got.cif
#   From: 2010.05.17/outbox.cif.g08.bks.cpg/sg15_40_cif.got.tgz:79999.got - 2010.06.03 18:47:42.
