data_PCOD9272944
_publ_section_title
;
Structure prediction by ZEFSAII (Michael W. Deem and Ramdas Pophale) SiO2 
 PCOD9272944
Probable space group: C 2/C
;
_chemical_formula_sum "Si O2"
_cell_formula_units_Z 40
_cell_length_a 23.737961
_cell_length_b 9.137219
_cell_length_c 13.881169
_cell_angle_alpha 90.000000
_cell_angle_beta 145.498422
_cell_angle_gamma 90.000000
_cell_volume 1705.410441
_symmetry_space_group_name_H-M "C 2/C"
_symmetry_group_IT_number 15
_symmetry_cell_setting 'monoclinic'
loop_
_space_group_symop_operation_xyz
x,y,z
-x,y,1/2-z
-x,-y,-z
x,-y,1/2+z
1/2+x,1/2+y,z
1/2-x,1/2+y,1/2-z
1/2-x,1/2-y,-z
1/2+x,1/2-y,1/2+z
loop_
_atom_site_type_symbol
_atom_site_label
_atom_site_fract_x
_atom_site_fract_y
_atom_site_fract_z
Si Si1 0.208482 0.878907 0.656369
Si Si2 0.291499 0.153079 0.473061
Si Si3 0.653345 0.819302 0.911923
Si Si4 0.061426 0.650690 0.089990
Si Si5 0.435730 0.642652 0.076589
O O1 0.214574 0.839951 0.776704
O O2 0.148979 0.762521 0.507661
O O3 0.323781 0.882195 0.782289
O O4 0.155004 0.034889 0.575040
O O5 0.250000 0.250000 0.500000
O O6 0.391787 0.224380 0.576042
O O7 0.319390 0.988605 0.537915
O O8 0.568640 0.801031 0.711917
O O9 0.750000 0.750000 0.000000
O O10 0.025233 0.780499 0.966548
O O11 0.000000 0.500000 0.000000
O O12 0.500000 0.562704 0.250000
#
# Coordination Sequence:
#
# PCOD9272944 Si02
#       5
#     8   8   8   8   8
#     4  10  22  42  65  94 132 171 213 273 331 392
#     4  11  21  38  66  93 122 168 215 264 325 391
#     4  10  20  37  61  91 124 163 209 262 323 385
#     4  10  21  41  68  96 126 171 224 273 328 395
#     4  11  24  42  62  94 131 167 218 274 326 391
#
# _framework density 23.454764000000001
#
# number of rings (size 3 to 8) (size 9 to 14) (size 15 to 20)
#    0.000    1.600    0.000    7.200    0.000    1.600 
#    0.000   15.000    0.000    0.000    0.000    0.000 
#    0.000    0.000    0.000    0.000    0.000    0.000 
#
# Total GULP energy -111770.803701 kJ/mol
# GULP energy per Si atom -5588.540185 kJ/mol
# Density = 2.340138 g / cm^3
# Si number density = 23.454764 Si / 1000 Ang^3
#
#
#
# Elastic Constant Matrix: (Units=GPa)
#
#
# Indices 1 2 3 4 5 6 
#
# 1 87.0896 51.0171 63.9225 0.0000 -24.4652 0.0000
# 2 51.0171 119.2511 31.1412 0.0000 -17.1125 0.0000
# 3 63.9225 31.1412 153.9013 0.0000 -43.8342 0.0000
# 4 0.0000 0.0000 0.0000 50.1072 0.0000 -7.2010
# 5 -24.4652 -17.1125 -43.8342 0.0000 48.6669 0.0000
# 6 0.0000 0.0000 0.0000 -7.2010 0.0000 29.1854
#
#
#
# Elastic Compliance Matrix: (Units=1/GPa)
#
#
# Indices 1 2 3 4 5 6 
#
# 1 0.021115 -0.006969 -0.006772 0.000000 0.002065 0.000000
# 2 -0.006969 0.011303 0.000997 0.000000 0.001370 0.000000
# 3 -0.006772 0.000997 0.011082 0.000000 0.006928 0.000000
# 4 0.000000 0.000000 0.000000 0.020691 0.000000 0.005105
# 5 0.002065 0.001370 0.006928 0.000000 0.028307 0.000000
# 6 0.000000 0.000000 0.000000 0.005105 0.000000 0.035523
#
#
# Mechanical properties :
#
#
# Convention : Reuss Voigt Hill
#
# Bulk Modulus (GPa) = 55.51377 72.48929 64.00153
# Shear Modulus (GPa) = 31.34554 39.86932 35.60743
#
# Velocity S-wave (km/s) = 3.65968 4.12738 3.90055
# Velocity P-wave (km/s) = 6.44806 7.32713 6.90161
#
# Compressibility (1/GPa) = 0.01801355
#
# Stress axis : x y z
#
# Youngs Moduli (GPa) = 47.35914 88.47198 90.23876
#
# Poissons Ratio (x) = 0.61653 0.61109
# Poissons Ratio (y) = 0.33003 -0.09000
# Poissons Ratio (z) = 0.32071 -0.08824
#
# Static dielectric constant tensor:
#      x y z
#    x 1.701650 0.000000 -0.278200 
#    y 0.000000 1.864450 0.000000 
#    z -0.278200 0.000000 1.922690 
# 
# From -- ./inp_files/181265.got.cif
#   From: 2010.05.17/outbox.cif.g08.bks.cpg/sg15_91_cif.got.tgz:181265.got - 2010.06.03 18:47:42.
