data_PCOD9272652
_publ_section_title
;
Structure prediction by ZEFSAII (Michael W. Deem and Ramdas Pophale) SiO2 
 PCOD9272652
Probable space group: C 2/C
;
_chemical_formula_sum "Si O2"
_cell_formula_units_Z 48
_cell_length_a 28.935381
_cell_length_b 6.823656
_cell_length_c 16.713846
_cell_angle_alpha 90.000000
_cell_angle_beta 32.221463
_cell_angle_gamma 90.000000
_cell_volume 1759.573233
_symmetry_space_group_name_H-M "C 2/C"
_symmetry_group_IT_number 15
_symmetry_cell_setting 'monoclinic'
loop_
_space_group_symop_operation_xyz
x,y,z
-x,y,1/2-z
-x,-y,-z
x,-y,1/2+z
1/2+x,1/2+y,z
1/2-x,1/2+y,1/2-z
1/2-x,1/2-y,-z
1/2+x,1/2-y,1/2+z
loop_
_atom_site_type_symbol
_atom_site_label
_atom_site_fract_x
_atom_site_fract_y
_atom_site_fract_z
Si Si1 0.147516 0.490000 0.798949
Si Si2 0.910860 0.113138 0.062285
Si Si3 0.655364 0.514819 0.504281
Si Si4 0.106450 0.020275 0.246480
Si Si5 0.902703 0.608569 0.958588
Si Si6 0.101299 0.530065 0.701392
O O1 0.082184 0.670178 0.910856
O O2 0.246205 0.557048 0.644395
O O3 0.123091 0.404153 0.748131
O O4 0.143784 0.377032 0.888149
O O5 0.862821 0.000011 0.205872
O O6 0.861963 0.140665 0.049972
O O7 0.003656 0.018237 0.907804
O O8 0.637365 0.588385 0.620343
O O9 0.593304 0.329796 0.579378
O O10 0.125739 0.247674 0.193217
O O11 0.860743 0.499041 0.943307
O O12 0.998486 0.528614 0.836137
#
# Coordination Sequence:
#
# PCOD9272652 Si02
#       6
#     8   8   8   8   8   8
#     4  11  23  35  57  91 118 145 190 248 292 330
#     4  10  20  37  59  87 113 148 198 240 285 340
#     4  11  21  37  60  84 119 153 189 237 291 348
#     4   9  19  37  63  83 105 156 202 232 274 355
#     4  10  20  38  60  80 112 155 192 229 288 351
#     4   9  19  38  61  80 108 156 196 229 278 354
#
# _framework density 27.279343000000001
#
# number of rings (size 3 to 8) (size 9 to 14) (size 15 to 20)
#    0.000    2.000    1.667    2.000    0.000    7.333 
#    6.000    0.000    0.000    4.000    0.000    0.000 
#    0.000    0.000    0.000    0.000    0.000    0.000 
#
# Total GULP energy -134020.879851 kJ/mol
# GULP energy per Si atom -5584.203327 kJ/mol
# Density = 2.721725 g / cm^3
# Si number density = 27.279343 Si / 1000 Ang^3
#
#
#
# Elastic Constant Matrix: (Units=GPa)
#
#
# Indices 1 2 3 4 5 6 
#
# 1 153.3742 36.6444 111.6578 0.0004 78.7394 0.0004
# 2 36.6444 51.3868 16.6127 -0.0063 37.6344 -0.0058
# 3 111.6578 16.6127 142.6593 -0.0029 53.9530 -0.0038
# 4 0.0004 -0.0063 -0.0029 29.6869 -0.0008 24.2315
# 5 78.7394 37.6344 53.9530 -0.0008 86.4303 0.0023
# 6 0.0004 -0.0058 -0.0038 24.2315 0.0023 40.2693
#
#
#
# Elastic Compliance Matrix: (Units=1/GPa)
#
#
# Indices 1 2 3 4 5 6 
#
# 1 0.022401 -0.004086 -0.013106 -0.000003 -0.010447 0.000000
# 2 -0.004086 0.029676 0.004217 0.000004 -0.011832 0.000003
# 3 -0.013106 0.004217 0.016959 0.000002 -0.000483 0.000001
# 4 -0.000003 0.000004 0.000002 0.066199 0.000002 -0.039835
# 5 -0.010447 -0.011832 -0.000483 0.000002 0.026541 -0.000004
# 6 0.000000 0.000003 0.000001 -0.039835 -0.000004 0.048803
#
#
# Mechanical properties :
#
#
# Convention : Reuss Voigt Hill
#
# Bulk Modulus (GPa) = 23.20931 75.25002 49.22966
# Shear Modulus (GPa) = 19.92891 43.44432 31.68661
#
# Velocity S-wave (km/s) = 2.70580 3.99503 3.41187
# Velocity P-wave (km/s) = 4.27648 6.99466 5.79713
#
# Compressibility (1/GPa) = 0.04308617
#
# Stress axis : x y z
#
# Youngs Moduli (GPa) = 44.64089 33.69712 58.96474
#
# Poissons Ratio (x) = 0.13769 0.77280
# Poissons Ratio (y) = 0.18241 -0.24866
# Poissons Ratio (z) = 0.58507 -0.14210
#
# Static dielectric constant tensor:
#      x y z
#    x 2.188540 0.000000 0.147450 
#    y 0.000000 2.339570 0.000010 
#    z 0.147450 0.000010 2.122020 
# 
# From -- ./inp_files/176847.got.cif
#   From: 2010.05.17/outbox.cif.g08.bks.cpg/sg15_89_cif.got.tgz:176847.got - 2010.06.03 18:47:42.
