data_PCOD9272567
_publ_section_title
;
Structure prediction by ZEFSAII (Michael W. Deem and Ramdas Pophale) SiO2 
 PCOD9272567
Probable space group: C 2/C
;
_chemical_formula_sum "Si O2"
_cell_formula_units_Z 56
_cell_length_a 24.578881
_cell_length_b 7.931326
_cell_length_c 32.080989
_cell_angle_alpha 90.000000
_cell_angle_beta 156.696714
_cell_angle_gamma 90.000000
_cell_volume 2474.058343
_symmetry_space_group_name_H-M "C 2/C"
_symmetry_group_IT_number 15
_symmetry_cell_setting 'monoclinic'
loop_
_space_group_symop_operation_xyz
x,y,z
-x,y,1/2-z
-x,-y,-z
x,-y,1/2+z
1/2+x,1/2+y,z
1/2-x,1/2+y,1/2-z
1/2-x,1/2-y,-z
1/2+x,1/2-y,1/2+z
loop_
_atom_site_type_symbol
_atom_site_label
_atom_site_fract_x
_atom_site_fract_y
_atom_site_fract_z
Si Si1 0.630720 0.920939 0.316609
Si Si2 0.065371 0.840656 0.977052
Si Si3 0.899652 0.652816 0.416987
Si Si4 0.495539 0.280279 0.399173
Si Si5 0.588490 0.253739 0.706500
Si Si6 0.696284 0.300972 0.392245
Si Si7 0.516971 0.421177 0.194633
O O1 0.500000 0.853707 0.250000
O O2 0.774685 0.823892 0.423673
O O3 0.600723 0.903051 0.246141
O O4 0.655534 0.111415 0.349373
O O5 0.970103 0.725078 0.880630
O O6 0.024545 0.032668 0.938310
O O7 0.053602 0.797404 0.017339
O O8 0.735368 0.650072 0.308124
O O9 0.000000 0.500000 0.500000
O O10 0.916040 0.688392 0.379703
O O11 0.641119 0.190575 0.493795
O O12 0.433186 0.312394 0.309843
O O13 0.490325 0.391375 0.659390
O O14 0.629310 0.419140 0.309978
O O15 0.620434 0.344295 0.381800
#
# Coordination Sequence:
#
# PCOD9272567 Si02
#       7
#     8   8   8   8   8   8   8
#     4  10  20  38  60  86 121 152 193 242 295 352
#     4   9  22  41  59  87 117 159 198 239 297 352
#     4  11  23  40  59  89 122 154 200 250 291 346
#     4  10  21  38  62  84 115 156 196 241 289 349
#     4  10  23  39  60  88 121 156 198 241 298 351
#     4  10  20  37  59  88 119 147 197 239 291 349
#     4  10  20  37  58  87 115 155 190 236 296 347
#
# _framework density 22.634874
#
# number of rings (size 3 to 8) (size 9 to 14) (size 15 to 20)
#    0.000    2.000    1.429    1.714    2.000    5.143 
#    0.000    1.429    0.000    0.000    0.000    0.000 
#    0.000    0.000    0.000    0.000    0.000    0.000 
#
# Total GULP energy -156352.340074 kJ/mol
# GULP energy per Si atom -5584.012146 kJ/mol
# Density = 2.258336 g / cm^3
# Si number density = 22.634874 Si / 1000 Ang^3
#
#
#
# Elastic Constant Matrix: (Units=GPa)
#
#
# Indices 1 2 3 4 5 6 
#
# 1 124.5284 28.6585 3.5892 0.0000 -2.2030 -0.0023
# 2 28.6585 47.1408 2.6825 -0.0026 10.2137 -0.0025
# 3 3.5892 2.6825 35.8269 -0.0021 -5.0301 -0.0013
# 4 0.0000 -0.0026 -0.0021 22.6248 0.0009 -5.2659
# 5 -2.2030 10.2137 -5.0301 0.0009 31.3394 -0.0005
# 6 -0.0023 -0.0025 -0.0013 -5.2659 -0.0005 24.1150
#
#
#
# Elastic Compliance Matrix: (Units=1/GPa)
#
#
# Indices 1 2 3 4 5 6 
#
# 1 0.009554 -0.006397 -0.000093 -0.000001 0.002741 0.000000
# 2 -0.006397 0.027389 -0.002789 0.000004 -0.009823 0.000003
# 3 -0.000093 -0.002789 0.028908 0.000003 0.005542 0.000002
# 4 -0.000001 0.000004 0.000003 0.046566 -0.000002 0.010168
# 5 0.002741 -0.009823 0.005542 -0.000002 0.036193 0.000000
# 6 0.000000 0.000003 0.000002 0.010168 0.000000 0.043688
#
#
# Mechanical properties :
#
#
# Convention : Reuss Voigt Hill
#
# Bulk Modulus (GPa) = 21.14488 30.81740 25.98114
# Shear Modulus (GPa) = 22.06338 27.12021 24.59180
#
# Velocity S-wave (km/s) = 3.12549 3.46520 3.29972
# Velocity P-wave (km/s) = 4.73148 5.44561 5.10106
#
# Compressibility (1/GPa) = 0.04729277
#
# Stress axis : x y z
#
# Youngs Moduli (GPa) = 104.67295 36.51126 34.59214
#
# Poissons Ratio (x) = 0.23355 0.00323
# Poissons Ratio (y) = 0.66955 0.09648
# Poissons Ratio (z) = 0.00977 0.10183
#
# Static dielectric constant tensor:
#      x y z
#    x 1.835720 0.000000 -0.010870 
#    y 0.000000 1.882540 0.000000 
#    z -0.010870 0.000000 1.864040 
# 
# From -- ./inp_files/317578.got.cif
#   From: 2010.05.17/outbox.cif.g08.bks.cpg/sg15_159_cif.got.tgz:317578.got - 2010.06.03 18:47:42.
