data_PCOD9272657
_publ_section_title
;
Structure prediction by ZEFSAII (Michael W. Deem and Ramdas Pophale) SiO2 
 PCOD9272657
Probable space group: C 2/C
;
_chemical_formula_sum "Si O2"
_cell_formula_units_Z 56
_cell_length_a 8.486300
_cell_length_b 12.378817
_cell_length_c 26.154923
_cell_angle_alpha 90.000000
_cell_angle_beta 110.414154
_cell_angle_gamma 90.000000
_cell_volume 2575.024270
_symmetry_space_group_name_H-M "C 2/C"
_symmetry_group_IT_number 15
_symmetry_cell_setting 'monoclinic'
loop_
_space_group_symop_operation_xyz
x,y,z
-x,y,1/2-z
-x,-y,-z
x,-y,1/2+z
1/2+x,1/2+y,z
1/2-x,1/2+y,1/2-z
1/2-x,1/2-y,-z
1/2+x,1/2-y,1/2+z
loop_
_atom_site_type_symbol
_atom_site_label
_atom_site_fract_x
_atom_site_fract_y
_atom_site_fract_z
Si Si1 0.636052 0.529530 0.659448
Si Si2 0.252018 0.483977 0.519267
Si Si3 0.527893 0.161225 0.543283
Si Si4 0.119820 0.325486 0.360401
Si Si5 0.114622 0.495758 0.222702
Si Si6 0.378457 0.591889 0.186686
Si Si7 0.633697 0.402367 0.566690
O O1 0.693297 0.627067 0.629365
O O2 0.736039 0.545241 0.723805
O O3 0.451643 0.502701 0.659093
O O4 0.696008 0.426290 0.631602
O O5 0.169369 0.572089 0.547150
O O6 0.446471 0.454373 0.548163
O O7 0.252445 0.537337 0.462355
O O8 0.132822 0.378291 0.508351
O O9 0.450930 0.162001 0.591177
O O10 0.605487 0.279938 0.545695
O O11 0.116135 0.202326 0.343320
O O12 0.995463 0.398241 0.311612
O O13 0.195756 0.563651 0.186966
O O14 0.000000 0.560576 0.250000
O O15 0.500000 0.604092 0.250000
#
# Coordination Sequence:
#
# PCOD9272657 Si02
#       7
#     8   8   8   8   8   8   8
#     4  10  20  37  59  87 118 152 194 239 287 351
#     4  10  24  40  61  87 118 153 200 250 296 347
#     4  11  22  39  63  88 116 158 199 240 298 354
#     4  11  21  38  61  86 121 158 192 240 293 347
#     4   9  21  39  59  87 120 153 195 240 282 350
#     4  10  20  38  61  82 116 157 192 238 293 342
#     4  11  21  41  62  86 119 153 196 250 296 346
#
# _framework density 21.747368000000002
#
# number of rings (size 3 to 8) (size 9 to 14) (size 15 to 20)
#    0.000    1.714    2.857    2.143    2.000    0.000 
#    0.000   10.714    0.000    0.000    0.000    0.000 
#    0.000    0.000    0.000    0.000    0.000    0.000 
#
# Total GULP energy -156141.638346 kJ/mol
# GULP energy per Si atom -5576.487084 kJ/mol
# Density = 2.169787 g / cm^3
# Si number density = 21.747368 Si / 1000 Ang^3
#
#
#
# Elastic Constant Matrix: (Units=GPa)
#
#
# Indices 1 2 3 4 5 6 
#
# 1 96.2754 27.8440 10.5654 0.0000 -17.0640 0.0000
# 2 27.8440 49.8951 6.4737 0.0000 1.8419 0.0000
# 3 10.5654 6.4737 43.0874 0.0000 -15.0691 0.0000
# 4 0.0000 0.0000 0.0000 24.1678 0.0000 -4.6473
# 5 -17.0640 1.8419 -15.0691 0.0000 31.8541 0.0000
# 6 0.0000 0.0000 0.0000 -4.6473 0.0000 20.0604
#
#
#
# Elastic Compliance Matrix: (Units=1/GPa)
#
#
# Indices 1 2 3 4 5 6 
#
# 1 0.014215 -0.008337 0.000717 0.000000 0.008436 0.000000
# 2 -0.008337 0.025599 -0.004651 0.000000 -0.008146 0.000000
# 3 0.000717 -0.004651 0.028710 0.000000 0.014235 0.000000
# 4 0.000000 0.000000 0.000000 0.043307 0.000000 0.010033
# 5 0.008436 -0.008146 0.014235 0.000000 0.043117 0.000000
# 6 0.000000 0.000000 0.000000 0.010033 0.000000 0.052174
#
#
# Mechanical properties :
#
#
# Convention : Reuss Voigt Hill
#
# Bulk Modulus (GPa) = 22.73635 31.00266 26.86951
# Shear Modulus (GPa) = 20.29860 24.84143 22.57001
#
# Velocity S-wave (km/s) = 3.05844 3.38342 3.22503
# Velocity P-wave (km/s) = 4.79057 5.43600 5.12346
#
# Compressibility (1/GPa) = 0.04398243
#
# Stress axis : x y z
#
# Youngs Moduli (GPa) = 70.35069 39.06461 34.83111
#
# Poissons Ratio (x) = 0.32568 -0.02499
# Poissons Ratio (y) = 0.58651 0.16199
# Poissons Ratio (z) = -0.05047 0.18168
#
# Static dielectric constant tensor:
#      x y z
#    x 1.824140 0.000000 0.037280 
#    y 0.000000 1.767550 0.000000 
#    z 0.037280 0.000000 1.879720 
# 
# From -- ./inp_files/288047.got.cif
#   From: 2010.05.17/outbox.cif.g08.bks.cpg/sg15_145_cif.got.tgz:288047.got - 2010.06.03 18:47:42.
