data_PCOD9272515
_publ_section_title
;
Structure prediction by ZEFSAII (Michael W. Deem and Ramdas Pophale) SiO2 
 PCOD9272515
Probable space group: C 2/C
;
_chemical_formula_sum "Si O2"
_cell_formula_units_Z 44
_cell_length_a 10.931665
_cell_length_b 19.651451
_cell_length_c 14.974203
_cell_angle_alpha 90.000000
_cell_angle_beta 141.593365
_cell_angle_gamma 90.000000
_cell_volume 1998.402833
_symmetry_space_group_name_H-M "C 2/C"
_symmetry_group_IT_number 15
_symmetry_cell_setting 'monoclinic'
loop_
_space_group_symop_operation_xyz
x,y,z
-x,y,1/2-z
-x,-y,-z
x,-y,1/2+z
1/2+x,1/2+y,z
1/2-x,1/2+y,1/2-z
1/2-x,1/2-y,-z
1/2+x,1/2-y,1/2+z
loop_
_atom_site_type_symbol
_atom_site_label
_atom_site_fract_x
_atom_site_fract_y
_atom_site_fract_z
Si Si1 0.690074 0.455462 0.576307
Si Si2 0.599235 0.301500 0.462792
Si Si3 0.258510 0.598274 0.213534
Si Si4 0.500000 0.824112 0.250000
Si Si5 0.733869 0.423096 0.983381
Si Si6 0.707515 0.746896 0.210771
O O1 0.500000 0.500000 0.500000
O O2 0.653888 0.380391 0.513392
O O3 0.803313 0.444476 0.734691
O O4 0.773671 0.503345 0.547710
O O5 0.750000 0.250000 0.500000
O O6 0.580737 0.270267 0.551753
O O7 0.389934 0.296184 0.294392
O O8 0.190954 0.580848 0.075399
O O9 0.498895 0.592642 0.348478
O O10 0.205021 0.675189 0.206723
O O11 0.663327 0.870485 0.391057
O O12 0.585972 0.778166 0.221182
#
# Coordination Sequence:
#
# PCOD9272515 Si02
#       6
#     8   8   8   4   8   8
#     4   9  19  40  62  86 124 170 213 261 320 385
#     4  11  24  44  64  92 130 173 218 262 329 395
#     4   9  19  37  62  84 121 168 203 250 332 380
#     4  12  22  36  62 102 126 156 216 276 324 376
#     4  10  20  37  57  93 122 161 205 261 319 382
#     4  11  22  39  65  93 130 164 212 270 322 390
#
# _framework density 22.017583999999999
#
# number of rings (size 3 to 8) (size 9 to 14) (size 15 to 20)
#    0.000    1.818    0.000    6.000    0.000    2.182 
#   22.909    0.909    0.000    0.000    0.000    0.000 
#    0.000    0.000    0.000    0.000    0.000    0.000 
#
# Total GULP energy -122811.004910 kJ/mol
# GULP energy per Si atom -5582.318405 kJ/mol
# Density = 2.196747 g / cm^3
# Si number density = 22.017584 Si / 1000 Ang^3
#
#
#
# Elastic Constant Matrix: (Units=GPa)
#
#
# Indices 1 2 3 4 5 6 
#
# 1 36.4749 35.9420 10.8181 0.0005 -11.2998 0.0003
# 2 35.9420 105.1604 27.7339 0.0001 -27.0287 0.0000
# 3 10.8181 27.7339 66.2770 0.0012 -29.7529 0.0009
# 4 0.0005 0.0001 0.0012 32.0867 0.0004 -14.0218
# 5 -11.2998 -27.0287 -29.7529 0.0004 42.2720 0.0003
# 6 0.0003 0.0000 0.0009 -14.0218 0.0003 35.9230
#
#
#
# Elastic Compliance Matrix: (Units=1/GPa)
#
#
# Indices 1 2 3 4 5 6 
#
# 1 0.041545 -0.013574 -0.000017 -0.000001 0.002414 -0.000001
# 2 -0.013574 0.016036 -0.002223 0.000000 0.005060 0.000000
# 3 -0.000017 -0.002223 0.022486 -0.000002 0.014401 -0.000001
# 4 -0.000001 0.000000 -0.000002 0.037575 -0.000002 0.014667
# 5 0.002414 0.005060 0.014401 -0.000002 0.037673 -0.000001
# 6 -0.000001 0.000000 -0.000001 0.014667 -0.000001 0.033562
#
#
# Mechanical properties :
#
#
# Convention : Reuss Voigt Hill
#
# Bulk Modulus (GPa) = 20.64536 39.65561 30.15048
# Shear Modulus (GPa) = 21.12813 30.95088 26.03950
#
# Velocity S-wave (km/s) = 3.10111 3.75338 3.44273
# Velocity P-wave (km/s) = 4.71377 6.06909 5.43385
#
# Compressibility (1/GPa) = 0.04843704
#
# Stress axis : x y z
#
# Youngs Moduli (GPa) = 24.07019 62.36131 44.47238
#
# Poissons Ratio (x) = 0.84652 0.00077
# Poissons Ratio (y) = 0.32674 0.09886
# Poissons Ratio (z) = 0.00042 0.13863
#
# Static dielectric constant tensor:
#      x y z
#    x 1.849120 0.000000 0.020240 
#    y 0.000000 1.803090 0.000000 
#    z 0.020240 0.000000 1.809460 
# 
# From -- ./inp_files/147275.got.cif
#   From: 2010.05.17/outbox.cif.g08.bks.cpg/sg15_74_cif.got.tgz:147275.got - 2010.06.03 18:47:42.
