data_PCOD9272255
_publ_section_title
;
Structure prediction by ZEFSAII (Michael W. Deem and Ramdas Pophale) SiO2 
 PCOD9272255
Probable space group: C 2/C
;
_chemical_formula_sum "Si O2"
_cell_formula_units_Z 36
_cell_length_a 11.439739
_cell_length_b 15.060023
_cell_length_c 18.626016
_cell_angle_alpha 90.000000
_cell_angle_beta 153.754474
_cell_angle_gamma 90.000000
_cell_volume 1419.053545
_symmetry_space_group_name_H-M "C 2/C"
_symmetry_group_IT_number 15
_symmetry_cell_setting 'monoclinic'
loop_
_space_group_symop_operation_xyz
x,y,z
-x,y,1/2-z
-x,-y,-z
x,-y,1/2+z
1/2+x,1/2+y,z
1/2-x,1/2+y,1/2-z
1/2-x,1/2-y,-z
1/2+x,1/2-y,1/2+z
loop_
_atom_site_type_symbol
_atom_site_label
_atom_site_fract_x
_atom_site_fract_y
_atom_site_fract_z
Si Si1 0.334938 0.859361 0.414476
Si Si2 0.000000 0.017971 0.250000
Si Si3 0.540580 0.431519 0.616343
Si Si4 0.693112 0.754713 0.718303
Si Si5 0.956066 0.587857 0.827207
O O1 0.227818 0.946163 0.394149
O O2 0.472147 0.797645 0.547615
O O3 0.120218 0.808367 0.245424
O O4 0.511229 0.894257 0.443466
O O5 0.079542 0.069377 0.223759
O O6 0.645289 0.334421 0.654391
O O7 0.224082 0.438534 0.434353
O O8 0.722281 0.514345 0.691707
O O9 0.855352 0.687678 0.755554
#
# Coordination Sequence:
#
# PCOD9272255 Si02
#       5
#     8   4   8   8   8
#     4   9  21  38  59  96 125 162 209 260 311 370
#     4  10  20  36  66  94 122 162 222 262 306 364
#     4  11  19  39  62  94 125 163 215 263 306 366
#     4  10  21  39  61  93 128 165 211 257 313 378
#     4   9  22  37  62  95 122 165 212 261 308 374
#
# _framework density 25.369021
#
# number of rings (size 3 to 8) (size 9 to 14) (size 15 to 20)
#    1.333    0.889    0.000    3.333    0.000    4.444 
#    4.000    1.111    0.000    2.667    0.000    0.000 
#    0.000    0.000    0.000    0.000    0.000    0.000 
#
# Total GULP energy -100367.011337 kJ/mol
# GULP energy per Si atom -5575.945074 kJ/mol
# Density = 2.531128 g / cm^3
# Si number density = 25.369021 Si / 1000 Ang^3
#
#
#
# Elastic Constant Matrix: (Units=GPa)
#
#
# Indices 1 2 3 4 5 6 
#
# 1 62.7154 -3.5851 6.4359 -0.0014 -6.9427 -0.0001
# 2 -3.5851 122.3340 40.7563 -0.0034 5.7450 -0.0013
# 3 6.4359 40.7563 132.9012 -0.0036 7.3365 -0.0009
# 4 -0.0014 -0.0034 -0.0036 48.8672 0.0004 -5.4404
# 5 -6.9427 5.7450 7.3365 0.0004 28.1639 -0.0005
# 6 -0.0001 -0.0013 -0.0009 -5.4404 -0.0005 31.2881
#
#
#
# Elastic Compliance Matrix: (Units=1/GPa)
#
#
# Indices 1 2 3 4 5 6 
#
# 1 0.016587 0.000704 -0.001255 0.000000 0.004272 0.000000
# 2 0.000704 0.009171 -0.002793 0.000000 -0.000970 0.000000
# 3 -0.001255 -0.002793 0.008550 0.000000 -0.001967 0.000000
# 4 0.000000 0.000000 0.000000 0.020868 0.000000 0.003629
# 5 0.004272 -0.000970 -0.001967 0.000000 0.037270 0.000000
# 6 0.000000 0.000000 0.000000 0.003629 0.000000 0.032592
#
#
# Mechanical properties :
#
#
# Convention : Reuss Voigt Hill
#
# Bulk Modulus (GPa) = 36.20611 45.01831 40.61221
# Shear Modulus (GPa) = 35.47792 39.95339 37.71566
#
# Velocity S-wave (km/s) = 3.74367 3.97279 3.85993
# Velocity P-wave (km/s) = 5.74365 6.23121 5.99239
#
# Compressibility (1/GPa) = 0.02761965
#
# Stress axis : x y z
#
# Youngs Moduli (GPa) = 60.28830 109.03940 116.95577
#
# Poissons Ratio (x) = -0.07671 0.14676
# Poissons Ratio (y) = -0.04241 0.32665
# Poissons Ratio (z) = 0.07565 0.30454
#
# Static dielectric constant tensor:
#      x y z
#    x 1.984620 0.000000 0.030360 
#    y 0.000000 1.920780 0.000000 
#    z 0.030360 0.000000 2.245440 
# 
# From -- ./inp_files/95878.got.cif
#   From: 2010.05.17/outbox.cif.g08.bks.cpg/sg15_48_cif.got.tgz:95878.got - 2010.06.03 18:47:42.
