data_PCOD9272179
_publ_section_title
;
Structure prediction by ZEFSAII (Michael W. Deem and Ramdas Pophale) SiO2 
 PCOD9272179
Probable space group: C 2/C
;
_chemical_formula_sum "Si O2"
_cell_formula_units_Z 56
_cell_length_a 5.324810
_cell_length_b 17.783175
_cell_length_c 24.189205
_cell_angle_alpha 90.000000
_cell_angle_beta 98.949250
_cell_angle_gamma 90.000000
_cell_volume 2262.641210
_symmetry_space_group_name_H-M "C 2/C"
_symmetry_group_IT_number 15
_symmetry_cell_setting 'monoclinic'
loop_
_space_group_symop_operation_xyz
x,y,z
-x,y,1/2-z
-x,-y,-z
x,-y,1/2+z
1/2+x,1/2+y,z
1/2-x,1/2+y,1/2-z
1/2-x,1/2-y,-z
1/2+x,1/2-y,1/2+z
loop_
_atom_site_type_symbol
_atom_site_label
_atom_site_fract_x
_atom_site_fract_y
_atom_site_fract_z
Si Si1 0.921243 0.045464 0.141223
Si Si2 0.642722 0.087198 0.596053
Si Si3 0.241463 0.184549 0.734614
Si Si4 0.760954 0.976612 0.955177
Si Si5 0.998873 0.341290 0.586885
Si Si6 0.852513 0.816838 0.396245
Si Si7 0.776727 0.656223 0.203292
O O1 0.741127 0.105433 0.104188
O O2 0.137327 0.018690 0.105171
O O3 0.051673 0.096046 0.192121
O O4 0.748314 0.972140 0.145791
O O5 0.419189 0.145925 0.600840
O O6 0.898985 0.131017 0.588049
O O7 0.485788 0.030485 0.550758
O O8 0.500000 0.140444 0.750000
O O9 0.178672 0.203002 0.669716
O O10 0.275670 0.260974 0.772595
O O11 0.000000 0.142720 0.750000
O O12 0.685388 0.889289 0.958329
O O13 0.000000 0.000000 0.000000
O O14 0.865264 0.333787 0.642665
O O15 0.090123 0.260484 0.570501
O O16 0.000000 0.626016 0.250000
#
# Coordination Sequence:
#
# PCOD9272179 Si02
#       7
#     8   8   8   8   8   8   8
#     4  10  22  44  70 101 136 184 234 286 346 411
#     4  11  25  44  69  98 146 181 214 286 358 414
#     4  11  21  36  62  97 128 176 234 279 318 392
#     4  10  23  48  77 101 134 186 236 286 354 428
#     4  10  22  38  72 104 133 183 238 286 338 416
#     4  12  23  42  69 101 143 182 221 282 358 406
#     4  10  20  36  65 102 130 175 244 291 320 386
#
# _framework density 24.749835999999998
#
# number of rings (size 3 to 8) (size 9 to 14) (size 15 to 20)
#    0.000    1.429    4.286    1.714    4.000    2.286 
#    0.000    2.143   15.714    0.000    0.000    0.000 
#    0.000    0.000    0.000    0.000    0.000    0.000 
#
# Total GULP energy -156418.570028 kJ/mol
# GULP energy per Si atom -5586.377501 kJ/mol
# Density = 2.469350 g / cm^3
# Si number density = 24.749836 Si / 1000 Ang^3
#
#
#
# Elastic Constant Matrix: (Units=GPa)
#
#
# Indices 1 2 3 4 5 6 
#
# 1 150.0066 53.8178 16.6550 0.0000 32.0749 0.0000
# 2 53.8178 144.6987 16.1686 0.0000 15.1626 0.0000
# 3 16.6550 16.1686 82.8363 0.0000 15.1881 0.0000
# 4 0.0000 0.0000 0.0000 -277.0741 0.0000 -265.9213
# 5 32.0749 15.1626 15.1881 0.0000 43.0625 0.0000
# 6 0.0000 0.0000 0.0000 -265.9213 0.0000 -196.7549
#
#
#
# Elastic Compliance Matrix: (Units=1/GPa)
#
#
# Indices 1 2 3 4 5 6 
#
# 1 0.008843 -0.002680 -0.000235 0.000000 -0.005560 0.000000
# 2 -0.002680 0.008067 -0.000942 0.000000 -0.000512 0.000000
# 3 -0.000235 -0.000942 0.013054 0.000000 -0.004097 0.000000
# 4 0.000000 0.000000 0.000000 0.012147 0.000000 -0.016416
# 5 -0.005560 -0.000512 -0.004097 0.000000 0.028989 0.000000
# 6 0.000000 0.000000 0.000000 -0.016416 0.000000 0.017105
#
#
# Mechanical properties :
#
#
# Convention : Reuss Voigt Hill
#
# Bulk Modulus (GPa) = 44.94503 61.20271 53.07387
# Shear Modulus (GPa) = 48.38634 -66.75997 -9.18681
#
# Velocity S-wave (km/s) = 4.42635 -5.19928 -1.92871
# Velocity P-wave (km/s) = 6.65752 3.35575 4.06581
#
# Compressibility (1/GPa) = 0.02224940
#
# Stress axis : x y z
#
# Youngs Moduli (GPa) = 113.08565 123.96838 76.60242
#
# Poissons Ratio (x) = 0.33224 0.01803
# Poissons Ratio (y) = 0.30307 0.07214
# Poissons Ratio (z) = 0.02662 0.11675
#
# Static dielectric constant tensor:
#      x y z
#    x 2.116260 0.000000 -0.052010 
#    y 0.000000 1.975580 0.000000 
#    z -0.052010 0.000000 2.006590 
# 
# From -- ./inp_files/286095.got.cif
#   From: 2010.05.17/outbox.cif.g08.bks.cpg/sg15_144_cif.got.tgz:286095.got - 2010.06.03 18:47:42.
