data_PCOD9272145
_publ_section_title
;
Structure prediction by ZEFSAII (Michael W. Deem and Ramdas Pophale) SiO2 
 PCOD9272145
Probable space group: C 2/C
;
_chemical_formula_sum "Si O2"
_cell_formula_units_Z 48
_cell_length_a 8.666005
_cell_length_b 14.083745
_cell_length_c 18.223185
_cell_angle_alpha 90.000000
_cell_angle_beta 78.202323
_cell_angle_gamma 90.000000
_cell_volume 2177.152802
_symmetry_space_group_name_H-M "C 2/C"
_symmetry_group_IT_number 15
_symmetry_cell_setting 'monoclinic'
loop_
_space_group_symop_operation_xyz
x,y,z
-x,y,1/2-z
-x,-y,-z
x,-y,1/2+z
1/2+x,1/2+y,z
1/2-x,1/2+y,1/2-z
1/2-x,1/2-y,-z
1/2+x,1/2-y,1/2+z
loop_
_atom_site_type_symbol
_atom_site_label
_atom_site_fract_x
_atom_site_fract_y
_atom_site_fract_z
Si Si1 0.435878 0.637141 0.950891
Si Si2 0.785280 0.569436 0.126392
Si Si3 0.820260 0.185433 0.238184
Si Si4 0.908878 0.689523 0.994371
Si Si5 0.922431 0.958603 0.609846
Si Si6 0.839343 0.637370 0.640583
O O1 0.484091 0.742392 0.966760
O O2 0.574879 0.572735 0.900529
O O3 0.286529 0.639512 0.913091
O O4 0.398164 0.585972 0.031957
O O5 0.788607 0.655098 0.183783
O O6 0.877267 0.594928 0.043591
O O7 0.603060 0.559469 0.118617
O O8 0.841608 0.473369 0.159885
O O9 0.000000 0.190059 0.250000
O O10 0.819039 0.100072 0.177952
O O11 0.786081 0.286744 0.205681
O O12 0.750000 0.750000 0.000000
O O13 0.994789 0.670378 0.909546
#
# Coordination Sequence:
#
# PCOD9272145 Si02
#       6
#     8   8   8   8   8   8
#     4  10  20  36  64  93 115 151 210 255 300 353
#     4  10  22  38  60  91 125 157 205 255 310 362
#     4  10  20  40  61  83 121 168 203 240 308 382
#     4  12  21  38  61  94 123 161 198 248 307 370
#     4   9  18  37  62  90 116 162 205 247 302 371
#     4  11  23  40  64  89 121 161 204 260 301 357
#
# _framework density 22.047143999999999
#
# number of rings (size 3 to 8) (size 9 to 14) (size 15 to 20)
#    0.000    1.667    3.333    2.000    0.000    1.333 
#    0.000    4.167    0.000    0.000    0.000    0.000 
#    0.000    0.000    0.000    0.000    0.000    0.000 
#
# Total GULP energy -134044.809951 kJ/mol
# GULP energy per Si atom -5585.200415 kJ/mol
# Density = 2.199696 g / cm^3
# Si number density = 22.047144 Si / 1000 Ang^3
#
#
#
# Elastic Constant Matrix: (Units=GPa)
#
#
# Indices 1 2 3 4 5 6 
#
# 1 27.4996 7.8323 5.8555 0.0000 0.2816 0.0000
# 2 7.8323 102.5118 30.6697 0.0000 -2.7387 0.0000
# 3 5.8555 30.6697 71.0548 0.0000 6.2752 0.0000
# 4 0.0000 0.0000 0.0000 35.8900 0.0000 9.7319
# 5 0.2816 -2.7387 6.2752 0.0000 15.5047 0.0000
# 6 0.0000 0.0000 0.0000 9.7319 0.0000 19.5796
#
#
#
# Elastic Compliance Matrix: (Units=1/GPa)
#
#
# Indices 1 2 3 4 5 6 
#
# 1 0.037451 -0.002239 -0.002100 0.000000 -0.000226 0.000000
# 2 -0.002239 0.011590 -0.005188 0.000000 0.004188 0.000000
# 3 -0.002100 -0.005188 0.017178 0.000000 -0.007830 0.000000
# 4 0.000000 0.000000 0.000000 0.032203 0.000000 -0.016006
# 5 -0.000226 0.004188 -0.007830 0.000000 0.068409 0.000000
# 6 0.000000 0.000000 0.000000 -0.016006 0.000000 0.059029
#
#
# Mechanical properties :
#
#
# Convention : Reuss Voigt Hill
#
# Bulk Modulus (GPa) = 21.20221 32.19790 26.70006
# Shear Modulus (GPa) = 19.18381 24.64212 21.91296
#
# Velocity S-wave (km/s) = 2.95299 3.34683 3.15606
# Velocity P-wave (km/s) = 4.61135 5.43791 5.04160
#
# Compressibility (1/GPa) = 0.04716490
#
# Stress axis : x y z
#
# Youngs Moduli (GPa) = 26.70134 86.28063 58.21558
#
# Poissons Ratio (x) = 0.19320 0.12224
# Poissons Ratio (y) = 0.05979 0.30202
# Poissons Ratio (z) = 0.05607 0.44762
#
# Static dielectric constant tensor:
#      x y z
#    x 1.633170 0.000000 0.016370 
#    y 0.000000 1.843240 0.000000 
#    z 0.016370 0.000000 1.796390 
# 
# From -- ./inp_files/263722.got.cif
#   From: 2010.05.17/outbox.cif.g08.bks.cpg/sg15_132_cif.got.tgz:263722.got - 2010.06.03 18:47:42.
