data_PCOD9272311
_publ_section_title
;
Structure prediction by ZEFSAII (Michael W. Deem and Ramdas Pophale) SiO2 
 PCOD9272311
Probable space group: C 2/C
;
_chemical_formula_sum "Si O2"
_cell_formula_units_Z 52
_cell_length_a 9.943700
_cell_length_b 27.873726
_cell_length_c 15.862053
_cell_angle_alpha 90.000000
_cell_angle_beta 144.978712
_cell_angle_gamma 90.000000
_cell_volume 2523.039752
_symmetry_space_group_name_H-M "C 2/C"
_symmetry_group_IT_number 15
_symmetry_cell_setting 'monoclinic'
loop_
_space_group_symop_operation_xyz
x,y,z
-x,y,1/2-z
-x,-y,-z
x,-y,1/2+z
1/2+x,1/2+y,z
1/2-x,1/2+y,1/2-z
1/2-x,1/2-y,-z
1/2+x,1/2-y,1/2+z
loop_
_atom_site_type_symbol
_atom_site_label
_atom_site_fract_x
_atom_site_fract_y
_atom_site_fract_z
Si Si1 0.758581 0.978938 0.839477
Si Si2 0.737813 0.025353 0.650050
Si Si3 0.500000 0.793112 0.750000
Si Si4 0.151704 0.872430 0.568945
Si Si5 0.243807 0.299430 0.329951
Si Si6 0.611640 0.223468 0.568077
Si Si7 0.744491 0.628416 0.918863
O O1 0.500000 0.982320 0.750000
O O2 0.814960 0.921810 0.864010
O O3 0.741442 0.011250 0.748339
O O4 0.000000 0.000000 0.000000
O O5 0.702354 0.080225 0.604298
O O6 0.000000 0.012086 0.750000
O O7 0.500000 0.000000 0.500000
O O8 0.318791 0.831825 0.695887
O O9 0.307069 0.755187 0.619044
O O10 0.224192 0.881867 0.507925
O O11 0.901845 0.846699 0.427612
O O12 0.379879 0.255035 0.442546
O O13 0.199666 0.286375 0.208846
O O14 0.000000 0.306789 0.250000
O O15 0.584470 0.172471 0.509564
O O16 0.500000 0.645101 0.750000
#
# Coordination Sequence:
#
# PCOD9272311 Si02
#       7
#     8   8   4   8   8   8   8
#     4  12  25  45  72 103 138 185 238 299 355 418
#     4  11  25  46  69 100 140 184 237 295 356 421
#     4  10  20  36  68  98 124 160 226 286 326 394
#     4  11  22  40  67  98 132 172 232 282 339 411
#     4  11  24  41  63  97 142 183 220 275 350 428
#     4  11  21  40  66 100 134 175 226 278 352 408
#     4  11  20  39  68  96 128 172 226 283 343 406
#
# _framework density 20.610059
#
# number of rings (size 3 to 8) (size 9 to 14) (size 15 to 20)
#    0.000    0.923    3.077    5.077    0.000    3.077 
#    2.769    0.769    0.000    0.000    0.000    0.000 
#    0.000    0.000    0.000    0.000    0.000    0.000 
#
# Total GULP energy -144802.596973 kJ/mol
# GULP energy per Si atom -5569.330653 kJ/mol
# Density = 2.056315 g / cm^3
# Si number density = 20.610059 Si / 1000 Ang^3
#
#
#
# Elastic Constant Matrix: (Units=GPa)
#
#
# Indices 1 2 3 4 5 6 
#
# 1 86.2899 78.9195 47.9687 0.0000 18.9583 0.0000
# 2 78.9195 146.8900 46.7145 0.0000 23.8131 0.0000
# 3 47.9687 46.7145 120.2938 0.0000 20.4245 0.0000
# 4 0.0000 0.0000 0.0000 24.9787 0.0000 4.0258
# 5 18.9583 23.8131 20.4245 0.0000 34.1992 0.0000
# 6 0.0000 0.0000 0.0000 4.0258 0.0000 16.5383
#
#
#
# Elastic Compliance Matrix: (Units=1/GPa)
#
#
# Indices 1 2 3 4 5 6 
#
# 1 0.025953 -0.011778 -0.005258 0.000000 -0.003046 0.000000
# 2 -0.011778 0.013641 -0.000107 0.000000 -0.002905 0.000000
# 3 -0.005258 -0.000107 0.011066 0.000000 -0.003619 0.000000
# 4 0.000000 0.000000 0.000000 0.041669 0.000000 -0.010143
# 5 -0.003046 -0.002905 -0.003619 0.000000 0.035113 0.000000
# 6 0.000000 0.000000 0.000000 -0.010143 0.000000 0.062935
#
#
# Mechanical properties :
#
#
# Convention : Reuss Voigt Hill
#
# Bulk Modulus (GPa) = 61.07664 77.85321 69.46492
# Shear Modulus (GPa) = 21.72781 27.13465 24.43123
#
# Velocity S-wave (km/s) = 3.25042 3.63240 3.44670
# Velocity P-wave (km/s) = 6.61707 7.44639 7.04395
#
# Compressibility (1/GPa) = 0.01637287
#
# Stress axis : x y z
#
# Youngs Moduli (GPa) = 38.53179 73.31025 90.36724
#
# Poissons Ratio (x) = 0.86342 0.47516
# Poissons Ratio (y) = 0.45381 0.00971
# Poissons Ratio (z) = 0.20261 0.00788
#
# Static dielectric constant tensor:
#      x y z
#    x 1.747280 0.000000 -0.049780 
#    y 0.000000 1.777780 0.000000 
#    z -0.049780 0.000000 1.676770 
# 
# From -- ./inp_files/139884.got.cif
#   From: 2010.05.17/outbox.cif.g08.bks.cpg/sg15_70_cif.got.tgz:139884.got - 2010.06.03 18:47:42.
