data_PCOD9272558
_publ_section_title
;
Structure prediction by ZEFSAII (Michael W. Deem and Ramdas Pophale) SiO2 
 PCOD9272558
Probable space group: C 2/C
;
_chemical_formula_sum "Si O2"
_cell_formula_units_Z 60
_cell_length_a 24.483737
_cell_length_b 23.245014
_cell_length_c 12.222374
_cell_angle_alpha 90.000000
_cell_angle_beta 153.813504
_cell_angle_gamma 90.000000
_cell_volume 3069.668445
_symmetry_space_group_name_H-M "C 2/C"
_symmetry_group_IT_number 15
_symmetry_cell_setting 'monoclinic'
loop_
_space_group_symop_operation_xyz
x,y,z
-x,y,1/2-z
-x,-y,-z
x,-y,1/2+z
1/2+x,1/2+y,z
1/2-x,1/2+y,1/2-z
1/2-x,1/2-y,-z
1/2+x,1/2-y,1/2+z
loop_
_atom_site_type_symbol
_atom_site_label
_atom_site_fract_x
_atom_site_fract_y
_atom_site_fract_z
Si Si1 0.758548 0.726169 0.890887
Si Si2 0.999131 0.568153 0.619537
Si Si3 0.119638 0.038617 0.530464
Si Si4 0.874363 0.557379 0.864654
Si Si5 0.500000 0.152266 0.250000
Si Si6 0.089892 0.095479 0.012223
Si Si7 0.390386 0.627720 0.806692
Si Si8 0.279673 0.852448 0.712397
O O1 0.646950 0.680861 0.684069
O O2 0.733377 0.785276 0.782828
O O3 0.750000 0.750000 0.000000
O O4 0.887153 0.693101 0.092694
O O5 0.943011 0.503794 0.506167
O O6 0.910071 0.619460 0.418295
O O7 0.000000 0.577498 0.750000
O O8 0.116138 0.569351 0.748336
O O9 0.237836 0.046999 0.665848
O O10 0.141830 0.071995 0.682231
O O11 0.091644 0.973117 0.513080
O O12 0.000000 0.060837 0.250000
O O13 0.941098 0.608808 0.053134
O O14 0.000000 0.114107 0.750000
O O15 0.028971 0.121961 0.010372
O O16 0.224058 0.115344 0.217291
O O17 0.303631 0.632962 0.543947
#
# Coordination Sequence:
#
# PCOD9272558 Si02
#       8
#     8   8   8   8   4   8   8   8
#     4  10  22  35  61  92 123 164 215 277 311 376
#     4  11  24  42  65  93 133 168 210 272 328 404
#     4  11  22  38  56  92 128 166 206 263 331 387
#     4  11  23  40  65  97 129 169 218 263 336 388
#     4  12  22  42  70 100 130 168 226 280 324 378
#     4   9  19  34  56  83 118 157 197 256 312 377
#     4  10  20  37  58  85 121 160 216 262 310 377
#     4  10  21  39  59  91 121 163 215 263 321 377
#
# _framework density 19.546084
#
# number of rings (size 3 to 8) (size 9 to 14) (size 15 to 20)
#    0.000    1.600    3.333    2.000    4.667    1.067 
#    0.000    0.667    0.000    0.800    0.000    0.000 
#    0.000    0.000    0.000    0.000    0.000    0.000 
#
# Total GULP energy -167112.860146 kJ/mol
# GULP energy per Si atom -5570.428672 kJ/mol
# Density = 1.950160 g / cm^3
# Si number density = 19.546084 Si / 1000 Ang^3
#
#
#
# Elastic Constant Matrix: (Units=GPa)
#
#
# Indices 1 2 3 4 5 6 
#
# 1 104.6477 24.9717 33.2570 0.0000 20.0770 0.0000
# 2 24.9717 81.0066 30.2693 0.0000 6.4722 0.0000
# 3 33.2570 30.2693 30.4830 0.0000 14.7952 0.0000
# 4 0.0000 0.0000 0.0000 11.8671 0.0000 -18.1672
# 5 20.0770 6.4722 14.7952 0.0000 31.1991 0.0000
# 6 0.0000 0.0000 0.0000 -18.1672 0.0000 -19.6869
#
#
#
# Elastic Compliance Matrix: (Units=1/GPa)
#
#
# Indices 1 2 3 4 5 6 
#
# 1 0.014973 0.002086 -0.017563 0.000000 -0.001740 0.000000
# 2 0.002086 0.021065 -0.026525 0.000000 0.006867 0.000000
# 3 -0.017563 -0.026525 0.091123 0.000000 -0.026408 0.000000
# 4 0.000000 0.000000 0.000000 0.034926 0.000000 -0.032230
# 5 -0.001740 0.006867 -0.026408 0.000000 0.044270 0.000000
# 6 0.000000 0.000000 0.000000 -0.032230 0.000000 -0.021053
#
#
# Mechanical properties :
#
#
# Convention : Reuss Voigt Hill
#
# Bulk Modulus (GPa) = 23.17170 43.68147 33.42659
# Shear Modulus (GPa) = 17.62462 13.18513 15.40488
#
# Velocity S-wave (km/s) = 3.00608 2.60006 2.81041
# Velocity P-wave (km/s) = 4.89176 5.60448 5.26021
#
# Compressibility (1/GPa) = 0.04315609
#
# Stress axis : x y z
#
# Youngs Moduli (GPa) = 66.78540 47.47290 10.97420
#
# Poissons Ratio (x) = -0.09902 0.19274
# Poissons Ratio (y) = -0.13930 0.29109
# Poissons Ratio (z) = 1.17293 1.25924
#
# Static dielectric constant tensor:
#      x y z
#    x 1.768530 0.000000 -0.000030 
#    y 0.000000 1.737700 0.000000 
#    z -0.000030 0.000000 1.755810 
# 
# From -- ./inp_files/114840.got.cif
#   From: 2010.05.17/outbox.cif.g08.bks.cpg/sg15_58_cif.got.tgz:114840.got - 2010.06.03 18:47:42.
