data_PCOD9272671
_publ_section_title
;
Structure prediction by ZEFSAII (Michael W. Deem and Ramdas Pophale) SiO2 
 PCOD9272671
Probable space group: C 2/C
;
_chemical_formula_sum "Si O2"
_cell_formula_units_Z 52
_cell_length_a 8.461763
_cell_length_b 23.894547
_cell_length_c 21.887313
_cell_angle_alpha 90.000000
_cell_angle_beta 143.900341
_cell_angle_gamma 90.000000
_cell_volume 2607.405732
_symmetry_space_group_name_H-M "C 2/C"
_symmetry_group_IT_number 15
_symmetry_cell_setting 'monoclinic'
loop_
_space_group_symop_operation_xyz
x,y,z
-x,y,1/2-z
-x,-y,-z
x,-y,1/2+z
1/2+x,1/2+y,z
1/2-x,1/2+y,1/2-z
1/2-x,1/2-y,-z
1/2+x,1/2-y,1/2+z
loop_
_atom_site_type_symbol
_atom_site_label
_atom_site_fract_x
_atom_site_fract_y
_atom_site_fract_z
Si Si1 0.319900 0.547425 0.365326
Si Si2 0.500000 0.855593 0.250000
Si Si3 0.755909 0.347705 0.723396
Si Si4 0.449026 0.249646 0.974071
Si Si5 0.589221 0.837722 0.936885
Si Si6 0.005906 0.928020 0.440766
Si Si7 0.453079 0.775953 0.345151
O O1 0.414885 0.601602 0.357313
O O2 0.459919 0.488317 0.396124
O O3 0.384294 0.561217 0.456236
O O4 0.000000 0.541746 0.250000
O O5 0.725125 0.894781 0.350551
O O6 0.376471 0.815787 0.264839
O O7 0.617189 0.288468 0.690402
O O8 0.000000 0.340393 0.750000
O O9 0.871995 0.364758 0.824976
O O10 0.252239 0.294629 0.943284
O O11 0.340620 0.219901 0.878992
O O12 0.515447 0.201863 0.043176
O O13 0.725454 0.281978 0.047440
O O14 0.782701 0.885499 0.022486
#
# Coordination Sequence:
#
# PCOD9272671 Si02
#       7
#     8   4   8   8   8   8   8
#     4  10  20  37  59  89 113 159 208 259 289 348
#     4  12  24  34  58  98 126 156 190 256 306 360
#     4  11  20  35  59  86 116 157 199 241 295 361
#     4  10  22  35  58  85 126 163 192 241 299 371
#     4  11  20  38  57  88 120 154 199 246 301 356
#     4  11  21  36  59  89 123 149 206 256 302 345
#     4  11  22  37  55  91 125 161 197 235 308 368
#
# _framework density 19.943193999999998
#
# number of rings (size 3 to 8) (size 9 to 14) (size 15 to 20)
#    0.000    1.231    6.923    0.923    4.308    0.000 
#    0.000    0.000    0.000    0.923    8.000    0.000 
#    0.000    0.000    0.000    0.000    0.000    0.000 
#
# Total GULP energy -144978.195867 kJ/mol
# GULP energy per Si atom -5576.084456 kJ/mol
# Density = 1.989780 g / cm^3
# Si number density = 19.943194 Si / 1000 Ang^3
#
#
#
# Elastic Constant Matrix: (Units=GPa)
#
#
# Indices 1 2 3 4 5 6 
#
# 1 31.2477 17.0797 7.2577 0.0000 -8.4077 0.0001
# 2 17.0797 106.1065 27.1163 0.0000 -11.1617 0.0001
# 3 7.2577 27.1163 94.5405 -0.0005 -10.2600 0.0002
# 4 0.0000 0.0000 -0.0005 42.7452 0.0000 -0.6619
# 5 -8.4077 -11.1617 -10.2600 0.0000 15.0603 0.0003
# 6 0.0001 0.0001 0.0002 -0.6619 0.0003 19.8348
#
#
#
# Elastic Compliance Matrix: (Units=1/GPa)
#
#
# Indices 1 2 3 4 5 6 
#
# 1 0.039454 -0.004434 0.000299 0.000000 0.018943 0.000000
# 2 -0.004434 0.011195 -0.002418 0.000000 0.004175 0.000000
# 3 0.000299 -0.002418 0.011956 0.000000 0.006520 0.000000
# 4 0.000000 0.000000 0.000000 0.023407 0.000000 0.000781
# 5 0.018943 0.004175 0.006520 0.000000 0.084511 -0.000001
# 6 0.000000 0.000000 0.000000 0.000781 -0.000001 0.050443
#
#
# Mechanical properties :
#
#
# Convention : Reuss Voigt Hill
#
# Bulk Modulus (GPa) = 20.20282 37.20022 28.70152
# Shear Modulus (GPa) = 19.95453 27.55745 23.75599
#
# Velocity S-wave (km/s) = 3.16661 3.72129 3.45510
# Velocity P-wave (km/s) = 4.84995 6.09570 5.50816
#
# Compressibility (1/GPa) = 0.04949805
#
# Stress axis : x y z
#
# Youngs Moduli (GPa) = 25.34625 89.32340 83.64335
#
# Poissons Ratio (x) = 0.39610 -0.02500
# Poissons Ratio (y) = 0.11240 0.20221
# Poissons Ratio (z) = -0.00758 0.21595
#
# Static dielectric constant tensor:
#      x y z
#    x 1.724040 0.000000 0.012620 
#    y 0.000000 1.716780 0.000000 
#    z 0.012620 0.000000 1.781310 
# 
# From -- ./inp_files/234488.got.cif
#   From: 2010.05.17/outbox.cif.g08.bks.cpg/sg15_118_cif.got.tgz:234488.got - 2010.06.03 18:47:42.
