data_PCOD9272155
_publ_section_title
;
Structure prediction by ZEFSAII (Michael W. Deem and Ramdas Pophale) SiO2 
 PCOD9272155
Probable space group: C 2/C
;
_chemical_formula_sum "Si O2"
_cell_formula_units_Z 40
_cell_length_a 12.980872
_cell_length_b 15.235351
_cell_length_c 14.594651
_cell_angle_alpha 90.000000
_cell_angle_beta 147.254216
_cell_angle_gamma 90.000000
_cell_volume 1561.266822
_symmetry_space_group_name_H-M "C 2/C"
_symmetry_group_IT_number 15
_symmetry_cell_setting 'monoclinic'
loop_
_space_group_symop_operation_xyz
x,y,z
-x,y,1/2-z
-x,-y,-z
x,-y,1/2+z
1/2+x,1/2+y,z
1/2-x,1/2+y,1/2-z
1/2-x,1/2-y,-z
1/2+x,1/2-y,1/2+z
loop_
_atom_site_type_symbol
_atom_site_label
_atom_site_fract_x
_atom_site_fract_y
_atom_site_fract_z
Si Si1 0.915603 0.032796 0.040871
Si Si2 0.808955 0.358175 0.669095
Si Si3 0.404605 0.811738 0.470462
Si Si4 0.221797 0.504627 0.089570
Si Si5 0.591251 0.870696 0.217122
O O1 0.832822 0.939885 0.944043
O O2 0.809327 0.105496 0.901280
O O3 0.823188 0.034503 0.072334
O O4 0.138736 0.037545 0.226399
O O5 0.690654 0.272008 0.554813
O O6 0.000000 0.374605 0.750000
O O7 0.897312 0.333455 0.833179
O O8 0.283990 0.899964 0.401970
O O9 0.425192 0.800452 0.376174
O O10 0.014403 0.546786 0.914062
O O11 0.500000 0.853857 0.250000
#
# Coordination Sequence:
#
# PCOD9272155 Si02
#       5
#     8   8   8   8   8
#     4  10  20  38  66  94 126 161 202 256 320 375
#     4  12  23  40  61  96 134 164 200 264 319 381
#     4  12  24  38  63  93 128 168 210 250 320 379
#     4  10  20  36  64  95 123 159 203 254 317 373
#     4  10  22  45  63  89 126 166 211 267 301 359
#
# _framework density 25.62022
#
# number of rings (size 3 to 8) (size 9 to 14) (size 15 to 20)
#    0.000    1.200    4.000    3.000    2.800    0.800 
#    3.600    1.000    0.000    0.000    0.000    0.000 
#    0.000    0.000    0.000    0.000    0.000    0.000 
#
# Total GULP energy -111805.088003 kJ/mol
# GULP energy per Si atom -5590.254400 kJ/mol
# Density = 2.556191 g / cm^3
# Si number density = 25.620220 Si / 1000 Ang^3
#
#
#
# Elastic Constant Matrix: (Units=GPa)
#
#
# Indices 1 2 3 4 5 6 
#
# 1 96.1458 1.6988 34.8614 -0.0027 -29.0682 -0.0009
# 2 1.6988 20.2213 17.4671 -0.0039 -9.9476 -0.0019
# 3 34.8614 17.4671 202.8572 -0.0084 -18.8669 -0.0032
# 4 -0.0027 -0.0039 -0.0084 31.7626 -0.0035 9.3998
# 5 -29.0682 -9.9476 -18.8669 -0.0035 42.0481 -0.0011
# 6 -0.0009 -0.0019 -0.0032 9.3998 -0.0011 21.0063
#
#
#
# Elastic Compliance Matrix: (Units=1/GPa)
#
#
# Indices 1 2 3 4 5 6 
#
# 1 0.014083 0.005499 -0.001948 0.000002 0.010162 0.000000
# 2 0.005499 0.060978 -0.004696 0.000008 0.016120 0.000002
# 3 -0.001948 -0.004696 0.005677 0.000001 0.000089 0.000000
# 4 0.000002 0.000008 0.000001 0.036289 0.000006 -0.016239
# 5 0.010162 0.016120 0.000089 0.000006 0.034661 0.000001
# 6 0.000000 0.000002 0.000000 -0.016239 0.000001 0.054871
#
#
# Mechanical properties :
#
#
# Convention : Reuss Voigt Hill
#
# Bulk Modulus (GPa) = 12.74762 47.47543 30.11153
# Shear Modulus (GPa) = 21.27672 36.64320 28.95996
#
# Velocity S-wave (km/s) = 2.88491 3.78596 3.36572
# Velocity P-wave (km/s) = 4.01040 6.13857 5.18485
#
# Compressibility (1/GPa) = 0.07844601
#
# Stress axis : x y z
#
# Youngs Moduli (GPa) = 71.00992 16.39947 176.14625
#
# Poissons Ratio (x) = -0.09018 0.34322
# Poissons Ratio (y) = -0.39049 0.82723
# Poissons Ratio (z) = 0.13836 0.07702
#
# Static dielectric constant tensor:
#      x y z
#    x 2.152380 0.000000 0.007060 
#    y 0.000000 2.003800 0.000000 
#    z 0.007060 0.000000 2.020960 
# 
# From -- ./inp_files/155374.got.cif
#   From: 2010.05.17/outbox.cif.g08.bks.cpg/sg15_78_cif.got.tgz:155374.got - 2010.06.03 18:47:42.
