data_PCOD9272085
_publ_section_title
;
Structure prediction by ZEFSAII (Michael W. Deem and Ramdas Pophale) SiO2 
 PCOD9272085
Probable space group: C 2/C
;
_chemical_formula_sum "Si O2"
_cell_formula_units_Z 52
_cell_length_a 14.658609
_cell_length_b 25.646053
_cell_length_c 10.198860
_cell_angle_alpha 90.000000
_cell_angle_beta 144.597307
_cell_angle_gamma 90.000000
_cell_volume 2221.176458
_symmetry_space_group_name_H-M "C 2/C"
_symmetry_group_IT_number 15
_symmetry_cell_setting 'monoclinic'
loop_
_space_group_symop_operation_xyz
x,y,z
-x,y,1/2-z
-x,-y,-z
x,-y,1/2+z
1/2+x,1/2+y,z
1/2-x,1/2+y,1/2-z
1/2-x,1/2-y,-z
1/2+x,1/2-y,1/2+z
loop_
_atom_site_type_symbol
_atom_site_label
_atom_site_fract_x
_atom_site_fract_y
_atom_site_fract_z
Si Si1 0.264655 0.269423 0.831633
Si Si2 0.836176 0.196666 0.136751
Si Si3 0.941667 0.082062 0.900800
Si Si4 0.193400 0.397079 0.326991
Si Si5 0.457775 0.171992 0.048328
Si Si6 0.500000 0.333133 0.250000
Si Si7 0.153112 0.979293 0.833337
O O1 0.344690 0.298621 0.802144
O O2 0.088137 0.289348 0.639585
O O3 0.301366 0.208306 0.860480
O O4 0.355760 0.294011 0.060930
O O5 0.000000 0.193673 0.250000
O O6 0.750000 0.250000 0.000000
O O7 0.724809 0.148791 0.966722
O O8 0.846942 0.101657 0.914620
O O9 0.974049 0.127429 0.838413
O O10 0.834158 0.037916 0.704283
O O11 0.097980 0.054714 0.142713
O O12 0.205752 0.451231 0.422456
O O13 0.060731 0.377798 0.069235
O O14 0.500000 0.159985 0.250000
O O15 0.000000 0.980835 0.750000
#
# Coordination Sequence:
#
# PCOD9272085 Si02
#       7
#     8   8   8   8   8   4   8
#     4  12  26  41  66  98 139 184 230 279 342 413
#     4  12  24  40  63  97 134 173 224 272 332 409
#     4  10  20  36  64 100 131 171 225 285 340 411
#     4  11  23  39  65  91 137 177 223 281 350 392
#     4  12  26  44  65  98 141 189 232 282 341 421
#     4  12  22  36  64  96 134 172 224 282 346 408
#     4   9  18  38  62  99 130 169 228 290 342 404
#
# _framework density 23.411017000000001
#
# number of rings (size 3 to 8) (size 9 to 14) (size 15 to 20)
#    0.000    0.923    3.077    5.538    2.154    0.000 
#    0.000    0.000    0.000    3.692    4.000    0.000 
#    0.000    0.000    0.000    0.000    0.000    0.000 
#
# Total GULP energy -145342.425213 kJ/mol
# GULP energy per Si atom -5590.093277 kJ/mol
# Density = 2.335773 g / cm^3
# Si number density = 23.411017 Si / 1000 Ang^3
#
#
#
# Elastic Constant Matrix: (Units=GPa)
#
#
# Indices 1 2 3 4 5 6 
#
# 1 68.7337 2.9617 18.7424 0.0000 -12.0285 0.0000
# 2 2.9617 114.5093 42.9413 0.0000 -19.0296 0.0000
# 3 18.7424 42.9413 83.7880 0.0000 -14.4350 0.0000
# 4 0.0000 0.0000 0.0000 30.5769 0.0000 -10.1918
# 5 -12.0285 -19.0296 -14.4350 0.0000 35.8230 0.0000
# 6 0.0000 0.0000 0.0000 -10.1918 0.0000 26.5779
#
#
#
# Elastic Compliance Matrix: (Units=1/GPa)
#
#
# Indices 1 2 3 4 5 6 
#
# 1 0.016353 0.001796 -0.003727 0.000000 0.004943 0.000000
# 2 0.001796 0.011504 -0.005524 0.000000 0.004488 0.000000
# 3 -0.003727 -0.005524 0.015989 0.000000 0.002257 0.000000
# 4 0.000000 0.000000 0.000000 0.037497 0.000000 0.014379
# 5 0.004943 0.004488 0.002257 0.000000 0.032868 0.000000
# 6 0.000000 0.000000 0.000000 0.014379 0.000000 0.043139
#
#
# Mechanical properties :
#
#
# Convention : Reuss Voigt Hill
#
# Bulk Modulus (GPa) = 34.55997 44.03574 39.29785
# Shear Modulus (GPa) = 27.48689 32.08796 29.78742
#
# Velocity S-wave (km/s) = 3.43023 3.70623 3.57090
# Velocity P-wave (km/s) = 5.52114 6.09635 5.81586
#
# Compressibility (1/GPa) = 0.02893521
#
# Stress axis : x y z
#
# Youngs Moduli (GPa) = 61.15156 86.92677 62.54493
#
# Poissons Ratio (x) = -0.15613 0.23309
# Poissons Ratio (y) = -0.10983 0.34552
# Poissons Ratio (z) = 0.22790 0.48021
#
# Static dielectric constant tensor:
#      x y z
#    x 1.933520 0.000000 -0.072800 
#    y 0.000000 1.880300 0.000000 
#    z -0.072800 0.000000 2.030090 
# 
# From -- ./inp_files/108557.got.cif
#   From: 2010.05.17/outbox.cif.g08.bks.cpg/sg15_55_cif.got.tgz:108557.got - 2010.06.03 18:47:42.
