data_PCOD9272218
_publ_section_title
;
Structure prediction by ZEFSAII (Michael W. Deem and Ramdas Pophale) SiO2 
 PCOD9272218
Probable space group: C 2/C
;
_chemical_formula_sum "Si O2"
_cell_formula_units_Z 44
_cell_length_a 5.185470
_cell_length_b 24.080158
_cell_length_c 15.947419
_cell_angle_alpha 90.000000
_cell_angle_beta 70.021061
_cell_angle_gamma 90.000000
_cell_volume 1871.465177
_symmetry_space_group_name_H-M "C 2/C"
_symmetry_group_IT_number 15
_symmetry_cell_setting 'monoclinic'
loop_
_space_group_symop_operation_xyz
x,y,z
-x,y,1/2-z
-x,-y,-z
x,-y,1/2+z
1/2+x,1/2+y,z
1/2-x,1/2+y,1/2-z
1/2-x,1/2-y,-z
1/2+x,1/2-y,1/2+z
loop_
_atom_site_type_symbol
_atom_site_label
_atom_site_fract_x
_atom_site_fract_y
_atom_site_fract_z
Si Si1 0.246216 0.218430 0.345445
Si Si2 0.000000 0.139626 0.250000
Si Si3 0.166390 0.568622 0.403509
Si Si4 0.302776 0.342713 0.351237
Si Si5 0.895673 0.875142 0.518675
Si Si6 0.681950 0.043382 0.811345
O O1 0.500000 0.215897 0.250000
O O2 0.173692 0.281625 0.373758
O O3 0.256005 0.180084 0.426334
O O4 0.018313 0.183117 0.322926
O O5 0.756671 0.098640 0.305135
O O6 0.373501 0.594748 0.449830
O O7 0.175165 0.503623 0.382816
O O8 0.856374 0.582804 0.457809
O O9 0.500000 0.336898 0.250000
O O10 0.471107 0.358121 0.416077
O O11 0.110205 0.395058 0.352283
O O12 0.500000 0.029447 0.750000
O O13 0.000000 0.045922 0.750000
#
# Coordination Sequence:
#
# PCOD9272218 Si02
#       6
#     8   4   8   8   8   8
#     4  10  20  40  66  96 132 172 221 273 333 390
#     4  10  20  36  66 100 124 170 212 280 332 388
#     4  11  23  40  71  98 134 165 222 279 331 382
#     4  10  25  45  65  92 138 186 218 269 332 399
#     4  11  24  43  67 104 131 171 227 277 324 390
#     4  11  24  42  68  99 133 176 220 269 330 401
#
# _framework density 23.510992999999999
#
# number of rings (size 3 to 8) (size 9 to 14) (size 15 to 20)
#    0.000    1.455    2.727    1.636    3.818    4.364 
#    3.273    2.727    0.000    0.000    0.000    0.000 
#    0.000    0.000    0.000    0.000    0.000    0.000 
#
# Total GULP energy -122712.653703 kJ/mol
# GULP energy per Si atom -5577.847896 kJ/mol
# Density = 2.345748 g / cm^3
# Si number density = 23.510993 Si / 1000 Ang^3
#
#
#
# Elastic Constant Matrix: (Units=GPa)
#
#
# Indices 1 2 3 4 5 6 
#
# 1 99.3107 28.4177 26.8983 0.0000 8.7725 0.0000
# 2 28.4177 196.8009 43.1050 0.0000 8.7088 0.0000
# 3 26.8983 43.1050 109.7492 0.0000 20.8227 0.0000
# 4 0.0000 0.0000 0.0000 5.9719 0.0000 -1.5326
# 5 8.7725 8.7088 20.8227 0.0000 20.8535 0.0000
# 6 0.0000 0.0000 0.0000 -1.5326 0.0000 8.1223
#
#
#
# Elastic Compliance Matrix: (Units=1/GPa)
#
#
# Indices 1 2 3 4 5 6 
#
# 1 0.011090 -0.001094 -0.001838 0.000000 -0.002373 0.000000
# 2 -0.001094 0.005668 -0.001969 0.000000 0.000060 0.000000
# 3 -0.001838 -0.001969 0.012378 0.000000 -0.010764 0.000000
# 4 0.000000 0.000000 0.000000 0.175974 0.000000 0.033204
# 5 -0.002373 0.000060 -0.010764 0.000000 0.059675 0.000000
# 6 0.000000 0.000000 0.000000 0.033204 0.000000 0.129383
#
#
# Mechanical properties :
#
#
# Convention : Reuss Voigt Hill
#
# Bulk Modulus (GPa) = 51.72468 66.96697 59.34583
# Shear Modulus (GPa) = 12.18281 27.48551 19.83416
#
# Velocity S-wave (km/s) = 2.27882 3.42285 2.90765
# Velocity P-wave (km/s) = 5.38256 6.64577 6.04724
#
# Compressibility (1/GPa) = 0.01933313
#
# Stress axis : x y z
#
# Youngs Moduli (GPa) = 90.17236 176.43143 80.78889
#
# Poissons Ratio (x) = 0.19297 0.14851
# Poissons Ratio (y) = 0.09862 0.15910
# Poissons Ratio (z) = 0.16576 0.34746
#
# Static dielectric constant tensor:
#      x y z
#    x 1.883300 0.000000 0.001050 
#    y 0.000000 1.906970 0.000000 
#    z 0.001050 0.000000 2.019560 
# 
# From -- ./inp_files/129371.got.cif
#   From: 2010.05.17/outbox.cif.g08.bks.cpg/sg15_65_cif.got.tgz:129371.got - 2010.06.03 18:47:42.
