data_PCOD9272378
_publ_section_title
;
Structure prediction by ZEFSAII (Michael W. Deem and Ramdas Pophale) SiO2 
 PCOD9272378
Probable space group: C 2/C
;
_chemical_formula_sum "Si O2"
_cell_formula_units_Z 52
_cell_length_a 18.406549
_cell_length_b 16.236167
_cell_length_c 24.409808
_cell_angle_alpha 90.000000
_cell_angle_beta 24.576649
_cell_angle_gamma 90.000000
_cell_volume 3034.029593
_symmetry_space_group_name_H-M "C 2/C"
_symmetry_group_IT_number 15
_symmetry_cell_setting 'monoclinic'
loop_
_space_group_symop_operation_xyz
x,y,z
-x,y,1/2-z
-x,-y,-z
x,-y,1/2+z
1/2+x,1/2+y,z
1/2-x,1/2+y,1/2-z
1/2-x,1/2-y,-z
1/2+x,1/2-y,1/2+z
loop_
_atom_site_type_symbol
_atom_site_label
_atom_site_fract_x
_atom_site_fract_y
_atom_site_fract_z
Si Si1 0.998357 0.629596 0.969029
Si Si2 0.916032 0.411301 0.215236
Si Si3 0.000000 0.054355 0.250000
Si Si4 0.223948 0.990555 0.191612
Si Si5 0.929292 0.179580 0.504393
Si Si6 0.279453 0.653623 0.489593
Si Si7 0.163757 0.039533 0.357015
O O1 0.851225 0.568051 0.092263
O O2 0.946105 0.724609 0.007177
O O3 0.029935 0.611391 0.883506
O O4 0.171354 0.595460 0.880518
O O5 0.748549 0.355976 0.346412
O O6 0.839307 0.504199 0.264592
O O7 0.092807 0.391471 0.127208
O O8 0.129247 0.112372 0.125760
O O9 0.087283 0.998252 0.236611
O O10 0.160505 0.006052 0.296980
O O11 0.899499 0.154978 0.461156
O O12 0.111194 0.134904 0.395163
O O13 0.250000 0.750000 0.500000
O O14 0.000000 0.000000 0.500000
#
# Coordination Sequence:
#
# PCOD9272378 Si02
#       7
#     8   8   4   8   8   8   8
#     4  10  21  34  54  81 107 149 192 233 278 335
#     4  10  21  35  49  78 115 144 181 226 285 342
#     4  12  22  36  54  80 114 158 184 224 284 342
#     4  10  20  37  54  77 116 148 192 231 281 338
#     4  11  21  34  56  81 110 147 187 233 282 337
#     4  12  23  31  49  83 117 145 179 226 285 341
#     4   9  20  37  55  78 108 148 191 230 278 337
#
# _framework density 17.138922999999998
#
# number of rings (size 3 to 8) (size 9 to 14) (size 15 to 20)
#    0.000    1.538    4.615    0.462    6.462    0.000 
#    0.000    0.000    0.000    0.000   12.000    6.462 
#    0.000    0.000    0.000    0.000    0.000    0.000 
#
# Total GULP energy -144768.668697 kJ/mol
# GULP energy per Si atom -5568.025719 kJ/mol
# Density = 1.709991 g / cm^3
# Si number density = 17.138923 Si / 1000 Ang^3
#
#
#
# Elastic Constant Matrix: (Units=GPa)
#
#
# Indices 1 2 3 4 5 6 
#
# 1 50.0500 30.6825 23.1076 -0.0051 -0.5631 -0.0010
# 2 30.6825 88.7248 33.2250 0.0049 -17.2394 0.0048
# 3 23.1076 33.2250 83.6379 -0.0136 8.6959 0.0008
# 4 -0.0051 0.0049 -0.0136 20.8089 0.0044 -6.5705
# 5 -0.5631 -17.2394 8.6959 0.0044 38.2139 0.0024
# 6 -0.0010 0.0048 0.0008 -6.5705 0.0024 22.1871
#
#
#
# Elastic Compliance Matrix: (Units=1/GPa)
#
#
# Indices 1 2 3 4 5 6 
#
# 1 0.026829 -0.008318 -0.003850 0.000008 -0.002481 0.000006
# 2 -0.008318 0.018192 -0.005909 -0.000015 0.009429 -0.000010
# 3 -0.003850 -0.005909 0.016030 0.000014 -0.006370 0.000005
# 4 0.000008 -0.000015 0.000014 0.053013 -0.000017 0.015699
# 5 -0.002481 0.009429 -0.006370 -0.000017 0.031835 -0.000010
# 6 0.000006 -0.000010 0.000005 0.015699 -0.000010 0.049720
#
#
# Mechanical properties :
#
#
# Convention : Reuss Voigt Hill
#
# Bulk Modulus (GPa) = 40.16650 44.04921 42.10785
# Shear Modulus (GPa) = 20.82696 25.26850 23.04773
#
# Velocity S-wave (km/s) = 3.48973 3.84387 3.67107
# Velocity P-wave (km/s) = 6.30273 6.74222 6.52617
#
# Compressibility (1/GPa) = 0.02489637
#
# Stress axis : x y z
#
# Youngs Moduli (GPa) = 37.27305 54.96833 62.38442
#
# Poissons Ratio (x) = 0.45724 0.24018
# Poissons Ratio (y) = 0.31005 0.36863
# Poissons Ratio (z) = 0.14350 0.32481
#
# Static dielectric constant tensor:
#      x y z
#    x 1.646660 0.000000 -0.025830 
#    y 0.000000 1.606630 0.000010 
#    z -0.025830 0.000010 1.621170 
# 
# From -- ./inp_files/113635.got.cif
#   From: 2010.05.17/outbox.cif.g08.bks.cpg/sg15_57_cif.got.tgz:113635.got - 2010.06.03 18:47:42.
