data_PCOD9272740
_publ_section_title
;
Structure prediction by ZEFSAII (Michael W. Deem and Ramdas Pophale) SiO2 
 PCOD9272740
Probable space group: C 2/C
;
_chemical_formula_sum "Si O2"
_cell_formula_units_Z 56
_cell_length_a 14.393774
_cell_length_b 6.578062
_cell_length_c 30.982940
_cell_angle_alpha 90.000000
_cell_angle_beta 73.790172
_cell_angle_gamma 90.000000
_cell_volume 2816.940614
_symmetry_space_group_name_H-M "C 2/C"
_symmetry_group_IT_number 15
_symmetry_cell_setting 'monoclinic'
loop_
_space_group_symop_operation_xyz
x,y,z
-x,y,1/2-z
-x,-y,-z
x,-y,1/2+z
1/2+x,1/2+y,z
1/2-x,1/2+y,1/2-z
1/2-x,1/2-y,-z
1/2+x,1/2-y,1/2+z
loop_
_atom_site_type_symbol
_atom_site_label
_atom_site_fract_x
_atom_site_fract_y
_atom_site_fract_z
Si Si1 0.712679 0.446962 0.642174
Si Si2 0.493013 0.508189 0.699911
Si Si3 0.132487 0.735360 0.842605
Si Si4 0.854524 0.890329 0.098833
Si Si5 0.177479 0.208628 0.567817
Si Si6 0.498842 0.140351 0.137765
Si Si7 0.690161 0.443044 0.490284
O O1 0.598364 0.441483 0.667073
O O2 0.773442 0.585848 0.668717
O O3 0.759380 0.225788 0.629429
O O4 0.730619 0.556640 0.593784
O O5 0.500000 0.491483 0.750000
O O6 0.402367 0.380446 0.692256
O O7 0.482166 0.740407 0.684650
O O8 0.042494 0.582957 0.858021
O O9 0.143009 0.884477 0.881980
O O10 0.864678 0.881801 0.046125
O O11 0.940157 0.768105 0.110047
O O12 0.107099 0.332565 0.608300
O O13 0.238500 0.381701 0.536622
O O14 0.135191 0.056477 0.536615
O O15 0.750000 0.250000 0.500000
#
# Coordination Sequence:
#
# PCOD9272740 Si02
#       7
#     8   8   8   8   8   8   8
#     4  10  20  39  63  85 121 164 200 249 306 369
#     4  10  23  42  63  96 121 151 205 252 308 375
#     4  10  21  40  61  90 121 163 199 245 311 371
#     4  10  20  37  60  85 118 159 209 245 299 366
#     4  10  21  35  56  87 114 160 204 247 309 353
#     4   9  22  39  61  84 120 157 198 248 307 376
#     4  11  21  33  57  85 118 156 209 254 295 358
#
# _framework density 19.879725000000001
#
# number of rings (size 3 to 8) (size 9 to 14) (size 15 to 20)
#    0.000    2.000    2.857    0.000    2.000    2.286 
#    7.714    1.429    0.000    0.000    0.000    0.000 
#    0.000    0.000    0.000    0.000    0.000    0.000 
#
# Total GULP energy -155940.612245 kJ/mol
# GULP energy per Si atom -5569.307580 kJ/mol
# Density = 1.983448 g / cm^3
# Si number density = 19.879725 Si / 1000 Ang^3
#
#
#
# Elastic Constant Matrix: (Units=GPa)
#
#
# Indices 1 2 3 4 5 6 
#
# 1 35.3425 14.3199 9.3268 0.0000 13.3944 0.0000
# 2 14.3199 83.1764 16.4859 0.0001 -1.8381 0.0001
# 3 9.3268 16.4859 87.1139 0.0000 27.1632 0.0001
# 4 0.0000 0.0001 0.0000 11.3482 0.0000 14.4413
# 5 13.3944 -1.8381 27.1632 0.0000 24.6902 0.0000
# 6 0.0000 0.0001 0.0001 14.4413 0.0000 33.9512
#
#
#
# Elastic Compliance Matrix: (Units=1/GPa)
#
#
# Indices 1 2 3 4 5 6 
#
# 1 0.042044 -0.009312 0.006985 0.000000 -0.031187 0.000000
# 2 -0.009312 0.015040 -0.005744 0.000000 0.012491 0.000000
# 3 0.006985 -0.005744 0.019991 0.000000 -0.026211 0.000000
# 4 0.000000 0.000000 0.000000 0.192103 -0.000001 -0.081712
# 5 -0.031187 0.012491 -0.026211 -0.000001 0.087187 0.000000
# 6 0.000000 0.000000 0.000000 -0.081712 0.000000 0.064211
#
#
# Mechanical properties :
#
#
# Convention : Reuss Voigt Hill
#
# Bulk Modulus (GPa) = 16.41135 31.76644 24.08889
# Shear Modulus (GPa) = 10.94024 25.03126 17.98575
#
# Velocity S-wave (km/s) = 2.34844 3.55228 3.01113
# Velocity P-wave (km/s) = 3.95307 5.73053 4.92269
#
# Compressibility (1/GPa) = 0.06093345
#
# Stress axis : x y z
#
# Youngs Moduli (GPa) = 23.78480 66.48758 50.02192
#
# Poissons Ratio (x) = 0.61914 -0.34942
# Poissons Ratio (y) = 0.22149 0.28734
# Poissons Ratio (z) = -0.16615 0.38192
#
# Static dielectric constant tensor:
#      x y z
#    x 1.750930 0.000000 0.022780 
#    y 0.000000 1.732320 0.000000 
#    z 0.022780 0.000000 1.714700 
# 
# From -- ./inp_files/312338.got.cif
#   From: 2010.05.17/outbox.cif.g08.bks.cpg/sg15_157_cif.got.tgz:312338.got - 2010.06.03 18:47:42.
