data_PCOD9272040
_publ_section_title
;
Structure prediction by ZEFSAII (Michael W. Deem and Ramdas Pophale) SiO2 
 PCOD9272040
Probable space group: C 2/C
;
_chemical_formula_sum "Si O2"
_cell_formula_units_Z 40
_cell_length_a 11.626135
_cell_length_b 13.666309
_cell_length_c 14.363558
_cell_angle_alpha 90.000000
_cell_angle_beta 62.687067
_cell_angle_gamma 90.000000
_cell_volume 2027.742248
_symmetry_space_group_name_H-M "C 2/C"
_symmetry_group_IT_number 15
_symmetry_cell_setting 'monoclinic'
loop_
_space_group_symop_operation_xyz
x,y,z
-x,y,1/2-z
-x,-y,-z
x,-y,1/2+z
1/2+x,1/2+y,z
1/2-x,1/2+y,1/2-z
1/2-x,1/2-y,-z
1/2+x,1/2-y,1/2+z
loop_
_atom_site_type_symbol
_atom_site_label
_atom_site_fract_x
_atom_site_fract_y
_atom_site_fract_z
Si Si1 0.871910 0.378016 0.232266
Si Si2 0.071007 0.558703 0.391910
Si Si3 0.608469 0.279353 0.938462
Si Si4 0.670113 0.732655 0.935975
Si Si5 0.609373 0.188185 0.142430
O O1 0.841592 0.483543 0.198408
O O2 0.897960 0.309026 0.133021
O O3 0.755904 0.330143 0.333441
O O4 0.000000 0.379701 0.250000
O O5 0.134797 0.659828 0.404971
O O6 0.000000 0.500000 0.500000
O O7 0.955066 0.588089 0.365960
O O8 0.748843 0.326322 0.867650
O O9 0.464281 0.322624 0.988404
O O10 0.617755 0.248137 0.043431
O O11 0.750000 0.750000 0.000000
O O12 0.500000 0.234508 0.250000
#
# Coordination Sequence:
#
# PCOD9272040 Si02
#       5
#     8   8   8   8   8
#     4  12  22  39  69  94 134 180 225 277 346 411
#     4  11  21  41  68  98 126 177 236 276 337 427
#     4  10  20  37  62  98 127 167 220 276 342 401
#     4  11  22  40  67 101 138 177 224 285 348 412
#     4  10  20  36  63  92 125 165 218 277 331 404
#
# _framework density 19.726372999999999
#
# number of rings (size 3 to 8) (size 9 to 14) (size 15 to 20)
#    0.000    1.200    6.000    3.000    0.000    0.000 
#    0.000    0.000    4.400    7.200    0.000    0.000 
#    0.000    0.000    0.000    0.000    0.000    0.000 
#
# Total GULP energy -111365.116645 kJ/mol
# GULP energy per Si atom -5568.255832 kJ/mol
# Density = 1.968148 g / cm^3
# Si number density = 19.726373 Si / 1000 Ang^3
#
#
#
# Elastic Constant Matrix: (Units=GPa)
#
#
# Indices 1 2 3 4 5 6 
#
# 1 136.2299 37.1381 54.7019 0.0000 -16.2286 0.0000
# 2 37.1381 82.3021 40.0084 0.0000 -6.3167 0.0000
# 3 54.7019 40.0084 136.2360 0.0000 -15.4684 0.0000
# 4 0.0000 0.0000 0.0000 9.8115 0.0000 19.5043
# 5 -16.2286 -6.3167 -15.4684 0.0000 40.5994 0.0000
# 6 0.0000 0.0000 0.0000 19.5043 0.0000 13.8880
#
#
#
# Elastic Compliance Matrix: (Units=1/GPa)
#
#
# Indices 1 2 3 4 5 6 
#
# 1 0.009465 -0.002769 -0.002724 0.000000 0.002315 0.000000
# 2 -0.002769 0.015000 -0.003297 0.000000 -0.000029 0.000000
# 3 -0.002724 -0.003297 0.009637 0.000000 0.002070 0.000000
# 4 0.000000 0.000000 0.000000 -0.056882 0.000000 0.079885
# 5 0.002315 -0.000029 0.002070 0.000000 0.026340 0.000000
# 6 0.000000 0.000000 0.000000 0.079885 0.000000 -0.040185
#
#
# Mechanical properties :
#
#
# Convention : Reuss Voigt Hill
#
# Bulk Modulus (GPa) = 60.52382 68.71831 64.62106
# Shear Modulus (GPa) = -369.36724 27.72108 -170.82308
#
# Velocity S-wave (km/s) = -13.69861 3.75277 -9.31581
# Velocity P-wave (km/s) = 14.81399 7.32729 9.10399
#
# Compressibility (1/GPa) = 0.01652242
#
# Stress axis : x y z
#
# Youngs Moduli (GPa) = 105.65106 66.66611 103.76386
#
# Poissons Ratio (x) = 0.18460 0.28270
# Poissons Ratio (y) = 0.29255 0.34206
# Poissons Ratio (z) = 0.28785 0.21977
#
# Static dielectric constant tensor:
#      x y z
#    x 1.726680 0.000000 -0.030310 
#    y 0.000000 1.708200 0.000000 
#    z -0.030310 0.000000 1.742170 
# 
# From -- ./inp_files/143123.got.cif
#   From: 2010.05.17/outbox.cif.g08.bks.cpg/sg15_72_cif.got.tgz:143123.got - 2010.06.03 18:47:42.
