data_PCOD9272093
_publ_section_title
;
Structure prediction by ZEFSAII (Michael W. Deem and Ramdas Pophale) SiO2 
 PCOD9272093
Probable space group: C 2/C
;
_chemical_formula_sum "Si O2"
_cell_formula_units_Z 52
_cell_length_a 11.015433
_cell_length_b 15.339598
_cell_length_c 15.149179
_cell_angle_alpha 90.000000
_cell_angle_beta 117.348296
_cell_angle_gamma 90.000000
_cell_volume 2273.684692
_symmetry_space_group_name_H-M "C 2/C"
_symmetry_group_IT_number 15
_symmetry_cell_setting 'monoclinic'
loop_
_space_group_symop_operation_xyz
x,y,z
-x,y,1/2-z
-x,-y,-z
x,-y,1/2+z
1/2+x,1/2+y,z
1/2-x,1/2+y,1/2-z
1/2-x,1/2-y,-z
1/2+x,1/2-y,1/2+z
loop_
_atom_site_type_symbol
_atom_site_label
_atom_site_fract_x
_atom_site_fract_y
_atom_site_fract_z
Si Si1 0.641911 0.049527 0.941356
Si Si2 0.365335 0.578979 0.462752
Si Si3 0.936041 0.027930 0.826267
Si Si4 0.220330 0.340423 0.194352
Si Si5 0.991873 0.621778 0.031599
Si Si6 0.500000 0.169436 0.750000
Si Si7 0.390300 0.202133 0.151473
O O1 0.632827 0.105420 0.028321
O O2 0.581884 0.108616 0.845137
O O3 0.785715 0.009151 0.965287
O O4 0.545195 0.965280 0.926305
O O5 0.472346 0.589043 0.577993
O O6 0.419408 0.557599 0.382646
O O7 0.250385 0.652633 0.417932
O O8 0.792100 0.076289 0.762268
O O9 0.000000 0.014363 0.750000
O O10 0.123263 0.370525 0.082169
O O11 0.120406 0.289550 0.229558
O O12 0.341083 0.284303 0.190998
O O13 0.971862 0.704755 0.086831
O O14 0.500000 0.153109 0.250000
#
# Coordination Sequence:
#
# PCOD9272093 Si02
#       7
#     8   8   8   8   8   4   8
#     4   9  17  34  58  89 116 147 196 252 304 359
#     4  10  23  39  61  95 131 160 212 267 310 373
#     4  11  22  39  65  93 124 170 207 260 320 373
#     4  11  22  40  61  87 124 166 208 251 316 385
#     4   9  20  33  61  91 117 153 197 262 305 359
#     4  10  20  36  64  82 118 160 206 256 304 368
#     4  11  24  38  60  91 125 164 203 260 307 372
#
# _framework density 22.870367000000002
#
# number of rings (size 3 to 8) (size 9 to 14) (size 15 to 20)
#    0.000    1.846    1.538    2.769    4.308    3.692 
#    1.385    0.000    0.000    2.769    0.000    0.000 
#    0.000    0.000    0.000    0.000    0.000    0.000 
#
# Total GULP energy -144968.932099 kJ/mol
# GULP energy per Si atom -5575.728158 kJ/mol
# Density = 2.281831 g / cm^3
# Si number density = 22.870367 Si / 1000 Ang^3
#
#
#
# Elastic Constant Matrix: (Units=GPa)
#
#
# Indices 1 2 3 4 5 6 
#
# 1 94.5803 8.9833 15.6306 0.0000 -38.7215 0.0000
# 2 8.9833 31.4332 6.0822 0.0000 -17.9622 0.0000
# 3 15.6306 6.0822 108.9564 0.0000 -14.3139 0.0000
# 4 0.0000 0.0000 0.0000 10.1544 0.0000 -1.9308
# 5 -38.7215 -17.9622 -14.3139 0.0000 45.4393 0.0000
# 6 0.0000 0.0000 0.0000 -1.9308 0.0000 23.4697
#
#
#
# Elastic Compliance Matrix: (Units=1/GPa)
#
#
# Indices 1 2 3 4 5 6 
#
# 1 0.016717 0.004354 -0.000567 0.000000 0.015788 0.000000
# 2 0.004354 0.042234 -0.000315 0.000000 0.020306 0.000000
# 3 -0.000567 -0.000315 0.009594 0.000000 0.002415 0.000000
# 4 0.000000 0.000000 0.000000 0.100045 0.000000 0.008230
# 5 0.015788 0.020306 0.002415 0.000000 0.044249 0.000000
# 6 0.000000 0.000000 0.000000 0.008230 0.000000 0.043285
#
#
# Mechanical properties :
#
#
# Convention : Reuss Voigt Hill
#
# Bulk Modulus (GPa) = 13.24685 32.92913 23.08799
# Shear Modulus (GPa) = 18.22542 29.43093 23.82818
#
# Velocity S-wave (km/s) = 2.82601 3.59117 3.23132
# Velocity P-wave (km/s) = 4.05625 5.62359 4.90295
#
# Compressibility (1/GPa) = 0.07548964
#
# Stress axis : x y z
#
# Youngs Moduli (GPa) = 59.81989 23.67771 104.23054
#
# Poissons Ratio (x) = -0.10309 0.05911
# Poissons Ratio (y) = -0.26046 0.03278
# Poissons Ratio (z) = 0.03392 0.00745
#
# Static dielectric constant tensor:
#      x y z
#    x 1.936930 0.000000 -0.050360 
#    y 0.000000 1.896790 0.000000 
#    z -0.050360 0.000000 1.863640 
# 
# From -- ./inp_files/145810.got.cif
#   From: 2010.05.17/outbox.cif.g08.bks.cpg/sg15_73_cif.got.tgz:145810.got - 2010.06.03 18:47:42.
