data_PCOD9272401
_publ_section_title
;
Structure prediction by ZEFSAII (Michael W. Deem and Ramdas Pophale) SiO2 
 PCOD9272401
Probable space group: C 2/C
;
_chemical_formula_sum "Si O2"
_cell_formula_units_Z 40
_cell_length_a 14.276903
_cell_length_b 17.750285
_cell_length_c 14.054068
_cell_angle_alpha 90.000000
_cell_angle_beta 29.537931
_cell_angle_gamma 90.000000
_cell_volume 1755.852366
_symmetry_space_group_name_H-M "C 2/C"
_symmetry_group_IT_number 15
_symmetry_cell_setting 'monoclinic'
loop_
_space_group_symop_operation_xyz
x,y,z
-x,y,1/2-z
-x,-y,-z
x,-y,1/2+z
1/2+x,1/2+y,z
1/2-x,1/2+y,1/2-z
1/2-x,1/2-y,-z
1/2+x,1/2-y,1/2+z
loop_
_atom_site_type_symbol
_atom_site_label
_atom_site_fract_x
_atom_site_fract_y
_atom_site_fract_z
Si Si1 0.827085 0.197486 0.292735
Si Si2 0.774905 0.025137 0.058129
Si Si3 0.281842 0.532245 0.824541
Si Si4 0.421829 0.894040 0.603533
Si Si5 0.259788 0.354426 0.067861
O O1 0.668074 0.182124 0.355271
O O2 0.857528 0.285745 0.285206
O O3 0.770172 0.160898 0.444985
O O4 0.023731 0.158640 0.090343
O O5 0.770057 0.034571 0.949186
O O6 0.995201 0.032360 0.895509
O O7 0.649849 0.082831 0.228393
O O8 0.703878 0.939537 0.138433
O O9 0.178878 0.457866 0.874014
O O10 0.148516 0.598498 0.901799
#
# Coordination Sequence:
#
# PCOD9272401 Si02
#       5
#     8   8   8   8   8
#     4  10  20  37  55  84 124 158 197 232 299 370
#     4  11  20  39  59  85 126 160 195 251 307 348
#     4  10  21  35  56  88 123 149 200 250 290 355
#     4  11  21  35  59  91 120 158 203 249 294 359
#     4  10  20  37  55  81 126 163 183 243 302 356
#
# _framework density 22.780957999999998
#
# number of rings (size 3 to 8) (size 9 to 14) (size 15 to 20)
#    0.000    1.600    4.000    2.400    0.000    3.200 
#    7.200    0.000    0.000    0.000    0.000   12.600 
#    0.000    0.000    0.000    0.000    0.000    0.000 
#
# Total GULP energy -111944.764967 kJ/mol
# GULP energy per Si atom -5597.238248 kJ/mol
# Density = 2.272911 g / cm^3
# Si number density = 22.780958 Si / 1000 Ang^3
#
#
#
# Elastic Constant Matrix: (Units=GPa)
#
#
# Indices 1 2 3 4 5 6 
#
# 1 78.0263 -0.2927 24.7334 0.0026 -9.9718 0.0034
# 2 -0.2927 49.3540 5.5407 -0.0184 -3.1582 0.0183
# 3 24.7334 5.5407 65.6676 0.0054 -7.6349 0.0080
# 4 0.0026 -0.0184 0.0054 21.5385 0.0006 0.2413
# 5 -9.9718 -3.1582 -7.6349 0.0006 51.3923 -0.0024
# 6 0.0034 0.0183 0.0080 0.2413 -0.0024 38.4384
#
#
#
# Elastic Compliance Matrix: (Units=1/GPa)
#
#
# Indices 1 2 3 4 5 6 
#
# 1 0.014802 0.000830 -0.005398 0.000000 0.002121 0.000000
# 2 0.000830 0.020555 -0.001914 0.000018 0.001140 -0.000010
# 3 -0.005398 -0.001914 0.017591 -0.000005 0.001448 -0.000002
# 4 0.000000 0.000018 -0.000005 0.046432 0.000000 -0.000291
# 5 0.002121 0.001140 0.001448 0.000000 0.020155 0.000000
# 6 0.000000 -0.000010 -0.000002 -0.000291 0.000000 0.026018
#
#
# Mechanical properties :
#
#
# Convention : Reuss Voigt Hill
#
# Bulk Modulus (GPa) = 25.01157 28.11229 26.56193
# Shear Modulus (GPa) = 29.09601 33.14493 31.12047
#
# Velocity S-wave (km/s) = 3.57768 3.81851 3.70005
# Velocity P-wave (km/s) = 5.29806 5.63989 5.47164
#
# Compressibility (1/GPa) = 0.03998149
#
# Stress axis : x y z
#
# Youngs Moduli (GPa) = 67.56035 48.65100 56.84603
#
# Poissons Ratio (x) = -0.04036 0.30687
# Poissons Ratio (y) = -0.05605 0.10882
# Poissons Ratio (z) = 0.36471 0.09313
#
# Static dielectric constant tensor:
#      x y z
#    x 1.878000 -0.000010 -0.020730 
#    y -0.000010 1.847920 0.000030 
#    z -0.020730 0.000030 1.905900 
# 
# From -- ./inp_files/29089.got.cif
#   From: 2010.05.17/outbox.cif.g08.bks.cpg/sg15_15_cif.got.tgz:29089.got - 2010.06.03 18:47:42.
