data_PCOD9272840
_publ_section_title
;
Structure prediction by ZEFSAII (Michael W. Deem and Ramdas Pophale) SiO2 
 PCOD9272840
Probable space group: C 2/C
;
_chemical_formula_sum "Si O2"
_cell_formula_units_Z 60
_cell_length_a 23.748707
_cell_length_b 15.691757
_cell_length_c 14.031189
_cell_angle_alpha 90.000000
_cell_angle_beta 144.253991
_cell_angle_gamma 90.000000
_cell_volume 3054.657102
_symmetry_space_group_name_H-M "C 2/C"
_symmetry_group_IT_number 15
_symmetry_cell_setting 'monoclinic'
loop_
_space_group_symop_operation_xyz
x,y,z
-x,y,1/2-z
-x,-y,-z
x,-y,1/2+z
1/2+x,1/2+y,z
1/2-x,1/2+y,1/2-z
1/2-x,1/2-y,-z
1/2+x,1/2-y,1/2+z
loop_
_atom_site_type_symbol
_atom_site_label
_atom_site_fract_x
_atom_site_fract_y
_atom_site_fract_z
Si Si1 0.465568 0.891576 0.912049
Si Si2 0.662489 0.959127 0.209970
Si Si3 0.500000 0.122315 0.250000
Si Si4 0.389432 0.183420 0.594617
Si Si5 0.211147 0.622711 0.578567
Si Si6 0.760752 0.955374 0.537113
Si Si7 0.889560 0.229862 0.889318
Si Si8 0.553686 0.644466 0.225717
O O1 0.481590 0.924367 0.825762
O O2 0.434335 0.794886 0.874871
O O3 0.384125 0.947580 0.849812
O O4 0.568256 0.901852 0.104043
O O5 0.699510 0.931697 0.159130
O O6 0.742174 0.948750 0.398927
O O7 0.605571 0.163290 0.412457
O O8 0.500000 0.150589 0.750000
O O9 0.315038 0.110162 0.519560
O O10 0.369013 0.219874 0.460535
O O11 0.393091 0.266041 0.670555
O O12 0.239431 0.551856 0.539637
O O13 0.294927 0.688911 0.714811
O O14 0.867888 0.922035 0.702515
O O15 0.971816 0.163998 0.035620
O O16 0.500000 0.617744 0.250000
#
# Coordination Sequence:
#
# PCOD9272840 Si02
#       8
#     8   8   4   8   8   8   8   8
#     4  10  20  37  62  81 121 154 194 248 299 354
#     4  10  20  37  60  92 113 149 195 255 307 341
#     4  10  22  40  52  88 114 154 202 244 298 348
#     4   9  19  34  61  93 117 145 191 258 308 355
#     4  11  24  37  60  86 122 154 199 246 297 360
#     4  12  21  35  63  89 117 156 192 249 304 361
#     4  10  21  39  55  85 120 162 194 238 293 361
#     4   9  20  37  58  84 119 152 196 251 299 351
#
# _framework density 19.642140000000001
#
# number of rings (size 3 to 8) (size 9 to 14) (size 15 to 20)
#    0.000    2.133    1.333    4.400    0.933    3.200 
#    0.000    0.000    1.467    0.000    0.000    0.000 
#    0.000    0.000    0.000    0.000    0.000    0.000 
#
# Total GULP energy -167296.574378 kJ/mol
# GULP energy per Si atom -5576.552479 kJ/mol
# Density = 1.959743 g / cm^3
# Si number density = 19.642140 Si / 1000 Ang^3
#
#
#
# Elastic Constant Matrix: (Units=GPa)
#
#
# Indices 1 2 3 4 5 6 
#
# 1 35.7505 17.8116 26.9981 0.0000 4.9437 0.0000
# 2 17.8116 35.6957 39.8960 0.0000 18.7895 0.0000
# 3 26.9981 39.8960 123.7102 0.0000 13.7539 0.0000
# 4 0.0000 0.0000 0.0000 5.9673 0.0000 2.1696
# 5 4.9437 18.7895 13.7539 0.0000 34.9498 0.0000
# 6 0.0000 0.0000 0.0000 2.1696 0.0000 13.1556
#
#
#
# Elastic Compliance Matrix: (Units=1/GPa)
#
#
# Indices 1 2 3 4 5 6 
#
# 1 0.039000 -0.019356 -0.002941 0.000000 0.006047 0.000000
# 2 -0.019356 0.069614 -0.015027 0.000000 -0.028774 0.000000
# 3 -0.002941 -0.015027 0.013205 0.000000 0.003298 0.000000
# 4 0.000000 0.000000 0.000000 0.178270 0.000000 -0.029401
# 5 0.006047 -0.028774 0.003298 0.000000 0.041928 0.000000
# 6 0.000000 0.000000 0.000000 -0.029401 0.000000 0.080862
#
#
# Mechanical properties :
#
#
# Convention : Reuss Voigt Hill
#
# Bulk Modulus (GPa) = 21.19976 40.50753 30.85364
# Shear Modulus (GPa) = 9.74180 18.17792 13.95986
#
# Velocity S-wave (km/s) = 2.22944 3.04543 2.66881
# Velocity P-wave (km/s) = 4.17656 5.74750 5.02381
#
# Compressibility (1/GPa) = 0.04717035
#
# Stress axis : x y z
#
# Youngs Moduli (GPa) = 25.64083 14.36489 75.73015
#
# Poissons Ratio (x) = 0.27805 0.22275
# Poissons Ratio (y) = 0.49631 1.13800
# Poissons Ratio (z) = 0.07542 0.21586
#
# Static dielectric constant tensor:
#      x y z
#    x 1.697970 0.000000 -0.016250 
#    y 0.000000 1.704450 0.000000 
#    z -0.016250 0.000000 1.713820 
# 
# From -- ./inp_files/178568.got.cif
#   From: 2010.05.17/outbox.cif.g08.bks.cpg/sg15_90_cif.got.tgz:178568.got - 2010.06.03 18:47:42.
