data_PCOD9272159
_publ_section_title
;
Structure prediction by ZEFSAII (Michael W. Deem and Ramdas Pophale) SiO2 
 PCOD9272159
Probable space group: C 2/C
;
_chemical_formula_sum "Si O2"
_cell_formula_units_Z 60
_cell_length_a 8.102338
_cell_length_b 29.139434
_cell_length_c 19.533493
_cell_angle_alpha 90.000000
_cell_angle_beta 41.292858
_cell_angle_gamma 90.000000
_cell_volume 3043.370200
_symmetry_space_group_name_H-M "C 2/C"
_symmetry_group_IT_number 15
_symmetry_cell_setting 'monoclinic'
loop_
_space_group_symop_operation_xyz
x,y,z
-x,y,1/2-z
-x,-y,-z
x,-y,1/2+z
1/2+x,1/2+y,z
1/2-x,1/2+y,1/2-z
1/2-x,1/2-y,-z
1/2+x,1/2-y,1/2+z
loop_
_atom_site_type_symbol
_atom_site_label
_atom_site_fract_x
_atom_site_fract_y
_atom_site_fract_z
Si Si1 0.948200 0.147586 0.476484
Si Si2 0.578258 0.044969 0.805382
Si Si3 0.103196 0.647285 0.795666
Si Si4 0.295968 0.346224 0.752698
Si Si5 0.188634 0.052482 0.253092
Si Si6 0.500000 0.709516 0.750000
Si Si7 0.553098 0.547027 0.023588
Si Si8 0.816185 0.720595 0.413449
O O1 0.649159 0.151874 0.579493
O O2 0.029708 0.096856 0.478045
O O3 0.050152 0.154848 0.367078
O O4 0.092462 0.185026 0.474612
O O5 0.500000 0.039009 0.750000
O O6 0.708362 0.094696 0.765669
O O7 0.348172 0.051626 0.927918
O O8 0.680742 0.996152 0.796239
O O9 0.320638 0.679914 0.756159
O O10 0.000000 0.655148 0.750000
O O11 0.500000 0.341743 0.750000
O O12 0.176072 0.397955 0.788775
O O13 0.077399 0.308474 0.829170
O O14 0.000000 0.057209 0.250000
O O15 0.052114 0.045975 0.367931
O O16 0.671005 0.743156 0.652001
O O17 0.500000 0.500000 0.000000
O O18 0.750000 0.750000 0.500000
#
# Coordination Sequence:
#
# PCOD9272159 Si02
#       8
#     8   8   8   8   8   4   8   8
#     4  10  22  44  67  92 135 171 217 281 334 403
#     4  10  20  37  62  93 128 172 215 263 332 398
#     4  10  24  44  65  98 138 175 221 279 340 405
#     4  10  23  43  66  96 135 175 221 279 341 402
#     4  10  22  38  61  95 134 172 213 271 334 393
#     4  12  26  46  68 100 128 178 234 272 346 398
#     4  10  20  36  64  96 122 170 221 259 330 402
#     4  12  26  44  67 100 125 170 236 278 335 399
#
# _framework density 19.714984999999999
#
# number of rings (size 3 to 8) (size 9 to 14) (size 15 to 20)
#    0.000    1.600    2.667    0.800    4.667    2.667 
#    0.000    0.000    0.000    0.000    0.000    0.000 
#    0.000    0.000    0.000    0.000    0.000    0.000 
#
# Total GULP energy -167067.707106 kJ/mol
# GULP energy per Si atom -5568.923570 kJ/mol
# Density = 1.967011 g / cm^3
# Si number density = 19.714985 Si / 1000 Ang^3
#
#
#
# Elastic Constant Matrix: (Units=GPa)
#
#
# Indices 1 2 3 4 5 6 
#
# 1 51.4791 58.3772 5.9021 0.0000 0.5681 0.0000
# 2 58.3772 164.7409 40.5495 0.0000 3.4984 0.0000
# 3 5.9021 40.5495 65.2540 0.0000 -1.3646 0.0000
# 4 0.0000 0.0000 0.0000 40.1104 0.0001 -6.3647
# 5 0.5681 3.4984 -1.3646 0.0001 24.1649 0.0000
# 6 0.0000 0.0000 0.0000 -6.3647 0.0000 43.2915
#
#
#
# Elastic Compliance Matrix: (Units=1/GPa)
#
#
# Indices 1 2 3 4 5 6 
#
# 1 0.033952 -0.013356 0.005259 0.000000 0.001432 0.000000
# 2 -0.013356 0.012461 -0.006574 0.000000 -0.001861 0.000000
# 3 0.005259 -0.006574 0.018974 0.000000 0.001900 0.000000
# 4 0.000000 0.000000 0.000000 0.025527 0.000000 0.003753
# 5 0.001432 -0.001861 0.001900 0.000000 0.041725 0.000000
# 6 0.000000 0.000000 0.000000 0.003753 0.000000 0.023651
#
#
# Mechanical properties :
#
#
# Convention : Reuss Voigt Hill
#
# Bulk Modulus (GPa) = 27.74383 54.57015 41.15699
# Shear Modulus (GPa) = 25.29752 33.28971 29.29362
#
# Velocity S-wave (km/s) = 3.58601 4.11365 3.85886
# Velocity P-wave (km/s) = 5.59008 7.09242 6.38559
#
# Compressibility (1/GPa) = 0.03604405
#
# Stress axis : x y z
#
# Youngs Moduli (GPa) = 29.45299 80.25278 52.70366
#
# Poissons Ratio (x) = 1.07186 -0.27715
# Poissons Ratio (y) = 0.39338 0.34648
# Poissons Ratio (z) = -0.15488 0.52759
#
# Static dielectric constant tensor:
#      x y z
#    x 1.654110 0.000000 -0.029450 
#    y 0.000000 1.794260 0.000000 
#    z -0.029450 0.000000 1.724070 
# 
# From -- ./inp_files/234765.got.cif
#   From: 2010.05.17/outbox.cif.g08.bks.cpg/sg15_118_cif.got.tgz:234765.got - 2010.06.03 18:47:42.
