data_PCOD9272787
_publ_section_title
;
Structure prediction by ZEFSAII (Michael W. Deem and Ramdas Pophale) SiO2 
 PCOD9272787
Probable space group: C 2/C
;
_chemical_formula_sum "Si O2"
_cell_formula_units_Z 56
_cell_length_a 25.984754
_cell_length_b 12.045902
_cell_length_c 26.152096
_cell_angle_alpha 90.000000
_cell_angle_beta 160.758651
_cell_angle_gamma 90.000000
_cell_volume 2697.635341
_symmetry_space_group_name_H-M "C 2/C"
_symmetry_group_IT_number 15
_symmetry_cell_setting 'monoclinic'
loop_
_space_group_symop_operation_xyz
x,y,z
-x,y,1/2-z
-x,-y,-z
x,-y,1/2+z
1/2+x,1/2+y,z
1/2-x,1/2+y,1/2-z
1/2-x,1/2-y,-z
1/2+x,1/2-y,1/2+z
loop_
_atom_site_type_symbol
_atom_site_label
_atom_site_fract_x
_atom_site_fract_y
_atom_site_fract_z
Si Si1 0.664421 0.181621 0.603465
Si Si2 0.287646 0.871820 0.011743
Si Si3 0.170994 0.050377 0.666655
Si Si4 0.649529 0.083360 0.823681
Si Si5 0.712015 0.320945 0.835436
Si Si6 0.476257 0.256561 0.528357
Si Si7 0.641130 0.899928 0.730162
O O1 0.785423 0.088145 0.735749
O O2 0.571588 0.215142 0.568649
O O3 0.536329 0.135979 0.444933
O O4 0.754185 0.289665 0.668390
O O5 0.271243 0.944571 0.047421
O O6 0.468914 0.883200 0.165335
O O7 0.250000 0.750000 0.000000
O O8 0.192086 0.888690 0.869513
O O9 0.153831 0.161802 0.617120
O O10 0.296455 0.967411 0.760776
O O11 0.000000 0.000000 0.500000
O O12 0.720851 0.194151 0.865319
O O13 0.660159 0.981764 0.795302
O O14 0.581157 0.319859 0.668885
O O15 0.879937 0.340217 0.966354
#
# Coordination Sequence:
#
# PCOD9272787 Si02
#       7
#     8   8   8   8   8   8   8
#     4  12  24  41  60  92 137 180 217 273 313 383
#     4   9  20  37  60  90 123 154 206 275 335 382
#     4  12  24  39  58  90 133 177 220 267 310 390
#     4  10  20  37  60  88 120 162 209 267 324 392
#     4  11  20  33  59  89 128 168 198 251 332 399
#     4  12  20  35  56  89 131 170 204 252 323 379
#     4  12  23  41  65  89 130 179 224 267 330 394
#
# _framework density 20.758921000000001
#
# number of rings (size 3 to 8) (size 9 to 14) (size 15 to 20)
#    0.000    0.857    7.143    0.429    0.000    1.143 
#    0.000    0.000    0.000    3.429    0.000    0.000 
#    0.000    0.000    0.000    0.000    0.000    0.000 
#
# Total GULP energy -156383.572000 kJ/mol
# GULP energy per Si atom -5585.127571 kJ/mol
# Density = 2.071167 g / cm^3
# Si number density = 20.758921 Si / 1000 Ang^3
#
#
#
# Elastic Constant Matrix: (Units=GPa)
#
#
# Indices 1 2 3 4 5 6 
#
# 1 77.2233 21.4512 17.5570 -0.0019 -13.1808 -0.0010
# 2 21.4512 71.9344 22.1021 -0.0027 1.7843 -0.0007
# 3 17.5570 22.1021 75.2073 -0.0060 -14.5986 -0.0024
# 4 -0.0019 -0.0027 -0.0060 28.5070 -0.0021 -1.7906
# 5 -13.1808 1.7843 -14.5986 -0.0021 36.9112 0.0000
# 6 -0.0010 -0.0007 -0.0024 -1.7906 0.0000 18.6870
#
#
#
# Elastic Compliance Matrix: (Units=1/GPa)
#
#
# Indices 1 2 3 4 5 6 
#
# 1 0.015321 -0.004293 -0.001314 0.000001 0.005159 0.000001
# 2 -0.004293 0.016742 -0.004736 0.000000 -0.004216 0.000000
# 3 -0.001314 -0.004736 0.016192 0.000003 0.006164 0.000002
# 4 0.000001 0.000000 0.000003 0.035291 0.000004 0.003382
# 5 0.005159 -0.004216 0.006164 0.000004 0.031576 0.000001
# 6 0.000001 0.000000 0.000002 0.003382 0.000001 0.053837
#
#
# Mechanical properties :
#
#
# Convention : Reuss Voigt Hill
#
# Bulk Modulus (GPa) = 36.27317 38.50952 37.39134
# Shear Modulus (GPa) = 25.14655 27.70468 26.42562
#
# Velocity S-wave (km/s) = 3.48424 3.65717 3.57175
# Velocity P-wave (km/s) = 5.80500 6.03525 5.92125
#
# Compressibility (1/GPa) = 0.02756859
#
# Stress axis : x y z
#
# Youngs Moduli (GPa) = 65.26866 59.73152 61.76061
#
# Poissons Ratio (x) = 0.25644 0.08113
# Poissons Ratio (y) = 0.28022 0.29250
# Poissons Ratio (z) = 0.08573 0.28289
#
# Static dielectric constant tensor:
#      x y z
#    x 1.819750 0.000000 0.011300 
#    y 0.000000 1.777810 0.000000 
#    z 0.011300 0.000000 1.806570 
# 
# From -- ./inp_files/303284.got.cif
#   From: 2010.05.17/outbox.cif.g08.bks.cpg/sg15_152_cif.got.tgz:303284.got - 2010.06.03 18:47:42.
