data_PCOD9272466
_publ_section_title
;
Structure prediction by ZEFSAII (Michael W. Deem and Ramdas Pophale) SiO2 
 PCOD9272466
Probable space group: C 2/C
;
_chemical_formula_sum "Si O2"
_cell_formula_units_Z 40
_cell_length_a 15.515796
_cell_length_b 8.851349
_cell_length_c 12.353792
_cell_angle_alpha 90.000000
_cell_angle_beta 71.829833
_cell_angle_gamma 90.000000
_cell_volume 1612.014417
_symmetry_space_group_name_H-M "C 2/C"
_symmetry_group_IT_number 15
_symmetry_cell_setting 'monoclinic'
loop_
_space_group_symop_operation_xyz
x,y,z
-x,y,1/2-z
-x,-y,-z
x,-y,1/2+z
1/2+x,1/2+y,z
1/2-x,1/2+y,1/2-z
1/2-x,1/2-y,-z
1/2+x,1/2-y,1/2+z
loop_
_atom_site_type_symbol
_atom_site_label
_atom_site_fract_x
_atom_site_fract_y
_atom_site_fract_z
Si Si1 0.905748 0.421624 0.746770
Si Si2 0.365454 0.669937 0.942979
Si Si3 0.796446 0.919165 0.678015
Si Si4 0.172999 0.162967 0.098132
Si Si5 0.065206 0.816003 0.443690
O O1 0.889017 0.290264 0.842852
O O2 0.804906 0.488096 0.781255
O O3 0.920098 0.340996 0.625627
O O4 0.000000 0.497757 0.750000
O O5 0.320585 0.518067 0.916505
O O6 0.465173 0.633044 0.951861
O O7 0.307503 0.698841 0.073721
O O8 0.820452 0.827156 0.776357
O O9 0.863646 0.060472 0.630586
O O10 0.250000 0.250000 0.000000
O O11 0.083347 0.204303 0.064343
#
# Coordination Sequence:
#
# PCOD9272466 Si02
#       5
#     8   8   8   8   8
#     4  10  20  37  57  79 112 152 190 224 278 341
#     4  10  22  37  58  85 113 147 191 231 278 340
#     4  11  20  34  58  82 114 147 184 238 284 323
#     4  11  20  32  54  86 116 138 182 234 288 323
#     4  10  21  37  58  86 113 145 187 235 278 333
#
# _framework density 24.813673999999999
#
# number of rings (size 3 to 8) (size 9 to 14) (size 15 to 20)
#    0.000    1.600    4.000    3.000    0.000    2.400 
#    0.000    0.000    0.000   14.400    0.000    0.000 
#    0.000    0.000    0.000    0.000    0.000    0.000 
#
# Total GULP energy -111670.704617 kJ/mol
# GULP energy per Si atom -5583.535231 kJ/mol
# Density = 2.475720 g / cm^3
# Si number density = 24.813674 Si / 1000 Ang^3
#
#
#
# Elastic Constant Matrix: (Units=GPa)
#
#
# Indices 1 2 3 4 5 6 
#
# 1 112.8324 17.5725 6.4730 0.0000 -10.8261 0.0000
# 2 17.5725 47.0995 11.6572 0.0000 2.6559 0.0000
# 3 6.4730 11.6572 128.0533 0.0000 38.1127 0.0000
# 4 0.0000 0.0000 0.0000 23.4663 0.0000 -13.6103
# 5 -10.8261 2.6559 38.1127 0.0000 54.9792 0.0000
# 6 0.0000 0.0000 0.0000 -13.6103 0.0000 22.0161
#
#
#
# Elastic Compliance Matrix: (Units=1/GPa)
#
#
# Indices 1 2 3 4 5 6 
#
# 1 0.009738 -0.003543 -0.000997 0.000000 0.002780 0.000000
# 2 -0.003543 0.023017 -0.001736 0.000000 -0.000606 0.000000
# 3 -0.000997 -0.001736 0.010144 0.000000 -0.007145 0.000000
# 4 0.000000 0.000000 0.000000 0.066434 0.000000 0.041070
# 5 0.002780 -0.000606 -0.007145 0.000000 0.023718 0.000000
# 6 0.000000 0.000000 0.000000 0.041070 0.000000 0.070810
#
#
# Mechanical properties :
#
#
# Convention : Reuss Voigt Hill
#
# Bulk Modulus (GPa) = 32.95160 39.93231 36.44195
# Shear Modulus (GPa) = 22.07199 36.91115 29.49157
#
# Velocity S-wave (km/s) = 2.98570 3.86104 3.45123
# Velocity P-wave (km/s) = 5.01939 6.00039 5.53168
#
# Compressibility (1/GPa) = 0.03034754
#
# Stress axis : x y z
#
# Youngs Moduli (GPa) = 102.68539 43.44528 98.57914
#
# Poissons Ratio (x) = 0.15394 0.09830
# Poissons Ratio (y) = 0.36385 0.17111
# Poissons Ratio (z) = 0.10239 0.07541
#
# Static dielectric constant tensor:
#      x y z
#    x 2.096680 0.000000 0.033450 
#    y 0.000000 2.044710 0.000000 
#    z 0.033450 0.000000 2.001690 
# 
# From -- ./inp_files/94893.got.cif
#   From: 2010.05.17/outbox.cif.g08.bks.cpg/sg15_48_cif.got.tgz:94893.got - 2010.06.03 18:47:42.
