data_PCOD9272846
_publ_section_title
;
Structure prediction by ZEFSAII (Michael W. Deem and Ramdas Pophale) SiO2 
 PCOD9272846
Probable space group: C 2/C
;
_chemical_formula_sum "Si O2"
_cell_formula_units_Z 60
_cell_length_a 11.238595
_cell_length_b 15.984542
_cell_length_c 27.692670
_cell_angle_alpha 90.000000
_cell_angle_beta 146.133222
_cell_angle_gamma 90.000000
_cell_volume 2772.284769
_symmetry_space_group_name_H-M "C 2/C"
_symmetry_group_IT_number 15
_symmetry_cell_setting 'monoclinic'
loop_
_space_group_symop_operation_xyz
x,y,z
-x,y,1/2-z
-x,-y,-z
x,-y,1/2+z
1/2+x,1/2+y,z
1/2-x,1/2+y,1/2-z
1/2-x,1/2-y,-z
1/2+x,1/2-y,1/2+z
loop_
_atom_site_type_symbol
_atom_site_label
_atom_site_fract_x
_atom_site_fract_y
_atom_site_fract_z
Si Si1 0.862356 0.342359 0.638309
Si Si2 0.728649 0.787857 0.439283
Si Si3 0.401971 0.017641 0.914555
Si Si4 0.492541 0.434762 0.930810
Si Si5 0.364235 0.326026 0.798017
Si Si6 0.880160 0.313536 0.446539
Si Si7 0.753087 0.095840 0.500359
Si Si8 0.000000 0.918939 0.750000
O O1 0.737105 0.418924 0.621221
O O2 0.757952 0.258873 0.623967
O O3 0.781122 0.342525 0.555506
O O4 0.114383 0.333348 0.726110
O O5 0.750000 0.750000 0.500000
O O6 0.489509 0.762830 0.342740
O O7 0.832773 0.880708 0.478864
O O8 0.893532 0.729324 0.463954
O O9 0.410172 0.116492 0.915729
O O10 0.552632 0.967898 0.929452
O O11 0.171068 0.978803 0.832830
O O12 0.500000 0.000000 0.000000
O O13 0.480825 0.388565 0.875088
O O14 0.552451 0.531372 0.942405
O O15 0.392208 0.362070 0.753997
O O16 0.767554 0.356520 0.455259
#
# Coordination Sequence:
#
# PCOD9272846 Si02
#       8
#     8   8   8   8   8   8   8   4
#     4  11  23  39  62  97 128 169 211 268 329 393
#     4   9  19  38  62  87 120 171 214 258 321 391
#     4  10  20  37  60  92 124 163 209 267 320 382
#     4  10  22  41  64  88 127 179 215 260 324 407
#     4  11  21  39  63  93 132 167 213 269 334 383
#     4  10  21  39  63  93 128 165 216 270 320 389
#     4  11  20  40  64  91 123 166 221 261 324 389
#     4  12  22  38  64 102 132 164 218 282 334 378
#
# _framework density 21.642797999999999
#
# number of rings (size 3 to 8) (size 9 to 14) (size 15 to 20)
#    0.000    1.600    1.333    6.000    0.000    0.000 
#    9.600    0.000    0.000    1.600    0.000    0.000 
#    0.000    0.000    0.000    0.000    0.000    0.000 
#
# Total GULP energy -167355.602209 kJ/mol
# GULP energy per Si atom -5578.520074 kJ/mol
# Density = 2.159354 g / cm^3
# Si number density = 21.642798 Si / 1000 Ang^3
#
#
#
# Elastic Constant Matrix: (Units=GPa)
#
#
# Indices 1 2 3 4 5 6 
#
# 1 76.5737 15.7551 27.4852 0.0000 16.5858 0.0000
# 2 15.7551 77.5993 26.8151 0.0000 13.7619 0.0000
# 3 27.4852 26.8151 100.7679 0.0000 22.7213 0.0001
# 4 0.0000 0.0000 0.0000 17.3306 0.0000 6.7151
# 5 16.5858 13.7619 22.7213 0.0000 39.1121 0.0000
# 6 0.0000 0.0000 0.0001 6.7151 0.0000 38.5094
#
#
#
# Elastic Compliance Matrix: (Units=1/GPa)
#
#
# Indices 1 2 3 4 5 6 
#
# 1 0.015299 -0.001354 -0.002828 0.000000 -0.004369 0.000000
# 2 -0.001354 0.014673 -0.002878 0.000000 -0.002917 0.000000
# 3 -0.002828 -0.002878 0.012614 0.000000 -0.005117 0.000000
# 4 0.000000 0.000000 0.000000 0.061882 0.000000 -0.010791
# 5 -0.004369 -0.002917 -0.005117 0.000000 0.031419 0.000000
# 6 0.000000 0.000000 0.000000 -0.010791 0.000000 0.027849
#
#
# Mechanical properties :
#
#
# Convention : Reuss Voigt Hill
#
# Bulk Modulus (GPa) = 35.12711 43.89463 39.51087
# Shear Modulus (GPa) = 26.68864 31.31612 29.00238
#
# Velocity S-wave (km/s) = 3.51542 3.80801 3.66464
# Velocity P-wave (km/s) = 5.72217 6.29762 6.01678
#
# Compressibility (1/GPa) = 0.02846804
#
# Stress axis : x y z
#
# Youngs Moduli (GPa) = 65.36323 68.15070 79.27421
#
# Poissons Ratio (x) = 0.09230 0.22415
# Poissons Ratio (y) = 0.08853 0.22812
# Poissons Ratio (z) = 0.18481 0.19611
#
# Static dielectric constant tensor:
#      x y z
#    x 1.844240 0.000000 0.041290 
#    y 0.000000 1.848090 0.000000 
#    z 0.041290 0.000000 1.804310 
# 
# From -- ./inp_files/311570.got.cif
#   From: 2010.05.17/outbox.cif.g08.bks.cpg/sg15_156_cif.got.tgz:311570.got - 2010.06.03 18:47:42.
