data_PCOD9272974
_publ_section_title
;
Structure prediction by ZEFSAII (Michael W. Deem and Ramdas Pophale) SiO2 
 PCOD9272974
Probable space group: C 2/C
;
_chemical_formula_sum "Si O2"
_cell_formula_units_Z 48
_cell_length_a 10.987328
_cell_length_b 17.136799
_cell_length_c 21.355492
_cell_angle_alpha 90.000000
_cell_angle_beta 144.065527
_cell_angle_gamma 90.000000
_cell_volume 2359.747890
_symmetry_space_group_name_H-M "C 2/C"
_symmetry_group_IT_number 15
_symmetry_cell_setting 'monoclinic'
loop_
_space_group_symop_operation_xyz
x,y,z
-x,y,1/2-z
-x,-y,-z
x,-y,1/2+z
1/2+x,1/2+y,z
1/2-x,1/2+y,1/2-z
1/2-x,1/2-y,-z
1/2+x,1/2-y,1/2+z
loop_
_atom_site_type_symbol
_atom_site_label
_atom_site_fract_x
_atom_site_fract_y
_atom_site_fract_z
Si Si1 0.443949 0.159209 0.313623
Si Si2 0.991586 0.365395 0.975480
Si Si3 0.345138 0.428402 0.422279
Si Si4 0.645542 0.709347 0.087157
Si Si5 0.075822 0.473517 0.193441
Si Si6 0.263121 0.511483 0.634785
O O1 0.443044 0.169094 0.387363
O O2 0.237959 0.189501 0.193689
O O3 0.648358 0.199905 0.370319
O O4 0.451337 0.066061 0.303678
O O5 0.808594 0.425567 0.916167
O O6 0.049667 0.295073 0.044431
O O7 0.189947 0.423598 0.055257
O O8 0.500000 0.500000 0.500000
O O9 0.476596 0.351479 0.491442
O O10 0.248505 0.438545 0.312412
O O11 0.143935 0.434491 0.383070
O O12 0.144621 0.468950 0.150332
O O13 0.500000 0.513587 0.750000
#
# Coordination Sequence:
#
# PCOD9272974 Si02
#       6
#     8   8   8   8   8   8
#     4  10  20  37  61  95 124 157 214 255 293 377
#     4  10  24  42  60  93 121 161 217 249 313 368
#     4  11  19  35  62  95 127 160 196 257 314 363
#     4  11  21  36  64  92 129 161 199 260 314 361
#     4  10  21  38  61  95 123 160 218 242 309 376
#     4  10  24  44  66  84 122 170 213 259 299 372
#
# _framework density 20.341156999999999
#
# number of rings (size 3 to 8) (size 9 to 14) (size 15 to 20)
#    0.000    1.667    3.333    1.500    4.667    2.667 
#    3.000    0.833    0.000    0.000    0.000    0.000 
#    0.000    0.000    0.000    0.000    0.000    0.000 
#
# Total GULP energy -134051.411900 kJ/mol
# GULP energy per Si atom -5585.475496 kJ/mol
# Density = 2.029486 g / cm^3
# Si number density = 20.341157 Si / 1000 Ang^3
#
#
#
# Elastic Constant Matrix: (Units=GPa)
#
#
# Indices 1 2 3 4 5 6 
#
# 1 40.9886 1.3443 22.2591 0.0000 -12.5897 0.0000
# 2 1.3443 81.8804 28.4655 0.0001 -4.8978 0.0000
# 3 22.2591 28.4655 135.6800 0.0001 -0.6984 0.0001
# 4 0.0000 0.0001 0.0001 23.8594 0.0001 -5.2497
# 5 -12.5897 -4.8978 -0.6984 0.0001 23.5975 0.0001
# 6 0.0000 0.0000 0.0001 -5.2497 0.0001 7.8452
#
#
#
# Elastic Compliance Matrix: (Units=1/GPa)
#
#
# Indices 1 2 3 4 5 6 
#
# 1 0.033018 0.002572 -0.005864 0.000000 0.017976 0.000000
# 2 0.002572 0.013542 -0.003242 0.000000 0.004087 0.000000
# 3 -0.005864 -0.003242 0.008994 0.000000 -0.003535 0.000000
# 4 0.000000 0.000000 0.000000 0.049148 0.000000 0.032888
# 5 0.017976 0.004087 -0.003535 0.000000 0.052712 -0.000001
# 6 0.000000 0.000000 0.000000 0.032888 -0.000001 0.149474
#
#
# Mechanical properties :
#
#
# Convention : Reuss Voigt Hill
#
# Bulk Modulus (GPa) = 23.53682 40.29854 31.91768
# Shear Modulus (GPa) = 14.96468 24.82576 19.89522
#
# Velocity S-wave (km/s) = 2.71529 3.49731 3.13082
# Velocity P-wave (km/s) = 4.62889 6.01353 5.36606
#
# Compressibility (1/GPa) = 0.04248663
#
# Stress axis : x y z
#
# Youngs Moduli (GPa) = 30.28609 73.84293 111.18192
#
# Poissons Ratio (x) = -0.18990 0.65196
# Poissons Ratio (y) = -0.07789 0.36045
# Poissons Ratio (z) = 0.17759 0.23940
#
# Static dielectric constant tensor:
#      x y z
#    x 1.742020 0.000000 -0.031200 
#    y 0.000000 1.715860 0.000000 
#    z -0.031200 0.000000 1.717350 
# 
# From -- ./inp_files/270643.got.cif
#   From: 2010.05.17/outbox.cif.g08.bks.cpg/sg15_136_cif.got.tgz:270643.got - 2010.06.03 18:47:42.
