data_PCOD9272407
_publ_section_title
;
Structure prediction by ZEFSAII (Michael W. Deem and Ramdas Pophale) SiO2 
 PCOD9272407
Probable space group: C 2/C
;
_chemical_formula_sum "Si O2"
_cell_formula_units_Z 56
_cell_length_a 11.933334
_cell_length_b 17.674649
_cell_length_c 12.912976
_cell_angle_alpha 90.000000
_cell_angle_beta 64.600761
_cell_angle_gamma 90.000000
_cell_volume 2460.314664
_symmetry_space_group_name_H-M "C 2/C"
_symmetry_group_IT_number 15
_symmetry_cell_setting 'monoclinic'
loop_
_space_group_symop_operation_xyz
x,y,z
-x,y,1/2-z
-x,-y,-z
x,-y,1/2+z
1/2+x,1/2+y,z
1/2-x,1/2+y,1/2-z
1/2-x,1/2-y,-z
1/2+x,1/2-y,1/2+z
loop_
_atom_site_type_symbol
_atom_site_label
_atom_site_fract_x
_atom_site_fract_y
_atom_site_fract_z
Si Si1 0.264333 0.928336 0.621978
Si Si2 0.290283 0.668197 0.698289
Si Si3 0.000000 0.579634 0.250000
Si Si4 0.000000 0.922299 0.750000
Si Si5 0.614525 0.172986 0.580725
Si Si6 0.897130 0.449599 0.146634
Si Si7 0.004417 0.824722 0.958669
Si Si8 0.714405 0.178857 0.181421
O O1 0.276891 0.869867 0.523485
O O2 0.279884 0.871499 0.714588
O O3 0.129526 0.964191 0.689308
O O4 0.359163 0.998178 0.563825
O O5 0.179616 0.695416 0.662400
O O6 0.225997 0.595714 0.773898
O O7 0.414605 0.647686 0.585940
O O8 0.314347 0.736349 0.768611
O O9 0.070979 0.519616 0.292391
O O10 0.103851 0.636940 0.162809
O O11 0.997044 0.872427 0.646835
O O12 0.505251 0.110992 0.619350
O O13 0.555492 0.243950 0.546860
O O14 0.151097 0.820245 0.925979
#
# Coordination Sequence:
#
# PCOD9272407 Si02
#       8
#     8   8   4   4   8   8   8   8
#     4  10  21  37  58  90 123 170 202 259 325 378
#     4  12  21  37  63 100 122 159 214 271 306 373
#     4  10  22  45  59  82 128 186 198 242 326 381
#     4  10  20  37  55  86 128 156 196 256 326 371
#     4  12  19  35  62  95 125 152 210 271 317 362
#     4  11  23  38  62  89 127 168 216 255 310 384
#     4  11  21  34  61  97 120 152 204 266 321 355
#     4  10  22  39  62  86 130 166 210 256 311 381
#
# _framework density 22.761316999999998
#
# number of rings (size 3 to 8) (size 9 to 14) (size 15 to 20)
#    0.000    1.143    5.714    2.571    0.000    0.000 
#    0.000    9.286    0.000    0.000    0.000    0.000 
#    0.000    0.000    0.000    0.000    0.000    0.000 
#
# Total GULP energy -156004.612702 kJ/mol
# GULP energy per Si atom -5571.593311 kJ/mol
# Density = 2.270951 g / cm^3
# Si number density = 22.761317 Si / 1000 Ang^3
#
#
#
# Elastic Constant Matrix: (Units=GPa)
#
#
# Indices 1 2 3 4 5 6 
#
# 1 -64.3249 74.9683 -30.4982 0.0000 -20.5932 0.0000
# 2 74.9683 86.9599 27.7070 0.0000 -13.7579 0.0000
# 3 -30.4982 27.7070 43.1031 0.0000 -24.0969 0.0000
# 4 0.0000 0.0000 0.0000 26.2941 0.0000 -17.2296
# 5 -20.5932 -13.7579 -24.0969 0.0000 29.9104 0.0000
# 6 0.0000 0.0000 0.0000 -17.2296 0.0000 37.3195
#
#
#
# Elastic Compliance Matrix: (Units=1/GPa)
#
#
# Indices 1 2 3 4 5 6 
#
# 1 -0.003196 0.004566 -0.009557 0.000000 -0.007799 0.000000
# 2 0.004566 0.007975 0.003480 0.000000 0.009616 0.000000
# 3 -0.009557 0.003480 0.020773 0.000000 0.011757 0.000000
# 4 0.000000 0.000000 0.000000 0.054527 0.000000 0.025174
# 5 -0.007799 0.009616 0.011757 0.000000 0.041958 0.000000
# 6 0.000000 0.000000 0.000000 0.025174 0.000000 0.038418
#
#
# Mechanical properties :
#
#
# Convention : Reuss Voigt Hill
#
# Bulk Modulus (GPa) = 44.38087 23.34361 33.86224
# Shear Modulus (GPa) = 29.24194 18.27554 23.75874
#
# Velocity S-wave (km/s) = 3.58819 2.83666 3.23433
# Velocity P-wave (km/s) = 6.05867 4.58333 5.37189
#
# Compressibility (1/GPa) = 0.02253223
#
# Stress axis : x y z
#
# Youngs Moduli (GPa) = -312.89037 125.38579 48.13829
#
# Poissons Ratio (x) = -0.57256 0.46006
# Poissons Ratio (y) = 1.42877 -0.16754
# Poissons Ratio (z) = -2.99028 -0.43638
#
# Static dielectric constant tensor:
#      x y z
#    x 2.038850 0.000000 -0.036720 
#    y 0.000000 1.838970 0.000000 
#    z -0.036720 0.000000 1.882560 
# 
# From -- ./inp_files/146025.got.cif
#   From: 2010.05.17/outbox.cif.g08.bks.cpg/sg15_74_cif.got.tgz:146025.got - 2010.06.03 18:47:42.
