data_PCOD9272482
_publ_section_title
;
Structure prediction by ZEFSAII (Michael W. Deem and Ramdas Pophale) SiO2 
 PCOD9272482
Probable space group: C 2/C
;
_chemical_formula_sum "Si O2"
_cell_formula_units_Z 60
_cell_length_a 19.866742
_cell_length_b 25.122296
_cell_length_c 13.833497
_cell_angle_alpha 90.000000
_cell_angle_beta 29.691889
_cell_angle_gamma 90.000000
_cell_volume 3419.932917
_symmetry_space_group_name_H-M "C 2/C"
_symmetry_group_IT_number 15
_symmetry_cell_setting 'monoclinic'
loop_
_space_group_symop_operation_xyz
x,y,z
-x,y,1/2-z
-x,-y,-z
x,-y,1/2+z
1/2+x,1/2+y,z
1/2-x,1/2+y,1/2-z
1/2-x,1/2-y,-z
1/2+x,1/2-y,1/2+z
loop_
_atom_site_type_symbol
_atom_site_label
_atom_site_fract_x
_atom_site_fract_y
_atom_site_fract_z
Si Si1 0.846807 0.309457 0.473266
Si Si2 0.734342 0.596844 0.782064
Si Si3 0.799639 0.424374 0.568389
Si Si4 0.158670 0.190853 0.018613
Si Si5 0.484137 0.438983 0.484168
Si Si6 0.465372 0.969747 0.905667
Si Si7 0.740105 0.979170 0.078785
Si Si8 0.500000 0.543893 0.750000
O O1 0.851991 0.365159 0.524012
O O2 0.814006 0.250842 0.554818
O O3 0.746774 0.316478 0.506385
O O4 0.000000 0.302008 0.250000
O O5 0.622001 0.591212 0.839582
O O6 0.880757 0.578376 0.558203
O O7 0.704291 0.551358 0.898654
O O8 0.710689 0.650283 0.872070
O O9 0.874676 0.475816 0.520599
O O10 0.809690 0.438357 0.441556
O O11 0.644274 0.420857 0.793913
O O12 0.000000 0.182844 0.250000
O O13 0.500000 0.500000 0.500000
O O14 0.454148 0.430279 0.408007
O O15 0.500000 0.958378 0.750000
O O16 0.611839 0.984475 0.766673
O O17 0.867915 0.011292 0.879330
#
# Coordination Sequence:
#
# PCOD9272482 Si02
#       8
#     8   8   8   8   8   8   8   4
#     4  10  20  37  57  83 120 146 193 234 287 349
#     4  12  21  34  53  80 113 149 192 230 289 344
#     4  11  19  34  54  81 114 155 186 232 282 342
#     4  10  22  36  57  87 115 154 186 238 294 345
#     4  12  21  34  52  80 112 150 192 233 278 346
#     4  10  21  33  48  76 114 153 190 227 279 336
#     4  11  19  30  52  76 113 150 182 229 282 335
#     4  12  22  36  50  78 116 152 192 230 274 342
#
# _framework density 17.544204000000001
#
# number of rings (size 3 to 8) (size 9 to 14) (size 15 to 20)
#    0.000    1.067    5.333    3.200    0.933    0.000 
#    0.000    0.000    0.000    0.000    1.733    0.933 
#    0.000    0.000    0.000    0.000    0.000    0.000 
#
# Total GULP energy -167123.682840 kJ/mol
# GULP energy per Si atom -5570.789428 kJ/mol
# Density = 1.750427 g / cm^3
# Si number density = 17.544204 Si / 1000 Ang^3
#
#
#
# Elastic Constant Matrix: (Units=GPa)
#
#
# Indices 1 2 3 4 5 6 
#
# 1 61.3069 15.6920 11.3218 0.0080 1.0172 -0.0047
# 2 15.6920 106.6836 44.7777 0.0074 2.8851 -0.0052
# 3 11.3218 44.7777 79.4708 0.0120 -7.0806 -0.0117
# 4 0.0080 0.0074 0.0120 27.7879 -0.0076 2.4706
# 5 1.0172 2.8851 -7.0806 -0.0076 35.5549 0.0059
# 6 -0.0047 -0.0052 -0.0117 2.4706 0.0059 17.9694
#
#
#
# Elastic Compliance Matrix: (Units=1/GPa)
#
#
# Indices 1 2 3 4 5 6 
#
# 1 0.017069 -0.001900 -0.001416 -0.000004 -0.000616 0.000004
# 2 -0.001900 0.012696 -0.007096 0.000000 -0.002389 -0.000001
# 3 -0.001416 -0.007096 0.017142 -0.000005 0.004030 0.000008
# 4 -0.000004 0.000000 -0.000005 0.036432 0.000008 -0.005009
# 5 -0.000616 -0.002389 0.004030 0.000008 0.029140 -0.000009
# 6 0.000004 -0.000001 0.000008 -0.005009 -0.000009 0.056339
#
#
# Mechanical properties :
#
#
# Convention : Reuss Voigt Hill
#
# Bulk Modulus (GPa) = 38.33756 43.44939 40.89347
# Shear Modulus (GPa) = 25.20979 27.97376 26.59178
#
# Velocity S-wave (km/s) = 3.79480 3.99742 3.89742
# Velocity P-wave (km/s) = 6.41093 6.79156 6.60399
#
# Compressibility (1/GPa) = 0.02608408
#
# Stress axis : x y z
#
# Youngs Moduli (GPa) = 58.58439 78.76664 58.33589
#
# Poissons Ratio (x) = 0.14962 0.08263
# Poissons Ratio (y) = 0.11129 0.41393
# Poissons Ratio (z) = 0.08298 0.55890
#
# Static dielectric constant tensor:
#      x y z
#    x 1.634590 0.000000 -0.006870 
#    y 0.000000 1.664790 0.000000 
#    z -0.006870 0.000000 1.612900 
# 
# From -- ./inp_files/169618.got.cif
#   From: 2010.05.17/outbox.cif.g08.bks.cpg/sg15_85_cif.got.tgz:169618.got - 2010.06.03 18:47:42.
