data_PCOD9272337
_publ_section_title
;
Structure prediction by ZEFSAII (Michael W. Deem and Ramdas Pophale) SiO2 
 PCOD9272337
Probable space group: C 2/C
;
_chemical_formula_sum "Si O2"
_cell_formula_units_Z 60
_cell_length_a 13.880521
_cell_length_b 8.482015
_cell_length_c 22.216595
_cell_angle_alpha 90.000000
_cell_angle_beta 67.161920
_cell_angle_gamma 90.000000
_cell_volume 2410.611983
_symmetry_space_group_name_H-M "C 2/C"
_symmetry_group_IT_number 15
_symmetry_cell_setting 'monoclinic'
loop_
_space_group_symop_operation_xyz
x,y,z
-x,y,1/2-z
-x,-y,-z
x,-y,1/2+z
1/2+x,1/2+y,z
1/2-x,1/2+y,1/2-z
1/2-x,1/2-y,-z
1/2+x,1/2-y,1/2+z
loop_
_atom_site_type_symbol
_atom_site_label
_atom_site_fract_x
_atom_site_fract_y
_atom_site_fract_z
Si Si1 0.305380 0.913496 0.720284
Si Si2 0.296098 0.379066 0.358692
Si Si3 0.712293 0.886324 0.965408
Si Si4 0.001503 0.384079 0.184883
Si Si5 0.095019 0.905607 0.840748
Si Si6 0.500000 0.589574 0.750000
Si Si7 0.361855 0.884131 0.915342
Si Si8 0.421139 0.285079 0.101475
O O1 0.268823 0.043575 0.679695
O O2 0.412580 0.985421 0.717483
O O3 0.215087 0.884957 0.790410
O O4 0.337412 0.759625 0.674555
O O5 0.300604 0.531995 0.401800
O O6 0.402194 0.322217 0.301303
O O7 0.274752 0.228970 0.406358
O O8 0.623296 0.809221 0.944736
O O9 0.750000 0.750000 0.000000
O O10 0.672119 0.028464 0.016133
O O11 0.000000 0.300356 0.250000
O O12 0.103382 0.474382 0.137772
O O13 0.963298 0.261526 0.143244
O O14 0.080528 0.025535 0.899428
O O15 0.042908 0.993157 0.796245
O O16 0.465628 0.781951 0.907071
#
# Coordination Sequence:
#
# PCOD9272337 Si02
#       8
#     8   8   8   8   8   4   8   8
#     4   9  22  39  63  94 130 173 215 269 338 408
#     4  10  22  43  70  95 131 172 225 269 343 404
#     4  11  26  44  67  95 131 175 226 282 333 394
#     4  11  25  38  61 101 138 169 221 284 338 399
#     4  11  20  38  64  92 133 171 213 272 341 392
#     4  10  20  36  70  96 126 168 214 268 342 400
#     4  11  24  42  68  92 129 174 226 272 333 407
#     4  10  22  43  64  91 128 175 222 267 329 405
#
# _framework density 24.889945000000001
#
# number of rings (size 3 to 8) (size 9 to 14) (size 15 to 20)
#    0.000    1.600    2.000    1.600    2.800    5.333 
#    0.000    4.000    0.000    0.000    0.000    0.000 
#    0.000    0.000    0.000    0.000    0.000    0.000 
#
# Total GULP energy -167688.143256 kJ/mol
# GULP energy per Si atom -5589.604775 kJ/mol
# Density = 2.483329 g / cm^3
# Si number density = 24.889945 Si / 1000 Ang^3
#
#
#
# Elastic Constant Matrix: (Units=GPa)
#
#
# Indices 1 2 3 4 5 6 
#
# 1 47.9251 16.2814 17.5562 0.0000 5.4523 0.0000
# 2 16.2814 132.4326 28.4584 0.0000 2.7202 0.0000
# 3 17.5562 28.4584 84.0159 0.0000 5.0276 0.0000
# 4 0.0000 0.0000 0.0000 40.6810 0.0000 18.0035
# 5 5.4523 2.7202 5.0276 0.0000 28.0259 0.0000
# 6 0.0000 0.0000 0.0000 18.0035 0.0000 31.9429
#
#
#
# Elastic Compliance Matrix: (Units=1/GPa)
#
#
# Indices 1 2 3 4 5 6 
#
# 1 0.023411 -0.001940 -0.004017 0.000000 -0.003646 0.000000
# 2 -0.001940 0.008307 -0.002409 0.000000 0.000003 0.000000
# 3 -0.004017 -0.002409 0.013643 0.000000 -0.001432 0.000000
# 4 0.000000 0.000000 0.000000 0.032750 0.000000 -0.018459
# 5 -0.003646 0.000003 -0.001432 0.000000 0.036647 0.000000
# 6 0.000000 0.000000 0.000000 -0.018459 0.000000 0.041709
#
#
# Mechanical properties :
#
#
# Convention : Reuss Voigt Hill
#
# Bulk Modulus (GPa) = 34.92755 43.21841 39.07298
# Shear Modulus (GPa) = 27.36081 33.60179 30.48130
#
# Velocity S-wave (km/s) = 3.31912 3.67824 3.50329
# Velocity P-wave (km/s) = 5.36209 5.95322 5.66537
#
# Compressibility (1/GPa) = 0.02863069
#
# Stress axis : x y z
#
# Youngs Moduli (GPa) = 42.71462 120.37965 73.29539
#
# Poissons Ratio (x) = 0.23356 0.29441
# Poissons Ratio (y) = 0.08287 0.17654
# Poissons Ratio (z) = 0.17157 0.28994
#
# Static dielectric constant tensor:
#      x y z
#    x 2.001160 0.000000 0.048390 
#    y 0.000000 1.996370 0.000000 
#    z 0.048390 0.000000 2.003040 
# 
# From -- ./inp_files/273120.got.cif
#   From: 2010.05.17/outbox.cif.g08.bks.cpg/sg15_137_cif.got.tgz:273120.got - 2010.06.03 18:47:42.
