data_PCOD9272653
_publ_section_title
;
Structure prediction by ZEFSAII (Michael W. Deem and Ramdas Pophale) SiO2 
 PCOD9272653
Probable space group: C 2/C
;
_chemical_formula_sum "Si O2"
_cell_formula_units_Z 44
_cell_length_a 14.465926
_cell_length_b 30.332142
_cell_length_c 7.405822
_cell_angle_alpha 90.000000
_cell_angle_beta 36.280600
_cell_angle_gamma 90.000000
_cell_volume 1922.886760
_symmetry_space_group_name_H-M "C 2/C"
_symmetry_group_IT_number 15
_symmetry_cell_setting 'monoclinic'
loop_
_space_group_symop_operation_xyz
x,y,z
-x,y,1/2-z
-x,-y,-z
x,-y,1/2+z
1/2+x,1/2+y,z
1/2-x,1/2+y,1/2-z
1/2-x,1/2-y,-z
1/2+x,1/2-y,1/2+z
loop_
_atom_site_type_symbol
_atom_site_label
_atom_site_fract_x
_atom_site_fract_y
_atom_site_fract_z
Si Si1 0.000000 0.589112 0.250000
Si Si2 0.906453 0.665892 0.640833
Si Si3 0.914526 0.149849 0.558288
Si Si4 0.666307 0.560592 0.684211
Si Si5 0.000000 0.739363 0.250000
Si Si6 0.000000 0.993623 0.750000
Si Si7 0.701175 0.290022 0.709911
O O1 0.985410 0.620927 0.449990
O O2 0.841876 0.562058 0.480275
O O3 0.750279 0.666820 0.758344
O O4 0.007786 0.706904 0.410481
O O5 0.834494 0.673966 0.953484
O O6 0.883333 0.111866 0.753552
O O7 0.035191 0.187764 0.420775
O O8 0.000000 0.128348 0.250000
O O9 0.643013 0.527902 0.554581
O O10 0.549737 0.537982 0.010056
O O11 0.846047 0.768759 0.526402
O O12 0.750000 0.250000 0.500000
#
# Coordination Sequence:
#
# PCOD9272653 Si02
#       7
#     4   8   8   8   4   4   8
#     4   9  18  34  62  85 108 150 203 232 286 350
#     4   8  16  30  48  75 102 141 194 236 273 343
#     4   9  16  30  52  73  99 148 192 232 280 345
#     4  10  20  37  59  87 114 154 190 240 291 357
#     4   9  16  27  42  70 104 144 178 234 289 330
#     4  10  22  37  58  89 122 144 191 242 301 354
#     4   9  17  28  46  72 106 141 188 235 280 330
#
# _framework density 22.882262000000001
#
# number of rings (size 3 to 8) (size 9 to 14) (size 15 to 20)
#    0.000    2.909    0.909    0.000    0.000    2.182 
#    0.000    0.000    0.000   10.909    9.455    0.000 
#    0.000    0.000    0.000    0.000    0.000    0.000 
#
# Total GULP energy -122539.517869 kJ/mol
# GULP energy per Si atom -5569.978085 kJ/mol
# Density = 2.283018 g / cm^3
# Si number density = 22.882262 Si / 1000 Ang^3
#
#
#
# Elastic Constant Matrix: (Units=GPa)
#
#
# Indices 1 2 3 4 5 6 
#
# 1 40.2532 31.6102 20.7278 0.0000 -15.4809 0.0000
# 2 31.6102 97.5378 25.0346 0.0000 -15.6795 0.0000
# 3 20.7278 25.0346 111.9728 0.0000 -4.1260 0.0000
# 4 0.0000 0.0000 0.0000 -20.2095 0.0000 -18.7090
# 5 -15.4809 -15.6795 -4.1260 0.0000 37.6678 0.0000
# 6 0.0000 0.0000 0.0000 -18.7090 0.0000 16.5793
#
#
#
# Elastic Compliance Matrix: (Units=1/GPa)
#
#
# Indices 1 2 3 4 5 6 
#
# 1 0.039321 -0.009672 -0.004688 0.000000 0.011621 0.000000
# 2 -0.009672 0.013989 -0.001274 0.000000 0.001708 0.000000
# 3 -0.004688 -0.001274 0.010033 0.000000 -0.001358 0.000000
# 4 0.000000 0.000000 0.000000 -0.024200 0.000000 -0.027309
# 5 0.011621 0.001708 -0.001358 0.000000 0.031886 0.000000
# 6 0.000000 0.000000 0.000000 -0.027309 0.000000 0.029499
#
#
# Mechanical properties :
#
#
# Convention : Reuss Voigt Hill
#
# Bulk Modulus (GPa) = 31.17731 44.94543 38.06137
# Shear Modulus (GPa) = 35.09050 18.30028 26.69539
#
# Velocity S-wave (km/s) = 3.92027 2.83107 3.41932
# Velocity P-wave (km/s) = 5.84346 5.51101 5.67967
#
# Compressibility (1/GPa) = 0.03207461
#
# Stress axis : x y z
#
# Youngs Moduli (GPa) = 25.43148 71.48695 99.66666
#
# Poissons Ratio (x) = 0.69141 0.46727
# Poissons Ratio (y) = 0.24597 0.12699
# Poissons Ratio (z) = 0.11923 0.09109
#
# Static dielectric constant tensor:
#      x y z
#    x 1.957900 0.000000 0.028100 
#    y 0.000000 1.874480 0.000000 
#    z 0.028100 0.000000 1.894440 
# 
# From -- ./inp_files/52596.got.cif
#   From: 2010.05.17/outbox.cif.g08.bks.cpg/sg15_27_cif.got.tgz:52596.got - 2010.06.03 18:47:42.
