data_PCOD9272613
_publ_section_title
;
Structure prediction by ZEFSAII (Michael W. Deem and Ramdas Pophale) SiO2 
 PCOD9272613
Probable space group: C 2/C
;
_chemical_formula_sum "Si O2"
_cell_formula_units_Z 48
_cell_length_a 15.082191
_cell_length_b 9.278814
_cell_length_c 24.520535
_cell_angle_alpha 90.000000
_cell_angle_beta 141.022788
_cell_angle_gamma 90.000000
_cell_volume 2158.466240
_symmetry_space_group_name_H-M "C 2/C"
_symmetry_group_IT_number 15
_symmetry_cell_setting 'monoclinic'
loop_
_space_group_symop_operation_xyz
x,y,z
-x,y,1/2-z
-x,-y,-z
x,-y,1/2+z
1/2+x,1/2+y,z
1/2-x,1/2+y,1/2-z
1/2-x,1/2-y,-z
1/2+x,1/2-y,1/2+z
loop_
_atom_site_type_symbol
_atom_site_label
_atom_site_fract_x
_atom_site_fract_y
_atom_site_fract_z
Si Si1 0.427467 0.158479 0.102180
Si Si2 0.704471 0.927620 0.800429
Si Si3 0.168474 0.835094 0.344628
Si Si4 0.887896 0.878518 0.650113
Si Si5 0.267310 0.925832 0.072205
Si Si6 0.505673 0.458585 0.100426
O O1 0.568537 0.095621 0.198005
O O2 0.330069 0.252202 0.097381
O O3 0.477391 0.286204 0.086273
O O4 0.333584 0.014576 0.052687
O O5 0.745401 0.764616 0.838012
O O6 0.673006 0.009528 0.842293
O O7 0.832866 0.008560 0.834291
O O8 0.000000 0.833546 0.250000
O O9 0.210789 0.999824 0.369422
O O10 0.808271 0.739912 0.590200
O O11 0.000000 0.833235 0.750000
O O12 0.967832 0.966625 0.640459
O O13 0.102076 0.962470 0.991968
#
# Coordination Sequence:
#
# PCOD9272613 Si02
#       6
#     8   8   8   8   8   8
#     4   9  19  36  58  79 110 157 195 224 280 358
#     4  10  20  37  59  84 113 150 196 243 288 345
#     4   7  14  32  55  75 103 146 187 224 275 339
#     4  10  20  37  59  82 113 157 197 233 284 358
#     4  11  21  38  60  87 117 153 192 239 295 353
#     4  11  23  38  58  89 120 147 191 251 296 335
#
# _framework density 22.238012000000001
#
# number of rings (size 3 to 8) (size 9 to 14) (size 15 to 20)
#    0.000    2.333    0.000    5.000    0.000    2.667 
#    0.000    2.500    0.000    0.000    0.000    0.000 
#    0.000    0.000    0.000    0.000    0.000    0.000 
#
# Total GULP energy -133827.222775 kJ/mol
# GULP energy per Si atom -5576.134282 kJ/mol
# Density = 2.218740 g / cm^3
# Si number density = 22.238012 Si / 1000 Ang^3
#
#
#
# Elastic Constant Matrix: (Units=GPa)
#
#
# Indices 1 2 3 4 5 6 
#
# 1 41.7680 22.5096 12.3323 0.0000 15.6259 0.0000
# 2 22.5096 148.3042 16.7965 0.0000 13.5630 0.0000
# 3 12.3323 16.7965 85.6641 0.0000 6.0019 0.0000
# 4 0.0000 0.0000 0.0000 32.0963 0.0000 -1.0980
# 5 15.6259 13.5630 6.0019 0.0000 28.1451 0.0000
# 6 0.0000 0.0000 0.0000 -1.0980 0.0000 24.9926
#
#
#
# Elastic Compliance Matrix: (Units=1/GPa)
#
#
# Indices 1 2 3 4 5 6 
#
# 1 0.032439 -0.003139 -0.002943 0.000000 -0.015870 0.000000
# 2 -0.003139 0.007473 -0.000897 0.000000 -0.001667 0.000000
# 3 -0.002943 -0.000897 0.012312 0.000000 -0.000560 0.000000
# 4 0.000000 0.000000 0.000000 0.031203 0.000000 0.001371
# 5 -0.015870 -0.001667 -0.000560 0.000000 0.045264 0.000000
# 6 0.000000 0.000000 0.000000 0.001371 0.000000 0.040072
#
#
# Mechanical properties :
#
#
# Convention : Reuss Voigt Hill
#
# Bulk Modulus (GPa) = 26.13124 42.11256 34.12190
# Shear Modulus (GPa) = 25.57850 31.98667 28.78258
#
# Velocity S-wave (km/s) = 3.39516 3.79671 3.60154
# Velocity P-wave (km/s) = 5.21015 6.18048 5.71594
#
# Compressibility (1/GPa) = 0.03826838
#
# Stress axis : x y z
#
# Youngs Moduli (GPa) = 30.82671 133.80831 81.22064
#
# Poissons Ratio (x) = 0.42003 0.23900
# Poissons Ratio (y) = 0.09677 0.07282
# Poissons Ratio (z) = 0.09071 0.11997
#
# Static dielectric constant tensor:
#      x y z
#    x 1.855820 0.000000 -0.091640 
#    y 0.000000 1.861920 0.000000 
#    z -0.091640 0.000000 1.897770 
# 
# From -- ./inp_files/315781.got.cif
#   From: 2010.05.17/outbox.cif.g08.bks.cpg/sg15_158_cif.got.tgz:315781.got - 2010.06.03 18:47:42.
