data_PCOD9272136
_publ_section_title
;
Structure prediction by ZEFSAII (Michael W. Deem and Ramdas Pophale) SiO2 
 PCOD9272136
Probable space group: C 2/C
;
_chemical_formula_sum "Si O2"
_cell_formula_units_Z 40
_cell_length_a 16.750485
_cell_length_b 9.311790
_cell_length_c 21.263224
_cell_angle_alpha 90.000000
_cell_angle_beta 151.878024
_cell_angle_gamma 90.000000
_cell_volume 1563.267718
_symmetry_space_group_name_H-M "C 2/C"
_symmetry_group_IT_number 15
_symmetry_cell_setting 'monoclinic'
loop_
_space_group_symop_operation_xyz
x,y,z
-x,y,1/2-z
-x,-y,-z
x,-y,1/2+z
1/2+x,1/2+y,z
1/2-x,1/2+y,1/2-z
1/2-x,1/2-y,-z
1/2+x,1/2-y,1/2+z
loop_
_atom_site_type_symbol
_atom_site_label
_atom_site_fract_x
_atom_site_fract_y
_atom_site_fract_z
Si Si1 0.864044 0.970180 0.597423
Si Si2 0.861356 0.828804 0.466430
Si Si3 0.649669 0.008993 0.053316
Si Si4 0.219555 0.946267 0.680347
Si Si5 0.106342 0.826747 0.206274
O O1 0.875688 0.849801 0.551213
O O2 0.677482 0.983188 0.497287
O O3 0.000000 0.946117 0.750000
O O4 0.928446 0.113086 0.606039
O O5 0.792370 0.676667 0.395004
O O6 0.049280 0.850543 0.567326
O O7 0.760642 0.965238 0.369591
O O8 0.766222 0.871497 0.149485
O O9 0.500000 0.000000 0.000000
O O10 0.371608 0.836949 0.797216
O O11 0.180815 0.069853 0.703853
#
# Coordination Sequence:
#
# PCOD9272136 Si02
#       5
#     8   8   8   8   8
#     4   9  21  39  63  86 127 167 207 262 314 369
#     4  10  20  37  63  95 123 161 216 260 310 375
#     4  11  20  37  65  90 123 164 211 254 319 376
#     4  10  20  36  64  91 126 163 209 258 313 381
#     4  10  20  38  62  91 126 168 205 259 319 373
#
# _framework density 25.587427999999999
#
# number of rings (size 3 to 8) (size 9 to 14) (size 15 to 20)
#    0.000    2.000    2.000    1.800    0.000    0.000 
#    0.000    4.000    8.800    0.000    0.000    0.000 
#    0.000    0.000    0.000    0.000    0.000    0.000 
#
# Total GULP energy -111402.928955 kJ/mol
# GULP energy per Si atom -5570.146448 kJ/mol
# Density = 2.552919 g / cm^3
# Si number density = 25.587428 Si / 1000 Ang^3
#
#
#
# Elastic Constant Matrix: (Units=GPa)
#
#
# Indices 1 2 3 4 5 6 
#
# 1 168.2861 84.2388 32.2024 -0.0003 8.5098 0.0000
# 2 84.2388 140.6357 22.0285 -0.0007 16.1056 -0.0002
# 3 32.2024 22.0285 27.2884 -0.0011 7.7511 -0.0003
# 4 -0.0003 -0.0007 -0.0011 26.7657 -0.0003 7.9806
# 5 8.5098 16.1056 7.7511 -0.0003 46.1727 -0.0001
# 6 0.0000 -0.0002 -0.0003 7.9806 -0.0001 32.4154
#
#
#
# Elastic Compliance Matrix: (Units=1/GPa)
#
#
# Indices 1 2 3 4 5 6 
#
# 1 0.009802 -0.004744 -0.008080 0.000000 0.001204 0.000000
# 2 -0.004744 0.010584 -0.002253 0.000000 -0.002439 0.000000
# 3 -0.008080 -0.002253 0.049725 0.000002 -0.006072 0.000000
# 4 0.000000 0.000000 0.000002 0.040321 0.000000 -0.009927
# 5 0.001204 -0.002439 -0.006072 0.000000 0.023306 0.000000
# 6 0.000000 0.000000 0.000000 -0.009927 0.000000 0.033294
#
#
# Mechanical properties :
#
#
# Convention : Reuss Voigt Hill
#
# Bulk Modulus (GPa) = 25.02706 68.12774 46.57740
# Shear Modulus (GPa) = 23.75248 34.25347 29.00297
#
# Velocity S-wave (km/s) = 3.05009 3.66277 3.37038
# Velocity P-wave (km/s) = 4.71235 6.67616 5.77830
#
# Compressibility (1/GPa) = 0.03995675
#
# Stress axis : x y z
#
# Youngs Moduli (GPa) = 102.02015 94.48016 20.11080
#
# Poissons Ratio (x) = 0.44817 0.16249
# Poissons Ratio (y) = 0.48394 0.04532
# Poissons Ratio (z) = 0.82432 0.21291
#
# Static dielectric constant tensor:
#      x y z
#    x 2.043420 0.000000 -0.055190 
#    y 0.000000 2.007870 0.000000 
#    z -0.055190 0.000000 2.266970 
# 
# From -- ./inp_files/102852.got.cif
#   From: 2010.05.17/outbox.cif.g08.bks.cpg/sg15_52_cif.got.tgz:102852.got - 2010.06.03 18:47:42.
