data_PCOD9272258
_publ_section_title
;
Structure prediction by ZEFSAII (Michael W. Deem and Ramdas Pophale) SiO2 
 PCOD9272258
Probable space group: C 2/C
;
_chemical_formula_sum "Si O2"
_cell_formula_units_Z 56
_cell_length_a 14.867425
_cell_length_b 6.341903
_cell_length_c 26.932223
_cell_angle_alpha 90.000000
_cell_angle_beta 59.971724
_cell_angle_gamma 90.000000
_cell_volume 2198.540002
_symmetry_space_group_name_H-M "C 2/C"
_symmetry_group_IT_number 15
_symmetry_cell_setting 'monoclinic'
loop_
_space_group_symop_operation_xyz
x,y,z
-x,y,1/2-z
-x,-y,-z
x,-y,1/2+z
1/2+x,1/2+y,z
1/2-x,1/2+y,1/2-z
1/2-x,1/2-y,-z
1/2+x,1/2-y,1/2+z
loop_
_atom_site_type_symbol
_atom_site_label
_atom_site_fract_x
_atom_site_fract_y
_atom_site_fract_z
Si Si1 0.749969 0.703515 0.892020
Si Si2 0.630317 0.675470 0.477221
Si Si3 0.128595 0.426271 0.237297
Si Si4 0.591593 0.928251 0.400349
Si Si5 0.833472 0.948824 0.428943
Si Si6 0.500914 0.193912 0.344061
Si Si7 0.349734 0.416047 0.696612
O O1 0.679604 0.519318 0.933705
O O2 0.828516 0.609668 0.829597
O O3 0.676878 0.890940 0.890034
O O4 0.817299 0.813779 0.916494
O O5 0.720489 0.844907 0.464715
O O6 0.601046 0.582050 0.538752
O O7 0.557265 0.805042 0.459809
O O8 0.038653 0.570795 0.285161
O O9 0.231164 0.518102 0.236346
O O10 0.107812 0.196419 0.265992
O O11 0.504911 0.036994 0.390096
O O12 0.641070 0.750943 0.350668
O O13 0.892329 0.813421 0.370894
O O14 0.583770 0.377905 0.331888
#
# Coordination Sequence:
#
# PCOD9272258 Si02
#       7
#     8   8   8   8   8   8   8
#     4  11  21  40  66  89 121 171 218 257 322 399
#     4  10  21  44  68  86 119 175 220 265 326 392
#     4  11  20  34  64  88 120 164 207 259 318 391
#     4  10  20  36  66  95 118 161 214 264 320 385
#     4  10  25  42  62  91 129 168 216 270 324 386
#     4  11  23  38  60  96 131 160 209 275 325 387
#     4  11  19  36  61  92 120 158 207 260 318 377
#
# _framework density 25.471450999999998
#
# number of rings (size 3 to 8) (size 9 to 14) (size 15 to 20)
#    0.000    1.429    4.286    1.286    0.000    2.857 
#    0.000    7.143    0.000    0.000    0.000    0.000 
#    0.000    0.000    0.000    0.000    0.000    0.000 
#
# Total GULP energy -156687.988899 kJ/mol
# GULP energy per Si atom -5595.999604 kJ/mol
# Density = 2.541348 g / cm^3
# Si number density = 25.471451 Si / 1000 Ang^3
#
#
#
# Elastic Constant Matrix: (Units=GPa)
#
#
# Indices 1 2 3 4 5 6 
#
# 1 36.3955 22.3881 15.8174 0.0014 5.4018 -0.0004
# 2 22.3881 130.7664 54.9953 0.0025 21.7660 -0.0010
# 3 15.8174 54.9953 96.3015 0.0010 23.2193 -0.0005
# 4 0.0014 0.0025 0.0010 17.5736 0.0008 9.2346
# 5 5.4018 21.7660 23.2193 0.0008 30.3346 -0.0002
# 6 -0.0004 -0.0010 -0.0005 9.2346 -0.0002 8.5844
#
#
#
# Elastic Compliance Matrix: (Units=1/GPa)
#
#
# Indices 1 2 3 4 5 6 
#
# 1 0.031256 -0.004152 -0.002623 -0.000005 -0.000579 0.000006
# 2 -0.004152 0.010921 -0.004714 -0.000003 -0.003489 0.000004
# 3 -0.002623 -0.004714 0.015426 0.000001 -0.007958 -0.000001
# 4 -0.000005 -0.000003 0.000001 0.130895 -0.000002 -0.140808
# 5 -0.000579 -0.003489 -0.007958 -0.000002 0.041664 0.000002
# 6 0.000006 0.000004 -0.000001 -0.140808 0.000002 0.267962
#
#
# Mechanical properties :
#
#
# Convention : Reuss Voigt Hill
#
# Bulk Modulus (GPa) = 28.88060 49.98500 39.43280
# Shear Modulus (GPa) = 9.38719 22.64936 16.01827
#
# Velocity S-wave (km/s) = 1.92182 2.98519 2.51045
# Velocity P-wave (km/s) = 4.03578 5.61679 4.89060
#
# Compressibility (1/GPa) = 0.03462532
#
# Stress axis : x y z
#
# Youngs Moduli (GPa) = 31.99420 91.56569 64.82757
#
# Poissons Ratio (x) = 0.38014 0.17006
# Poissons Ratio (y) = 0.13283 0.30558
# Poissons Ratio (z) = 0.08393 0.43161
#
# Static dielectric constant tensor:
#      x y z
#    x 2.112310 0.000000 0.115050 
#    y 0.000000 1.963080 0.000000 
#    z 0.115050 0.000000 2.031320 
# 
# From -- ./inp_files/315012.got.cif
#   From: 2010.05.17/outbox.cif.g08.bks.cpg/sg15_158_cif.got.tgz:315012.got - 2010.06.03 18:47:42.
