data_PCOD9272071
_publ_section_title
;
Structure prediction by ZEFSAII (Michael W. Deem and Ramdas Pophale) SiO2 
 PCOD9272071
Probable space group: C 2/C
;
_chemical_formula_sum "Si O2"
_cell_formula_units_Z 32
_cell_length_a 14.181488
_cell_length_b 10.543537
_cell_length_c 7.800989
_cell_angle_alpha 90.000000
_cell_angle_beta 86.463648
_cell_angle_gamma 90.000000
_cell_volume 1164.206581
_symmetry_space_group_name_H-M "C 2/C"
_symmetry_group_IT_number 15
_symmetry_cell_setting 'monoclinic'
loop_
_space_group_symop_operation_xyz
x,y,z
-x,y,1/2-z
-x,-y,-z
x,-y,1/2+z
1/2+x,1/2+y,z
1/2-x,1/2+y,1/2-z
1/2-x,1/2-y,-z
1/2+x,1/2-y,1/2+z
loop_
_atom_site_type_symbol
_atom_site_label
_atom_site_fract_x
_atom_site_fract_y
_atom_site_fract_z
Si Si1 0.223716 0.604867 0.497176
Si Si2 0.107657 0.701662 0.806291
Si Si3 0.610664 0.202869 0.205450
Si Si4 0.115329 0.002836 0.218269
O O1 0.250000 0.750000 0.500000
O O2 0.162620 0.606305 0.675669
O O3 0.159879 0.611501 0.335217
O O4 0.319273 0.523326 0.462935
O O5 0.126574 0.671051 0.003535
O O6 0.133635 0.852251 0.786333
O O7 0.000000 0.694640 0.750000
O O8 0.500000 0.193068 0.250000
O O9 0.635936 0.351527 0.239330
O O10 0.000000 0.000879 0.250000
#
# Coordination Sequence:
#
# PCOD9272071 Si02
#       4
#     8   8   8   8
#     4  10  22  40  60  98 138 171 214 273 336 397
#     4  10  20  36  63  96 130 169 209 276 336 381
#     4  11  22  38  68 101 131 166 221 278 337 392
#     4   9  22  37  63  98 133 172 213 272 333 393
#
# _framework density 27.486533000000001
#
# number of rings (size 3 to 8) (size 9 to 14) (size 15 to 20)
#    0.000    2.000    2.500    0.000    7.000    7.000 
#    0.000    2.500    0.000    1.500    6.500   10.500 
#    0.000    0.000    0.000    0.000    0.000    0.000 
#
# Total GULP energy -89150.371685 kJ/mol
# GULP energy per Si atom -5571.898230 kJ/mol
# Density = 2.742397 g / cm^3
# Si number density = 27.486533 Si / 1000 Ang^3
#
#
#
# Elastic Constant Matrix: (Units=GPa)
#
#
# Indices 1 2 3 4 5 6 
#
# 1 126.4043 61.2497 84.1648 0.0000 -24.1362 0.0000
# 2 61.2497 184.1584 109.9808 0.0000 -5.2221 0.0000
# 3 84.1648 109.9808 261.7699 0.0000 -3.7446 0.0000
# 4 0.0000 0.0000 0.0000 52.2098 0.0000 5.5991
# 5 -24.1362 -5.2221 -3.7446 0.0000 46.2566 0.0000
# 6 0.0000 0.0000 0.0000 5.5991 0.0000 -39.2812
#
#
#
# Elastic Compliance Matrix: (Units=1/GPa)
#
#
# Indices 1 2 3 4 5 6 
#
# 1 0.011940 -0.002088 -0.002879 0.000000 0.005761 0.000000
# 2 -0.002088 0.007629 -0.002540 0.000000 -0.000434 0.000000
# 3 -0.002879 -0.002540 0.005794 0.000000 -0.001320 0.000000
# 4 0.000000 0.000000 0.000000 0.018865 0.000000 0.002689
# 5 0.005761 -0.000434 -0.001320 0.000000 0.024469 0.000000
# 6 0.000000 0.000000 0.000000 0.002689 0.000000 -0.025074
#
#
# Mechanical properties :
#
#
# Convention : Reuss Voigt Hill
#
# Bulk Modulus (GPa) = 96.63396 120.34703 108.49050
# Shear Modulus (GPa) = 80.52983 32.96619 56.74801
#
# Velocity S-wave (km/s) = 5.41863 3.46693 4.54869
# Velocity P-wave (km/s) = 8.62449 7.73985 8.19412
#
# Compressibility (1/GPa) = 0.01034833
#
# Stress axis : x y z
#
# Youngs Moduli (GPa) = 83.75024 131.07191 172.58504
#
# Poissons Ratio (x) = 0.27373 0.49691
# Poissons Ratio (y) = 0.17490 0.43840
# Poissons Ratio (z) = 0.24114 0.33295
#
# Static dielectric constant tensor:
#      x y z
#    x 2.180880 0.000000 0.044490 
#    y 0.000000 2.063840 0.000000 
#    z 0.044490 0.000000 2.585200 
# 
# From -- ./inp_files/83968.got.cif
#   From: 2010.05.17/outbox.cif.g08.bks.cpg/sg15_42_cif.got.tgz:83968.got - 2010.06.03 18:47:42.
