data_PCOD9272806
_publ_section_title
;
Structure prediction by ZEFSAII (Michael W. Deem and Ramdas Pophale) SiO2 
 PCOD9272806
Probable space group: C 2/C
;
_chemical_formula_sum "Si O2"
_cell_formula_units_Z 52
_cell_length_a 12.848847
_cell_length_b 20.091766
_cell_length_c 9.414536
_cell_angle_alpha 90.000000
_cell_angle_beta 77.421213
_cell_angle_gamma 90.000000
_cell_volume 2372.082977
_symmetry_space_group_name_H-M "C 2/C"
_symmetry_group_IT_number 15
_symmetry_cell_setting 'monoclinic'
loop_
_space_group_symop_operation_xyz
x,y,z
-x,y,1/2-z
-x,-y,-z
x,-y,1/2+z
1/2+x,1/2+y,z
1/2-x,1/2+y,1/2-z
1/2-x,1/2-y,-z
1/2+x,1/2-y,1/2+z
loop_
_atom_site_type_symbol
_atom_site_label
_atom_site_fract_x
_atom_site_fract_y
_atom_site_fract_z
Si Si1 0.698247 0.782353 0.156466
Si Si2 0.666669 0.375579 0.187264
Si Si3 0.926103 0.005384 0.156189
Si Si4 0.201178 0.194122 0.410447
Si Si5 0.376487 0.037260 0.559399
Si Si6 0.309395 0.932925 0.786175
Si Si7 0.000000 0.620916 0.750000
O O1 0.793421 0.820535 0.212933
O O2 0.654558 0.728661 0.284905
O O3 0.600407 0.834036 0.168229
O O4 0.750000 0.750000 0.000000
O O5 0.597380 0.431133 0.282283
O O6 0.771788 0.417420 0.113982
O O7 0.628712 0.345287 0.047423
O O8 0.000000 0.041927 0.250000
O O9 0.811314 0.038109 0.164727
O O10 0.000000 0.000000 0.000000
O O11 0.250000 0.250000 0.500000
O O12 0.291953 0.144967 0.319336
O O13 0.384761 0.038972 0.388077
O O14 0.461576 0.075663 0.629699
O O15 0.352302 0.964131 0.628012
#
# Coordination Sequence:
#
# PCOD9272806 Si02
#       7
#     8   8   8   8   8   8   4
#     4  10  21  39  64  91 126 172 223 278 328 400
#     4   8  18  38  58  80 121 173 206 260 343 379
#     4  11  21  35  57  92 129 165 221 279 332 412
#     4   9  18  37  62  81 120 175 211 252 333 406
#     4   9  19  36  62  86 121 164 205 278 332 390
#     4  10  20  37  60  89 122 171 214 264 348 382
#     4  10  22  42  62  94 134 166 226 280 346 396
#
# _framework density 21.921661
#
# number of rings (size 3 to 8) (size 9 to 14) (size 15 to 20)
#    0.000    2.462    0.000    3.692    0.000    5.538 
#    6.923    0.000    0.000    1.846    0.000    0.000 
#    0.000    0.000    0.000    0.000    0.000    0.000 
#
# Total GULP energy -144948.880554 kJ/mol
# GULP energy per Si atom -5574.956944 kJ/mol
# Density = 2.187177 g / cm^3
# Si number density = 21.921661 Si / 1000 Ang^3
#
#
#
# Elastic Constant Matrix: (Units=GPa)
#
#
# Indices 1 2 3 4 5 6 
#
# 1 94.8178 19.4791 28.4392 0.0000 6.9547 0.0000
# 2 19.4791 89.5580 18.2429 0.0000 2.0599 0.0000
# 3 28.4392 18.2429 80.2095 0.0000 9.0877 0.0000
# 4 0.0000 0.0000 0.0000 6.2547 0.0000 12.0700
# 5 6.9547 2.0599 9.0877 0.0000 30.8665 0.0000
# 6 0.0000 0.0000 0.0000 12.0700 0.0000 24.4149
#
#
#
# Elastic Compliance Matrix: (Units=1/GPa)
#
#
# Indices 1 2 3 4 5 6 
#
# 1 0.012153 -0.001851 -0.003716 0.000000 -0.001521 0.000000
# 2 -0.001851 0.011990 -0.002097 0.000000 0.000234 0.000000
# 3 -0.003716 -0.002097 0.014639 0.000000 -0.003333 0.000000
# 4 0.000000 0.000000 0.000000 3.475680 0.000000 -1.718266
# 5 -0.001521 0.000234 -0.003333 0.000000 0.033706 0.000000
# 6 0.000000 0.000000 0.000000 -1.718266 0.000000 0.890415
#
#
# Mechanical properties :
#
#
# Convention : Reuss Voigt Hill
#
# Bulk Modulus (GPa) = 42.63620 44.10085 43.36852
# Shear Modulus (GPa) = 1.12064 25.53551 13.32808
#
# Velocity S-wave (km/s) = 0.71576 3.41670 2.46841
# Velocity P-wave (km/s) = 4.49162 5.97714 5.28682
#
# Compressibility (1/GPa) = 0.02345425
#
# Stress axis : x y z
#
# Youngs Moduli (GPa) = 82.28515 83.39968 68.30900
#
# Poissons Ratio (x) = 0.15441 0.25381
# Poissons Ratio (y) = 0.15235 0.14326
# Poissons Ratio (z) = 0.30573 0.17491
#
# Static dielectric constant tensor:
#      x y z
#    x 1.833170 0.000000 0.027540 
#    y 0.000000 1.859490 0.000000 
#    z 0.027540 0.000000 1.744560 
# 
# From -- ./inp_files/40748.got.cif
#   From: 2010.05.17/outbox.cif.g08.bks.cpg/sg15_21_cif.got.tgz:40748.got - 2010.06.03 18:47:42.
