data_PCOD9272177
_publ_section_title
;
Structure prediction by ZEFSAII (Michael W. Deem and Ramdas Pophale) SiO2 
 PCOD9272177
Probable space group: C 2/C
;
_chemical_formula_sum "Si O2"
_cell_formula_units_Z 64
_cell_length_a 12.809401
_cell_length_b 13.070530
_cell_length_c 29.691733
_cell_angle_alpha 90.000000
_cell_angle_beta 143.095600
_cell_angle_gamma 90.000000
_cell_volume 2985.089081
_symmetry_space_group_name_H-M "C 2/C"
_symmetry_group_IT_number 15
_symmetry_cell_setting 'monoclinic'
loop_
_space_group_symop_operation_xyz
x,y,z
-x,y,1/2-z
-x,-y,-z
x,-y,1/2+z
1/2+x,1/2+y,z
1/2-x,1/2+y,1/2-z
1/2-x,1/2-y,-z
1/2+x,1/2-y,1/2+z
loop_
_atom_site_type_symbol
_atom_site_label
_atom_site_fract_x
_atom_site_fract_y
_atom_site_fract_z
Si Si1 0.813999 0.986840 0.689256
Si Si2 0.617624 0.317950 0.709215
Si Si3 0.190747 0.646504 0.794560
Si Si4 0.983772 0.731188 0.448438
Si Si5 0.840117 0.078524 0.451458
Si Si6 0.201820 0.416729 0.808658
Si Si7 0.261914 0.890019 0.934200
Si Si8 0.430961 0.019260 0.071862
O O1 0.860509 0.890967 0.738792
O O2 0.766543 0.956203 0.621430
O O3 0.627613 0.024599 0.643529
O O4 0.000000 0.045202 0.750000
O O5 0.661915 0.203409 0.738064
O O6 0.752593 0.351755 0.718558
O O7 0.422571 0.333933 0.623617
O O8 0.318484 0.716156 0.867858
O O9 0.261098 0.532349 0.817608
O O10 0.000000 0.644484 0.750000
O O11 0.914713 0.686569 0.471985
O O12 0.113650 0.823915 0.502104
O O13 0.046555 0.635305 0.440126
O O14 0.795048 0.116615 0.386257
O O15 0.676185 0.023291 0.418690
O O16 0.000000 0.000000 0.500000
O O17 0.000000 0.417501 0.750000
O O18 0.321376 0.956334 0.997036
#
# Coordination Sequence:
#
# PCOD9272177 Si02
#       8
#     8   8   8   8   8   8   8   8
#     4   9  17  33  62  92 123 158 213 272 324 376
#     4  11  19  40  66  95 126 172 222 276 325 395
#     4  11  20  41  70  96 120 169 226 270 332 401
#     4  11  21  40  68  95 129 172 221 275 333 402
#     4  12  25  44  61  96 141 180 221 269 332 402
#     4  11  26  42  64  94 133 174 222 273 330 397
#     4  10  20  36  65 101 130 163 219 281 330 391
#     4  11  22  39  66 100 133 177 221 272 337 396
#
# _framework density 21.439896999999998
#
# number of rings (size 3 to 8) (size 9 to 14) (size 15 to 20)
#    0.000    1.250    5.000    3.750    0.000    0.000 
#    0.000    7.500    0.000    4.500    0.000    0.000 
#    0.000    0.000    0.000    0.000    0.000    0.000 
#
# Total GULP energy -178681.499192 kJ/mol
# GULP energy per Si atom -5583.796850 kJ/mol
# Density = 2.139110 g / cm^3
# Si number density = 21.439897 Si / 1000 Ang^3
#
#
#
# Elastic Constant Matrix: (Units=GPa)
#
#
# Indices 1 2 3 4 5 6 
#
# 1 103.2948 29.1950 8.1121 0.0000 -2.3293 0.0000
# 2 29.1950 40.3402 14.9958 0.0000 -1.1060 0.0000
# 3 8.1121 14.9958 77.8697 0.0000 4.3094 0.0000
# 4 0.0000 0.0000 0.0000 -1.4911 0.0000 -83.3309
# 5 -2.3293 -1.1060 4.3094 0.0000 18.9376 0.0000
# 6 0.0000 0.0000 0.0000 -83.3309 0.0000 -119.6619
#
#
#
# Elastic Compliance Matrix: (Units=1/GPa)
#
#
# Indices 1 2 3 4 5 6 
#
# 1 0.012200 -0.008956 0.000405 0.000000 0.000886 0.000000
# 2 -0.008956 0.033418 -0.005620 0.000000 0.002129 0.000000
# 3 0.000405 -0.005620 0.014075 0.000000 -0.003481 0.000000
# 4 0.000000 0.000000 0.000000 0.017687 0.000000 -0.012317
# 5 0.000886 0.002129 -0.003481 0.000000 0.053830 0.000000
# 6 0.000000 0.000000 0.000000 -0.012317 0.000000 0.000220
#
#
# Mechanical properties :
#
#
# Convention : Reuss Voigt Hill
#
# Bulk Modulus (GPa) = 31.89745 36.23453 34.06599
# Shear Modulus (GPa) = 29.37292 -9.16297 10.10498
#
# Velocity S-wave (km/s) = 3.70538 -2.06956 2.17334
# Velocity P-wave (km/s) = 5.76337 3.35059 4.71396
#
# Compressibility (1/GPa) = 0.03135046
#
# Stress axis : x y z
#
# Youngs Moduli (GPa) = 81.96391 29.92359 71.04887
#
# Poissons Ratio (x) = 0.26799 -0.02875
# Poissons Ratio (y) = 0.73406 0.39933
# Poissons Ratio (z) = -0.03317 0.16818
#
# Static dielectric constant tensor:
#      x y z
#    x 1.891110 0.000000 -0.012520 
#    y 0.000000 1.805140 0.000000 
#    z -0.012520 0.000000 1.804150 
# 
# From -- ./inp_files/293109.got.cif
#   From: 2010.05.17/outbox.cif.g08.bks.cpg/sg15_147_cif.got.tgz:293109.got - 2010.06.03 18:47:42.
