data_PCOD9272594
_publ_section_title
;
Structure prediction by ZEFSAII (Michael W. Deem and Ramdas Pophale) SiO2 
 PCOD9272594
Probable space group: C 2/C
;
_chemical_formula_sum "Si O2"
_cell_formula_units_Z 48
_cell_length_a 6.638191
_cell_length_b 15.257816
_cell_length_c 22.241107
_cell_angle_alpha 90.000000
_cell_angle_beta 70.204175
_cell_angle_gamma 90.000000
_cell_volume 2119.554074
_symmetry_space_group_name_H-M "C 2/C"
_symmetry_group_IT_number 15
_symmetry_cell_setting 'monoclinic'
loop_
_space_group_symop_operation_xyz
x,y,z
-x,y,1/2-z
-x,-y,-z
x,-y,1/2+z
1/2+x,1/2+y,z
1/2-x,1/2+y,1/2-z
1/2-x,1/2-y,-z
1/2+x,1/2-y,1/2+z
loop_
_atom_site_type_symbol
_atom_site_label
_atom_site_fract_x
_atom_site_fract_y
_atom_site_fract_z
Si Si1 0.258539 0.087305 0.566837
Si Si2 0.850860 0.003426 0.137271
Si Si3 0.972800 0.412597 0.922491
Si Si4 0.199720 0.804617 0.191086
Si Si5 0.000000 0.368047 0.750000
Si Si6 0.833455 0.116781 0.311380
Si Si7 0.500000 0.103510 0.750000
O O1 0.369246 0.119073 0.494805
O O2 0.229162 0.158419 0.622031
O O3 0.405018 0.005737 0.576226
O O4 0.017362 0.052611 0.580990
O O5 0.714169 0.063648 0.105860
O O6 0.012021 0.052214 0.167588
O O7 0.683988 0.948636 0.194453
O O8 0.162316 0.349190 0.877760
O O9 0.397701 0.836670 0.209136
O O10 0.000000 0.843465 0.250000
O O11 0.148441 0.701574 0.199019
O O12 0.153829 0.416947 0.781347
O O13 0.000000 0.164776 0.250000
#
# Coordination Sequence:
#
# PCOD9272594 Si02
#       7
#     8   8   8   8   4   8   4
#     4  10  20  37  58  91 128 159 207 247 328 376
#     4  11  20  32  60  91 127 155 196 262 319 382
#     4  10  21  36  58  90 130 164 192 262 319 386
#     4  10  22  39  63  87 119 167 207 260 294 366
#     4  10  24  43  62  84 119 172 220 254 288 362
#     4  11  23  38  58  87 121 160 208 257 307 362
#     4  12  20  35  64  98 121 154 206 256 334 360
#
# _framework density 22.646270999999999
#
# number of rings (size 3 to 8) (size 9 to 14) (size 15 to 20)
#    0.500    1.000    3.333    2.500    3.500    0.000 
#    0.000    0.833    0.000    2.000    0.000    0.000 
#    0.000    0.000    0.000    0.000    0.000    0.000 
#
# Total GULP energy -133632.173258 kJ/mol
# GULP energy per Si atom -5568.007219 kJ/mol
# Density = 2.259473 g / cm^3
# Si number density = 22.646271 Si / 1000 Ang^3
#
#
#
# Elastic Constant Matrix: (Units=GPa)
#
#
# Indices 1 2 3 4 5 6 
#
# 1 157.3182 25.2238 65.7574 0.0000 -1.9073 0.0000
# 2 25.2238 17.9063 40.5356 0.0000 -0.1167 0.0000
# 3 65.7574 40.5356 214.0475 0.0000 -36.7664 0.0000
# 4 0.0000 0.0000 0.0000 17.2323 0.0000 -6.6878
# 5 -1.9073 -0.1167 -36.7664 0.0000 40.6239 0.0000
# 6 0.0000 0.0000 0.0000 -6.6878 0.0000 13.7504
#
#
#
# Elastic Compliance Matrix: (Units=1/GPa)
#
#
# Indices 1 2 3 4 5 6 
#
# 1 0.008254 -0.010148 -0.000654 0.000000 -0.000234 0.000000
# 2 -0.010148 0.125297 -0.024428 0.000000 -0.022225 0.000000
# 3 -0.000654 -0.024428 0.011227 0.000000 0.010060 0.000000
# 4 0.000000 0.000000 0.000000 0.071533 0.000000 0.034791
# 5 -0.000234 -0.022225 0.010060 0.000000 0.033646 0.000000
# 6 0.000000 0.000000 0.000000 0.034791 0.000000 0.089646
#
#
# Mechanical properties :
#
#
# Convention : Reuss Voigt Hill
#
# Bulk Modulus (GPa) = 13.45591 72.47841 42.96716
# Shear Modulus (GPa) = 11.49857 31.50500 21.50178
#
# Velocity S-wave (km/s) = 2.25577 3.73390 3.08468
# Velocity P-wave (km/s) = 3.56922 7.11782 5.63039
#
# Compressibility (1/GPa) = 0.07431679
#
# Stress axis : x y z
#
# Youngs Moduli (GPa) = 121.14983 7.98105 89.07176
#
# Poissons Ratio (x) = 0.08099 0.05826
# Poissons Ratio (y) = 1.22947 2.17586
# Poissons Ratio (z) = 0.07924 0.19496
#
# Static dielectric constant tensor:
#      x y z
#    x 1.853590 0.000000 -0.025360 
#    y 0.000000 1.911590 0.000000 
#    z -0.025360 0.000000 1.903180 
# 
# From -- ./inp_files/261001.got.cif
#   From: 2010.05.17/outbox.cif.g08.bks.cpg/sg15_131_cif.got.tgz:261001.got - 2010.06.03 18:47:42.
