data_PCOD9272498
_publ_section_title
;
Structure prediction by ZEFSAII (Michael W. Deem and Ramdas Pophale) SiO2 
 PCOD9272498
Probable space group: C 2/C
;
_chemical_formula_sum "Si O2"
_cell_formula_units_Z 56
_cell_length_a 12.247075
_cell_length_b 9.559121
_cell_length_c 21.719444
_cell_angle_alpha 90.000000
_cell_angle_beta 80.837917
_cell_angle_gamma 90.000000
_cell_volume 2510.282503
_symmetry_space_group_name_H-M "C 2/C"
_symmetry_group_IT_number 15
_symmetry_cell_setting 'monoclinic'
loop_
_space_group_symop_operation_xyz
x,y,z
-x,y,1/2-z
-x,-y,-z
x,-y,1/2+z
1/2+x,1/2+y,z
1/2-x,1/2+y,1/2-z
1/2-x,1/2-y,-z
1/2+x,1/2-y,1/2+z
loop_
_atom_site_type_symbol
_atom_site_label
_atom_site_fract_x
_atom_site_fract_y
_atom_site_fract_z
Si Si1 0.500000 0.637824 0.750000
Si Si2 0.151279 0.291125 0.463419
Si Si3 0.130642 0.388251 0.797673
Si Si4 0.397057 0.495853 0.556252
Si Si5 0.755188 0.069233 0.456865
Si Si6 0.054974 0.285833 0.927883
Si Si7 0.619911 0.613989 0.171888
Si Si8 0.500000 0.862437 0.250000
O O1 0.594028 0.748184 0.764092
O O2 0.443606 0.527056 0.802143
O O3 0.250000 0.250000 0.500000
O O4 0.195474 0.433542 0.431597
O O5 0.048970 0.309154 0.519139
O O6 0.123159 0.162348 0.420827
O O7 0.057961 0.377920 0.866855
O O8 0.259534 0.383340 0.805218
O O9 0.093426 0.530171 0.766923
O O10 0.500000 0.500000 0.500000
O O11 0.293460 0.531315 0.521410
O O12 0.423966 0.626364 0.596369
O O13 0.659714 0.182061 0.461539
O O14 0.854639 0.109717 0.403109
O O15 0.553556 0.753735 0.196457
#
# Coordination Sequence:
#
# PCOD9272498 Si02
#       8
#     4   8   8   8   8   8   8   4
#     4  10  22  38  68  84 120 158 198 270 308 358
#     4   9  19  35  55  81 123 158 195 239 288 364
#     4  10  22  41  64  92 120 157 209 254 314 371
#     4   9  19  35  55  81 123 158 195 239 288 364
#     4  10  20  37  57  86 121 160 201 244 303 366
#     4  10  20  37  57  86 121 160 201 244 303 366
#     4  10  22  41  64  92 120 157 209 254 314 371
#     4  10  22  46  64  88 124 158 202 270 316 366
#
# _framework density 22.308247000000001
#
# number of rings (size 3 to 8) (size 9 to 14) (size 15 to 20)
#    0.000    2.286    0.000    1.714    6.000    0.000 
#   23.143    1.429    0.000    0.000    0.000    0.000 
#    0.000    0.000    0.000    0.000    0.000    0.000 
#
# Total GULP energy -156118.653555 kJ/mol
# GULP energy per Si atom -5575.666198 kJ/mol
# Density = 2.225747 g / cm^3
# Si number density = 22.308247 Si / 1000 Ang^3
#
#
#
# Elastic Constant Matrix: (Units=GPa)
#
#
# Indices 1 2 3 4 5 6 
#
# 1 71.7143 15.9767 5.0572 0.0000 -3.6994 0.0000
# 2 15.9767 136.2882 13.3839 0.0000 -1.1340 0.0000
# 3 5.0572 13.3839 44.2618 0.0000 -10.6667 0.0000
# 4 0.0000 0.0000 0.0000 18.2622 0.0000 -8.7333
# 5 -3.6994 -1.1340 -10.6667 0.0000 31.1265 0.0000
# 6 0.0000 0.0000 0.0000 -8.7333 0.0000 16.8032
#
#
#
# Elastic Compliance Matrix: (Units=1/GPa)
#
#
# Indices 1 2 3 4 5 6 
#
# 1 0.014430 -0.001598 -0.000835 0.000000 0.001371 0.000000
# 2 -0.001598 0.007748 -0.002330 0.000000 -0.000706 0.000000
# 3 -0.000835 -0.002330 0.025450 0.000000 0.008537 0.000000
# 4 0.000000 0.000000 0.000000 0.072869 0.000000 0.037873
# 5 0.001371 -0.000706 0.008537 0.000000 0.035190 0.000000
# 6 0.000000 0.000000 0.000000 0.037873 0.000000 0.079197
#
#
# Mechanical properties :
#
#
# Convention : Reuss Voigt Hill
#
# Bulk Modulus (GPa) = 26.24635 35.67777 30.96206
# Shear Modulus (GPa) = 19.44683 27.76147 23.60415
#
# Velocity S-wave (km/s) = 2.95572 3.53150 3.25636
# Velocity P-wave (km/s) = 4.84140 5.71458 5.29602
#
# Compressibility (1/GPa) = 0.03810054
#
# Stress axis : x y z
#
# Youngs Moduli (GPa) = 69.30071 129.07033 39.29219
#
# Poissons Ratio (x) = 0.20627 0.03282
# Poissons Ratio (y) = 0.11075 0.09157
# Poissons Ratio (z) = 0.05788 0.30078
#
# Static dielectric constant tensor:
#      x y z
#    x 1.823780 0.000000 0.034410 
#    y 0.000000 1.781160 0.000000 
#    z 0.034410 0.000000 1.794200 
# 
# From -- ./inp_files/272705.got.cif
#   From: 2010.05.17/outbox.cif.g08.bks.cpg/sg15_137_cif.got.tgz:272705.got - 2010.06.03 18:47:42.
