data_PCOD9272270
_publ_section_title
;
Structure prediction by ZEFSAII (Michael W. Deem and Ramdas Pophale) SiO2 
 PCOD9272270
Probable space group: C 2/C
;
_chemical_formula_sum "Si O2"
_cell_formula_units_Z 48
_cell_length_a 10.083202
_cell_length_b 9.907407
_cell_length_c 24.990586
_cell_angle_alpha 90.000000
_cell_angle_beta 65.373236
_cell_angle_gamma 90.000000
_cell_volume 2269.439708
_symmetry_space_group_name_H-M "C 2/C"
_symmetry_group_IT_number 15
_symmetry_cell_setting 'monoclinic'
loop_
_space_group_symop_operation_xyz
x,y,z
-x,y,1/2-z
-x,-y,-z
x,-y,1/2+z
1/2+x,1/2+y,z
1/2-x,1/2+y,1/2-z
1/2-x,1/2-y,-z
1/2+x,1/2-y,1/2+z
loop_
_atom_site_type_symbol
_atom_site_label
_atom_site_fract_x
_atom_site_fract_y
_atom_site_fract_z
Si Si1 0.684954 0.369875 0.047049
Si Si2 0.148669 0.216513 0.890167
Si Si3 0.126498 0.605912 0.498078
Si Si4 0.111868 0.442516 0.809103
Si Si5 0.885616 0.691054 0.613587
Si Si6 0.286689 0.948322 0.827722
O O1 0.514787 0.344816 0.082037
O O2 0.736067 0.510965 0.012138
O O3 0.765860 0.359917 0.090466
O O4 0.750000 0.250000 0.000000
O O5 0.163377 0.293603 0.943896
O O6 0.165809 0.329323 0.841233
O O7 0.252738 0.092708 0.859098
O O8 0.000000 0.500000 0.500000
O O9 0.043849 0.682118 0.559408
O O10 0.116895 0.586923 0.837240
O O11 0.197254 0.452127 0.739053
O O12 0.944212 0.405346 0.823938
O O13 0.836605 0.840469 0.636862
#
# Coordination Sequence:
#
# PCOD9272270 Si02
#       6
#     8   8   8   8   8   8
#     4  11  19  37  68  97 127 167 208 253 323 387
#     4  12  22  42  68  93 131 166 214 262 319 387
#     4  10  20  36  66  97 126 172 198 259 331 371
#     4  11  23  47  64  85 135 169 214 270 316 367
#     4  11  21  41  67  94 128 170 211 258 326 379
#     4  11  27  40  65  97 119 174 223 263 309 379
#
# _framework density 21.150593000000001
#
# number of rings (size 3 to 8) (size 9 to 14) (size 15 to 20)
#    0.000    1.000    8.333    1.000    0.000    2.000 
#    0.000    1.667    0.000    0.000    0.000    0.000 
#    0.000    0.000    0.000    0.000    0.000    0.000 
#
# Total GULP energy -134261.663902 kJ/mol
# GULP energy per Si atom -5594.235996 kJ/mol
# Density = 2.110245 g / cm^3
# Si number density = 21.150593 Si / 1000 Ang^3
#
#
#
# Elastic Constant Matrix: (Units=GPa)
#
#
# Indices 1 2 3 4 5 6 
#
# 1 42.1034 15.3180 13.4302 0.0000 -2.8797 0.0000
# 2 15.3180 153.5535 75.7611 0.0000 -3.8423 0.0000
# 3 13.4302 75.7611 122.5087 0.0000 -3.4107 0.0000
# 4 0.0000 0.0000 0.0000 67.3626 0.0000 51.1129
# 5 -2.8797 -3.8423 -3.4107 0.0000 20.0991 0.0000
# 6 0.0000 0.0000 0.0000 51.1129 0.0000 81.1574
#
#
#
# Elastic Compliance Matrix: (Units=1/GPa)
#
#
# Indices 1 2 3 4 5 6 
#
# 1 0.025073 -0.001599 -0.001676 0.000000 0.003002 0.000000
# 2 -0.001599 0.009487 -0.005674 0.000000 0.000622 0.000000
# 3 -0.001676 -0.005674 0.011875 0.000000 0.000690 0.000000
# 4 0.000000 0.000000 0.000000 0.028432 0.000000 -0.017906
# 5 0.003002 0.000622 0.000690 0.000000 0.050420 0.000000
# 6 0.000000 0.000000 0.000000 -0.017906 0.000000 0.023599
#
#
# Mechanical properties :
#
#
# Convention : Reuss Voigt Hill
#
# Bulk Modulus (GPa) = 35.04407 58.57602 46.81005
# Shear Modulus (GPa) = 28.36131 47.96757 38.16444
#
# Velocity S-wave (km/s) = 3.66583 4.76742 4.25245
# Velocity P-wave (km/s) = 5.87559 7.61966 6.80374
#
# Compressibility (1/GPa) = 0.02853550
#
# Stress axis : x y z
#
# Youngs Moduli (GPa) = 39.88383 105.40618 84.21224
#
# Poissons Ratio (x) = 0.16855 0.14116
# Poissons Ratio (y) = 0.06378 0.47785
# Poissons Ratio (z) = 0.06685 0.59811
#
# Static dielectric constant tensor:
#      x y z
#    x 1.787120 0.000000 0.013380 
#    y 0.000000 1.763890 0.000000 
#    z 0.013380 0.000000 1.744410 
# 
# From -- ./inp_files/291045.got.cif
#   From: 2010.05.17/outbox.cif.g08.bks.cpg/sg15_146_cif.got.tgz:291045.got - 2010.06.03 18:47:42.
