data_PCOD9272611
_publ_section_title
;
Structure prediction by ZEFSAII (Michael W. Deem and Ramdas Pophale) SiO2 
 PCOD9272611
Probable space group: C 2/C
;
_chemical_formula_sum "Si O2"
_cell_formula_units_Z 40
_cell_length_a 12.623656
_cell_length_b 10.624573
_cell_length_c 16.191593
_cell_angle_alpha 90.000000
_cell_angle_beta 129.833377
_cell_angle_gamma 90.000000
_cell_volume 1667.618957
_symmetry_space_group_name_H-M "C 2/C"
_symmetry_group_IT_number 15
_symmetry_cell_setting 'monoclinic'
loop_
_space_group_symop_operation_xyz
x,y,z
-x,y,1/2-z
-x,-y,-z
x,-y,1/2+z
1/2+x,1/2+y,z
1/2-x,1/2+y,1/2-z
1/2-x,1/2-y,-z
1/2+x,1/2-y,1/2+z
loop_
_atom_site_type_symbol
_atom_site_label
_atom_site_fract_x
_atom_site_fract_y
_atom_site_fract_z
Si Si1 0.032956 0.327505 0.052203
Si Si2 0.808684 0.908451 0.801507
Si Si3 0.701360 0.354576 0.885220
Si Si4 0.731721 0.071880 0.906932
Si Si5 0.507768 0.924768 0.635878
O O1 0.093541 0.200201 0.115563
O O2 0.070918 0.445795 0.128207
O O3 0.867430 0.336381 0.967283
O O4 0.072479 0.354469 0.977720
O O5 0.841800 0.923562 0.720346
O O6 0.650005 0.855268 0.727579
O O7 0.812772 0.026424 0.866401
O O8 0.658743 0.208099 0.860602
O O9 0.679781 0.418302 0.963737
O O10 0.609967 0.971447 0.861617
#
# Coordination Sequence:
#
# PCOD9272611 Si02
#       5
#     8   8   8   8   8
#     4   9  19  36  58  83 116 152 193 245 293 347
#     4  11  20  33  61  88 114 153 195 243 296 342
#     4   9  21  39  58  85 117 155 201 239 290 361
#     4  10  20  37  59  81 115 153 196 242 287 352
#     4   9  19  37  58  83 115 155 196 235 294 360
#
# _framework density 23.986295999999999
#
# number of rings (size 3 to 8) (size 9 to 14) (size 15 to 20)
#    0.000    2.400    0.000    3.000    0.000    3.200 
#    0.000    3.000    0.000    4.800    0.000    0.000 
#    0.000    0.000    0.000    0.000    0.000    0.000 
#
# Total GULP energy -111625.296313 kJ/mol
# GULP energy per Si atom -5581.264816 kJ/mol
# Density = 2.393170 g / cm^3
# Si number density = 23.986296 Si / 1000 Ang^3
#
#
#
# Elastic Constant Matrix: (Units=GPa)
#
#
# Indices 1 2 3 4 5 6 
#
# 1 67.1458 24.6998 48.0824 0.0000 -26.8688 0.0000
# 2 24.6998 41.1085 59.1551 0.0000 -13.4320 0.0000
# 3 48.0824 59.1551 135.2113 0.0000 -39.8750 0.0000
# 4 0.0000 0.0000 0.0000 27.2921 0.0000 -7.1831
# 5 -26.8688 -13.4320 -39.8750 0.0000 55.0801 0.0000
# 6 0.0000 0.0000 0.0000 -7.1831 0.0000 35.6889
#
#
#
# Elastic Compliance Matrix: (Units=1/GPa)
#
#
# Indices 1 2 3 4 5 6 
#
# 1 0.022344 -0.007278 -0.002633 0.000000 0.007219 0.000000
# 2 -0.007278 0.069682 -0.030430 0.000000 -0.008587 0.000000
# 3 -0.002633 -0.030430 0.024257 0.000000 0.008856 0.000000
# 4 0.000000 0.000000 0.000000 0.038690 0.000000 0.007787
# 5 0.007219 -0.008587 0.008856 0.000000 0.025994 0.000000
# 6 0.000000 0.000000 0.000000 0.007787 0.000000 0.029587
#
#
# Mechanical properties :
#
#
# Convention : Reuss Voigt Hill
#
# Bulk Modulus (GPa) = 28.08909 56.37112 42.23010
# Shear Modulus (GPa) = 16.49598 31.04745 23.77172
#
# Velocity S-wave (km/s) = 2.62530 3.60166 3.15152
# Velocity P-wave (km/s) = 4.57444 6.39127 5.55760
#
# Compressibility (1/GPa) = 0.03560102
#
# Stress axis : x y z
#
# Youngs Moduli (GPa) = 44.75432 14.35084 41.22533
#
# Poissons Ratio (x) = 0.10445 0.10853
# Poissons Ratio (y) = 0.32573 1.25450
# Poissons Ratio (z) = 0.11782 0.43670
#
# Static dielectric constant tensor:
#      x y z
#    x 1.999080 0.000000 -0.028660 
#    y 0.000000 1.942910 0.000000 
#    z -0.028660 0.000000 2.055590 
# 
# From -- ./inp_files/203690.got.cif
#   From: 2010.05.17/outbox.cif.g08.bks.cpg/sg15_102_cif.got.tgz:203690.got - 2010.06.03 18:47:42.
