data_PCOD9272097
_publ_section_title
;
Structure prediction by ZEFSAII (Michael W. Deem and Ramdas Pophale) SiO2 
 PCOD9272097
Probable space group: C 2/C
;
_chemical_formula_sum "Si O2"
_cell_formula_units_Z 44
_cell_length_a 22.006912
_cell_length_b 7.673254
_cell_length_c 15.985005
_cell_angle_alpha 90.000000
_cell_angle_beta 125.356538
_cell_angle_gamma 90.000000
_cell_volume 2201.461479
_symmetry_space_group_name_H-M "C 2/C"
_symmetry_group_IT_number 15
_symmetry_cell_setting 'monoclinic'
loop_
_space_group_symop_operation_xyz
x,y,z
-x,y,1/2-z
-x,-y,-z
x,-y,1/2+z
1/2+x,1/2+y,z
1/2-x,1/2+y,1/2-z
1/2-x,1/2-y,-z
1/2+x,1/2-y,1/2+z
loop_
_atom_site_type_symbol
_atom_site_label
_atom_site_fract_x
_atom_site_fract_y
_atom_site_fract_z
Si Si1 0.249887 0.410967 0.564719
Si Si2 0.349504 0.843235 0.428891
Si Si3 0.500000 0.345348 0.750000
Si Si4 0.073539 0.189369 0.851040
Si Si5 0.370229 0.795219 0.255007
Si Si6 0.709640 0.861646 0.877534
O O1 0.250000 0.250000 0.500000
O O2 0.178603 0.463593 0.565349
O O3 0.316549 0.363410 0.681264
O O4 0.246135 0.567281 0.493255
O O5 0.405135 0.771884 0.543769
O O6 0.380960 0.814186 0.362259
O O7 0.273529 0.728429 0.374379
O O8 0.554294 0.483424 0.841558
O O9 0.552397 0.233329 0.731906
O O10 0.140653 0.235808 0.842612
O O11 0.000000 0.267882 0.750000
O O12 0.326775 0.969352 0.193517
#
# Coordination Sequence:
#
# PCOD9272097 Si02
#       6
#     8   8   4   8   8   8
#     4   9  19  37  60  87 117 156 197 245 299 352
#     4  11  20  37  63  92 117 153 208 253 295 349
#     4  10  22  38  58  76 130 164 198 236 316 360
#     4   9  21  39  60  81 116 168 199 237 310 373
#     4  11  22  35  59  93 121 153 201 256 298 358
#     4  10  20  36  64  84 117 156 202 246 304 360
#
# _framework density 19.986723000000001
#
# number of rings (size 3 to 8) (size 9 to 14) (size 15 to 20)
#    0.545    1.455    0.000    5.455    1.273    0.727 
#    0.000    0.909    8.000    0.000    0.000    0.000 
#    0.000    0.000    0.000    0.000    0.000    0.000 
#
# Total GULP energy -122517.449373 kJ/mol
# GULP energy per Si atom -5568.974971 kJ/mol
# Density = 1.994123 g / cm^3
# Si number density = 19.986723 Si / 1000 Ang^3
#
#
#
# Elastic Constant Matrix: (Units=GPa)
#
#
# Indices 1 2 3 4 5 6 
#
# 1 126.1013 34.7231 69.9480 0.0000 -6.8327 0.0000
# 2 34.7231 82.8820 33.2309 0.0000 3.2929 0.0000
# 3 69.9480 33.2309 122.2503 0.0000 -8.3936 0.0000
# 4 0.0000 0.0000 0.0000 17.7941 0.0000 -0.7771
# 5 -6.8327 3.2929 -8.3936 0.0000 34.5810 0.0000
# 6 0.0000 0.0000 0.0000 -0.7771 0.0000 21.0804
#
#
#
# Elastic Compliance Matrix: (Units=1/GPa)
#
#
# Indices 1 2 3 4 5 6 
#
# 1 0.012132 -0.002668 -0.006136 0.000000 0.001162 0.000000
# 2 -0.002668 0.014298 -0.002532 0.000000 -0.002503 0.000000
# 3 -0.006136 -0.002532 0.012521 0.000000 0.002068 0.000000
# 4 0.000000 0.000000 0.000000 0.056289 0.000000 0.002075
# 5 0.001162 -0.002503 0.002068 0.000000 0.029887 0.000000
# 6 0.000000 0.000000 0.000000 0.002075 0.000000 0.047514
#
#
# Mechanical properties :
#
#
# Convention : Reuss Voigt Hill
#
# Bulk Modulus (GPa) = 61.43285 67.44862 64.44074
# Shear Modulus (GPa) = 24.90795 27.57987 26.24391
#
# Velocity S-wave (km/s) = 3.53402 3.71874 3.62756
# Velocity P-wave (km/s) = 6.88883 7.22902 7.06097
#
# Compressibility (1/GPa) = 0.01627794
#
# Stress axis : x y z
#
# Youngs Moduli (GPa) = 82.42938 69.94115 79.86549
#
# Poissons Ratio (x) = 0.18663 0.49007
# Poissons Ratio (y) = 0.21995 0.20219
# Poissons Ratio (z) = 0.50581 0.17706
#
# Static dielectric constant tensor:
#      x y z
#    x 1.730700 0.000000 0.017920 
#    y 0.000000 1.810740 0.000000 
#    z 0.017920 0.000000 1.745050 
# 
# From -- ./inp_files/166468.got.cif
#   From: 2010.05.17/outbox.cif.g08.bks.cpg/sg15_84_cif.got.tgz:166468.got - 2010.06.03 18:47:42.
