data_PCOD9272829
_publ_section_title
;
Structure prediction by ZEFSAII (Michael W. Deem and Ramdas Pophale) SiO2 
 PCOD9272829
Probable space group: C 2/C
;
_chemical_formula_sum "Si O2"
_cell_formula_units_Z 56
_cell_length_a 32.496348
_cell_length_b 13.538469
_cell_length_c 13.582183
_cell_angle_alpha 90.000000
_cell_angle_beta 28.276627
_cell_angle_gamma 90.000000
_cell_volume 2830.763929
_symmetry_space_group_name_H-M "C 2/C"
_symmetry_group_IT_number 15
_symmetry_cell_setting 'monoclinic'
loop_
_space_group_symop_operation_xyz
x,y,z
-x,y,1/2-z
-x,-y,-z
x,-y,1/2+z
1/2+x,1/2+y,z
1/2-x,1/2+y,1/2-z
1/2-x,1/2-y,-z
1/2+x,1/2-y,1/2+z
loop_
_atom_site_type_symbol
_atom_site_label
_atom_site_fract_x
_atom_site_fract_y
_atom_site_fract_z
Si Si1 0.184748 0.157998 0.148028
Si Si2 0.731906 0.135847 0.027427
Si Si3 0.461885 0.136162 0.101315
Si Si4 0.143887 0.012425 0.591322
Si Si5 0.002003 0.170185 0.863502
Si Si6 0.448007 0.051712 0.761655
Si Si7 0.248920 0.507792 0.329840
O O1 0.095238 0.181384 0.391679
O O2 0.231777 0.080997 0.121096
O O3 0.155384 0.097384 0.112140
O O4 0.250000 0.250000 0.000000
O O5 0.793005 0.078813 0.974369
O O6 0.750802 0.099234 0.876669
O O7 0.750000 0.250000 0.000000
O O8 0.630184 0.111877 0.256191
O O9 0.450579 0.239271 0.181393
O O10 0.479671 0.051157 0.144527
O O11 0.534322 0.130396 0.863228
O O12 0.181193 0.015846 0.402783
O O13 0.050080 0.066793 0.789039
O O14 0.000000 0.180643 0.750000
O O15 0.500000 0.076115 0.750000
O O16 0.347903 0.034444 0.999919
#
# Coordination Sequence:
#
# PCOD9272829 Si02
#       7
#     8   8   8   8   8   8   8
#     4  11  25  43  66  95 129 171 221 276 326 391
#     4  10  20  38  62  89 126 168 214 265 328 393
#     4  10  21  36  61  95 124 170 217 273 333 403
#     4  11  23  42  66  92 130 173 219 270 330 402
#     4  12  23  41  68  93 131 173 223 272 338 404
#     4  10  20  37  60  90 132 166 215 276 338 392
#     4  10  22  39  62  92 123 168 213 264 329 393
#
# _framework density 19.782646
#
# number of rings (size 3 to 8) (size 9 to 14) (size 15 to 20)
#    0.000    1.429    2.857    2.571    0.000    6.857 
#    0.000    1.429    0.000    0.857    0.000    0.000 
#    0.000    0.000    0.000    0.000    0.000    0.000 
#
# Total GULP energy -156237.402801 kJ/mol
# GULP energy per Si atom -5579.907243 kJ/mol
# Density = 1.973762 g / cm^3
# Si number density = 19.782646 Si / 1000 Ang^3
#
#
#
# Elastic Constant Matrix: (Units=GPa)
#
#
# Indices 1 2 3 4 5 6 
#
# 1 76.9690 29.0012 26.6261 0.0000 0.6288 0.0000
# 2 29.0012 86.8278 37.8236 0.0000 9.0649 0.0000
# 3 26.6261 37.8236 108.3427 0.0000 1.4135 0.0000
# 4 0.0000 0.0000 0.0000 22.1194 0.0000 -5.4849
# 5 0.6288 9.0649 1.4135 0.0000 29.7577 0.0000
# 6 0.0000 0.0000 0.0000 -5.4849 0.0000 25.7700
#
#
#
# Elastic Compliance Matrix: (Units=1/GPa)
#
#
# Indices 1 2 3 4 5 6 
#
# 1 0.015382 -0.004243 -0.002313 0.000000 0.001077 0.000000
# 2 -0.004243 0.015224 -0.004216 0.000000 -0.004348 0.000000
# 3 -0.002313 -0.004216 0.011260 0.000000 0.000798 0.000000
# 4 0.000000 0.000000 0.000000 0.047728 0.000000 0.010159
# 5 0.001077 -0.004348 0.000798 0.000000 0.034868 0.000000
# 6 0.000000 0.000000 0.000000 0.010159 0.000000 0.040967
#
#
# Mechanical properties :
#
#
# Convention : Reuss Voigt Hill
#
# Bulk Modulus (GPa) = 49.20404 51.00459 50.10431
# Shear Modulus (GPa) = 25.80677 27.44199 26.62438
#
# Velocity S-wave (km/s) = 3.61573 3.72852 3.67256
# Velocity P-wave (km/s) = 6.50827 6.66140 6.58528
#
# Compressibility (1/GPa) = 0.02032354
#
# Stress axis : x y z
#
# Youngs Moduli (GPa) = 65.01010 65.68390 88.81169
#
# Poissons Ratio (x) = 0.27867 0.20544
# Poissons Ratio (y) = 0.27581 0.37440
# Poissons Ratio (z) = 0.15038 0.27690
#
# Static dielectric constant tensor:
#      x y z
#    x 1.717780 0.000000 -0.005720 
#    y 0.000000 1.738190 0.000000 
#    z -0.005720 0.000000 1.766680 
# 
# From -- ./inp_files/127000.got.cif
#   From: 2010.05.17/outbox.cif.g08.bks.cpg/sg15_64_cif.got.tgz:127000.got - 2010.06.03 18:47:42.
