data_PCOD9272999
_publ_section_title
;
Structure prediction by ZEFSAII (Michael W. Deem and Ramdas Pophale) SiO2 
 PCOD9272999
Probable space group: C 2/C
;
_chemical_formula_sum "Si O2"
_cell_formula_units_Z 64
_cell_length_a 17.597501
_cell_length_b 8.214763
_cell_length_c 29.680212
_cell_angle_alpha 90.000000
_cell_angle_beta 142.005112
_cell_angle_gamma 90.000000
_cell_volume 2641.225090
_symmetry_space_group_name_H-M "C 2/C"
_symmetry_group_IT_number 15
_symmetry_cell_setting 'monoclinic'
loop_
_space_group_symop_operation_xyz
x,y,z
-x,y,1/2-z
-x,-y,-z
x,-y,1/2+z
1/2+x,1/2+y,z
1/2-x,1/2+y,1/2-z
1/2-x,1/2-y,-z
1/2+x,1/2-y,1/2+z
loop_
_atom_site_type_symbol
_atom_site_label
_atom_site_fract_x
_atom_site_fract_y
_atom_site_fract_z
Si Si1 0.373317 0.527292 0.891261
Si Si2 0.458765 0.366742 0.179390
Si Si3 0.402774 0.708503 0.475519
Si Si4 0.427316 0.735808 0.168675
Si Si5 0.844914 0.225412 0.800770
Si Si6 0.457461 0.028515 0.061064
Si Si7 0.924246 0.779535 0.853219
Si Si8 0.696043 0.949749 0.924374
O O1 0.456730 0.644160 0.960822
O O2 0.290551 0.632141 0.819575
O O3 0.461456 0.444618 0.894888
O O4 0.330134 0.375024 0.900533
O O5 0.500000 0.344123 0.250000
O O6 0.390990 0.543902 0.147318
O O7 0.578142 0.369246 0.201923
O O8 0.384066 0.205357 0.130322
O O9 0.410112 0.894774 0.492611
O O10 0.332005 0.622758 0.484008
O O11 0.500000 0.754515 0.250000
O O12 0.516362 0.756899 0.167052
O O13 0.329461 0.883718 0.116032
O O14 0.941223 0.352061 0.867931
O O15 0.722664 0.292361 0.720567
O O16 0.346203 0.013500 0.044589
O O17 0.528700 0.860359 0.091424
#
# Coordination Sequence:
#
# PCOD9272999 Si02
#       8
#     8   8   8   8   8   8   8   8
#     4  10  22  39  59  86 120 152 204 245 299 368
#     4  10  21  38  58  91 126 152 200 256 298 367
#     4  10  22  41  59  83 118 165 198 248 294 363
#     4  10  22  39  58  93 126 152 202 251 299 373
#     4  10  20  37  62  85 121 155 191 250 313 361
#     4   9  21  38  57  88 115 152 205 245 295 362
#     4  11  21  37  62  89 118 157 194 253 311 355
#     4  10  21  39  64  83 119 165 201 247 307 353
#
# _framework density 24.231179999999998
#
# number of rings (size 3 to 8) (size 9 to 14) (size 15 to 20)
#    0.000    2.000    1.250    1.500    3.500    0.500 
#    2.250    1.250    0.000    0.000    0.000    0.000 
#    0.000    0.000    0.000    0.000    0.000    0.000 
#
# Total GULP energy -178386.417872 kJ/mol
# GULP energy per Si atom -5574.575559 kJ/mol
# Density = 2.417603 g / cm^3
# Si number density = 24.231180 Si / 1000 Ang^3
#
#
#
# Elastic Constant Matrix: (Units=GPa)
#
#
# Indices 1 2 3 4 5 6 
#
# 1 46.3430 -10.1732 12.9231 0.0000 -4.6601 0.0000
# 2 -10.1732 68.6394 21.0261 0.0000 -0.7857 0.0000
# 3 12.9231 21.0261 60.4230 0.0000 -5.6404 0.0000
# 4 0.0000 0.0000 0.0000 30.1540 0.0000 -11.8594
# 5 -4.6601 -0.7857 -5.6404 0.0000 32.0659 0.0000
# 6 0.0000 0.0000 0.0000 -11.8594 0.0000 24.9939
#
#
#
# Elastic Compliance Matrix: (Units=1/GPa)
#
#
# Indices 1 2 3 4 5 6 
#
# 1 0.025157 0.005970 -0.007222 0.000000 0.002532 0.000000
# 2 0.005970 0.017735 -0.007449 0.000000 -0.000008 0.000000
# 3 -0.007222 -0.007449 0.020915 0.000000 0.002447 0.000000
# 4 0.000000 0.000000 0.000000 0.040772 0.000000 0.019346
# 5 0.002532 -0.000008 0.002447 0.000000 0.031984 0.000000
# 6 0.000000 0.000000 0.000000 0.019346 0.000000 0.049189
#
#
# Mechanical properties :
#
#
# Convention : Reuss Voigt Hill
#
# Bulk Modulus (GPa) = 21.54908 24.77306 23.16107
# Shear Modulus (GPa) = 22.87041 27.55138 25.21090
#
# Velocity S-wave (km/s) = 3.07553 3.37563 3.22907
# Velocity P-wave (km/s) = 4.63943 5.04371 4.84579
#
# Compressibility (1/GPa) = 0.04640569
#
# Stress axis : x y z
#
# Youngs Moduli (GPa) = 39.75027 56.38420 47.81233
#
# Poissons Ratio (x) = -0.33660 0.34528
# Poissons Ratio (y) = -0.23730 0.35616
# Poissons Ratio (z) = 0.28706 0.42002
#
# Static dielectric constant tensor:
#      x y z
#    x 1.970000 0.000000 -0.032110 
#    y 0.000000 1.991830 0.000000 
#    z -0.032110 0.000000 1.911080 
# 
# From -- ./inp_files/315750.got.cif
#   From: 2010.05.17/outbox.cif.g08.bks.cpg/sg15_158_cif.got.tgz:315750.got - 2010.06.03 18:47:42.
