data_PCOD9272629
_publ_section_title
;
Structure prediction by ZEFSAII (Michael W. Deem and Ramdas Pophale) SiO2 
 PCOD9272629
Probable space group: C 2/C
;
_chemical_formula_sum "Si O2"
_cell_formula_units_Z 56
_cell_length_a 17.553026
_cell_length_b 13.421531
_cell_length_c 17.355652
_cell_angle_alpha 90.000000
_cell_angle_beta 42.051117
_cell_angle_gamma 90.000000
_cell_volume 2738.645479
_symmetry_space_group_name_H-M "C 2/C"
_symmetry_group_IT_number 15
_symmetry_cell_setting 'monoclinic'
loop_
_space_group_symop_operation_xyz
x,y,z
-x,y,1/2-z
-x,-y,-z
x,-y,1/2+z
1/2+x,1/2+y,z
1/2-x,1/2+y,1/2-z
1/2-x,1/2-y,-z
1/2+x,1/2-y,1/2+z
loop_
_atom_site_type_symbol
_atom_site_label
_atom_site_fract_x
_atom_site_fract_y
_atom_site_fract_z
Si Si1 0.929974 0.806571 0.609872
Si Si2 0.154046 0.333207 0.556632
Si Si3 0.773344 0.024213 0.181727
Si Si4 0.103957 0.674477 0.266085
Si Si5 0.376909 0.294304 0.823087
Si Si6 0.825629 0.862687 0.020642
Si Si7 0.772181 0.359324 0.159984
O O1 0.883686 0.829455 0.730687
O O2 0.878268 0.701650 0.619267
O O3 0.065446 0.816071 0.516310
O O4 0.875076 0.895519 0.602235
O O5 0.250000 0.250000 0.500000
O O6 0.128956 0.369826 0.661680
O O7 0.196578 0.393825 0.450247
O O8 0.027654 0.298845 0.626262
O O9 0.785950 0.959936 0.094926
O O10 0.772861 0.945814 0.251609
O O11 0.657922 0.088554 0.277744
O O12 0.176627 0.773937 0.223455
O O13 0.500000 0.246801 0.750000
O O14 0.277178 0.214741 0.900889
O O15 0.358657 0.373375 0.905697
#
# Coordination Sequence:
#
# PCOD9272629 Si02
#       7
#     8   8   8   8   8   8   8
#     4  10  21  37  58  87 119 145 199 241 280 354
#     4   9  19  40  62  81 112 158 191 238 288 339
#     4  11  22  36  57  90 119 149 190 243 292 340
#     4   9  21  40  59  85 120 148 198 240 279 355
#     4   9  19  38  60  82 115 156 194 231 286 351
#     4  10  20  37  59  84 114 159 188 232 294 344
#     4  10  21  36  61  87 114 154 191 237 300 335
#
# _framework density 20.448063999999999
#
# number of rings (size 3 to 8) (size 9 to 14) (size 15 to 20)
#    0.000    2.286    1.429    0.429    2.000    1.714 
#    5.143    0.000    6.286    0.000    0.000    0.000 
#    0.000    0.000    0.000    0.000    0.000    0.000 
#
# Total GULP energy -155954.025859 kJ/mol
# GULP energy per Si atom -5569.786638 kJ/mol
# Density = 2.040152 g / cm^3
# Si number density = 20.448064 Si / 1000 Ang^3
#
#
#
# Elastic Constant Matrix: (Units=GPa)
#
#
# Indices 1 2 3 4 5 6 
#
# 1 74.7886 15.3361 23.1950 0.0000 -17.6477 0.0000
# 2 15.3361 32.8070 8.6330 0.0000 -2.0114 0.0000
# 3 23.1950 8.6330 78.2987 0.0000 -7.6912 0.0000
# 4 0.0000 0.0000 0.0000 16.4672 0.0000 5.2153
# 5 -17.6477 -2.0114 -7.6912 0.0000 44.3220 0.0000
# 6 0.0000 0.0000 0.0000 5.2153 0.0000 18.4604
#
#
#
# Elastic Compliance Matrix: (Units=1/GPa)
#
#
# Indices 1 2 3 4 5 6 
#
# 1 0.017334 -0.006737 -0.003809 0.000000 0.005935 0.000000
# 2 -0.006737 0.034041 -0.001902 0.000000 -0.001468 0.000000
# 3 -0.003809 -0.001902 0.014194 0.000000 0.000860 0.000000
# 4 0.000000 0.000000 0.000000 0.066694 0.000000 -0.018842
# 5 0.005935 -0.001468 0.000860 0.000000 0.025008 0.000000
# 6 0.000000 0.000000 0.000000 -0.018842 0.000000 0.059493
#
#
# Mechanical properties :
#
#
# Convention : Reuss Voigt Hill
#
# Bulk Modulus (GPa) = 24.58582 31.13581 27.86081
# Shear Modulus (GPa) = 19.59100 25.09859 22.34480
#
# Velocity S-wave (km/s) = 3.09865 3.50727 3.30928
# Velocity P-wave (km/s) = 4.98516 5.62682 5.31568
#
# Compressibility (1/GPa) = 0.04067386
#
# Stress axis : x y z
#
# Youngs Moduli (GPa) = 57.68858 29.37630 70.45120
#
# Poissons Ratio (x) = 0.19791 0.26837
# Poissons Ratio (y) = 0.38864 0.13398
# Poissons Ratio (z) = 0.21975 0.05587
#
# Static dielectric constant tensor:
#      x y z
#    x 1.782880 0.000000 0.023590 
#    y 0.000000 1.676700 0.000000 
#    z 0.023590 0.000000 1.770810 
# 
# From -- ./inp_files/211203.got.cif
#   From: 2010.05.17/outbox.cif.g08.bks.cpg/sg15_106_cif.got.tgz:211203.got - 2010.06.03 18:47:42.
