data_PCOD9272828
_publ_section_title
;
Structure prediction by ZEFSAII (Michael W. Deem and Ramdas Pophale) SiO2 
 PCOD9272828
Probable space group: C 2/C
;
_chemical_formula_sum "Si O2"
_cell_formula_units_Z 48
_cell_length_a 28.210158
_cell_length_b 9.009986
_cell_length_c 17.971881
_cell_angle_alpha 90.000000
_cell_angle_beta 27.041920
_cell_angle_gamma 90.000000
_cell_volume 2076.791923
_symmetry_space_group_name_H-M "C 2/C"
_symmetry_group_IT_number 15
_symmetry_cell_setting 'monoclinic'
loop_
_space_group_symop_operation_xyz
x,y,z
-x,y,1/2-z
-x,-y,-z
x,-y,1/2+z
1/2+x,1/2+y,z
1/2-x,1/2+y,1/2-z
1/2-x,1/2-y,-z
1/2+x,1/2-y,1/2+z
loop_
_atom_site_type_symbol
_atom_site_label
_atom_site_fract_x
_atom_site_fract_y
_atom_site_fract_z
Si Si1 0.421881 0.915952 0.665093
Si Si2 0.852652 0.832607 0.070121
Si Si3 0.479069 0.668612 0.047164
Si Si4 0.323864 0.139430 0.445607
Si Si5 0.792012 0.845044 0.616624
Si Si6 0.249122 0.319131 0.919099
O O1 0.468343 0.752171 0.594589
O O2 0.406374 0.938274 0.774358
O O3 0.307447 0.916253 0.788277
O O4 0.500000 0.000000 0.500000
O O5 0.759573 0.764848 0.251026
O O6 0.837790 0.758145 0.010679
O O7 0.847445 0.010925 0.072262
O O8 0.957111 0.789706 0.967565
O O9 0.360772 0.711695 0.225874
O O10 0.500000 0.500000 0.000000
O O11 0.250000 0.250000 0.500000
O O12 0.356475 0.244415 0.468508
O O13 0.262399 0.997080 0.562721
O O14 0.250000 0.250000 0.000000
#
# Coordination Sequence:
#
# PCOD9272828 Si02
#       6
#     8   8   8   8   8   8
#     4  10  20  37  62  90 122 164 210 263 328 392
#     4  11  23  39  66  97 131 175 223 275 341 407
#     4  11  23  41  67  95 127 169 220 273 332 401
#     4  10  20  38  64  92 125 169 216 268 333 399
#     4  10  20  37  60  90 126 165 211 267 325 393
#     4  12  24  42  66  94 131 174 219 276 335 398
#
# _framework density 23.112570999999999
#
# number of rings (size 3 to 8) (size 9 to 14) (size 15 to 20)
#    0.000    1.333    0.000    9.000    0.000    0.667 
#    0.000    0.000    0.000   30.000    0.000    0.000 
#    0.000    0.000    0.000    0.000    0.000    0.000 
#
# Total GULP energy -134107.421222 kJ/mol
# GULP energy per Si atom -5587.809218 kJ/mol
# Density = 2.305997 g / cm^3
# Si number density = 23.112571 Si / 1000 Ang^3
#
#
#
# Elastic Constant Matrix: (Units=GPa)
#
#
# Indices 1 2 3 4 5 6 
#
# 1 105.9521 17.9570 31.4313 0.0003 17.4984 -0.0001
# 2 17.9570 101.6218 -0.8953 0.0005 7.5962 -0.0004
# 3 31.4313 -0.8953 62.8125 0.0006 -1.4359 -0.0004
# 4 0.0003 0.0005 0.0006 40.4928 -0.0004 11.5324
# 5 17.4984 7.5962 -1.4359 -0.0004 28.8619 0.0002
# 6 -0.0001 -0.0004 -0.0004 11.5324 0.0002 40.6896
#
#
#
# Elastic Compliance Matrix: (Units=1/GPa)
#
#
# Indices 1 2 3 4 5 6 
#
# 1 0.013012 -0.001779 -0.006714 0.000000 -0.007755 0.000000
# 2 -0.001779 0.010281 0.001001 0.000000 -0.001578 0.000000
# 3 -0.006714 0.001001 0.019403 0.000000 0.004772 0.000000
# 4 0.000000 0.000000 0.000000 0.026864 0.000001 -0.007614
# 5 -0.007755 -0.001578 0.004772 0.000001 0.040002 0.000000
# 6 0.000000 0.000000 0.000000 -0.007614 0.000000 0.026734
#
#
# Mechanical properties :
#
#
# Convention : Reuss Voigt Hill
#
# Bulk Modulus (GPa) = 36.08436 40.81915 38.45176
# Shear Modulus (GPa) = 31.14888 36.80176 33.97532
#
# Velocity S-wave (km/s) = 3.67509 3.99467 3.83821
# Velocity P-wave (km/s) = 5.80127 6.24307 6.02622
#
# Compressibility (1/GPa) = 0.02771283
#
# Stress axis : x y z
#
# Youngs Moduli (GPa) = 76.85116 97.26229 51.53740
#
# Poissons Ratio (x) = 0.17301 0.34602
# Poissons Ratio (y) = 0.13670 -0.05157
# Poissons Ratio (z) = 0.51597 -0.09732
#
# Static dielectric constant tensor:
#      x y z
#    x 1.907760 0.000000 0.008970 
#    y 0.000000 1.853800 0.000000 
#    z 0.008970 0.000000 1.957770 
# 
# From -- ./inp_files/224510.got.cif
#   From: 2010.05.17/outbox.cif.g08.bks.cpg/sg15_113_cif.got.tgz:224510.got - 2010.06.03 18:47:42.
