data_PCOD9272496
_publ_section_title
;
Structure prediction by ZEFSAII (Michael W. Deem and Ramdas Pophale) SiO2 
 PCOD9272496
Probable space group: C 2/C
;
_chemical_formula_sum "Si O2"
_cell_formula_units_Z 64
_cell_length_a 19.714616
_cell_length_b 12.122108
_cell_length_c 17.486954
_cell_angle_alpha 90.000000
_cell_angle_beta 124.181407
_cell_angle_gamma 90.000000
_cell_volume 3457.197607
_symmetry_space_group_name_H-M "C 2/C"
_symmetry_group_IT_number 15
_symmetry_cell_setting 'monoclinic'
loop_
_space_group_symop_operation_xyz
x,y,z
-x,y,1/2-z
-x,-y,-z
x,-y,1/2+z
1/2+x,1/2+y,z
1/2-x,1/2+y,1/2-z
1/2-x,1/2-y,-z
1/2+x,1/2-y,1/2+z
loop_
_atom_site_type_symbol
_atom_site_label
_atom_site_fract_x
_atom_site_fract_y
_atom_site_fract_z
Si Si1 0.432255 0.712600 0.656216
Si Si2 0.460133 0.313761 0.003014
Si Si3 0.324122 0.588554 0.693190
Si Si4 0.085530 0.559615 0.540925
Si Si5 0.795820 0.047831 0.400271
Si Si6 0.304820 0.887281 0.514697
Si Si7 0.647504 0.321748 0.118803
Si Si8 0.781778 0.413116 0.806423
O O1 0.500000 0.774042 0.750000
O O2 0.471635 0.680933 0.601574
O O3 0.400475 0.610266 0.686115
O O4 0.355755 0.788053 0.583777
O O5 0.552519 0.329110 0.031867
O O6 0.428734 0.190961 0.962269
O O7 0.386148 0.399407 0.943179
O O8 0.249152 0.638296 0.595158
O O9 0.341108 0.647432 0.784185
O O10 0.295866 0.465023 0.697291
O O11 0.124875 0.537966 0.481241
O O12 0.149118 0.507294 0.640730
O O13 0.000000 0.500000 0.500000
O O14 0.755798 0.070961 0.457529
O O15 0.741037 0.097252 0.296905
O O16 0.803322 0.916896 0.393607
O O17 0.683338 0.198807 0.135786
#
# Coordination Sequence:
#
# PCOD9272496 Si02
#       8
#     8   8   8   8   8   8   8   8
#     4  11  20  32  59  86 118 148 189 251 300 340
#     4  11  22  36  61  87 118 148 201 244 296 345
#     4  10  20  37  57  86 117 151 192 245 296 339
#     4  10  21  39  60  86 114 156 187 245 298 355
#     4  11  24  36  60  88 121 150 198 253 285 349
#     4  10  22  35  58  89 115 150 197 247 294 337
#     4  11  22  39  58  87 117 161 195 232 296 361
#     4  10  23  37  60  85 118 156 200 234 295 357
#
# _framework density 18.512103
#
# number of rings (size 3 to 8) (size 9 to 14) (size 15 to 20)
#    0.000    1.500    3.750    1.500   10.500    0.000 
#    0.000    2.500    0.000    0.000    0.000    0.000 
#    0.000    0.000    0.000    0.000    0.000    0.000 
#
# Total GULP energy -178207.011676 kJ/mol
# GULP energy per Si atom -5568.969115 kJ/mol
# Density = 1.846997 g / cm^3
# Si number density = 18.512103 Si / 1000 Ang^3
#
#
#
# Elastic Constant Matrix: (Units=GPa)
#
#
# Indices 1 2 3 4 5 6 
#
# 1 77.6706 34.6328 19.1518 0.0000 8.4545 0.0000
# 2 34.6328 75.7659 17.9631 0.0000 7.2869 0.0000
# 3 19.1518 17.9631 93.6834 0.0000 6.6904 0.0000
# 4 0.0000 0.0000 0.0000 20.5766 0.0000 5.7957
# 5 8.4545 7.2869 6.6904 0.0000 21.4385 0.0000
# 6 0.0000 0.0000 0.0000 5.7957 0.0000 20.5834
#
#
#
# Elastic Compliance Matrix: (Units=1/GPa)
#
#
# Indices 1 2 3 4 5 6 
#
# 1 0.016805 -0.006886 -0.001850 0.000000 -0.003709 0.000000
# 2 -0.006886 0.016986 -0.001668 0.000000 -0.002537 0.000000
# 3 -0.001850 -0.001668 0.011537 0.000000 -0.002304 0.000000
# 4 0.000000 0.000000 0.000000 0.052785 0.000000 -0.014863
# 5 -0.003709 -0.002537 -0.002304 0.000000 0.049689 0.000000
# 6 0.000000 0.000000 0.000000 -0.014863 0.000000 0.052768
#
#
# Mechanical properties :
#
#
# Convention : Reuss Voigt Hill
#
# Bulk Modulus (GPa) = 40.78474 43.40170 42.09322
# Shear Modulus (GPa) = 21.78152 24.21119 22.99635
#
# Velocity S-wave (km/s) = 3.43390 3.62035 3.52836
# Velocity P-wave (km/s) = 6.14828 6.40093 6.27588
#
# Compressibility (1/GPa) = 0.02451898
#
# Stress axis : x y z
#
# Youngs Moduli (GPa) = 59.50439 58.87266 86.67890
#
# Poissons Ratio (x) = 0.40542 0.16038
# Poissons Ratio (y) = 0.40977 0.14457
# Poissons Ratio (z) = 0.11010 0.09819
#
# Static dielectric constant tensor:
#      x y z
#    x 1.704910 0.000000 0.048520 
#    y 0.000000 1.646880 0.000000 
#    z 0.048520 0.000000 1.670320 
# 
# From -- ./inp_files/215085.got.cif
#   From: 2010.05.17/outbox.cif.g08.bks.cpg/sg15_108_cif.got.tgz:215085.got - 2010.06.03 18:47:42.
