data_PCOD9272417
_publ_section_title
;
Structure prediction by ZEFSAII (Michael W. Deem and Ramdas Pophale) SiO2 
 PCOD9272417
Probable space group: C 2/C
;
_chemical_formula_sum "Si O2"
_cell_formula_units_Z 36
_cell_length_a 10.009539
_cell_length_b 24.213159
_cell_length_c 7.268746
_cell_angle_alpha 90.000000
_cell_angle_beta 89.861054
_cell_angle_gamma 90.000000
_cell_volume 1761.666703
_symmetry_space_group_name_H-M "C 2/C"
_symmetry_group_IT_number 15
_symmetry_cell_setting 'monoclinic'
loop_
_space_group_symop_operation_xyz
x,y,z
-x,y,1/2-z
-x,-y,-z
x,-y,1/2+z
1/2+x,1/2+y,z
1/2-x,1/2+y,1/2-z
1/2-x,1/2-y,-z
1/2+x,1/2-y,1/2+z
loop_
_atom_site_type_symbol
_atom_site_label
_atom_site_fract_x
_atom_site_fract_y
_atom_site_fract_z
Si Si1 0.391618 0.368433 0.392166
Si Si2 0.264120 0.258891 0.279132
Si Si3 0.000000 0.197608 0.250000
Si Si4 0.000000 0.494100 0.250000
Si Si5 0.866108 0.420438 0.950823
Si Si6 0.000000 0.678987 0.250000
O O1 0.500000 0.392108 0.250000
O O2 0.313013 0.321677 0.272349
O O3 0.458931 0.339076 0.571771
O O4 0.279713 0.409350 0.470485
O O5 0.250000 0.250000 0.500000
O O6 0.124432 0.237330 0.202974
O O7 0.379169 0.219351 0.199360
O O8 0.039617 0.452429 0.409278
O O9 0.123648 0.536422 0.217960
O O10 0.934115 0.362365 0.897823
#
# Coordination Sequence:
#
# PCOD9272417 Si02
#       6
#     8   8   4   4   8   4
#     4  11  23  41  61  94 137 171 215 254 320 397
#     4  10  20  37  55  93 134 171 208 245 305 395
#     4  10  22  39  58  89 137 178 207 252 312 372
#     4   9  22  43  68  88 120 156 227 289 316 374
#     4  10  21  41  65  94 119 164 219 274 324 372
#     4  11  18  36  68  87 133 166 200 271 304 388
#
# _framework density 20.435195
#
# number of rings (size 3 to 8) (size 9 to 14) (size 15 to 20)
#    0.000    1.778    5.556    0.000    0.000    3.556 
#    4.000    1.111    0.000    0.000    0.000    0.000 
#    0.000    0.000    0.000    0.000    0.000    0.000 
#
# Total GULP energy -100327.440513 kJ/mol
# GULP energy per Si atom -5573.746695 kJ/mol
# Density = 2.038868 g / cm^3
# Si number density = 20.435195 Si / 1000 Ang^3
#
#
#
# Elastic Constant Matrix: (Units=GPa)
#
#
# Indices 1 2 3 4 5 6 
#
# 1 150.9379 39.6398 36.0943 0.0000 -28.0414 0.0000
# 2 39.6398 71.0463 27.6295 0.0000 -10.8738 0.0000
# 3 36.0943 27.6295 76.2410 0.0000 -18.0106 0.0000
# 4 0.0000 0.0000 0.0000 -1.4614 0.0000 9.8225
# 5 -28.0414 -10.8738 -18.0106 0.0000 39.8187 0.0000
# 6 0.0000 0.0000 0.0000 9.8225 0.0000 23.8107
#
#
#
# Elastic Compliance Matrix: (Units=1/GPa)
#
#
# Indices 1 2 3 4 5 6 
#
# 1 0.008812 -0.003521 -0.001855 0.000000 0.004405 0.000000
# 2 -0.003521 0.017935 -0.004771 0.000000 0.000260 0.000000
# 3 -0.001855 -0.004771 0.016915 0.000000 0.005041 0.000000
# 4 0.000000 0.000000 0.000000 -0.181374 0.000000 0.074821
# 5 0.004405 0.000260 0.005041 0.000000 0.030567 0.000000
# 6 0.000000 0.000000 0.000000 0.074821 0.000000 0.011132
#
#
# Mechanical properties :
#
#
# Convention : Reuss Voigt Hill
#
# Bulk Modulus (GPa) = 42.79568 56.10583 49.45076
# Shear Modulus (GPa) = -73.60646 25.42436 -24.09105
#
# Velocity S-wave (km/s) = -6.00813 3.53107 -3.43724
# Velocity P-wave (km/s) = 5.20986 6.64377 2.91523
#
# Compressibility (1/GPa) = 0.02336684
#
# Stress axis : x y z
#
# Youngs Moduli (GPa) = 113.48286 55.75652 59.12048
#
# Poissons Ratio (x) = 0.19631 0.10968
# Poissons Ratio (y) = 0.39956 0.28208
# Poissons Ratio (z) = 0.21054 0.26603
#
# Static dielectric constant tensor:
#      x y z
#    x 1.751770 0.000000 -0.052350 
#    y 0.000000 1.710220 0.000000 
#    z -0.052350 0.000000 1.955380 
# 
# From -- ./inp_files/22591.got.cif
#   From: 2010.05.17/outbox.cif.g08.bks.cpg/sg15_12_cif.got.tgz:22591.got - 2010.06.03 18:47:42.
