data_PCOD9272464
_publ_section_title
;
Structure prediction by ZEFSAII (Michael W. Deem and Ramdas Pophale) SiO2 
 PCOD9272464
Probable space group: C 2/C
;
_chemical_formula_sum "Si O2"
_cell_formula_units_Z 64
_cell_length_a 13.134355
_cell_length_b 9.534066
_cell_length_c 27.664758
_cell_angle_alpha 90.000000
_cell_angle_beta 77.758084
_cell_angle_gamma 90.000000
_cell_volume 3385.512037
_symmetry_space_group_name_H-M "C 2/C"
_symmetry_group_IT_number 15
_symmetry_cell_setting 'monoclinic'
loop_
_space_group_symop_operation_xyz
x,y,z
-x,y,1/2-z
-x,-y,-z
x,-y,1/2+z
1/2+x,1/2+y,z
1/2-x,1/2+y,1/2-z
1/2-x,1/2-y,-z
1/2+x,1/2-y,1/2+z
loop_
_atom_site_type_symbol
_atom_site_label
_atom_site_fract_x
_atom_site_fract_y
_atom_site_fract_z
Si Si1 0.680041 0.388751 0.568571
Si Si2 0.848364 0.585962 0.896693
Si Si3 0.740499 0.591700 0.482861
Si Si4 0.580188 0.810812 0.348657
Si Si5 0.735798 0.931969 0.835058
Si Si6 0.439284 0.575391 0.072746
Si Si7 0.664463 0.627049 0.847916
Si Si8 0.603929 0.428417 0.767581
O O1 0.697859 0.221695 0.569772
O O2 0.749352 0.483206 0.526473
O O3 0.696144 0.437714 0.622459
O O4 0.562385 0.405558 0.561602
O O5 0.823624 0.454119 0.933333
O O6 0.778702 0.579851 0.855441
O O7 0.966956 0.621003 0.871050
O O8 0.750000 0.750000 0.500000
O O9 0.626784 0.576402 0.469307
O O10 0.603362 0.704122 0.390293
O O11 0.581001 0.711639 0.301272
O O12 0.666486 0.930262 0.336821
O O13 0.664282 0.793815 0.845943
O O14 0.808482 0.908095 0.781576
O O15 0.412920 0.433249 0.103882
O O16 0.637621 0.549701 0.801172
O O17 0.500000 0.469542 0.750000
#
# Coordination Sequence:
#
# PCOD9272464 Si02
#       8
#     8   8   8   8   8   8   8   8
#     4  10  20  37  57  79 110 154 192 227 279 342
#     4   9  20  39  58  78 112 154 192 229 281 342
#     4  11  21  34  56  87 117 148 193 243 284 326
#     4  10  21  38  59  82 113 148 186 233 285 339
#     4  11  21  35  57  85 111 141 187 240 283 332
#     4   9  19  37  57  78 112 154 189 227 280 338
#     4   9  19  36  56  80 108 143 186 232 277 333
#     4  11  21  38  60  81 110 150 185 223 286 354
#
# _framework density 18.904083
#
# number of rings (size 3 to 8) (size 9 to 14) (size 15 to 20)
#    0.000    2.000    0.000    5.250    0.000    1.000 
#    0.000   12.500    0.000    0.000    0.000    0.000 
#    0.000    0.000    0.000    0.000    0.000    0.000 
#
# Total GULP energy -178536.922042 kJ/mol
# GULP energy per Si atom -5579.278814 kJ/mol
# Density = 1.886106 g / cm^3
# Si number density = 18.904083 Si / 1000 Ang^3
#
#
#
# Elastic Constant Matrix: (Units=GPa)
#
#
# Indices 1 2 3 4 5 6 
#
# 1 57.4668 42.5550 33.0150 0.0000 9.1883 0.0000
# 2 42.5550 93.9912 56.9978 0.0000 -1.4652 0.0000
# 3 33.0150 56.9978 106.4567 0.0000 20.7670 0.0000
# 4 0.0000 0.0000 0.0000 24.9281 0.0000 -0.3701
# 5 9.1883 -1.4652 20.7670 0.0000 26.2295 0.0000
# 6 0.0000 0.0000 0.0000 -0.3701 0.0000 27.2835
#
#
#
# Elastic Compliance Matrix: (Units=1/GPa)
#
#
# Indices 1 2 3 4 5 6 
#
# 1 0.029002 -0.013611 0.000501 0.000000 -0.011316 0.000000
# 2 -0.013611 0.024139 -0.011704 0.000000 0.015383 0.000000
# 3 0.000501 -0.011704 0.018528 0.000000 -0.015499 0.000000
# 4 0.000000 0.000000 0.000000 0.040123 0.000000 0.000544
# 5 -0.011316 0.015383 -0.015499 0.000000 0.055219 0.000000
# 6 0.000000 0.000000 0.000000 0.000544 0.000000 0.036660
#
#
# Mechanical properties :
#
#
# Convention : Reuss Voigt Hill
#
# Bulk Modulus (GPa) = 45.37071 58.11671 51.74371
# Shear Modulus (GPa) = 19.18305 24.04468 21.61386
#
# Velocity S-wave (km/s) = 3.18898 3.57028 3.38500
# Velocity P-wave (km/s) = 6.13287 6.91416 6.53520
#
# Compressibility (1/GPa) = 0.02204065
#
# Stress axis : x y z
#
# Youngs Moduli (GPa) = 34.48030 41.42686 53.97216
#
# Poissons Ratio (x) = 0.56385 -0.02701
# Poissons Ratio (y) = 0.46930 0.63169
# Poissons Ratio (z) = -0.01726 0.48486
#
# Static dielectric constant tensor:
#      x y z
#    x 1.662520 0.000000 -0.016840 
#    y 0.000000 1.648820 0.000000 
#    z -0.016840 0.000000 1.680480 
# 
# From -- ./inp_files/295141.got.cif
#   From: 2010.05.17/outbox.cif.g08.bks.cpg/sg15_148_cif.got.tgz:295141.got - 2010.06.03 18:47:42.
