data_PCOD9272837
_publ_section_title
;
Structure prediction by ZEFSAII (Michael W. Deem and Ramdas Pophale) SiO2 
 PCOD9272837
Probable space group: C 2/C
;
_chemical_formula_sum "Si O2"
_cell_formula_units_Z 48
_cell_length_a 5.880075
_cell_length_b 19.938783
_cell_length_c 24.150752
_cell_angle_alpha 90.000000
_cell_angle_beta 119.140219
_cell_angle_gamma 90.000000
_cell_volume 2473.093779
_symmetry_space_group_name_H-M "C 2/C"
_symmetry_group_IT_number 15
_symmetry_cell_setting 'monoclinic'
loop_
_space_group_symop_operation_xyz
x,y,z
-x,y,1/2-z
-x,-y,-z
x,-y,1/2+z
1/2+x,1/2+y,z
1/2-x,1/2+y,1/2-z
1/2-x,1/2-y,-z
1/2+x,1/2-y,1/2+z
loop_
_atom_site_type_symbol
_atom_site_label
_atom_site_fract_x
_atom_site_fract_y
_atom_site_fract_z
Si Si1 0.383064 0.065409 0.860232
Si Si2 0.990986 0.814276 0.312711
Si Si3 0.942136 0.065409 0.139769
Si Si4 0.000000 0.410144 0.750000
Si Si5 0.500000 0.910144 0.250000
Si Si6 0.740140 0.814276 0.687289
Si Si7 0.754515 0.036113 0.000000
O O1 0.447337 0.055412 0.803010
O O2 0.620716 0.070621 0.931181
O O3 0.231470 0.135730 0.848463
O O4 0.214833 0.000000 0.857416
O O5 0.747341 0.863302 0.289782
O O6 0.940230 0.750000 0.345114
O O7 0.000000 0.789062 0.250000
O O8 0.837617 0.135730 0.151537
O O9 0.235296 0.055412 0.196991
O O10 0.895993 0.070621 0.068820
O O11 0.911789 0.363303 0.789782
O O12 0.000000 0.789062 0.750000
O O13 0.500000 0.000000 0.000000
O O14 0.000000 0.000000 0.000000
#
# Coordination Sequence:
#
# PCOD9272837 Si02
#       7
#     8   8   8   4   4   8   8
#     4  10  24  40  62  97 128 169 219 274 332 398
#     4  10  20  37  60  91 127 170 211 267 343 395
#     4  10  24  40  62  97 128 169 219 274 332 398
#     4  10  22  37  64  90 133 156 212 274 323 386
#     4  10  22  37  64  90 133 156 212 274 323 386
#     4  10  20  37  60  91 127 170 211 267 343 395
#     4  10  24  46  65  89 137 185 215 263 347 408
#
# _framework density 19.408888999999999
#
# number of rings (size 3 to 8) (size 9 to 14) (size 15 to 20)
#    0.000    2.000    1.667    0.000    9.333    7.333 
#    0.000    0.833    0.000    2.000    0.000    0.000 
#    0.000    0.000    0.000    0.000    0.000    0.000 
#
# Total GULP energy -133672.461667 kJ/mol
# GULP energy per Si atom -5569.685903 kJ/mol
# Density = 1.936471 g / cm^3
# Si number density = 19.408889 Si / 1000 Ang^3
#
#
#
# Elastic Constant Matrix: (Units=GPa)
#
#
# Indices 1 2 3 4 5 6 
#
# 1 110.7297 45.3371 63.5144 0.0000 -0.0012 0.0000
# 2 45.3371 107.3813 63.0517 0.0000 -0.0010 0.0000
# 3 63.5144 63.0517 166.3074 0.0000 -0.0015 0.0000
# 4 0.0000 0.0000 0.0000 7.5480 0.0000 -0.0005
# 5 -0.0012 -0.0010 -0.0015 0.0000 17.1123 0.0000
# 6 0.0000 0.0000 0.0000 -0.0005 0.0000 43.8912
#
#
#
# Elastic Compliance Matrix: (Units=1/GPa)
#
#
# Indices 1 2 3 4 5 6 
#
# 1 0.012337 -0.003141 -0.003520 0.000000 0.000000 0.000000
# 2 -0.003141 0.012779 -0.003645 0.000000 0.000000 0.000000
# 3 -0.003520 -0.003645 0.008739 0.000000 0.000000 0.000000
# 4 0.000000 0.000000 0.000000 0.132486 0.000000 0.000001
# 5 0.000000 0.000000 0.000000 0.000000 0.058437 0.000000
# 6 0.000000 0.000000 0.000000 0.000001 0.000000 0.022784
#
#
# Mechanical properties :
#
#
# Convention : Reuss Voigt Hill
#
# Bulk Modulus (GPa) = 75.52252 80.91385 78.21819
# Shear Modulus (GPa) = 18.34256 27.87798 23.11027
#
# Velocity S-wave (km/s) = 3.07752 3.79403 3.45440
# Velocity P-wave (km/s) = 7.18498 7.80849 7.50321
#
# Compressibility (1/GPa) = 0.01324108
#
# Stress axis : x y z
#
# Youngs Moduli (GPa) = 81.05991 78.25116 114.42349
#
# Poissons Ratio (x) = 0.24582 0.40282
# Poissons Ratio (y) = 0.25465 0.41710
# Poissons Ratio (z) = 0.28537 0.28525
#
# Static dielectric constant tensor:
#      x y z
#    x 1.784300 0.000000 0.000000 
#    y 0.000000 1.700870 0.000000 
#    z 0.000000 0.000000 1.661790 
# 
# From -- ./inp_files/227348.got.cif
#   From: 2010.05.17/outbox.cif.g08.bks.cpg/sg15_114_cif.got.tgz:227348.got - 2010.06.03 18:47:42.
