data_PCOD9272046
_publ_section_title
;
Structure prediction by ZEFSAII (Michael W. Deem and Ramdas Pophale) SiO2 
 PCOD9272046
Probable space group: C 2/C
;
_chemical_formula_sum "Si O2"
_cell_formula_units_Z 48
_cell_length_a 13.223721
_cell_length_b 9.438224
_cell_length_c 17.676252
_cell_angle_alpha 90.000000
_cell_angle_beta 87.635449
_cell_angle_gamma 90.000000
_cell_volume 2204.267025
_symmetry_space_group_name_H-M "C 2/C"
_symmetry_group_IT_number 15
_symmetry_cell_setting 'monoclinic'
loop_
_space_group_symop_operation_xyz
x,y,z
-x,y,1/2-z
-x,-y,-z
x,-y,1/2+z
1/2+x,1/2+y,z
1/2-x,1/2+y,1/2-z
1/2-x,1/2-y,-z
1/2+x,1/2-y,1/2+z
loop_
_atom_site_type_symbol
_atom_site_label
_atom_site_fract_x
_atom_site_fract_y
_atom_site_fract_z
Si Si1 0.421281 0.652240 0.584453
Si Si2 0.113547 0.700714 0.714642
Si Si3 0.893973 0.458032 0.542280
Si Si4 0.217230 0.509070 0.604269
Si Si5 0.669155 0.242099 0.876606
Si Si6 0.453440 0.599001 0.407565
O O1 0.321852 0.584625 0.623751
O O2 0.416383 0.617395 0.494325
O O3 0.519288 0.564908 0.608781
O O4 0.416977 0.819984 0.590893
O O5 0.139137 0.556102 0.670658
O O6 0.180061 0.732155 0.785910
O O7 0.116524 0.825485 0.651929
O O8 0.000000 0.695145 0.750000
O O9 0.821045 0.428347 0.473653
O O10 0.844028 0.586691 0.589046
O O11 0.000000 0.500000 0.500000
O O12 0.242477 0.343364 0.595073
O O13 0.561994 0.319512 0.899484
#
# Coordination Sequence:
#
# PCOD9272046 Si02
#       6
#     8   8   8   8   8   8
#     4  10  20  36  63  93 117 154 210 257 309 365
#     4  10  20  40  61  82 120 174 207 257 321 370
#     4  12  21  38  60  93 122 160 201 260 309 368
#     4  11  23  39  60  91 124 163 213 258 304 372
#     4  10  22  38  61  90 126 164 205 253 314 371
#     4   9  18  38  63  88 118 160 204 253 309 373
#
# _framework density 21.775945
#
# number of rings (size 3 to 8) (size 9 to 14) (size 15 to 20)
#    0.000    1.667    3.333    2.000    0.000    1.333 
#    0.000    0.000    0.000   21.000    0.000    0.000 
#    0.000    0.000    0.000    0.000    0.000    0.000 
#
# Total GULP energy -134044.052274 kJ/mol
# GULP energy per Si atom -5585.168845 kJ/mol
# Density = 2.172638 g / cm^3
# Si number density = 21.775945 Si / 1000 Ang^3
#
#
#
# Elastic Constant Matrix: (Units=GPa)
#
#
# Indices 1 2 3 4 5 6 
#
# 1 21.4816 12.5462 1.2490 0.0000 0.0587 0.0000
# 2 12.5462 143.5308 6.9884 0.0000 -7.0786 0.0000
# 3 1.2490 6.9884 62.6512 0.0000 -7.8453 0.0000
# 4 0.0000 0.0000 0.0000 25.1577 0.0000 -3.8276
# 5 0.0587 -7.0786 -7.8453 0.0000 15.8478 0.0000
# 6 0.0000 0.0000 0.0000 -3.8276 0.0000 29.9833
#
#
#
# Elastic Compliance Matrix: (Units=1/GPa)
#
#
# Indices 1 2 3 4 5 6 
#
# 1 0.049166 -0.004384 -0.000809 0.000000 -0.002541 0.000000
# 2 -0.004384 0.007525 -0.000351 0.000000 0.003204 0.000000
# 3 -0.000809 -0.000351 0.017055 0.000000 0.008289 0.000000
# 4 0.000000 0.000000 0.000000 0.040537 0.000000 0.005175
# 5 -0.002541 0.003204 0.008289 0.000000 0.068644 0.000000
# 6 0.000000 0.000000 0.000000 0.005175 0.000000 0.034012
#
#
# Mechanical properties :
#
#
# Convention : Reuss Voigt Hill
#
# Bulk Modulus (GPa) = 15.95960 29.91453 22.93707
# Shear Modulus (GPa) = 20.08741 27.98977 24.03859
#
# Velocity S-wave (km/s) = 3.04050 3.58907 3.32611
# Velocity P-wave (km/s) = 4.43521 5.56260 5.03058
#
# Compressibility (1/GPa) = 0.06265821
#
# Stress axis : x y z
#
# Youngs Moduli (GPa) = 20.33944 132.88317 58.63511
#
# Poissons Ratio (x) = 0.58250 0.04746
# Poissons Ratio (y) = 0.08916 0.02057
# Poissons Ratio (z) = 0.01646 0.04662
#
# Static dielectric constant tensor:
#      x y z
#    x 1.824760 0.000000 0.008830 
#    y 0.000000 1.842820 0.000000 
#    z 0.008830 0.000000 1.782310 
# 
# From -- ./inp_files/203013.got.cif
#   From: 2010.05.17/outbox.cif.g08.bks.cpg/sg15_102_cif.got.tgz:203013.got - 2010.06.03 18:47:42.
