data_PCOD9272864
_publ_section_title
;
Structure prediction by ZEFSAII (Michael W. Deem and Ramdas Pophale) SiO2 
 PCOD9272864
Probable space group: C 2/C
;
_chemical_formula_sum "Si O2"
_cell_formula_units_Z 48
_cell_length_a 18.886489
_cell_length_b 7.917820
_cell_length_c 14.107438
_cell_angle_alpha 90.000000
_cell_angle_beta 81.158011
_cell_angle_gamma 90.000000
_cell_volume 2084.552977
_symmetry_space_group_name_H-M "C 2/C"
_symmetry_group_IT_number 15
_symmetry_cell_setting 'monoclinic'
loop_
_space_group_symop_operation_xyz
x,y,z
-x,y,1/2-z
-x,-y,-z
x,-y,1/2+z
1/2+x,1/2+y,z
1/2-x,1/2+y,1/2-z
1/2-x,1/2-y,-z
1/2+x,1/2-y,1/2+z
loop_
_atom_site_type_symbol
_atom_site_label
_atom_site_fract_x
_atom_site_fract_y
_atom_site_fract_z
Si Si1 0.080692 0.941969 0.470010
Si Si2 0.419083 0.935422 0.525879
Si Si3 0.156417 0.893296 0.259935
Si Si4 0.085728 0.436649 0.747816
Si Si5 0.689025 0.236730 0.735757
Si Si6 0.326084 0.245805 0.531390
O O1 0.089997 0.754196 0.508541
O O2 0.099308 0.934660 0.354182
O O3 0.131026 0.085245 0.501301
O O4 0.000000 0.000000 0.500000
O O5 0.404011 0.929000 0.640884
O O6 0.500000 0.000000 0.500000
O O7 0.368460 0.077622 0.494148
O O8 0.122414 0.739058 0.207526
O O9 0.229752 0.827683 0.295192
O O10 0.175970 0.070513 0.206127
O O11 0.130952 0.602256 0.709747
O O12 0.000000 0.446325 0.750000
O O13 0.682117 0.242954 0.852240
O O14 0.250000 0.250000 0.500000
#
# Coordination Sequence:
#
# PCOD9272864 Si02
#       6
#     8   8   8   8   8   8
#     4  10  20  38  60  83 116 158 196 237 299 354
#     4  10  20  38  61  81 118 158 191 241 301 346
#     4  10  20  37  61  83 115 158 191 242 300 350
#     4  10  22  38  59  88 117 153 200 246 295 354
#     4  10  20  39  61  83 121 154 196 244 303 353
#     4  10  22  38  60  87 117 154 198 245 293 354
#
# _framework density 23.026520000000001
#
# number of rings (size 3 to 8) (size 9 to 14) (size 15 to 20)
#    0.000    2.000    3.333    0.000    0.000    2.667 
#    0.000    1.667    0.000    0.000    0.000    0.000 
#    0.000    0.000    0.000    0.000    0.000    0.000 
#
# Total GULP energy -134225.118502 kJ/mol
# GULP energy per Si atom -5592.713271 kJ/mol
# Density = 2.297411 g / cm^3
# Si number density = 23.026520 Si / 1000 Ang^3
#
#
#
# Elastic Constant Matrix: (Units=GPa)
#
#
# Indices 1 2 3 4 5 6 
#
# 1 198.1118 112.4732 9.8762 0.0000 5.5236 0.0000
# 2 112.4732 235.1856 32.4300 0.0000 16.7225 0.0000
# 3 9.8762 32.4300 57.2641 0.0000 1.0383 0.0000
# 4 0.0000 0.0000 0.0000 22.8319 0.0000 -3.4642
# 5 5.5236 16.7225 1.0383 0.0000 33.9954 0.0000
# 6 0.0000 0.0000 0.0000 -3.4642 0.0000 50.4739
#
#
#
# Elastic Compliance Matrix: (Units=1/GPa)
#
#
# Indices 1 2 3 4 5 6 
#
# 1 0.006968 -0.003476 0.000757 0.000000 0.000555 0.000000
# 2 -0.003476 0.006515 -0.003044 0.000000 -0.002547 0.000000
# 3 0.000757 -0.003044 0.019042 0.000000 0.000793 0.000000
# 4 0.000000 0.000000 0.000000 0.044259 0.000000 0.003038
# 5 0.000555 -0.002547 0.000793 0.000000 0.030554 0.000000
# 6 0.000000 0.000000 0.000000 0.003038 0.000000 0.020021
#
#
# Mechanical properties :
#
#
# Convention : Reuss Voigt Hill
#
# Bulk Modulus (GPa) = 47.62255 88.90227 68.26241
# Shear Modulus (GPa) = 34.27348 43.84570 39.05959
#
# Velocity S-wave (km/s) = 3.86221 4.36838 4.12307
# Velocity P-wave (km/s) = 6.37302 8.00850 7.23711
#
# Compressibility (1/GPa) = 0.02099845
#
# Stress axis : x y z
#
# Youngs Moduli (GPa) = 143.51486 153.48778 52.51564
#
# Poissons Ratio (x) = 0.53353 -0.03974
# Poissons Ratio (y) = 0.49887 0.15986
# Poissons Ratio (z) = -0.10861 0.46722
#
# Static dielectric constant tensor:
#      x y z
#    x 1.789630 0.000000 -0.045800 
#    y 0.000000 1.891930 0.000000 
#    z -0.045800 0.000000 1.965550 
# 
# From -- ./inp_files/242004.got.cif
#   From: 2010.05.17/outbox.cif.g08.bks.cpg/sg15_122_cif.got.tgz:242004.got - 2010.06.03 18:47:42.
