data_PCOD9272044
_publ_section_title
;
Structure prediction by ZEFSAII (Michael W. Deem and Ramdas Pophale) SiO2 
 PCOD9272044
Probable space group: C 2/C
;
_chemical_formula_sum "Si O2"
_cell_formula_units_Z 56
_cell_length_a 24.949127
_cell_length_b 6.712274
_cell_length_c 17.475794
_cell_angle_alpha 90.000000
_cell_angle_beta 115.964411
_cell_angle_gamma 90.000000
_cell_volume 2631.198427
_symmetry_space_group_name_H-M "C 2/C"
_symmetry_group_IT_number 15
_symmetry_cell_setting 'monoclinic'
loop_
_space_group_symop_operation_xyz
x,y,z
-x,y,1/2-z
-x,-y,-z
x,-y,1/2+z
1/2+x,1/2+y,z
1/2-x,1/2+y,1/2-z
1/2-x,1/2-y,-z
1/2+x,1/2-y,1/2+z
loop_
_atom_site_type_symbol
_atom_site_label
_atom_site_fract_x
_atom_site_fract_y
_atom_site_fract_z
Si Si1 0.457035 0.384734 0.532934
Si Si2 0.243415 0.191416 0.106194
Si Si3 0.217821 0.941422 0.945623
Si Si4 0.941409 0.698264 0.831534
Si Si5 0.355415 0.511454 0.860893
Si Si6 0.129170 0.683157 0.261437
Si Si7 0.417228 0.465725 0.674396
O O1 0.500000 0.500000 0.500000
O O2 0.495388 0.193302 0.584477
O O3 0.393342 0.377476 0.451344
O O4 0.445617 0.486008 0.608338
O O5 0.247674 0.430977 0.098072
O O6 0.203808 0.098324 0.148134
O O7 0.311704 0.117009 0.156215
O O8 0.213548 0.100303 0.011782
O O9 0.151350 0.894137 0.877513
O O10 0.250000 0.750000 0.000000
O O11 0.898058 0.840014 0.853731
O O12 0.909853 0.490160 0.798430
O O13 0.945144 0.812027 0.752392
O O14 0.345745 0.672597 0.789063
O O15 0.087873 0.819659 0.289119
#
# Coordination Sequence:
#
# PCOD9272044 Si02
#       7
#     8   8   8   8   8   8   8
#     4  10  21  42  65  87 125 165 209 271 327 384
#     4  10  21  37  59  94 127 167 210 257 324 387
#     4  10  20  36  63  92 130 165 205 257 319 394
#     4  10  22  40  63  90 120 168 220 260 322 393
#     4  10  22  40  60  91 132 165 215 270 322 379
#     4  10  23  39  63  92 129 171 218 267 326 390
#     4  10  20  42  63  92 127 163 210 272 323 384
#
# _framework density 21.283079000000001
#
# number of rings (size 3 to 8) (size 9 to 14) (size 15 to 20)
#    0.000    2.000    1.429    1.286    2.000    1.714 
#    0.000   10.000    0.000    0.000    0.000    0.000 
#    0.000    0.000    0.000    0.000    0.000    0.000 
#
# Total GULP energy -156175.103850 kJ/mol
# GULP energy per Si atom -5577.682280 kJ/mol
# Density = 2.123464 g / cm^3
# Si number density = 21.283079 Si / 1000 Ang^3
#
#
#
# Elastic Constant Matrix: (Units=GPa)
#
#
# Indices 1 2 3 4 5 6 
#
# 1 75.5469 37.0218 19.5364 0.0000 -9.9354 0.0000
# 2 37.0218 79.3830 31.7442 0.0000 10.3353 0.0000
# 3 19.5364 31.7442 84.7215 0.0000 -4.7250 0.0000
# 4 0.0000 0.0000 0.0000 30.9408 0.0000 18.2683
# 5 -9.9354 10.3353 -4.7250 0.0000 43.4140 0.0000
# 6 0.0000 0.0000 0.0000 18.2683 0.0000 -4.5162
#
#
#
# Elastic Compliance Matrix: (Units=1/GPa)
#
#
# Indices 1 2 3 4 5 6 
#
# 1 0.018844 -0.009462 -0.000436 0.000000 0.006518 0.000000
# 2 -0.009462 0.020354 -0.005871 0.000000 -0.007650 0.000000
# 3 -0.000436 -0.005871 0.014263 0.000000 0.002850 0.000000
# 4 0.000000 0.000000 0.000000 0.009539 0.000000 0.038584
# 5 0.006518 -0.007650 0.002850 0.000000 0.026657 0.000000
# 6 0.000000 0.000000 0.000000 0.038584 0.000000 -0.065349
#
#
# Mechanical properties :
#
#
# Convention : Reuss Voigt Hill
#
# Bulk Modulus (GPa) = 45.61832 46.25070 45.93451
# Shear Modulus (GPa) = 79.17317 24.05764 51.61540
#
# Velocity S-wave (km/s) = 6.10580 3.36574 4.92996
# Velocity P-wave (km/s) = 8.43732 6.07311 7.35088
#
# Compressibility (1/GPa) = 0.02192102
#
# Stress axis : x y z
#
# Youngs Moduli (GPa) = 53.06794 49.13095 70.11256
#
# Poissons Ratio (x) = 0.46489 0.03060
# Poissons Ratio (y) = 0.50214 0.41163
# Poissons Ratio (z) = 0.02316 0.28845
#
# Static dielectric constant tensor:
#      x y z
#    x 1.810940 0.000000 0.007790 
#    y 0.000000 1.756610 0.000000 
#    z 0.007790 0.000000 1.839100 
# 
# From -- ./inp_files/221290.got.cif
#   From: 2010.05.17/outbox.cif.g08.bks.cpg/sg15_111_cif.got.tgz:221290.got - 2010.06.03 18:47:42.
