data_PCOD9272575
_publ_section_title
;
Structure prediction by ZEFSAII (Michael W. Deem and Ramdas Pophale) SiO2 
 PCOD9272575
Probable space group: C 2/C
;
_chemical_formula_sum "Si O2"
_cell_formula_units_Z 64
_cell_length_a 7.815054
_cell_length_b 13.933458
_cell_length_c 25.295038
_cell_angle_alpha 90.000000
_cell_angle_beta 88.305582
_cell_angle_gamma 90.000000
_cell_volume 2753.190698
_symmetry_space_group_name_H-M "C 2/C"
_symmetry_group_IT_number 15
_symmetry_cell_setting 'monoclinic'
loop_
_space_group_symop_operation_xyz
x,y,z
-x,y,1/2-z
-x,-y,-z
x,-y,1/2+z
1/2+x,1/2+y,z
1/2-x,1/2+y,1/2-z
1/2-x,1/2-y,-z
1/2+x,1/2-y,1/2+z
loop_
_atom_site_type_symbol
_atom_site_label
_atom_site_fract_x
_atom_site_fract_y
_atom_site_fract_z
Si Si1 0.601260 0.071885 0.191866
Si Si2 0.737858 0.914545 0.858476
Si Si3 0.937192 0.202631 0.993314
Si Si4 0.805374 0.039374 0.759581
Si Si5 0.263379 0.513141 0.964181
Si Si6 0.088907 0.372232 0.049180
Si Si7 0.126308 0.218619 0.700224
Si Si8 0.143779 0.203918 0.884449
O O1 0.500000 0.066053 0.250000
O O2 0.465370 0.059858 0.146585
O O3 0.733545 0.989797 0.203821
O O4 0.689250 0.175463 0.183683
O O5 0.807192 0.955572 0.802959
O O6 0.733900 0.800123 0.861873
O O7 0.820066 0.964096 0.908725
O O8 0.893933 0.088918 0.990087
O O9 0.036110 0.227490 0.938424
O O10 0.750000 0.250000 0.000000
O O11 0.049586 0.260342 0.035295
O O12 0.000000 0.063964 0.750000
O O13 0.735183 0.138819 0.784884
O O14 0.093946 0.574984 0.949438
O O15 0.198336 0.429218 0.003714
O O16 0.209253 0.369264 0.099269
O O17 0.000000 0.243504 0.750000
O O18 0.004798 0.177785 0.655311
#
# Coordination Sequence:
#
# PCOD9272575 Si02
#       8
#     8   8   8   8   8   8   8   8
#     4   8  17  35  57  79 110 154 188 235 304 361
#     4  10  20  37  60  84 116 162 200 239 309 370
#     4  10  21  38  59  88 125 160 203 254 304 359
#     4  10  20  37  58  88 118 147 201 256 295 363
#     4  10  21  38  61  85 123 162 205 249 307 372
#     4  10  22  40  59  88 122 161 202 254 306 360
#     4   9  19  36  60  83 114 150 189 245 299 353
#     4  11  21  39  64  88 119 159 203 248 306 366
#
# _framework density 23.245757999999999
#
# number of rings (size 3 to 8) (size 9 to 14) (size 15 to 20)
#    0.000    2.250    1.250    1.875    0.000    2.500 
#    2.250    8.125    0.000    0.000    0.000    0.000 
#    0.000    0.000    0.000    0.000    0.000    0.000 
#
# Total GULP energy -178320.642781 kJ/mol
# GULP energy per Si atom -5572.520087 kJ/mol
# Density = 2.319285 g / cm^3
# Si number density = 23.245758 Si / 1000 Ang^3
#
#
#
# Elastic Constant Matrix: (Units=GPa)
#
#
# Indices 1 2 3 4 5 6 
#
# 1 26.8982 15.1863 -3.6138 0.0000 13.7616 0.0000
# 2 15.1863 103.5485 28.5881 0.0000 26.0693 0.0000
# 3 -3.6138 28.5881 71.6503 0.0000 27.4566 0.0000
# 4 0.0000 0.0000 0.0000 35.8365 0.0000 4.3097
# 5 13.7616 26.0693 27.4566 0.0000 40.1666 0.0000
# 6 0.0000 0.0000 0.0000 4.3097 0.0000 13.9889
#
#
#
# Elastic Compliance Matrix: (Units=1/GPa)
#
#
# Indices 1 2 3 4 5 6 
#
# 1 0.055439 -0.005847 0.014841 0.000000 -0.025344 0.000000
# 2 -0.005847 0.012460 -0.003977 0.000000 -0.003365 0.000000
# 3 0.014841 -0.003977 0.023374 0.000000 -0.018481 0.000000
# 4 0.000000 0.000000 0.000000 0.028978 0.000000 -0.008927
# 5 -0.025344 -0.003365 -0.018481 0.000000 0.048397 0.000000
# 6 0.000000 0.000000 0.000000 -0.008927 0.000000 0.074235
#
#
# Mechanical properties :
#
#
# Convention : Reuss Voigt Hill
#
# Bulk Modulus (GPa) = 9.87102 31.37979 20.62541
# Shear Modulus (GPa) = 18.75337 28.79417 23.77377
#
# Velocity S-wave (km/s) = 2.84340 3.52331 3.20146
# Velocity P-wave (km/s) = 3.87757 5.48453 4.74951
#
# Compressibility (1/GPa) = 0.10130661
#
# Stress axis : x y z
#
# Youngs Moduli (GPa) = 18.03786 80.25662 42.78234
#
# Poissons Ratio (x) = 0.46930 -0.63494
# Poissons Ratio (y) = 0.10548 0.17014
# Poissons Ratio (z) = -0.26770 0.31918
#
# Static dielectric constant tensor:
#      x y z
#    x 1.992880 0.000000 -0.007970 
#    y 0.000000 1.991370 0.000000 
#    z -0.007970 0.000000 1.907190 
# 
# From -- ./inp_files/288780.got.cif
#   From: 2010.05.17/outbox.cif.g08.bks.cpg/sg15_145_cif.got.tgz:288780.got - 2010.06.03 18:47:42.
