data_PCOD9272242
_publ_section_title
;
Structure prediction by ZEFSAII (Michael W. Deem and Ramdas Pophale) SiO2 
 PCOD9272242
Probable space group: C 2/C
;
_chemical_formula_sum "Si O2"
_cell_formula_units_Z 56
_cell_length_a 11.418867
_cell_length_b 9.443262
_cell_length_c 29.182010
_cell_angle_alpha 90.000000
_cell_angle_beta 118.775607
_cell_angle_gamma 90.000000
_cell_volume 2758.150589
_symmetry_space_group_name_H-M "C 2/C"
_symmetry_group_IT_number 15
_symmetry_cell_setting 'monoclinic'
loop_
_space_group_symop_operation_xyz
x,y,z
-x,y,1/2-z
-x,-y,-z
x,-y,1/2+z
1/2+x,1/2+y,z
1/2-x,1/2+y,1/2-z
1/2-x,1/2-y,-z
1/2+x,1/2-y,1/2+z
loop_
_atom_site_type_symbol
_atom_site_label
_atom_site_fract_x
_atom_site_fract_y
_atom_site_fract_z
Si Si1 0.109325 0.087502 0.239443
Si Si2 0.557067 0.848772 0.331643
Si Si3 0.150300 0.912547 0.157371
Si Si4 0.796158 0.662791 0.552439
Si Si5 0.390725 0.099134 0.340015
Si Si6 0.521849 0.388835 0.044235
Si Si7 0.039961 0.422365 0.959967
O O1 0.000000 0.008678 0.250000
O O2 0.037889 0.235359 0.211143
O O3 0.151424 0.014116 0.200525
O O4 0.238453 0.090542 0.295836
O O5 0.697599 0.881993 0.332009
O O6 0.590151 0.793697 0.389757
O O7 0.479377 0.995577 0.325761
O O8 0.081534 0.765274 0.159486
O O9 0.050857 0.963595 0.098053
O O10 0.750000 0.750000 0.500000
O O11 0.667080 0.670436 0.559488
O O12 0.838796 0.509266 0.540584
O O13 0.423196 0.065352 0.399406
O O14 0.433637 0.245936 0.028721
O O15 0.500000 0.500000 0.000000
O O16 0.000000 0.500000 0.000000
#
# Coordination Sequence:
#
# PCOD9272242 Si02
#       7
#     8   8   8   8   8   8   8
#     4  12  24  40  66  94 123 166 215 260 318 378
#     4  10  23  44  66  90 127 168 211 261 320 375
#     4  10  23  45  62  91 134 164 210 268 312 377
#     4  10  20  36  66  91 119 166 208 251 320 377
#     4  10  22  41  63  91 126 166 211 258 318 377
#     4  10  22  38  61  92 130 161 206 260 316 376
#     4  10  20  37  62  90 122 163 208 256 310 383
#
# _framework density 20.303459
#
# number of rings (size 3 to 8) (size 9 to 14) (size 15 to 20)
#    0.000    1.714    2.857    0.857    2.000    0.571 
#    5.143    0.000    0.000    0.000    0.000    0.000 
#    0.000    0.000    0.000    0.000    0.000    0.000 
#
# Total GULP energy -155870.696529 kJ/mol
# GULP energy per Si atom -5566.810590 kJ/mol
# Density = 2.025725 g / cm^3
# Si number density = 20.303459 Si / 1000 Ang^3
#
#
#
# Elastic Constant Matrix: (Units=GPa)
#
#
# Indices 1 2 3 4 5 6 
#
# 1 69.2576 47.7022 28.8870 0.0000 -10.2045 0.0000
# 2 47.7022 89.0879 65.2586 0.0000 3.7829 0.0000
# 3 28.8870 65.2586 137.5452 0.0000 -1.0920 0.0000
# 4 0.0000 0.0000 0.0000 29.9453 0.0000 -2.8102
# 5 -10.2045 3.7829 -1.0920 0.0000 27.6344 0.0000
# 6 0.0000 0.0000 0.0000 -2.8102 0.0000 32.9738
#
#
#
# Elastic Compliance Matrix: (Units=1/GPa)
#
#
# Indices 1 2 3 4 5 6 
#
# 1 0.026600 -0.016458 0.002319 0.000000 0.012167 0.000000
# 2 -0.016458 0.027588 -0.009714 0.000000 -0.010238 0.000000
# 3 0.002319 -0.009714 0.011413 0.000000 0.002637 0.000000
# 4 0.000000 0.000000 0.000000 0.033663 0.000000 0.002869
# 5 0.012167 -0.010238 0.002637 0.000000 0.042185 0.000000
# 6 0.000000 0.000000 0.000000 0.002869 0.000000 0.030572
#
#
# Mechanical properties :
#
#
# Convention : Reuss Voigt Hill
#
# Bulk Modulus (GPa) = 55.88360 64.39849 60.14105
# Shear Modulus (GPa) = 22.15395 28.38022 25.26709
#
# Velocity S-wave (km/s) = 3.30683 3.74278 3.53153
# Velocity P-wave (km/s) = 6.49339 7.10385 6.80547
#
# Compressibility (1/GPa) = 0.01789434
#
# Stress axis : x y z
#
# Youngs Moduli (GPa) = 37.59342 36.24792 87.61909
#
# Poissons Ratio (x) = 0.59658 -0.20317
# Poissons Ratio (y) = 0.61873 0.85112
# Poissons Ratio (z) = -0.08717 0.35211
#
# Static dielectric constant tensor:
#      x y z
#    x 1.708000 0.000000 0.011780 
#    y 0.000000 1.614370 0.000000 
#    z 0.011780 0.000000 1.894190 
# 
# From -- ./inp_files/310215.got.cif
#   From: 2010.05.17/outbox.cif.g08.bks.cpg/sg15_156_cif.got.tgz:310215.got - 2010.06.03 18:47:42.
