data_PCOD9272415
_publ_section_title
;
Structure prediction by ZEFSAII (Michael W. Deem and Ramdas Pophale) SiO2 
 PCOD9272415
Probable space group: C 2/C
;
_chemical_formula_sum "Si O2"
_cell_formula_units_Z 40
_cell_length_a 16.548569
_cell_length_b 18.775473
_cell_length_c 10.745865
_cell_angle_alpha 90.000000
_cell_angle_beta 34.537743
_cell_angle_gamma 90.000000
_cell_volume 1892.939373
_symmetry_space_group_name_H-M "C 2/C"
_symmetry_group_IT_number 15
_symmetry_cell_setting 'monoclinic'
loop_
_space_group_symop_operation_xyz
x,y,z
-x,y,1/2-z
-x,-y,-z
x,-y,1/2+z
1/2+x,1/2+y,z
1/2-x,1/2+y,1/2-z
1/2-x,1/2-y,-z
1/2+x,1/2-y,1/2+z
loop_
_atom_site_type_symbol
_atom_site_label
_atom_site_fract_x
_atom_site_fract_y
_atom_site_fract_z
Si Si1 0.789973 0.285128 0.080351
Si Si2 0.991673 0.179451 0.966797
Si Si3 0.154884 0.818799 0.606412
Si Si4 0.791084 0.065432 0.848280
Si Si5 0.835103 0.035827 0.509530
O O1 0.634758 0.284803 0.344002
O O2 0.820185 0.369162 0.027305
O O3 0.750000 0.250000 0.000000
O O4 0.909840 0.237758 0.990570
O O5 0.062993 0.111154 0.811305
O O6 0.882631 0.152976 0.208178
O O7 0.250000 0.750000 0.500000
O O8 0.219366 0.883873 0.447635
O O9 0.000000 0.800026 0.750000
O O10 0.816210 0.026599 0.682606
O O11 0.761663 0.017937 0.005956
O O12 0.000000 0.037175 0.250000
#
# Coordination Sequence:
#
# PCOD9272415 Si02
#       5
#     8   8   8   8   8
#     4  10  21  36  58  89 124 160 209 252 307 367
#     4  10  20  37  55  91 120 157 207 258 304 363
#     4  11  20  36  60  87 123 160 204 254 313 367
#     4  10  23  34  62  90 127 158 210 251 318 359
#     4  11  20  37  53  94 121 160 198 262 302 367
#
# _framework density 21.131156000000001
#
# number of rings (size 3 to 8) (size 9 to 14) (size 15 to 20)
#    1.200    0.400    4.000    3.600    2.800    0.000 
#    0.000    0.000    0.000    2.400    0.000   11.200 
#    0.000    0.000    0.000    0.000    0.000    0.000 
#
# Total GULP energy -111355.200282 kJ/mol
# GULP energy per Si atom -5567.760014 kJ/mol
# Density = 2.108306 g / cm^3
# Si number density = 21.131156 Si / 1000 Ang^3
#
#
#
# Elastic Constant Matrix: (Units=GPa)
#
#
# Indices 1 2 3 4 5 6 
#
# 1 106.0808 79.2061 24.0605 -0.0002 9.7609 0.0002
# 2 79.2061 117.4932 27.4200 -0.0002 8.9781 0.0002
# 3 24.0605 27.4200 47.9263 -0.0002 19.9656 0.0002
# 4 -0.0002 -0.0002 -0.0002 27.8517 0.0002 4.2292
# 5 9.7609 8.9781 19.9656 0.0002 32.2310 -0.0002
# 6 0.0002 0.0002 0.0002 4.2292 -0.0002 48.2226
#
#
#
# Elastic Compliance Matrix: (Units=1/GPa)
#
#
# Indices 1 2 3 4 5 6 
#
# 1 0.019281 -0.012419 -0.002134 0.000000 -0.001058 0.000000
# 2 -0.012419 0.017846 -0.004679 0.000000 0.001688 0.000000
# 3 -0.002134 -0.004679 0.032080 0.000000 -0.017922 0.000000
# 4 0.000000 0.000000 0.000000 0.036389 0.000000 -0.003191
# 5 -0.001058 0.001688 -0.017922 0.000000 0.041978 0.000000
# 6 0.000000 0.000000 0.000000 -0.003191 0.000000 0.021017
#
#
# Mechanical properties :
#
#
# Convention : Reuss Voigt Hill
#
# Bulk Modulus (GPa) = 32.52690 59.20818 45.86754
# Shear Modulus (GPa) = 23.00947 31.04864 27.02906
#
# Velocity S-wave (km/s) = 3.30341 3.83734 3.58034
# Velocity P-wave (km/s) = 5.47506 6.90752 6.23258
#
# Compressibility (1/GPa) = 0.03074378
#
# Stress axis : x y z
#
# Youngs Moduli (GPa) = 51.86475 56.03427 31.17251
#
# Poissons Ratio (x) = 0.69590 0.06651
# Poissons Ratio (y) = 0.64412 0.14585
# Poissons Ratio (z) = 0.11066 0.26217
#
# Static dielectric constant tensor:
#      x y z
#    x 1.859770 0.000000 0.066750 
#    y 0.000000 1.808460 0.000000 
#    z 0.066750 0.000000 1.887410 
# 
# From -- ./inp_files/105127.got.cif
#   From: 2010.05.17/outbox.cif.g08.bks.cpg/sg15_53_cif.got.tgz:105127.got - 2010.06.03 18:47:42.
