data_PCOD9272834
_publ_section_title
;
Structure prediction by ZEFSAII (Michael W. Deem and Ramdas Pophale) SiO2 
 PCOD9272834
Probable space group: C 2/C
;
_chemical_formula_sum "Si O2"
_cell_formula_units_Z 60
_cell_length_a 18.743324
_cell_length_b 16.794505
_cell_length_c 12.628465
_cell_angle_alpha 90.000000
_cell_angle_beta 137.612209
_cell_angle_gamma 90.000000
_cell_volume 2679.894603
_symmetry_space_group_name_H-M "C 2/C"
_symmetry_group_IT_number 15
_symmetry_cell_setting 'monoclinic'
loop_
_space_group_symop_operation_xyz
x,y,z
-x,y,1/2-z
-x,-y,-z
x,-y,1/2+z
1/2+x,1/2+y,z
1/2-x,1/2+y,1/2-z
1/2-x,1/2-y,-z
1/2+x,1/2-y,1/2+z
loop_
_atom_site_type_symbol
_atom_site_label
_atom_site_fract_x
_atom_site_fract_y
_atom_site_fract_z
Si Si1 0.412259 0.631945 0.062886
Si Si2 0.758707 0.078331 0.182866
Si Si3 0.500000 0.354162 0.250000
Si Si4 0.615710 0.022480 0.218401
Si Si5 0.935894 0.806104 0.956601
Si Si6 0.469654 0.135778 0.958070
Si Si7 0.890797 0.303406 0.062976
Si Si8 0.817303 0.017018 0.558255
O O1 0.500000 0.622367 0.250000
O O2 0.478178 0.654668 0.030132
O O3 0.350490 0.713261 0.024822
O O4 0.347179 0.550940 0.003460
O O5 0.679815 0.036245 0.178291
O O6 0.834345 0.137585 0.330160
O O7 0.825187 0.017249 0.185347
O O8 0.696659 0.129055 0.024126
O O9 0.511966 0.305871 0.370926
O O10 0.601917 0.411189 0.360932
O O11 0.696829 0.039686 0.400676
O O12 0.576803 0.931425 0.170780
O O13 0.516495 0.082899 0.104811
O O14 0.900196 0.714370 0.897502
O O15 0.570032 0.178114 0.013123
O O16 0.000000 0.307776 0.250000
#
# Coordination Sequence:
#
# PCOD9272834 Si02
#       8
#     8   8   4   8   8   8   8   8
#     4  10  20  37  60  91 126 155 197 256 330 371
#     4  11  22  37  62  93 123 157 212 254 314 378
#     4  12  26  42  60  84 132 174 216 252 296 370
#     4  10  22  42  63  92 122 161 207 256 307 378
#     4  11  23  43  62  90 123 171 210 258 308 371
#     4   9  21  43  65  84 126 165 203 256 310 364
#     4   9  19  35  59  94 125 155 194 259 317 381
#     4  12  23  37  60  95 122 164 201 264 316 374
#
# _framework density 22.388940999999999
#
# number of rings (size 3 to 8) (size 9 to 14) (size 15 to 20)
#    0.000    1.600    3.333    0.800    3.733    1.600 
#    2.400    0.667    0.000    0.000    0.000    0.000 
#    0.000    0.000    0.000    0.000    0.000    0.000 
#
# Total GULP energy -167314.214697 kJ/mol
# GULP energy per Si atom -5577.140490 kJ/mol
# Density = 2.233798 g / cm^3
# Si number density = 22.388941 Si / 1000 Ang^3
#
#
#
# Elastic Constant Matrix: (Units=GPa)
#
#
# Indices 1 2 3 4 5 6 
#
# 1 42.0296 -3.6725 -15.1335 0.0000 -6.3806 0.0000
# 2 -3.6725 50.3096 -4.4067 0.0000 4.0859 0.0000
# 3 -15.1335 -4.4067 87.3979 0.0000 -11.5670 0.0000
# 4 0.0000 0.0000 0.0000 -1.7168 0.0000 5.9855
# 5 -6.3806 4.0859 -11.5670 0.0000 23.7682 0.0000
# 6 0.0000 0.0000 0.0000 5.9855 0.0000 20.6809
#
#
#
# Elastic Compliance Matrix: (Units=1/GPa)
#
#
# Indices 1 2 3 4 5 6 
#
# 1 0.027737 0.001744 0.006238 0.000000 0.010182 0.000000
# 2 0.001744 0.020297 0.000989 0.000000 -0.002539 0.000000
# 3 0.006238 0.000989 0.013650 0.000000 0.008148 0.000000
# 4 0.000000 0.000000 0.000000 -0.289927 0.000000 0.083912
# 5 0.010182 -0.002539 0.008148 0.000000 0.049208 0.000000
# 6 0.000000 0.000000 0.000000 0.083912 0.000000 0.024068
#
#
# Mechanical properties :
#
#
# Convention : Reuss Voigt Hill
#
# Bulk Modulus (GPa) = 12.55826 14.81240 13.68533
# Shear Modulus (GPa) = -34.16056 22.07646 -6.04205
#
# Velocity S-wave (km/s) = -3.91036 3.14354 -1.64455
# Velocity P-wave (km/s) = 3.84273 4.45040 1.58738
#
# Compressibility (1/GPa) = 0.07962889
#
# Stress axis : x y z
#
# Youngs Moduli (GPa) = 36.05261 49.26797 73.25807
#
# Poissons Ratio (x) = -0.08594 -0.45702
# Poissons Ratio (y) = -0.06289 -0.07248
# Poissons Ratio (z) = -0.22491 -0.04874
#
# Static dielectric constant tensor:
#      x y z
#    x 1.854620 0.000000 0.040650 
#    y 0.000000 1.897700 0.000000 
#    z 0.040650 0.000000 1.894750 
# 
# From -- ./inp_files/168665.got.cif
#   From: 2010.05.17/outbox.cif.g08.bks.cpg/sg15_85_cif.got.tgz:168665.got - 2010.06.03 18:47:42.
