data_PCOD9272370
_publ_section_title
;
Structure prediction by ZEFSAII (Michael W. Deem and Ramdas Pophale) SiO2 
 PCOD9272370
Probable space group: C 2/C
;
_chemical_formula_sum "Si O2"
_cell_formula_units_Z 60
_cell_length_a 11.024896
_cell_length_b 21.240196
_cell_length_c 18.508293
_cell_angle_alpha 90.000000
_cell_angle_beta 139.010129
_cell_angle_gamma 90.000000
_cell_volume 2842.850145
_symmetry_space_group_name_H-M "C 2/C"
_symmetry_group_IT_number 15
_symmetry_cell_setting 'monoclinic'
loop_
_space_group_symop_operation_xyz
x,y,z
-x,y,1/2-z
-x,-y,-z
x,-y,1/2+z
1/2+x,1/2+y,z
1/2-x,1/2+y,1/2-z
1/2-x,1/2-y,-z
1/2+x,1/2-y,1/2+z
loop_
_atom_site_type_symbol
_atom_site_label
_atom_site_fract_x
_atom_site_fract_y
_atom_site_fract_z
Si Si1 0.460998 0.697121 0.021568
Si Si2 0.500000 0.370708 0.750000
Si Si3 0.237228 0.107977 0.227065
Si Si4 0.305554 0.876045 0.188836
Si Si5 0.676571 0.174623 0.021567
Si Si6 0.079434 0.565586 0.447776
Si Si7 0.101213 0.568772 0.615029
Si Si8 0.282600 0.509539 0.405855
O O1 0.375480 0.665205 0.911516
O O2 0.474175 0.772474 0.028554
O O3 0.638829 0.662797 0.135565
O O4 0.288987 0.686055 0.999049
O O5 0.418071 0.407883 0.781626
O O6 0.666933 0.326033 0.847797
O O7 0.434928 0.118543 0.354777
O O8 0.272650 0.051832 0.187050
O O9 0.500000 0.844817 0.250000
O O10 0.309002 0.899580 0.273746
O O11 0.299513 0.939964 0.138454
O O12 0.592271 0.105721 0.979707
O O13 0.179252 0.577799 0.569025
O O14 0.219940 0.545331 0.449071
O O15 0.944581 0.504635 0.396879
O O16 0.500000 0.500000 0.500000
#
# Coordination Sequence:
#
# PCOD9272370 Si02
#       8
#     8   4   8   8   8   8   8   8
#     4  10  22  33  60  89 124 165 205 256 309 367
#     4  10  22  34  60  92 132 158 198 254 318 376
#     4  11  21  38  61  90 124 159 203 255 308 379
#     4  12  20  36  57  88 124 162 200 252 311 379
#     4  10  20  37  53  94 128 163 207 257 319 368
#     4  11  23  39  61  90 121 165 201 255 321 372
#     4  11  22  37  60  85 126 163 199 253 313 381
#     4  12  23  39  61  90 122 155 209 261 314 385
#
# _framework density 21.105578999999999
#
# number of rings (size 3 to 8) (size 9 to 14) (size 15 to 20)
#    0.000    1.067    6.667    0.400    2.800    1.067 
#    0.000    0.000    0.000    0.800    0.000    0.000 
#    0.000    0.000    0.000    0.000    0.000    0.000 
#
# Total GULP energy -167298.704605 kJ/mol
# GULP energy per Si atom -5576.623487 kJ/mol
# Density = 2.105754 g / cm^3
# Si number density = 21.105579 Si / 1000 Ang^3
#
#
#
# Elastic Constant Matrix: (Units=GPa)
#
#
# Indices 1 2 3 4 5 6 
#
# 1 91.7014 -8.1966 31.5764 0.0000 -22.6183 0.0000
# 2 -8.1966 46.2440 25.1819 0.0000 4.2805 0.0000
# 3 31.5764 25.1819 115.5134 0.0002 -19.6729 0.0001
# 4 0.0000 0.0000 0.0002 14.3488 0.0001 8.4163
# 5 -22.6183 4.2805 -19.6729 0.0001 40.8198 0.0000
# 6 0.0000 0.0000 0.0001 8.4163 0.0000 17.9671
#
#
#
# Elastic Compliance Matrix: (Units=1/GPa)
#
#
# Indices 1 2 3 4 5 6 
#
# 1 0.013901 0.003991 -0.003736 0.000000 0.005483 0.000000
# 2 0.003991 0.026922 -0.007696 0.000000 -0.004321 0.000000
# 3 -0.003736 -0.007696 0.012137 0.000000 0.004586 0.000000
# 4 0.000000 0.000000 0.000000 0.096095 0.000000 -0.045014
# 5 0.005483 -0.004321 0.004586 0.000000 0.030200 0.000000
# 6 0.000000 0.000000 0.000000 -0.045014 0.000000 0.076743
#
#
# Mechanical properties :
#
#
# Convention : Reuss Voigt Hill
#
# Bulk Modulus (GPa) = 26.26203 38.95358 32.60780
# Shear Modulus (GPa) = 17.63219 28.28695 22.95957
#
# Velocity S-wave (km/s) = 2.89351 3.66493 3.30183
# Velocity P-wave (km/s) = 4.86142 6.03370 5.47900
#
# Compressibility (1/GPa) = 0.03807779
#
# Stress axis : x y z
#
# Youngs Moduli (GPa) = 71.93952 37.14376 82.39249
#
# Poissons Ratio (x) = -0.14823 0.30781
# Poissons Ratio (y) = -0.28709 0.63408
# Poissons Ratio (z) = 0.26876 0.28585
#
# Static dielectric constant tensor:
#      x y z
#    x 1.781080 0.000000 -0.050990 
#    y 0.000000 1.792640 0.000000 
#    z -0.050990 0.000000 1.873690 
# 
# From -- ./inp_files/200942.got.cif
#   From: 2010.05.17/outbox.cif.g08.bks.cpg/sg15_101_cif.got.tgz:200942.got - 2010.06.03 18:47:42.
