data_PCOD9272205
_publ_section_title
;
Structure prediction by ZEFSAII (Michael W. Deem and Ramdas Pophale) SiO2 
 PCOD9272205
Probable space group: C 2/C
;
_chemical_formula_sum "Si O2"
_cell_formula_units_Z 40
_cell_length_a 17.687871
_cell_length_b 25.756535
_cell_length_c 9.783666
_cell_angle_alpha 90.000000
_cell_angle_beta 28.353950
_cell_angle_gamma 90.000000
_cell_volume 2116.812489
_symmetry_space_group_name_H-M "C 2/C"
_symmetry_group_IT_number 15
_symmetry_cell_setting 'monoclinic'
loop_
_space_group_symop_operation_xyz
x,y,z
-x,y,1/2-z
-x,-y,-z
x,-y,1/2+z
1/2+x,1/2+y,z
1/2-x,1/2+y,1/2-z
1/2-x,1/2-y,-z
1/2+x,1/2-y,1/2+z
loop_
_atom_site_type_symbol
_atom_site_label
_atom_site_fract_x
_atom_site_fract_y
_atom_site_fract_z
Si Si1 0.810541 0.834024 0.044319
Si Si2 0.307937 0.847284 0.570110
Si Si3 0.310042 0.744139 0.059063
Si Si4 0.366214 0.045980 0.076546
Si Si5 0.400643 0.067795 0.546009
O O1 0.753712 0.788136 0.235256
O O2 0.720046 0.885859 0.235768
O O3 0.762150 0.827804 0.962198
O O4 0.000000 0.838376 0.750000
O O5 0.251346 0.809693 0.779671
O O6 0.262627 0.906772 0.681910
O O7 0.500000 0.846385 0.250000
O O8 0.500000 0.745901 0.750000
O O9 0.250000 0.750000 0.000000
O O10 0.307399 0.987616 0.197477
O O11 0.500000 0.036606 0.750000
O O12 0.464180 0.065329 0.051975
O O13 0.500000 0.075850 0.250000
#
# Coordination Sequence:
#
# PCOD9272205 Si02
#       5
#     8   8   8   8   8
#     4  12  24  41  61  90 125 164 201 248 310 368
#     4  11  21  42  65  86 119 167 205 243 303 373
#     4  12  26  42  62  92 121 156 207 261 307 356
#     4   9  18  37  65  92 119 161 207 244 299 365
#     4  10  20  36  65  95 122 158 210 251 294 359
#
# _framework density 18.896336000000002
#
# number of rings (size 3 to 8) (size 9 to 14) (size 15 to 20)
#    0.000    1.200    4.000    4.200    2.800    0.000 
#    0.000    2.000    0.000    0.000    0.000    0.000 
#    0.000    0.000    0.000    0.000    0.000    0.000 
#
# Total GULP energy -111624.607264 kJ/mol
# GULP energy per Si atom -5581.230363 kJ/mol
# Density = 1.885333 g / cm^3
# Si number density = 18.896336 Si / 1000 Ang^3
#
#
#
# Elastic Constant Matrix: (Units=GPa)
#
#
# Indices 1 2 3 4 5 6 
#
# 1 106.3016 -11.7461 20.9870 0.0001 21.8264 -0.0001
# 2 -11.7461 109.4235 18.3670 -0.0001 10.8970 0.0001
# 3 20.9870 18.3670 78.0457 -0.0002 3.8782 0.0001
# 4 0.0001 -0.0001 -0.0002 21.3275 0.0000 12.4045
# 5 21.8264 10.8970 3.8782 0.0000 37.4452 0.0000
# 6 -0.0001 0.0001 0.0001 12.4045 0.0000 24.1939
#
#
#
# Elastic Compliance Matrix: (Units=1/GPa)
#
#
# Indices 1 2 3 4 5 6 
#
# 1 0.011873 0.002580 -0.003436 0.000000 -0.007315 0.000000
# 2 0.002580 0.010324 -0.002914 0.000000 -0.004206 0.000000
# 3 -0.003436 -0.002914 0.014355 0.000000 0.001364 0.000000
# 4 0.000000 0.000000 0.000000 0.066811 0.000000 -0.034255
# 5 -0.007315 -0.004206 0.001364 0.000000 0.032052 0.000000
# 6 0.000000 0.000000 0.000000 -0.034255 0.000000 0.058896
#
#
# Mechanical properties :
#
#
# Convention : Reuss Voigt Hill
#
# Bulk Modulus (GPa) = 34.47084 38.77631 36.62358
# Shear Modulus (GPa) = 23.63819 34.33751 28.98785
#
# Velocity S-wave (km/s) = 3.54070 4.26743 3.92094
# Velocity P-wave (km/s) = 5.91583 6.69674 6.31837
#
# Compressibility (1/GPa) = 0.02901002
#
# Stress axis : x y z
#
# Youngs Moduli (GPa) = 84.22693 96.86380 69.66180
#
# Poissons Ratio (x) = -0.24989 0.23938
# Poissons Ratio (y) = -0.21729 0.20301
# Poissons Ratio (z) = 0.28942 0.28229
#
# Static dielectric constant tensor:
#      x y z
#    x 1.599630 0.000000 -0.018560 
#    y 0.000000 1.718940 0.000000 
#    z -0.018560 0.000000 1.579040 
# 
# From -- ./inp_files/52101.got.cif
#   From: 2010.05.17/outbox.cif.g08.bks.cpg/sg15_27_cif.got.tgz:52101.got - 2010.06.03 18:47:42.
