data_PCOD9272375
_publ_section_title
;
Structure prediction by ZEFSAII (Michael W. Deem and Ramdas Pophale) SiO2 
 PCOD9272375
Probable space group: C 2/C
;
_chemical_formula_sum "Si O2"
_cell_formula_units_Z 36
_cell_length_a 16.440741
_cell_length_b 21.938570
_cell_length_c 5.044258
_cell_angle_alpha 90.000000
_cell_angle_beta 118.580019
_cell_angle_gamma 90.000000
_cell_volume 1597.701455
_symmetry_space_group_name_H-M "C 2/C"
_symmetry_group_IT_number 15
_symmetry_cell_setting 'monoclinic'
loop_
_space_group_symop_operation_xyz
x,y,z
-x,y,1/2-z
-x,-y,-z
x,-y,1/2+z
1/2+x,1/2+y,z
1/2-x,1/2+y,1/2-z
1/2-x,1/2-y,-z
1/2+x,1/2-y,1/2+z
loop_
_atom_site_type_symbol
_atom_site_label
_atom_site_fract_x
_atom_site_fract_y
_atom_site_fract_z
Si Si1 0.928395 0.298372 0.348988
Si Si2 0.500000 0.913259 0.750000
Si Si3 0.658674 0.708971 0.886859
Si Si4 0.223897 0.151018 0.490258
Si Si5 0.202778 0.535276 0.566858
O O1 0.909928 0.255511 0.574398
O O2 0.822577 0.314158 0.098772
O O3 0.000000 0.271408 0.250000
O O4 0.974074 0.364027 0.485522
O O5 0.407864 0.953066 0.629955
O O6 0.677533 0.654855 0.129100
O O7 0.750000 0.750000 0.000000
O O8 0.651633 0.682993 0.580336
O O9 0.254134 0.092137 0.707987
O O10 0.227801 0.520606 0.302630
#
# Coordination Sequence:
#
# PCOD9272375 Si02
#       5
#     8   4   8   8   8
#     4  10  22  31  54  78 114 147 187 218 276 339
#     4  10  24  32  52  78 122 148 186 220 274 328
#     4  10  20  37  54  77 106 151 185 229 278 333
#     4  10  22  37  55  75 111 146 193 234 276 318
#     4  11  23  38  56  77 108 152 197 236 268 314
#
# _framework density 22.532371000000001
#
# number of rings (size 3 to 8) (size 9 to 14) (size 15 to 20)
#    0.000    1.778    0.000    4.667   18.667    0.000 
#    0.000    0.000    0.000    0.000    0.000    0.000 
#    0.000   17.778    0.000    0.000    0.000    0.000 
#
# Total GULP energy -100279.541374 kJ/mol
# GULP energy per Si atom -5571.085632 kJ/mol
# Density = 2.248109 g / cm^3
# Si number density = 22.532371 Si / 1000 Ang^3
#
#
#
# Elastic Constant Matrix: (Units=GPa)
#
#
# Indices 1 2 3 4 5 6 
#
# 1 123.6581 20.3213 27.8632 0.0000 -29.8284 0.0000
# 2 20.3213 52.4116 8.7707 0.0000 3.0817 0.0000
# 3 27.8632 8.7707 87.3216 0.0000 -28.4355 0.0000
# 4 0.0000 0.0000 0.0000 43.7894 0.0000 -1.2370
# 5 -29.8284 3.0817 -28.4355 0.0000 37.4441 0.0000
# 6 0.0000 0.0000 0.0000 -1.2370 0.0000 -12.0566
#
#
#
# Elastic Compliance Matrix: (Units=1/GPa)
#
#
# Indices 1 2 3 4 5 6 
#
# 1 0.011117 -0.004841 -0.000063 0.000000 0.009207 0.000000
# 2 -0.004841 0.021997 -0.003335 0.000000 -0.008199 0.000000
# 3 -0.000063 -0.003335 0.015783 0.000000 0.012210 0.000000
# 4 0.000000 0.000000 0.000000 0.022771 0.000000 -0.002336
# 5 0.009207 -0.008199 0.012210 0.000000 0.043988 0.000000
# 6 0.000000 0.000000 0.000000 -0.002336 0.000000 -0.082702
#
#
# Mechanical properties :
#
#
# Convention : Reuss Voigt Hill
#
# Bulk Modulus (GPa) = 30.84565 41.92243 36.38404
# Shear Modulus (GPa) = 83.00326 27.59778 55.30052
#
# Velocity S-wave (km/s) = 6.07596 3.50352 4.95943
# Velocity P-wave (km/s) = 7.93362 5.91709 6.99837
#
# Compressibility (1/GPa) = 0.03241948
#
# Stress axis : x y z
#
# Youngs Moduli (GPa) = 89.94863 45.46074 63.35899
#
# Poissons Ratio (x) = 0.22009 0.00399
# Poissons Ratio (y) = 0.43547 0.21128
# Poissons Ratio (z) = 0.00567 0.15160
#
# Static dielectric constant tensor:
#      x y z
#    x 1.821850 0.000000 0.008110 
#    y 0.000000 1.936760 0.000000 
#    z 0.008110 0.000000 1.938680 
# 
# From -- ./inp_files/6913.got.cif
#   From: 2010.05.17/outbox.cif.g08.bks.cpg/sg15_4_cif.got.tgz:6913.got - 2010.06.03 18:47:42.
