data_PCOD9272584
_publ_section_title
;
Structure prediction by ZEFSAII (Michael W. Deem and Ramdas Pophale) SiO2 
 PCOD9272584
Probable space group: C 2/C
;
_chemical_formula_sum "Si O2"
_cell_formula_units_Z 40
_cell_length_a 14.925163
_cell_length_b 15.661094
_cell_length_c 11.441928
_cell_angle_alpha 90.000000
_cell_angle_beta 139.694498
_cell_angle_gamma 90.000000
_cell_volume 1730.026317
_symmetry_space_group_name_H-M "C 2/C"
_symmetry_group_IT_number 15
_symmetry_cell_setting 'monoclinic'
loop_
_space_group_symop_operation_xyz
x,y,z
-x,y,1/2-z
-x,-y,-z
x,-y,1/2+z
1/2+x,1/2+y,z
1/2-x,1/2+y,1/2-z
1/2-x,1/2-y,-z
1/2+x,1/2-y,1/2+z
loop_
_atom_site_type_symbol
_atom_site_label
_atom_site_fract_x
_atom_site_fract_y
_atom_site_fract_z
Si Si1 0.448323 0.602421 0.571222
Si Si2 0.674440 0.180659 0.052402
Si Si3 0.500000 0.945159 0.250000
Si Si4 0.001805 0.850839 0.623575
Si Si5 0.500000 0.769373 0.750000
Si Si6 0.135817 0.410060 0.747694
O O1 0.500000 0.572447 0.750000
O O2 0.525204 0.596084 0.522506
O O3 0.450393 0.705644 0.598662
O O4 0.295839 0.565471 0.404967
O O5 0.839268 0.182261 0.231922
O O6 0.605959 0.134772 0.096019
O O7 0.627932 0.117648 0.902474
O O8 0.605698 0.272869 0.974041
O O9 0.459229 0.010828 0.312164
O O10 0.000000 0.893020 0.750000
O O11 0.617717 0.834210 0.824521
#
# Coordination Sequence:
#
# PCOD9272584 Si02
#       6
#     8   8   4   8   4   8
#     4   9  19  35  60  91 123 153 203 259 303 349
#     4  11  22  41  63  90 123 160 208 254 308 359
#     4  11  24  38  58  84 127 170 198 240 305 394
#     4  11  22  38  64  98 121 155 204 266 308 351
#     4   9  16  30  58  88 109 152 196 256 293 332
#     4  10  20  37  58  89 120 160 206 246 303 369
#
# _framework density 23.121037000000001
#
# number of rings (size 3 to 8) (size 9 to 14) (size 15 to 20)
#    0.600    1.200    3.000    1.800    0.000    0.000 
#    0.000    3.000    0.000    4.800    0.000    0.000 
#    0.000    0.000    0.000    0.000    0.000    0.000 
#
# Total GULP energy -111526.250954 kJ/mol
# GULP energy per Si atom -5576.312548 kJ/mol
# Density = 2.306841 g / cm^3
# Si number density = 23.121037 Si / 1000 Ang^3
#
#
#
# Elastic Constant Matrix: (Units=GPa)
#
#
# Indices 1 2 3 4 5 6 
#
# 1 114.3359 34.2340 15.7056 0.0000 -31.6590 0.0000
# 2 34.2340 113.3017 21.8006 0.0000 -2.7072 0.0000
# 3 15.7056 21.8006 56.3096 0.0000 -18.6768 0.0000
# 4 0.0000 0.0000 0.0000 -155.8671 0.0000 251.5258
# 5 -31.6590 -2.7072 -18.6768 0.0000 50.6218 0.0000
# 6 0.0000 0.0000 0.0000 251.5258 0.0000 -371.3416
#
#
#
# Elastic Compliance Matrix: (Units=1/GPa)
#
#
# Indices 1 2 3 4 5 6 
#
# 1 0.011752 -0.003472 0.000504 0.000000 0.007350 0.000000
# 2 -0.003472 0.010604 -0.004181 0.000000 -0.003147 0.000000
# 3 0.000504 -0.004181 0.021954 0.000000 0.008192 0.000000
# 4 0.000000 0.000000 0.000000 0.068954 0.000000 0.046706
# 5 0.007350 -0.003147 0.008192 0.000000 0.027205 0.000000
# 6 0.000000 0.000000 0.000000 0.046706 0.000000 0.028943
#
#
# Mechanical properties :
#
#
# Convention : Reuss Voigt Hill
#
# Bulk Modulus (GPa) = 33.31928 47.49197 40.40562
# Shear Modulus (GPa) = 25.81124 -81.17023 -27.67949
#
# Velocity S-wave (km/s) = 3.34481 -5.93151 -3.46375
# Velocity P-wave (km/s) = 5.41841 5.13082 1.23162
#
# Compressibility (1/GPa) = 0.03001266
#
# Stress axis : x y z
#
# Youngs Moduli (GPa) = 85.09429 94.30077 45.54985
#
# Poissons Ratio (x) = 0.32743 -0.02297
# Poissons Ratio (y) = 0.29546 0.19044
# Poissons Ratio (z) = -0.04292 0.39426
#
# Static dielectric constant tensor:
#      x y z
#    x 1.927820 0.000000 -0.067620 
#    y 0.000000 1.821280 0.000000 
#    z -0.067620 0.000000 1.903260 
# 
# From -- ./inp_files/98549.got.cif
#   From: 2010.05.17/outbox.cif.g08.bks.cpg/sg15_50_cif.got.tgz:98549.got - 2010.06.03 18:47:42.
