data_PCOD9272877
_publ_section_title
;
Structure prediction by ZEFSAII (Michael W. Deem and Ramdas Pophale) SiO2 
 PCOD9272877
Probable space group: C 2/C
;
_chemical_formula_sum "Si O2"
_cell_formula_units_Z 40
_cell_length_a 16.543487
_cell_length_b 9.081840
_cell_length_c 11.181921
_cell_angle_alpha 90.000000
_cell_angle_beta 96.658860
_cell_angle_gamma 90.000000
_cell_volume 1668.697887
_symmetry_space_group_name_H-M "C 2/C"
_symmetry_group_IT_number 15
_symmetry_cell_setting 'monoclinic'
loop_
_space_group_symop_operation_xyz
x,y,z
-x,y,1/2-z
-x,-y,-z
x,-y,1/2+z
1/2+x,1/2+y,z
1/2-x,1/2+y,1/2-z
1/2-x,1/2-y,-z
1/2+x,1/2-y,1/2+z
loop_
_atom_site_type_symbol
_atom_site_label
_atom_site_fract_x
_atom_site_fract_y
_atom_site_fract_z
Si Si1 0.500000 0.833298 0.750000
Si Si2 0.367776 0.768776 0.052905
Si Si3 0.749540 0.769373 0.248550
Si Si4 0.000000 0.823351 0.750000
Si Si5 0.411965 0.590565 0.854939
Si Si6 0.153123 0.480673 0.674383
O O1 0.485413 0.711373 0.852949
O O2 0.576201 0.940466 0.742882
O O3 0.291274 0.777251 0.127163
O O4 0.446573 0.770318 0.150186
O O5 0.378573 0.614795 0.982489
O O6 0.361663 0.896115 0.952615
O O7 0.837764 0.847806 0.261066
O O8 0.772564 0.598906 0.240919
O O9 0.683424 0.854281 0.158687
O O10 0.057748 0.934155 0.683913
#
# Coordination Sequence:
#
# PCOD9272877 Si02
#       6
#     4   8   8   4   8   8
#     4   7  16  33  54  80 118 152 184 236 294 344
#     4  10  21  37  58  87 118 154 197 247 289 340
#     4  10  20  37  61  85 116 156 195 240 296 349
#     4  11  20  35  62  90 116 156 202 238 290 354
#     4   9  18  35  59  86 115 151 196 243 289 346
#     4  10  20  39  60  85 118 155 195 245 292 345
#
# _framework density 23.970787000000001
#
# number of rings (size 3 to 8) (size 9 to 14) (size 15 to 20)
#    0.000    2.800    0.000    4.200    0.000    0.800 
#    0.000   14.000    0.000    0.000    0.000    0.000 
#    0.000    0.000    0.000    0.000    0.000    0.000 
#
# Total GULP energy -111436.911344 kJ/mol
# GULP energy per Si atom -5571.845567 kJ/mol
# Density = 2.391623 g / cm^3
# Si number density = 23.970787 Si / 1000 Ang^3
#
#
#
# Elastic Constant Matrix: (Units=GPa)
#
#
# Indices 1 2 3 4 5 6 
#
# 1 89.4724 20.1100 28.6870 0.0000 -18.6653 0.0000
# 2 20.1100 81.4132 26.6317 0.0000 2.7298 0.0000
# 3 28.6870 26.6317 61.8819 0.0000 -8.9051 0.0000
# 4 0.0000 0.0000 0.0000 17.5582 0.0000 2.8738
# 5 -18.6653 2.7298 -8.9051 0.0000 41.5287 0.0000
# 6 0.0000 0.0000 0.0000 2.8738 0.0000 36.8620
#
#
#
# Elastic Compliance Matrix: (Units=1/GPa)
#
#
# Indices 1 2 3 4 5 6 
#
# 1 0.014403 -0.002119 -0.004966 0.000000 0.005548 0.000000
# 2 -0.002119 0.014829 -0.005858 0.000000 -0.003183 0.000000
# 3 -0.004966 -0.005858 0.021377 0.000000 0.002737 0.000000
# 4 0.000000 0.000000 0.000000 0.057689 0.000000 -0.004498
# 5 0.005548 -0.003183 0.002737 0.000000 0.027369 0.000000
# 6 0.000000 0.000000 0.000000 -0.004498 0.000000 0.027479
#
#
# Mechanical properties :
#
#
# Convention : Reuss Voigt Hill
#
# Bulk Modulus (GPa) = 40.44904 42.62497 41.53701
# Shear Modulus (GPa) = 25.34549 29.67902 27.51226
#
# Velocity S-wave (km/s) = 3.25522 3.52253 3.39151
# Velocity P-wave (km/s) = 5.57131 5.86216 5.71859
#
# Compressibility (1/GPa) = 0.02472247
#
# Stress axis : x y z
#
# Youngs Moduli (GPa) = 69.43195 67.43374 46.77940
#
# Poissons Ratio (x) = 0.14289 0.23233
# Poissons Ratio (y) = 0.14713 0.27402
# Poissons Ratio (z) = 0.34483 0.39501
#
# Static dielectric constant tensor:
#      x y z
#    x 2.005010 0.000000 0.011180 
#    y 0.000000 1.973370 0.000000 
#    z 0.011180 0.000000 1.933370 
# 
# From -- ./inp_files/102754.got.cif
#   From: 2010.05.17/outbox.cif.g08.bks.cpg/sg15_52_cif.got.tgz:102754.got - 2010.06.03 18:47:42.
