data_PCOD9272203
_publ_section_title
;
Structure prediction by ZEFSAII (Michael W. Deem and Ramdas Pophale) SiO2 
 PCOD9272203
Probable space group: C 2/C
;
_chemical_formula_sum "Si O2"
_cell_formula_units_Z 64
_cell_length_a 19.863739
_cell_length_b 14.385168
_cell_length_c 11.895936
_cell_angle_alpha 90.000000
_cell_angle_beta 109.185399
_cell_angle_gamma 90.000000
_cell_volume 3210.392958
_symmetry_space_group_name_H-M "C 2/C"
_symmetry_group_IT_number 15
_symmetry_cell_setting 'monoclinic'
loop_
_space_group_symop_operation_xyz
x,y,z
-x,y,1/2-z
-x,-y,-z
x,-y,1/2+z
1/2+x,1/2+y,z
1/2-x,1/2+y,1/2-z
1/2-x,1/2-y,-z
1/2+x,1/2-y,1/2+z
loop_
_atom_site_type_symbol
_atom_site_label
_atom_site_fract_x
_atom_site_fract_y
_atom_site_fract_z
Si Si1 0.169115 0.652176 0.737968
Si Si2 0.220888 0.515659 0.133502
Si Si3 0.920248 0.815286 0.422973
Si Si4 0.820198 0.305743 0.008537
Si Si5 0.806281 0.243880 0.697125
Si Si6 0.628346 0.477309 0.654891
Si Si7 0.221206 0.107339 0.022807
Si Si8 0.544001 0.700642 0.157853
O O1 0.169986 0.554030 0.674321
O O2 0.160314 0.642058 0.866225
O O3 0.245799 0.697861 0.745571
O O4 0.107381 0.725226 0.673953
O O5 0.298184 0.513841 0.235218
O O6 0.192408 0.618542 0.095199
O O7 0.235686 0.470393 0.020302
O O8 0.874149 0.773759 0.500525
O O9 0.883479 0.761926 0.297519
O O10 0.997938 0.800114 0.517364
O O11 0.906626 0.923029 0.386853
O O12 0.750000 0.250000 0.000000
O O13 0.805252 0.180570 0.584653
O O14 0.773936 0.341134 0.638279
O O15 0.654846 0.435345 0.551470
O O16 0.578126 0.402137 0.686617
O O17 0.500000 0.720071 0.250000
#
# Coordination Sequence:
#
# PCOD9272203 Si02
#       8
#     8   8   8   8   8   8   8   8
#     4  11  21  44  64  96 131 172 228 279 328 388
#     4  11  23  38  72 103 124 166 231 291 332 381
#     4  12  24  40  60  98 133 177 221 266 331 410
#     4  12  21  37  67  99 131 173 226 280 328 392
#     4  10  20  39  64  90 128 172 222 273 325 385
#     4  12  23  41  63 101 136 171 219 276 337 407
#     4  10  20  36  65  93 129 164 214 284 334 367
#     4  12  27  43  67  95 143 186 214 263 346 409
#
# _framework density 19.935255000000002
#
# number of rings (size 3 to 8) (size 9 to 14) (size 15 to 20)
#    0.000    0.750    6.250    3.375    1.750    0.000 
#    0.000    1.250    0.000    0.000    0.000    0.000 
#    0.000    0.000    0.000    0.000    0.000    0.000 
#
# Total GULP energy -178619.995595 kJ/mol
# GULP energy per Si atom -5581.874862 kJ/mol
# Density = 1.988988 g / cm^3
# Si number density = 19.935255 Si / 1000 Ang^3
#
#
#
# Elastic Constant Matrix: (Units=GPa)
#
#
# Indices 1 2 3 4 5 6 
#
# 1 42.4083 27.5346 25.3497 0.0000 11.8975 0.0000
# 2 27.5346 84.4448 22.5432 0.0000 14.2536 0.0000
# 3 25.3497 22.5432 114.7884 0.0000 21.1248 0.0000
# 4 0.0000 0.0000 0.0000 19.2249 0.0000 5.6390
# 5 11.8975 14.2536 21.1248 0.0000 32.9584 0.0000
# 6 0.0000 0.0000 0.0000 5.6390 0.0000 25.6083
#
#
#
# Elastic Compliance Matrix: (Units=1/GPa)
#
#
# Indices 1 2 3 4 5 6 
#
# 1 0.033602 -0.008803 -0.004716 0.000000 -0.005300 0.000000
# 2 -0.008803 0.015377 -0.000495 0.000000 -0.003155 0.000000
# 3 -0.004716 -0.000495 0.010768 0.000000 -0.004985 0.000000
# 4 0.000000 0.000000 0.000000 0.055608 0.000000 -0.012245
# 5 -0.005300 -0.003155 -0.004985 0.000000 0.036814 0.000000
# 6 0.000000 0.000000 0.000000 -0.012245 0.000000 0.041746
#
#
# Mechanical properties :
#
#
# Convention : Reuss Voigt Hill
#
# Bulk Modulus (GPa) = 31.52801 43.61073 37.56937
# Shear Modulus (GPa) = 21.50387 26.63925 24.07156
#
# Velocity S-wave (km/s) = 3.28790 3.65949 3.47866
# Velocity P-wave (km/s) = 5.50120 6.30710 5.91789
#
# Compressibility (1/GPa) = 0.03171782
#
# Stress axis : x y z
#
# Youngs Moduli (GPa) = 29.76026 65.03175 92.86834
#
# Poissons Ratio (x) = 0.57246 0.43801
# Poissons Ratio (y) = 0.26197 0.04599
# Poissons Ratio (z) = 0.14036 0.03221
#
# Static dielectric constant tensor:
#      x y z
#    x 1.691840 0.000000 0.017110 
#    y 0.000000 1.724530 0.000000 
#    z 0.017110 0.000000 1.797050 
# 
# From -- ./inp_files/112751.got.cif
#   From: 2010.05.17/outbox.cif.g08.bks.cpg/sg15_57_cif.got.tgz:112751.got - 2010.06.03 18:47:42.
