data_PCOD9272972
_publ_section_title
;
Structure prediction by ZEFSAII (Michael W. Deem and Ramdas Pophale) SiO2 
 PCOD9272972
Probable space group: C 2/C
;
_chemical_formula_sum "Si O2"
_cell_formula_units_Z 52
_cell_length_a 17.960501
_cell_length_b 9.788043
_cell_length_c 16.208749
_cell_angle_alpha 90.000000
_cell_angle_beta 111.252596
_cell_angle_gamma 90.000000
_cell_volume 2655.679978
_symmetry_space_group_name_H-M "C 2/C"
_symmetry_group_IT_number 15
_symmetry_cell_setting 'monoclinic'
loop_
_space_group_symop_operation_xyz
x,y,z
-x,y,1/2-z
-x,-y,-z
x,-y,1/2+z
1/2+x,1/2+y,z
1/2-x,1/2+y,1/2-z
1/2-x,1/2-y,-z
1/2+x,1/2-y,1/2+z
loop_
_atom_site_type_symbol
_atom_site_label
_atom_site_fract_x
_atom_site_fract_y
_atom_site_fract_z
Si Si1 0.646170 0.615156 0.406040
Si Si2 0.000000 0.219997 0.250000
Si Si3 0.081035 0.259260 0.687258
Si Si4 0.038487 0.567328 0.636682
Si Si5 0.198498 0.283059 0.587074
Si Si6 0.382050 0.946757 0.504452
Si Si7 0.103219 0.190246 0.885722
O O1 0.558784 0.636781 0.332209
O O2 0.706540 0.698263 0.369612
O O3 0.667821 0.685937 0.501411
O O4 0.647458 0.452065 0.419301
O O5 0.951382 0.317529 0.292129
O O6 0.071522 0.423256 0.681642
O O7 0.149713 0.235362 0.647415
O O8 0.104195 0.213782 0.787804
O O9 0.992774 0.197713 0.630530
O O10 0.073887 0.603297 0.561423
O O11 0.945466 0.534248 0.583404
O O12 0.177912 0.438857 0.551537
O O13 0.358379 0.816871 0.549003
#
# Coordination Sequence:
#
# PCOD9272972 Si02
#       7
#     8   4   8   8   8   8   8
#     4  11  25  39  59  89 129 159 200 248 315 361
#     4  12  20  36  60  86 118 158 202 246 286 384
#     4   9  19  38  64  87 124 155 206 259 304 347
#     4   9  17  31  61  93 106 155 206 248 292 363
#     4  10  22  44  59  85 127 166 193 252 311 366
#     4   9  17  36  62  84 115 151 206 245 297 361
#     4  10  20  37  61  95 117 159 205 257 298 364
#
# _framework density 19.580672
#
# number of rings (size 3 to 8) (size 9 to 14) (size 15 to 20)
#    0.000    2.154    1.538    3.692    0.000    1.231 
#    8.308    0.000    0.000    0.000    0.000    0.000 
#    0.000    0.000    0.000    0.000    0.000    0.000 
#
# Total GULP energy -144851.886276 kJ/mol
# GULP energy per Si atom -5571.226395 kJ/mol
# Density = 1.953611 g / cm^3
# Si number density = 19.580672 Si / 1000 Ang^3
#
#
#
# Elastic Constant Matrix: (Units=GPa)
#
#
# Indices 1 2 3 4 5 6 
#
# 1 76.9350 23.4023 32.2930 0.0000 -15.5667 0.0000
# 2 23.4023 70.1846 39.5420 0.0000 -4.6730 0.0000
# 3 32.2930 39.5420 54.4184 0.0000 -7.4675 0.0000
# 4 0.0000 0.0000 0.0000 9.2932 0.0000 0.0541
# 5 -15.5667 -4.6730 -7.4675 0.0000 23.7558 0.0000
# 6 0.0000 0.0000 0.0000 0.0541 0.0000 9.6772
#
#
#
# Elastic Compliance Matrix: (Units=1/GPa)
#
#
# Indices 1 2 3 4 5 6 
#
# 1 0.019115 -0.000141 -0.009955 0.000000 0.009369 0.000000
# 2 -0.000141 0.024140 -0.017576 0.000000 -0.000869 0.000000
# 3 -0.009955 -0.017576 0.037294 0.000000 0.001743 0.000000
# 4 0.000000 0.000000 0.000000 0.107609 0.000000 -0.000602
# 5 0.009369 -0.000869 0.001743 0.000000 0.048611 0.000000
# 6 0.000000 0.000000 0.000000 -0.000602 0.000000 0.103339
#
#
# Mechanical properties :
#
#
# Convention : Reuss Voigt Hill
#
# Bulk Modulus (GPa) = 39.67598 43.55695 41.61647
# Shear Modulus (GPa) = 12.38072 15.63196 14.00634
#
# Velocity S-wave (km/s) = 2.51727 2.82855 2.67744
# Velocity P-wave (km/s) = 5.36243 5.74115 5.55502
#
# Compressibility (1/GPa) = 0.02520417
#
# Stress axis : x y z
#
# Youngs Moduli (GPa) = 52.31454 41.42547 26.81392
#
# Poissons Ratio (x) = 0.00585 0.26693
# Poissons Ratio (y) = 0.00739 0.47128
# Poissons Ratio (z) = 0.52079 0.72810
#
# Static dielectric constant tensor:
#      x y z
#    x 1.781820 0.000000 0.026510 
#    y 0.000000 1.679550 0.000000 
#    z 0.026510 0.000000 1.675020 
# 
# From -- ./inp_files/209237.got.cif
#   From: 2010.05.17/outbox.cif.g08.bks.cpg/sg15_105_cif.got.tgz:209237.got - 2010.06.03 18:47:42.
