data_PCOD9272925
_publ_section_title
;
Structure prediction by ZEFSAII (Michael W. Deem and Ramdas Pophale) SiO2 
 PCOD9272925
Probable space group: C 2/C
;
_chemical_formula_sum "Si O2"
_cell_formula_units_Z 52
_cell_length_a 15.458378
_cell_length_b 15.697680
_cell_length_c 27.517038
_cell_angle_alpha 90.000000
_cell_angle_beta 160.374015
_cell_angle_gamma 90.000000
_cell_volume 2242.764360
_symmetry_space_group_name_H-M "C 2/C"
_symmetry_group_IT_number 15
_symmetry_cell_setting 'monoclinic'
loop_
_space_group_symop_operation_xyz
x,y,z
-x,y,1/2-z
-x,-y,-z
x,-y,1/2+z
1/2+x,1/2+y,z
1/2-x,1/2+y,1/2-z
1/2-x,1/2-y,-z
1/2+x,1/2-y,1/2+z
loop_
_atom_site_type_symbol
_atom_site_label
_atom_site_fract_x
_atom_site_fract_y
_atom_site_fract_z
Si Si1 0.500000 0.764466 0.250000
Si Si2 0.224487 0.297382 0.091004
Si Si3 0.245565 0.697100 0.210374
Si Si4 0.376478 0.483920 0.136787
Si Si5 0.264365 0.033127 0.163046
Si Si6 0.483474 0.292784 0.935785
Si Si7 0.659946 0.002969 0.688130
O O1 0.398354 0.710157 0.241577
O O2 0.729351 0.818271 0.396128
O O3 0.500000 0.258581 0.250000
O O4 0.274519 0.393803 0.102794
O O5 0.073447 0.288869 0.061270
O O6 0.034670 0.260304 0.949067
O O7 0.415078 0.729508 0.344680
O O8 0.193758 0.598501 0.195153
O O9 0.500000 0.526791 0.250000
O O10 0.596232 0.463119 0.213317
O O11 0.124474 0.528633 0.981002
O O12 0.500000 0.028605 0.250000
O O13 0.200747 0.130415 0.144852
O O14 0.320045 0.984838 0.243453
O O15 0.000000 0.000000 0.000000
#
# Coordination Sequence:
#
# PCOD9272925 Si02
#       7
#     4   8   8   8   8   8   8
#     4  10  20  38  62  90 120 162 208 254 302 380
#     4   9  19  37  59  87 121 156 204 250 310 366
#     4   9  20  36  59  87 122 163 204 253 312 369
#     4  10  20  37  61  89 128 161 207 255 307 373
#     4  11  24  42  67  90 124 165 207 261 309 373
#     4  10  21  39  62  88 124 162 204 258 314 365
#     4  10  21  39  60  91 123 165 206 252 316 365
#
# _framework density 23.185673000000001
#
# number of rings (size 3 to 8) (size 9 to 14) (size 15 to 20)
#    0.000    2.154    0.000    2.308    2.154    0.615 
#    5.538   13.846    0.000    0.000    0.000    0.000 
#    0.000    0.000    0.000    0.000    0.000    0.000 
#
# Total GULP energy -145026.692606 kJ/mol
# GULP energy per Si atom -5577.949716 kJ/mol
# Density = 2.313290 g / cm^3
# Si number density = 23.185673 Si / 1000 Ang^3
#
#
#
# Elastic Constant Matrix: (Units=GPa)
#
#
# Indices 1 2 3 4 5 6 
#
# 1 114.5590 54.1236 24.8876 0.0196 -44.7086 0.0128
# 2 54.1236 16.1065 49.3618 -0.0026 4.6281 -0.0015
# 3 24.8876 49.3618 117.5742 0.0820 -52.2411 -0.0230
# 4 0.0196 -0.0026 0.0820 15.0193 -0.0137 8.9596
# 5 -44.7086 4.6281 -52.2411 -0.0137 37.2153 0.0024
# 6 0.0128 -0.0015 -0.0230 8.9596 0.0024 21.8074
#
#
#
# Elastic Compliance Matrix: (Units=1/GPa)
#
#
# Indices 1 2 3 4 5 6 
#
# 1 0.004192 0.008194 -0.006757 0.000044 -0.005468 -0.000026
# 2 0.008194 -0.002167 0.009750 -0.000059 0.023800 0.000027
# 3 -0.006757 0.009750 0.004509 -0.000030 -0.003001 0.000022
# 4 0.000044 -0.000059 -0.000030 0.088197 0.000052 -0.036236
# 5 -0.005468 0.023800 -0.003001 0.000052 0.013129 -0.000021
# 6 -0.000026 0.000027 0.000022 -0.036236 -0.000021 0.060744
#
#
# Mechanical properties :
#
#
# Convention : Reuss Voigt Hill
#
# Bulk Modulus (GPa) = 34.59334 56.10954 45.35144
# Shear Modulus (GPa) = 32.07868 22.79949 27.43908
#
# Velocity S-wave (km/s) = 3.72365 3.13923 3.44386
# Velocity P-wave (km/s) = 5.78273 6.11493 5.95115
#
# Compressibility (1/GPa) = 0.02890730
#
# Stress axis : x y z
#
# Youngs Moduli (GPa) = 238.55848 -461.53731 221.78501
#
# Poissons Ratio (x) = 3.78168 1.49861
# Poissons Ratio (y) = -1.95467 -2.16241
# Poissons Ratio (z) = 1.61195 4.49999
#
# Static dielectric constant tensor:
#      x y z
#    x 1.852280 0.000000 0.004490 
#    y 0.000000 1.891830 -0.000020 
#    z 0.004490 -0.000020 1.994610 
# 
# From -- ./inp_files/296991.got.cif
#   From: 2010.05.17/outbox.cif.g08.bks.cpg/sg15_149_cif.got.tgz:296991.got - 2010.06.03 18:47:42.
