data_PCOD9272400
_publ_section_title
;
Structure prediction by ZEFSAII (Michael W. Deem and Ramdas Pophale) SiO2 
 PCOD9272400
Probable space group: C 2/C
;
_chemical_formula_sum "Si O2"
_cell_formula_units_Z 48
_cell_length_a 13.410230
_cell_length_b 12.408758
_cell_length_c 16.160349
_cell_angle_alpha 90.000000
_cell_angle_beta 74.296971
_cell_angle_gamma 90.000000
_cell_volume 2588.785522
_symmetry_space_group_name_H-M "C 2/C"
_symmetry_group_IT_number 15
_symmetry_cell_setting 'monoclinic'
loop_
_space_group_symop_operation_xyz
x,y,z
-x,y,1/2-z
-x,-y,-z
x,-y,1/2+z
1/2+x,1/2+y,z
1/2-x,1/2+y,1/2-z
1/2-x,1/2-y,-z
1/2+x,1/2-y,1/2+z
loop_
_atom_site_type_symbol
_atom_site_label
_atom_site_fract_x
_atom_site_fract_y
_atom_site_fract_z
Si Si1 0.382601 0.380981 0.658762
Si Si2 0.041290 0.284553 0.831687
Si Si3 0.365266 0.293186 0.483976
Si Si4 0.259160 0.680077 0.343354
Si Si5 0.605408 0.540099 0.070686
Si Si6 0.837823 0.895569 0.121829
O O1 0.384148 0.306716 0.577473
O O2 0.337059 0.324409 0.748770
O O3 0.498035 0.429459 0.639148
O O4 0.309808 0.485499 0.657313
O O5 0.142477 0.349846 0.839487
O O6 0.090711 0.163541 0.825885
O O7 0.000000 0.309636 0.750000
O O8 0.948215 0.281533 0.918335
O O9 0.250000 0.250000 0.500000
O O10 0.375004 0.412988 0.442134
O O11 0.302994 0.600764 0.402364
O O12 0.248233 0.804526 0.374985
O O13 0.601243 0.585588 0.977631
#
# Coordination Sequence:
#
# PCOD9272400 Si02
#       6
#     8   8   8   8   8   8
#     4  11  19  36  57  88 110 146 193 237 277 331
#     4  10  20  37  55  81 116 148 182 237 286 326
#     4  11  22  36  60  86 114 149 192 235 281 338
#     4  10  22  32  59  87 112 148 186 234 286 333
#     4  11  19  37  59  86 111 151 190 234 280 336
#     4   9  20  36  55  81 119 141 185 241 281 320
#
# _framework density 18.541512000000001
#
# number of rings (size 3 to 8) (size 9 to 14) (size 15 to 20)
#    1.000    0.667    3.333    3.000    2.333    0.000 
#    0.000    0.833    0.000   12.000    0.000    0.000 
#    0.000    0.000    0.000    0.000    0.000    0.000 
#
# Total GULP energy -133645.597372 kJ/mol
# GULP energy per Si atom -5568.566557 kJ/mol
# Density = 1.849931 g / cm^3
# Si number density = 18.541512 Si / 1000 Ang^3
#
#
#
# Elastic Constant Matrix: (Units=GPa)
#
#
# Indices 1 2 3 4 5 6 
#
# 1 102.8141 30.3844 25.3348 0.0000 -1.2849 0.0000
# 2 30.3844 41.5229 23.3739 0.0000 -11.4166 0.0000
# 3 25.3348 23.3739 60.8215 0.0000 -13.6209 0.0000
# 4 0.0000 0.0000 0.0000 12.0862 0.0000 -4.4520
# 5 -1.2849 -11.4166 -13.6209 0.0000 36.9030 0.0000
# 6 0.0000 0.0000 0.0000 -4.4520 0.0000 32.1694
#
#
#
# Elastic Compliance Matrix: (Units=1/GPa)
#
#
# Indices 1 2 3 4 5 6 
#
# 1 0.012979 -0.008863 -0.002740 0.000000 -0.003301 0.000000
# 2 -0.008863 0.037888 -0.009062 0.000000 0.008068 0.000000
# 3 -0.002740 -0.009062 0.022256 0.000000 0.005316 0.000000
# 4 0.000000 0.000000 0.000000 0.087184 0.000000 0.012066
# 5 -0.003301 0.008068 0.005316 0.000000 0.031441 0.000000
# 6 0.000000 0.000000 0.000000 0.012066 0.000000 0.032755
#
#
# Mechanical properties :
#
#
# Convention : Reuss Voigt Hill
#
# Bulk Modulus (GPa) = 31.45257 40.37164 35.91211
# Shear Modulus (GPa) = 18.08773 24.63607 21.36190
#
# Velocity S-wave (km/s) = 3.12673 3.64909 3.39796
# Velocity P-wave (km/s) = 5.48046 6.29089 5.89961
#
# Compressibility (1/GPa) = 0.03179390
#
# Stress axis : x y z
#
# Youngs Moduli (GPa) = 77.04490 26.39359 44.93238
#
# Poissons Ratio (x) = 0.23393 0.12310
# Poissons Ratio (y) = 0.68286 0.40717
# Poissons Ratio (z) = 0.21108 0.23917
#
# Static dielectric constant tensor:
#      x y z
#    x 1.675280 0.000000 0.003910 
#    y 0.000000 1.634640 0.000000 
#    z 0.003910 0.000000 1.633840 
# 
# From -- ./inp_files/203486.got.cif
#   From: 2010.05.17/outbox.cif.g08.bks.cpg/sg15_102_cif.got.tgz:203486.got - 2010.06.03 18:47:42.
