data_PCOD9272969
_publ_section_title
;
Structure prediction by ZEFSAII (Michael W. Deem and Ramdas Pophale) SiO2 
 PCOD9272969
Probable space group: C 2/C
;
_chemical_formula_sum "Si O2"
_cell_formula_units_Z 52
_cell_length_a 15.267731
_cell_length_b 9.366658
_cell_length_c 15.984197
_cell_angle_alpha 90.000000
_cell_angle_beta 93.230055
_cell_angle_gamma 90.000000
_cell_volume 2282.230441
_symmetry_space_group_name_H-M "C 2/C"
_symmetry_group_IT_number 15
_symmetry_cell_setting 'monoclinic'
loop_
_space_group_symop_operation_xyz
x,y,z
-x,y,1/2-z
-x,-y,-z
x,-y,1/2+z
1/2+x,1/2+y,z
1/2-x,1/2+y,1/2-z
1/2-x,1/2-y,-z
1/2+x,1/2-y,1/2+z
loop_
_atom_site_type_symbol
_atom_site_label
_atom_site_fract_x
_atom_site_fract_y
_atom_site_fract_z
Si Si1 0.771691 0.258548 0.857503
Si Si2 0.794343 0.424501 0.295115
Si Si3 0.000000 0.246253 0.750000
Si Si4 0.824355 0.091264 0.000375
Si Si5 0.632029 0.342086 0.392730
Si Si6 0.462198 0.992448 0.366255
Si Si7 0.369791 0.023508 0.040047
O O1 0.740441 0.138305 0.792413
O O2 0.700002 0.308376 0.922426
O O3 0.786817 0.403725 0.805395
O O4 0.846642 0.187453 0.921216
O O5 0.731311 0.362339 0.363986
O O6 0.896890 0.389446 0.312598
O O7 0.912131 0.494391 0.951956
O O8 0.071045 0.157123 0.806496
O O9 0.035657 0.358875 0.683617
O O10 0.884794 0.967688 0.041291
O O11 0.731379 0.019374 0.968353
O O12 0.624129 0.190204 0.436768
O O13 0.437680 0.951547 0.109092
#
# Coordination Sequence:
#
# PCOD9272969 Si02
#       7
#     8   8   4   8   8   8   8
#     4  10  23  36  62  90 130 158 213 259 320 372
#     4  11  22  40  64  98 124 173 212 270 316 391
#     4  10  22  38  62  96 136 172 208 280 322 384
#     4  10  21  40  60  91 125 170 205 264 319 388
#     4  10  21  36  66  91 128 166 218 261 325 381
#     4  10  21  35  59  94 127 163 218 264 317 372
#     4  10  20  37  61  94 125 168 214 268 314 393
#
# _framework density 22.784728000000001
#
# number of rings (size 3 to 8) (size 9 to 14) (size 15 to 20)
#    0.000    1.846    3.077    1.385    6.462    0.000 
#    0.000    0.000   20.308    8.308    0.000    0.000 
#    0.000    0.000    0.000    0.000    0.000    0.000 
#
# Total GULP energy -145065.478349 kJ/mol
# GULP energy per Si atom -5579.441475 kJ/mol
# Density = 2.273287 g / cm^3
# Si number density = 22.784728 Si / 1000 Ang^3
#
#
#
# Elastic Constant Matrix: (Units=GPa)
#
#
# Indices 1 2 3 4 5 6 
#
# 1 64.3682 30.5468 34.1393 0.0000 15.4311 0.0000
# 2 30.5468 107.1985 76.5499 0.0000 12.9483 0.0000
# 3 34.1393 76.5499 153.8329 0.0000 12.5787 0.0000
# 4 0.0000 0.0000 0.0000 49.2984 0.0000 -3.8664
# 5 15.4311 12.9483 12.5787 0.0000 29.8287 0.0000
# 6 0.0000 0.0000 0.0000 -3.8664 0.0000 25.3618
#
#
#
# Elastic Compliance Matrix: (Units=1/GPa)
#
#
# Indices 1 2 3 4 5 6 
#
# 1 0.020172 -0.003172 -0.002234 0.000000 -0.008116 0.000000
# 2 -0.003172 0.015302 -0.006734 0.000000 -0.002162 0.000000
# 3 -0.002234 -0.006734 0.010371 0.000000 -0.000295 0.000000
# 4 0.000000 0.000000 0.000000 0.020530 0.000000 0.003130
# 5 -0.008116 -0.002162 -0.000295 0.000000 0.038786 0.000000
# 6 0.000000 0.000000 0.000000 0.003130 0.000000 0.039907
#
#
# Mechanical properties :
#
#
# Convention : Reuss Voigt Hill
#
# Bulk Modulus (GPa) = 46.37261 67.54129 56.95695
# Shear Modulus (GPa) = 28.32265 33.17535 30.74900
#
# Velocity S-wave (km/s) = 3.52952 3.81994 3.67760
# Velocity P-wave (km/s) = 6.08331 7.01167 6.56393
#
# Compressibility (1/GPa) = 0.02156445
#
# Stress axis : x y z
#
# Youngs Moduli (GPa) = 49.57421 65.35033 96.41879
#
# Poissons Ratio (x) = 0.20730 0.21545
# Poissons Ratio (y) = 0.15725 0.64927
# Poissons Ratio (z) = 0.11077 0.44006
#
# Static dielectric constant tensor:
#      x y z
#    x 1.942170 0.000000 0.011250 
#    y 0.000000 1.873320 0.000000 
#    z 0.011250 0.000000 1.902220 
# 
# From -- ./inp_files/214451.got.cif
#   From: 2010.05.17/outbox.cif.g08.bks.cpg/sg15_108_cif.got.tgz:214451.got - 2010.06.03 18:47:42.
