data_PCOD9272127
_publ_section_title
;
Structure prediction by ZEFSAII (Michael W. Deem and Ramdas Pophale) SiO2 
 PCOD9272127
Probable space group: C 2/C
;
_chemical_formula_sum "Si O2"
_cell_formula_units_Z 44
_cell_length_a 22.308929
_cell_length_b 7.341810
_cell_length_c 10.737187
_cell_angle_alpha 90.000000
_cell_angle_beta 112.243299
_cell_angle_gamma 90.000000
_cell_volume 1627.753302
_symmetry_space_group_name_H-M "C 2/C"
_symmetry_group_IT_number 15
_symmetry_cell_setting 'monoclinic'
loop_
_space_group_symop_operation_xyz
x,y,z
-x,y,1/2-z
-x,-y,-z
x,-y,1/2+z
1/2+x,1/2+y,z
1/2-x,1/2+y,1/2-z
1/2-x,1/2-y,-z
1/2+x,1/2-y,1/2+z
loop_
_atom_site_type_symbol
_atom_site_label
_atom_site_fract_x
_atom_site_fract_y
_atom_site_fract_z
Si Si1 0.066614 0.833001 0.443230
Si Si2 0.082394 0.170829 0.582802
Si Si3 0.000000 0.542605 0.250000
Si Si4 0.272431 0.006176 0.605819
Si Si5 0.202660 0.914849 0.311489
Si Si6 0.104318 0.426184 0.168843
O O1 0.057994 0.680522 0.330921
O O2 0.113308 0.730794 0.576040
O O3 0.992325 0.831240 0.434463
O O4 0.086506 0.043758 0.463072
O O5 0.126268 0.072235 0.723081
O O6 0.107244 0.378394 0.599930
O O7 0.031758 0.422170 0.168217
O O8 0.235941 0.034592 0.446165
O O9 0.285231 0.790823 0.633402
O O10 0.233773 0.062179 0.699755
O O11 0.343028 0.092643 0.682005
#
# Coordination Sequence:
#
# PCOD9272127 Si02
#       6
#     8   8   4   8   8   8
#     4  10  21  39  63  89 123 168 208 266 328 377
#     4   9  20  40  61  89 125 164 217 265 321 387
#     4  10  20  36  64  90 124 166 204 268 326 376
#     4  10  24  42  67  94 133 171 221 269 333 384
#     4  10  23  43  64  96 132 173 215 276 323 397
#     4  10  22  41  61  92 128 163 215 266 319 395
#
# _framework density 27.031123999999998
#
# number of rings (size 3 to 8) (size 9 to 14) (size 15 to 20)
#    0.000    2.182    0.000    2.182    5.091    5.091 
#    0.000   14.545    0.000    0.000    0.000    0.000 
#    0.000    0.000    0.000    0.000    0.000    0.000 
#
# Total GULP energy -122956.661947 kJ/mol
# GULP energy per Si atom -5588.939179 kJ/mol
# Density = 2.696960 g / cm^3
# Si number density = 27.031124 Si / 1000 Ang^3
#
#
#
# Elastic Constant Matrix: (Units=GPa)
#
#
# Indices 1 2 3 4 5 6 
#
# 1 76.5450 -4.2656 39.0786 0.0000 9.8126 0.0000
# 2 -4.2656 74.2270 19.0927 0.0000 12.0447 0.0000
# 3 39.0786 19.0927 130.9881 0.0000 14.6184 0.0000
# 4 0.0000 0.0000 0.0000 2.2016 0.0000 -60.4679
# 5 9.8126 12.0447 14.6184 0.0000 36.4126 0.0000
# 6 0.0000 0.0000 0.0000 -60.4679 0.0000 -100.7325
#
#
#
# Elastic Compliance Matrix: (Units=1/GPa)
#
#
# Indices 1 2 3 4 5 6 
#
# 1 0.016103 0.002702 -0.004830 0.000000 -0.003294 0.000000
# 2 0.002702 0.015027 -0.002471 0.000000 -0.004707 0.000000
# 3 -0.004830 -0.002471 0.009631 0.000000 -0.001747 0.000000
# 4 0.000000 0.000000 0.000000 0.025974 0.000000 -0.015592
# 5 -0.003294 -0.004707 -0.001747 0.000000 0.030609 0.000000
# 6 0.000000 0.000000 0.000000 -0.015592 0.000000 -0.000568
#
#
# Mechanical properties :
#
#
# Convention : Reuss Voigt Hill
#
# Bulk Modulus (GPa) = 31.68353 43.28572 37.48462
# Shear Modulus (GPa) = 42.91997 2.76662 22.84330
#
# Velocity S-wave (km/s) = 3.98904 1.01278 2.91017
# Velocity P-wave (km/s) = 5.74136 4.17321 5.01891
#
# Compressibility (1/GPa) = 0.03156214
#
# Stress axis : x y z
#
# Youngs Moduli (GPa) = 62.09940 66.54731 103.83591
#
# Poissons Ratio (x) = -0.17984 0.50157
# Poissons Ratio (y) = -0.16782 0.25661
# Poissons Ratio (z) = 0.29997 0.16446
#
# Static dielectric constant tensor:
#      x y z
#    x 2.148670 0.000000 -0.079870 
#    y 0.000000 2.131470 0.000000 
#    z -0.079870 0.000000 2.262210 
# 
# From -- ./inp_files/116858.got.cif
#   From: 2010.05.17/outbox.cif.g08.bks.cpg/sg15_59_cif.got.tgz:116858.got - 2010.06.03 18:47:42.
