data_PCOD9272917
_publ_section_title
;
Structure prediction by ZEFSAII (Michael W. Deem and Ramdas Pophale) SiO2 
 PCOD9272917
Probable space group: C 2/C
;
_chemical_formula_sum "Si O2"
_cell_formula_units_Z 64
_cell_length_a 22.423975
_cell_length_b 9.712469
_cell_length_c 19.276348
_cell_angle_alpha 90.000000
_cell_angle_beta 49.965564
_cell_angle_gamma 90.000000
_cell_volume 3214.414031
_symmetry_space_group_name_H-M "C 2/C"
_symmetry_group_IT_number 15
_symmetry_cell_setting 'monoclinic'
loop_
_space_group_symop_operation_xyz
x,y,z
-x,y,1/2-z
-x,-y,-z
x,-y,1/2+z
1/2+x,1/2+y,z
1/2-x,1/2+y,1/2-z
1/2-x,1/2-y,-z
1/2+x,1/2-y,1/2+z
loop_
_atom_site_type_symbol
_atom_site_label
_atom_site_fract_x
_atom_site_fract_y
_atom_site_fract_z
Si Si1 0.590306 0.427214 0.184132
Si Si2 0.848465 0.473790 0.654149
Si Si3 0.065661 0.766597 0.333701
Si Si4 0.920707 0.292479 0.020454
Si Si5 0.253335 0.426755 0.141492
Si Si6 0.708604 0.376518 0.675536
Si Si7 0.199061 0.836277 0.985054
Si Si8 0.892985 0.961405 0.622776
O O1 0.500000 0.473900 0.250000
O O2 0.589133 0.293286 0.236352
O O3 0.651247 0.537920 0.169287
O O4 0.624644 0.392524 0.083345
O O5 0.876079 0.328463 0.665476
O O6 0.913571 0.575453 0.574803
O O7 0.803591 0.544253 0.751443
O O8 0.788815 0.450562 0.635675
O O9 0.983180 0.696488 0.412213
O O10 0.065998 0.922911 0.362118
O O11 0.942625 0.156465 0.048746
O O12 0.836748 0.253722 0.050649
O O13 0.232210 0.274526 0.132740
O O14 0.339801 0.454336 0.107918
O O15 0.249625 0.540828 0.084716
O O16 0.663888 0.376789 0.783097
O O17 0.250000 0.750000 0.000000
#
# Coordination Sequence:
#
# PCOD9272917 Si02
#       8
#     8   8   8   8   8   8   8   8
#     4  11  23  42  62  89 128 176 221 253 309 390
#     4  11  21  36  61  97 123 151 203 266 340 364
#     4  11  21  37  62  88 124 160 197 263 316 380
#     4  11  21  36  59  90 125 154 200 262 317 389
#     4  10  20  37  61  89 119 156 207 265 309 371
#     4  10  20  37  63  87 123 161 201 267 314 373
#     4  11  23  40  63  89 122 173 221 253 304 390
#     4   9  19  34  59  89 118 153 200 250 322 374
#
# _framework density 19.910316000000002
#
# number of rings (size 3 to 8) (size 9 to 14) (size 15 to 20)
#    0.000    1.500    3.750    2.250    0.000    0.500 
#    0.000    0.000    2.750    0.000    0.000    0.000 
#    0.000    0.000    0.000    0.000    0.000    0.000 
#
# Total GULP energy -178423.740462 kJ/mol
# GULP energy per Si atom -5575.741889 kJ/mol
# Density = 1.986500 g / cm^3
# Si number density = 19.910316 Si / 1000 Ang^3
#
#
#
# Elastic Constant Matrix: (Units=GPa)
#
#
# Indices 1 2 3 4 5 6 
#
# 1 64.3944 28.5351 2.9202 0.0000 0.0048 0.0000
# 2 28.5351 102.9608 39.2337 0.0001 4.6706 0.0000
# 3 2.9202 39.2337 56.9960 0.0001 1.8308 0.0000
# 4 0.0000 0.0001 0.0001 27.0418 0.0000 10.7544
# 5 0.0048 4.6706 1.8308 0.0000 25.8388 0.0000
# 6 0.0000 0.0000 0.0000 10.7544 0.0000 23.6776
#
#
#
# Elastic Compliance Matrix: (Units=1/GPa)
#
#
# Indices 1 2 3 4 5 6 
#
# 1 0.018209 -0.006400 0.003443 0.000000 0.000910 0.000000
# 2 -0.006400 0.015494 -0.010271 0.000000 -0.002072 0.000000
# 3 0.003443 -0.010271 0.024435 0.000000 0.000125 0.000000
# 4 0.000000 0.000000 0.000000 0.045132 0.000000 -0.020499
# 5 0.000910 -0.002072 0.000125 0.000000 0.039067 0.000000
# 6 0.000000 0.000000 0.000000 -0.020499 0.000000 0.051545
#
#
# Mechanical properties :
#
#
# Convention : Reuss Voigt Hill
#
# Bulk Modulus (GPa) = 31.56303 40.63657 36.09980
# Shear Modulus (GPa) = 21.65462 25.55579 23.60521
#
# Velocity S-wave (km/s) = 3.30147 3.58655 3.44696
# Velocity P-wave (km/s) = 5.51543 6.13231 5.83203
#
# Compressibility (1/GPa) = 0.03168264
#
# Stress axis : x y z
#
# Youngs Moduli (GPa) = 54.91773 64.54161 40.92533
#
# Poissons Ratio (x) = 0.41306 -0.14092
# Poissons Ratio (y) = 0.35147 0.42034
# Poissons Ratio (z) = -0.18910 0.66290
#
# Static dielectric constant tensor:
#      x y z
#    x 1.735850 0.000000 -0.010570 
#    y 0.000000 1.706760 0.000000 
#    z -0.010570 0.000000 1.743720 
# 
# From -- ./inp_files/255036.got.cif
#   From: 2010.05.17/outbox.cif.g08.bks.cpg/sg15_128_cif.got.tgz:255036.got - 2010.06.03 18:47:42.
