data_PCOD9272475
_publ_section_title
;
Structure prediction by ZEFSAII (Michael W. Deem and Ramdas Pophale) SiO2 
 PCOD9272475
Probable space group: C 2/C
;
_chemical_formula_sum "Si O2"
_cell_formula_units_Z 60
_cell_length_a 19.153464
_cell_length_b 20.963557
_cell_length_c 8.122472
_cell_angle_alpha 90.000000
_cell_angle_beta 103.645040
_cell_angle_gamma 90.000000
_cell_volume 3169.323939
_symmetry_space_group_name_H-M "C 2/C"
_symmetry_group_IT_number 15
_symmetry_cell_setting 'monoclinic'
loop_
_space_group_symop_operation_xyz
x,y,z
-x,y,1/2-z
-x,-y,-z
x,-y,1/2+z
1/2+x,1/2+y,z
1/2-x,1/2+y,1/2-z
1/2-x,1/2-y,-z
1/2+x,1/2-y,1/2+z
loop_
_atom_site_type_symbol
_atom_site_label
_atom_site_fract_x
_atom_site_fract_y
_atom_site_fract_z
Si Si1 0.817459 0.293395 0.486743
Si Si2 0.764112 0.059451 0.253842
Si Si3 0.500000 0.158919 0.750000
Si Si4 0.275332 0.416405 0.133925
Si Si5 0.112802 0.381371 0.754825
Si Si6 0.475008 0.928424 0.506003
Si Si7 0.707684 0.648600 0.527365
Si Si8 0.856145 0.276824 0.145636
O O1 0.750000 0.250000 0.500000
O O2 0.786535 0.363709 0.428889
O O3 0.870344 0.310740 0.666415
O O4 0.852928 0.266065 0.342178
O O5 0.798786 0.070291 0.455920
O O6 0.683931 0.088304 0.220701
O O7 0.801085 0.098512 0.126543
O O8 0.757638 0.985521 0.199684
O O9 0.546846 0.109214 0.667526
O O10 0.563619 0.202622 0.854993
O O11 0.315439 0.381369 0.309573
O O12 0.085680 0.424459 0.892024
O O13 0.044251 0.387724 0.600906
O O14 0.500000 0.000000 0.500000
O O15 0.792107 0.671524 0.578570
O O16 0.666157 0.713172 0.461535
#
# Coordination Sequence:
#
# PCOD9272475 Si02
#       8
#     8   8   4   8   8   8   8   8
#     4  10  20  37  57  81 114 153 197 247 298 346
#     4  11  20  35  56  83 117 147 187 252 295 346
#     4  12  22  38  56  80 114 154 194 250 282 344
#     4  10  21  32  56  85 114 145 189 236 301 346
#     4  10  22  36  51  75 109 155 200 238 280 343
#     4  11  24  36  50  75 113 161 202 230 280 339
#     4  10  21  38  57  86 114 152 193 237 299 353
#     4  10  21  37  58  82 114 154 195 239 291 349
#
# _framework density 18.931483
#
# number of rings (size 3 to 8) (size 9 to 14) (size 15 to 20)
#    0.000    1.600    2.667    3.200    3.733    4.267 
#    0.000    0.000    0.000    0.000    0.000    0.933 
#    0.000    0.000    0.000    0.000    0.000    0.000 
#
# Total GULP energy -167016.779859 kJ/mol
# GULP energy per Si atom -5567.225995 kJ/mol
# Density = 1.888839 g / cm^3
# Si number density = 18.931483 Si / 1000 Ang^3
#
#
#
# Elastic Constant Matrix: (Units=GPa)
#
#
# Indices 1 2 3 4 5 6 
#
# 1 45.0704 23.6550 17.4265 0.0000 0.4016 0.0000
# 2 23.6550 85.4692 48.3198 0.0000 3.7939 0.0000
# 3 17.4265 48.3198 86.8261 0.0000 -6.8078 0.0000
# 4 0.0000 0.0000 0.0000 31.9555 0.0000 -2.8029
# 5 0.4016 3.7939 -6.8078 0.0000 21.7542 0.0000
# 6 0.0000 0.0000 0.0000 -2.8029 0.0000 18.6078
#
#
#
# Elastic Compliance Matrix: (Units=1/GPa)
#
#
# Indices 1 2 3 4 5 6 
#
# 1 0.026146 -0.006236 -0.001773 0.000000 0.000050 0.000000
# 2 -0.006236 0.019386 -0.010039 0.000000 -0.006408 0.000000
# 3 -0.001773 -0.010039 0.018043 0.000000 0.007430 0.000000
# 4 0.000000 0.000000 0.000000 0.031712 0.000000 0.004777
# 5 0.000050 -0.006408 0.007430 0.000000 0.049410 0.000000
# 6 0.000000 0.000000 0.000000 0.004777 0.000000 0.054460
#
#
# Mechanical properties :
#
#
# Convention : Reuss Voigt Hill
#
# Bulk Modulus (GPa) = 36.39369 44.01868 40.20618
# Shear Modulus (GPa) = 20.45709 22.99447 21.72578
#
# Velocity S-wave (km/s) = 3.29079 3.48891 3.39130
# Velocity P-wave (km/s) = 5.80558 6.28745 6.05131
#
# Compressibility (1/GPa) = 0.02747729
#
# Stress axis : x y z
#
# Youngs Moduli (GPa) = 38.24733 51.58296 55.42362
#
# Poissons Ratio (x) = 0.32167 0.09828
# Poissons Ratio (y) = 0.23851 0.55643
# Poissons Ratio (z) = 0.06782 0.51787
#
# Static dielectric constant tensor:
#      x y z
#    x 1.665820 0.000000 -0.060470 
#    y 0.000000 1.671150 0.000000 
#    z -0.060470 0.000000 1.710790 
# 
# From -- ./inp_files/50291.got.cif
#   From: 2010.05.17/outbox.cif.g08.bks.cpg/sg15_26_cif.got.tgz:50291.got - 2010.06.03 18:47:42.
