data_PCOD9272165
_publ_section_title
;
Structure prediction by ZEFSAII (Michael W. Deem and Ramdas Pophale) SiO2 
 PCOD9272165
Probable space group: C 2/C
;
_chemical_formula_sum "Si O2"
_cell_formula_units_Z 52
_cell_length_a 7.874798
_cell_length_b 17.394883
_cell_length_c 23.819875
_cell_angle_alpha 90.000000
_cell_angle_beta 131.612825
_cell_angle_gamma 90.000000
_cell_volume 2439.486596
_symmetry_space_group_name_H-M "C 2/C"
_symmetry_group_IT_number 15
_symmetry_cell_setting 'monoclinic'
loop_
_space_group_symop_operation_xyz
x,y,z
-x,y,1/2-z
-x,-y,-z
x,-y,1/2+z
1/2+x,1/2+y,z
1/2-x,1/2+y,1/2-z
1/2-x,1/2-y,-z
1/2+x,1/2-y,1/2+z
loop_
_atom_site_type_symbol
_atom_site_label
_atom_site_fract_x
_atom_site_fract_y
_atom_site_fract_z
Si Si1 0.698669 0.247179 0.422852
Si Si2 0.500000 0.921747 0.750000
Si Si3 0.562908 0.378640 0.005983
Si Si4 0.749909 0.833727 0.708036
Si Si5 0.999838 0.382315 0.452915
Si Si6 0.909427 0.988874 0.390710
Si Si7 0.791422 0.464383 0.892247
O O1 0.750000 0.250000 0.500000
O O2 0.442248 0.226290 0.352716
O O3 0.794910 0.323708 0.415754
O O4 0.856520 0.174789 0.442128
O O5 0.669003 0.867151 0.750580
O O6 0.338612 0.977196 0.677238
O O7 0.575986 0.407438 0.073371
O O8 0.798741 0.342574 0.037286
O O9 0.532027 0.453424 0.960770
O O10 0.745520 0.908303 0.666968
O O11 0.000000 0.800992 0.750000
O O12 0.939353 0.461735 0.408768
O O13 0.082198 0.412837 0.532292
O O14 0.064892 0.998804 0.369680
#
# Coordination Sequence:
#
# PCOD9272165 Si02
#       7
#     8   4   8   8   8   8   8
#     4  12  23  40  67  97 132 174 228 284 342 408
#     4  12  22  40  66  96 134 178 226 276 350 416
#     4  10  21  37  62  99 133 165 225 277 335 397
#     4  12  25  43  67  98 136 181 228 282 349 420
#     4  10  21  37  67  98 130 167 220 284 336 393
#     4  10  20  36  64  97 131 170 220 283 330 401
#     4  10  20  39  66  97 127 169 222 277 335 400
#
# _framework density 21.31596
#
# number of rings (size 3 to 8) (size 9 to 14) (size 15 to 20)
#    0.000    1.231    4.615    2.308    4.308    0.000 
#    2.769    0.000    8.462    0.000    0.000    0.000 
#    0.000    0.000    0.000    0.000    0.000    0.000 
#
# Total GULP energy -145127.824145 kJ/mol
# GULP energy per Si atom -5581.839390 kJ/mol
# Density = 2.126744 g / cm^3
# Si number density = 21.315960 Si / 1000 Ang^3
#
#
#
# Elastic Constant Matrix: (Units=GPa)
#
#
# Indices 1 2 3 4 5 6 
#
# 1 111.4403 37.4610 44.9877 0.0000 28.5613 0.0000
# 2 37.4610 70.4703 26.6520 0.0000 15.4870 0.0000
# 3 44.9877 26.6520 77.0803 -0.0002 30.1811 0.0000
# 4 0.0000 0.0000 -0.0002 31.3098 0.0000 6.8097
# 5 28.5613 15.4870 30.1811 0.0000 43.4097 0.0000
# 6 0.0000 0.0000 0.0000 6.8097 0.0000 21.5733
#
#
#
# Elastic Compliance Matrix: (Units=1/GPa)
#
#
# Indices 1 2 3 4 5 6 
#
# 1 0.013392 -0.004465 -0.004735 0.000000 -0.003926 0.000000
# 2 -0.004465 0.018032 -0.003106 0.000000 -0.001336 0.000000
# 3 -0.004735 -0.003106 0.020827 0.000000 -0.010257 0.000000
# 4 0.000000 0.000000 0.000000 0.034293 0.000000 -0.010825
# 5 -0.003926 -0.001336 -0.010257 0.000000 0.033227 0.000000
# 6 0.000000 0.000000 0.000000 -0.010825 0.000000 0.049770
#
#
# Mechanical properties :
#
#
# Convention : Reuss Voigt Hill
#
# Bulk Modulus (GPa) = 36.18032 53.02136 44.60084
# Shear Modulus (GPa) = 24.58596 29.25123 26.91859
#
# Velocity S-wave (km/s) = 3.39987 3.70843 3.55750
# Velocity P-wave (km/s) = 5.69406 6.57759 6.15171
#
# Compressibility (1/GPa) = 0.02763933
#
# Stress axis : x y z
#
# Youngs Moduli (GPa) = 74.67005 55.45601 48.01452
#
# Poissons Ratio (x) = 0.24764 0.22735
# Poissons Ratio (y) = 0.33344 0.14912
# Poissons Ratio (z) = 0.35356 0.17223
#
# Static dielectric constant tensor:
#      x y z
#    x 1.839400 0.000000 0.051850 
#    y 0.000000 1.880590 0.000000 
#    z 0.051850 0.000000 1.764160 
# 
# From -- ./inp_files/289624.got.cif
#   From: 2010.05.17/outbox.cif.g08.bks.cpg/sg15_145_cif.got.tgz:289624.got - 2010.06.03 18:47:42.
