data_PCOD9272883
_publ_section_title
;
Structure prediction by ZEFSAII (Michael W. Deem and Ramdas Pophale) SiO2 
 PCOD9272883
Probable space group: C 2/C
;
_chemical_formula_sum "Si O2"
_cell_formula_units_Z 60
_cell_length_a 11.043568
_cell_length_b 18.821335
_cell_length_c 16.377678
_cell_angle_alpha 90.000000
_cell_angle_beta 127.505792
_cell_angle_gamma 90.000000
_cell_volume 2700.505873
_symmetry_space_group_name_H-M "C 2/C"
_symmetry_group_IT_number 15
_symmetry_cell_setting 'monoclinic'
loop_
_space_group_symop_operation_xyz
x,y,z
-x,y,1/2-z
-x,-y,-z
x,-y,1/2+z
1/2+x,1/2+y,z
1/2-x,1/2+y,1/2-z
1/2-x,1/2-y,-z
1/2+x,1/2-y,1/2+z
loop_
_atom_site_type_symbol
_atom_site_label
_atom_site_fract_x
_atom_site_fract_y
_atom_site_fract_z
Si Si1 0.616545 0.309547 0.931381
Si Si2 0.317656 0.018613 0.657902
Si Si3 0.817189 0.153961 0.871169
Si Si4 0.197803 0.559201 0.039335
Si Si5 0.358568 0.902443 0.458008
Si Si6 0.827851 0.216313 0.707872
Si Si7 0.500000 0.222725 0.750000
Si Si8 0.333074 0.864776 0.639449
O O1 0.683674 0.375859 0.907419
O O2 0.488347 0.271526 0.825225
O O3 0.750000 0.250000 0.000000
O O4 0.579283 0.335638 0.007110
O O5 0.500000 0.020396 0.750000
O O6 0.206886 0.071748 0.661753
O O7 0.309517 0.042737 0.560321
O O8 0.260431 0.937827 0.641879
O O9 0.849309 0.209533 0.813650
O O10 0.643791 0.173663 0.822904
O O11 0.220513 0.480096 0.084701
O O12 0.035811 0.586147 0.007776
O O13 0.283453 0.845560 0.367748
O O14 0.343455 0.874682 0.545540
O O15 0.771549 0.289594 0.644668
O O16 0.000000 0.202381 0.750000
O O17 0.500000 0.864713 0.750000
#
# Coordination Sequence:
#
# PCOD9272883 Si02
#       8
#     8   8   8   8   8   8   4   8
#     4   9  20  35  59  89 126 144 190 255 308 370
#     4   9  15  31  61  87 113 142 194 261 304 346
#     4  10  20  37  61  86 118 153 208 248 299 369
#     4   9  19  35  61  96 115 150 206 255 308 354
#     4  10  20  37  64  85 121 163 206 254 292 360
#     4  11  24  40  57  86 124 171 203 238 301 368
#     4  10  20  38  58  96 118 158 184 254 336 354
#     4   9  20  36  54  85 118 153 205 248 295 353
#
# _framework density 22.218060000000001
#
# number of rings (size 3 to 8) (size 9 to 14) (size 15 to 20)
#    0.000    2.400    0.667    1.200    3.733    5.333 
#    3.600    0.000    0.000    2.400    0.000    0.000 
#    0.000    0.000    0.000    0.000    0.000    0.000 
#
# Total GULP energy -167279.550151 kJ/mol
# GULP energy per Si atom -5575.985005 kJ/mol
# Density = 2.216749 g / cm^3
# Si number density = 22.218060 Si / 1000 Ang^3
#
#
#
# Elastic Constant Matrix: (Units=GPa)
#
#
# Indices 1 2 3 4 5 6 
#
# 1 31.8626 22.4294 -5.3031 0.0000 -11.0583 0.0000
# 2 22.4294 159.7545 30.5350 0.0000 -8.5219 0.0000
# 3 -5.3031 30.5350 62.5665 0.0000 -6.3665 0.0000
# 4 0.0000 0.0000 0.0000 16.6197 0.0000 -5.8680
# 5 -11.0583 -8.5219 -6.3665 0.0000 19.6677 0.0000
# 6 0.0000 0.0000 0.0000 -5.8680 0.0000 15.9737
#
#
#
# Elastic Compliance Matrix: (Units=1/GPa)
#
#
# Indices 1 2 3 4 5 6 
#
# 1 0.047505 -0.007198 0.010279 0.000000 0.026918 0.000000
# 2 -0.007198 0.008069 -0.004761 0.000000 -0.002092 0.000000
# 3 0.010279 -0.004761 0.020222 0.000000 0.010262 0.000000
# 4 0.000000 0.000000 0.000000 0.069137 0.000000 0.025398
# 5 0.026918 -0.002092 0.010262 0.000000 0.068395 0.000000
# 6 0.000000 0.000000 0.000000 0.025398 0.000000 0.071933
#
#
# Mechanical properties :
#
#
# Convention : Reuss Voigt Hill
#
# Bulk Modulus (GPa) = 13.80551 38.83401 26.31976
# Shear Modulus (GPa) = 15.98633 24.22035 20.10334
#
# Velocity S-wave (km/s) = 2.68530 3.30528 3.01129
# Velocity P-wave (km/s) = 3.98015 5.66419 4.89513
#
# Compressibility (1/GPa) = 0.07243484
#
# Stress axis : x y z
#
# Youngs Moduli (GPa) = 21.05032 123.93709 49.45112
#
# Poissons Ratio (x) = 0.89215 -0.50830
# Poissons Ratio (y) = 0.15153 0.23543
# Poissons Ratio (z) = -0.21637 0.59005
#
# Static dielectric constant tensor:
#      x y z
#    x 1.874470 0.000000 -0.031580 
#    y 0.000000 1.923350 0.000000 
#    z -0.031580 0.000000 1.808500 
# 
# From -- ./inp_files/199535.got.cif
#   From: 2010.05.17/outbox.cif.g08.bks.cpg/sg15_100_cif.got.tgz:199535.got - 2010.06.03 18:47:42.
