data_PCOD9272781
_publ_section_title
;
Structure prediction by ZEFSAII (Michael W. Deem and Ramdas Pophale) SiO2 
 PCOD9272781
Probable space group: C 2/C
;
_chemical_formula_sum "Si O2"
_cell_formula_units_Z 64
_cell_length_a 11.255717
_cell_length_b 17.743147
_cell_length_c 21.927957
_cell_angle_alpha 90.000000
_cell_angle_beta 51.948652
_cell_angle_gamma 90.000000
_cell_volume 3448.496304
_symmetry_space_group_name_H-M "C 2/C"
_symmetry_group_IT_number 15
_symmetry_cell_setting 'monoclinic'
loop_
_space_group_symop_operation_xyz
x,y,z
-x,y,1/2-z
-x,-y,-z
x,-y,1/2+z
1/2+x,1/2+y,z
1/2-x,1/2+y,1/2-z
1/2-x,1/2-y,-z
1/2+x,1/2-y,1/2+z
loop_
_atom_site_type_symbol
_atom_site_label
_atom_site_fract_x
_atom_site_fract_y
_atom_site_fract_z
Si Si1 0.709986 0.707292 0.826294
Si Si2 0.315987 0.287276 0.916590
Si Si3 0.815109 0.709469 0.567178
Si Si4 0.187947 0.413949 0.539137
Si Si5 0.015148 0.690590 0.173416
Si Si6 0.274959 0.087560 0.980394
Si Si7 0.502173 0.641978 0.981469
Si Si8 0.440012 0.819320 0.155369
O O1 0.762802 0.749754 0.870895
O O2 0.629243 0.767297 0.808092
O O3 0.587827 0.648102 0.889861
O O4 0.844345 0.669223 0.746303
O O5 0.491886 0.265940 0.863130
O O6 0.250000 0.250000 0.000000
O O7 0.258008 0.371447 0.944605
O O8 0.817078 0.644431 0.515880
O O9 0.658406 0.754787 0.614614
O O10 0.840849 0.675921 0.625958
O O11 0.946111 0.772292 0.514454
O O12 0.055280 0.386146 0.625699
O O13 0.184814 0.501031 0.523390
O O14 0.347312 0.402663 0.523529
O O15 0.000000 0.679800 0.250000
O O16 0.122055 0.105823 0.990259
O O17 0.415445 0.127018 0.900724
#
# Coordination Sequence:
#
# PCOD9272781 Si02
#       8
#     8   8   8   8   8   8   8   8
#     4  12  20  37  66  89 117 154 212 256 301 350
#     4  10  20  37  60  88 116 154 210 252 291 360
#     4  11  20  38  65  89 113 155 217 250 294 361
#     4  11  24  38  62  92 124 162 205 256 321 369
#     4  11  22  40  62  89 121 157 203 262 302 363
#     4  11  23  40  60  90 130 159 202 259 315 376
#     4  11  19  39  63  87 114 164 211 250 295 370
#     4  11  22  35  62  91 118 159 202 254 304 363
#
# _framework density 18.558813000000001
#
# number of rings (size 3 to 8) (size 9 to 14) (size 15 to 20)
#    0.000    1.000    7.500    2.250    0.000    0.500 
#    2.250    0.000    0.000    3.000    0.000    0.000 
#    0.000    0.000    0.000    0.000    0.000    0.000 
#
# Total GULP energy -178464.481907 kJ/mol
# GULP energy per Si atom -5577.015060 kJ/mol
# Density = 1.851657 g / cm^3
# Si number density = 18.558813 Si / 1000 Ang^3
#
#
#
# Elastic Constant Matrix: (Units=GPa)
#
#
# Indices 1 2 3 4 5 6 
#
# 1 71.7203 3.6047 6.2172 0.0000 9.3626 0.0000
# 2 3.6047 93.8277 15.2835 0.0000 3.1023 0.0000
# 3 6.2172 15.2835 86.6070 0.0000 5.6096 0.0000
# 4 0.0000 0.0000 0.0000 18.2175 0.0000 0.2441
# 5 9.3626 3.1023 5.6096 0.0000 33.0413 0.0000
# 6 0.0000 0.0000 0.0000 0.2441 0.0000 13.5604
#
#
#
# Elastic Compliance Matrix: (Units=1/GPa)
#
#
# Indices 1 2 3 4 5 6 
#
# 1 0.014540 -0.000308 -0.000732 0.000000 -0.003967 0.000000
# 2 -0.000308 0.010996 -0.001878 0.000000 -0.000626 0.000000
# 3 -0.000732 -0.001878 0.012038 0.000000 -0.001660 0.000000
# 4 0.000000 0.000000 0.000000 0.054905 0.000000 -0.000988
# 5 -0.003967 -0.000626 -0.001660 0.000000 0.031730 0.000000
# 6 0.000000 0.000000 0.000000 -0.000988 0.000000 0.073762
#
#
# Mechanical properties :
#
#
# Convention : Reuss Voigt Hill
#
# Bulk Modulus (GPa) = 31.50879 33.59620 32.55250
# Shear Modulus (GPa) = 23.32230 28.10048 25.71139
#
# Velocity S-wave (km/s) = 3.54880 3.89541 3.72613
# Velocity P-wave (km/s) = 5.81435 6.19468 6.00753
#
# Compressibility (1/GPa) = 0.03173718
#
# Stress axis : x y z
#
# Youngs Moduli (GPa) = 68.77647 90.94003 83.07106
#
# Poissons Ratio (x) = 0.02802 0.06085
# Poissons Ratio (y) = 0.02119 0.15599
# Poissons Ratio (z) = 0.05038 0.17077
#
# Static dielectric constant tensor:
#      x y z
#    x 1.689570 0.000000 -0.011100 
#    y 0.000000 1.678520 0.000000 
#    z -0.011100 0.000000 1.648220 
# 
# From -- ./inp_files/239810.got.cif
#   From: 2010.05.17/outbox.cif.g08.bks.cpg/sg15_120_cif.got.tgz:239810.got - 2010.06.03 18:47:42.
