data_PCOD9272792
_publ_section_title
;
Structure prediction by ZEFSAII (Michael W. Deem and Ramdas Pophale) SiO2 
 PCOD9272792
Probable space group: C 2/C
;
_chemical_formula_sum "Si O2"
_cell_formula_units_Z 44
_cell_length_a 9.571728
_cell_length_b 20.962263
_cell_length_c 10.076758
_cell_angle_alpha 90.000000
_cell_angle_beta 68.801446
_cell_angle_gamma 90.000000
_cell_volume 1885.039112
_symmetry_space_group_name_H-M "C 2/C"
_symmetry_group_IT_number 15
_symmetry_cell_setting 'monoclinic'
loop_
_space_group_symop_operation_xyz
x,y,z
-x,y,1/2-z
-x,-y,-z
x,-y,1/2+z
1/2+x,1/2+y,z
1/2-x,1/2+y,1/2-z
1/2-x,1/2-y,-z
1/2+x,1/2-y,1/2+z
loop_
_atom_site_type_symbol
_atom_site_label
_atom_site_fract_x
_atom_site_fract_y
_atom_site_fract_z
Si Si1 0.655563 0.659599 0.055597
Si Si2 0.229175 0.751100 0.278364
Si Si3 0.759399 0.884298 0.328639
Si Si4 0.039230 0.424973 0.005876
Si Si5 0.018959 0.927595 0.035038
Si Si6 0.000000 0.348308 0.750000
O O1 0.659806 0.707901 0.926479
O O2 0.511907 0.615705 0.081732
O O3 0.659121 0.706295 0.179019
O O4 0.801027 0.609908 0.012599
O O5 0.259553 0.808199 0.166606
O O6 0.133799 0.700540 0.229998
O O7 0.594303 0.906734 0.348859
O O8 0.883185 0.909201 0.181766
O O9 0.827973 0.911059 0.442287
O O10 0.996869 0.391654 0.881007
O O11 0.000000 0.500000 0.000000
O O12 0.000000 0.000000 0.000000
#
# Coordination Sequence:
#
# PCOD9272792 Si02
#       6
#     8   8   8   8   8   4
#     4   9  19  37  64  87 118 157 199 252 289 354
#     4   9  18  37  60  87 116 153 199 241 300 347
#     4  10  22  39  63  87 122 161 195 251 303 358
#     4  11  24  40  61  91 122 159 202 248 305 360
#     4  10  20  37  60  88 122 160 197 240 301 361
#     4  10  22  40  62  86 122 160 198 254 300 362
#
# _framework density 23.34169
#
# number of rings (size 3 to 8) (size 9 to 14) (size 15 to 20)
#    0.000    2.182    0.000    3.273    0.000    8.000 
#    0.000    5.455    0.000    4.364    0.000    0.000 
#    0.000    0.000    0.000    0.000    0.000    0.000 
#
# Total GULP energy -122539.272055 kJ/mol
# GULP energy per Si atom -5569.966912 kJ/mol
# Density = 2.328856 g / cm^3
# Si number density = 23.341690 Si / 1000 Ang^3
#
#
#
# Elastic Constant Matrix: (Units=GPa)
#
#
# Indices 1 2 3 4 5 6 
#
# 1 89.3005 37.9515 32.1028 0.0000 20.1503 0.0000
# 2 37.9515 208.9173 28.9097 0.0000 17.6104 0.0000
# 3 32.1028 28.9097 35.0924 0.0000 21.4227 0.0000
# 4 0.0000 0.0000 0.0000 28.6400 0.0000 21.4615
# 5 20.1503 17.6104 21.4227 0.0000 47.1079 0.0000
# 6 0.0000 0.0000 0.0000 21.4615 0.0000 -12.3551
#
#
#
# Elastic Compliance Matrix: (Units=1/GPa)
#
#
# Indices 1 2 3 4 5 6 
#
# 1 0.016889 -0.001050 -0.014418 0.000000 -0.000276 0.000000
# 2 -0.001050 0.005468 -0.003558 0.000000 0.000023 0.000000
# 3 -0.014418 -0.003558 0.055427 0.000000 -0.017709 0.000000
# 4 0.000000 0.000000 0.000000 0.015170 0.000000 0.026351
# 5 -0.000276 0.000023 -0.017709 0.000000 0.029390 0.000000
# 6 0.000000 0.000000 0.000000 0.026351 0.000000 -0.035165
#
#
# Mechanical properties :
#
#
# Convention : Reuss Voigt Hill
#
# Bulk Modulus (GPa) = 25.16772 59.02647 42.09710
# Shear Modulus (GPa) = 36.10759 28.30164 32.20462
#
# Velocity S-wave (km/s) = 3.93735 3.48587 3.71847
# Velocity P-wave (km/s) = 5.61035 6.44551 6.04237
#
# Compressibility (1/GPa) = 0.03973343
#
# Stress axis : x y z
#
# Youngs Moduli (GPa) = 59.20863 182.89197 18.04167
#
# Poissons Ratio (x) = 0.19200 0.26012
# Poissons Ratio (y) = 0.06216 0.06419
# Poissons Ratio (z) = 0.85364 0.65076
#
# Static dielectric constant tensor:
#      x y z
#    x 1.910190 0.000000 0.080430 
#    y 0.000000 1.990900 0.000000 
#    z 0.080430 0.000000 2.001450 
# 
# From -- ./inp_files/78218.got.cif
#   From: 2010.05.17/outbox.cif.g08.bks.cpg/sg15_40_cif.got.tgz:78218.got - 2010.06.03 18:47:42.
