data_PCOD9272790
_publ_section_title
;
Structure prediction by ZEFSAII (Michael W. Deem and Ramdas Pophale) SiO2 
 PCOD9272790
Probable space group: C 2/C
;
_chemical_formula_sum "Si O2"
_cell_formula_units_Z 32
_cell_length_a 14.793382
_cell_length_b 10.188714
_cell_length_c 12.698107
_cell_angle_alpha 90.000000
_cell_angle_beta 144.733352
_cell_angle_gamma 90.000000
_cell_volume 1105.069025
_symmetry_space_group_name_H-M "C 2/C"
_symmetry_group_IT_number 15
_symmetry_cell_setting 'monoclinic'
loop_
_space_group_symop_operation_xyz
x,y,z
-x,y,1/2-z
-x,-y,-z
x,-y,1/2+z
1/2+x,1/2+y,z
1/2-x,1/2+y,1/2-z
1/2-x,1/2-y,-z
1/2+x,1/2-y,1/2+z
loop_
_atom_site_type_symbol
_atom_site_label
_atom_site_fract_x
_atom_site_fract_y
_atom_site_fract_z
Si Si1 0.342230 0.483145 0.919559
Si Si2 0.899857 0.289369 0.547641
Si Si3 0.722810 0.063522 0.094704
Si Si4 0.093402 0.698110 0.701386
O O1 0.216532 0.431528 0.715717
O O2 0.252982 0.613561 0.872328
O O3 0.500000 0.500000 0.000000
O O4 0.363102 0.365076 0.019495
O O5 0.000000 0.317613 0.750000
O O6 0.776267 0.409581 0.428006
O O7 0.936020 0.289529 0.454041
O O8 0.867566 0.160056 0.211596
O O9 0.560070 0.125032 0.904452
#
# Coordination Sequence:
#
# PCOD9272790 Si02
#       4
#     8   8   8   8
#     4  10  20  37  60  88 121 162 200 240 304 378
#     4  10  21  38  61  94 122 150 199 261 303 343
#     4  10  21  39  62  86 118 165 207 243 295 369
#     4  10  20  40  62  84 117 165 207 240 295 376
#
# _framework density 28.957467999999999
#
# number of rings (size 3 to 8) (size 9 to 14) (size 15 to 20)
#    0.000    2.000    0.000    6.000    0.000    4.000 
#    0.000   33.750    0.000    0.000    0.000    7.000 
#    0.000    0.000    0.000    0.000    0.000    0.000 
#
# Total GULP energy -89263.074413 kJ/mol
# GULP energy per Si atom -5578.942151 kJ/mol
# Density = 2.889156 g / cm^3
# Si number density = 28.957468 Si / 1000 Ang^3
#
#
#
# Elastic Constant Matrix: (Units=GPa)
#
#
# Indices 1 2 3 4 5 6 
#
# 1 125.9707 48.3306 58.9964 0.0000 -0.5396 0.0000
# 2 48.3306 171.8193 48.5792 0.0000 9.4852 0.0000
# 3 58.9964 48.5792 167.6099 0.0000 -33.5920 0.0000
# 4 0.0000 0.0000 0.0000 59.9504 0.0000 2.7407
# 5 -0.5396 9.4852 -33.5920 0.0000 50.2440 0.0000
# 6 0.0000 0.0000 0.0000 2.7407 0.0000 -33.4670
#
#
#
# Elastic Compliance Matrix: (Units=1/GPa)
#
#
# Indices 1 2 3 4 5 6 
#
# 1 0.010239 -0.001801 -0.003455 0.000000 -0.001860 0.000000
# 2 -0.001801 0.007017 -0.001928 0.000000 -0.002633 0.000000
# 3 -0.003455 -0.001928 0.009014 0.000000 0.006354 0.000000
# 4 0.000000 0.000000 0.000000 0.016618 0.000000 0.001361
# 5 -0.001860 -0.002633 0.006354 0.000000 0.024628 0.000000
# 6 0.000000 0.000000 0.000000 0.001361 0.000000 -0.029769
#
#
# Mechanical properties :
#
#
# Convention : Reuss Voigt Hill
#
# Bulk Modulus (GPa) = 84.00426 86.35691 85.18058
# Shear Modulus (GPa) = 89.15446 35.97841 62.56643
#
# Velocity S-wave (km/s) = 5.55472 3.52867 4.65330
# Velocity P-wave (km/s) = 8.37928 6.81827 7.63876
#
# Compressibility (1/GPa) = 0.01190416
#
# Stress axis : x y z
#
# Youngs Moduli (GPa) = 97.66265 142.51292 110.93364
#
# Poissons Ratio (x) = 0.25662 0.38327
# Poissons Ratio (y) = 0.17586 0.21383
# Poissons Ratio (z) = 0.33742 0.27471
#
# Static dielectric constant tensor:
#      x y z
#    x 2.389380 0.000000 -0.004370 
#    y 0.000000 2.279790 0.000000 
#    z -0.004370 0.000000 2.250240 
# 
# From -- ./inp_files/161471.got.cif
#   From: 2010.05.17/outbox.cif.g08.bks.cpg/sg15_81_cif.got.tgz:161471.got - 2010.06.03 18:47:42.
