data_PCOD9272301
_publ_section_title
;
Structure prediction by ZEFSAII (Michael W. Deem and Ramdas Pophale) SiO2 
 PCOD9272301
Probable space group: C 2/C
;
_chemical_formula_sum "Si O2"
_cell_formula_units_Z 60
_cell_length_a 24.600997
_cell_length_b 8.889844
_cell_length_c 25.715905
_cell_angle_alpha 90.000000
_cell_angle_beta 147.130881
_cell_angle_gamma 90.000000
_cell_volume 3052.291146
_symmetry_space_group_name_H-M "C 2/C"
_symmetry_group_IT_number 15
_symmetry_cell_setting 'monoclinic'
loop_
_space_group_symop_operation_xyz
x,y,z
-x,y,1/2-z
-x,-y,-z
x,-y,1/2+z
1/2+x,1/2+y,z
1/2-x,1/2+y,1/2-z
1/2-x,1/2-y,-z
1/2+x,1/2-y,1/2+z
loop_
_atom_site_type_symbol
_atom_site_label
_atom_site_fract_x
_atom_site_fract_y
_atom_site_fract_z
Si Si1 0.500000 0.510330 0.750000
Si Si2 0.444703 0.775767 0.778905
Si Si3 0.299419 0.410859 0.536849
Si Si4 0.065410 0.631629 0.527975
Si Si5 0.381316 0.311115 0.341728
Si Si6 0.701761 0.378351 0.683731
Si Si7 0.343648 0.120066 0.008117
Si Si8 0.255794 0.072275 0.108250
O O1 0.447627 0.628083 0.746551
O O2 0.412515 0.421012 0.649838
O O3 0.392350 0.719036 0.789450
O O4 0.556139 0.833879 0.880088
O O5 0.375800 0.910032 0.701842
O O6 0.250000 0.250000 0.500000
O O7 0.228560 0.518412 0.515160
O O8 0.292087 0.456897 0.470365
O O9 0.140766 0.722367 0.625780
O O10 0.118752 0.566906 0.518802
O O11 0.000000 0.500000 0.500000
O O12 0.988522 0.764334 0.450029
O O13 0.350433 0.481248 0.329935
O O14 0.299900 0.183864 0.292288
O O15 0.725417 0.439869 0.644267
O O16 0.284574 0.270146 0.945936
#
# Coordination Sequence:
#
# PCOD9272301 Si02
#       8
#     4   8   8   8   8   8   8   8
#     4  12  22  42  66  86 118 160 200 256 306 364
#     4  10  20  36  68  88 114 161 219 249 294 371
#     4  12  26  41  61  96 128 155 202 260 324 365
#     4  10  21  37  60  88 122 163 210 252 308 362
#     4  10  21  38  57  93 121 160 212 253 305 366
#     4  10  21  38  62  87 127 162 208 260 304 369
#     4  10  20  39  62  87 118 161 211 252 292 379
#     4  10  20  39  63  89 117 165 212 250 300 371
#
# _framework density 19.657364000000001
#
# number of rings (size 3 to 8) (size 9 to 14) (size 15 to 20)
#    0.000    1.600    2.667    2.400    0.000    2.133 
#    4.800    0.000    0.000    0.000    0.000    0.000 
#    0.000    0.000    0.000    0.000    0.000    0.000 
#
# Total GULP energy -167314.111338 kJ/mol
# GULP energy per Si atom -5577.137045 kJ/mol
# Density = 1.961262 g / cm^3
# Si number density = 19.657364 Si / 1000 Ang^3
#
#
#
# Elastic Constant Matrix: (Units=GPa)
#
#
# Indices 1 2 3 4 5 6 
#
# 1 34.2628 9.6481 0.7078 0.0000 2.9394 0.0000
# 2 9.6481 38.0105 -4.7480 0.0000 -4.9718 0.0001
# 3 0.7078 -4.7480 109.0956 0.0000 1.9395 0.0000
# 4 0.0000 0.0000 0.0000 15.4237 0.0000 1.1234
# 5 2.9394 -4.9718 1.9395 0.0000 19.6130 0.0000
# 6 0.0000 0.0001 0.0000 1.1234 0.0000 62.4061
#
#
#
# Elastic Compliance Matrix: (Units=1/GPa)
#
#
# Indices 1 2 3 4 5 6 
#
# 1 0.032406 -0.009221 -0.000485 0.000000 -0.007146 0.000000
# 2 -0.009221 0.029958 0.001206 0.000000 0.008857 0.000000
# 3 -0.000485 0.001206 0.009231 0.000000 -0.000534 0.000000
# 4 0.000000 0.000000 0.000000 0.064921 0.000000 -0.001169
# 5 -0.007146 0.008857 -0.000534 0.000000 0.054356 0.000000
# 6 0.000000 0.000000 0.000000 -0.001169 0.000000 0.016045
#
#
# Mechanical properties :
#
#
# Convention : Reuss Voigt Hill
#
# Bulk Modulus (GPa) = 18.31595 21.39831 19.85713
# Shear Modulus (GPa) = 20.65145 31.20595 25.92870
#
# Velocity S-wave (km/s) = 3.24477 3.98866 3.63579
# Velocity P-wave (km/s) = 4.83486 5.66761 5.26772
#
# Compressibility (1/GPa) = 0.05459723
#
# Stress axis : x y z
#
# Youngs Moduli (GPa) = 30.85870 33.37990 108.32578
#
# Poissons Ratio (x) = 0.30779 0.05248
# Poissons Ratio (y) = 0.28454 -0.13066
# Poissons Ratio (z) = 0.01495 -0.04026
#
# Static dielectric constant tensor:
#      x y z
#    x 1.857380 0.000000 0.008290 
#    y 0.000000 1.604130 0.000000 
#    z 0.008290 0.000000 1.802780 
# 
# From -- ./inp_files/302090.got.cif
#   From: 2010.05.17/outbox.cif.g08.bks.cpg/sg15_152_cif.got.tgz:302090.got - 2010.06.03 18:47:42.
