data_PCOD9272405
_publ_section_title
;
Structure prediction by ZEFSAII (Michael W. Deem and Ramdas Pophale) SiO2 
 PCOD9272405
Probable space group: C 2/C
;
_chemical_formula_sum "Si O2"
_cell_formula_units_Z 40
_cell_length_a 27.237404
_cell_length_b 7.381064
_cell_length_c 18.958172
_cell_angle_alpha 90.000000
_cell_angle_beta 157.818928
_cell_angle_gamma 90.000000
_cell_volume 1438.925294
_symmetry_space_group_name_H-M "C 2/C"
_symmetry_group_IT_number 15
_symmetry_cell_setting 'monoclinic'
loop_
_space_group_symop_operation_xyz
x,y,z
-x,y,1/2-z
-x,-y,-z
x,-y,1/2+z
1/2+x,1/2+y,z
1/2-x,1/2+y,1/2-z
1/2-x,1/2-y,-z
1/2+x,1/2-y,1/2+z
loop_
_atom_site_type_symbol
_atom_site_label
_atom_site_fract_x
_atom_site_fract_y
_atom_site_fract_z
Si Si1 0.657426 0.891807 0.819977
Si Si2 0.420949 0.522109 0.319136
Si Si3 0.118598 0.566563 0.557334
Si Si4 0.853909 0.390718 0.053775
Si Si5 0.846675 0.965669 0.960335
O O1 0.637965 0.678997 0.775310
O O2 0.527065 0.974574 0.612649
O O3 0.635621 0.952875 0.871846
O O4 0.796860 0.951866 0.974267
O O5 0.500000 0.500000 0.500000
O O6 0.528556 0.565684 0.403843
O O7 0.300506 0.661456 0.144707
O O8 0.156357 0.446631 0.541250
O O9 0.128789 0.765955 0.537617
O O10 0.222613 0.543735 0.755649
O O11 0.000000 0.305509 0.250000
#
# Coordination Sequence:
#
# PCOD9272405 Si02
#       5
#     8   8   8   8   8
#     4  10  21  34  57  87 117 151 204 245 292 350
#     4  11  20  34  56  87 122 152 190 247 304 349
#     4  10  21  35  57  86 117 158 190 248 297 359
#     4  10  20  37  55  86 121 153 193 251 303 345
#     4  11  20  35  57  86 117 151 199 244 297 350
#
# _framework density 27.798522999999999
#
# number of rings (size 3 to 8) (size 9 to 14) (size 15 to 20)
#    0.000    1.600    4.000    1.200    0.000    0.800 
#    0.000    0.000    0.000    1.200   20.800    0.000 
#    0.000    0.000    0.000    0.000    0.000    0.000 
#
# Total GULP energy -111604.225865 kJ/mol
# GULP energy per Si atom -5580.211293 kJ/mol
# Density = 2.773525 g / cm^3
# Si number density = 27.798523 Si / 1000 Ang^3
#
#
#
# Elastic Constant Matrix: (Units=GPa)
#
#
# Indices 1 2 3 4 5 6 
#
# 1 174.4640 51.6383 63.6593 0.0000 26.4244 0.0000
# 2 51.6383 46.3571 29.9408 0.0000 -0.4171 0.0000
# 3 63.6593 29.9408 217.0588 0.0000 47.6399 0.0000
# 4 0.0000 0.0000 0.0000 58.7954 0.0000 -2.3059
# 5 26.4244 -0.4171 47.6399 0.0000 78.2021 0.0000
# 6 0.0000 0.0000 0.0000 -2.3059 0.0000 33.8332
#
#
#
# Elastic Compliance Matrix: (Units=1/GPa)
#
#
# Indices 1 2 3 4 5 6 
#
# 1 0.009384 -0.009980 -0.000771 0.000000 -0.002754 0.000000
# 2 -0.009980 0.034707 -0.003049 0.000000 0.005415 0.000000
# 3 -0.000771 -0.003049 0.006003 0.000000 -0.003413 0.000000
# 4 0.000000 0.000000 0.000000 0.017054 0.000000 0.001162
# 5 -0.002754 0.005415 -0.003413 0.000000 0.015826 0.000000
# 6 0.000000 0.000000 0.000000 0.001162 0.000000 0.029636
#
#
# Mechanical properties :
#
#
# Convention : Reuss Voigt Hill
#
# Bulk Modulus (GPa) = 44.45707 80.92853 62.69280
# Shear Modulus (GPa) = 33.85072 53.67558 43.76315
#
# Velocity S-wave (km/s) = 3.49337 4.39894 3.97205
# Velocity P-wave (km/s) = 5.68320 7.41463 6.60589
#
# Compressibility (1/GPa) = 0.02249361
#
# Stress axis : x y z
#
# Youngs Moduli (GPa) = 106.56046 28.81287 166.59158
#
# Poissons Ratio (x) = 0.28756 0.12845
# Poissons Ratio (y) = 1.06350 0.50791
# Poissons Ratio (z) = 0.08216 0.08785
#
# Static dielectric constant tensor:
#      x y z
#    x 2.120210 0.000000 0.058630 
#    y 0.000000 2.275150 0.000000 
#    z 0.058630 0.000000 2.199310 
# 
# From -- ./inp_files/203772.got.cif
#   From: 2010.05.17/outbox.cif.g08.bks.cpg/sg15_102_cif.got.tgz:203772.got - 2010.06.03 18:47:42.
