data_PCOD9272483
_publ_section_title
;
Structure prediction by ZEFSAII (Michael W. Deem and Ramdas Pophale) SiO2 
 PCOD9272483
Probable space group: C 2/C
;
_chemical_formula_sum "Si O2"
_cell_formula_units_Z 44
_cell_length_a 26.696807
_cell_length_b 15.073621
_cell_length_c 13.162898
_cell_angle_alpha 90.000000
_cell_angle_beta 158.008093
_cell_angle_gamma 90.000000
_cell_volume 1983.590337
_symmetry_space_group_name_H-M "C 2/C"
_symmetry_group_IT_number 15
_symmetry_cell_setting 'monoclinic'
loop_
_space_group_symop_operation_xyz
x,y,z
-x,y,1/2-z
-x,-y,-z
x,-y,1/2+z
1/2+x,1/2+y,z
1/2-x,1/2+y,1/2-z
1/2-x,1/2-y,-z
1/2+x,1/2-y,1/2+z
loop_
_atom_site_type_symbol
_atom_site_label
_atom_site_fract_x
_atom_site_fract_y
_atom_site_fract_z
Si Si1 0.036020 0.623277 0.466486
Si Si2 0.500000 0.467224 0.250000
Si Si3 0.262333 0.086627 0.474824
Si Si4 0.745953 0.605846 0.007253
Si Si5 0.292002 0.026818 0.305505
Si Si6 0.480874 0.318351 0.041491
O O1 0.102608 0.549823 0.520484
O O2 0.878927 0.614038 0.190802
O O3 0.051752 0.725702 0.466652
O O4 0.113707 0.607038 0.719188
O O5 0.641831 0.515798 0.518742
O O6 0.490837 0.399984 0.138139
O O7 0.307723 0.074226 0.443314
O O8 0.197781 0.993017 0.387120
O O9 0.145495 0.158674 0.265623
O O10 0.789507 0.597182 0.207616
O O11 0.628130 0.676673 0.768348
#
# Coordination Sequence:
#
# PCOD9272483 Si02
#       6
#     8   4   8   8   8   8
#     4  11  22  35  58  88 113 142 185 239 279 318
#     4   8  18  36  58  76 108 156 188 220 274 342
#     4  10  20  37  60  80 109 154 187 227 275 329
#     4  10  21  36  57  83 114 152 185 219 276 342
#     4   9  19  36  57  81 110 148 193 224 270 337
#     4  10  20  37  57  84 115 145 185 231 278 328
#
# _framework density 22.181999000000001
#
# number of rings (size 3 to 8) (size 9 to 14) (size 15 to 20)
#    0.000    2.182    0.000    3.818    0.000    5.818 
#    0.000    1.818    0.000    8.727    0.000    0.000 
#    0.000    0.000    0.000    0.000    0.000    0.000 
#
# Total GULP energy -122788.302331 kJ/mol
# GULP energy per Si atom -5581.286470 kJ/mol
# Density = 2.213151 g / cm^3
# Si number density = 22.181999 Si / 1000 Ang^3
#
#
#
# Elastic Constant Matrix: (Units=GPa)
#
#
# Indices 1 2 3 4 5 6 
#
# 1 91.4595 5.2961 35.9583 0.0000 0.0685 0.0000
# 2 5.2961 69.5930 30.9493 0.0000 10.0781 0.0000
# 3 35.9583 30.9493 125.7688 0.0000 28.0201 0.0000
# 4 0.0000 0.0000 0.0000 28.8574 0.0000 8.5324
# 5 0.0685 10.0781 28.0201 0.0000 41.0346 0.0000
# 6 0.0000 0.0000 0.0000 8.5324 0.0000 5.4795
#
#
#
# Elastic Compliance Matrix: (Units=1/GPa)
#
#
# Indices 1 2 3 4 5 6 
#
# 1 0.012621 0.000578 -0.004381 0.000000 0.002828 0.000000
# 2 0.000578 0.016238 -0.003860 0.000000 -0.001353 0.000000
# 3 -0.004381 -0.003860 0.011724 0.000000 -0.007050 0.000000
# 4 0.000000 0.000000 0.000000 0.064220 0.000000 -0.100000
# 5 0.002828 -0.001353 -0.007050 0.000000 0.029512 0.000000
# 6 0.000000 0.000000 0.000000 -0.100000 0.000000 0.338211
#
#
# Mechanical properties :
#
#
# Convention : Reuss Voigt Hill
#
# Bulk Modulus (GPa) = 39.59115 47.91430 43.75272
# Shear Modulus (GPa) = 10.07518 29.38216 19.72867
#
# Velocity S-wave (km/s) = 2.13352 3.64345 2.98552
# Velocity P-wave (km/s) = 4.89452 6.27272 5.62598
#
# Compressibility (1/GPa) = 0.02525817
#
# Stress axis : x y z
#
# Youngs Moduli (GPa) = 79.23607 61.58520 85.29436
#
# Poissons Ratio (x) = -0.03561 0.37365
# Poissons Ratio (y) = -0.04581 0.32920
# Poissons Ratio (z) = 0.34711 0.23769
#
# Static dielectric constant tensor:
#      x y z
#    x 1.899040 0.000000 0.020180 
#    y 0.000000 1.816620 0.000000 
#    z 0.020180 0.000000 1.901440 
# 
# From -- ./inp_files/182368.got.cif
#   From: 2010.05.17/outbox.cif.g08.bks.cpg/sg15_92_cif.got.tgz:182368.got - 2010.06.03 18:47:42.
