data_PCOD9272830
_publ_section_title
;
Structure prediction by ZEFSAII (Michael W. Deem and Ramdas Pophale) SiO2 
 PCOD9272830
Probable space group: C 2/C
;
_chemical_formula_sum "Si O2"
_cell_formula_units_Z 48
_cell_length_a 18.168624
_cell_length_b 9.015185
_cell_length_c 31.094671
_cell_angle_alpha 90.000000
_cell_angle_beta 151.702156
_cell_angle_gamma 90.000000
_cell_volume 2414.412377
_symmetry_space_group_name_H-M "C 2/C"
_symmetry_group_IT_number 15
_symmetry_cell_setting 'monoclinic'
loop_
_space_group_symop_operation_xyz
x,y,z
-x,y,1/2-z
-x,-y,-z
x,-y,1/2+z
1/2+x,1/2+y,z
1/2-x,1/2+y,1/2-z
1/2-x,1/2-y,-z
1/2+x,1/2-y,1/2+z
loop_
_atom_site_type_symbol
_atom_site_label
_atom_site_fract_x
_atom_site_fract_y
_atom_site_fract_z
Si Si1 0.905546 0.805958 0.244503
Si Si2 0.571083 0.313474 0.461499
Si Si3 0.597262 0.084750 0.396390
Si Si4 0.458221 0.835175 0.369094
Si Si5 0.043726 0.333979 0.036761
Si Si6 0.859418 0.989201 0.795038
O O1 0.725680 0.810359 0.140331
O O2 0.000000 0.819205 0.250000
O O3 0.960186 0.658446 0.297653
O O4 0.939041 0.943484 0.293380
O O5 0.590581 0.174309 0.438481
O O6 0.742370 0.385285 0.546124
O O7 0.517085 0.265609 0.481012
O O8 0.444974 0.425338 0.377467
O O9 0.576336 0.913470 0.397471
O O10 0.527521 0.807934 0.452422
O O11 0.383607 0.684159 0.313388
O O12 0.317818 0.955859 0.299416
O O13 0.000000 0.500000 0.000000
#
# Coordination Sequence:
#
# PCOD9272830 Si02
#       6
#     8   8   8   8   8   8
#     4  10  20  38  62  87 117 165 207 251 311 377
#     4  10  20  37  60  91 117 162 203 260 307 373
#     4  10  20  38  62  84 121 157 211 250 315 375
#     4  11  22  40  59  89 123 168 204 260 315 375
#     4  11  21  34  63  91 120 155 208 259 305 369
#     4  10  23  37  62  85 125 162 210 254 316 373
#
# _framework density 19.880613
#
# number of rings (size 3 to 8) (size 9 to 14) (size 15 to 20)
#    0.000    1.667    3.333    3.000    2.333    1.333 
#    0.000    0.833    0.000    0.000    0.000    0.000 
#    0.000    0.000    0.000    0.000    0.000    0.000 
#
# Total GULP energy -133915.587980 kJ/mol
# GULP energy per Si atom -5579.816166 kJ/mol
# Density = 1.983536 g / cm^3
# Si number density = 19.880613 Si / 1000 Ang^3
#
#
#
# Elastic Constant Matrix: (Units=GPa)
#
#
# Indices 1 2 3 4 5 6 
#
# 1 92.3506 45.4458 18.8918 0.0000 -26.0100 0.0000
# 2 45.4458 82.1784 6.7688 0.0000 -19.5176 0.0000
# 3 18.8918 6.7688 67.8396 0.0001 -15.6495 0.0000
# 4 0.0000 0.0000 0.0001 15.9301 0.0000 6.8547
# 5 -26.0100 -19.5176 -15.6495 0.0000 29.0470 0.0000
# 6 0.0000 0.0000 0.0000 6.8547 0.0000 21.6974
#
#
#
# Elastic Compliance Matrix: (Units=1/GPa)
#
#
# Indices 1 2 3 4 5 6 
#
# 1 0.017531 -0.007202 -0.001894 0.000000 0.009838 0.000000
# 2 -0.007202 0.017488 0.001694 0.000000 0.006214 0.000000
# 3 -0.001894 0.001694 0.017095 0.000000 0.008653 0.000000
# 4 0.000000 0.000000 0.000000 0.072650 0.000000 -0.022952
# 5 0.009838 0.006214 0.008653 0.000000 0.052074 0.000000
# 6 0.000000 0.000000 0.000000 -0.022952 0.000000 0.053340
#
#
# Mechanical properties :
#
#
# Convention : Reuss Voigt Hill
#
# Bulk Modulus (GPa) = 26.80222 42.73126 34.76674
# Shear Modulus (GPa) = 19.42369 24.75239 22.08804
#
# Velocity S-wave (km/s) = 3.12912 3.53236 3.33683
# Velocity P-wave (km/s) = 5.15422 6.17878 5.68961
#
# Compressibility (1/GPa) = 0.03731035
#
# Stress axis : x y z
#
# Youngs Moduli (GPa) = 57.04260 57.18240 58.49647
#
# Poissons Ratio (x) = 0.41184 0.11078
# Poissons Ratio (y) = 0.41083 -0.09911
# Poissons Ratio (z) = 0.10803 -0.09688
#
# Static dielectric constant tensor:
#      x y z
#    x 1.748800 0.000000 0.004110 
#    y 0.000000 1.707760 0.000000 
#    z 0.004110 0.000000 1.718550 
# 
# From -- ./inp_files/180704.got.cif
#   From: 2010.05.17/outbox.cif.g08.bks.cpg/sg15_91_cif.got.tgz:180704.got - 2010.06.03 18:47:42.
