data_PCOD9272339
_publ_section_title
;
Structure prediction by ZEFSAII (Michael W. Deem and Ramdas Pophale) SiO2 
 PCOD9272339
Probable space group: C 2/C
;
_chemical_formula_sum "Si O2"
_cell_formula_units_Z 60
_cell_length_a 25.618781
_cell_length_b 21.204644
_cell_length_c 13.956502
_cell_angle_alpha 90.000000
_cell_angle_beta 21.714349
_cell_angle_gamma 90.000000
_cell_volume 2805.069421
_symmetry_space_group_name_H-M "C 2/C"
_symmetry_group_IT_number 15
_symmetry_cell_setting 'monoclinic'
loop_
_space_group_symop_operation_xyz
x,y,z
-x,y,1/2-z
-x,-y,-z
x,-y,1/2+z
1/2+x,1/2+y,z
1/2-x,1/2+y,1/2-z
1/2-x,1/2-y,-z
1/2+x,1/2-y,1/2+z
loop_
_atom_site_type_symbol
_atom_site_label
_atom_site_fract_x
_atom_site_fract_y
_atom_site_fract_z
Si Si1 0.290951 0.481612 0.106767
Si Si2 0.747500 0.380714 0.880569
Si Si3 0.966522 0.397944 0.997508
Si Si4 0.500000 0.825957 0.750000
Si Si5 0.955416 0.822212 0.107771
Si Si6 0.701101 0.772243 0.186457
Si Si7 0.786252 0.249465 0.733135
Si Si8 0.491195 0.448130 0.930946
O O1 0.311843 0.557076 0.069111
O O2 0.133577 0.457196 0.353201
O O3 0.349478 0.454754 0.107796
O O4 0.386245 0.457224 0.856134
O O5 0.781076 0.324341 0.751150
O O6 0.893954 0.404050 0.677754
O O7 0.643883 0.349722 0.137933
O O8 0.868410 0.340967 0.203768
O O9 0.019411 0.370331 0.807186
O O10 0.636038 0.782926 0.508629
O O11 0.877961 0.776274 0.164517
O O12 0.001579 0.881690 0.965973
O O13 0.085561 0.779307 0.919356
O O14 0.818941 0.772349 0.068968
O O15 0.750000 0.750000 0.000000
O O16 0.500000 0.500000 0.000000
#
# Coordination Sequence:
#
# PCOD9272339 Si02
#       8
#     8   8   8   4   8   8   8   8
#     4  11  26  42  68  96 134 177 221 274 325 402
#     4  12  23  42  67  99 135 167 223 276 333 394
#     4  11  22  43  64 100 133 172 221 268 340 394
#     4  10  20  36  70  96 130 170 216 272 330 396
#     4  12  23  43  72  97 132 176 219 278 332 393
#     4  11  25  42  69  96 136 175 220 278 331 397
#     4  11  23  40  66 102 129 168 219 274 331 391
#     4  11  24  44  66  95 130 175 222 267 329 393
#
# _framework density 21.389845999999999
#
# number of rings (size 3 to 8) (size 9 to 14) (size 15 to 20)
#    0.000    0.800    4.000    4.800    1.867    2.667 
#    0.000    0.000    0.000    0.000    0.000    0.000 
#    0.000    0.000    0.000    0.000    0.000    0.000 
#
# Total GULP energy -167702.709237 kJ/mol
# GULP energy per Si atom -5590.090308 kJ/mol
# Density = 2.134116 g / cm^3
# Si number density = 21.389846 Si / 1000 Ang^3
#
#
#
# Elastic Constant Matrix: (Units=GPa)
#
#
# Indices 1 2 3 4 5 6 
#
# 1 72.0412 -2.5614 18.9403 0.0008 1.1765 -0.0007
# 2 -2.5614 111.6892 7.1340 0.0034 1.8627 -0.0061
# 3 18.9403 7.1340 41.2538 0.0010 -3.9349 -0.0039
# 4 0.0008 0.0034 0.0010 16.8751 -0.0016 -5.8026
# 5 1.1765 1.8627 -3.9349 -0.0016 31.4966 0.0034
# 6 -0.0007 -0.0061 -0.0039 -5.8026 0.0034 12.1375
#
#
#
# Elastic Compliance Matrix: (Units=1/GPa)
#
#
# Indices 1 2 3 4 5 6 
#
# 1 0.015943 0.000879 -0.007624 -0.000001 -0.001600 -0.000001
# 2 0.000879 0.009119 -0.002060 0.000000 -0.000829 0.000004
# 3 -0.007624 -0.002060 0.028475 0.000002 0.003964 0.000008
# 4 -0.000001 0.000000 0.000002 0.070917 0.000000 0.033903
# 5 -0.001600 -0.000829 0.003964 0.000000 0.032354 -0.000008
# 6 -0.000001 0.000004 0.000008 0.033903 -0.000008 0.098597
#
#
# Mechanical properties :
#
#
# Convention : Reuss Voigt Hill
#
# Bulk Modulus (GPa) = 27.83404 30.22334 29.02869
# Shear Modulus (GPa) = 17.54452 25.53326 21.53889
#
# Velocity S-wave (km/s) = 2.86707 3.45876 3.17672
# Velocity P-wave (km/s) = 4.89909 5.48736 5.20155
#
# Compressibility (1/GPa) = 0.03592723
#
# Stress axis : x y z
#
# Youngs Moduli (GPa) = 62.72414 109.66137 35.11861
#
# Poissons Ratio (x) = -0.09642 0.26775
# Poissons Ratio (y) = -0.05515 0.07234
# Poissons Ratio (z) = 0.47823 0.22588
#
# Static dielectric constant tensor:
#      x y z
#    x 1.898540 0.000000 -0.065470 
#    y 0.000000 1.763170 0.000000 
#    z -0.065470 0.000000 1.823220 
# 
# From -- ./inp_files/179091.got.cif
#   From: 2010.05.17/outbox.cif.g08.bks.cpg/sg15_90_cif.got.tgz:179091.got - 2010.06.03 18:47:42.
