data_PCOD9272639
_publ_section_title
;
Structure prediction by ZEFSAII (Michael W. Deem and Ramdas Pophale) SiO2 
 PCOD9272639
Probable space group: C 2/C
;
_chemical_formula_sum "Si O2"
_cell_formula_units_Z 64
_cell_length_a 8.201188
_cell_length_b 25.160124
_cell_length_c 20.087033
_cell_angle_alpha 90.000000
_cell_angle_beta 48.514065
_cell_angle_gamma 90.000000
_cell_volume 3104.958345
_symmetry_space_group_name_H-M "C 2/C"
_symmetry_group_IT_number 15
_symmetry_cell_setting 'monoclinic'
loop_
_space_group_symop_operation_xyz
x,y,z
-x,y,1/2-z
-x,-y,-z
x,-y,1/2+z
1/2+x,1/2+y,z
1/2-x,1/2+y,1/2-z
1/2-x,1/2-y,-z
1/2+x,1/2-y,1/2+z
loop_
_atom_site_type_symbol
_atom_site_label
_atom_site_fract_x
_atom_site_fract_y
_atom_site_fract_z
Si Si1 0.103210 0.667131 0.572117
Si Si2 0.756493 0.687863 0.476582
Si Si3 0.501071 0.444438 0.329238
Si Si4 0.299086 0.652654 0.659216
Si Si5 0.559973 0.434610 0.658703
Si Si6 0.760352 0.237171 0.784600
Si Si7 0.569847 0.667269 0.386077
Si Si8 0.036267 0.404252 0.501400
O O1 0.142466 0.654775 0.638685
O O2 0.330499 0.684527 0.477256
O O3 0.909093 0.709169 0.619161
O O4 0.026534 0.615166 0.555068
O O5 0.750000 0.750000 0.500000
O O6 0.535259 0.663926 0.565144
O O7 0.734927 0.677261 0.403211
O O8 0.937885 0.649871 0.461188
O O9 0.500000 0.433397 0.250000
O O10 0.678098 0.404122 0.311642
O O11 0.537312 0.507071 0.327839
O O12 0.268936 0.432347 0.428419
O O13 0.262604 0.701303 0.718899
O O14 0.500000 0.418547 0.750000
O O15 0.466953 0.391832 0.631430
O O16 0.824652 0.436064 0.583223
O O17 0.662742 0.295548 0.802692
O O18 0.000000 0.236954 0.750000
#
# Coordination Sequence:
#
# PCOD9272639 Si02
#       8
#     8   8   8   8   8   8   8   8
#     4  10  21  38  58  86 120 151 190 243 302 358
#     4  10  20  37  59  85 118 155 194 244 299 356
#     4  10  20  39  63  87 118 154 201 254 301 353
#     4  10  21  35  58  90 115 146 193 247 301 351
#     4  10  23  40  59  85 120 163 203 247 296 355
#     4  12  22  35  58  87 119 153 192 243 300 361
#     4  10  23  40  57  84 121 161 200 240 295 364
#     4  10  20  38  62  86 117 157 201 246 302 362
#
# _framework density 20.612193000000001
#
# number of rings (size 3 to 8) (size 9 to 14) (size 15 to 20)
#    0.000    1.750    0.000    5.250    0.000    6.000 
#    0.000   12.500    0.000    4.500    0.000    0.000 
#    0.000    0.000    0.000    0.000    0.000    0.000 
#
# Total GULP energy -178550.630706 kJ/mol
# GULP energy per Si atom -5579.707210 kJ/mol
# Density = 2.056528 g / cm^3
# Si number density = 20.612193 Si / 1000 Ang^3
#
#
#
# Elastic Constant Matrix: (Units=GPa)
#
#
# Indices 1 2 3 4 5 6 
#
# 1 87.2360 45.8603 34.3658 0.0000 -0.8116 0.0000
# 2 45.8603 108.1795 36.4837 0.0000 11.8892 0.0000
# 3 34.3658 36.4837 68.2008 0.0000 6.5679 0.0000
# 4 0.0000 0.0000 0.0000 32.5099 0.0000 -2.3448
# 5 -0.8116 11.8892 6.5679 0.0000 20.8425 0.0000
# 6 0.0000 0.0000 0.0000 -2.3448 0.0000 19.7528
#
#
#
# Elastic Compliance Matrix: (Units=1/GPa)
#
#
# Indices 1 2 3 4 5 6 
#
# 1 0.016926 -0.005798 -0.005991 0.000000 0.005854 0.000000
# 2 -0.005798 0.013725 -0.003759 0.000000 -0.006870 0.000000
# 3 -0.005991 -0.003759 0.020118 0.000000 -0.004429 0.000000
# 4 0.000000 0.000000 0.000000 0.031025 0.000000 0.003683
# 5 0.005854 -0.006870 -0.004429 0.000000 0.053522 0.000000
# 6 0.000000 0.000000 0.000000 0.003683 0.000000 0.051063
#
#
# Mechanical properties :
#
#
# Convention : Reuss Voigt Hill
#
# Bulk Modulus (GPa) = 50.82973 55.22621 53.02797
# Shear Modulus (GPa) = 22.31821 24.41480 23.36651
#
# Velocity S-wave (km/s) = 3.29411 3.44537 3.37059
# Velocity P-wave (km/s) = 6.25954 6.53288 6.39767
#
# Compressibility (1/GPa) = 0.01967353
#
# Stress axis : x y z
#
# Youngs Moduli (GPa) = 59.08121 72.86183 49.70563
#
# Poissons Ratio (x) = 0.42248 0.29778
# Poissons Ratio (y) = 0.34257 0.18682
# Poissons Ratio (z) = 0.35394 0.27385
#
# Static dielectric constant tensor:
#      x y z
#    x 1.764820 0.000000 -0.010820 
#    y 0.000000 1.741320 0.000000 
#    z -0.010820 0.000000 1.784120 
# 
# From -- ./inp_files/234441.got.cif
#   From: 2010.05.17/outbox.cif.g08.bks.cpg/sg15_118_cif.got.tgz:234441.got - 2010.06.03 18:47:42.
