data_PCOD9272303
_publ_section_title
;
Structure prediction by ZEFSAII (Michael W. Deem and Ramdas Pophale) SiO2 
 PCOD9272303
Probable space group: C 2/C
;
_chemical_formula_sum "Si O2"
_cell_formula_units_Z 52
_cell_length_a 19.654948
_cell_length_b 19.047324
_cell_length_c 14.562330
_cell_angle_alpha 90.000000
_cell_angle_beta 154.402293
_cell_angle_gamma 90.000000
_cell_volume 2355.431081
_symmetry_space_group_name_H-M "C 2/C"
_symmetry_group_IT_number 15
_symmetry_cell_setting 'monoclinic'
loop_
_space_group_symop_operation_xyz
x,y,z
-x,y,1/2-z
-x,-y,-z
x,-y,1/2+z
1/2+x,1/2+y,z
1/2-x,1/2+y,1/2-z
1/2-x,1/2-y,-z
1/2+x,1/2-y,1/2+z
loop_
_atom_site_type_symbol
_atom_site_label
_atom_site_fract_x
_atom_site_fract_y
_atom_site_fract_z
Si Si1 0.203709 0.301256 0.362301
Si Si2 0.433090 0.296193 0.480130
Si Si3 0.835483 0.609839 0.138056
Si Si4 0.994597 0.950654 0.582157
Si Si5 0.254496 0.957310 0.058849
Si Si6 0.392559 0.195785 0.017319
Si Si7 0.000000 0.173444 0.750000
O O1 0.250000 0.250000 0.500000
O O2 0.361998 0.302950 0.495475
O O3 0.165543 0.380779 0.344631
O O4 0.061880 0.264195 0.135144
O O5 0.505342 0.372646 0.552804
O O6 0.274899 0.287968 0.229459
O O7 0.848792 0.649818 0.055663
O O8 0.973637 0.646724 0.364659
O O9 0.858011 0.526734 0.170428
O O10 0.655679 0.626998 0.944694
O O11 0.838666 0.961089 0.456406
O O12 0.132645 0.959637 0.825051
O O13 0.000000 0.000000 0.500000
O O14 0.479569 0.269649 0.143374
#
# Coordination Sequence:
#
# PCOD9272303 Si02
#       7
#     8   8   8   8   8   8   4
#     4  11  23  45  66  93 128 184 228 276 338 395
#     4  11  24  40  67  94 132 170 233 280 321 408
#     4  10  21  40  64  97 134 174 213 274 352 401
#     4  10  20  39  66 100 132 178 226 279 343 407
#     4  10  21  41  68  93 142 178 224 287 341 410
#     4  10  22  40  62  97 135 171 220 279 332 407
#     4  10  20  36  68  90 130 172 218 258 346 404
#
# _framework density 22.076639
#
# number of rings (size 3 to 8) (size 9 to 14) (size 15 to 20)
#    0.000    1.846    1.538    4.154    4.308    0.000 
#    5.538    3.077    0.000    0.000    0.000    0.000 
#    0.000    0.000    0.000    0.000    0.000    0.000 
#
# Total GULP energy -145036.750802 kJ/mol
# GULP energy per Si atom -5578.336569 kJ/mol
# Density = 2.202639 g / cm^3
# Si number density = 22.076639 Si / 1000 Ang^3
#
#
#
# Elastic Constant Matrix: (Units=GPa)
#
#
# Indices 1 2 3 4 5 6 
#
# 1 51.0196 39.7894 17.6884 0.0000 -3.2088 0.0000
# 2 39.7894 192.7448 62.5868 0.0000 0.1201 0.0000
# 3 17.6884 62.5868 124.4654 0.0000 1.2355 0.0000
# 4 0.0000 0.0000 0.0000 -0.1632 0.0000 0.9988
# 5 -3.2088 0.1201 1.2355 0.0000 31.0673 0.0000
# 6 0.0000 0.0000 0.0000 0.9988 0.0000 29.5217
#
#
#
# Elastic Compliance Matrix: (Units=1/GPa)
#
#
# Indices 1 2 3 4 5 6 
#
# 1 0.023675 -0.004528 -0.001113 0.000000 0.002507 0.000000
# 2 -0.004528 0.007067 -0.002906 0.000000 -0.000379 0.000000
# 3 -0.001113 -0.002906 0.009659 0.000000 -0.000488 0.000000
# 4 0.000000 0.000000 0.000000 -5.075354 0.000000 0.171712
# 5 0.002507 -0.000379 -0.000488 0.000000 0.032468 0.000000
# 6 0.000000 0.000000 0.000000 0.171712 0.000000 0.028064
#
#
# Mechanical properties :
#
#
# Convention : Reuss Voigt Hill
#
# Bulk Modulus (GPa) = 42.90543 67.59542 55.25043
# Shear Modulus (GPa) = -1.01019 28.62950 13.80965
#
# Velocity S-wave (km/s) = -0.67718 3.60505 2.50378
# Velocity P-wave (km/s) = 4.34345 6.92918 5.78269
#
# Compressibility (1/GPa) = 0.02330707
#
# Stress axis : x y z
#
# Youngs Moduli (GPa) = 42.23912 141.50660 103.53283
#
# Poissons Ratio (x) = 0.64068 0.11521
# Poissons Ratio (y) = 0.19124 0.30090
# Poissons Ratio (z) = 0.04700 0.41126
#
# Static dielectric constant tensor:
#      x y z
#    x 1.908560 0.000000 -0.042860 
#    y 0.000000 1.830720 0.000000 
#    z -0.042860 0.000000 1.838830 
# 
# From -- ./inp_files/169019.got.cif
#   From: 2010.05.17/outbox.cif.g08.bks.cpg/sg15_85_cif.got.tgz:169019.got - 2010.06.03 18:47:42.
