data_PCOD9272192
_publ_section_title
;
Structure prediction by ZEFSAII (Michael W. Deem and Ramdas Pophale) SiO2 
 PCOD9272192
Probable space group: C 2/C
;
_chemical_formula_sum "Si O2"
_cell_formula_units_Z 64
_cell_length_a 10.788502
_cell_length_b 21.322945
_cell_length_c 17.495404
_cell_angle_alpha 90.000000
_cell_angle_beta 54.549606
_cell_angle_gamma 90.000000
_cell_volume 3278.583882
_symmetry_space_group_name_H-M "C 2/C"
_symmetry_group_IT_number 15
_symmetry_cell_setting 'monoclinic'
loop_
_space_group_symop_operation_xyz
x,y,z
-x,y,1/2-z
-x,-y,-z
x,-y,1/2+z
1/2+x,1/2+y,z
1/2-x,1/2+y,1/2-z
1/2-x,1/2-y,-z
1/2+x,1/2-y,1/2+z
loop_
_atom_site_type_symbol
_atom_site_label
_atom_site_fract_x
_atom_site_fract_y
_atom_site_fract_z
Si Si1 0.847492 0.389334 0.753355
Si Si2 0.085568 0.438187 0.937409
Si Si3 0.894051 0.364521 0.361177
Si Si4 0.288762 0.535523 0.500888
Si Si5 0.163993 0.244786 0.728661
Si Si6 0.554139 0.185748 0.953126
Si Si7 0.912888 0.195887 0.583800
Si Si8 0.897974 0.083194 0.033384
O O1 0.870707 0.428490 0.666982
O O2 0.801076 0.316055 0.756592
O O3 0.716510 0.414639 0.855123
O O4 0.000000 0.390317 0.750000
O O5 0.240040 0.438959 0.934733
O O6 0.000000 0.500000 0.000000
O O7 0.971450 0.380160 0.995219
O O8 0.849478 0.435816 0.399535
O O9 0.733753 0.329987 0.407693
O O10 0.000000 0.363155 0.250000
O O11 0.978317 0.328871 0.398791
O O12 0.443782 0.559906 0.485068
O O13 0.318210 0.461679 0.499316
O O14 0.282953 0.215224 0.626440
O O15 0.143750 0.201375 0.809522
O O16 0.000000 0.248691 0.750000
O O17 0.463307 0.237314 0.033616
O O18 0.054477 0.149033 0.520944
#
# Coordination Sequence:
#
# PCOD9272192 Si02
#       8
#     8   8   8   8   8   8   8   8
#     4  11  23  40  64  91 121 167 214 258 321 386
#     4  11  24  42  64  93 129 167 214 264 321 385
#     4  10  20  36  65  91 123 162 206 258 321 383
#     4   9  22  40  61  92 126 162 211 258 316 381
#     4  11  24  39  60  93 125 166 212 257 323 384
#     4  11  22  41  62  93 128 161 211 273 316 380
#     4  11  21  40  64  92 126 165 208 263 325 376
#     4  10  21  41  66  90 126 167 208 262 320 386
#
# _framework density 19.520624000000002
#
# number of rings (size 3 to 8) (size 9 to 14) (size 15 to 20)
#    0.000    1.500    3.750    1.125    0.000    5.500 
#    2.250    1.250    0.000    0.000    0.000    0.000 
#    0.000    0.000    0.000    0.000    0.000    0.000 
#
# Total GULP energy -178339.100586 kJ/mol
# GULP energy per Si atom -5573.096893 kJ/mol
# Density = 1.947619 g / cm^3
# Si number density = 19.520624 Si / 1000 Ang^3
#
#
#
# Elastic Constant Matrix: (Units=GPa)
#
#
# Indices 1 2 3 4 5 6 
#
# 1 47.7808 13.2093 5.7910 0.0000 -7.5577 0.0000
# 2 13.2093 93.1155 15.5576 0.0000 -14.0868 0.0000
# 3 5.7910 15.5576 99.9310 0.0000 -12.2341 0.0000
# 4 0.0000 0.0000 0.0000 24.2706 0.0000 3.6820
# 5 -7.5577 -14.0868 -12.2341 0.0000 27.7666 0.0000
# 6 0.0000 0.0000 0.0000 3.6820 0.0000 16.7261
#
#
#
# Elastic Compliance Matrix: (Units=1/GPa)
#
#
# Indices 1 2 3 4 5 6 
#
# 1 0.022382 -0.002403 -0.000345 0.000000 0.004721 0.000000
# 2 -0.002403 0.012017 -0.001126 0.000000 0.004946 0.000000
# 3 -0.000345 -0.001126 0.010698 0.000000 0.004048 0.000000
# 4 0.000000 0.000000 0.000000 0.042626 0.000000 -0.009384
# 5 0.004721 0.004946 0.004048 0.000000 0.041593 0.000000
# 6 0.000000 0.000000 0.000000 -0.009384 0.000000 0.061852
#
#
# Mechanical properties :
#
#
# Convention : Reuss Voigt Hill
#
# Bulk Modulus (GPa) = 26.77522 34.43810 30.60666
# Shear Modulus (GPa) = 23.65582 27.50396 25.57989
#
# Velocity S-wave (km/s) = 3.48492 3.75770 3.62388
# Velocity P-wave (km/s) = 5.47166 6.04212 5.76395
#
# Compressibility (1/GPa) = 0.03734796
#
# Stress axis : x y z
#
# Youngs Moduli (GPa) = 44.67911 83.21771 93.47700
#
# Poissons Ratio (x) = 0.19999 0.03224
# Poissons Ratio (y) = 0.10738 0.10525
# Poissons Ratio (z) = 0.01541 0.09370
#
# Static dielectric constant tensor:
#      x y z
#    x 1.734310 0.000000 -0.007450 
#    y 0.000000 1.744520 0.000000 
#    z -0.007450 0.000000 1.668830 
# 
# From -- ./inp_files/200363.got.cif
#   From: 2010.05.17/outbox.cif.g08.bks.cpg/sg15_101_cif.got.tgz:200363.got - 2010.06.03 18:47:42.
