data_PCOD9272934
_publ_section_title
;
Structure prediction by ZEFSAII (Michael W. Deem and Ramdas Pophale) SiO2 
 PCOD9272934
Probable space group: C 2/C
;
_chemical_formula_sum "Si O2"
_cell_formula_units_Z 52
_cell_length_a 23.717432
_cell_length_b 13.980086
_cell_length_c 8.083048
_cell_angle_alpha 90.000000
_cell_angle_beta 129.932253
_cell_angle_gamma 90.000000
_cell_volume 2055.119137
_symmetry_space_group_name_H-M "C 2/C"
_symmetry_group_IT_number 15
_symmetry_cell_setting 'monoclinic'
loop_
_space_group_symop_operation_xyz
x,y,z
-x,y,1/2-z
-x,-y,-z
x,-y,1/2+z
1/2+x,1/2+y,z
1/2-x,1/2+y,1/2-z
1/2-x,1/2-y,-z
1/2+x,1/2-y,1/2+z
loop_
_atom_site_type_symbol
_atom_site_label
_atom_site_fract_x
_atom_site_fract_y
_atom_site_fract_z
Si Si1 0.168026 0.705529 0.007830
Si Si2 0.191403 0.891622 0.566286
Si Si3 0.585091 0.297921 0.116228
Si Si4 0.500000 0.552060 0.250000
Si Si5 0.500000 0.939366 0.250000
Si Si6 0.000000 0.258106 0.750000
Si Si7 0.588524 0.900403 0.092872
Si Si8 0.859685 0.923308 0.669825
O O1 0.238243 0.664339 0.233537
O O2 0.104303 0.710212 0.030573
O O3 0.157101 0.636862 0.827841
O O4 0.164363 0.816700 0.940412
O O5 0.154438 0.827430 0.355415
O O6 0.140960 0.908710 0.633548
O O7 0.199606 0.997364 0.502282
O O8 0.517543 0.292381 0.115005
O O9 0.559110 0.381883 0.951993
O O10 0.562085 0.523008 0.229877
O O11 0.529688 0.895986 0.133957
O O12 0.568441 0.004866 0.451300
O O13 0.929293 0.321863 0.578691
#
# Coordination Sequence:
#
# PCOD9272934 Si02
#       8
#     8   8   8   4   4   4   8   8
#     4  11  24  44  68  97 136 181 227 273 332 407
#     4  12  26  44  67  97 138 181 222 275 335 405
#     4  11  22  39  66  99 133 175 223 279 338 401
#     4  10  22  42  68  98 134 170 222 286 338 390
#     4   9  20  37  58  92 128 164 224 274 334 392
#     4  11  20  35  66 100 132 174 224 276 342 394
#     4  10  20  37  61  90 127 170 215 278 329 388
#     4  11  25  45  70 102 136 175 227 279 333 400
#
# _framework density 25.302669999999999
#
# number of rings (size 3 to 8) (size 9 to 14) (size 15 to 20)
#    0.000    1.231    0.000    7.385    0.000    4.923 
#    0.000    3.077    0.000    0.000    0.000    0.000 
#    0.000    0.000    0.000    0.000    0.000    0.000 
#
# Total GULP energy -144803.052197 kJ/mol
# GULP energy per Si atom -5569.348161 kJ/mol
# Density = 2.524508 g / cm^3
# Si number density = 25.302670 Si / 1000 Ang^3
#
#
#
# Elastic Constant Matrix: (Units=GPa)
#
#
# Indices 1 2 3 4 5 6 
#
# 1 68.1622 8.1578 -21.0813 0.0000 -14.4615 0.0000
# 2 8.1578 92.2344 36.0711 0.0000 3.5215 0.0000
# 3 -21.0813 36.0711 145.3034 0.0000 -1.7320 0.0000
# 4 0.0000 0.0000 0.0000 74.8812 0.0000 -26.3007
# 5 -14.4615 3.5215 -1.7320 0.0000 32.3745 0.0000
# 6 0.0000 0.0000 0.0000 -26.3007 0.0000 25.6647
#
#
#
# Elastic Compliance Matrix: (Units=1/GPa)
#
#
# Indices 1 2 3 4 5 6 
#
# 1 0.017977 -0.003298 0.003529 0.000000 0.008578 0.000000
# 2 -0.003298 0.012683 -0.003663 0.000000 -0.003049 0.000000
# 3 0.003529 -0.003663 0.008332 0.000000 0.002421 0.000000
# 4 0.000000 0.000000 0.000000 0.020864 0.000000 0.021381
# 5 0.008578 -0.003049 0.002421 0.000000 0.035181 0.000000
# 6 0.000000 0.000000 0.000000 0.021381 0.000000 0.060875
#
#
# Mechanical properties :
#
#
# Convention : Reuss Voigt Hill
#
# Bulk Modulus (GPa) = 31.12519 39.11057 35.11788
# Shear Modulus (GPa) = 28.82084 45.42091 37.12087
#
# Velocity S-wave (km/s) = 3.37863 4.24146 3.83439
# Velocity P-wave (km/s) = 5.24863 6.28310 5.78902
#
# Compressibility (1/GPa) = 0.03212832
#
# Stress axis : x y z
#
# Youngs Moduli (GPa) = 55.62700 78.84813 120.01359
#
# Poissons Ratio (x) = 0.26001 -0.42353
# Poissons Ratio (y) = 0.18344 0.43963
# Poissons Ratio (z) = -0.19631 0.28884
#
# Static dielectric constant tensor:
#      x y z
#    x 2.150070 0.000000 0.047960 
#    y 0.000000 2.044700 0.000000 
#    z 0.047960 0.000000 2.037010 
# 
# From -- ./inp_files/66331.got.cif
#   From: 2010.05.17/outbox.cif.g08.bks.cpg/sg15_34_cif.got.tgz:66331.got - 2010.06.03 18:47:42.
