data_PCOD9272365
_publ_section_title
;
Structure prediction by ZEFSAII (Michael W. Deem and Ramdas Pophale) SiO2 
 PCOD9272365
Probable space group: C 2/C
;
_chemical_formula_sum "Si O2"
_cell_formula_units_Z 48
_cell_length_a 10.895839
_cell_length_b 23.899680
_cell_length_c 8.904722
_cell_angle_alpha 90.000000
_cell_angle_beta 62.937532
_cell_angle_gamma 90.000000
_cell_volume 2064.963730
_symmetry_space_group_name_H-M "C 2/C"
_symmetry_group_IT_number 15
_symmetry_cell_setting 'monoclinic'
loop_
_space_group_symop_operation_xyz
x,y,z
-x,y,1/2-z
-x,-y,-z
x,-y,1/2+z
1/2+x,1/2+y,z
1/2-x,1/2+y,1/2-z
1/2-x,1/2-y,-z
1/2+x,1/2-y,1/2+z
loop_
_atom_site_type_symbol
_atom_site_label
_atom_site_fract_x
_atom_site_fract_y
_atom_site_fract_z
Si Si1 0.310007 0.142495 0.092147
Si Si2 0.190913 0.678841 0.737555
Si Si3 0.560521 0.923869 0.462967
Si Si4 0.487086 0.380446 0.087380
Si Si5 0.787402 0.788781 0.617258
Si Si6 0.000000 0.101215 0.250000
Si Si7 0.500000 0.005983 0.250000
O O1 0.334725 0.180937 0.223169
O O2 0.145988 0.133252 0.177278
O O3 0.352938 0.167747 0.909017
O O4 0.395601 0.085832 0.061712
O O5 0.121427 0.636005 0.893080
O O6 0.350129 0.658542 0.657868
O O7 0.159164 0.742550 0.794455
O O8 0.596728 0.954844 0.594998
O O9 0.585481 0.965200 0.310873
O O10 0.500000 0.405538 0.250000
O O11 0.611008 0.336415 0.997568
O O12 0.489285 0.419353 0.933787
O O13 0.750000 0.750000 0.500000
#
# Coordination Sequence:
#
# PCOD9272365 Si02
#       7
#     8   8   8   8   8   4   4
#     4  10  21  41  60  88 124 168 205 257 320 390
#     4  11  22  38  60  89 124 170 209 251 322 386
#     4  11  23  42  69  96 122 163 214 277 334 377
#     4  10  20  37  53  81 125 167 204 252 292 371
#     4  11  23  35  56  89 129 171 209 246 304 386
#     4   8  20  36  59  82 114 164 203 234 312 374
#     4  10  24  44  65  98 120 156 221 288 328 376
#
# _framework density 23.244961
#
# number of rings (size 3 to 8) (size 9 to 14) (size 15 to 20)
#    0.000    1.667    3.333    0.500    4.667    0.000 
#    9.000    0.000    0.000    1.000    8.667    0.000 
#    0.000    0.000    0.000    0.000    0.000    0.000 
#
# Total GULP energy -133730.015124 kJ/mol
# GULP energy per Si atom -5572.083964 kJ/mol
# Density = 2.319205 g / cm^3
# Si number density = 23.244961 Si / 1000 Ang^3
#
#
#
# Elastic Constant Matrix: (Units=GPa)
#
#
# Indices 1 2 3 4 5 6 
#
# 1 40.6844 -0.6984 27.2301 0.0000 6.9688 0.0000
# 2 -0.6984 50.5726 29.3759 0.0000 -3.4054 0.0000
# 3 27.2301 29.3759 148.6223 0.0000 28.5184 0.0000
# 4 0.0000 0.0000 0.0000 31.6782 0.0000 5.3722
# 5 6.9688 -3.4054 28.5184 0.0000 38.8836 0.0000
# 6 0.0000 0.0000 0.0000 5.3722 0.0000 -2.2050
#
#
#
# Elastic Compliance Matrix: (Units=1/GPa)
#
#
# Indices 1 2 3 4 5 6 
#
# 1 0.028685 0.003802 -0.005917 0.000000 -0.000468 0.000000
# 2 0.003802 0.024134 -0.006682 0.000000 0.006333 0.000000
# 3 -0.005917 -0.006682 0.010523 0.000000 -0.007243 0.000000
# 4 0.000000 0.000000 0.000000 0.022338 0.000000 0.054424
# 5 -0.000468 0.006333 -0.007243 0.000000 0.031668 0.000000
# 6 0.000000 0.000000 0.000000 0.054424 0.000000 -0.320916
#
#
# Mechanical properties :
#
#
# Convention : Reuss Voigt Hill
#
# Bulk Modulus (GPa) = 21.85921 39.07715 30.46818
# Shear Modulus (GPa) = -29.28707 25.93613 -1.67547
#
# Velocity S-wave (km/s) = -3.55340 3.34394 -0.84991
# Velocity P-wave (km/s) = 2.72237 5.63532 3.48895
#
# Compressibility (1/GPa) = 0.04574731
#
# Stress axis : x y z
#
# Youngs Moduli (GPa) = 34.86107 41.43570 95.02937
#
# Poissons Ratio (x) = -0.15753 0.56231
# Poissons Ratio (y) = -0.13253 0.63498
# Poissons Ratio (z) = 0.20628 0.27687
#
# Static dielectric constant tensor:
#      x y z
#    x 1.964780 0.000000 0.046360 
#    y 0.000000 1.840190 0.000000 
#    z 0.046360 0.000000 1.983210 
# 
# From -- ./inp_files/32580.got.cif
#   From: 2010.05.17/outbox.cif.g08.bks.cpg/sg15_17_cif.got.tgz:32580.got - 2010.06.03 18:47:42.
