data_PCOD9272772
_publ_section_title
;
Structure prediction by ZEFSAII (Michael W. Deem and Ramdas Pophale) SiO2 
 PCOD9272772
Probable space group: C 2/C
;
_chemical_formula_sum "Si O2"
_cell_formula_units_Z 56
_cell_length_a 19.394844
_cell_length_b 27.724720
_cell_length_c 5.562486
_cell_angle_alpha 90.000000
_cell_angle_beta 117.773128
_cell_angle_gamma 90.000000
_cell_volume 2646.472075
_symmetry_space_group_name_H-M "C 2/C"
_symmetry_group_IT_number 15
_symmetry_cell_setting 'monoclinic'
loop_
_space_group_symop_operation_xyz
x,y,z
-x,y,1/2-z
-x,-y,-z
x,-y,1/2+z
1/2+x,1/2+y,z
1/2-x,1/2+y,1/2-z
1/2-x,1/2-y,-z
1/2+x,1/2-y,1/2+z
loop_
_atom_site_type_symbol
_atom_site_label
_atom_site_fract_x
_atom_site_fract_y
_atom_site_fract_z
Si Si1 0.324806 0.189251 0.212590
Si Si2 0.572842 0.633920 0.752587
Si Si3 0.660276 0.029581 0.381040
Si Si4 0.692227 0.324589 0.830709
Si Si5 0.543578 0.889253 0.576557
Si Si6 0.574997 0.271435 0.998041
Si Si7 0.274234 0.612693 0.727861
O O1 0.265276 0.201648 0.329829
O O2 0.387962 0.148394 0.374771
O O3 0.377567 0.236041 0.246869
O O4 0.267206 0.162400 0.933814
O O5 0.500000 0.606980 0.750000
O O6 0.540135 0.680948 0.564136
O O7 0.634340 0.607299 0.683165
O O8 0.630356 0.656350 0.040465
O O9 0.581873 0.061081 0.231245
O O10 0.727821 0.069013 0.538625
O O11 0.664566 0.997374 0.630612
O O12 0.640888 0.292464 0.926775
O O13 0.727636 0.374759 0.995420
O O14 0.500000 0.870601 0.750000
O O15 0.500000 0.896420 0.250000
O O16 0.500000 0.246692 0.750000
#
# Coordination Sequence:
#
# PCOD9272772 Si02
#       7
#     8   8   8   8   8   8   8
#     4  10  23  37  59  86 126 173 214 261 308 364
#     4  10  20  37  60  87 121 160 207 260 313 372
#     4  11  25  43  71  97 128 162 208 261 318 384
#     4  10  21  38  61  81 122 162 218 259 311 371
#     4  11  25  43  65  95 133 171 214 256 317 376
#     4  11  21  36  54  90 123 168 217 264 309 357
#     4   9  23  39  62  90 119 160 210 252 321 382
#
# _framework density 21.160245
#
# number of rings (size 3 to 8) (size 9 to 14) (size 15 to 20)
#    0.000    1.714    1.429    1.714   10.000    8.571 
#    0.000    0.000    0.000    0.857    0.000    0.000 
#    0.000    0.000    0.000    0.000    0.000    0.000 
#
# Total GULP energy -155893.933226 kJ/mol
# GULP energy per Si atom -5567.640472 kJ/mol
# Density = 2.111208 g / cm^3
# Si number density = 21.160245 Si / 1000 Ang^3
#
#
#
# Elastic Constant Matrix: (Units=GPa)
#
#
# Indices 1 2 3 4 5 6 
#
# 1 94.7766 8.4943 25.2340 0.0000 19.2721 0.0000
# 2 8.4943 35.6910 19.5820 0.0000 2.9049 0.0000
# 3 25.2340 19.5820 97.5768 0.0000 6.8470 0.0000
# 4 0.0000 0.0000 0.0000 -2.1334 0.0000 -18.7156
# 5 19.2721 2.9049 6.8470 0.0000 25.6858 0.0000
# 6 0.0000 0.0000 0.0000 -18.7156 0.0000 -0.5148
#
#
#
# Elastic Compliance Matrix: (Units=1/GPa)
#
#
# Indices 1 2 3 4 5 6 
#
# 1 0.013171 -0.000985 -0.002571 0.000000 -0.009086 0.000000
# 2 -0.000985 0.031651 -0.006010 0.000000 -0.001239 0.000000
# 3 -0.002571 -0.006010 0.012164 0.000000 -0.000634 0.000000
# 4 0.000000 0.000000 0.000000 0.001474 0.000000 -0.053599
# 5 -0.009086 -0.001239 -0.000634 0.000000 0.046058 0.000000
# 6 0.000000 0.000000 0.000000 -0.053599 0.000000 0.006110
#
#
# Mechanical properties :
#
#
# Convention : Reuss Voigt Hill
#
# Bulk Modulus (GPa) = 26.41707 37.18502 31.80104
# Shear Modulus (GPa) = 35.11758 16.25644 25.68701
#
# Velocity S-wave (km/s) = 4.07824 2.77475 3.48793
# Velocity P-wave (km/s) = 5.88961 5.27985 5.59304
#
# Compressibility (1/GPa) = 0.03785431
#
# Stress axis : x y z
#
# Youngs Moduli (GPa) = 75.92168 31.59459 82.21066
#
# Poissons Ratio (x) = 0.03111 0.21137
# Poissons Ratio (y) = 0.07476 0.49411
# Poissons Ratio (z) = 0.19520 0.18989
#
# Static dielectric constant tensor:
#      x y z
#    x 1.793230 0.000000 -0.055220 
#    y 0.000000 1.777670 0.000000 
#    z -0.055220 0.000000 1.821420 
# 
# From -- ./inp_files/11490.got.cif
#   From: 2010.05.17/outbox.cif.g08.bks.cpg/sg15_6_cif.got.tgz:11490.got - 2010.06.03 18:47:42.
