data_PCOD9272141
_publ_section_title
;
Structure prediction by ZEFSAII (Michael W. Deem and Ramdas Pophale) SiO2 
 PCOD9272141
Probable space group: C 2/C
;
_chemical_formula_sum "Si O2"
_cell_formula_units_Z 56
_cell_length_a 18.839670
_cell_length_b 8.191276
_cell_length_c 20.590974
_cell_angle_alpha 90.000000
_cell_angle_beta 46.786622
_cell_angle_gamma 90.000000
_cell_volume 2315.876163
_symmetry_space_group_name_H-M "C 2/C"
_symmetry_group_IT_number 15
_symmetry_cell_setting 'monoclinic'
loop_
_space_group_symop_operation_xyz
x,y,z
-x,y,1/2-z
-x,-y,-z
x,-y,1/2+z
1/2+x,1/2+y,z
1/2-x,1/2+y,1/2-z
1/2-x,1/2-y,-z
1/2+x,1/2-y,1/2+z
loop_
_atom_site_type_symbol
_atom_site_label
_atom_site_fract_x
_atom_site_fract_y
_atom_site_fract_z
Si Si1 0.000000 0.860839 0.750000
Si Si2 0.149578 0.010937 0.754403
Si Si3 0.148218 0.354861 0.922806
Si Si4 0.000000 0.683873 0.250000
Si Si5 0.199349 0.985411 0.858797
Si Si6 0.851947 0.344978 0.429311
Si Si7 0.398192 0.110693 0.187145
Si Si8 0.207248 0.318134 0.591407
O O1 0.061062 0.958924 0.765120
O O2 0.073061 0.757569 0.659742
O O3 0.248842 0.946894 0.657837
O O4 0.141369 0.930808 0.831287
O O5 0.144183 0.203576 0.776365
O O6 0.162989 0.157527 0.909335
O O7 0.081577 0.400860 0.902038
O O8 0.117627 0.389664 0.015865
O O9 0.023645 0.594932 0.304079
O O10 0.104566 0.768392 0.170833
O O11 0.309458 0.007907 0.761979
O O12 0.211714 0.843240 0.904247
O O13 0.750000 0.250000 0.500000
O O14 0.826455 0.499820 0.402085
O O15 0.250000 0.250000 0.500000
#
# Coordination Sequence:
#
# PCOD9272141 Si02
#       8
#     4   8   8   4   8   8   8   8
#     4  12  24  40  66 100 128 168 216 270 330 376
#     4  10  20  36  64  92 124 166 215 259 312 378
#     4  10  20  40  63  94 126 166 217 262 316 380
#     4  10  22  42  62  92 134 164 204 260 326 370
#     4   9  19  38  59  90 127 169 203 264 320 370
#     4  12  24  42  68  93 128 165 218 267 319 384
#     4   9  20  37  65  94 128 170 211 260 317 379
#     4  11  24  41  67  92 124 166 212 262 322 384
#
# _framework density 24.180913
#
# number of rings (size 3 to 8) (size 9 to 14) (size 15 to 20)
#    0.000    1.714    2.857    0.857    4.000    2.286 
#    2.571    2.143    0.000    0.000    0.000    0.000 
#    0.000    0.000    0.000    0.000    0.000    0.000 
#
# Total GULP energy -156337.120632 kJ/mol
# GULP energy per Si atom -5583.468594 kJ/mol
# Density = 2.412588 g / cm^3
# Si number density = 24.180913 Si / 1000 Ang^3
#
#
#
# Elastic Constant Matrix: (Units=GPa)
#
#
# Indices 1 2 3 4 5 6 
#
# 1 169.5673 22.7750 47.4381 0.0000 47.3318 0.0000
# 2 22.7750 63.3667 27.4177 0.0000 -2.7954 -0.0001
# 3 47.4381 27.4177 136.9541 0.0000 30.2676 0.0000
# 4 0.0000 0.0000 0.0000 40.1749 0.0000 7.3881
# 5 47.3318 -2.7954 30.2676 0.0000 56.0547 0.0000
# 6 0.0000 -0.0001 0.0000 7.3881 0.0000 22.8683
#
#
#
# Elastic Compliance Matrix: (Units=1/GPa)
#
#
# Indices 1 2 3 4 5 6 
#
# 1 0.008431 -0.002979 -0.000815 0.000000 -0.006828 0.000000
# 2 -0.002979 0.018818 -0.003973 0.000000 0.005599 0.000000
# 3 -0.000815 -0.003973 0.009392 0.000000 -0.004581 0.000000
# 4 0.000000 0.000000 0.000000 0.026463 0.000000 -0.008550
# 5 -0.006828 0.005599 -0.004581 0.000000 0.026358 0.000000
# 6 0.000000 0.000000 0.000000 -0.008550 0.000000 0.046491
#
#
# Mechanical properties :
#
#
# Convention : Reuss Voigt Hill
#
# Bulk Modulus (GPa) = 47.37689 62.79443 55.08566
# Shear Modulus (GPa) = 31.54132 41.97008 36.75570
#
# Velocity S-wave (km/s) = 3.61555 4.17066 3.90299
# Velocity P-wave (km/s) = 6.08809 7.01552 6.56819
#
# Compressibility (1/GPa) = 0.02110734
#
# Stress axis : x y z
#
# Youngs Moduli (GPa) = 118.60521 53.14127 106.47526
#
# Poissons Ratio (x) = 0.15830 0.08679
# Poissons Ratio (y) = 0.35331 0.42301
# Poissons Ratio (z) = 0.09668 0.21112
#
# Static dielectric constant tensor:
#      x y z
#    x 2.015100 0.000000 0.055670 
#    y 0.000000 1.513900 0.000000 
#    z 0.055670 0.000000 1.894470 
# 
# From -- ./inp_files/251854.got.cif
#   From: 2010.05.17/outbox.cif.g08.bks.cpg/sg15_126_cif.got.tgz:251854.got - 2010.06.03 18:47:42.
