data_PCOD9272699
_publ_section_title
;
Structure prediction by ZEFSAII (Michael W. Deem and Ramdas Pophale) SiO2 
 PCOD9272699
Probable space group: C 2/C
;
_chemical_formula_sum "Si O2"
_cell_formula_units_Z 60
_cell_length_a 8.246285
_cell_length_b 27.352204
_cell_length_c 18.488060
_cell_angle_alpha 90.000000
_cell_angle_beta 137.184701
_cell_angle_gamma 90.000000
_cell_volume 2834.125976
_symmetry_space_group_name_H-M "C 2/C"
_symmetry_group_IT_number 15
_symmetry_cell_setting 'monoclinic'
loop_
_space_group_symop_operation_xyz
x,y,z
-x,y,1/2-z
-x,-y,-z
x,-y,1/2+z
1/2+x,1/2+y,z
1/2-x,1/2+y,1/2-z
1/2-x,1/2-y,-z
1/2+x,1/2-y,1/2+z
loop_
_atom_site_type_symbol
_atom_site_label
_atom_site_fract_x
_atom_site_fract_y
_atom_site_fract_z
Si Si1 0.255808 0.056900 0.823696
Si Si2 0.637872 0.551546 0.622853
Si Si3 0.242392 0.596378 0.178774
Si Si4 0.366903 0.016402 0.077913
Si Si5 0.124847 0.744365 0.036615
Si Si6 0.535064 0.146077 0.545917
Si Si7 0.785050 0.654765 0.620424
Si Si8 0.000000 0.815870 0.750000
O O1 0.269609 0.060855 0.741401
O O2 0.257060 0.108262 0.866100
O O3 0.000000 0.033320 0.750000
O O4 0.483062 0.024127 0.916923
O O5 0.362720 0.535750 0.540053
O O6 0.762986 0.509701 0.615549
O O7 0.651505 0.603855 0.588909
O O8 0.500000 0.571376 0.250000
O O9 0.340631 0.646846 0.246952
O O10 0.053778 0.560350 0.153134
O O11 0.120498 0.617898 0.065853
O O12 0.104970 0.798892 0.061619
O O13 0.323335 0.717657 0.149086
O O14 0.250000 0.750000 0.000000
O O15 0.920870 0.702385 0.963824
O O16 0.398073 0.150692 0.577450
O O17 0.000000 0.661059 0.750000
#
# Coordination Sequence:
#
# PCOD9272699 Si02
#       8
#     8   8   8   8   8   8   8   4
#     4  12  24  40  64  91 128 166 213 258 310 379
#     4  11  24  42  60  92 129 165 210 257 317 375
#     4   9  20  37  60  90 126 159 209 261 309 368
#     4  11  23  42  60  89 126 168 207 257 313 372
#     4   9  18  31  59  93 117 159 210 255 314 371
#     4  10  20  37  59  95 126 157 214 261 309 382
#     4  11  18  37  65  89 129 167 209 261 317 373
#     4   8  16  34  54  92 118 154 206 260 306 376
#
# _framework density 21.170548
#
# number of rings (size 3 to 8) (size 9 to 14) (size 15 to 20)
#    0.400    1.333    3.333    1.600    0.000    3.200 
#    2.400    0.000    0.000   10.400    0.000    0.000 
#    0.000    0.000    0.000    0.000    0.000    0.000 
#
# Total GULP energy -167053.181732 kJ/mol
# GULP energy per Si atom -5568.439391 kJ/mol
# Density = 2.112236 g / cm^3
# Si number density = 21.170548 Si / 1000 Ang^3
#
#
#
# Elastic Constant Matrix: (Units=GPa)
#
#
# Indices 1 2 3 4 5 6 
#
# 1 44.2025 30.2356 12.9943 0.0000 9.8822 0.0000
# 2 30.2356 145.8187 32.6176 0.0000 3.9531 0.0000
# 3 12.9943 32.6176 61.8206 -0.0001 12.0718 0.0000
# 4 0.0000 0.0000 -0.0001 26.1951 0.0000 -2.0503
# 5 9.8822 3.9531 12.0718 0.0000 32.9871 0.0000
# 6 0.0000 0.0000 0.0000 -2.0503 0.0000 10.2727
#
#
#
# Elastic Compliance Matrix: (Units=1/GPa)
#
#
# Indices 1 2 3 4 5 6 
#
# 1 0.028377 -0.005294 -0.001761 0.000000 -0.007222 0.000000
# 2 -0.005294 0.008775 -0.003900 0.000000 0.001962 0.000000
# 3 -0.001761 -0.003900 0.019826 0.000000 -0.006261 0.000000
# 4 0.000000 0.000000 0.000000 0.038781 0.000000 0.007740
# 5 -0.007222 0.001962 -0.006261 0.000000 0.034535 0.000000
# 6 0.000000 0.000000 0.000000 0.007740 0.000000 0.098890
#
#
# Mechanical properties :
#
#
# Convention : Reuss Voigt Hill
#
# Bulk Modulus (GPa) = 28.51655 44.83743 36.67699
# Shear Modulus (GPa) = 19.02710 25.62393 22.32551
#
# Velocity S-wave (km/s) = 3.00117 3.48279 3.25091
# Velocity P-wave (km/s) = 5.05060 6.11541 5.60833
#
# Compressibility (1/GPa) = 0.03506735
#
# Stress axis : x y z
#
# Youngs Moduli (GPa) = 35.23995 113.96290 50.43831
#
# Poissons Ratio (x) = 0.60335 0.08882
# Poissons Ratio (y) = 0.18657 0.19671
# Poissons Ratio (z) = 0.06206 0.44445
#
# Static dielectric constant tensor:
#      x y z
#    x 1.782250 0.000000 0.004900 
#    y 0.000000 1.847650 0.000000 
#    z 0.004900 0.000000 1.791100 
# 
# From -- ./inp_files/234784.got.cif
#   From: 2010.05.17/outbox.cif.g08.bks.cpg/sg15_118_cif.got.tgz:234784.got - 2010.06.03 18:47:42.
