data_PCOD9272138
_publ_section_title
;
Structure prediction by ZEFSAII (Michael W. Deem and Ramdas Pophale) SiO2 
 PCOD9272138
Probable space group: C 2/C
;
_chemical_formula_sum "Si O2"
_cell_formula_units_Z 44
_cell_length_a 7.322110
_cell_length_b 11.851450
_cell_length_c 21.914556
_cell_angle_alpha 90.000000
_cell_angle_beta 117.269613
_cell_angle_gamma 90.000000
_cell_volume 1690.339536
_symmetry_space_group_name_H-M "C 2/C"
_symmetry_group_IT_number 15
_symmetry_cell_setting 'monoclinic'
loop_
_space_group_symop_operation_xyz
x,y,z
-x,y,1/2-z
-x,-y,-z
x,-y,1/2+z
1/2+x,1/2+y,z
1/2-x,1/2+y,1/2-z
1/2-x,1/2-y,-z
1/2+x,1/2-y,1/2+z
loop_
_atom_site_type_symbol
_atom_site_label
_atom_site_fract_x
_atom_site_fract_y
_atom_site_fract_z
Si Si1 0.612350 0.347340 0.952201
Si Si2 0.500000 0.780061 0.750000
Si Si3 0.656900 0.097849 0.717749
Si Si4 0.647159 0.995396 0.921364
Si Si5 0.645296 0.227554 0.395101
Si Si6 0.965665 0.018741 0.856651
O O1 0.388014 0.291542 0.929208
O O2 0.599291 0.405022 0.883392
O O3 0.750000 0.250000 0.000000
O O4 0.717404 0.450653 0.004804
O O5 0.293453 0.706779 0.724465
O O6 0.463598 0.835262 0.679842
O O7 0.500000 0.117658 0.750000
O O8 0.545844 0.059468 0.638708
O O9 0.828602 0.017160 0.774750
O O10 0.811986 0.006477 0.890587
O O11 0.589460 0.868608 0.935879
O O12 0.567382 0.356154 0.381078
#
# Coordination Sequence:
#
# PCOD9272138 Si02
#       6
#     8   4   8   8   8   8
#     4  11  23  37  57  89 122 164 209 263 316 382
#     4  10  20  36  64  92 120 164 220 250 316 380
#     4   9  19  38  62  86 124 163 205 263 307 373
#     4  10  21  37  60  88 121 164 210 257 324 377
#     4  10  21  36  62  88 118 168 206 262 320 377
#     4   9  20  38  59  86 117 161 212 253 317 381
#
# _framework density 26.030273000000001
#
# number of rings (size 3 to 8) (size 9 to 14) (size 15 to 20)
#    0.000    2.182    0.000    3.273    6.364    3.636 
#    0.000    3.636    8.000    2.182    0.000    0.000 
#    0.000    0.000    0.000    0.000    0.000    0.000 
#
# Total GULP energy -122490.327990 kJ/mol
# GULP energy per Si atom -5567.742181 kJ/mol
# Density = 2.597103 g / cm^3
# Si number density = 26.030273 Si / 1000 Ang^3
#
#
#
# Elastic Constant Matrix: (Units=GPa)
#
#
# Indices 1 2 3 4 5 6 
#
# 1 72.4873 38.6262 20.7423 0.0000 24.4717 0.0000
# 2 38.6262 129.7341 37.4054 0.0000 36.6238 0.0000
# 3 20.7423 37.4054 144.6379 0.0000 49.0124 0.0000
# 4 0.0000 0.0000 0.0000 43.2836 0.0000 1.8102
# 5 24.4717 36.6238 49.0124 0.0000 48.0608 0.0000
# 6 0.0000 0.0000 0.0000 1.8102 0.0000 17.7304
#
#
#
# Elastic Compliance Matrix: (Units=1/GPa)
#
#
# Indices 1 2 3 4 5 6 
#
# 1 0.017883 -0.003509 0.000798 0.000000 -0.007246 0.000000
# 2 -0.003509 0.010509 -0.000162 0.000000 -0.006056 0.000000
# 3 0.000798 -0.000162 0.010600 0.000000 -0.011093 0.000000
# 4 0.000000 0.000000 0.000000 0.023203 0.000000 -0.002369
# 5 -0.007246 -0.006056 -0.011093 0.000000 0.040424 0.000000
# 6 0.000000 0.000000 0.000000 -0.002369 0.000000 0.056642
#
#
# Mechanical properties :
#
#
# Convention : Reuss Voigt Hill
#
# Bulk Modulus (GPa) = 30.07873 60.04524 45.06199
# Shear Modulus (GPa) = 28.39461 38.48732 33.44096
#
# Velocity S-wave (km/s) = 3.30635 3.84938 3.58815
# Velocity P-wave (km/s) = 5.11433 6.54786 5.87498
#
# Compressibility (1/GPa) = 0.03324608
#
# Stress axis : x y z
#
# Youngs Moduli (GPa) = 55.91842 95.15405 94.33685
#
# Poissons Ratio (x) = 0.33390 -0.07530
# Poissons Ratio (y) = 0.19622 0.01533
# Poissons Ratio (z) = -0.04464 0.01546
#
# Static dielectric constant tensor:
#      x y z
#    x 2.129170 0.000000 0.052780 
#    y 0.000000 2.207400 0.000000 
#    z 0.052780 0.000000 2.082540 
# 
# From -- ./inp_files/263435.got.cif
#   From: 2010.05.17/outbox.cif.g08.bks.cpg/sg15_132_cif.got.tgz:263435.got - 2010.06.03 18:47:42.
