data_PCOD9272607
_publ_section_title
;
Structure prediction by ZEFSAII (Michael W. Deem and Ramdas Pophale) SiO2 
 PCOD9272607
Probable space group: C 2/C
;
_chemical_formula_sum "Si O2"
_cell_formula_units_Z 48
_cell_length_a 13.402460
_cell_length_b 12.240430
_cell_length_c 16.393576
_cell_angle_alpha 90.000000
_cell_angle_beta 108.524708
_cell_angle_gamma 90.000000
_cell_volume 2550.050420
_symmetry_space_group_name_H-M "C 2/C"
_symmetry_group_IT_number 15
_symmetry_cell_setting 'monoclinic'
loop_
_space_group_symop_operation_xyz
x,y,z
-x,y,1/2-z
-x,-y,-z
x,-y,1/2+z
1/2+x,1/2+y,z
1/2-x,1/2+y,1/2-z
1/2-x,1/2-y,-z
1/2+x,1/2-y,1/2+z
loop_
_atom_site_type_symbol
_atom_site_label
_atom_site_fract_x
_atom_site_fract_y
_atom_site_fract_z
Si Si1 0.080358 0.090406 0.553138
Si Si2 0.781246 0.378381 0.005062
Si Si3 0.886948 0.828080 0.261278
Si Si4 0.999611 0.335075 0.003144
Si Si5 0.296038 0.944417 0.372042
Si Si6 0.576666 0.092410 0.193481
O O1 0.197000 0.073075 0.546018
O O2 0.097972 0.099410 0.654332
O O3 0.028260 0.207181 0.513653
O O4 0.000000 0.000000 0.500000
O O5 0.765771 0.450088 0.918952
O O6 0.908815 0.379442 0.041681
O O7 0.750000 0.250000 0.000000
O O8 0.805336 0.876456 0.176952
O O9 0.857658 0.704143 0.277409
O O10 0.000000 0.818793 0.250000
O O11 0.982009 0.386636 0.908451
O O12 0.114523 0.370704 0.061849
O O13 0.348110 0.990943 0.303136
O O14 0.500000 0.076683 0.250000
#
# Coordination Sequence:
#
# PCOD9272607 Si02
#       6
#     8   8   8   8   8   8
#     4  10  20  37  59  81 109 149 187 222 271 335
#     4   9  18  35  57  80 110 145 180 227 280 325
#     4  10  22  38  53  79 116 144 175 229 285 323
#     4   9  20  37  57  81 110 144 184 227 277 325
#     4  11  21  36  59  82 109 147 187 230 275 332
#     4   9  19  37  56  79 111 143 178 227 277 324
#
# _framework density 18.823156999999998
#
# number of rings (size 3 to 8) (size 9 to 14) (size 15 to 20)
#    0.000    2.333    0.000    4.000    0.000    4.000 
#    0.000   13.333    0.000    1.000    0.000    0.000 
#    0.000    0.000    0.000    0.000    0.000    0.000 
#
# Total GULP energy -133655.746183 kJ/mol
# GULP energy per Si atom -5568.989424 kJ/mol
# Density = 1.878031 g / cm^3
# Si number density = 18.823157 Si / 1000 Ang^3
#
#
#
# Elastic Constant Matrix: (Units=GPa)
#
#
# Indices 1 2 3 4 5 6 
#
# 1 84.4757 21.9469 37.8620 0.0000 0.3990 0.0000
# 2 21.9469 63.6674 19.3551 0.0000 19.2601 0.0000
# 3 37.8620 19.3551 48.4919 0.0000 9.8588 0.0000
# 4 0.0000 0.0000 0.0000 27.4824 0.0000 2.4968
# 5 0.3990 19.2601 9.8588 0.0000 41.0440 0.0000
# 6 0.0000 0.0000 0.0000 2.4968 0.0000 13.2895
#
#
#
# Elastic Compliance Matrix: (Units=1/GPa)
#
#
# Indices 1 2 3 4 5 6 
#
# 1 0.019356 -0.003760 -0.014648 0.000000 0.005095 0.000000
# 2 -0.003760 0.020760 -0.003550 0.000000 -0.008852 0.000000
# 3 -0.014648 -0.003550 0.034808 0.000000 -0.006552 0.000000
# 4 0.000000 0.000000 0.000000 0.037019 0.000000 -0.006955
# 5 0.005095 -0.008852 -0.006552 0.000000 0.030043 0.000000
# 6 0.000000 0.000000 0.000000 -0.006955 0.000000 0.076554
#
#
# Mechanical properties :
#
#
# Convention : Reuss Voigt Hill
#
# Bulk Modulus (GPa) = 32.25072 39.44034 35.84553
# Shear Modulus (GPa) = 18.32899 24.19457 21.26178
#
# Velocity S-wave (km/s) = 3.12388 3.58908 3.36453
# Velocity P-wave (km/s) = 5.49383 6.17851 5.84620
#
# Compressibility (1/GPa) = 0.03100706
#
# Stress axis : x y z
#
# Youngs Moduli (GPa) = 51.66437 48.16916 28.72905
#
# Poissons Ratio (x) = 0.18114 0.42081
# Poissons Ratio (y) = 0.19428 0.10200
# Poissons Ratio (z) = 0.75676 0.17102
#
# Static dielectric constant tensor:
#      x y z
#    x 1.676500 0.000000 -0.023080 
#    y 0.000000 1.688850 0.000000 
#    z -0.023080 0.000000 1.643750 
# 
# From -- ./inp_files/196580.got.cif
#   From: 2010.05.17/outbox.cif.g08.bks.cpg/sg15_99_cif.got.tgz:196580.got - 2010.06.03 18:47:42.
