data_PCOD9272547
_publ_section_title
;
Structure prediction by ZEFSAII (Michael W. Deem and Ramdas Pophale) SiO2 
 PCOD9272547
Probable space group: C 2/C
;
_chemical_formula_sum "Si O2"
_cell_formula_units_Z 40
_cell_length_a 9.359325
_cell_length_b 14.176889
_cell_length_c 16.592346
_cell_angle_alpha 90.000000
_cell_angle_beta 119.856393
_cell_angle_gamma 90.000000
_cell_volume 1909.371940
_symmetry_space_group_name_H-M "C 2/C"
_symmetry_group_IT_number 15
_symmetry_cell_setting 'monoclinic'
loop_
_space_group_symop_operation_xyz
x,y,z
-x,y,1/2-z
-x,-y,-z
x,-y,1/2+z
1/2+x,1/2+y,z
1/2-x,1/2+y,1/2-z
1/2-x,1/2-y,-z
1/2+x,1/2-y,1/2+z
loop_
_atom_site_type_symbol
_atom_site_label
_atom_site_fract_x
_atom_site_fract_y
_atom_site_fract_z
Si Si1 0.124404 0.602995 0.853916
Si Si2 0.446215 0.949964 0.901559
Si Si3 0.988112 0.705815 0.962941
Si Si4 0.005612 0.901972 0.045620
Si Si5 0.826450 0.911155 0.158803
O O1 0.307094 0.605721 0.870444
O O2 0.000000 0.635164 0.750000
O O3 0.061092 0.499078 0.866370
O O4 0.116106 0.669094 0.931233
O O5 0.261679 0.991109 0.837753
O O6 0.469874 0.842873 0.937671
O O7 0.500000 0.000000 0.000000
O O8 0.817169 0.666701 0.877193
O O9 0.976742 0.815373 0.977541
O O10 0.872023 0.909032 0.077708
O O11 0.000000 0.000000 0.000000
O O12 0.000000 0.893941 0.250000
#
# Coordination Sequence:
#
# PCOD9272547 Si02
#       5
#     8   8   8   8   8
#     4  10  20  37  58  84 113 142 182 237 283 329
#     4   8  17  37  57  75 109 151 175 212 283 339
#     4  10  21  39  57  79 115 156 184 221 282 341
#     4  12  22  36  58  84 109 149 199 233 265 330
#     4  10  20  37  58  84 113 142 182 237 283 329
#
# _framework density 20.949297000000001
#
# number of rings (size 3 to 8) (size 9 to 14) (size 15 to 20)
#    0.000    2.400    0.000    7.200    0.000    0.000 
#    0.000   12.000    0.000    0.000    0.000    0.000 
#    0.000    0.000    0.000    0.000    0.000    0.000 
#
# Total GULP energy -111452.785004 kJ/mol
# GULP energy per Si atom -5572.639250 kJ/mol
# Density = 2.090162 g / cm^3
# Si number density = 20.949297 Si / 1000 Ang^3
#
#
#
# Elastic Constant Matrix: (Units=GPa)
#
#
# Indices 1 2 3 4 5 6 
#
# 1 78.2645 -2.0645 -3.1147 0.0000 13.1144 0.0000
# 2 -2.0645 122.9979 18.6706 0.0000 1.9145 0.0000
# 3 -3.1147 18.6706 59.3194 0.0000 22.0553 0.0000
# 4 0.0000 0.0000 0.0000 10.2317 0.0000 -1.0121
# 5 13.1144 1.9145 22.0553 0.0000 47.2108 0.0000
# 6 0.0000 0.0000 0.0000 -1.0121 0.0000 0.9985
#
#
#
# Elastic Compliance Matrix: (Units=1/GPa)
#
#
# Indices 1 2 3 4 5 6 
#
# 1 0.013722 -0.000089 0.002619 0.000000 -0.005032 0.000000
# 2 -0.000089 0.008586 -0.003131 0.000000 0.001139 0.000000
# 3 0.002619 -0.003131 0.022031 0.000000 -0.010893 0.000000
# 4 0.000000 0.000000 0.000000 0.108627 0.000000 0.110102
# 5 -0.005032 0.001139 -0.010893 0.000000 0.027622 0.000000
# 6 0.000000 0.000000 0.000000 0.110102 0.000000 1.113070
#
#
# Mechanical properties :
#
#
# Convention : Reuss Voigt Hill
#
# Bulk Modulus (GPa) = 23.18097 31.95162 27.56629
# Shear Modulus (GPa) = 3.81902 28.16088 15.98995
#
# Velocity S-wave (km/s) = 1.35164 3.67037 2.76573
# Velocity P-wave (km/s) = 3.67766 5.76603 4.83592
#
# Compressibility (1/GPa) = 0.04313884
#
# Stress axis : x y z
#
# Youngs Moduli (GPa) = 72.87432 116.46564 45.39100
#
# Poissons Ratio (x) = 0.01036 -0.11890
# Poissons Ratio (y) = 0.00648 0.14210
# Poissons Ratio (z) = -0.19089 0.36462
#
# Static dielectric constant tensor:
#      x y z
#    x 1.592110 0.000000 -0.072320 
#    y 0.000000 1.840020 0.000000 
#    z -0.072320 0.000000 1.754780 
# 
# From -- ./inp_files/188434.got.cif
#   From: 2010.05.17/outbox.cif.g08.bks.cpg/sg15_95_cif.got.tgz:188434.got - 2010.06.03 18:47:42.
