data_PCOD9272880
_publ_section_title
;
Structure prediction by ZEFSAII (Michael W. Deem and Ramdas Pophale) SiO2 
 PCOD9272880
Probable space group: C 2/C
;
_chemical_formula_sum "Si O2"
_cell_formula_units_Z 36
_cell_length_a 15.731691
_cell_length_b 18.607578
_cell_length_c 10.160973
_cell_angle_alpha 90.000000
_cell_angle_beta 33.493033
_cell_angle_gamma 90.000000
_cell_volume 1641.384220
_symmetry_space_group_name_H-M "C 2/C"
_symmetry_group_IT_number 15
_symmetry_cell_setting 'monoclinic'
loop_
_space_group_symop_operation_xyz
x,y,z
-x,y,1/2-z
-x,-y,-z
x,-y,1/2+z
1/2+x,1/2+y,z
1/2-x,1/2+y,1/2-z
1/2-x,1/2-y,-z
1/2+x,1/2-y,1/2+z
loop_
_atom_site_type_symbol
_atom_site_label
_atom_site_fract_x
_atom_site_fract_y
_atom_site_fract_z
Si Si1 0.698147 0.342261 0.159529
Si Si2 0.190315 0.423759 0.252533
Si Si3 0.673544 0.093033 0.268209
Si Si4 0.000000 0.247759 0.750000
Si Si5 0.316638 0.176838 0.979879
O O1 0.738089 0.387932 0.978794
O O2 0.847108 0.291372 0.980903
O O3 0.692652 0.387585 0.297525
O O4 0.549498 0.297271 0.313637
O O5 0.201236 0.508912 0.257427
O O6 0.216960 0.390126 0.074716
O O7 0.011847 0.402198 0.514826
O O8 0.720265 0.146816 0.325863
O O9 0.500000 0.188172 0.750000
O O10 0.250000 0.250000 0.000000
#
# Coordination Sequence:
#
# PCOD9272880 Si02
#       5
#     8   8   8   4   8
#     4  11  21  38  60  84 112 150 193 236 281 343
#     4  10  20  37  61  86 113 150 194 236 281 338
#     4  10  20  37  61  86 113 150 194 236 281 338
#     4  10  24  34  58  86 116 142 194 238 288 326
#     4  10  23  36  57  87 118 146 186 237 289 334
#
# _framework density 21.932707000000001
#
# number of rings (size 3 to 8) (size 9 to 14) (size 15 to 20)
#    0.000    1.778    2.222    1.333    6.222    3.556 
#    0.000    1.111    4.889    0.000    0.000    0.000 
#    0.000    0.000    0.000    0.000    0.000    0.000 
#
# Total GULP energy -100544.137667 kJ/mol
# GULP energy per Si atom -5585.785426 kJ/mol
# Density = 2.188279 g / cm^3
# Si number density = 21.932707 Si / 1000 Ang^3
#
#
#
# Elastic Constant Matrix: (Units=GPa)
#
#
# Indices 1 2 3 4 5 6 
#
# 1 143.3454 68.4702 16.4651 0.0006 8.9296 -0.0005
# 2 68.4702 99.4802 1.8811 0.0005 -7.4171 -0.0002
# 3 16.4651 1.8811 25.4283 0.0013 3.5051 -0.0004
# 4 0.0006 0.0005 0.0013 22.1545 -0.0006 9.6662
# 5 8.9296 -7.4171 3.5051 -0.0006 26.2955 0.0002
# 6 -0.0005 -0.0002 -0.0004 9.6662 0.0002 32.9595
#
#
#
# Elastic Compliance Matrix: (Units=1/GPa)
#
#
# Indices 1 2 3 4 5 6 
#
# 1 0.012258 -0.008744 -0.006496 0.000000 -0.005763 0.000000
# 2 -0.008744 0.016540 0.003449 0.000000 0.007175 0.000000
# 3 -0.006496 0.003449 0.043641 -0.000003 -0.002638 0.000002
# 4 0.000000 0.000000 -0.000003 0.051761 0.000002 -0.015180
# 5 -0.005763 0.007175 -0.002638 0.000002 0.042362 -0.000001
# 6 0.000000 0.000000 0.000002 -0.015180 -0.000001 0.034792
#
#
# Mechanical properties :
#
#
# Convention : Reuss Voigt Hill
#
# Bulk Modulus (GPa) = 20.46751 49.09853 34.78302
# Shear Modulus (GPa) = 20.72794 28.37774 24.55284
#
# Velocity S-wave (km/s) = 3.07753 3.60092 3.34947
# Velocity P-wave (km/s) = 4.68834 6.30265 5.55445
#
# Compressibility (1/GPa) = 0.04885793
#
# Stress axis : x y z
#
# Youngs Moduli (GPa) = 81.58101 60.45938 22.91422
#
# Poissons Ratio (x) = 0.52863 0.14885
# Poissons Ratio (y) = 0.71331 -0.07903
# Poissons Ratio (z) = 0.52994 -0.20853
#
# Static dielectric constant tensor:
#      x y z
#    x 1.777180 0.000000 -0.006420 
#    y 0.000000 1.851250 0.000000 
#    z -0.006420 0.000000 1.766670 
# 
# From -- ./inp_files/38870.got.cif
#   From: 2010.05.17/outbox.cif.g08.bks.cpg/sg15_20_cif.got.tgz:38870.got - 2010.06.03 18:47:42.
