data_PCOD9272778
_publ_section_title
;
Structure prediction by ZEFSAII (Michael W. Deem and Ramdas Pophale) SiO2 
 PCOD9272778
Probable space group: C 2/C
;
_chemical_formula_sum "Si O2"
_cell_formula_units_Z 56
_cell_length_a 8.128392
_cell_length_b 17.368651
_cell_length_c 19.697959
_cell_angle_alpha 90.000000
_cell_angle_beta 100.344079
_cell_angle_gamma 90.000000
_cell_volume 2735.744044
_symmetry_space_group_name_H-M "C 2/C"
_symmetry_group_IT_number 15
_symmetry_cell_setting 'monoclinic'
loop_
_space_group_symop_operation_xyz
x,y,z
-x,y,1/2-z
-x,-y,-z
x,-y,1/2+z
1/2+x,1/2+y,z
1/2-x,1/2+y,1/2-z
1/2-x,1/2-y,-z
1/2+x,1/2-y,1/2+z
loop_
_atom_site_type_symbol
_atom_site_label
_atom_site_fract_x
_atom_site_fract_y
_atom_site_fract_z
Si Si1 0.938533 0.883995 0.009989
Si Si2 0.021069 0.014544 0.397699
Si Si3 0.024504 0.345909 0.173379
Si Si4 0.439645 0.775801 0.023680
Si Si5 0.693910 0.536968 0.790926
Si Si6 0.053649 0.427041 0.959033
Si Si7 0.853174 0.507461 0.169987
O O1 0.749154 0.911481 0.987772
O O2 0.953877 0.794268 0.999718
O O3 0.991966 0.924192 0.083513
O O4 0.050903 0.929664 0.962963
O O5 0.162627 0.017865 0.352356
O O6 0.837279 0.033997 0.358886
O O7 0.210093 0.384101 0.183167
O O8 0.000000 0.317061 0.250000
O O9 0.989557 0.291370 0.106344
O O10 0.897792 0.418638 0.155522
O O11 0.250000 0.750000 0.000000
O O12 0.463912 0.852747 0.982180
O O13 0.500000 0.548977 0.750000
O O14 0.829051 0.497704 0.749886
O O15 0.043866 0.443687 0.877746
O O16 0.000000 0.500000 0.000000
#
# Coordination Sequence:
#
# PCOD9272778 Si02
#       7
#     8   8   8   8   8   8   8
#     4  10  22  36  58  89 126 162 209 262 321 380
#     4   9  18  34  59  86 119 158 207 261 318 377
#     4  10  20  37  60  87 127 175 213 259 325 399
#     4  12  25  39  62  99 135 170 217 275 333 387
#     4   9  18  33  59  91 119 159 220 265 313 389
#     4  11  22  38  62  87 127 165 215 264 324 378
#     4   9  18  34  56  88 116 158 214 255 308 389
#
# _framework density 20.469752
#
# number of rings (size 3 to 8) (size 9 to 14) (size 15 to 20)
#    0.000    2.000    1.429    2.143    4.000    0.000 
#    0.000    3.571    0.000    0.000    0.000    9.000 
#    0.000    0.000    0.000    0.000    0.000    0.000 
#
# Total GULP energy -155890.833791 kJ/mol
# GULP energy per Si atom -5567.529778 kJ/mol
# Density = 2.042316 g / cm^3
# Si number density = 20.469752 Si / 1000 Ang^3
#
#
#
# Elastic Constant Matrix: (Units=GPa)
#
#
# Indices 1 2 3 4 5 6 
#
# 1 119.4767 35.0368 38.1661 0.0000 -20.0477 0.0000
# 2 35.0368 116.9738 48.6862 0.0000 -22.5303 0.0000
# 3 38.1661 48.6862 106.7819 0.0000 -20.5781 0.0000
# 4 0.0000 0.0000 0.0000 17.5780 0.0000 3.3951
# 5 -20.0477 -22.5303 -20.5781 0.0000 35.7447 0.0000
# 6 0.0000 0.0000 0.0000 3.3951 0.0000 27.1689
#
#
#
# Elastic Compliance Matrix: (Units=1/GPa)
#
#
# Indices 1 2 3 4 5 6 
#
# 1 0.010096 -0.001400 -0.002305 0.000000 0.003453 0.000000
# 2 -0.001400 0.011388 -0.003892 0.000000 0.004152 0.000000
# 3 -0.002305 -0.003892 0.012644 0.000000 0.003533 0.000000
# 4 0.000000 0.000000 0.000000 0.058296 0.000000 -0.007285
# 5 0.003453 0.004152 0.003533 0.000000 0.034565 0.000000
# 6 0.000000 0.000000 0.000000 -0.007285 0.000000 0.037717
#
#
# Mechanical properties :
#
#
# Convention : Reuss Voigt Hill
#
# Bulk Modulus (GPa) = 52.81098 65.22340 59.01719
# Shear Modulus (GPa) = 26.85147 30.85455 28.85301
#
# Velocity S-wave (km/s) = 3.62576 3.88664 3.75846
# Velocity P-wave (km/s) = 6.58663 7.21622 6.90860
#
# Compressibility (1/GPa) = 0.01893546
#
# Stress axis : x y z
#
# Youngs Moduli (GPa) = 99.04913 87.81423 79.08894
#
# Poissons Ratio (x) = 0.12290 0.18229
# Poissons Ratio (y) = 0.13862 0.30779
# Poissons Ratio (z) = 0.22830 0.34174
#
# Static dielectric constant tensor:
#      x y z
#    x 1.797140 0.000000 0.047050 
#    y 0.000000 1.736790 0.000000 
#    z 0.047050 0.000000 1.897950 
# 
# From -- ./inp_files/232162.got.cif
#   From: 2010.05.17/outbox.cif.g08.bks.cpg/sg15_117_cif.got.tgz:232162.got - 2010.06.03 18:47:42.
