data_PCOD9272537
_publ_section_title
;
Structure prediction by ZEFSAII (Michael W. Deem and Ramdas Pophale) SiO2 
 PCOD9272537
Probable space group: C 2/C
;
_chemical_formula_sum "Si O2"
_cell_formula_units_Z 64
_cell_length_a 16.738378
_cell_length_b 19.820732
_cell_length_c 9.902454
_cell_angle_alpha 90.000000
_cell_angle_beta 77.460067
_cell_angle_gamma 90.000000
_cell_volume 3206.935260
_symmetry_space_group_name_H-M "C 2/C"
_symmetry_group_IT_number 15
_symmetry_cell_setting 'monoclinic'
loop_
_space_group_symop_operation_xyz
x,y,z
-x,y,1/2-z
-x,-y,-z
x,-y,1/2+z
1/2+x,1/2+y,z
1/2-x,1/2+y,1/2-z
1/2-x,1/2-y,-z
1/2+x,1/2-y,1/2+z
loop_
_atom_site_type_symbol
_atom_site_label
_atom_site_fract_x
_atom_site_fract_y
_atom_site_fract_z
Si Si1 0.582838 0.184343 0.793735
Si Si2 0.292093 0.392583 0.418678
Si Si3 0.307093 0.293351 0.647335
Si Si4 0.325036 0.016158 0.991113
Si Si5 0.058546 0.991834 0.104511
Si Si6 0.177600 0.884660 0.609008
Si Si7 0.077349 0.470788 0.309959
Si Si8 0.737552 0.315564 0.338027
O O1 0.500000 0.207060 0.750000
O O2 0.619238 0.238362 0.886549
O O3 0.566588 0.108424 0.850613
O O4 0.664327 0.178636 0.669220
O O5 0.284347 0.326851 0.515192
O O6 0.219049 0.444210 0.474888
O O7 0.374114 0.432836 0.426966
O O8 0.287833 0.371351 0.263679
O O9 0.332997 0.352128 0.741183
O O10 0.235103 0.254498 0.755979
O O11 0.401080 0.013715 0.066416
O O12 0.260997 0.072324 0.063406
O O13 0.349519 0.024858 0.826781
O O14 0.106796 0.061862 0.106780
O O15 0.000000 0.977256 0.250000
O O16 0.000000 0.000000 0.000000
O O17 0.186009 0.827050 0.491114
O O18 0.000000 0.493253 0.250000
#
# Coordination Sequence:
#
# PCOD9272537 Si02
#       8
#     8   8   8   8   8   8   8   8
#     4   9  20  36  55  79 115 147 182 226 280 333
#     4  11  21  37  59  83 113 148 189 235 283 341
#     4  10  21  34  59  83 108 143 195 231 279 329
#     4  11  19  36  55  82 108 144 183 227 277 332
#     4  11  24  39  58  86 122 153 188 241 296 346
#     4  11  21  37  60  84 111 145 192 238 278 338
#     4  11  21  34  53  80 113 145 179 223 276 332
#     4  10  20  37  58  83 112 148 189 232 276 332
#
# _framework density 19.956747
#
# number of rings (size 3 to 8) (size 9 to 14) (size 15 to 20)
#    0.750    0.750    2.500    3.375    0.000    5.500 
#    0.000    0.000    0.000    0.000    0.000    0.875 
#    0.000    0.000    0.000    0.000    0.000    0.000 
#
# Total GULP energy -178467.151080 kJ/mol
# GULP energy per Si atom -5577.098471 kJ/mol
# Density = 1.991133 g / cm^3
# Si number density = 19.956747 Si / 1000 Ang^3
#
#
#
# Elastic Constant Matrix: (Units=GPa)
#
#
# Indices 1 2 3 4 5 6 
#
# 1 56.1583 15.6062 -1.2026 0.0000 14.4509 0.0000
# 2 15.6062 54.2504 8.6311 0.0000 10.3247 0.0000
# 3 -1.2026 8.6311 70.2971 0.0000 11.3940 0.0000
# 4 0.0000 0.0000 0.0000 31.7163 0.0000 2.2256
# 5 14.4509 10.3247 11.3940 0.0000 23.2745 0.0000
# 6 0.0000 0.0000 0.0000 2.2256 0.0000 -5.0280
#
#
#
# Elastic Compliance Matrix: (Units=1/GPa)
#
#
# Indices 1 2 3 4 5 6 
#
# 1 0.022602 -0.004410 0.003134 0.000000 -0.013611 0.000000
# 2 -0.004410 0.021074 -0.001729 0.000000 -0.005764 0.000000
# 3 0.003134 -0.001729 0.015948 0.000000 -0.008986 0.000000
# 4 0.000000 0.000000 0.000000 0.030580 0.000000 0.013536
# 5 -0.013611 -0.005764 -0.008986 0.000000 0.058373 0.000000
# 6 0.000000 0.000000 0.000000 0.013536 0.000000 -0.192896
#
#
# Mechanical properties :
#
#
# Convention : Reuss Voigt Hill
#
# Bulk Modulus (GPa) = 18.65157 25.19720 21.92439
# Shear Modulus (GPa) = -244.62690 20.50398 -112.06146
#
# Velocity S-wave (km/s) = -11.08353 3.20882 -7.50160
# Velocity P-wave (km/s) = 12.42685 5.13634 8.00139
#
# Compressibility (1/GPa) = 0.05361479
#
# Stress axis : x y z
#
# Youngs Moduli (GPa) = 44.24375 47.45249 62.70475
#
# Poissons Ratio (x) = 0.20927 -0.19654
# Poissons Ratio (y) = 0.19512 0.10839
# Poissons Ratio (z) = -0.13867 0.08203
#
# Static dielectric constant tensor:
#      x y z
#    x 1.714520 0.000000 0.009060 
#    y 0.000000 1.745040 0.000000 
#    z 0.009060 0.000000 1.689690 
# 
# From -- ./inp_files/50233.got.cif
#   From: 2010.05.17/outbox.cif.g08.bks.cpg/sg15_26_cif.got.tgz:50233.got - 2010.06.03 18:47:42.
