data_PCOD9272712
_publ_section_title
;
Structure prediction by ZEFSAII (Michael W. Deem and Ramdas Pophale) SiO2 
 PCOD9272712
Probable space group: C 2/C
;
_chemical_formula_sum "Si O2"
_cell_formula_units_Z 56
_cell_length_a 8.152725
_cell_length_b 22.534118
_cell_length_c 13.171050
_cell_angle_alpha 90.000000
_cell_angle_beta 109.902568
_cell_angle_gamma 90.000000
_cell_volume 2275.189954
_symmetry_space_group_name_H-M "C 2/C"
_symmetry_group_IT_number 15
_symmetry_cell_setting 'monoclinic'
loop_
_space_group_symop_operation_xyz
x,y,z
-x,y,1/2-z
-x,-y,-z
x,-y,1/2+z
1/2+x,1/2+y,z
1/2-x,1/2+y,1/2-z
1/2-x,1/2-y,-z
1/2+x,1/2-y,1/2+z
loop_
_atom_site_type_symbol
_atom_site_label
_atom_site_fract_x
_atom_site_fract_y
_atom_site_fract_z
Si Si1 0.504127 0.782661 0.856754
Si Si2 0.638822 0.928378 0.053913
Si Si3 0.817411 0.533835 0.164453
Si Si4 0.670926 0.456304 0.831365
Si Si5 0.674385 0.806881 0.104875
Si Si6 0.191252 0.282592 0.383944
Si Si7 0.255337 0.585599 0.948816
O O1 0.500000 0.817993 0.750000
O O2 0.657492 0.733827 0.872882
O O3 0.313144 0.754003 0.832478
O O4 0.567256 0.811425 0.974954
O O5 0.706339 0.991185 0.106378
O O6 0.735915 0.874419 0.129789
O O7 0.441377 0.920737 0.049708
O O8 0.661893 0.931778 0.937009
O O9 0.745704 0.572171 0.244123
O O10 0.713261 0.473134 0.112027
O O11 0.000000 0.512215 0.250000
O O12 0.500000 0.485180 0.750000
O O13 0.635522 0.416672 0.922953
O O14 0.520934 0.786803 0.150271
O O15 0.250000 0.250000 0.500000
O O16 0.260584 0.350595 0.397675
#
# Coordination Sequence:
#
# PCOD9272712 Si02
#       7
#     8   8   8   8   8   8   8
#     4  10  21  39  60  87 121 149 200 254 295 358
#     4  10  20  37  60  83 115 155 199 238 288 361
#     4  11  19  35  58  82 112 152 194 238 283 350
#     4  11  23  36  55  90 122 149 197 246 298 354
#     4   9  21  39  60  86 117 158 195 244 305 353
#     4   9  20  40  63  83 119 158 197 246 303 353
#     4  10  20  38  61  81 118 159 194 243 295 359
#
# _framework density 24.613330000000001
#
# number of rings (size 3 to 8) (size 9 to 14) (size 15 to 20)
#    0.000    2.000    2.857    0.857    0.000    7.429 
#    2.571    0.000    0.000    0.000    0.000    0.000 
#    0.000    0.000    0.000    0.000    0.000    0.000 
#
# Total GULP energy -156153.451751 kJ/mol
# GULP energy per Si atom -5576.908991 kJ/mol
# Density = 2.455731 g / cm^3
# Si number density = 24.613330 Si / 1000 Ang^3
#
#
#
# Elastic Constant Matrix: (Units=GPa)
#
#
# Indices 1 2 3 4 5 6 
#
# 1 63.1961 12.6349 35.9027 0.0000 -17.0282 0.0000
# 2 12.6349 56.5088 -20.2673 0.0000 -1.8054 0.0000
# 3 35.9027 -20.2673 95.5621 0.0000 -21.9678 0.0000
# 4 0.0000 0.0000 0.0000 -2.7082 0.0000 1.3773
# 5 -17.0282 -1.8054 -21.9678 0.0000 39.9853 0.0000
# 6 0.0000 0.0000 0.0000 1.3773 0.0000 12.8978
#
#
#
# Elastic Compliance Matrix: (Units=1/GPa)
#
#
# Indices 1 2 3 4 5 6 
#
# 1 0.024568 -0.008970 -0.010096 0.000000 0.004511 0.000000
# 2 -0.008970 0.022877 0.008677 0.000000 0.001980 0.000000
# 3 -0.010096 0.008677 0.017396 0.000000 0.005650 0.000000
# 4 0.000000 0.000000 0.000000 -0.350225 0.000000 0.037400
# 5 0.004511 0.001980 0.005650 0.000000 0.030124 0.000000
# 6 0.000000 0.000000 0.000000 0.037400 0.000000 0.073539
#
#
# Mechanical properties :
#
#
# Convention : Reuss Voigt Hill
#
# Bulk Modulus (GPa) = 22.69370 30.20084 26.44727
# Shear Modulus (GPa) = -34.18674 22.50143 -5.84266
#
# Velocity S-wave (km/s) = -3.73091 3.02685 -1.54238
# Velocity P-wave (km/s) = 3.05278 4.95101 2.75618
#
# Compressibility (1/GPa) = 0.04406510
#
# Stress axis : x y z
#
# Youngs Moduli (GPa) = 40.70310 43.71123 57.48292
#
# Poissons Ratio (x) = 0.39209 0.58033
# Poissons Ratio (y) = 0.36511 -0.49879
# Poissons Ratio (z) = 0.41092 -0.37929
#
# Static dielectric constant tensor:
#      x y z
#    x 2.020570 0.000000 -0.017340 
#    y 0.000000 1.932640 0.000000 
#    z -0.017340 0.000000 2.036320 
# 
# From -- ./inp_files/138284.got.cif
#   From: 2010.05.17/outbox.cif.g08.bks.cpg/sg15_70_cif.got.tgz:138284.got - 2010.06.03 18:47:42.
