data_PCOD9272404
_publ_section_title
;
Structure prediction by ZEFSAII (Michael W. Deem and Ramdas Pophale) SiO2 
 PCOD9272404
Probable space group: C 2/C
;
_chemical_formula_sum "Si O2"
_cell_formula_units_Z 40
_cell_length_a 11.200387
_cell_length_b 23.274723
_cell_length_c 12.779071
_cell_angle_alpha 90.000000
_cell_angle_beta 145.300878
_cell_angle_gamma 90.000000
_cell_volume 1896.412391
_symmetry_space_group_name_H-M "C 2/C"
_symmetry_group_IT_number 15
_symmetry_cell_setting 'monoclinic'
loop_
_space_group_symop_operation_xyz
x,y,z
-x,y,1/2-z
-x,-y,-z
x,-y,1/2+z
1/2+x,1/2+y,z
1/2-x,1/2+y,1/2-z
1/2-x,1/2-y,-z
1/2+x,1/2-y,1/2+z
loop_
_atom_site_type_symbol
_atom_site_label
_atom_site_fract_x
_atom_site_fract_y
_atom_site_fract_z
Si Si1 0.649581 0.106196 0.604181
Si Si2 0.705921 0.393932 0.852053
Si Si3 0.767188 0.984082 0.038250
Si Si4 0.726070 0.182724 0.463698
Si Si5 0.935395 0.089046 0.482694
O O1 0.434569 0.131889 0.494989
O O2 0.611380 0.051176 0.500777
O O3 0.743431 0.151134 0.587956
O O4 0.818182 0.085615 0.811505
O O5 0.500000 0.362296 0.750000
O O6 0.756787 0.448586 0.962711
O O7 0.621577 0.415111 0.678825
O O8 0.000000 0.970247 0.250000
O O9 0.792121 0.957241 0.941823
O O10 0.500000 0.172067 0.250000
O O11 0.750000 0.250000 0.500000
O O12 0.875570 0.151108 0.488578
#
# Coordination Sequence:
#
# PCOD9272404 Si02
#       5
#     8   8   8   8   8
#     4  10  20  37  55  86 119 150 195 248 291 350
#     4  11  22  36  55  82 120 170 202 231 290 351
#     4   8  18  33  53  81 112 152 201 238 290 336
#     4  11  20  37  65  96 114 142 187 252 315 346
#     4  10  21  39  57  84 125 149 198 258 284 346
#
# _framework density 21.092459999999999
#
# number of rings (size 3 to 8) (size 9 to 14) (size 15 to 20)
#    0.000    2.000    2.000    3.600    0.000    8.000 
#    0.000    6.000    0.000    1.200    0.000    0.000 
#    0.000    0.000    0.000    0.000    0.000    0.000 
#
# Total GULP energy -111527.104387 kJ/mol
# GULP energy per Si atom -5576.355219 kJ/mol
# Density = 2.104445 g / cm^3
# Si number density = 21.092460 Si / 1000 Ang^3
#
#
#
# Elastic Constant Matrix: (Units=GPa)
#
#
# Indices 1 2 3 4 5 6 
#
# 1 89.1122 -3.7134 4.7350 0.0000 9.7919 0.0000
# 2 -3.7134 58.3987 -19.8991 0.0000 -8.0682 0.0000
# 3 4.7350 -19.8991 86.9773 0.0000 2.7399 0.0000
# 4 0.0000 0.0000 0.0000 17.2539 0.0000 3.8687
# 5 9.7919 -8.0682 2.7399 0.0000 35.5262 0.0000
# 6 0.0000 0.0000 0.0000 3.8687 0.0000 8.6416
#
#
#
# Elastic Compliance Matrix: (Units=1/GPa)
#
#
# Indices 1 2 3 4 5 6 
#
# 1 0.011598 0.000134 -0.000502 0.000000 -0.003127 0.000000
# 2 0.000134 0.019128 0.004244 0.000000 0.003980 0.000000
# 3 -0.000502 0.004244 0.012491 0.000000 0.000139 0.000000
# 4 0.000000 0.000000 0.000000 0.064425 0.000000 -0.028842
# 5 -0.003127 0.003980 0.000139 0.000000 0.029903 0.000000
# 6 0.000000 0.000000 0.000000 -0.028842 0.000000 0.128631
#
#
# Mechanical properties :
#
#
# Convention : Reuss Voigt Hill
#
# Bulk Modulus (GPa) = 19.62010 21.85925 20.73968
# Shear Modulus (GPa) = 18.15447 29.17538 23.66492
#
# Velocity S-wave (km/s) = 2.93697 3.72319 3.35320
# Velocity P-wave (km/s) = 4.56324 5.37298 4.98458
#
# Compressibility (1/GPa) = 0.05096815
#
# Stress axis : x y z
#
# Youngs Moduli (GPa) = 86.22372 52.27939 80.05717
#
# Poissons Ratio (x) = -0.00702 0.04020
# Poissons Ratio (y) = -0.01158 -0.33973
# Poissons Ratio (z) = 0.04330 -0.22185
#
# Static dielectric constant tensor:
#      x y z
#    x 1.837650 0.000000 0.032510 
#    y 0.000000 1.768990 0.000000 
#    z 0.032510 0.000000 1.802650 
# 
# From -- ./inp_files/91034.got.cif
#   From: 2010.05.17/outbox.cif.g08.bks.cpg/sg15_46_cif.got.tgz:91034.got - 2010.06.03 18:47:42.
