data_PCOD9272516
_publ_section_title
;
Structure prediction by ZEFSAII (Michael W. Deem and Ramdas Pophale) SiO2 
 PCOD9272516
Probable space group: C 2/C
;
_chemical_formula_sum "Si O2"
_cell_formula_units_Z 60
_cell_length_a 5.483418
_cell_length_b 18.624458
_cell_length_c 22.900405
_cell_angle_alpha 90.000000
_cell_angle_beta 77.997603
_cell_angle_gamma 90.000000
_cell_volume 2287.592642
_symmetry_space_group_name_H-M "C 2/C"
_symmetry_group_IT_number 15
_symmetry_cell_setting 'monoclinic'
loop_
_space_group_symop_operation_xyz
x,y,z
-x,y,1/2-z
-x,-y,-z
x,-y,1/2+z
1/2+x,1/2+y,z
1/2-x,1/2+y,1/2-z
1/2-x,1/2-y,-z
1/2+x,1/2-y,1/2+z
loop_
_atom_site_type_symbol
_atom_site_label
_atom_site_fract_x
_atom_site_fract_y
_atom_site_fract_z
Si Si1 0.533480 0.350637 0.475036
Si Si2 0.170076 0.907083 0.127267
Si Si3 0.358478 0.280263 0.922507
Si Si4 0.220264 0.474323 0.087436
Si Si5 0.498045 0.877925 0.887837
Si Si6 0.000000 0.819830 0.250000
Si Si7 0.703724 0.301990 0.804697
Si Si8 0.258508 0.049450 0.232342
O O1 0.339785 0.358422 0.431372
O O2 0.453679 0.311204 0.538082
O O3 0.748500 0.296459 0.441990
O O4 0.665439 0.428747 0.471998
O O5 0.940248 0.961579 0.123962
O O6 0.449849 0.939352 0.117668
O O7 0.079385 0.863478 0.188550
O O8 0.139658 0.339178 0.932437
O O9 0.460549 0.282727 0.852420
O O10 0.182272 0.558740 0.080992
O O11 0.391483 0.817808 0.849252
O O12 0.678878 0.923577 0.835290
O O13 0.222741 0.761303 0.242100
O O14 0.713821 0.378256 0.772323
O O15 0.500000 0.013599 0.250000
O O16 0.000000 0.007943 0.250000
#
# Coordination Sequence:
#
# PCOD9272516 Si02
#       8
#     8   8   8   8   8   4   8   8
#     4   9  24  45  68 107 139 190 238 302 350 439
#     4  10  25  48  68 103 138 193 229 293 346 447
#     4  11  22  42  75 101 140 185 243 300 364 412
#     4  10  25  48  72  97 153 181 243 281 372 424
#     4  11  23  41  68 105 140 187 234 298 356 428
#     4  12  22  46  72 104 142 194 240 288 372 432
#     4  11  23  39  68 108 135 186 233 302 348 424
#     4  10  20  37  57  93 135 167 216 282 337 402
#
# _framework density 26.228445000000001
#
# number of rings (size 3 to 8) (size 9 to 14) (size 15 to 20)
#    0.800    0.800    3.333    1.600    1.867    2.133 
#   10.800    4.667    0.000    0.000    0.000    0.000 
#    0.000    0.000    0.000    0.000    0.000    0.000 
#
# Total GULP energy -167606.907489 kJ/mol
# GULP energy per Si atom -5586.896916 kJ/mol
# Density = 2.616875 g / cm^3
# Si number density = 26.228445 Si / 1000 Ang^3
#
#
#
# Elastic Constant Matrix: (Units=GPa)
#
#
# Indices 1 2 3 4 5 6 
#
# 1 133.1908 23.1743 27.2141 0.0000 -6.9177 0.0000
# 2 23.1743 93.7562 22.6459 0.0000 -6.9349 0.0000
# 3 27.2141 22.6459 75.0951 0.0000 -6.1278 0.0000
# 4 0.0000 0.0000 0.0000 28.9901 0.0000 -2.5508
# 5 -6.9177 -6.9349 -6.1278 0.0000 43.1311 0.0000
# 6 0.0000 0.0000 0.0000 -2.5508 0.0000 5.2440
#
#
#
# Elastic Compliance Matrix: (Units=1/GPa)
#
#
# Indices 1 2 3 4 5 6 
#
# 1 0.008305 -0.001386 -0.002531 0.000000 0.000750 0.000000
# 2 -0.001386 0.011816 -0.002958 0.000000 0.001257 0.000000
# 3 -0.002531 -0.002958 0.015230 0.000000 0.001282 0.000000
# 4 0.000000 0.000000 0.000000 0.036037 0.000000 0.017529
# 5 0.000750 0.001257 0.001282 0.000000 0.023690 0.000000
# 6 0.000000 0.000000 0.000000 0.017529 0.000000 0.199222
#
#
# Mechanical properties :
#
#
# Convention : Reuss Voigt Hill
#
# Bulk Modulus (GPa) = 46.29328 49.79006 48.04167
# Shear Modulus (GPa) = 15.86037 30.74022 23.30029
#
# Velocity S-wave (km/s) = 2.46173 3.42719 2.98377
# Velocity P-wave (km/s) = 5.07627 5.88942 5.49790
#
# Compressibility (1/GPa) = 0.02160141
#
# Stress axis : x y z
#
# Youngs Moduli (GPa) = 120.40642 84.62994 65.65862
#
# Poissons Ratio (x) = 0.11731 0.16615
# Poissons Ratio (y) = 0.16690 0.19424
# Poissons Ratio (z) = 0.30470 0.25037
#
# Static dielectric constant tensor:
#      x y z
#    x 2.213100 0.000000 -0.030860 
#    y 0.000000 2.011650 0.000000 
#    z -0.030860 0.000000 2.057830 
# 
# From -- ./inp_files/286346.got.cif
#   From: 2010.05.17/outbox.cif.g08.bks.cpg/sg15_144_cif.got.tgz:286346.got - 2010.06.03 18:47:42.
