data_PCOD9272623
_publ_section_title
;
Structure prediction by ZEFSAII (Michael W. Deem and Ramdas Pophale) SiO2 
 PCOD9272623
Probable space group: C 2/C
;
_chemical_formula_sum "Si O2"
_cell_formula_units_Z 40
_cell_length_a 9.511775
_cell_length_b 15.985212
_cell_length_c 11.109616
_cell_angle_alpha 90.000000
_cell_angle_beta 76.126731
_cell_angle_gamma 90.000000
_cell_volume 1639.915659
_symmetry_space_group_name_H-M "C 2/C"
_symmetry_group_IT_number 15
_symmetry_cell_setting 'monoclinic'
loop_
_space_group_symop_operation_xyz
x,y,z
-x,y,1/2-z
-x,-y,-z
x,-y,1/2+z
1/2+x,1/2+y,z
1/2-x,1/2+y,1/2-z
1/2-x,1/2-y,-z
1/2+x,1/2-y,1/2+z
loop_
_atom_site_type_symbol
_atom_site_label
_atom_site_fract_x
_atom_site_fract_y
_atom_site_fract_z
Si Si1 0.795088 0.342300 0.528614
Si Si2 0.317787 0.691484 0.875382
Si Si3 0.912153 0.584317 0.492730
Si Si4 0.468736 0.597686 0.517106
Si Si5 0.766691 0.856556 0.696381
O O1 0.750000 0.250000 0.500000
O O2 0.703811 0.395297 0.451795
O O3 0.738749 0.382886 0.665073
O O4 0.965722 0.346561 0.506744
O O5 0.297632 0.761811 0.780217
O O6 0.250000 0.750000 0.000000
O O7 0.215449 0.610231 0.890590
O O8 0.468619 0.651299 0.884516
O O9 0.839618 0.594340 0.375107
O O10 0.000000 0.500000 0.500000
O O11 0.500000 0.500000 0.500000
O O12 0.570857 0.637049 0.389635
#
# Coordination Sequence:
#
# PCOD9272623 Si02
#       5
#     8   8   8   8   8
#     4  12  22  36  59  85 111 149 198 235 271 342
#     4   8  17  37  58  77 112 152 184 230 289 340
#     4  10  20  37  59  83 114 147 185 238 293 339
#     4  10  20  37  59  83 114 147 185 238 293 339
#     4  10  21  39  57  80 116 155 184 229 292 344
#
# _framework density 24.391497000000001
#
# number of rings (size 3 to 8) (size 9 to 14) (size 15 to 20)
#    0.000    2.400    0.000    7.200    0.000    0.000 
#    0.000   12.000    0.000    0.000    0.000    0.000 
#    0.000    0.000    0.000    0.000    0.000    0.000 
#
# Total GULP energy -111437.125593 kJ/mol
# GULP energy per Si atom -5571.856280 kJ/mol
# Density = 2.433598 g / cm^3
# Si number density = 24.391497 Si / 1000 Ang^3
#
#
#
# Elastic Constant Matrix: (Units=GPa)
#
#
# Indices 1 2 3 4 5 6 
#
# 1 130.1469 4.7854 23.4717 0.0000 23.0749 0.0000
# 2 4.7854 121.0750 1.9184 0.0000 14.7489 0.0000
# 3 23.4717 1.9184 49.6731 0.0000 6.4822 0.0000
# 4 0.0000 0.0000 0.0000 10.2162 0.0000 -0.5189
# 5 23.0749 14.7489 6.4822 0.0000 23.0808 0.0000
# 6 0.0000 0.0000 0.0000 -0.5189 0.0000 58.2589
#
#
#
# Elastic Compliance Matrix: (Units=1/GPa)
#
#
# Indices 1 2 3 4 5 6 
#
# 1 0.009971 0.000820 -0.003502 0.000000 -0.009509 0.000000
# 2 0.000820 0.009032 0.000129 0.000000 -0.006627 0.000000
# 3 -0.003502 0.000129 0.022147 0.000000 -0.002801 0.000000
# 4 0.000000 0.000000 0.000000 0.097928 0.000000 0.000872
# 5 -0.009509 -0.006627 -0.002801 0.000000 0.057854 0.000000
# 6 0.000000 0.000000 0.000000 0.000872 0.000000 0.017173
#
#
# Mechanical properties :
#
#
# Convention : Reuss Voigt Hill
#
# Bulk Modulus (GPa) = 27.74510 40.13844 33.94177
# Shear Modulus (GPa) = 21.62377 36.35914 28.99146
#
# Velocity S-wave (km/s) = 2.98069 3.86508 3.45133
# Velocity P-wave (km/s) = 4.82137 6.03408 5.46149
#
# Compressibility (1/GPa) = 0.03604241
#
# Stress axis : x y z
#
# Youngs Moduli (GPa) = 100.29086 110.71479 45.15267
#
# Poissons Ratio (x) = -0.09075 0.15814
# Poissons Ratio (y) = -0.08221 -0.00581
# Poissons Ratio (z) = 0.35125 -0.01425
#
# Static dielectric constant tensor:
#      x y z
#    x 2.045780 0.000000 0.008570 
#    y 0.000000 2.082970 0.000000 
#    z 0.008570 0.000000 2.369980 
# 
# From -- ./inp_files/133191.got.cif
#   From: 2010.05.17/outbox.cif.g08.bks.cpg/sg15_67_cif.got.tgz:133191.got - 2010.06.03 18:47:42.
