data_PCOD9272978
_publ_section_title
;
Structure prediction by ZEFSAII (Michael W. Deem and Ramdas Pophale) SiO2 
 PCOD9272978
Probable space group: C 2/C
;
_chemical_formula_sum "Si O2"
_cell_formula_units_Z 64
_cell_length_a 18.078391
_cell_length_b 15.172054
_cell_length_c 17.404071
_cell_angle_alpha 90.000000
_cell_angle_beta 40.145908
_cell_angle_gamma 90.000000
_cell_volume 3077.776877
_symmetry_space_group_name_H-M "C 2/C"
_symmetry_group_IT_number 15
_symmetry_cell_setting 'monoclinic'
loop_
_space_group_symop_operation_xyz
x,y,z
-x,y,1/2-z
-x,-y,-z
x,-y,1/2+z
1/2+x,1/2+y,z
1/2-x,1/2+y,1/2-z
1/2-x,1/2-y,-z
1/2+x,1/2-y,1/2+z
loop_
_atom_site_type_symbol
_atom_site_label
_atom_site_fract_x
_atom_site_fract_y
_atom_site_fract_z
Si Si1 0.080512 0.740001 0.257866
Si Si2 0.024305 0.915786 0.113734
Si Si3 0.320189 0.529320 0.252480
Si Si4 0.190989 0.823042 0.864159
Si Si5 0.602357 0.050795 0.722455
Si Si6 0.741956 0.524963 0.533578
Si Si7 0.466726 0.904486 0.929136
Si Si8 0.657842 0.873828 0.329418
O O1 0.205858 0.697100 0.157079
O O2 0.000000 0.717086 0.250000
O O3 0.066868 0.843385 0.283169
O O4 0.020934 0.690762 0.375707
O O5 0.123168 0.934694 0.097801
O O6 0.089596 0.870658 0.990820
O O7 0.954873 0.003915 0.147623
O O8 0.285397 0.610510 0.225723
O O9 0.281213 0.535686 0.372793
O O10 0.260129 0.442274 0.264732
O O11 0.172448 0.725604 0.845580
O O12 0.500000 0.081846 0.750000
O O13 0.637790 0.123011 0.755290
O O14 0.702057 0.019585 0.586237
O O15 0.548750 0.971571 0.817566
O O16 0.841923 0.589486 0.486759
O O17 0.443933 0.914232 0.037278
#
# Coordination Sequence:
#
# PCOD9272978 Si02
#       8
#     8   8   8   8   8   8   8   8
#     4  12  23  36  62  96 133 164 209 265 328 390
#     4  12  23  41  66  94 133 173 213 264 330 390
#     4  11  24  44  64  92 133 176 219 267 324 394
#     4  12  26  43  64  99 134 172 219 269 326 396
#     4  10  21  40  63  92 127 173 224 270 327 381
#     4  10  22  40  65  95 128 179 214 270 327 385
#     4  10  20  37  61  97 130 165 209 267 334 383
#     4  11  22  41  64  96 129 170 218 272 329 385
#
# _framework density 20.794229999999999
#
# number of rings (size 3 to 8) (size 9 to 14) (size 15 to 20)
#    0.000    1.000    2.500    6.000    1.750    3.000 
#    0.000    1.875    0.000    0.000    0.000    0.000 
#    0.000    0.000    0.000    0.000    0.000    0.000 
#
# Total GULP energy -178597.740707 kJ/mol
# GULP energy per Si atom -5581.179397 kJ/mol
# Density = 2.074690 g / cm^3
# Si number density = 20.794230 Si / 1000 Ang^3
#
#
#
# Elastic Constant Matrix: (Units=GPa)
#
#
# Indices 1 2 3 4 5 6 
#
# 1 78.9737 44.2844 52.1379 0.0000 20.8889 0.0000
# 2 44.2844 83.5832 29.6917 0.0000 3.1010 0.0000
# 3 52.1379 29.6917 90.0180 0.0000 12.9990 0.0000
# 4 0.0000 0.0000 0.0000 18.9191 0.0000 6.6062
# 5 20.8889 3.1010 12.9990 0.0000 34.3860 0.0000
# 6 0.0000 0.0000 0.0000 6.6062 0.0000 33.6288
#
#
#
# Elastic Compliance Matrix: (Units=1/GPa)
#
#
# Indices 1 2 3 4 5 6 
#
# 1 0.030326 -0.011339 -0.011965 0.000000 -0.012877 0.000000
# 2 -0.011339 0.017800 -0.000070 0.000000 0.005310 0.000000
# 3 -0.011965 -0.000070 0.017994 0.000000 0.000473 0.000000
# 4 0.000000 0.000000 0.000000 0.056749 0.000000 -0.011148
# 5 -0.012877 0.005310 0.000473 0.000000 0.036247 0.000000
# 6 0.000000 0.000000 0.000000 -0.011148 0.000000 0.031926
#
#
# Mechanical properties :
#
#
# Convention : Reuss Voigt Hill
#
# Bulk Modulus (GPa) = 51.62442 56.08923 53.85682
# Shear Modulus (GPa) = 20.47091 25.81751 23.14421
#
# Velocity S-wave (km/s) = 3.14100 3.52742 3.33980
# Velocity P-wave (km/s) = 6.16723 6.60471 6.38972
#
# Compressibility (1/GPa) = 0.01937068
#
# Stress axis : x y z
#
# Youngs Moduli (GPa) = 32.97465 56.17982 55.57434
#
# Poissons Ratio (x) = 0.63705 0.66495
# Poissons Ratio (y) = 0.37391 0.00390
# Poissons Ratio (z) = 0.39455 0.00394
#
# Static dielectric constant tensor:
#      x y z
#    x 1.778690 0.000000 -0.024750 
#    y 0.000000 1.753400 0.000000 
#    z -0.024750 0.000000 1.815170 
# 
# From -- ./inp_files/211374.got.cif
#   From: 2010.05.17/outbox.cif.g08.bks.cpg/sg15_106_cif.got.tgz:211374.got - 2010.06.03 18:47:42.
