data_PCOD9272779
_publ_section_title
;
Structure prediction by ZEFSAII (Michael W. Deem and Ramdas Pophale) SiO2 
 PCOD9272779
Probable space group: C 2/C
;
_chemical_formula_sum "Si O2"
_cell_formula_units_Z 48
_cell_length_a 15.221188
_cell_length_b 11.954562
_cell_length_c 22.665828
_cell_angle_alpha 90.000000
_cell_angle_beta 38.682690
_cell_angle_gamma 90.000000
_cell_volume 2577.736865
_symmetry_space_group_name_H-M "C 2/C"
_symmetry_group_IT_number 15
_symmetry_cell_setting 'monoclinic'
loop_
_space_group_symop_operation_xyz
x,y,z
-x,y,1/2-z
-x,-y,-z
x,-y,1/2+z
1/2+x,1/2+y,z
1/2-x,1/2+y,1/2-z
1/2-x,1/2-y,-z
1/2+x,1/2-y,1/2+z
loop_
_atom_site_type_symbol
_atom_site_label
_atom_site_fract_x
_atom_site_fract_y
_atom_site_fract_z
Si Si1 0.399124 0.500016 0.756559
Si Si2 0.204266 0.779097 0.624812
Si Si3 0.410212 0.491066 0.457718
Si Si4 0.520566 0.685018 0.985517
Si Si5 0.084318 0.418084 0.410862
Si Si6 0.130836 0.604045 0.571431
O O1 0.500000 0.562971 0.750000
O O2 0.365380 0.379448 0.803352
O O3 0.493696 0.492024 0.649470
O O4 0.248171 0.553948 0.824903
O O5 0.318502 0.723995 0.608570
O O6 0.114332 0.686940 0.636059
O O7 0.293194 0.832748 0.523574
O O8 0.458873 0.590041 0.475820
O O9 0.445081 0.373813 0.470430
O O10 0.245845 0.511236 0.529507
O O11 0.439258 0.792137 0.053317
O O12 0.000000 0.500000 0.500000
O O13 0.013664 0.432667 0.383293
#
# Coordination Sequence:
#
# PCOD9272779 Si02
#       6
#     8   8   8   8   8   8
#     4  12  22  35  58  89 116 142 198 250 284 326
#     4   9  17  34  60  82 111 143 198 227 281 333
#     4  10  20  37  60  88 115 147 196 240 288 338
#     4   9  20  38  61  80 117 162 187 227 293 359
#     4  11  20  37  58  83 120 153 195 231 290 347
#     4   9  17  35  59  84 108 154 187 231 280 351
#
# _framework density 18.620985000000001
#
# number of rings (size 3 to 8) (size 9 to 14) (size 15 to 20)
#    0.000    2.000    5.000    1.000    0.000    1.333 
#    0.000    3.333    0.000    0.000    0.000    0.000 
#    0.000    0.000    0.000    0.000    0.000    0.000 
#
# Total GULP energy -133752.029436 kJ/mol
# GULP energy per Si atom -5573.001227 kJ/mol
# Density = 1.857860 g / cm^3
# Si number density = 18.620985 Si / 1000 Ang^3
#
#
#
# Elastic Constant Matrix: (Units=GPa)
#
#
# Indices 1 2 3 4 5 6 
#
# 1 166.4942 57.9290 45.5139 0.0000 -28.4008 0.0000
# 2 57.9290 80.8960 21.0060 0.0000 -9.0105 0.0000
# 3 45.5139 21.0060 58.7546 0.0000 -7.8054 0.0000
# 4 0.0000 0.0000 0.0000 12.8721 0.0000 5.7030
# 5 -28.4008 -9.0105 -7.8054 0.0000 25.7736 0.0000
# 6 0.0000 0.0000 0.0000 5.7030 0.0000 28.1744
#
#
#
# Elastic Compliance Matrix: (Units=1/GPa)
#
#
# Indices 1 2 3 4 5 6 
#
# 1 0.010758 -0.005398 -0.005293 0.000000 0.008365 0.000000
# 2 -0.005398 0.016632 -0.001857 0.000000 -0.000696 0.000000
# 3 -0.005293 -0.001857 0.021800 0.000000 0.000121 0.000000
# 4 0.000000 0.000000 0.000000 0.085341 0.000000 -0.017275
# 5 0.008365 -0.000696 0.000121 0.000000 0.047810 0.000000
# 6 0.000000 0.000000 0.000000 -0.017275 0.000000 0.038990
#
#
# Mechanical properties :
#
#
# Convention : Reuss Voigt Hill
#
# Bulk Modulus (GPa) = 41.50367 61.67140 51.58754
# Shear Modulus (GPa) = 19.64971 25.47707 22.56339
#
# Velocity S-wave (km/s) = 3.25198 3.70292 3.48475
# Velocity P-wave (km/s) = 6.03635 7.17449 6.62989
#
# Compressibility (1/GPa) = 0.02409425
#
# Stress axis : x y z
#
# Youngs Moduli (GPa) = 92.95502 60.12673 45.87187
#
# Poissons Ratio (x) = 0.32454 0.24278
# Poissons Ratio (y) = 0.50174 0.08520
# Poissons Ratio (z) = 0.49197 0.11167
#
# Static dielectric constant tensor:
#      x y z
#    x 1.714980 0.000000 -0.030310 
#    y 0.000000 1.666590 0.000000 
#    z -0.030310 0.000000 1.650940 
# 
# From -- ./inp_files/243896.got.cif
#   From: 2010.05.17/outbox.cif.g08.bks.cpg/sg15_122_cif.got.tgz:243896.got - 2010.06.03 18:47:42.
