data_PCOD9272120
_publ_section_title
;
Structure prediction by ZEFSAII (Michael W. Deem and Ramdas Pophale) SiO2 
 PCOD9272120
Probable space group: C 2/C
;
_chemical_formula_sum "Si O2"
_cell_formula_units_Z 52
_cell_length_a 9.420158
_cell_length_b 27.051554
_cell_length_c 13.750967
_cell_angle_alpha 90.000000
_cell_angle_beta 46.687882
_cell_angle_gamma 90.000000
_cell_volume 2549.722194
_symmetry_space_group_name_H-M "C 2/C"
_symmetry_group_IT_number 15
_symmetry_cell_setting 'monoclinic'
loop_
_space_group_symop_operation_xyz
x,y,z
-x,y,1/2-z
-x,-y,-z
x,-y,1/2+z
1/2+x,1/2+y,z
1/2-x,1/2+y,1/2-z
1/2-x,1/2-y,-z
1/2+x,1/2-y,1/2+z
loop_
_atom_site_type_symbol
_atom_site_label
_atom_site_fract_x
_atom_site_fract_y
_atom_site_fract_z
Si Si1 0.020971 0.537258 0.902248
Si Si2 0.500000 0.905251 0.750000
Si Si3 0.799518 0.693658 0.795554
Si Si4 0.729162 0.501525 0.388651
Si Si5 0.433954 0.738276 0.052111
Si Si6 0.356674 0.178359 0.440773
Si Si7 0.197296 0.118466 0.684478
O O1 0.191794 0.520250 0.749110
O O2 0.102050 0.588115 0.905817
O O3 0.828360 0.531381 0.926995
O O4 0.000000 0.500000 0.000000
O O5 0.680363 0.942998 0.650580
O O6 0.508812 0.866785 0.656983
O O7 0.644154 0.711886 0.949087
O O8 0.866841 0.734731 0.682746
O O9 0.699341 0.649449 0.782626
O O10 0.000000 0.676332 0.750000
O O11 0.500000 0.500000 0.500000
O O12 0.457693 0.778377 0.953808
O O13 0.263324 0.701988 0.092478
O O14 0.208972 0.156645 0.589950
O O15 0.000000 0.088762 0.750000
#
# Coordination Sequence:
#
# PCOD9272120 Si02
#       7
#     8   4   8   8   8   8   8
#     4  10  23  41  62  90 124 160 206 265 314 377
#     4  10  20  38  60  92 122 158 212 256 314 372
#     4  11  23  38  60  90 127 166 203 258 318 380
#     4  10  24  41  62  92 127 163 209 260 325 380
#     4  10  21  38  60  91 126 161 211 256 321 362
#     4  10  20  36  64  90 117 160 212 263 298 374
#     4  11  22  37  63  90 117 159 218 253 309 372
#
# _framework density 20.394379000000001
#
# number of rings (size 3 to 8) (size 9 to 14) (size 15 to 20)
#    0.000    1.846    1.538    3.231    6.462    0.000 
#    0.000    0.000    3.385    0.000    0.000    0.000 
#    0.000    0.000    0.000    0.000    0.000    0.000 
#
# Total GULP energy -144932.394323 kJ/mol
# GULP energy per Si atom -5574.322859 kJ/mol
# Density = 2.034796 g / cm^3
# Si number density = 20.394379 Si / 1000 Ang^3
#
#
#
# Elastic Constant Matrix: (Units=GPa)
#
#
# Indices 1 2 3 4 5 6 
#
# 1 117.1334 26.8271 45.2772 0.0000 -20.4675 0.0000
# 2 26.8271 64.7951 -0.1721 0.0000 -10.7874 0.0000
# 3 45.2772 -0.1721 57.4563 0.0000 -10.8847 0.0000
# 4 0.0000 0.0000 0.0000 23.9226 0.0000 6.5684
# 5 -20.4675 -10.7874 -10.8847 0.0000 43.9167 0.0000
# 6 0.0000 0.0000 0.0000 6.5684 0.0000 21.3661
#
#
#
# Elastic Compliance Matrix: (Units=1/GPa)
#
#
# Indices 1 2 3 4 5 6 
#
# 1 0.014520 -0.005595 -0.010951 0.000000 0.002678 0.000000
# 2 -0.005595 0.018285 0.005058 0.000000 0.003138 0.000000
# 3 -0.010951 0.005058 0.026565 0.000000 0.002723 0.000000
# 4 0.000000 0.000000 0.000000 0.045655 0.000000 -0.014035
# 5 0.002678 0.003138 0.002723 0.000000 0.025464 0.000000
# 6 0.000000 0.000000 0.000000 -0.014035 0.000000 0.051118
#
#
# Mechanical properties :
#
#
# Convention : Reuss Voigt Hill
#
# Bulk Modulus (GPa) = 27.47670 42.58324 35.02997
# Shear Modulus (GPa) = 23.07167 29.00458 26.03813
#
# Velocity S-wave (km/s) = 3.36709 3.77528 3.57701
# Velocity P-wave (km/s) = 5.34961 6.31893 5.85437
#
# Compressibility (1/GPa) = 0.03639447
#
# Stress axis : x y z
#
# Youngs Moduli (GPa) = 68.87113 54.68821 37.64286
#
# Poissons Ratio (x) = 0.30597 0.41224
# Poissons Ratio (y) = 0.38532 -0.19040
# Poissons Ratio (z) = 0.75424 -0.27662
#
# Static dielectric constant tensor:
#      x y z
#    x 1.766610 0.000000 -0.026550 
#    y 0.000000 1.794460 0.000000 
#    z -0.026550 0.000000 1.762430 
# 
# From -- ./inp_files/138448.got.cif
#   From: 2010.05.17/outbox.cif.g08.bks.cpg/sg15_70_cif.got.tgz:138448.got - 2010.06.03 18:47:42.
