data_PCOD9272081
_publ_section_title
;
Structure prediction by ZEFSAII (Michael W. Deem and Ramdas Pophale) SiO2 
 PCOD9272081
Probable space group: C 2/C
;
_chemical_formula_sum "Si O2"
_cell_formula_units_Z 48
_cell_length_a 12.139554
_cell_length_b 21.825237
_cell_length_c 8.437444
_cell_angle_alpha 90.000000
_cell_angle_beta 105.217601
_cell_angle_gamma 90.000000
_cell_volume 2157.103930
_symmetry_space_group_name_H-M "C 2/C"
_symmetry_group_IT_number 15
_symmetry_cell_setting 'monoclinic'
loop_
_space_group_symop_operation_xyz
x,y,z
-x,y,1/2-z
-x,-y,-z
x,-y,1/2+z
1/2+x,1/2+y,z
1/2-x,1/2+y,1/2-z
1/2-x,1/2-y,-z
1/2+x,1/2-y,1/2+z
loop_
_atom_site_type_symbol
_atom_site_label
_atom_site_fract_x
_atom_site_fract_y
_atom_site_fract_z
Si Si1 0.301316 0.931597 0.632304
Si Si2 0.500000 0.257585 0.250000
Si Si3 0.536118 0.929797 0.542984
Si Si4 0.660545 0.550328 0.583249
Si Si5 0.215479 0.845455 0.351137
Si Si6 0.000000 0.968672 0.750000
Si Si7 0.527453 0.807246 0.092289
O O1 0.422219 0.913763 0.600673
O O2 0.340297 0.927869 0.828122
O O3 0.215621 0.885297 0.514592
O O4 0.259281 0.000509 0.583630
O O5 0.610826 0.299666 0.312425
O O6 0.484502 0.220404 0.408591
O O7 0.531550 0.874690 0.418396
O O8 0.500000 0.000000 0.500000
O O9 0.704431 0.606858 0.701711
O O10 0.578043 0.511879 0.669966
O O11 0.585063 0.566404 0.400874
O O12 0.336163 0.812112 0.375988
O O13 0.500000 0.775192 0.250000
#
# Coordination Sequence:
#
# PCOD9272081 Si02
#       7
#     8   4   8   8   8   4   8
#     4  10  20  36  63  98 139 176 216 264 352 414
#     4  12  27  52  70  94 142 189 246 298 344 398
#     4  10  22  37  64 104 141 171 207 279 355 425
#     4  11  21  40  59  98 136 179 216 277 337 418
#     4  11  24  43  73  98 134 191 229 286 355 415
#     4  10  23  34  58  86 146 171 218 264 328 400
#     4  11  26  47  73 102 138 179 238 296 345 416
#
# _framework density 22.252058999999999
#
# number of rings (size 3 to 8) (size 9 to 14) (size 15 to 20)
#    0.000    1.333    1.667    5.000    7.000    0.667 
#    1.500    0.000    0.000    0.000    0.000    0.000 
#    0.000    0.000    0.000    0.000    0.000    0.000 
#
# Total GULP energy -133872.081379 kJ/mol
# GULP energy per Si atom -5578.003391 kJ/mol
# Density = 2.220141 g / cm^3
# Si number density = 22.252059 Si / 1000 Ang^3
#
#
#
# Elastic Constant Matrix: (Units=GPa)
#
#
# Indices 1 2 3 4 5 6 
#
# 1 53.1264 24.2097 47.1602 0.0000 12.2737 0.0000
# 2 24.2097 90.4125 70.1186 0.0000 12.7684 0.0000
# 3 47.1602 70.1186 191.2242 0.0000 23.1867 0.0000
# 4 0.0000 0.0000 0.0000 -0.6130 0.0000 -21.1288
# 5 12.2737 12.7684 23.1867 0.0000 39.3533 0.0000
# 6 0.0000 0.0000 0.0000 -21.1288 0.0000 1.6538
#
#
#
# Elastic Compliance Matrix: (Units=1/GPa)
#
#
# Indices 1 2 3 4 5 6 
#
# 1 0.025170 -0.002412 -0.004810 0.000000 -0.004234 0.000000
# 2 -0.002412 0.015807 -0.005030 0.000000 -0.001413 0.000000
# 3 -0.004810 -0.005030 0.008487 0.000000 -0.001868 0.000000
# 4 0.000000 0.000000 0.000000 -0.003696 0.000000 -0.047222
# 5 -0.004234 -0.001413 -0.001868 0.000000 0.028290 0.000000
# 6 0.000000 0.000000 0.000000 -0.047222 0.000000 0.001370
#
#
# Mechanical properties :
#
#
# Convention : Reuss Voigt Hill
#
# Bulk Modulus (GPa) = 40.06365 68.63778 54.35072
# Shear Modulus (GPa) = 46.18944 20.96379 33.57662
#
# Velocity S-wave (km/s) = 4.56097 3.07270 3.88870
# Velocity P-wave (km/s) = 6.76610 6.59555 6.68137
#
# Compressibility (1/GPa) = 0.02496028
#
# Stress axis : x y z
#
# Youngs Moduli (GPa) = 39.73026 63.26458 117.83307
#
# Poissons Ratio (x) = 0.15257 0.56675
# Poissons Ratio (y) = 0.09581 0.59270
# Poissons Ratio (z) = 0.19109 0.31822
#
# Static dielectric constant tensor:
#      x y z
#    x 1.852220 0.000000 -0.119640 
#    y 0.000000 1.833720 0.000000 
#    z -0.119640 0.000000 1.305640 
# 
# From -- ./inp_files/32686.got.cif
#   From: 2010.05.17/outbox.cif.g08.bks.cpg/sg15_17_cif.got.tgz:32686.got - 2010.06.03 18:47:42.
