data_PCOD9272103
_publ_section_title
;
Structure prediction by ZEFSAII (Michael W. Deem and Ramdas Pophale) SiO2 
 PCOD9272103
Probable space group: C 2/C
;
_chemical_formula_sum "Si O2"
_cell_formula_units_Z 48
_cell_length_a 25.593903
_cell_length_b 9.228354
_cell_length_c 17.538466
_cell_angle_alpha 90.000000
_cell_angle_beta 33.307406
_cell_angle_gamma 90.000000
_cell_volume 2274.721397
_symmetry_space_group_name_H-M "C 2/C"
_symmetry_group_IT_number 15
_symmetry_cell_setting 'monoclinic'
loop_
_space_group_symop_operation_xyz
x,y,z
-x,y,1/2-z
-x,-y,-z
x,-y,1/2+z
1/2+x,1/2+y,z
1/2-x,1/2+y,1/2-z
1/2-x,1/2-y,-z
1/2+x,1/2-y,1/2+z
loop_
_atom_site_type_symbol
_atom_site_label
_atom_site_fract_x
_atom_site_fract_y
_atom_site_fract_z
Si Si1 0.941966 0.125400 0.243070
Si Si2 0.097561 0.932450 0.917461
Si Si3 0.198719 0.276626 0.173707
Si Si4 0.130776 0.223745 0.934211
Si Si5 0.478697 0.700405 0.687641
Si Si6 0.405036 0.066022 0.155738
O O1 0.844939 0.211607 0.350210
O O2 0.922361 0.953659 0.254723
O O3 0.000000 0.130205 0.250000
O O4 0.072191 0.848974 0.026336
O O5 0.145595 0.823354 0.801552
O O6 0.020564 0.200508 0.091653
O O7 0.160436 0.071239 0.860306
O O8 0.000000 0.000000 0.000000
O O9 0.307244 0.257432 0.065982
O O10 0.161671 0.439320 0.231106
O O11 0.141529 0.343945 0.856660
O O12 0.500000 0.738775 0.750000
O O13 0.432614 0.824878 0.691374
O O14 0.500000 0.000000 0.000000
#
# Coordination Sequence:
#
# PCOD9272103 Si02
#       6
#     8   8   8   8   8   8
#     4  10  21  40  62  81 120 169 197 237 304 365
#     4  11  17  39  62  82 116 161 204 244 295 359
#     4  12  22  35  62  90 116 155 204 257 293 351
#     4  11  22  37  60  89 118 154 205 250 293 362
#     4  10  20  36  64  85 115 162 202 236 306 366
#     4  12  20  37  59  90 121 152 196 253 304 346
#
# _framework density 21.101485
#
# number of rings (size 3 to 8) (size 9 to 14) (size 15 to 20)
#    0.000    1.000    8.333    1.000    0.000    1.333 
#    0.000    0.000    0.000   10.000    0.000    0.000 
#    0.000    0.000    0.000    0.000    0.000    0.000 
#
# Total GULP energy -133846.992906 kJ/mol
# GULP energy per Si atom -5576.958038 kJ/mol
# Density = 2.105346 g / cm^3
# Si number density = 21.101485 Si / 1000 Ang^3
#
#
#
# Elastic Constant Matrix: (Units=GPa)
#
#
# Indices 1 2 3 4 5 6 
#
# 1 164.3475 59.2437 25.7503 -0.0002 -4.2198 0.0001
# 2 59.2437 106.3127 8.9629 -0.0005 -9.2107 0.0005
# 3 25.7503 8.9629 32.0581 -0.0009 -8.9428 0.0005
# 4 -0.0002 -0.0005 -0.0009 11.8889 0.0004 2.6131
# 5 -4.2198 -9.2107 -8.9428 0.0004 39.0630 -0.0002
# 6 0.0001 0.0005 0.0005 2.6131 -0.0002 34.1637
#
#
#
# Elastic Compliance Matrix: (Units=1/GPa)
#
#
# Indices 1 2 3 4 5 6 
#
# 1 0.008586 -0.004402 -0.006086 0.000000 -0.001504 0.000000
# 2 -0.004402 0.012006 0.000893 0.000000 0.002560 0.000000
# 3 -0.006086 0.000893 0.038143 0.000003 0.008285 -0.000001
# 4 0.000000 0.000000 0.000003 0.085551 0.000000 -0.006543
# 5 -0.001504 0.002560 0.008285 0.000000 0.027938 0.000000
# 6 0.000000 0.000000 -0.000001 -0.006543 0.000000 0.029771
#
#
# Mechanical properties :
#
#
# Convention : Reuss Voigt Hill
#
# Bulk Modulus (GPa) = 25.28661 54.51468 39.90065
# Shear Modulus (GPa) = 21.33418 30.94054 26.13736
#
# Velocity S-wave (km/s) = 3.18312 3.83335 3.52326
# Velocity P-wave (km/s) = 5.05163 6.74414 5.95829
#
# Compressibility (1/GPa) = 0.03954662
#
# Stress axis : x y z
#
# Youngs Moduli (GPa) = 116.46298 83.29334 26.21708
#
# Poissons Ratio (x) = 0.36666 0.15955
# Poissons Ratio (y) = 0.51268 -0.02342
# Poissons Ratio (z) = 0.70875 -0.07441
#
# Static dielectric constant tensor:
#      x y z
#    x 1.843190 0.000000 0.023970 
#    y 0.000000 1.771880 0.000000 
#    z 0.023970 0.000000 1.791590 
# 
# From -- ./inp_files/251469.got.cif
#   From: 2010.05.17/outbox.cif.g08.bks.cpg/sg15_126_cif.got.tgz:251469.got - 2010.06.03 18:47:42.
