data_PCOD9272468
_publ_section_title
;
Structure prediction by ZEFSAII (Michael W. Deem and Ramdas Pophale) SiO2 
 PCOD9272468
Probable space group: C 2/C
;
_chemical_formula_sum "Si O2"
_cell_formula_units_Z 48
_cell_length_a 26.712222
_cell_length_b 10.492845
_cell_length_c 7.678043
_cell_angle_alpha 90.000000
_cell_angle_beta 99.892053
_cell_angle_gamma 90.000000
_cell_volume 2120.062930
_symmetry_space_group_name_H-M "C 2/C"
_symmetry_group_IT_number 15
_symmetry_cell_setting 'monoclinic'
loop_
_space_group_symop_operation_xyz
x,y,z
-x,y,1/2-z
-x,-y,-z
x,-y,1/2+z
1/2+x,1/2+y,z
1/2-x,1/2+y,1/2-z
1/2-x,1/2-y,-z
1/2+x,1/2-y,1/2+z
loop_
_atom_site_type_symbol
_atom_site_label
_atom_site_fract_x
_atom_site_fract_y
_atom_site_fract_z
Si Si1 0.906058 0.916796 0.924567
Si Si2 0.500000 0.626317 0.250000
Si Si3 0.727547 0.385533 0.202338
Si Si4 0.624076 0.679467 0.726592
Si Si5 0.057081 0.341828 0.480111
Si Si6 0.000000 0.537962 0.250000
Si Si7 0.301308 0.334297 0.715247
O O1 0.960503 0.931342 0.864450
O O2 0.861233 0.842578 0.794859
O O3 0.885179 0.060338 0.908339
O O4 0.907095 0.852932 0.115986
O O5 0.537760 0.715071 0.379983
O O6 0.683534 0.331292 0.303505
O O7 0.726635 0.538933 0.222086
O O8 0.777641 0.300683 0.259979
O O9 0.709022 0.349876 0.996565
O O10 0.607193 0.807301 0.618000
O O11 0.014792 0.378281 0.596445
O O12 0.048792 0.451192 0.331030
#
# Coordination Sequence:
#
# PCOD9272468 Si02
#       7
#     8   4   8   8   8   4   8
#     4  11  23  37  60  90 123 157 198 250 304 362
#     4  11  22  37  60  88 118 157 200 245 298 362
#     4  10  21  39  64  90 123 160 200 252 310 368
#     4  11  22  38  60  88 121 157 197 249 305 364
#     4  10  20  37  57  79 113 151 198 243 295 351
#     4   9  20  37  56  78 110 155 196 249 294 344
#     4  10  21  40  63  91 124 159 201 254 308 366
#
# _framework density 22.640839
#
# number of rings (size 3 to 8) (size 9 to 14) (size 15 to 20)
#    0.000    1.667    0.000    7.000    0.000    6.000 
#    0.000   10.000    0.000    0.000    0.000    0.000 
#    0.000    0.000    0.000    0.000    0.000    0.000 
#
# Total GULP energy -133811.376799 kJ/mol
# GULP energy per Si atom -5575.474033 kJ/mol
# Density = 2.258931 g / cm^3
# Si number density = 22.640839 Si / 1000 Ang^3
#
#
#
# Elastic Constant Matrix: (Units=GPa)
#
#
# Indices 1 2 3 4 5 6 
#
# 1 84.6384 30.3518 15.5527 0.0000 -7.1876 0.0000
# 2 30.3518 45.3839 15.6477 0.0000 1.5184 0.0000
# 3 15.5527 15.6477 79.6229 0.0000 2.0895 0.0000
# 4 0.0000 0.0000 0.0000 -16.4095 0.0000 -100.3911
# 5 -7.1876 1.5184 2.0895 0.0000 31.4649 0.0000
# 6 0.0000 0.0000 0.0000 -100.3911 0.0000 -238.6357
#
#
#
# Elastic Compliance Matrix: (Units=1/GPa)
#
#
# Indices 1 2 3 4 5 6 
#
# 1 0.016184 -0.010553 -0.001200 0.000000 0.004286 0.000000
# 2 -0.010553 0.030539 -0.003845 0.000000 -0.003629 0.000000
# 3 -0.001200 -0.003845 0.013575 0.000000 -0.000990 0.000000
# 4 0.000000 0.000000 0.000000 0.038724 0.000000 -0.016291
# 5 0.004286 -0.003629 -0.000990 0.000000 0.033001 0.000000
# 6 0.000000 0.000000 0.000000 -0.016291 0.000000 0.002663
#
#
# Mechanical properties :
#
#
# Convention : Reuss Voigt Hill
#
# Bulk Modulus (GPa) = 34.36158 36.97217 35.66688
# Shear Modulus (GPa) = 28.47662 -34.84319 -3.18329
#
# Velocity S-wave (km/s) = 3.55033 -3.92721 -1.18703
# Velocity P-wave (km/s) = 5.65829 2.04905 3.72945
#
# Compressibility (1/GPa) = 0.02910227
#
# Stress axis : x y z
#
# Youngs Moduli (GPa) = 61.79030 32.74495 73.66401
#
# Poissons Ratio (x) = 0.34556 0.08838
# Poissons Ratio (y) = 0.65208 0.28324
# Poissons Ratio (z) = 0.07413 0.12591
#
# Static dielectric constant tensor:
#      x y z
#    x 1.873720 0.000000 0.019520 
#    y 0.000000 1.825190 0.000000 
#    z 0.019520 0.000000 1.992260 
# 
# From -- ./inp_files/60691.got.cif
#   From: 2010.05.17/outbox.cif.g08.bks.cpg/sg15_31_cif.got.tgz:60691.got - 2010.06.03 18:47:42.
