data_PCOD9272861
_publ_section_title
;
Structure prediction by ZEFSAII (Michael W. Deem and Ramdas Pophale) SiO2 
 PCOD9272861
Probable space group: C 2/C
;
_chemical_formula_sum "Si O2"
_cell_formula_units_Z 48
_cell_length_a 9.773717
_cell_length_b 16.514738
_cell_length_c 31.263982
_cell_angle_alpha 90.000000
_cell_angle_beta 148.231832
_cell_angle_gamma 90.000000
_cell_volume 2656.810231
_symmetry_space_group_name_H-M "C 2/C"
_symmetry_group_IT_number 15
_symmetry_cell_setting 'monoclinic'
loop_
_space_group_symop_operation_xyz
x,y,z
-x,y,1/2-z
-x,-y,-z
x,-y,1/2+z
1/2+x,1/2+y,z
1/2-x,1/2+y,1/2-z
1/2-x,1/2-y,-z
1/2+x,1/2-y,1/2+z
loop_
_atom_site_type_symbol
_atom_site_label
_atom_site_fract_x
_atom_site_fract_y
_atom_site_fract_z
Si Si1 0.873559 0.115906 0.057118
Si Si2 0.302709 0.073252 0.235173
Si Si3 0.064785 0.048069 0.815740
Si Si4 0.098969 0.549792 0.461656
Si Si5 0.151880 0.324442 0.051459
Si Si6 0.219954 0.642750 0.408867
O O1 0.073852 0.120897 0.149779
O O2 0.033162 0.128975 0.056240
O O3 0.626971 0.173431 0.998672
O O4 0.763632 0.024213 0.025238
O O5 0.500000 0.046414 0.250000
O O6 0.467493 0.126103 0.312347
O O7 0.172894 0.998564 0.225273
O O8 0.152936 0.125049 0.866611
O O9 0.000000 0.070482 0.750000
O O10 0.309227 0.985987 0.879867
O O11 0.107760 0.623382 0.497111
O O12 0.205773 0.581644 0.444898
O O13 0.257882 0.235506 0.070769
#
# Coordination Sequence:
#
# PCOD9272861 Si02
#       6
#     8   8   8   8   8   8
#     4  10  20  39  61  82 114 155 195 226 280 345
#     4  10  20  37  61  80 114 156 187 233 285 340
#     4  11  20  38  63  82 111 153 203 224 277 347
#     4  11  20  37  64  83 113 156 188 233 280 345
#     4  11  22  38  59  88 116 150 186 246 282 332
#     4  11  23  35  59  89 121 145 188 238 296 326
#
# _framework density 18.066777999999999
#
# number of rings (size 3 to 8) (size 9 to 14) (size 15 to 20)
#    0.000    1.333    5.000    2.500    0.000    2.000 
#    0.000    0.000    3.667    0.000    0.000    0.000 
#    0.000    0.000    0.000    0.000    0.000    0.000 
#
# Total GULP energy -134005.563436 kJ/mol
# GULP energy per Si atom -5583.565143 kJ/mol
# Density = 1.802566 g / cm^3
# Si number density = 18.066778 Si / 1000 Ang^3
#
#
#
# Elastic Constant Matrix: (Units=GPa)
#
#
# Indices 1 2 3 4 5 6 
#
# 1 45.0980 -1.4046 17.0743 0.0001 -8.5560 0.0000
# 2 -1.4046 41.1045 15.4147 0.0002 9.7048 0.0001
# 3 17.0743 15.4147 81.5922 -0.0016 1.2369 0.0006
# 4 0.0001 0.0002 -0.0016 18.3669 -0.0001 -0.1886
# 5 -8.5560 9.7048 1.2369 -0.0001 28.3178 -0.0001
# 6 0.0000 0.0001 0.0006 -0.1886 -0.0001 25.1350
#
#
#
# Elastic Compliance Matrix: (Units=1/GPa)
#
#
# Indices 1 2 3 4 5 6 
#
# 1 0.025841 0.001240 -0.005757 -0.000001 0.007634 0.000000
# 2 0.001240 0.028613 -0.005526 -0.000001 -0.009190 0.000000
# 3 -0.005757 -0.005526 0.014512 0.000001 -0.000480 0.000000
# 4 -0.000001 -0.000001 0.000001 0.054450 0.000000 0.000409
# 5 0.007634 -0.009190 -0.000480 0.000000 0.040791 0.000000
# 6 0.000000 0.000000 0.000000 0.000409 0.000000 0.039788
#
#
# Mechanical properties :
#
#
# Convention : Reuss Voigt Hill
#
# Bulk Modulus (GPa) = 20.45892 25.55151 23.00521
# Shear Modulus (GPa) = 20.80094 23.47798 22.13946
#
# Velocity S-wave (km/s) = 3.39682 3.60878 3.50440
# Velocity P-wave (km/s) = 5.17041 5.61587 5.39773
#
# Compressibility (1/GPa) = 0.04887844
#
# Stress axis : x y z
#
# Youngs Moduli (GPa) = 38.69867 34.94971 68.90798
#
# Poissons Ratio (x) = -0.04333 0.39674
# Poissons Ratio (y) = -0.04798 0.38077
# Poissons Ratio (z) = 0.22281 0.19312
#
# Static dielectric constant tensor:
#      x y z
#    x 1.627130 0.000000 0.003670 
#    y 0.000000 1.583930 0.000000 
#    z 0.003670 0.000000 1.619160 
# 
# From -- ./inp_files/134791.got.cif
#   From: 2010.05.17/outbox.cif.g08.bks.cpg/sg15_68_cif.got.tgz:134791.got - 2010.06.03 18:47:42.
