data_PCOD9272501
_publ_section_title
;
Structure prediction by ZEFSAII (Michael W. Deem and Ramdas Pophale) SiO2 
 PCOD9272501
Probable space group: C 2/C
;
_chemical_formula_sum "Si O2"
_cell_formula_units_Z 56
_cell_length_a 9.710201
_cell_length_b 21.434619
_cell_length_c 13.215270
_cell_angle_alpha 90.000000
_cell_angle_beta 73.297273
_cell_angle_gamma 90.000000
_cell_volume 2634.503982
_symmetry_space_group_name_H-M "C 2/C"
_symmetry_group_IT_number 15
_symmetry_cell_setting 'monoclinic'
loop_
_space_group_symop_operation_xyz
x,y,z
-x,y,1/2-z
-x,-y,-z
x,-y,1/2+z
1/2+x,1/2+y,z
1/2-x,1/2+y,1/2-z
1/2-x,1/2-y,-z
1/2+x,1/2-y,1/2+z
loop_
_atom_site_type_symbol
_atom_site_label
_atom_site_fract_x
_atom_site_fract_y
_atom_site_fract_z
Si Si1 0.000000 0.775381 0.250000
Si Si2 0.000000 0.743806 0.750000
Si Si3 0.061499 0.261258 0.448044
Si Si4 0.873647 0.897845 0.343582
Si Si5 0.305131 0.795195 0.640469
Si Si6 0.966409 0.417835 0.596655
Si Si7 0.069292 0.560701 0.844199
Si Si8 0.252022 0.146727 0.448253
O O1 0.078807 0.824745 0.161248
O O2 0.119601 0.734535 0.276898
O O3 0.946896 0.708859 0.661443
O O4 0.862598 0.781354 0.820688
O O5 0.136691 0.193040 0.420430
O O6 0.157237 0.304541 0.500424
O O7 0.902620 0.263278 0.531647
O O8 0.729284 0.911748 0.314457
O O9 0.834427 0.906072 0.469120
O O10 0.000000 0.927811 0.250000
O O11 0.340551 0.867776 0.634036
O O12 0.927418 0.485564 0.644883
O O13 0.997464 0.420238 0.467829
O O14 0.110588 0.391573 0.622868
O O15 0.000000 0.575710 0.750000
#
# Coordination Sequence:
#
# PCOD9272501 Si02
#       8
#     4   4   8   8   8   8   8   8
#     4  10  20  38  67  90 119 172 212 244 310 386
#     4  12  26  34  55  94 133 172 196 256 324 372
#     4  10  20  37  57  86 131 164 203 250 310 381
#     4   9  18  36  57  92 115 156 207 250 297 375
#     4  11  23  42  59  94 132 166 209 260 317 388
#     4   9  22  40  65  89 124 161 215 263 305 380
#     4  10  21  42  66  91 119 162 215 264 317 360
#     4   9  17  35  61  84 115 166 207 248 300 377
#
# _framework density 21.256371999999999
#
# number of rings (size 3 to 8) (size 9 to 14) (size 15 to 20)
#    0.429    1.714    1.429    1.286    5.000    0.000 
#   27.000    0.000    0.000    2.571    0.000    0.000 
#    0.000    0.000    0.000    0.000    0.000    0.000 
#
# Total GULP energy -155915.912454 kJ/mol
# GULP energy per Si atom -5568.425445 kJ/mol
# Density = 2.120799 g / cm^3
# Si number density = 21.256372 Si / 1000 Ang^3
#
#
#
# Elastic Constant Matrix: (Units=GPa)
#
#
# Indices 1 2 3 4 5 6 
#
# 1 113.4318 31.1891 35.6770 0.0000 -20.3220 0.0000
# 2 31.1891 63.3215 -9.6292 0.0000 -7.6969 0.0000
# 3 35.6770 -9.6292 68.4048 0.0000 -8.7870 0.0000
# 4 0.0000 0.0000 0.0000 6.7855 0.0000 9.1462
# 5 -20.3220 -7.6969 -8.7870 0.0000 47.8467 0.0000
# 6 0.0000 0.0000 0.0000 9.1462 0.0000 7.2186
#
#
#
# Elastic Compliance Matrix: (Units=1/GPa)
#
#
# Indices 1 2 3 4 5 6 
#
# 1 0.014039 -0.007736 -0.007994 0.000000 0.003251 0.000000
# 2 -0.007736 0.020858 0.007148 0.000000 0.001382 0.000000
# 3 -0.007994 0.007148 0.019977 0.000000 0.001424 0.000000
# 4 0.000000 0.000000 0.000000 -0.208207 0.000000 0.263804
# 5 0.003251 0.001382 0.001424 0.000000 0.022764 0.000000
# 6 0.000000 0.000000 0.000000 0.263804 0.000000 -0.195716
#
#
# Mechanical properties :
#
#
# Convention : Reuss Voigt Hill
#
# Bulk Modulus (GPa) = 26.51674 39.95909 33.23792
# Shear Modulus (GPa) = -16.86049 24.89826 4.01889
#
# Velocity S-wave (km/s) = -2.81943 3.42619 1.37651
# Velocity P-wave (km/s) = 1.37945 5.87291 4.26579
#
# Compressibility (1/GPa) = 0.03771203
#
# Stress axis : x y z
#
# Youngs Moduli (GPa) = 71.22800 47.94402 50.05722
#
# Poissons Ratio (x) = 0.37088 0.40014
# Poissons Ratio (y) = 0.55099 -0.35782
# Poissons Ratio (z) = 0.56938 -0.34272
#
# Static dielectric constant tensor:
#      x y z
#    x 1.766750 0.000000 0.002480 
#    y 0.000000 1.782030 0.000000 
#    z 0.002480 0.000000 1.952480 
# 
# From -- ./inp_files/137315.got.cif
#   From: 2010.05.17/outbox.cif.g08.bks.cpg/sg15_69_cif.got.tgz:137315.got - 2010.06.03 18:47:42.
