data_PCOD9272321
_publ_section_title
;
Structure prediction by ZEFSAII (Michael W. Deem and Ramdas Pophale) SiO2 
 PCOD9272321
Probable space group: C 2/C
;
_chemical_formula_sum "Si O2"
_cell_formula_units_Z 36
_cell_length_a 16.259029
_cell_length_b 17.716248
_cell_length_c 7.693957
_cell_angle_alpha 90.000000
_cell_angle_beta 39.985524
_cell_angle_gamma 90.000000
_cell_volume 1424.140405
_symmetry_space_group_name_H-M "C 2/C"
_symmetry_group_IT_number 15
_symmetry_cell_setting 'monoclinic'
loop_
_space_group_symop_operation_xyz
x,y,z
-x,y,1/2-z
-x,-y,-z
x,-y,1/2+z
1/2+x,1/2+y,z
1/2-x,1/2+y,1/2-z
1/2-x,1/2-y,-z
1/2+x,1/2-y,1/2+z
loop_
_atom_site_type_symbol
_atom_site_label
_atom_site_fract_x
_atom_site_fract_y
_atom_site_fract_z
Si Si1 0.400092 0.770136 0.262160
Si Si2 0.720581 0.091668 0.017564
Si Si3 0.500000 0.798969 0.750000
Si Si4 0.717279 0.084960 0.439848
Si Si5 0.499354 0.410998 0.459289
O O1 0.500000 0.746153 0.250000
O O2 0.250000 0.750000 0.500000
O O3 0.386830 0.861889 0.301700
O O4 0.463223 0.750553 0.976295
O O5 0.617642 0.147703 0.106945
O O6 0.715321 0.097686 0.235323
O O7 0.859282 0.115227 0.717333
O O8 0.698396 0.003522 0.008335
O O9 0.861792 0.109719 0.261847
O O10 0.500000 0.404348 0.250000
O O11 0.500000 0.500000 0.500000
#
# Coordination Sequence:
#
# PCOD9272321 Si02
#       5
#     8   8   4   8   8
#     4  12  29  52  72 103 143 194 253 301 356 436
#     4  10  20  36  69 110 144 179 226 298 371 434
#     4  12  26  46  76 106 140 186 238 300 378 424
#     4  10  20  40  67 103 146 180 232 294 366 432
#     4   8  16  31  54  92 136 176 212 268 344 419
#
# _framework density 25.278407000000001
#
# number of rings (size 3 to 8) (size 9 to 14) (size 15 to 20)
#    0.000    1.778    2.222    1.333    1.556    6.222 
#    6.000    3.333    0.000    0.000    0.000    0.000 
#    0.000    0.000    0.000    0.000    0.000    0.000 
#
# Total GULP energy -100746.153449 kJ/mol
# GULP energy per Si atom -5597.008525 kJ/mol
# Density = 2.522087 g / cm^3
# Si number density = 25.278407 Si / 1000 Ang^3
#
#
#
# Elastic Constant Matrix: (Units=GPa)
#
#
# Indices 1 2 3 4 5 6 
#
# 1 156.8515 22.3594 72.7340 0.0000 -13.1728 0.0000
# 2 22.3594 72.1834 21.9950 0.0000 -8.4313 0.0000
# 3 72.7340 21.9950 117.9736 0.0000 2.0816 0.0000
# 4 0.0000 0.0000 0.0000 60.3927 0.0000 -9.4995
# 5 -13.1728 -8.4313 2.0816 0.0000 57.8981 0.0000
# 6 0.0000 0.0000 0.0000 -9.4995 0.0000 27.7199
#
#
#
# Elastic Compliance Matrix: (Units=1/GPa)
#
#
# Indices 1 2 3 4 5 6 
#
# 1 0.009281 -0.000917 -0.005590 0.000000 0.002179 0.000000
# 2 -0.000917 0.015075 -0.002281 0.000000 0.002069 0.000000
# 3 -0.005590 -0.002281 0.012384 0.000000 -0.002049 0.000000
# 4 0.000000 0.000000 0.000000 0.017502 0.000000 0.005998
# 5 0.002179 0.002069 -0.002049 0.000000 0.018142 0.000000
# 6 0.000000 0.000000 0.000000 0.005998 0.000000 0.038131
#
#
# Mechanical properties :
#
#
# Convention : Reuss Voigt Hill
#
# Bulk Modulus (GPa) = 52.18314 64.57615 58.37964
# Shear Modulus (GPa) = 37.18063 44.53015 40.85539
#
# Velocity S-wave (km/s) = 3.83932 4.20168 4.02458
# Velocity P-wave (km/s) = 6.35154 7.01001 6.68888
#
# Compressibility (1/GPa) = 0.01916328
#
# Stress axis : x y z
#
# Youngs Moduli (GPa) = 107.74541 66.33706 80.74881
#
# Poissons Ratio (x) = 0.06085 0.45135
# Poissons Ratio (y) = 0.09883 0.18423
# Poissons Ratio (z) = 0.60225 0.15135
#
# Static dielectric constant tensor:
#      x y z
#    x 1.973810 0.000000 0.002350 
#    y 0.000000 2.101580 0.000000 
#    z 0.002350 0.000000 1.962060 
# 
# From -- ./inp_files/48247.got.cif
#   From: 2010.05.17/outbox.cif.g08.bks.cpg/sg15_25_cif.got.tgz:48247.got - 2010.06.03 18:47:42.
