data_PCOD9272402
_publ_section_title
;
Structure prediction by ZEFSAII (Michael W. Deem and Ramdas Pophale) SiO2 
 PCOD9272402
Probable space group: C 2/C
;
_chemical_formula_sum "Si O2"
_cell_formula_units_Z 52
_cell_length_a 27.011018
_cell_length_b 5.553605
_cell_length_c 17.537379
_cell_angle_alpha 90.000000
_cell_angle_beta 83.410096
_cell_angle_gamma 90.000000
_cell_volume 2613.374950
_symmetry_space_group_name_H-M "C 2/C"
_symmetry_group_IT_number 15
_symmetry_cell_setting 'monoclinic'
loop_
_space_group_symop_operation_xyz
x,y,z
-x,y,1/2-z
-x,-y,-z
x,-y,1/2+z
1/2+x,1/2+y,z
1/2-x,1/2+y,1/2-z
1/2-x,1/2-y,-z
1/2+x,1/2-y,1/2+z
loop_
_atom_site_type_symbol
_atom_site_label
_atom_site_fract_x
_atom_site_fract_y
_atom_site_fract_z
Si Si1 0.572122 0.683170 0.807925
Si Si2 0.860394 0.744692 0.958965
Si Si3 0.500000 0.685369 0.250000
Si Si4 0.100226 0.573576 0.706443
Si Si5 0.306872 0.251060 0.515331
Si Si6 0.130894 0.201835 0.362391
Si Si7 0.445738 0.031335 0.045257
O O1 0.530771 0.483110 0.801190
O O2 0.618534 0.571321 0.844397
O O3 0.547965 0.868922 0.870216
O O4 0.592250 0.790786 0.725032
O O5 0.870632 0.684593 0.868674
O O6 0.827517 0.513620 0.989888
O O7 0.835630 0.008216 0.977400
O O8 0.911978 0.704081 0.997402
O O9 0.456551 0.839888 0.294176
O O10 0.123444 0.664287 0.782894
O O11 0.250000 0.250000 0.500000
O O12 0.317243 0.268648 0.604252
O O13 0.089111 0.299067 0.430069
O O14 0.500000 0.000000 0.000000
#
# Coordination Sequence:
#
# PCOD9272402 Si02
#       7
#     8   8   4   8   8   8   8
#     4  10  20  37  55  81 129 178 219 257 324 378
#     4  11  25  42  67 102 131 167 229 279 326 403
#     4  10  22  32  56  84 128 182 220 246 316 390
#     4  10  23  38  58  93 133 173 219 270 325 389
#     4  11  24  48  72  96 125 171 219 286 349 397
#     4   9  21  41  60  89 126 175 212 265 328 398
#     4  10  22  35  57  89 133 175 221 262 320 392
#
# _framework density 19.897642999999999
#
# number of rings (size 3 to 8) (size 9 to 14) (size 15 to 20)
#    0.000    1.846    1.538    0.923   12.923    1.846 
#    0.000    1.538    0.000    0.000    0.000    0.000 
#    0.000    0.000    0.000    0.000    0.000    0.000 
#
# Total GULP energy -144748.296276 kJ/mol
# GULP energy per Si atom -5567.242164 kJ/mol
# Density = 1.985235 g / cm^3
# Si number density = 19.897643 Si / 1000 Ang^3
#
#
#
# Elastic Constant Matrix: (Units=GPa)
#
#
# Indices 1 2 3 4 5 6 
#
# 1 110.5216 19.9273 18.1896 0.0000 28.4233 0.0000
# 2 19.9273 77.6738 10.0735 0.0000 3.8093 0.0000
# 3 18.1896 10.0735 79.9278 0.0000 17.6922 0.0000
# 4 0.0000 0.0000 0.0000 15.5122 0.0000 8.4986
# 5 28.4233 3.8093 17.6922 0.0000 21.6764 0.0000
# 6 0.0000 0.0000 0.0000 8.4986 0.0000 27.1147
#
#
#
# Elastic Compliance Matrix: (Units=1/GPa)
#
#
# Indices 1 2 3 4 5 6 
#
# 1 0.014341 -0.002908 0.001406 0.000000 -0.019441 0.000000
# 2 -0.002908 0.013702 -0.001680 0.000000 0.002776 0.000000
# 3 0.001406 -0.001680 0.015556 0.000000 -0.014246 0.000000
# 4 0.000000 0.000000 0.000000 0.077830 0.000000 -0.024395
# 5 -0.019441 0.002776 -0.014246 0.000000 0.082764 0.000000
# 6 0.000000 0.000000 0.000000 -0.024395 0.000000 0.044526
#
#
# Mechanical properties :
#
#
# Convention : Reuss Voigt Hill
#
# Bulk Modulus (GPa) = 26.85570 40.50044 33.67807
# Shear Modulus (GPa) = 18.69195 27.52285 23.10740
#
# Velocity S-wave (km/s) = 3.06830 3.72320 3.41150
# Velocity P-wave (km/s) = 5.10674 6.23551 5.69914
#
# Compressibility (1/GPa) = 0.03723604
#
# Stress axis : x y z
#
# Youngs Moduli (GPa) = 69.73225 72.98147 64.28268
#
# Poissons Ratio (x) = 0.21223 -0.09040
# Poissons Ratio (y) = 0.20279 0.10797
# Poissons Ratio (z) = -0.09806 0.12258
#
# Static dielectric constant tensor:
#      x y z
#    x 1.716000 0.000000 0.027680 
#    y 0.000000 1.835480 0.000000 
#    z 0.027680 0.000000 1.737250 
# 
# From -- ./inp_files/220911.got.cif
#   From: 2010.05.17/outbox.cif.g08.bks.cpg/sg15_111_cif.got.tgz:220911.got - 2010.06.03 18:47:42.
