data_PCOD9272069
_publ_section_title
;
Structure prediction by ZEFSAII (Michael W. Deem and Ramdas Pophale) SiO2 
 PCOD9272069
Probable space group: C 2/C
;
_chemical_formula_sum "Si O2"
_cell_formula_units_Z 48
_cell_length_a 13.269218
_cell_length_b 19.933789
_cell_length_c 13.640844
_cell_angle_alpha 90.000000
_cell_angle_beta 138.501503
_cell_angle_gamma 90.000000
_cell_volume 2390.716742
_symmetry_space_group_name_H-M "C 2/C"
_symmetry_group_IT_number 15
_symmetry_cell_setting 'monoclinic'
loop_
_space_group_symop_operation_xyz
x,y,z
-x,y,1/2-z
-x,-y,-z
x,-y,1/2+z
1/2+x,1/2+y,z
1/2-x,1/2+y,1/2-z
1/2-x,1/2-y,-z
1/2+x,1/2-y,1/2+z
loop_
_atom_site_type_symbol
_atom_site_label
_atom_site_fract_x
_atom_site_fract_y
_atom_site_fract_z
Si Si1 0.000000 0.827700 0.750000
Si Si2 0.918826 0.114660 0.888565
Si Si3 0.324862 0.444565 0.506676
Si Si4 0.000000 0.056889 0.750000
Si Si5 0.000000 0.262086 0.750000
Si Si6 0.000000 0.392372 0.250000
Si Si7 0.675103 0.700626 0.061501
Si Si8 0.653526 0.215413 0.732052
O O1 0.093849 0.877832 0.888822
O O2 0.116834 0.778473 0.776793
O O3 0.818339 0.179580 0.846773
O O4 0.907159 0.097336 0.765268
O O5 0.864682 0.056290 0.920641
O O6 0.094092 0.132757 0.035557
O O7 0.388368 0.508515 0.608392
O O8 0.145640 0.435049 0.384881
O O9 0.143006 0.303014 0.811322
O O10 0.910255 0.219253 0.602218
O O11 0.954504 0.343231 0.306376
O O12 0.630787 0.757959 0.106399
#
# Coordination Sequence:
#
# PCOD9272069 Si02
#       8
#     4   8   8   4   4   4   8   8
#     4  10  20  36  63  96 127 159 191 258 302 382
#     4  11  22  39  65  90 120 165 201 256 306 363
#     4  10  22  42  63  90 119 163 215 250 304 349
#     4  11  25  43  64  80 119 171 221 252 288 359
#     4  10  23  32  52  80 136 160 189 224 296 382
#     4   9  22  37  63  92 124 152 193 270 314 347
#     4  11  20  37  55  90 124 163 190 241 299 382
#     4  10  21  34  62  96 128 151 196 245 327 367
#
# _framework density 20.077660999999999
#
# number of rings (size 3 to 8) (size 9 to 14) (size 15 to 20)
#    0.000    1.667    3.333    1.000    4.667    2.000 
#    0.000    4.167    0.000    0.000    0.000    0.000 
#    0.000    0.000    0.000    0.000    0.000    0.000 
#
# Total GULP energy -133808.059551 kJ/mol
# GULP energy per Si atom -5575.335815 kJ/mol
# Density = 2.003196 g / cm^3
# Si number density = 20.077661 Si / 1000 Ang^3
#
#
#
# Elastic Constant Matrix: (Units=GPa)
#
#
# Indices 1 2 3 4 5 6 
#
# 1 134.5595 32.3617 48.1816 0.0000 13.6421 0.0000
# 2 32.3617 50.2669 19.2427 0.0000 10.1626 0.0000
# 3 48.1816 19.2427 83.8993 0.0000 6.2124 0.0000
# 4 0.0000 0.0000 0.0000 34.9836 0.0000 -0.8928
# 5 13.6421 10.1626 6.2124 0.0000 40.6117 0.0000
# 6 0.0000 0.0000 0.0000 -0.8928 0.0000 19.4958
#
#
#
# Elastic Compliance Matrix: (Units=1/GPa)
#
#
# Indices 1 2 3 4 5 6 
#
# 1 0.010412 -0.004529 -0.004820 0.000000 -0.001627 0.000000
# 2 -0.004529 0.024722 -0.002755 0.000000 -0.004244 0.000000
# 3 -0.004820 -0.002755 0.015322 0.000000 -0.000035 0.000000
# 4 0.000000 0.000000 0.000000 0.028618 0.000000 0.001311
# 5 -0.001627 -0.004244 -0.000035 0.000000 0.026237 0.000000
# 6 0.000000 0.000000 0.000000 0.001311 0.000000 0.051353
#
#
# Mechanical properties :
#
#
# Convention : Reuss Voigt Hill
#
# Bulk Modulus (GPa) = 38.09904 52.03307 45.06606
# Shear Modulus (GPa) = 26.36835 30.28087 28.32461
#
# Velocity S-wave (km/s) = 3.62790 3.88775 3.76007
# Velocity P-wave (km/s) = 6.04698 6.79154 6.43004
#
# Compressibility (1/GPa) = 0.02624738
#
# Stress axis : x y z
#
# Youngs Moduli (GPa) = 96.04563 40.44953 65.26743
#
# Poissons Ratio (x) = 0.18320 0.31459
# Poissons Ratio (y) = 0.43499 0.17981
# Poissons Ratio (z) = 0.46294 0.11144
#
# Static dielectric constant tensor:
#      x y z
#    x 1.783030 0.000000 -0.018890 
#    y 0.000000 1.741100 0.000000 
#    z -0.018890 0.000000 1.710270 
# 
# From -- ./inp_files/40743.got.cif
#   From: 2010.05.17/outbox.cif.g08.bks.cpg/sg15_21_cif.got.tgz:40743.got - 2010.06.03 18:47:42.
