data_PCOD9272290
_publ_section_title
;
Structure prediction by ZEFSAII (Michael W. Deem and Ramdas Pophale) SiO2 
 PCOD9272290
Probable space group: C 2/C
;
_chemical_formula_sum "Si O2"
_cell_formula_units_Z 36
_cell_length_a 11.682380
_cell_length_b 6.864034
_cell_length_c 24.358798
_cell_angle_alpha 90.000000
_cell_angle_beta 40.888327
_cell_angle_gamma 90.000000
_cell_volume 1278.597520
_symmetry_space_group_name_H-M "C 2/C"
_symmetry_group_IT_number 15
_symmetry_cell_setting 'monoclinic'
loop_
_space_group_symop_operation_xyz
x,y,z
-x,y,1/2-z
-x,-y,-z
x,-y,1/2+z
1/2+x,1/2+y,z
1/2-x,1/2+y,1/2-z
1/2-x,1/2-y,-z
1/2+x,1/2-y,1/2+z
loop_
_atom_site_type_symbol
_atom_site_label
_atom_site_fract_x
_atom_site_fract_y
_atom_site_fract_z
Si Si1 0.500000 0.577986 0.250000
Si Si2 0.574178 0.408454 0.530358
Si Si3 0.316628 0.901212 0.580876
Si Si4 0.399651 0.846688 0.184007
Si Si5 0.040136 0.773917 0.360458
O O1 0.342533 0.466899 0.338780
O O2 0.456798 0.726205 0.216077
O O3 0.500000 0.500000 0.500000
O O4 0.714910 0.253514 0.456472
O O5 0.438789 0.276959 0.614890
O O6 0.609363 0.584065 0.560910
O O7 0.358043 0.777493 0.620156
O O8 0.500000 0.000000 0.500000
O O9 0.188772 0.871740 0.268231
O O10 0.493674 0.057584 0.149505
#
# Coordination Sequence:
#
# PCOD9272290 Si02
#       5
#     4   8   8   8   8
#     4  10  26  40  66 106 136 180 240 292 344 418
#     4  10  21  36  67 100 131 179 236 279 348 419
#     4  10  20  41  67  95 135 181 222 286 348 404
#     4  11  20  40  65  96 138 178 234 287 345 411
#     4  10  20  36  67  94 128 185 226 276 343 414
#
# _framework density 28.155847000000001
#
# number of rings (size 3 to 8) (size 9 to 14) (size 15 to 20)
#    0.000    1.778    4.444    0.000    0.000    0.889 
#    0.000    2.222    9.778    0.000    0.000    0.000 
#    0.000    0.000    0.000    0.000    0.000    0.000 
#
# Total GULP energy -100466.347993 kJ/mol
# GULP energy per Si atom -5581.463777 kJ/mol
# Density = 2.809176 g / cm^3
# Si number density = 28.155847 Si / 1000 Ang^3
#
#
#
# Elastic Constant Matrix: (Units=GPa)
#
#
# Indices 1 2 3 4 5 6 
#
# 1 75.4905 26.9434 44.9215 -0.0002 31.9926 -0.0006
# 2 26.9434 160.9820 79.1349 -0.0009 4.3170 -0.0011
# 3 44.9215 79.1349 286.5281 -0.0001 15.2305 -0.0001
# 4 -0.0002 -0.0009 -0.0001 70.9120 0.0000 7.6467
# 5 31.9926 4.3170 15.2305 0.0000 57.9636 -0.0002
# 6 -0.0006 -0.0011 -0.0001 7.6467 -0.0002 48.7071
#
#
#
# Elastic Compliance Matrix: (Units=1/GPa)
#
#
# Indices 1 2 3 4 5 6 
#
# 1 0.019378 -0.002017 -0.001948 0.000000 -0.010033 0.000000
# 2 -0.002017 0.007398 -0.001782 0.000000 0.001030 0.000000
# 3 -0.001948 -0.001782 0.004283 0.000000 0.000082 0.000000
# 4 0.000000 0.000000 0.000000 0.014345 0.000000 -0.002252
# 5 -0.010033 0.001030 0.000082 0.000000 0.022692 0.000000
# 6 0.000000 0.000000 0.000000 -0.002252 0.000000 0.020884
#
#
# Mechanical properties :
#
#
# Convention : Reuss Voigt Hill
#
# Bulk Modulus (GPa) = 51.10877 91.66670 71.38773
# Shear Modulus (GPa) = 46.73180 60.31658 53.52419
#
# Velocity S-wave (km/s) = 4.07843 4.63346 4.36477
# Velocity P-wave (km/s) = 6.35371 7.82642 7.12820
#
# Compressibility (1/GPa) = 0.01956612
#
# Stress axis : x y z
#
# Youngs Moduli (GPa) = 51.60608 135.17855 233.47455
#
# Poissons Ratio (x) = 0.27262 0.45473
# Poissons Ratio (y) = 0.10407 0.41598
# Poissons Ratio (z) = 0.10051 0.24085
#
# Static dielectric constant tensor:
#      x y z
#    x 2.370550 0.000000 -0.192780 
#    y 0.000000 2.277160 0.000000 
#    z -0.192780 0.000000 2.293150 
# 
# From -- ./inp_files/295360.got.cif
#   From: 2010.05.17/outbox.cif.g08.bks.cpg/sg15_148_cif.got.tgz:295360.got - 2010.06.03 18:47:42.
