data_PCOD9272574
_publ_section_title
;
Structure prediction by ZEFSAII (Michael W. Deem and Ramdas Pophale) SiO2 
 PCOD9272574
Probable space group: C 2/C
;
_chemical_formula_sum "Si O2"
_cell_formula_units_Z 40
_cell_length_a 12.590035
_cell_length_b 12.907755
_cell_length_c 18.528170
_cell_angle_alpha 90.000000
_cell_angle_beta 32.489930
_cell_angle_gamma 90.000000
_cell_volume 1617.360624
_symmetry_space_group_name_H-M "C 2/C"
_symmetry_group_IT_number 15
_symmetry_cell_setting 'monoclinic'
loop_
_space_group_symop_operation_xyz
x,y,z
-x,y,1/2-z
-x,-y,-z
x,-y,1/2+z
1/2+x,1/2+y,z
1/2-x,1/2+y,1/2-z
1/2-x,1/2-y,-z
1/2+x,1/2-y,1/2+z
loop_
_atom_site_type_symbol
_atom_site_label
_atom_site_fract_x
_atom_site_fract_y
_atom_site_fract_z
Si Si1 0.667216 0.307434 0.231194
Si Si2 0.132099 0.086352 0.004098
Si Si3 0.754613 0.038448 0.314479
Si Si4 0.962685 0.608419 0.922085
Si Si5 0.117364 0.847995 0.984645
O O1 0.680861 0.424757 0.192399
O O2 0.477175 0.299088 0.389772
O O3 0.861376 0.310114 0.171440
O O4 0.714738 0.221895 0.145927
O O5 0.940973 0.083110 0.166162
O O6 0.321431 0.129159 0.936674
O O7 0.061840 0.138249 0.970592
O O8 0.180865 0.965516 0.962025
O O9 0.665067 0.104241 0.430699
O O10 0.580770 0.002573 0.358254
#
# Coordination Sequence:
#
# PCOD9272574 Si02
#       5
#     8   8   8   8   8
#     4   9  20  37  57  85 122 150 191 250 290 345
#     4  10  20  37  58  88 115 163 192 242 296 364
#     4   8  18  36  58  86 113 152 196 244 287 359
#     4   9  18  35  61  83 118 151 199 236 297 351
#     4  10  22  37  58  87 124 150 199 246 299 347
#
# _framework density 24.731653999999999
#
# number of rings (size 3 to 8) (size 9 to 14) (size 15 to 20)
#    1.200    1.600    0.000    0.600    2.800    1.600 
#    0.000    1.000    0.000    4.800    0.000    0.000 
#    0.000    0.000    0.000    0.000    0.000    0.000 
#
# Total GULP energy -111787.138341 kJ/mol
# GULP energy per Si atom -5589.356917 kJ/mol
# Density = 2.467536 g / cm^3
# Si number density = 24.731654 Si / 1000 Ang^3
#
#
#
# Elastic Constant Matrix: (Units=GPa)
#
#
# Indices 1 2 3 4 5 6 
#
# 1 117.1657 8.7543 17.9016 0.0003 -26.4351 -0.0001
# 2 8.7543 89.1512 43.3785 0.0011 13.4546 0.0017
# 3 17.9016 43.3785 112.4549 -0.0020 8.3261 0.0040
# 4 0.0003 0.0011 -0.0020 25.7405 0.0036 13.6054
# 5 -26.4351 13.4546 8.3261 0.0036 24.5974 -0.0010
# 6 -0.0001 0.0017 0.0040 13.6054 -0.0010 2.3890
#
#
#
# Elastic Compliance Matrix: (Units=1/GPa)
#
#
# Indices 1 2 3 4 5 6 
#
# 1 0.012591 -0.002536 -0.002185 0.000004 0.015659 -0.000013
# 2 -0.002536 0.015207 -0.004764 -0.000002 -0.009431 0.000004
# 3 -0.002185 -0.004764 0.011343 -0.000005 -0.003582 0.000013
# 4 0.000004 -0.000002 -0.000005 -0.019327 0.000015 0.110065
# 5 0.015659 -0.009431 -0.003582 0.000015 0.063855 -0.000045
# 6 -0.000013 0.000004 0.000013 0.110065 -0.000045 -0.208237
#
#
# Mechanical properties :
#
#
# Convention : Reuss Voigt Hill
#
# Bulk Modulus (GPa) = 49.57753 50.98231 50.27992
# Shear Modulus (GPa) = -50.57104 27.12788 -11.72158
#
# Velocity S-wave (km/s) = -4.52684 3.31552 -2.17940
# Velocity P-wave (km/s) = 2.68949 5.94272 3.74717
#
# Compressibility (1/GPa) = 0.02017043
#
# Stress axis : x y z
#
# Youngs Moduli (GPa) = 79.41931 65.75750 88.15782
#
# Poissons Ratio (x) = 0.16678 0.19267
# Poissons Ratio (y) = 0.20143 0.41999
# Poissons Ratio (z) = 0.17357 0.31327
#
# Static dielectric constant tensor:
#      x y z
#    x 1.985270 0.000000 -0.025120 
#    y 0.000000 1.997430 0.000000 
#    z -0.025120 0.000000 1.914500 
# 
# From -- ./inp_files/86254.got.cif
#   From: 2010.05.17/outbox.cif.g08.bks.cpg/sg15_44_cif.got.tgz:86254.got - 2010.06.03 18:47:42.
