data_PCOD9272252
_publ_section_title
;
Structure prediction by ZEFSAII (Michael W. Deem and Ramdas Pophale) SiO2 
 PCOD9272252
Probable space group: C 2/C
;
_chemical_formula_sum "Si O2"
_cell_formula_units_Z 52
_cell_length_a 10.726320
_cell_length_b 13.802567
_cell_length_c 15.389234
_cell_angle_alpha 90.000000
_cell_angle_beta 107.060291
_cell_angle_gamma 90.000000
_cell_volume 2178.130773
_symmetry_space_group_name_H-M "C 2/C"
_symmetry_group_IT_number 15
_symmetry_cell_setting 'monoclinic'
loop_
_space_group_symop_operation_xyz
x,y,z
-x,y,1/2-z
-x,-y,-z
x,-y,1/2+z
1/2+x,1/2+y,z
1/2-x,1/2+y,1/2-z
1/2-x,1/2-y,-z
1/2+x,1/2-y,1/2+z
loop_
_atom_site_type_symbol
_atom_site_label
_atom_site_fract_x
_atom_site_fract_y
_atom_site_fract_z
Si Si1 0.233741 0.106144 0.902229
Si Si2 0.968879 0.134396 0.083176
Si Si3 0.500000 0.860276 0.250000
Si Si4 0.723386 0.901834 0.639416
Si Si5 0.988759 0.360823 0.050897
Si Si6 0.717997 0.722404 0.743102
Si Si7 0.943700 0.934034 0.394136
O O1 0.377245 0.111726 0.971708
O O2 0.214226 0.203962 0.844453
O O3 0.100578 0.084648 0.923990
O O4 0.256774 0.015365 0.841039
O O5 0.865820 0.132111 0.138616
O O6 0.999627 0.245235 0.069792
O O7 0.073146 0.049166 0.125419
O O8 0.900545 0.095200 0.981381
O O9 0.477910 0.905222 0.147275
O O10 0.636187 0.804333 0.260040
O O11 0.629067 0.885492 0.537122
O O12 0.680185 0.829240 0.705384
O O13 0.622303 0.641785 0.683050
#
# Coordination Sequence:
#
# PCOD9272252 Si02
#       7
#     8   8   4   8   8   8   8
#     4  10  25  38  60  95 129 167 212 257 319 380
#     4  10  20  36  66  94 115 163 215 257 305 375
#     4  10  22  34  62  98 116 154 214 270 306 358
#     4  11  21  41  67  92 122 174 213 261 320 368
#     4  11  20  39  64  93 129 163 212 263 312 374
#     4  11  21  40  64  86 129 162 213 264 313 370
#     4  10  21  39  60  92 127 165 209 255 318 383
#
# _framework density 23.873681000000001
#
# number of rings (size 3 to 8) (size 9 to 14) (size 15 to 20)
#    0.000    1.538    3.077    2.308    0.000    3.077 
#    0.000    0.000   13.538    0.000    0.000    0.000 
#    0.000    0.000    0.000    0.000    0.000    0.000 
#
# Total GULP energy -144947.422987 kJ/mol
# GULP energy per Si atom -5574.900884 kJ/mol
# Density = 2.381934 g / cm^3
# Si number density = 23.873681 Si / 1000 Ang^3
#
#
#
# Elastic Constant Matrix: (Units=GPa)
#
#
# Indices 1 2 3 4 5 6 
#
# 1 67.3959 9.3045 -5.9299 0.0000 6.7691 0.0000
# 2 9.3045 99.1274 3.3936 0.0000 5.2549 0.0000
# 3 -5.9299 3.3936 52.8740 0.0000 -0.5148 0.0000
# 4 0.0000 0.0000 0.0000 23.1931 0.0000 -5.7278
# 5 6.7691 5.2549 -0.5148 0.0000 26.2932 0.0000
# 6 0.0000 0.0000 0.0000 -5.7278 0.0000 24.4908
#
#
#
# Elastic Compliance Matrix: (Units=1/GPa)
#
#
# Indices 1 2 3 4 5 6 
#
# 1 0.015550 -0.001325 0.001793 0.000000 -0.003704 0.000000
# 2 -0.001325 0.010333 -0.000829 0.000000 -0.001740 0.000000
# 3 0.001793 -0.000829 0.019168 0.000000 0.000079 0.000000
# 4 0.000000 0.000000 0.000000 0.045759 0.000000 0.010702
# 5 -0.003704 -0.001740 0.000079 0.000000 0.039335 0.000000
# 6 0.000000 0.000000 0.000000 0.010702 0.000000 0.043335
#
#
# Mechanical properties :
#
#
# Convention : Reuss Voigt Hill
#
# Bulk Modulus (GPa) = 22.55788 25.88152 24.21970
# Shear Modulus (GPa) = 26.45810 28.97070 27.71440
#
# Velocity S-wave (km/s) = 3.33266 3.48731 3.41086
# Velocity P-wave (km/s) = 4.92729 5.20381 5.06744
#
# Compressibility (1/GPa) = 0.04433040
#
# Stress axis : x y z
#
# Youngs Moduli (GPa) = 64.30744 96.77738 52.17046
#
# Poissons Ratio (x) = 0.12820 -0.09354
# Poissons Ratio (y) = 0.08519 0.04323
# Poissons Ratio (z) = -0.11530 0.08020
#
# Static dielectric constant tensor:
#      x y z
#    x 1.904990 0.000000 0.021830 
#    y 0.000000 1.951370 0.000000 
#    z 0.021830 0.000000 1.939610 
# 
# From -- ./inp_files/198006.got.cif
#   From: 2010.05.17/outbox.cif.g08.bks.cpg/sg15_100_cif.got.tgz:198006.got - 2010.06.03 18:47:42.
