data_PCOD9272110
_publ_section_title
;
Structure prediction by ZEFSAII (Michael W. Deem and Ramdas Pophale) SiO2 
 PCOD9272110
Probable space group: C 2/C
;
_chemical_formula_sum "Si O2"
_cell_formula_units_Z 44
_cell_length_a 21.901830
_cell_length_b 12.114567
_cell_length_c 17.216778
_cell_angle_alpha 90.000000
_cell_angle_beta 153.899816
_cell_angle_gamma 90.000000
_cell_volume 2009.720476
_symmetry_space_group_name_H-M "C 2/C"
_symmetry_group_IT_number 15
_symmetry_cell_setting 'monoclinic'
loop_
_space_group_symop_operation_xyz
x,y,z
-x,y,1/2-z
-x,-y,-z
x,-y,1/2+z
1/2+x,1/2+y,z
1/2-x,1/2+y,1/2-z
1/2-x,1/2-y,-z
1/2+x,1/2-y,1/2+z
loop_
_atom_site_type_symbol
_atom_site_label
_atom_site_fract_x
_atom_site_fract_y
_atom_site_fract_z
Si Si1 0.787172 0.938411 0.224490
Si Si2 0.000000 0.924659 0.250000
Si Si3 0.035666 0.073321 0.424811
Si Si4 0.483337 0.021347 0.324854
Si Si5 0.143759 0.245703 0.807475
Si Si6 0.603684 0.211033 0.797096
O O1 0.839865 0.930803 0.372164
O O2 0.789791 0.816582 0.189260
O O3 0.636299 0.988194 0.036279
O O4 0.903668 0.008488 0.311232
O O5 0.965907 0.838171 0.279643
O O6 0.919407 0.015021 0.104707
O O7 0.971324 0.194444 0.338411
O O8 0.500000 0.038178 0.250000
O O9 0.412717 0.133471 0.273928
O O10 0.396863 0.910203 0.241291
O O11 0.250000 0.250000 0.000000
O O12 0.500000 0.195355 0.750000
O O13 0.750000 0.250000 0.000000
#
# Coordination Sequence:
#
# PCOD9272110 Si02
#       6
#     8   4   8   8   8   8
#     4  10  22  41  64  92 134 168 217 280 337 387
#     4  10  20  36  64  88 112 168 216 258 320 398
#     4  10  21  42  63  94 127 175 219 273 333 398
#     4  11  21  40  62  95 128 169 215 272 332 399
#     4  11  20  37  63  90 122 163 219 266 326 394
#     4  11  24  42  70  97 134 179 227 271 334 409
#
# _framework density 21.893592999999999
#
# number of rings (size 3 to 8) (size 9 to 14) (size 15 to 20)
#    0.000    1.455    3.636    2.182    2.545    0.000 
#   16.364    0.909    0.000    0.000    0.000    0.000 
#    0.000    0.000    0.000    0.000    0.000    0.000 
#
# Total GULP energy -122672.480547 kJ/mol
# GULP energy per Si atom -5576.021843 kJ/mol
# Density = 2.184376 g / cm^3
# Si number density = 21.893593 Si / 1000 Ang^3
#
#
#
# Elastic Constant Matrix: (Units=GPa)
#
#
# Indices 1 2 3 4 5 6 
#
# 1 17.8496 33.8387 13.8506 0.0000 -8.3089 0.0000
# 2 33.8387 169.2956 60.2404 0.0000 -8.5474 0.0000
# 3 13.8506 60.2404 165.8155 0.0000 -12.4171 0.0000
# 4 0.0000 0.0000 0.0000 19.4083 0.0000 0.9729
# 5 -8.3089 -8.5474 -12.4171 0.0000 33.5284 0.0000
# 6 0.0000 0.0000 0.0000 0.9729 0.0000 15.1059
#
#
#
# Elastic Compliance Matrix: (Units=1/GPa)
#
#
# Indices 1 2 3 4 5 6 
#
# 1 0.102358 -0.019443 0.000043 0.000000 0.020425 0.000000
# 2 -0.019443 0.010500 -0.002418 0.000000 -0.003037 0.000000
# 3 0.000043 -0.002418 0.007056 0.000000 0.002007 0.000000
# 4 0.000000 0.000000 0.000000 0.051691 0.000000 -0.003329
# 5 0.020425 -0.003037 0.002007 0.000000 0.034856 0.000000
# 6 0.000000 0.000000 0.000000 -0.003329 0.000000 0.066414
#
#
# Mechanical properties :
#
#
# Convention : Reuss Voigt Hill
#
# Bulk Modulus (GPa) = 13.10999 63.20225 38.15612
# Shear Modulus (GPa) = 14.62257 29.94393 22.28325
#
# Velocity S-wave (km/s) = 2.58717 3.70226 3.19376
# Velocity P-wave (km/s) = 3.86337 6.87068 5.57368
#
# Compressibility (1/GPa) = 0.07627769
#
# Stress axis : x y z
#
# Youngs Moduli (GPa) = 9.76967 95.23602 141.72391
#
# Poissons Ratio (x) = 1.85171 -0.00614
# Poissons Ratio (y) = 0.18996 0.34269
# Poissons Ratio (z) = -0.00042 0.23028
#
# Static dielectric constant tensor:
#      x y z
#    x 1.803630 0.000000 0.037590 
#    y 0.000000 1.759660 0.000000 
#    z 0.037590 0.000000 1.774210 
# 
# From -- ./inp_files/257546.got.cif
#   From: 2010.05.17/outbox.cif.g08.bks.cpg/sg15_129_cif.got.tgz:257546.got - 2010.06.03 18:47:42.
