data_PCOD9272852
_publ_section_title
;
Structure prediction by ZEFSAII (Michael W. Deem and Ramdas Pophale) SiO2 
 PCOD9272852
Probable space group: C 2/C
;
_chemical_formula_sum "Si O2"
_cell_formula_units_Z 56
_cell_length_a 13.330035
_cell_length_b 9.016280
_cell_length_c 24.193913
_cell_angle_alpha 90.000000
_cell_angle_beta 117.941289
_cell_angle_gamma 90.000000
_cell_volume 2568.834063
_symmetry_space_group_name_H-M "C 2/C"
_symmetry_group_IT_number 15
_symmetry_cell_setting 'monoclinic'
loop_
_space_group_symop_operation_xyz
x,y,z
-x,y,1/2-z
-x,-y,-z
x,-y,1/2+z
1/2+x,1/2+y,z
1/2-x,1/2+y,1/2-z
1/2-x,1/2-y,-z
1/2+x,1/2-y,1/2+z
loop_
_atom_site_type_symbol
_atom_site_label
_atom_site_fract_x
_atom_site_fract_y
_atom_site_fract_z
Si Si1 0.710447 0.279600 0.927798
Si Si2 0.278488 0.937170 0.394757
Si Si3 0.123250 0.687733 0.477349
Si Si4 0.904996 0.865282 0.400156
Si Si5 0.841965 0.378136 0.802426
Si Si6 0.261617 0.622810 0.338430
Si Si7 0.571697 0.022639 0.859346
O O1 0.699709 0.452417 0.909800
O O2 0.814153 0.208783 0.918753
O O3 0.596691 0.190790 0.883017
O O4 0.750000 0.250000 0.000000
O O5 0.377320 0.896553 0.464006
O O6 0.239732 0.778618 0.362638
O O7 0.306185 0.029763 0.347199
O O8 0.250000 0.750000 0.500000
O O9 0.096261 0.574316 0.420885
O O10 0.029839 0.817030 0.451113
O O11 0.880736 0.781976 0.335465
O O12 0.876036 0.038151 0.386165
O O13 0.751168 0.362600 0.730508
O O14 0.948992 0.471762 0.808358
O O15 0.162671 0.518455 0.336500
#
# Coordination Sequence:
#
# PCOD9272852 Si02
#       7
#     8   8   8   8   8   8   8
#     4  10  20  37  60  93 130 160 207 263 324 394
#     4  11  23  37  65  94 126 168 213 271 330 385
#     4  11  21  40  61  96 132 159 218 269 335 393
#     4   9  23  38  62  89 124 173 210 262 331 386
#     4  10  22  40  64  88 124 169 224 262 319 391
#     4  11  21  42  61  91 126 171 218 264 323 391
#     4  10  21  38  63  91 125 175 203 269 332 387
#
# _framework density 21.799773999999999
#
# number of rings (size 3 to 8) (size 9 to 14) (size 15 to 20)
#    0.000    1.714    2.857    1.286    2.000    2.286 
#    2.571    0.000    0.000    3.429    0.000    0.000 
#    0.000    0.000    0.000    0.000    0.000    0.000 
#
# Total GULP energy -156323.691991 kJ/mol
# GULP energy per Si atom -5582.989000 kJ/mol
# Density = 2.175016 g / cm^3
# Si number density = 21.799774 Si / 1000 Ang^3
#
#
#
# Elastic Constant Matrix: (Units=GPa)
#
#
# Indices 1 2 3 4 5 6 
#
# 1 44.9485 16.9742 15.2767 0.0000 -1.5856 0.0000
# 2 16.9742 135.1661 36.2253 0.0000 4.5939 0.0000
# 3 15.2767 36.2253 122.0227 0.0000 -14.6561 0.0000
# 4 0.0000 0.0000 0.0000 21.9680 0.0000 -3.6031
# 5 -1.5856 4.5939 -14.6561 0.0000 25.8730 0.0000
# 6 0.0000 0.0000 0.0000 -3.6031 0.0000 31.1061
#
#
#
# Elastic Compliance Matrix: (Units=1/GPa)
#
#
# Indices 1 2 3 4 5 6 
#
# 1 0.023938 -0.002441 -0.002193 0.000000 0.000658 0.000000
# 2 -0.002441 0.008507 -0.002596 0.000000 -0.003131 0.000000
# 3 -0.002193 -0.002596 0.009957 0.000000 0.005967 0.000000
# 4 0.000000 0.000000 0.000000 0.046402 0.000000 0.005375
# 5 0.000658 -0.003131 0.005967 0.000000 0.042626 0.000000
# 6 0.000000 0.000000 0.000000 0.005375 0.000000 0.032771
#
#
# Mechanical properties :
#
#
# Convention : Reuss Voigt Hill
#
# Bulk Modulus (GPa) = 35.78816 48.78775 42.28796
# Shear Modulus (GPa) = 26.59923 31.36683 28.98303
#
# Velocity S-wave (km/s) = 3.49687 3.79735 3.65020
# Velocity P-wave (km/s) = 5.72333 6.45407 6.09965
#
# Compressibility (1/GPa) = 0.02794220
#
# Stress axis : x y z
#
# Youngs Moduli (GPa) = 41.77455 117.55130 100.43058
#
# Poissons Ratio (x) = 0.28691 0.22028
# Poissons Ratio (y) = 0.10196 0.26071
# Poissons Ratio (z) = 0.09163 0.30515
#
# Static dielectric constant tensor:
#      x y z
#    x 1.824590 0.000000 -0.012780 
#    y 0.000000 1.837060 0.000000 
#    z -0.012780 0.000000 1.787860 
# 
# From -- ./inp_files/273243.got.cif
#   From: 2010.05.17/outbox.cif.g08.bks.cpg/sg15_137_cif.got.tgz:273243.got - 2010.06.03 18:47:42.
