data_PCOD9272361
_publ_section_title
;
Structure prediction by ZEFSAII (Michael W. Deem and Ramdas Pophale) SiO2 
 PCOD9272361
Probable space group: C 2/C
;
_chemical_formula_sum "Si O2"
_cell_formula_units_Z 64
_cell_length_a 19.515143
_cell_length_b 13.882027
_cell_length_c 21.653370
_cell_angle_alpha 90.000000
_cell_angle_beta 38.925389
_cell_angle_gamma 90.000000
_cell_volume 3685.722273
_symmetry_space_group_name_H-M "C 2/C"
_symmetry_group_IT_number 15
_symmetry_cell_setting 'monoclinic'
loop_
_space_group_symop_operation_xyz
x,y,z
-x,y,1/2-z
-x,-y,-z
x,-y,1/2+z
1/2+x,1/2+y,z
1/2-x,1/2+y,1/2-z
1/2-x,1/2-y,-z
1/2+x,1/2-y,1/2+z
loop_
_atom_site_type_symbol
_atom_site_label
_atom_site_fract_x
_atom_site_fract_y
_atom_site_fract_z
Si Si1 0.212280 0.179921 0.242620
Si Si2 0.994368 0.877536 0.681069
Si Si3 0.887144 0.970343 0.005891
Si Si4 0.556317 0.659478 0.466045
Si Si5 0.364934 0.805114 0.413711
Si Si6 0.524174 0.950671 0.083532
Si Si7 0.330717 0.871435 0.301886
Si Si8 0.964248 0.362373 0.560851
O O1 0.152447 0.186052 0.350625
O O2 0.215911 0.283304 0.206112
O O3 0.333471 0.137974 0.162454
O O4 0.128073 0.117714 0.259636
O O5 0.074505 0.950765 0.590424
O O6 0.042626 0.771367 0.630835
O O7 0.000000 0.888515 0.750000
O O8 0.766053 0.939585 0.107702
O O9 0.905488 0.079295 0.012745
O O10 0.964424 0.897057 0.990661
O O11 0.508728 0.754108 0.531221
O O12 0.250000 0.750000 0.500000
O O13 0.377541 0.899174 0.447827
O O14 0.377893 0.830073 0.332844
O O15 0.420042 0.926497 0.199017
O O16 0.522407 0.063148 0.066793
O O17 0.515597 0.898058 0.023442
#
# Coordination Sequence:
#
# PCOD9272361 Si02
#       8
#     8   8   8   8   8   8   8   8
#     4  11  20  34  57  81 114 153 187 235 299 345
#     4  11  20  34  51  86 116 146 186 240 289 351
#     4  10  21  33  56  80 114 150 192 238 292 341
#     4  10  20  37  53  80 112 153 193 241 280 350
#     4  12  21  35  59  85 119 150 184 242 302 341
#     4  11  23  36  54  88 112 153 187 238 288 356
#     4  12  19  34  58  85 118 145 190 237 299 353
#     4  11  22  38  57  76 121 151 193 235 287 347
#
# _framework density 17.364303
#
# number of rings (size 3 to 8) (size 9 to 14) (size 15 to 20)
#    0.000    1.000    6.250    2.625    0.000    0.000 
#    0.000    0.000    0.000    2.250    0.000    0.000 
#    0.000    0.000    0.000    0.000    0.000    0.000 
#
# Total GULP energy -178618.164798 kJ/mol
# GULP energy per Si atom -5581.817650 kJ/mol
# Density = 1.732478 g / cm^3
# Si number density = 17.364303 Si / 1000 Ang^3
#
#
#
# Elastic Constant Matrix: (Units=GPa)
#
#
# Indices 1 2 3 4 5 6 
#
# 1 56.5069 46.9895 42.2622 0.0000 -2.4792 0.0000
# 2 46.9895 112.3351 41.7522 0.0000 3.0606 0.0000
# 3 42.2622 41.7522 114.9297 0.0000 -5.8668 0.0000
# 4 0.0000 0.0000 0.0000 20.7546 0.0000 3.4000
# 5 -2.4792 3.0606 -5.8668 0.0000 29.6525 0.0000
# 6 0.0000 0.0000 0.0000 3.4000 0.0000 35.4662
#
#
#
# Elastic Compliance Matrix: (Units=1/GPa)
#
#
# Indices 1 2 3 4 5 6 
#
# 1 0.032758 -0.010787 -0.008012 0.000000 0.002267 0.000000
# 2 -0.010787 0.013942 -0.001230 0.000000 -0.002584 0.000000
# 3 -0.008012 -0.001230 0.012189 0.000000 0.001869 0.000000
# 4 0.000000 0.000000 0.000000 0.048951 0.000000 -0.004693
# 5 0.002267 -0.002584 0.001869 0.000000 0.034550 0.000000
# 6 0.000000 0.000000 0.000000 -0.004693 0.000000 0.028646
#
#
# Mechanical properties :
#
#
# Convention : Reuss Voigt Hill
#
# Bulk Modulus (GPa) = 53.10041 60.64218 56.87129
# Shear Modulus (GPa) = 23.00222 27.35918 25.18070
#
# Velocity S-wave (km/s) = 3.64357 3.97369 3.81220
# Velocity P-wave (km/s) = 6.95323 7.48685 7.22497
#
# Compressibility (1/GPa) = 0.01883225
#
# Stress axis : x y z
#
# Youngs Moduli (GPa) = 30.52660 71.72751 82.03926
#
# Poissons Ratio (x) = 0.77371 0.65726
# Poissons Ratio (y) = 0.32928 0.10092
# Poissons Ratio (z) = 0.24457 0.08824
#
# Static dielectric constant tensor:
#      x y z
#    x 1.609590 0.000000 -0.021130 
#    y 0.000000 1.587580 0.000000 
#    z -0.021130 0.000000 1.611280 
# 
# From -- ./inp_files/252565.got.cif
#   From: 2010.05.17/outbox.cif.g08.bks.cpg/sg15_127_cif.got.tgz:252565.got - 2010.06.03 18:47:42.
