data_PCOD9272279
_publ_section_title
;
Structure prediction by ZEFSAII (Michael W. Deem and Ramdas Pophale) SiO2 
 PCOD9272279
Probable space group: C 2/C
;
_chemical_formula_sum "Si O2"
_cell_formula_units_Z 28
_cell_length_a 20.784472
_cell_length_b 12.227788
_cell_length_c 9.349859
_cell_angle_alpha 90.000000
_cell_angle_beta 149.421507
_cell_angle_gamma 90.000000
_cell_volume 1208.841347
_symmetry_space_group_name_H-M "C 2/C"
_symmetry_group_IT_number 15
_symmetry_cell_setting 'monoclinic'
loop_
_space_group_symop_operation_xyz
x,y,z
-x,y,1/2-z
-x,-y,-z
x,-y,1/2+z
1/2+x,1/2+y,z
1/2-x,1/2+y,1/2-z
1/2-x,1/2-y,-z
1/2+x,1/2-y,1/2+z
loop_
_atom_site_type_symbol
_atom_site_label
_atom_site_fract_x
_atom_site_fract_y
_atom_site_fract_z
Si Si1 0.368414 0.768099 0.828929
Si Si2 0.000000 0.522913 0.250000
Si Si3 0.639990 0.318391 0.863865
Si Si4 0.334268 0.978862 0.202318
O O1 0.250000 0.750000 0.500000
O O2 0.367542 0.900245 0.825555
O O3 0.353408 0.716795 0.957565
O O4 0.502249 0.713815 0.041843
O O5 0.896884 0.471046 0.165614
O O6 0.088166 0.589212 0.529372
O O7 0.750000 0.250000 0.000000
O O8 0.689507 0.442192 0.933228
#
# Coordination Sequence:
#
# PCOD9272279 Si02
#       4
#     8   4   8   8
#     4  11  25  43  65  98 138 183 230 282 350 412
#     4  10  20  36  66  98 130 182 222 276 358 400
#     4  11  24  42  67 100 134 178 235 283 340 418
#     4  11  21  40  67  96 138 182 230 285 342 414
#
# _framework density 23.162675
#
# number of rings (size 3 to 8) (size 9 to 14) (size 15 to 20)
#    0.000    1.143    0.000    8.571    0.000    2.286 
#    0.000    2.857    0.000    0.000    0.000    0.000 
#    0.000    0.000    0.000    0.000    0.000    0.000 
#
# Total GULP energy -77967.024948 kJ/mol
# GULP energy per Si atom -5569.073211 kJ/mol
# Density = 2.310996 g / cm^3
# Si number density = 23.162675 Si / 1000 Ang^3
#
#
#
# Elastic Constant Matrix: (Units=GPa)
#
#
# Indices 1 2 3 4 5 6 
#
# 1 169.2882 48.4973 84.5913 0.0000 8.1699 0.0000
# 2 48.4973 77.6319 36.6593 0.0000 22.5606 0.0000
# 3 84.5913 36.6593 206.2211 0.0000 17.9695 0.0000
# 4 0.0000 0.0000 0.0000 41.2297 0.0000 12.5802
# 5 8.1699 22.5606 17.9695 0.0000 52.0814 0.0000
# 6 0.0000 0.0000 0.0000 12.5802 0.0000 31.3917
#
#
#
# Elastic Compliance Matrix: (Units=1/GPa)
#
#
# Indices 1 2 3 4 5 6 
#
# 1 0.008524 -0.004437 -0.002844 0.000000 0.001566 0.000000
# 2 -0.004437 0.018011 -0.000786 0.000000 -0.006835 0.000000
# 3 -0.002844 -0.000786 0.006276 0.000000 -0.001379 0.000000
# 4 0.000000 0.000000 0.000000 0.027633 0.000000 -0.011074
# 5 0.001566 -0.006835 -0.001379 0.000000 0.022391 0.000000
# 6 0.000000 0.000000 0.000000 -0.011074 0.000000 0.036293
#
#
# Mechanical properties :
#
#
# Convention : Reuss Voigt Hill
#
# Bulk Modulus (GPa) = 59.96808 88.07077 74.01942
# Shear Modulus (GPa) = 35.50609 43.83347 39.66978
#
# Velocity S-wave (km/s) = 3.91948 4.35491 4.14292
# Velocity P-wave (km/s) = 6.81390 7.96193 7.41018
#
# Compressibility (1/GPa) = 0.01667554
#
# Stress axis : x y z
#
# Youngs Moduli (GPa) = 117.31878 55.52315 159.34483
#
# Poissons Ratio (x) = 0.24635 0.45320
# Poissons Ratio (y) = 0.52054 0.12526
# Poissons Ratio (z) = 0.33367 0.04365
#
# Static dielectric constant tensor:
#      x y z
#    x 1.943960 0.000000 -0.145570 
#    y 0.000000 2.862320 0.000000 
#    z -0.145570 0.000000 2.400060 
# 
# From -- ./inp_files/27350.got.cif
#   From: 2010.05.17/outbox.cif.g08.bks.cpg/sg15_14_cif.got.tgz:27350.got - 2010.06.03 18:47:42.
