data_PCOD9272016
_publ_section_title
;
Structure prediction by ZEFSAII (Michael W. Deem and Ramdas Pophale) SiO2 
 PCOD9272016
Probable space group: C 2/C
;
_chemical_formula_sum "Si O2"
_cell_formula_units_Z 56
_cell_length_a 15.338658
_cell_length_b 8.737021
_cell_length_c 25.338360
_cell_angle_alpha 90.000000
_cell_angle_beta 59.915067
_cell_angle_gamma 90.000000
_cell_volume 2938.241943
_symmetry_space_group_name_H-M "C 2/C"
_symmetry_group_IT_number 15
_symmetry_cell_setting 'monoclinic'
loop_
_space_group_symop_operation_xyz
x,y,z
-x,y,1/2-z
-x,-y,-z
x,-y,1/2+z
1/2+x,1/2+y,z
1/2-x,1/2+y,1/2-z
1/2-x,1/2-y,-z
1/2+x,1/2-y,1/2+z
loop_
_atom_site_type_symbol
_atom_site_label
_atom_site_fract_x
_atom_site_fract_y
_atom_site_fract_z
Si Si1 0.282410 0.481094 0.197159
Si Si2 0.357304 0.832041 0.684004
Si Si3 0.391939 0.205424 0.810142
Si Si4 0.823371 0.361935 0.009918
Si Si5 0.133771 0.251601 0.392745
Si Si6 0.254485 0.527775 0.371036
Si Si7 0.467025 0.041732 0.887184
O O1 0.355640 0.347354 0.195012
O O2 0.233816 0.588898 0.256309
O O3 0.189504 0.388850 0.199122
O O4 0.340457 0.587891 0.138198
O O5 0.332524 0.867323 0.629635
O O6 0.459668 0.920867 0.664401
O O7 0.500000 0.200489 0.750000
O O8 0.354329 0.379332 0.828854
O O9 0.399740 0.126582 0.864661
O O10 0.876806 0.265601 0.040894
O O11 0.763280 0.490739 0.062174
O O12 0.750000 0.250000 0.000000
O O13 0.901388 0.447372 0.948706
O O14 0.231746 0.361569 0.352465
O O15 0.040327 0.334193 0.392754
#
# Coordination Sequence:
#
# PCOD9272016 Si02
#       7
#     8   8   8   8   8   8   8
#     4  11  21  40  61  89 126 161 204 249 319 368
#     4  10  20  36  63  89 118 164 198 255 304 374
#     4  11  22  38  61  93 126 158 201 255 313 375
#     4  10  21  41  65  86 124 165 208 255 307 365
#     4   9  21  40  62  88 115 167 202 255 299 363
#     4   8  21  38  61  84 117 164 198 244 313 356
#     4  11  21  40  62  91 125 158 208 255 310 363
#
# _framework density 19.059014999999999
#
# number of rings (size 3 to 8) (size 9 to 14) (size 15 to 20)
#    0.857    1.143    1.429    3.000    2.000    0.571 
#    2.571    1.429    0.000    0.000    0.000    0.000 
#    0.000    0.000    0.000    0.000    0.000    0.000 
#
# Total GULP energy -155959.514841 kJ/mol
# GULP energy per Si atom -5569.982673 kJ/mol
# Density = 1.901564 g / cm^3
# Si number density = 19.059015 Si / 1000 Ang^3
#
#
#
# Elastic Constant Matrix: (Units=GPa)
#
#
# Indices 1 2 3 4 5 6 
#
# 1 52.4592 14.5310 8.1447 0.0000 4.6148 0.0000
# 2 14.5310 92.6234 20.3402 0.0000 0.4442 0.0000
# 3 8.1447 20.3402 63.2433 0.0000 9.4497 0.0000
# 4 0.0000 0.0000 0.0000 34.4789 0.0000 -0.8043
# 5 4.6148 0.4442 9.4497 0.0000 22.2668 0.0000
# 6 0.0000 0.0000 0.0000 -0.8043 0.0000 24.4803
#
#
#
# Elastic Compliance Matrix: (Units=1/GPa)
#
#
# Indices 1 2 3 4 5 6 
#
# 1 0.020374 -0.002930 -0.001131 0.000000 -0.003684 0.000000
# 2 -0.002930 0.012082 -0.003804 0.000000 0.001981 0.000000
# 3 -0.001131 -0.003804 0.018295 0.000000 -0.007454 0.000000
# 4 0.000000 0.000000 0.000000 0.029025 0.000000 0.000954
# 5 -0.003684 0.001981 -0.007454 0.000000 0.048797 0.000000
# 6 0.000000 0.000000 0.000000 0.000954 0.000000 0.040880
#
#
# Mechanical properties :
#
#
# Convention : Reuss Voigt Hill
#
# Bulk Modulus (GPa) = 28.55545 32.70639 30.63092
# Shear Modulus (GPa) = 25.39897 27.26588 26.33242
#
# Velocity S-wave (km/s) = 3.65451 3.78643 3.72105
# Velocity P-wave (km/s) = 5.72908 6.02611 5.87947
#
# Compressibility (1/GPa) = 0.03501959
#
# Stress axis : x y z
#
# Youngs Moduli (GPa) = 49.08268 82.76732 54.65998
#
# Poissons Ratio (x) = 0.24253 0.06182
# Poissons Ratio (y) = 0.14383 0.20795
# Poissons Ratio (z) = 0.05551 0.31488
#
# Static dielectric constant tensor:
#      x y z
#    x 1.680120 0.000000 0.023700 
#    y 0.000000 1.669670 0.000000 
#    z 0.023700 0.000000 1.680980 
# 
# From -- ./inp_files/276524.got.cif
#   From: 2010.05.17/outbox.cif.g08.bks.cpg/sg15_139_cif.got.tgz:276524.got - 2010.06.03 18:47:42.
