data_PCOD9272399
_publ_section_title
;
Structure prediction by ZEFSAII (Michael W. Deem and Ramdas Pophale) SiO2 
 PCOD9272399
Probable space group: C 2/C
;
_chemical_formula_sum "Si O2"
_cell_formula_units_Z 52
_cell_length_a 18.939286
_cell_length_b 10.958046
_cell_length_c 9.971060
_cell_angle_alpha 90.000000
_cell_angle_beta 101.866029
_cell_angle_gamma 90.000000
_cell_volume 2025.149328
_symmetry_space_group_name_H-M "C 2/C"
_symmetry_group_IT_number 15
_symmetry_cell_setting 'monoclinic'
loop_
_space_group_symop_operation_xyz
x,y,z
-x,y,1/2-z
-x,-y,-z
x,-y,1/2+z
1/2+x,1/2+y,z
1/2-x,1/2+y,1/2-z
1/2-x,1/2-y,-z
1/2+x,1/2-y,1/2+z
loop_
_atom_site_type_symbol
_atom_site_label
_atom_site_fract_x
_atom_site_fract_y
_atom_site_fract_z
Si Si1 0.937633 0.161994 0.631583
Si Si2 0.563675 0.931296 0.101010
Si Si3 0.311687 0.949593 0.982368
Si Si4 0.000000 0.614217 0.250000
Si Si5 0.694525 0.735537 0.733622
Si Si6 0.344713 0.543062 0.013589
Si Si7 0.852880 0.254437 0.228286
O O1 0.980918 0.288911 0.623172
O O2 0.865954 0.214198 0.678099
O O3 0.000000 0.100409 0.750000
O O4 0.904974 0.060478 0.520950
O O5 0.631357 0.950474 0.032857
O O6 0.562653 0.023428 0.229712
O O7 0.575175 0.798750 0.169125
O O8 0.500000 0.000000 0.000000
O O9 0.311233 0.860569 0.852977
O O10 0.234279 0.007614 0.980762
O O11 0.332871 0.857090 0.109058
O O12 0.671223 0.628224 0.619840
O O13 0.780873 0.739470 0.792887
O O14 0.362086 0.630564 0.147910
#
# Coordination Sequence:
#
# PCOD9272399 Si02
#       7
#     8   8   8   4   8   8   8
#     4  10  20  37  55  80 120 151 179 227 283 355
#     4  12  22  38  58  82 118 153 188 236 286 345
#     4   9  17  36  61  82 112 146 192 240 285 330
#     4  10  24  40  52  82 116 156 182 216 294 338
#     4   9  17  37  62  81 110 150 188 240 285 329
#     4   9  19  36  60  89 107 147 196 237 283 333
#     4   9  20  36  61  87 107 141 202 241 276 338
#
# _framework density 25.677116999999999
#
# number of rings (size 3 to 8) (size 9 to 14) (size 15 to 20)
#    0.462    1.846    1.538    3.692    0.000    0.615 
#    9.692    0.000    0.000    3.692    0.000    0.000 
#    0.000    0.000    0.000    0.000    0.000    0.000 
#
# Total GULP energy -144936.956130 kJ/mol
# GULP energy per Si atom -5574.498313 kJ/mol
# Density = 2.561867 g / cm^3
# Si number density = 25.677117 Si / 1000 Ang^3
#
#
#
# Elastic Constant Matrix: (Units=GPa)
#
#
# Indices 1 2 3 4 5 6 
#
# 1 69.6364 33.0753 12.3425 0.0000 6.8256 0.0000
# 2 33.0753 85.4381 13.3168 0.0000 14.4223 0.0000
# 3 12.3425 13.3168 50.8726 0.0000 18.1203 0.0000
# 4 0.0000 0.0000 0.0000 24.7071 0.0000 16.4788
# 5 6.8256 14.4223 18.1203 0.0000 30.2647 0.0000
# 6 0.0000 0.0000 0.0000 16.4788 0.0000 38.9242
#
#
#
# Elastic Compliance Matrix: (Units=1/GPa)
#
#
# Indices 1 2 3 4 5 6 
#
# 1 0.017947 -0.006638 -0.002925 0.000000 0.000867 0.000000
# 2 -0.006638 0.015273 -0.000417 0.000000 -0.005531 0.000000
# 3 -0.002925 -0.000417 0.025638 0.000000 -0.014491 0.000000
# 4 0.000000 0.000000 0.000000 0.056400 0.000000 -0.023877
# 5 0.000867 -0.005531 -0.014491 0.000000 0.044158 0.000000
# 6 0.000000 0.000000 0.000000 -0.023877 0.000000 0.035799
#
#
# Mechanical properties :
#
#
# Convention : Reuss Voigt Hill
#
# Bulk Modulus (GPa) = 25.70984 35.93515 30.82249
# Shear Modulus (GPa) = 21.91623 28.59336 25.25479
#
# Velocity S-wave (km/s) = 2.92470 3.34065 3.13957
# Velocity P-wave (km/s) = 4.63029 5.37636 5.01721
#
# Compressibility (1/GPa) = 0.03889561
#
# Stress axis : x y z
#
# Youngs Moduli (GPa) = 55.72058 65.47556 39.00517
#
# Poissons Ratio (x) = 0.43463 0.11411
# Poissons Ratio (y) = 0.36988 0.01628
# Poissons Ratio (z) = 0.16301 0.02732
#
# Static dielectric constant tensor:
#      x y z
#    x 2.025850 0.000000 0.044310 
#    y 0.000000 2.108310 0.000000 
#    z 0.044310 0.000000 2.345650 
# 
# From -- ./inp_files/111181.got.cif
#   From: 2010.05.17/outbox.cif.g08.bks.cpg/sg15_56_cif.got.tgz:111181.got - 2010.06.03 18:47:42.
