data_PCOD9272797
_publ_section_title
;
Structure prediction by ZEFSAII (Michael W. Deem and Ramdas Pophale) SiO2 
 PCOD9272797
Probable space group: C 2/C
;
_chemical_formula_sum "Si O2"
_cell_formula_units_Z 48
_cell_length_a 12.307209
_cell_length_b 7.592053
_cell_length_c 24.883567
_cell_angle_alpha 90.000000
_cell_angle_beta 54.384148
_cell_angle_gamma 90.000000
_cell_volume 1890.121672
_symmetry_space_group_name_H-M "C 2/C"
_symmetry_group_IT_number 15
_symmetry_cell_setting 'monoclinic'
loop_
_space_group_symop_operation_xyz
x,y,z
-x,y,1/2-z
-x,-y,-z
x,-y,1/2+z
1/2+x,1/2+y,z
1/2-x,1/2+y,1/2-z
1/2-x,1/2-y,-z
1/2+x,1/2-y,1/2+z
loop_
_atom_site_type_symbol
_atom_site_label
_atom_site_fract_x
_atom_site_fract_y
_atom_site_fract_z
Si Si1 0.049742 0.105605 0.537998
Si Si2 0.644524 0.840661 0.423624
Si Si3 0.773885 0.260840 0.621543
Si Si4 0.143779 0.904388 0.760307
Si Si5 0.856391 0.699661 0.280019
Si Si6 0.922002 0.776354 0.906709
O O1 0.126924 0.266946 0.488666
O O2 0.907998 0.167289 0.603122
O O3 0.119107 0.966263 0.556726
O O4 0.000000 0.000000 0.500000
O O5 0.758206 0.727876 0.359288
O O6 0.505904 0.818874 0.429460
O O7 0.683264 0.042865 0.408060
O O8 0.673591 0.287846 0.699534
O O9 0.699070 0.184800 0.590363
O O10 0.277509 0.904473 0.757368
O O11 0.029824 0.823910 0.830036
O O12 0.117533 0.103356 0.749970
O O13 0.000000 0.618940 0.250000
#
# Coordination Sequence:
#
# PCOD9272797 Si02
#       6
#     8   8   8   8   8   8
#     4  10  22  40  59  85 119 153 196 239 282 347
#     4   9  21  38  56  86 117 147 199 243 277 349
#     4  11  21  37  62  84 115 157 189 237 296 339
#     4  10  20  37  60  89 116 146 196 242 286 347
#     4  10  20  38  59  82 118 153 188 243 295 337
#     4  10  21  39  60  84 118 153 190 242 291 339
#
# _framework density 25.395188999999998
#
# number of rings (size 3 to 8) (size 9 to 14) (size 15 to 20)
#    0.000    2.000    0.000    4.000    0.000    3.333 
#    0.000   27.500    0.000    0.000    0.000    0.000 
#    0.000    0.000    0.000    0.000    0.000    0.000 
#
# Total GULP energy -134423.330563 kJ/mol
# GULP energy per Si atom -5600.972107 kJ/mol
# Density = 2.533739 g / cm^3
# Si number density = 25.395189 Si / 1000 Ang^3
#
#
#
# Elastic Constant Matrix: (Units=GPa)
#
#
# Indices 1 2 3 4 5 6 
#
# 1 143.4518 6.2747 15.8322 0.0000 1.2212 0.0000
# 2 6.2747 36.5081 10.6153 0.0000 2.1002 0.0000
# 3 15.8322 10.6153 92.6945 0.0000 3.6477 0.0000
# 4 0.0000 0.0000 0.0000 230.3351 0.0000 -61.2348
# 5 1.2212 2.1002 3.6477 0.0000 19.7853 0.0000
# 6 0.0000 0.0000 0.0000 -61.2348 0.0000 46.0812
#
#
#
# Elastic Compliance Matrix: (Units=1/GPa)
#
#
# Indices 1 2 3 4 5 6 
#
# 1 0.007134 -0.000895 -0.001110 0.000000 -0.000141 0.000000
# 2 -0.000895 0.028563 -0.003023 0.000000 -0.002419 0.000000
# 3 -0.001110 -0.003023 0.011391 0.000000 -0.001711 0.000000
# 4 0.000000 0.000000 0.000000 0.006713 0.000000 0.008921
# 5 -0.000141 -0.002419 -0.001711 0.000000 0.051124 0.000000
# 6 0.000000 0.000000 0.000000 0.008921 0.000000 0.033555
#
#
# Mechanical properties :
#
#
# Convention : Reuss Voigt Hill
#
# Bulk Modulus (GPa) = 27.00413 37.56652 32.28533
# Shear Modulus (GPa) = 31.07895 75.23579 53.15737
#
# Velocity S-wave (km/s) = 3.50210 5.44888 4.58012
# Velocity P-wave (km/s) = 5.19707 7.37645 6.38050
#
# Compressibility (1/GPa) = 0.03703137
#
# Stress axis : x y z
#
# Youngs Moduli (GPa) = 140.17598 35.01009 87.78639
#
# Poissons Ratio (x) = 0.03134 0.09748
# Poissons Ratio (y) = 0.12548 0.26537
# Poissons Ratio (z) = 0.15565 0.10583
#
# Static dielectric constant tensor:
#      x y z
#    x 1.977360 0.000000 -0.039530 
#    y 0.000000 1.992640 0.000000 
#    z -0.039530 0.000000 2.025050 
# 
# From -- ./inp_files/267669.got.cif
#   From: 2010.05.17/outbox.cif.g08.bks.cpg/sg15_134_cif.got.tgz:267669.got - 2010.06.03 18:47:42.
