data_PCOD9272149
_publ_section_title
;
Structure prediction by ZEFSAII (Michael W. Deem and Ramdas Pophale) SiO2 
 PCOD9272149
Probable space group: C 2/C
;
_chemical_formula_sum "Si O2"
_cell_formula_units_Z 56
_cell_length_a 27.035285
_cell_length_b 18.012224
_cell_length_c 7.341915
_cell_angle_alpha 90.000000
_cell_angle_beta 42.193504
_cell_angle_gamma 90.000000
_cell_volume 2401.275528
_symmetry_space_group_name_H-M "C 2/C"
_symmetry_group_IT_number 15
_symmetry_cell_setting 'monoclinic'
loop_
_space_group_symop_operation_xyz
x,y,z
-x,y,1/2-z
-x,-y,-z
x,-y,1/2+z
1/2+x,1/2+y,z
1/2-x,1/2+y,1/2-z
1/2-x,1/2-y,-z
1/2+x,1/2-y,1/2+z
loop_
_atom_site_type_symbol
_atom_site_label
_atom_site_fract_x
_atom_site_fract_y
_atom_site_fract_z
Si Si1 0.139177 0.854461 0.086542
Si Si2 0.242919 0.545794 0.321177
Si Si3 0.204521 0.292017 0.279729
Si Si4 0.672344 0.602951 0.912233
Si Si5 0.511617 0.587631 0.433163
Si Si6 0.628119 0.948715 0.864244
Si Si7 0.926076 0.399730 0.851730
O O1 0.156021 0.891302 0.239087
O O2 0.053562 0.870120 0.285281
O O3 0.195310 0.895409 0.795725
O O4 0.160444 0.768814 0.017674
O O5 0.293805 0.476128 0.120077
O O6 0.187779 0.500637 0.598961
O O7 0.184037 0.589016 0.352917
O O8 0.265391 0.336644 0.224840
O O9 0.143260 0.352494 0.385755
O O10 0.250000 0.250000 0.000000
O O11 0.595653 0.612499 0.228352
O O12 0.500000 0.600161 0.250000
O O13 0.500000 0.500000 0.500000
O O14 0.584051 0.898998 0.840852
O O15 0.579656 0.011611 0.093561
O O16 0.000000 0.373729 0.750000
#
# Coordination Sequence:
#
# PCOD9272149 Si02
#       7
#     8   8   8   8   8   8   8
#     4  11  23  38  63  94 133 176 214 268 334 388
#     4  11  18  35  65  93 125 166 217 265 316 378
#     4  12  26  42  64  92 130 172 220 267 335 406
#     4  11  22  41  62  90 132 173 223 268 323 396
#     4  10  22  37  61  96 130 170 216 269 321 383
#     4  10  20  36  64  94 120 160 211 271 309 385
#     4  11  23  42  64  93 127 162 212 271 334 382
#
# _framework density 23.32094
#
# number of rings (size 3 to 8) (size 9 to 14) (size 15 to 20)
#    0.000    1.143    5.714    1.714    0.000    2.286 
#    0.000    0.000    0.000    2.571    0.000    0.000 
#    0.000    0.000    0.000    0.000    0.000    0.000 
#
# Total GULP energy -156248.650243 kJ/mol
# GULP energy per Si atom -5580.308937 kJ/mol
# Density = 2.326786 g / cm^3
# Si number density = 23.320940 Si / 1000 Ang^3
#
#
#
# Elastic Constant Matrix: (Units=GPa)
#
#
# Indices 1 2 3 4 5 6 
#
# 1 121.6980 16.1681 31.8624 0.0000 -29.2247 0.0000
# 2 16.1681 96.9152 20.3187 0.0000 -17.5681 0.0000
# 3 31.8624 20.3187 66.1359 0.0000 -32.6833 0.0000
# 4 0.0000 0.0000 0.0000 41.4031 0.0000 -0.9756
# 5 -29.2247 -17.5681 -32.6833 0.0000 44.8665 0.0000
# 6 0.0000 0.0000 0.0000 -0.9756 0.0000 14.1660
#
#
#
# Elastic Compliance Matrix: (Units=1/GPa)
#
#
# Indices 1 2 3 4 5 6 
#
# 1 0.010007 -0.000321 -0.002443 0.000000 0.004613 0.000000
# 2 -0.000321 0.011284 -0.001925 0.000000 0.002807 0.000000
# 3 -0.002443 -0.001925 0.024578 0.000000 0.015559 0.000000
# 4 0.000000 0.000000 0.000000 0.024192 0.000000 0.001666
# 5 0.004613 0.002807 0.015559 0.000000 0.037726 0.000000
# 6 0.000000 0.000000 0.000000 0.001666 0.000000 0.070706
#
#
# Mechanical properties :
#
#
# Convention : Reuss Voigt Hill
#
# Bulk Modulus (GPa) = 27.40362 46.82749 37.11556
# Shear Modulus (GPa) = 24.99563 34.51376 29.75470
#
# Velocity S-wave (km/s) = 3.27740 3.85118 3.57582
# Velocity P-wave (km/s) = 5.10862 6.31654 5.74442
#
# Compressibility (1/GPa) = 0.03649153
#
# Stress axis : x y z
#
# Youngs Moduli (GPa) = 99.92932 88.61871 40.68756
#
# Poissons Ratio (x) = 0.02845 0.09939
# Poissons Ratio (y) = 0.03208 0.07832
# Poissons Ratio (z) = 0.24410 0.17058
#
# Static dielectric constant tensor:
#      x y z
#    x 2.002300 0.000000 0.085900 
#    y 0.000000 1.884050 0.000000 
#    z 0.085900 0.000000 1.963460 
# 
# From -- ./inp_files/67139.got.cif
#   From: 2010.05.17/outbox.cif.g08.bks.cpg/sg15_34_cif.got.tgz:67139.got - 2010.06.03 18:47:42.
