data_PCOD9272184
_publ_section_title
;
Structure prediction by ZEFSAII (Michael W. Deem and Ramdas Pophale) SiO2 
 PCOD9272184
Probable space group: C 2/C
;
_chemical_formula_sum "Si O2"
_cell_formula_units_Z 52
_cell_length_a 18.454091
_cell_length_b 12.682660
_cell_length_c 18.927251
_cell_angle_alpha 90.000000
_cell_angle_beta 146.044260
_cell_angle_gamma 90.000000
_cell_volume 2474.311701
_symmetry_space_group_name_H-M "C 2/C"
_symmetry_group_IT_number 15
_symmetry_cell_setting 'monoclinic'
loop_
_space_group_symop_operation_xyz
x,y,z
-x,y,1/2-z
-x,-y,-z
x,-y,1/2+z
1/2+x,1/2+y,z
1/2-x,1/2+y,1/2-z
1/2-x,1/2-y,-z
1/2+x,1/2-y,1/2+z
loop_
_atom_site_type_symbol
_atom_site_label
_atom_site_fract_x
_atom_site_fract_y
_atom_site_fract_z
Si Si1 0.869060 0.548075 0.862972
Si Si2 0.015549 0.111042 0.415137
Si Si3 0.176229 0.929711 0.613575
Si Si4 0.258203 0.631679 0.479799
Si Si5 0.000000 0.496738 0.250000
Si Si6 0.300785 0.506286 0.150609
Si Si7 0.442416 0.843532 0.074103
O O1 0.807871 0.462816 0.759701
O O2 0.764198 0.565527 0.839817
O O3 0.930533 0.647505 0.873672
O O4 0.000000 0.500000 0.000000
O O5 0.915091 0.117177 0.399623
O O6 0.072640 0.218878 0.430439
O O7 0.934671 0.051109 0.289025
O O8 0.126143 0.040161 0.540046
O O9 0.174196 0.860528 0.541791
O O10 0.250000 0.750000 0.500000
O O11 0.312986 0.558018 0.587614
O O12 0.123500 0.573275 0.351832
O O13 0.985868 0.417012 0.173590
O O14 0.194141 0.601601 0.058789
#
# Coordination Sequence:
#
# PCOD9272184 Si02
#       7
#     8   8   8   8   4   8   8
#     4   9  18  38  61  85 121 162 206 260 297 371
#     4  10  23  40  63  91 129 170 206 263 318 375
#     4  10  22  42  60  94 131 161 214 264 315 384
#     4  11  24  41  65  91 127 169 204 267 329 379
#     4  10  22  42  60  96 124 158 224 260 306 392
#     4   9  22  39  57  94 123 159 216 254 309 385
#     4  10  20  36  65  86 121 165 207 259 311 366
#
# _framework density 21.015944999999999
#
# number of rings (size 3 to 8) (size 9 to 14) (size 15 to 20)
#    0.000    2.154    1.538    0.000    4.308    3.077 
#    0.000    4.615    0.000    0.000    0.000    0.000 
#    0.000    0.000    0.000    0.000    0.000    0.000 
#
# Total GULP energy -144851.099267 kJ/mol
# GULP energy per Si atom -5571.196126 kJ/mol
# Density = 2.096811 g / cm^3
# Si number density = 21.015945 Si / 1000 Ang^3
#
#
#
# Elastic Constant Matrix: (Units=GPa)
#
#
# Indices 1 2 3 4 5 6 
#
# 1 49.7438 12.6108 37.5573 0.0000 -21.7419 0.0000
# 2 12.6108 98.4974 41.6583 0.0000 -4.6564 0.0000
# 3 37.5573 41.6583 88.7210 0.0000 -22.2776 0.0000
# 4 0.0000 0.0000 0.0000 10.9769 0.0000 -5.5852
# 5 -21.7419 -4.6564 -22.2776 0.0000 25.7256 0.0000
# 6 0.0000 0.0000 0.0000 -5.5852 0.0000 4.2292
#
#
#
# Elastic Compliance Matrix: (Units=1/GPa)
#
#
# Indices 1 2 3 4 5 6 
#
# 1 0.038040 0.000726 -0.010655 0.000000 0.023054 0.000000
# 2 0.000726 0.012957 -0.007217 0.000000 -0.003291 0.000000
# 3 -0.010655 -0.007217 0.021189 0.000000 0.008037 0.000000
# 4 0.000000 0.000000 0.000000 0.277695 0.000000 0.366727
# 5 0.023054 -0.003291 0.008037 0.000000 0.064720 0.000000
# 6 0.000000 0.000000 0.000000 0.366727 0.000000 0.720754
#
#
# Mechanical properties :
#
#
# Convention : Reuss Voigt Hill
#
# Bulk Modulus (GPa) = 26.39067 46.73500 36.56284
# Shear Modulus (GPa) = 4.22912 17.86208 11.04560
#
# Velocity S-wave (km/s) = 1.42011 2.91852 2.29504
# Velocity P-wave (km/s) = 3.90815 5.80027 4.94554
#
# Compressibility (1/GPa) = 0.03789218
#
# Stress axis : x y z
#
# Youngs Moduli (GPa) = 26.28803 77.18118 47.19444
#
# Poissons Ratio (x) = -0.05604 0.50287
# Poissons Ratio (y) = -0.01909 0.34062
# Poissons Ratio (z) = 0.28011 0.55705
#
# Static dielectric constant tensor:
#      x y z
#    x 1.904700 0.000000 0.004690 
#    y 0.000000 1.780510 0.000000 
#    z 0.004690 0.000000 1.743190 
# 
# From -- ./inp_files/252767.got.cif
#   From: 2010.05.17/outbox.cif.g08.bks.cpg/sg15_127_cif.got.tgz:252767.got - 2010.06.03 18:47:42.
