data_PCOD9272641
_publ_section_title
;
Structure prediction by ZEFSAII (Michael W. Deem and Ramdas Pophale) SiO2 
 PCOD9272641
Probable space group: C 2/C
;
_chemical_formula_sum "Si O2"
_cell_formula_units_Z 52
_cell_length_a 8.276864
_cell_length_b 25.879156
_cell_length_c 23.720168
_cell_angle_alpha 90.000000
_cell_angle_beta 32.178901
_cell_angle_gamma 90.000000
_cell_volume 2705.864279
_symmetry_space_group_name_H-M "C 2/C"
_symmetry_group_IT_number 15
_symmetry_cell_setting 'monoclinic'
loop_
_space_group_symop_operation_xyz
x,y,z
-x,y,1/2-z
-x,-y,-z
x,-y,1/2+z
1/2+x,1/2+y,z
1/2-x,1/2+y,1/2-z
1/2-x,1/2-y,-z
1/2+x,1/2-y,1/2+z
loop_
_atom_site_type_symbol
_atom_site_label
_atom_site_fract_x
_atom_site_fract_y
_atom_site_fract_z
Si Si1 0.357717 0.490748 0.906315
Si Si2 0.856261 0.191535 0.456635
Si Si3 0.764983 0.279865 0.630579
Si Si4 0.613289 0.086808 0.557925
Si Si5 0.666392 0.319218 0.976614
Si Si6 0.500000 0.526177 0.750000
Si Si7 0.313241 0.582204 0.623720
O O1 0.537048 0.491409 0.794545
O O2 0.498463 0.537105 0.901550
O O3 0.345609 0.437823 0.944491
O O4 0.000000 0.500000 0.000000
O O5 0.750000 0.250000 0.500000
O O6 0.870409 0.191273 0.384531
O O7 0.615516 0.148189 0.548152
O O8 0.132223 0.178218 0.418366
O O9 0.500000 0.261751 0.750000
O O10 0.996592 0.313818 0.599165
O O11 0.967529 0.231322 0.550854
O O12 0.279534 0.063184 0.652529
O O13 0.722808 0.068776 0.586758
O O14 0.511786 0.366589 0.055394
O O15 0.000000 0.591752 0.750000
#
# Coordination Sequence:
#
# PCOD9272641 Si02
#       7
#     8   8   8   8   8   4   8
#     4  10  22  37  58  87 121 148 195 255 305 363
#     4   9  20  39  59  87 124 160 199 250 305 356
#     4  10  20  37  59  85 125 164 204 244 312 369
#     4  10  21  38  61  86 122 159 197 255 307 361
#     4   9  21  37  59  90 120 158 204 261 297 359
#     4  10  20  38  58  94 112 154 208 242 300 376
#     4  11  20  37  64  87 115 154 209 253 306 365
#
# _framework density 19.21752
#
# number of rings (size 3 to 8) (size 9 to 14) (size 15 to 20)
#    0.000    2.154    1.538    0.923    4.308    0.615 
#    1.385    0.000    3.385    0.000    0.000    0.000 
#    0.000    0.000    0.000    0.000    0.000    0.000 
#
# Total GULP energy -144741.080372 kJ/mol
# GULP energy per Si atom -5566.964630 kJ/mol
# Density = 1.917378 g / cm^3
# Si number density = 19.217520 Si / 1000 Ang^3
#
#
#
# Elastic Constant Matrix: (Units=GPa)
#
#
# Indices 1 2 3 4 5 6 
#
# 1 108.4092 32.1879 32.6726 0.0001 21.5272 -0.0010
# 2 32.1879 76.2754 22.9534 -0.0003 4.9966 0.0003
# 3 32.6726 22.9534 44.4269 -0.0003 16.4308 -0.0171
# 4 0.0001 -0.0003 -0.0003 17.0656 0.0002 -3.7803
# 5 21.5272 4.9966 16.4308 0.0002 30.8619 0.0066
# 6 -0.0010 0.0003 -0.0171 -3.7803 0.0066 -11.2481
#
#
#
# Elastic Compliance Matrix: (Units=1/GPa)
#
#
# Indices 1 2 3 4 5 6 
#
# 1 0.013080 -0.003404 -0.005840 0.000001 -0.005463 0.000004
# 2 -0.003404 0.016530 -0.007378 0.000003 0.003626 0.000013
# 3 -0.005840 -0.007378 0.035695 -0.000012 -0.013736 -0.000058
# 4 0.000001 0.000003 -0.000012 0.054537 0.000009 -0.018329
# 5 -0.005463 0.003626 -0.013736 0.000009 0.042939 0.000044
# 6 0.000004 0.000013 -0.000058 -0.018329 0.000044 -0.082744
#
#
# Mechanical properties :
#
#
# Convention : Reuss Voigt Hill
#
# Bulk Modulus (GPa) = 31.19011 44.97102 38.08057
# Shear Modulus (GPa) = 40.33273 16.75573 28.54423
#
# Velocity S-wave (km/s) = 4.58618 2.95600 3.85817
# Velocity P-wave (km/s) = 6.65652 5.92473 6.30126
#
# Compressibility (1/GPa) = 0.03206145
#
# Stress axis : x y z
#
# Youngs Moduli (GPa) = 76.45229 60.49748 28.01474
#
# Poissons Ratio (x) = 0.20596 0.16360
# Poissons Ratio (y) = 0.26028 0.20668
# Poissons Ratio (z) = 0.44647 0.44632
#
# Static dielectric constant tensor:
#      x y z
#    x 1.744520 0.000000 0.017920 
#    y 0.000000 1.678980 0.000000 
#    z 0.017920 0.000000 1.675320 
# 
# From -- ./inp_files/266627.got.cif
#   From: 2010.05.17/outbox.cif.g08.bks.cpg/sg15_134_cif.got.tgz:266627.got - 2010.06.03 18:47:42.
