data_PCOD9272843
_publ_section_title
;
Structure prediction by ZEFSAII (Michael W. Deem and Ramdas Pophale) SiO2 
 PCOD9272843
Probable space group: C 2/C
;
_chemical_formula_sum "Si O2"
_cell_formula_units_Z 44
_cell_length_a 30.729567
_cell_length_b 11.294331
_cell_length_c 17.830789
_cell_angle_alpha 90.000000
_cell_angle_beta 15.993533
_cell_angle_gamma 90.000000
_cell_volume 1705.118640
_symmetry_space_group_name_H-M "C 2/C"
_symmetry_group_IT_number 15
_symmetry_cell_setting 'monoclinic'
loop_
_space_group_symop_operation_xyz
x,y,z
-x,y,1/2-z
-x,-y,-z
x,-y,1/2+z
1/2+x,1/2+y,z
1/2-x,1/2+y,1/2-z
1/2-x,1/2-y,-z
1/2+x,1/2-y,1/2+z
loop_
_atom_site_type_symbol
_atom_site_label
_atom_site_fract_x
_atom_site_fract_y
_atom_site_fract_z
Si Si1 0.304372 0.351249 0.466603
Si Si2 0.090386 0.079427 0.288618
Si Si3 0.731357 0.572219 0.746953
Si Si4 0.000000 0.742471 0.250000
Si Si5 0.641522 0.141085 0.563218
Si Si6 0.086632 0.537219 0.432226
O O1 0.250000 0.250000 0.500000
O O2 0.310679 0.479483 0.418987
O O3 0.474829 0.319924 0.217804
O O4 0.194016 0.357959 0.722340
O O5 0.947012 0.115291 0.471497
O O6 0.000000 0.000000 0.500000
O O7 0.202971 0.175155 0.143874
O O8 0.852066 0.657934 0.505277
O O9 0.772790 0.446592 0.638253
O O10 0.793149 0.557503 0.729625
O O11 0.500000 0.205028 0.750000
O O12 0.536125 0.072220 0.799992
O O13 0.000000 0.500000 0.500000
#
# Coordination Sequence:
#
# PCOD9272843 Si02
#       6
#     8   8   8   4   8   8
#     4  12  24  36  60 101 126 152 207 274 325 358
#     4  10  20  37  60  92 119 168 216 249 303 398
#     4  10  20  38  64  85 121 173 213 257 303 392
#     4  12  22  40  60  94 128 156 208 272 328 344
#     4   9  17  34  60  87 117 162 218 243 297 370
#     4  11  19  35  59  90 124 167 213 253 307 393
#
# _framework density 25.804656999999999
#
# number of rings (size 3 to 8) (size 9 to 14) (size 15 to 20)
#    0.000    1.455    4.545    4.364    0.000    0.000 
#    0.000    0.000    0.000    9.818   28.364    0.000 
#    0.000    0.000    0.000    0.000    0.000    0.000 
#
# Total GULP energy -122729.208511 kJ/mol
# GULP energy per Si atom -5578.600387 kJ/mol
# Density = 2.574592 g / cm^3
# Si number density = 25.804657 Si / 1000 Ang^3
#
#
#
# Elastic Constant Matrix: (Units=GPa)
#
#
# Indices 1 2 3 4 5 6 
#
# 1 164.2627 20.7537 53.0715 0.0000 -36.1487 0.0000
# 2 20.7537 37.7075 14.2831 0.0001 -2.5803 -0.0001
# 3 53.0715 14.2831 128.0556 0.0001 -35.2510 -0.0001
# 4 0.0000 0.0001 0.0001 6.7833 -0.0001 2.9970
# 5 -36.1487 -2.5803 -35.2510 -0.0001 42.8834 0.0000
# 6 0.0000 -0.0001 -0.0001 2.9970 0.0000 41.7343
#
#
#
# Elastic Compliance Matrix: (Units=1/GPa)
#
#
# Indices 1 2 3 4 5 6 
#
# 1 0.008235 -0.003588 -0.001501 0.000000 0.005492 0.000000
# 2 -0.003588 0.029295 -0.002750 0.000000 -0.003522 0.000000
# 3 -0.001501 -0.002750 0.010784 0.000000 0.007434 0.000000
# 4 0.000000 0.000000 0.000000 0.152251 0.000000 -0.010933
# 5 0.005492 -0.003522 0.007434 0.000000 0.033848 0.000000
# 6 0.000000 0.000000 0.000000 -0.010933 0.000000 0.024746
#
#
# Mechanical properties :
#
#
# Convention : Reuss Voigt Hill
#
# Bulk Modulus (GPa) = 30.64056 56.24915 43.44485
# Shear Modulus (GPa) = 17.49987 34.40804 25.95395
#
# Velocity S-wave (km/s) = 2.60699 3.65554 3.17485
# Velocity P-wave (km/s) = 4.57839 6.29783 5.50565
#
# Compressibility (1/GPa) = 0.03263648
#
# Stress axis : x y z
#
# Youngs Moduli (GPa) = 121.43920 34.13508 92.72663
#
# Poissons Ratio (x) = 0.12247 0.13916
# Poissons Ratio (y) = 0.43571 0.25502
# Poissons Ratio (z) = 0.18225 0.09388
#
# Static dielectric constant tensor:
#      x y z
#    x 1.983370 0.000000 -0.023240 
#    y 0.000000 2.046080 0.000000 
#    z -0.023240 0.000000 1.899360 
# 
# From -- ./inp_files/142989.got.cif
#   From: 2010.05.17/outbox.cif.g08.bks.cpg/sg15_72_cif.got.tgz:142989.got - 2010.06.03 18:47:42.
