data_PCOD9272767
_publ_section_title
;
Structure prediction by ZEFSAII (Michael W. Deem and Ramdas Pophale) SiO2 
 PCOD9272767
Probable space group: C 2/C
;
_chemical_formula_sum "Si O2"
_cell_formula_units_Z 32
_cell_length_a 9.155816
_cell_length_b 22.448546
_cell_length_c 7.096116
_cell_angle_alpha 90.000000
_cell_angle_beta 49.697193
_cell_angle_gamma 90.000000
_cell_volume 1112.304379
_symmetry_space_group_name_H-M "C 2/C"
_symmetry_group_IT_number 15
_symmetry_cell_setting 'monoclinic'
loop_
_space_group_symop_operation_xyz
x,y,z
-x,y,1/2-z
-x,-y,-z
x,-y,1/2+z
1/2+x,1/2+y,z
1/2-x,1/2+y,1/2-z
1/2-x,1/2-y,-z
1/2+x,1/2-y,1/2+z
loop_
_atom_site_type_symbol
_atom_site_label
_atom_site_fract_x
_atom_site_fract_y
_atom_site_fract_z
Si Si1 0.653254 0.825921 0.785971
Si Si2 0.814990 0.453989 0.770666
Si Si3 0.940467 0.802448 0.014941
Si Si4 0.599557 0.428470 0.453594
O O1 0.500000 0.826023 0.750000
O O2 0.646171 0.892418 0.879990
O O3 0.865133 0.811881 0.529581
O O4 0.620405 0.765518 0.927322
O O5 0.594304 0.437872 0.006380
O O6 0.000000 0.457605 0.750000
O O7 0.762962 0.523133 0.770446
O O8 0.000000 0.812378 0.750000
O O9 0.818716 0.862093 0.150324
O O10 0.500000 0.436317 0.750000
#
# Coordination Sequence:
#
# PCOD9272767 Si02
#       4
#     8   8   8   8
#     4  10  20  37  60  88 120 153 194 242 295 354
#     4   9  19  37  59  86 116 151 196 244 294 349
#     4  10  20  37  60  87 120 155 193 242 296 352
#     4   9  19  37  58  84 118 154 195 243 294 348
#
# _framework density 28.769100999999999
#
# number of rings (size 3 to 8) (size 9 to 14) (size 15 to 20)
#    0.000    2.500    0.000    1.500    0.000    1.000 
#    0.000   35.000    0.000    0.000    0.000    0.000 
#    0.000    0.000    0.000    0.000    0.000    0.000 
#
# Total GULP energy -89090.875836 kJ/mol
# GULP energy per Si atom -5568.179740 kJ/mol
# Density = 2.870362 g / cm^3
# Si number density = 28.769101 Si / 1000 Ang^3
#
#
#
# Elastic Constant Matrix: (Units=GPa)
#
#
# Indices 1 2 3 4 5 6 
#
# 1 178.3250 51.4303 21.6291 0.0000 -28.3683 0.0000
# 2 51.4303 387.8735 50.5713 0.0000 -16.8404 0.0000
# 3 21.6291 50.5713 96.5382 0.0000 4.5687 0.0000
# 4 0.0000 0.0000 0.0000 40.6992 0.0000 -10.7595
# 5 -28.3683 -16.8404 4.5687 0.0000 16.3476 0.0000
# 6 0.0000 0.0000 0.0000 -10.7595 0.0000 35.5539
#
#
#
# Elastic Compliance Matrix: (Units=1/GPa)
#
#
# Indices 1 2 3 4 5 6 
#
# 1 0.008344 -0.000125 -0.002517 0.000000 0.015054 0.000000
# 2 -0.000125 0.002957 -0.001677 0.000000 0.003298 0.000000
# 3 -0.002517 -0.001677 0.012251 0.000000 -0.009518 0.000000
# 4 0.000000 0.000000 0.000000 0.026707 0.000000 0.008082
# 5 0.015054 0.003298 -0.009518 0.000000 0.093351 0.000000
# 6 0.000000 0.000000 0.000000 0.008082 0.000000 0.030572
#
#
# Mechanical properties :
#
#
# Convention : Reuss Voigt Hill
#
# Bulk Modulus (GPa) = 67.04481 101.11089 84.07785
# Shear Modulus (GPa) = 26.62544 54.46055 40.54299
#
# Velocity S-wave (km/s) = 3.04548 4.35561 3.75808
# Velocity P-wave (km/s) = 5.97676 7.77927 6.93681
#
# Compressibility (1/GPa) = 0.01491540
#
# Stress axis : x y z
#
# Youngs Moduli (GPa) = 119.85080 338.23639 81.62396
#
# Poissons Ratio (x) = 0.04216 0.20541
# Poissons Ratio (y) = 0.01494 0.13688
# Poissons Ratio (z) = 0.30161 0.56719
#
# Static dielectric constant tensor:
#      x y z
#    x 2.351640 0.000000 0.112920 
#    y 0.000000 2.319830 0.000000 
#    z 0.112920 0.000000 2.334410 
# 
# From -- ./inp_files/23008.got.cif
#   From: 2010.05.17/outbox.cif.g08.bks.cpg/sg15_12_cif.got.tgz:23008.got - 2010.06.03 18:47:42.
