data_PCOD9272437
_publ_section_title
;
Structure prediction by ZEFSAII (Michael W. Deem and Ramdas Pophale) SiO2 
 PCOD9272437
Probable space group: C 2/C
;
_chemical_formula_sum "Si O2"
_cell_formula_units_Z 52
_cell_length_a 5.689064
_cell_length_b 18.461245
_cell_length_c 25.091644
_cell_angle_alpha 90.000000
_cell_angle_beta 73.367250
_cell_angle_gamma 90.000000
_cell_volume 2525.041731
_symmetry_space_group_name_H-M "C 2/C"
_symmetry_group_IT_number 15
_symmetry_cell_setting 'monoclinic'
loop_
_space_group_symop_operation_xyz
x,y,z
-x,y,1/2-z
-x,-y,-z
x,-y,1/2+z
1/2+x,1/2+y,z
1/2-x,1/2+y,1/2-z
1/2-x,1/2-y,-z
1/2+x,1/2-y,1/2+z
loop_
_atom_site_type_symbol
_atom_site_label
_atom_site_fract_x
_atom_site_fract_y
_atom_site_fract_z
Si Si1 0.955937 0.931058 0.189592
Si Si2 0.228333 0.568785 0.333829
Si Si3 0.968073 0.215522 0.189247
Si Si4 0.329317 0.831703 0.882595
Si Si5 0.998524 0.793503 0.503157
Si Si6 0.500000 0.010229 0.250000
Si Si7 0.140628 0.808471 0.383914
O O1 0.677891 0.960880 0.203222
O O2 0.971161 0.860147 0.153383
O O3 0.000000 0.917466 0.250000
O O4 0.137608 0.995018 0.158794
O O5 0.390997 0.639690 0.329498
O O6 0.967659 0.591790 0.375155
O O7 0.176439 0.557614 0.274598
O O8 0.085167 0.284052 0.150177
O O9 0.000000 0.230937 0.250000
O O10 0.718695 0.194989 0.175002
O O11 0.092325 0.830772 0.936197
O O12 0.506858 0.768997 0.892243
O O13 0.750000 0.750000 0.500000
O O14 0.250000 0.750000 0.500000
O O15 0.085766 0.839594 0.446085
#
# Coordination Sequence:
#
# PCOD9272437 Si02
#       7
#     8   8   8   8   8   4   8
#     4  10  22  37  57  84 127 165 203 246 329 394
#     4  10  20  37  56  84 116 163 210 251 309 386
#     4  11  21  32  58  89 119 152 204 260 315 377
#     4  10  21  37  62  86 119 161 212 264 311 375
#     4  10  20  42  63  90 125 170 213 263 328 383
#     4  10  20  38  58  78 122 170 194 242 310 392
#     4  10  23  36  57  91 121 158 204 263 316 385
#
# _framework density 20.593720000000001
#
# number of rings (size 3 to 8) (size 9 to 14) (size 15 to 20)
#    0.000    1.846    1.538    3.231    3.231    2.462 
#    0.000    0.769    0.000    3.692    0.000    0.000 
#    0.000    0.000    0.000    0.000    0.000    0.000 
#
# Total GULP energy -144743.406011 kJ/mol
# GULP energy per Si atom -5567.054077 kJ/mol
# Density = 2.054685 g / cm^3
# Si number density = 20.593720 Si / 1000 Ang^3
#
#
#
# Elastic Constant Matrix: (Units=GPa)
#
#
# Indices 1 2 3 4 5 6 
#
# 1 69.7123 13.6589 14.8185 0.0000 -4.7845 0.0000
# 2 13.6589 77.1334 31.2061 0.0000 -13.5947 0.0000
# 3 14.8185 31.2061 101.8084 0.0000 -8.8596 0.0000
# 4 0.0000 0.0000 0.0000 11.3704 0.0000 -0.7229
# 5 -4.7845 -13.5947 -8.8596 0.0000 20.6120 0.0000
# 6 0.0000 0.0000 0.0000 -0.7229 0.0000 17.2349
#
#
#
# Elastic Compliance Matrix: (Units=1/GPa)
#
#
# Indices 1 2 3 4 5 6 
#
# 1 0.015129 -0.001768 -0.001513 0.000000 0.001695 0.000000
# 2 -0.001768 0.016440 -0.004024 0.000000 0.008703 0.000000
# 3 -0.001513 -0.004024 0.011443 0.000000 0.001913 0.000000
# 4 0.000000 0.000000 0.000000 0.088183 0.000000 0.003699
# 5 0.001695 0.008703 0.001913 0.000000 0.055471 0.000000
# 6 0.000000 0.000000 0.000000 0.003699 0.000000 0.058177
#
#
# Mechanical properties :
#
#
# Convention : Reuss Voigt Hill
#
# Bulk Modulus (GPa) = 35.21028 40.89125 38.05076
# Shear Modulus (GPa) = 18.59293 22.44150 20.51721
#
# Velocity S-wave (km/s) = 3.00800 3.30468 3.15982
# Velocity P-wave (km/s) = 5.40359 5.87031 5.64178
#
# Compressibility (1/GPa) = 0.02840080
#
# Stress axis : x y z
#
# Youngs Moduli (GPa) = 66.09821 60.82857 87.39330
#
# Poissons Ratio (x) = 0.10757 0.13218
# Poissons Ratio (y) = 0.11688 0.35170
# Poissons Ratio (z) = 0.09997 0.24479
#
# Static dielectric constant tensor:
#      x y z
#    x 1.860170 0.000000 -0.042040 
#    y 0.000000 1.710850 0.000000 
#    z -0.042040 0.000000 1.815730 
# 
# From -- ./inp_files/285781.got.cif
#   From: 2010.05.17/outbox.cif.g08.bks.cpg/sg15_143_cif.got.tgz:285781.got - 2010.06.03 18:47:42.
