data_PCOD9272176
_publ_section_title
;
Structure prediction by ZEFSAII (Michael W. Deem and Ramdas Pophale) SiO2 
 PCOD9272176
Probable space group: C 2/C
;
_chemical_formula_sum "Si O2"
_cell_formula_units_Z 48
_cell_length_a 8.389094
_cell_length_b 28.801014
_cell_length_c 11.712722
_cell_angle_alpha 90.000000
_cell_angle_beta 127.724028
_cell_angle_gamma 90.000000
_cell_volume 2238.406941
_symmetry_space_group_name_H-M "C 2/C"
_symmetry_group_IT_number 15
_symmetry_cell_setting 'monoclinic'
loop_
_space_group_symop_operation_xyz
x,y,z
-x,y,1/2-z
-x,-y,-z
x,-y,1/2+z
1/2+x,1/2+y,z
1/2-x,1/2+y,1/2-z
1/2-x,1/2-y,-z
1/2+x,1/2-y,1/2+z
loop_
_atom_site_type_symbol
_atom_site_label
_atom_site_fract_x
_atom_site_fract_y
_atom_site_fract_z
Si Si1 0.230300 0.698801 0.305757
Si Si2 0.579085 0.289163 0.152957
Si Si3 0.874688 0.047157 0.455033
Si Si4 0.715283 0.399609 0.789032
Si Si5 0.577642 0.947918 0.038780
Si Si6 0.856450 0.890109 0.301178
O O1 0.392356 0.708882 0.479719
O O2 0.211062 0.742331 0.210119
O O3 0.282016 0.651280 0.264178
O O4 0.000000 0.691698 0.250000
O O5 0.500000 0.288569 0.250000
O O6 0.701849 0.337283 0.198036
O O7 0.752209 0.059743 0.289751
O O8 0.732383 0.051339 0.501263
O O9 0.025071 0.090281 0.538957
O O10 0.000000 0.000000 0.500000
O O11 0.500000 0.408475 0.750000
O O12 0.903447 0.409389 0.952213
O O13 0.698940 0.930154 0.201655
O O14 0.500000 0.000000 0.000000
O O15 0.000000 0.887471 0.250000
#
# Coordination Sequence:
#
# PCOD9272176 Si02
#       6
#     8   8   8   8   8   8
#     4  11  22  38  68  97 123 162 211 267 327 385
#     4  10  20  36  65 100 125 152 209 265 328 390
#     4  11  21  40  67  92 127 162 207 266 322 386
#     4  12  26  42  60  89 131 175 219 259 308 378
#     4  11  23  40  65  96 125 167 211 262 327 382
#     4   9  20  36  61  92 123 154 201 259 319 384
#
# _framework density 21.443822000000001
#
# number of rings (size 3 to 8) (size 9 to 14) (size 15 to 20)
#    0.000    1.333    1.667    5.500    7.000    1.333 
#    0.000    3.333    0.000    0.000    0.000    0.000 
#    0.000    0.000    0.000    0.000    0.000    0.000 
#
# Total GULP energy -133812.385301 kJ/mol
# GULP energy per Si atom -5575.516054 kJ/mol
# Density = 2.139501 g / cm^3
# Si number density = 21.443822 Si / 1000 Ang^3
#
#
#
# Elastic Constant Matrix: (Units=GPa)
#
#
# Indices 1 2 3 4 5 6 
#
# 1 32.3004 9.4458 1.9224 0.0000 9.7556 0.0000
# 2 9.4458 154.6980 33.1560 0.0000 9.3304 0.0000
# 3 1.9224 33.1560 104.8504 0.0000 0.6246 0.0000
# 4 0.0000 0.0000 0.0000 41.2792 0.0000 2.9675
# 5 9.7556 9.3304 0.6246 0.0000 14.3302 0.0000
# 6 0.0000 0.0000 0.0000 2.9675 0.0000 4.8830
#
#
#
# Elastic Compliance Matrix: (Units=1/GPa)
#
#
# Indices 1 2 3 4 5 6 
#
# 1 0.039081 -0.000742 -0.000326 0.000000 -0.026108 0.000000
# 2 -0.000742 0.007240 -0.002251 0.000000 -0.004111 0.000000
# 3 -0.000326 -0.002251 0.010248 0.000000 0.001241 0.000000
# 4 0.000000 0.000000 0.000000 0.025332 0.000000 -0.015395
# 5 -0.026108 -0.004111 0.001241 0.000000 0.090179 0.000000
# 6 0.000000 0.000000 0.000000 -0.015395 0.000000 0.214146
#
#
# Mechanical properties :
#
#
# Convention : Reuss Voigt Hill
#
# Bulk Modulus (GPa) = 20.02799 42.32191 31.17495
# Shear Modulus (GPa) = 12.20974 28.58678 20.39826
#
# Velocity S-wave (km/s) = 2.38876 3.65513 3.08757
# Velocity P-wave (km/s) = 4.11926 6.13126 5.22305
#
# Compressibility (1/GPa) = 0.04993012
#
# Stress axis : x y z
#
# Youngs Moduli (GPa) = 25.58778 138.12226 97.58083
#
# Poissons Ratio (x) = 0.10243 0.03186
# Poissons Ratio (y) = 0.01898 0.21969
# Poissons Ratio (z) = 0.00835 0.31096
#
# Static dielectric constant tensor:
#      x y z
#    x 1.787360 0.000000 0.011290 
#    y 0.000000 1.803500 0.000000 
#    z 0.011290 0.000000 1.762410 
# 
# From -- ./inp_files/139646.got.cif
#   From: 2010.05.17/outbox.cif.g08.bks.cpg/sg15_70_cif.got.tgz:139646.got - 2010.06.03 18:47:42.
