data_PCOD9272367
_publ_section_title
;
Structure prediction by ZEFSAII (Michael W. Deem and Ramdas Pophale) SiO2 
 PCOD9272367
Probable space group: C 2/C
;
_chemical_formula_sum "Si O2"
_cell_formula_units_Z 48
_cell_length_a 13.936354
_cell_length_b 22.331184
_cell_length_c 16.710300
_cell_angle_alpha 90.000000
_cell_angle_beta 29.454263
_cell_angle_gamma 90.000000
_cell_volume 2557.235137
_symmetry_space_group_name_H-M "C 2/C"
_symmetry_group_IT_number 15
_symmetry_cell_setting 'monoclinic'
loop_
_space_group_symop_operation_xyz
x,y,z
-x,y,1/2-z
-x,-y,-z
x,-y,1/2+z
1/2+x,1/2+y,z
1/2-x,1/2+y,1/2-z
1/2-x,1/2-y,-z
1/2+x,1/2-y,1/2+z
loop_
_atom_site_type_symbol
_atom_site_label
_atom_site_fract_x
_atom_site_fract_y
_atom_site_fract_z
Si Si1 0.734651 0.579648 0.802284
Si Si2 0.925392 0.335919 0.394668
Si Si3 0.824272 0.988953 0.315799
Si Si4 0.149417 0.105111 0.316606
Si Si5 0.026028 0.795604 0.643162
Si Si6 0.945532 0.463009 0.698110
O O1 0.680291 0.560144 0.751828
O O2 0.795664 0.518591 0.803136
O O3 0.926392 0.622042 0.664465
O O4 0.546975 0.604154 0.986314
O O5 0.930464 0.268404 0.429127
O O6 0.695875 0.343807 0.541497
O O7 0.000000 0.344901 0.250000
O O8 0.626295 0.982918 0.511068
O O9 0.000000 0.981663 0.250000
O O10 0.844338 0.052103 0.254159
O O11 0.333643 0.092192 0.238854
O O12 0.143145 0.168138 0.275800
O O13 0.000000 0.770703 0.750000
O O14 0.000000 0.452038 0.750000
#
# Coordination Sequence:
#
# PCOD9272367 Si02
#       6
#     8   8   8   8   8   8
#     4  11  21  35  57  79 112 147 184 226 273 324
#     4  10  20  37  53  84 113 149 179 226 275 324
#     4  11  23  37  54  81 109 145 186 225 276 329
#     4  11  21  36  55  82 110 148 183 226 273 326
#     4  10  22  33  56  82 116 145 185 222 274 328
#     4  11  23  37  55  80 110 145 183 228 276 329
#
# _framework density 18.770271999999999
#
# number of rings (size 3 to 8) (size 9 to 14) (size 15 to 20)
#    0.000    1.333    1.667    7.000    7.000    0.000 
#    0.000    0.000    0.000    1.000    0.000    4.667 
#    0.000    0.000    0.000    0.000    0.000    0.000 
#
# Total GULP energy -133640.936179 kJ/mol
# GULP energy per Si atom -5568.372341 kJ/mol
# Density = 1.872755 g / cm^3
# Si number density = 18.770272 Si / 1000 Ang^3
#
#
#
# Elastic Constant Matrix: (Units=GPa)
#
#
# Indices 1 2 3 4 5 6 
#
# 1 157.7626 48.5347 8.9725 0.0223 -1.1018 -0.0242
# 2 48.5347 65.2709 1.4825 0.0165 -0.2792 -0.0075
# 3 8.9725 1.4825 28.9657 -0.0164 0.7812 0.0192
# 4 0.0223 0.0165 -0.0164 23.9955 -0.0227 -13.5813
# 5 -1.1018 -0.2792 0.7812 -0.0227 26.4204 0.0248
# 6 -0.0242 -0.0075 0.0192 -13.5813 0.0248 40.9277
#
#
#
# Elastic Compliance Matrix: (Units=1/GPa)
#
#
# Indices 1 2 3 4 5 6 
#
# 1 0.008369 -0.006170 -0.002286 -0.000003 0.000351 0.000004
# 2 -0.006170 0.019888 0.000895 -0.000009 -0.000074 -0.000003
# 3 -0.002286 0.000895 0.035216 0.000018 -0.001127 -0.000011
# 4 -0.000003 -0.000009 0.000018 0.051312 0.000027 0.017027
# 5 0.000351 -0.000074 -0.001127 0.000027 0.037897 -0.000013
# 6 0.000004 -0.000003 -0.000011 0.017027 -0.000013 0.030084
#
#
# Mechanical properties :
#
#
# Convention : Reuss Voigt Hill
#
# Bulk Modulus (GPa) = 20.68166 41.10875 30.89521
# Shear Modulus (GPa) = 23.36401 31.13602 27.25002
#
# Velocity S-wave (km/s) = 3.53191 4.07725 3.81434
# Velocity P-wave (km/s) = 5.26068 6.64182 5.99118
#
# Compressibility (1/GPa) = 0.04835202
#
# Stress axis : x y z
#
# Youngs Moduli (GPa) = 119.48537 50.28180 28.39590
#
# Poissons Ratio (x) = 0.31023 0.06492
# Poissons Ratio (y) = 0.73720 -0.02542
# Poissons Ratio (z) = 0.27316 -0.04502
#
# Static dielectric constant tensor:
#      x y z
#    x 1.650980 0.000000 -0.005210 
#    y 0.000000 1.680500 0.000040 
#    z -0.005210 0.000040 1.802640 
# 
# From -- ./inp_files/206677.got.cif
#   From: 2010.05.17/outbox.cif.g08.bks.cpg/sg15_104_cif.got.tgz:206677.got - 2010.06.03 18:47:42.
