data_PCOD9272317
_publ_section_title
;
Structure prediction by ZEFSAII (Michael W. Deem and Ramdas Pophale) SiO2 
 PCOD9272317
Probable space group: C 2/C
;
_chemical_formula_sum "Si O2"
_cell_formula_units_Z 60
_cell_length_a 16.691252
_cell_length_b 25.437047
_cell_length_c 10.954965
_cell_angle_alpha 90.000000
_cell_angle_beta 145.713285
_cell_angle_gamma 90.000000
_cell_volume 2620.190946
_symmetry_space_group_name_H-M "C 2/C"
_symmetry_group_IT_number 15
_symmetry_cell_setting 'monoclinic'
loop_
_space_group_symop_operation_xyz
x,y,z
-x,y,1/2-z
-x,-y,-z
x,-y,1/2+z
1/2+x,1/2+y,z
1/2-x,1/2+y,1/2-z
1/2-x,1/2-y,-z
1/2+x,1/2-y,1/2+z
loop_
_atom_site_type_symbol
_atom_site_label
_atom_site_fract_x
_atom_site_fract_y
_atom_site_fract_z
Si Si1 0.267286 0.617466 0.901436
Si Si2 0.730548 0.359600 0.719649
Si Si3 0.512373 0.802350 0.037378
Si Si4 0.634405 0.538867 0.689378
Si Si5 0.836465 0.447701 0.002933
Si Si6 0.317168 0.639387 0.618082
Si Si7 0.022147 0.812634 0.963156
Si Si8 0.000000 0.331334 0.750000
O O1 0.122117 0.650472 0.699652
O O2 0.314733 0.573086 0.863049
O O3 0.244971 0.585198 0.995834
O O4 0.384176 0.662858 0.026579
O O5 0.668761 0.350430 0.507061
O O6 0.608322 0.348875 0.662319
O O7 0.802647 0.416049 0.835280
O O8 0.859645 0.319280 0.896013
O O9 0.539251 0.745526 0.127472
O O10 0.505300 0.798300 0.881279
O O11 0.500000 0.500000 0.500000
O O12 0.607509 0.584610 0.753669
O O13 0.765194 0.503852 0.898862
O O14 0.000000 0.449550 0.250000
O O15 0.374242 0.682651 0.786040
O O16 0.146401 0.635819 0.426356
#
# Coordination Sequence:
#
# PCOD9272317 Si02
#       8
#     8   8   8   8   8   8   8   4
#     4  11  25  51  68 104 154 183 250 305 355 456
#     4  11  25  41  66 104 143 182 244 299 355 442
#     4  11  22  42  71 107 145 191 238 303 371 441
#     4  11  26  46  75 109 139 191 240 303 380 425
#     4  12  27  47  74 100 144 200 250 301 373 436
#     4  10  23  42  67 105 150 177 237 303 360 445
#     4  11  23  42  72 107 142 192 234 304 383 420
#     4  10  20  36  68  98 146 180 222 292 372 424
#
# _framework density 22.899094999999999
#
# number of rings (size 3 to 8) (size 9 to 14) (size 15 to 20)
#    0.000    1.067    4.000    2.800    4.667    3.733 
#    2.400    4.000    0.000    0.000    0.000    0.000 
#    0.000    0.000    0.000    0.000    0.000    0.000 
#
# Total GULP energy -167639.437094 kJ/mol
# GULP energy per Si atom -5587.981236 kJ/mol
# Density = 2.284698 g / cm^3
# Si number density = 22.899095 Si / 1000 Ang^3
#
#
#
# Elastic Constant Matrix: (Units=GPa)
#
#
# Indices 1 2 3 4 5 6 
#
# 1 67.7008 11.6567 26.7466 0.0000 23.0710 0.0000
# 2 11.6567 110.0418 27.2121 0.0000 3.3759 0.0000
# 3 26.7466 27.2121 82.0170 0.0000 19.3625 0.0000
# 4 0.0000 0.0000 0.0000 26.6101 0.0000 15.7009
# 5 23.0710 3.3759 19.3625 0.0000 34.9804 0.0000
# 6 0.0000 0.0000 0.0000 15.7009 0.0000 21.1609
#
#
#
# Elastic Compliance Matrix: (Units=1/GPa)
#
#
# Indices 1 2 3 4 5 6 
#
# 1 0.020183 -0.000894 -0.003638 0.000000 -0.011211 0.000000
# 2 -0.000894 0.009969 -0.003368 0.000000 0.001492 0.000000
# 3 -0.003638 -0.003368 0.015936 0.000000 -0.006096 0.000000
# 4 0.000000 0.000000 0.000000 0.066844 0.000000 -0.049597
# 5 -0.011211 0.001492 -0.006096 0.000000 0.039212 0.000000
# 6 0.000000 0.000000 0.000000 -0.049597 0.000000 0.084057
#
#
# Mechanical properties :
#
#
# Convention : Reuss Voigt Hill
#
# Bulk Modulus (GPa) = 33.01855 43.44339 38.23097
# Shear Modulus (GPa) = 19.07686 29.49321 24.28504
#
# Velocity S-wave (km/s) = 2.88945 3.59271 3.26010
# Velocity P-wave (km/s) = 5.05790 6.01855 5.55902
#
# Compressibility (1/GPa) = 0.03028600
#
# Stress axis : x y z
#
# Youngs Moduli (GPa) = 49.54711 100.30733 62.75160
#
# Poissons Ratio (x) = 0.08970 0.22832
# Poissons Ratio (y) = 0.04431 0.21137
# Poissons Ratio (z) = 0.18027 0.33787
#
# Static dielectric constant tensor:
#      x y z
#    x 1.870440 0.000000 -0.039910 
#    y 0.000000 1.828050 0.000000 
#    z -0.039910 0.000000 1.936630 
# 
# From -- ./inp_files/108465.got.cif
#   From: 2010.05.17/outbox.cif.g08.bks.cpg/sg15_55_cif.got.tgz:108465.got - 2010.06.03 18:47:42.
