data_PCOD9272615
_publ_section_title
;
Structure prediction by ZEFSAII (Michael W. Deem and Ramdas Pophale) SiO2 
 PCOD9272615
Probable space group: C 2/C
;
_chemical_formula_sum "Si O2"
_cell_formula_units_Z 56
_cell_length_a 30.961237
_cell_length_b 8.660017
_cell_length_c 17.658796
_cell_angle_alpha 90.000000
_cell_angle_beta 141.654635
_cell_angle_gamma 90.000000
_cell_volume 2937.447181
_symmetry_space_group_name_H-M "C 2/C"
_symmetry_group_IT_number 15
_symmetry_cell_setting 'monoclinic'
loop_
_space_group_symop_operation_xyz
x,y,z
-x,y,1/2-z
-x,-y,-z
x,-y,1/2+z
1/2+x,1/2+y,z
1/2-x,1/2+y,1/2-z
1/2-x,1/2-y,-z
1/2+x,1/2-y,1/2+z
loop_
_atom_site_type_symbol
_atom_site_label
_atom_site_fract_x
_atom_site_fract_y
_atom_site_fract_z
Si Si1 0.677731 0.957505 0.381409
Si Si2 0.232681 0.476061 0.619567
Si Si3 0.555332 0.527360 0.142579
Si Si4 0.393447 0.960155 0.943303
Si Si5 0.165479 0.738080 0.725319
Si Si6 0.475066 0.189115 0.801922
Si Si7 0.341513 0.740729 0.735918
O O1 0.677233 0.135628 0.354724
O O2 0.723201 0.932538 0.518366
O O3 0.701166 0.866825 0.338612
O O4 0.600386 0.890603 0.291949
O O5 0.157409 0.474207 0.554406
O O6 0.275098 0.347762 0.726038
O O7 0.277491 0.633529 0.676462
O O8 0.614520 0.640165 0.192732
O O9 0.525011 0.632537 0.168662
O O10 0.596878 0.368354 0.212311
O O11 0.500000 0.500000 0.000000
O O12 0.368676 0.836763 0.846005
O O13 0.381940 0.126682 0.889512
O O14 0.469938 0.909367 0.073238
O O15 0.500000 0.184973 0.750000
#
# Coordination Sequence:
#
# PCOD9272615 Si02
#       7
#     8   8   8   8   8   8   8
#     4  10  21  37  61  82 117 153 191 239 283 353
#     4  11  20  38  57  86 119 148 191 237 293 336
#     4  10  20  37  59  82 114 148 195 239 282 345
#     4  11  21  37  60  85 118 149 195 241 287 352
#     4   9  22  35  57  85 108 154 193 230 285 346
#     4  11  22  39  59  87 115 155 192 240 304 341
#     4  10  22  37  60  88 114 155 196 240 285 341
#
# _framework density 19.064171999999999
#
# number of rings (size 3 to 8) (size 9 to 14) (size 15 to 20)
#    0.000    1.714    2.857    1.714    2.000    1.714 
#    0.000    2.143    0.000    0.000    0.000    0.000 
#    0.000    0.000    0.000    0.000    0.000    0.000 
#
# Total GULP energy -156001.180332 kJ/mol
# GULP energy per Si atom -5571.470726 kJ/mol
# Density = 1.902078 g / cm^3
# Si number density = 19.064172 Si / 1000 Ang^3
#
#
#
# Elastic Constant Matrix: (Units=GPa)
#
#
# Indices 1 2 3 4 5 6 
#
# 1 28.3045 10.4796 -9.0267 0.0000 -1.9590 0.0000
# 2 10.4796 112.4734 26.8945 0.0000 1.5879 0.0000
# 3 -9.0267 26.8945 68.8916 0.0000 -0.9624 0.0000
# 4 0.0000 0.0000 0.0000 25.5126 0.0000 -7.9302
# 5 -1.9590 1.5879 -0.9624 0.0000 26.0723 0.0000
# 6 0.0000 0.0000 0.0000 -7.9302 0.0000 12.1144
#
#
#
# Elastic Compliance Matrix: (Units=1/GPa)
#
#
# Indices 1 2 3 4 5 6 
#
# 1 0.040023 -0.005566 0.007468 0.000000 0.003622 0.000000
# 2 -0.005566 0.010595 -0.004883 0.000000 -0.001244 0.000000
# 3 0.007468 -0.004883 0.017421 0.000000 0.001502 0.000000
# 4 0.000000 0.000000 0.000000 0.049209 0.000000 0.032213
# 5 0.003622 -0.001244 0.001502 0.000000 0.038758 0.000000
# 6 0.000000 0.000000 0.000000 0.032213 0.000000 0.103633
#
#
# Mechanical properties :
#
#
# Convention : Reuss Voigt Hill
#
# Bulk Modulus (GPa) = 16.10906 29.59603 22.85255
# Shear Modulus (GPa) = 17.46459 24.82800 21.14629
#
# Velocity S-wave (km/s) = 3.02999 3.61271 3.33410
# Velocity P-wave (km/s) = 4.55076 5.74111 5.18024
#
# Compressibility (1/GPa) = 0.06207687
#
# Stress axis : x y z
#
# Youngs Moduli (GPa) = 24.98561 94.38690 57.40151
#
# Poissons Ratio (x) = 0.52535 -0.42865
# Poissons Ratio (y) = 0.13907 0.28027
# Poissons Ratio (z) = -0.18658 0.46086
#
# Static dielectric constant tensor:
#      x y z
#    x 1.691430 0.000000 0.046590 
#    y 0.000000 1.704800 0.000000 
#    z 0.046590 0.000000 1.832940 
# 
# From -- ./inp_files/218181.got.cif
#   From: 2010.05.17/outbox.cif.g08.bks.cpg/sg15_110_cif.got.tgz:218181.got - 2010.06.03 18:47:42.
