data_PCOD9272503
_publ_section_title
;
Structure prediction by ZEFSAII (Michael W. Deem and Ramdas Pophale) SiO2 
 PCOD9272503
Probable space group: C 2/C
;
_chemical_formula_sum "Si O2"
_cell_formula_units_Z 64
_cell_length_a 11.635225
_cell_length_b 15.805372
_cell_length_c 20.214901
_cell_angle_alpha 90.000000
_cell_angle_beta 55.894830
_cell_angle_gamma 90.000000
_cell_volume 3078.127279
_symmetry_space_group_name_H-M "C 2/C"
_symmetry_group_IT_number 15
_symmetry_cell_setting 'monoclinic'
loop_
_space_group_symop_operation_xyz
x,y,z
-x,y,1/2-z
-x,-y,-z
x,-y,1/2+z
1/2+x,1/2+y,z
1/2-x,1/2+y,1/2-z
1/2-x,1/2-y,-z
1/2+x,1/2-y,1/2+z
loop_
_atom_site_type_symbol
_atom_site_label
_atom_site_fract_x
_atom_site_fract_y
_atom_site_fract_z
Si Si1 0.960101 0.834409 0.510479
Si Si2 0.773106 0.397026 0.013526
Si Si3 0.576766 0.820173 0.898469
Si Si4 0.202627 0.943627 0.620420
Si Si5 0.759304 0.718222 0.643110
Si Si6 0.132266 0.079523 0.752082
Si Si7 0.136148 0.373976 0.731849
Si Si8 0.057998 0.048486 0.372579
O O1 0.828398 0.869673 0.512196
O O2 0.904203 0.765987 0.583290
O O3 0.008283 0.915051 0.538253
O O4 0.050440 0.775247 0.432776
O O5 0.752359 0.492081 0.046424
O O6 0.732956 0.338674 0.088297
O O7 0.931753 0.371891 0.949311
O O8 0.691874 0.867399 0.905360
O O9 0.624748 0.834963 0.808233
O O10 0.046903 0.917515 0.650089
O O11 0.195445 0.999563 0.690386
O O12 0.740222 0.656203 0.711599
O O13 0.648764 0.792622 0.680931
O O14 0.000000 0.104945 0.750000
O O15 0.076940 0.048553 0.841187
O O16 0.282677 0.421092 0.678791
O O17 0.000000 0.422664 0.750000
#
# Coordination Sequence:
#
# PCOD9272503 Si02
#       8
#     8   8   8   8   8   8   8   8
#     4  10  21  36  56  84 119 154 183 251 294 347
#     4  10  20  37  57  87 119 145 193 247 303 350
#     4  11  20  34  58  85 116 148 196 241 306 352
#     4  10  21  36  57  81 110 158 194 238 287 363
#     4   9  18  33  56  83 112 140 186 239 291 343
#     4   9  17  32  54  80 105 142 187 237 279 337
#     4  11  20  33  57  87 112 147 190 248 297 345
#     4  10  21  37  55  81 117 153 197 236 288 350
#
# _framework density 20.791862999999999
#
# number of rings (size 3 to 8) (size 9 to 14) (size 15 to 20)
#    0.000    2.000    1.250    4.500    0.000    3.000 
#    0.000    0.000    0.000    0.000    6.500    0.000 
#    0.000    0.000    0.000    0.000    0.000    0.000 
#
# Total GULP energy -178262.426774 kJ/mol
# GULP energy per Si atom -5570.700837 kJ/mol
# Density = 2.074454 g / cm^3
# Si number density = 20.791863 Si / 1000 Ang^3
#
#
#
# Elastic Constant Matrix: (Units=GPa)
#
#
# Indices 1 2 3 4 5 6 
#
# 1 87.6875 38.9062 2.3681 0.0000 -7.5492 0.0000
# 2 38.9062 72.1376 21.3585 0.0000 6.2273 0.0000
# 3 2.3681 21.3585 48.1288 0.0000 -2.5050 0.0000
# 4 0.0000 0.0000 0.0000 36.6332 0.0000 -0.8297
# 5 -7.5492 6.2273 -2.5050 0.0000 24.8904 0.0000
# 6 0.0000 0.0000 0.0000 -0.8297 0.0000 21.4779
#
#
#
# Elastic Compliance Matrix: (Units=1/GPa)
#
#
# Indices 1 2 3 4 5 6 
#
# 1 0.017002 -0.011260 0.004600 0.000000 0.008437 0.000000
# 2 -0.011260 0.023990 -0.010638 0.000000 -0.010488 0.000000
# 3 0.004600 -0.010638 0.025618 0.000000 0.006635 0.000000
# 4 0.000000 0.000000 0.000000 0.027322 0.000000 0.001055
# 5 0.008437 -0.010488 0.006635 0.000000 0.046027 0.000000
# 6 0.000000 0.000000 0.000000 0.001055 0.000000 0.046600
#
#
# Mechanical properties :
#
#
# Convention : Reuss Voigt Hill
#
# Bulk Modulus (GPa) = 31.23754 37.02438 34.13096
# Shear Modulus (GPa) = 21.56778 26.28838 23.92808
#
# Velocity S-wave (km/s) = 3.22424 3.55964 3.39608
# Velocity P-wave (km/s) = 5.37750 5.89411 5.64172
#
# Compressibility (1/GPa) = 0.03201276
#
# Stress axis : x y z
#
# Youngs Moduli (GPa) = 58.81585 41.68325 39.03556
#
# Poissons Ratio (x) = 0.46935 -0.17954
# Poissons Ratio (y) = 0.66227 0.41527
# Poissons Ratio (z) = -0.27052 0.44344
#
# Static dielectric constant tensor:
#      x y z
#    x 1.740340 0.000000 -0.024760 
#    y 0.000000 1.805760 0.000000 
#    z -0.024760 0.000000 1.879530 
# 
# From -- ./inp_files/239550.got.cif
#   From: 2010.05.17/outbox.cif.g08.bks.cpg/sg15_120_cif.got.tgz:239550.got - 2010.06.03 18:47:42.
