data_PCOD9272570
_publ_section_title
;
Structure prediction by ZEFSAII (Michael W. Deem and Ramdas Pophale) SiO2 
 PCOD9272570
Probable space group: C 2/C
;
_chemical_formula_sum "Si O2"
_cell_formula_units_Z 56
_cell_length_a 23.437238
_cell_length_b 8.698949
_cell_length_c 16.879688
_cell_angle_alpha 90.000000
_cell_angle_beta 57.772931
_cell_angle_gamma 90.000000
_cell_volume 2911.239046
_symmetry_space_group_name_H-M "C 2/C"
_symmetry_group_IT_number 15
_symmetry_cell_setting 'monoclinic'
loop_
_space_group_symop_operation_xyz
x,y,z
-x,y,1/2-z
-x,-y,-z
x,-y,1/2+z
1/2+x,1/2+y,z
1/2-x,1/2+y,1/2-z
1/2-x,1/2-y,-z
1/2+x,1/2-y,1/2+z
loop_
_atom_site_type_symbol
_atom_site_label
_atom_site_fract_x
_atom_site_fract_y
_atom_site_fract_z
Si Si1 0.101469 0.247468 0.376167
Si Si2 0.768650 0.918543 0.795471
Si Si3 0.012171 0.937524 0.827484
Si Si4 0.840853 0.512057 0.250157
Si Si5 0.637877 0.340478 0.193613
Si Si6 0.741758 0.655027 0.925405
Si Si7 0.374106 0.604169 0.974356
O O1 0.166930 0.166306 0.288978
O O2 0.039126 0.166411 0.378968
O O3 0.104384 0.420681 0.341698
O O4 0.111441 0.214054 0.461528
O O5 0.724010 0.984309 0.758814
O O6 0.726901 0.788916 0.872700
O O7 0.798913 0.052391 0.828168
O O8 0.000000 0.859503 0.750000
O O9 0.070184 0.064502 0.765704
O O10 0.942906 0.012469 0.906637
O O11 0.860493 0.682142 0.260493
O O12 0.813482 0.419607 0.346894
O O13 0.641447 0.311860 0.096999
O O14 0.750000 0.750000 0.000000
O O15 0.685667 0.520909 0.967951
#
# Coordination Sequence:
#
# PCOD9272570 Si02
#       7
#     8   8   8   8   8   8   8
#     4  10  21  38  60  89 115 156 204 245 292 359
#     4  10  20  37  58  87 124 154 195 239 303 360
#     4   9  21  40  64  85 114 162 207 240 298 359
#     4  11  23  37  60  88 124 159 193 249 309 354
#     4  10  21  39  62  85 122 162 196 247 300 358
#     4  11  22  37  60  94 120 152 202 248 298 361
#     4  11  21  39  65  88 120 158 206 250 298 364
#
# _framework density 19.235796000000001
#
# number of rings (size 3 to 8) (size 9 to 14) (size 15 to 20)
#    0.000    1.714    2.857    2.143    4.000    1.714 
#    0.000    2.857    0.000    0.000    0.000    0.000 
#    0.000    0.000    0.000    0.000    0.000    0.000 
#
# Total GULP energy -156174.095646 kJ/mol
# GULP energy per Si atom -5577.646273 kJ/mol
# Density = 1.919201 g / cm^3
# Si number density = 19.235796 Si / 1000 Ang^3
#
#
#
# Elastic Constant Matrix: (Units=GPa)
#
#
# Indices 1 2 3 4 5 6 
#
# 1 67.4752 18.9109 23.5938 0.0000 20.0114 0.0000
# 2 18.9109 80.3622 24.8863 0.0000 16.6192 0.0001
# 3 23.5938 24.8863 78.0091 0.0000 19.5610 0.0000
# 4 0.0000 0.0000 0.0000 29.0498 0.0000 11.6949
# 5 20.0114 16.6192 19.5610 0.0000 32.9126 0.0000
# 6 0.0000 0.0001 0.0000 11.6949 0.0000 3.3625
#
#
#
# Elastic Compliance Matrix: (Units=1/GPa)
#
#
# Indices 1 2 3 4 5 6 
#
# 1 0.018978 -0.001705 -0.002960 0.000000 -0.008919 0.000000
# 2 -0.001705 0.014735 -0.003031 0.000000 -0.004603 0.000001
# 3 -0.002960 -0.003031 0.016271 0.000000 -0.006340 0.000000
# 4 0.000000 0.000000 0.000000 -0.086017 0.000000 0.299172
# 5 -0.008919 -0.004603 -0.006340 0.000000 0.041899 0.000000
# 6 0.000000 0.000001 0.000000 0.299172 0.000000 -0.743135
#
#
# Mechanical properties :
#
#
# Convention : Reuss Voigt Hill
#
# Bulk Modulus (GPa) = 28.90727 40.06983 34.48855
# Shear Modulus (GPa) = -7.03882 23.62870 8.29494
#
# Velocity S-wave (km/s) = -1.91499 3.50862 2.07885
# Velocity P-wave (km/s) = 3.18919 6.10655 4.87139
#
# Compressibility (1/GPa) = 0.03459337
#
# Stress axis : x y z
#
# Youngs Moduli (GPa) = 52.69225 67.86405 61.45922
#
# Poissons Ratio (x) = 0.11570 0.18189
# Poissons Ratio (y) = 0.08984 0.18629
# Poissons Ratio (z) = 0.15594 0.20570
#
# Static dielectric constant tensor:
#      x y z
#    x 1.675990 0.000000 0.024350 
#    y 0.000000 1.688340 0.000000 
#    z 0.024350 0.000000 1.712360 
# 
# From -- ./inp_files/171827.got.cif
#   From: 2010.05.17/outbox.cif.g08.bks.cpg/sg15_86_cif.got.tgz:171827.got - 2010.06.03 18:47:42.
