data_PCOD9272121
_publ_section_title
;
Structure prediction by ZEFSAII (Michael W. Deem and Ramdas Pophale) SiO2 
 PCOD9272121
Probable space group: C 2/C
;
_chemical_formula_sum "Si O2"
_cell_formula_units_Z 48
_cell_length_a 29.172964
_cell_length_b 13.335813
_cell_length_c 14.678843
_cell_angle_alpha 90.000000
_cell_angle_beta 154.536171
_cell_angle_gamma 90.000000
_cell_volume 2455.279564
_symmetry_space_group_name_H-M "C 2/C"
_symmetry_group_IT_number 15
_symmetry_cell_setting 'monoclinic'
loop_
_space_group_symop_operation_xyz
x,y,z
-x,y,1/2-z
-x,-y,-z
x,-y,1/2+z
1/2+x,1/2+y,z
1/2-x,1/2+y,1/2-z
1/2-x,1/2-y,-z
1/2+x,1/2-y,1/2+z
loop_
_atom_site_type_symbol
_atom_site_label
_atom_site_fract_x
_atom_site_fract_y
_atom_site_fract_z
Si Si1 0.940479 0.724762 0.547408
Si Si2 0.459229 0.663141 0.436816
Si Si3 0.173241 0.965801 0.345161
Si Si4 0.766085 0.633648 0.835970
Si Si5 0.606457 0.685511 0.985411
Si Si6 0.286892 0.954689 0.743161
O O1 0.983302 0.764056 0.896176
O O2 0.843778 0.805851 0.381299
O O3 0.888595 0.618029 0.428879
O O4 0.000000 0.719126 0.750000
O O5 0.377987 0.574949 0.262602
O O6 0.571623 0.609523 0.664576
O O7 0.414895 0.713427 0.448578
O O8 0.245104 0.929317 0.389585
O O9 0.239198 0.961923 0.556481
O O10 0.854586 0.719754 0.003057
O O11 0.799064 0.561077 0.813195
O O12 0.697469 0.602622 0.142577
O O13 0.500000 0.642593 0.750000
#
# Coordination Sequence:
#
# PCOD9272121 Si02
#       6
#     8   8   8   8   8   8
#     4  10  23  40  62  85 121 159 203 248 295 350
#     4  10  20  37  62  94 115 156 200 248 296 348
#     4  10  20  36  64  90 120 152 202 248 295 353
#     4  10  23  39  59  90 121 159 194 247 301 350
#     4  11  22  37  62  90 124 154 199 244 297 357
#     4  11  22  40  60  89 122 159 197 248 301 351
#
# _framework density 19.549709
#
# number of rings (size 3 to 8) (size 9 to 14) (size 15 to 20)
#    0.000    1.667    3.333    1.000    2.333    3.333 
#    3.000    3.333    0.000    0.000    0.000    0.000 
#    0.000    0.000    0.000    0.000    0.000    0.000 
#
# Total GULP energy -134043.148810 kJ/mol
# GULP energy per Si atom -5585.131200 kJ/mol
# Density = 1.950521 g / cm^3
# Si number density = 19.549709 Si / 1000 Ang^3
#
#
#
# Elastic Constant Matrix: (Units=GPa)
#
#
# Indices 1 2 3 4 5 6 
#
# 1 89.4365 8.8591 27.4074 0.0000 -16.9429 0.0000
# 2 8.8591 47.2215 -8.5865 0.0000 1.0320 0.0000
# 3 27.4074 -8.5865 32.6201 0.0000 -20.4267 0.0000
# 4 0.0000 0.0000 0.0000 7.2200 0.0000 -7.9141
# 5 -16.9429 1.0320 -20.4267 0.0000 28.9180 0.0000
# 6 0.0000 0.0000 0.0000 -7.9141 0.0000 24.3269
#
#
#
# Elastic Compliance Matrix: (Units=1/GPa)
#
#
# Indices 1 2 3 4 5 6 
#
# 1 0.016539 -0.006093 -0.016669 0.000000 -0.001867 0.000000
# 2 -0.006093 0.025081 0.016005 0.000000 0.006840 0.000000
# 3 -0.016669 0.016005 0.076032 0.000000 0.043369 0.000000
# 4 0.000000 0.000000 0.000000 0.215270 0.000000 0.070033
# 5 -0.001867 0.006840 0.043369 0.000000 0.063877 0.000000
# 6 0.000000 0.000000 0.000000 0.070033 0.000000 0.063890
#
#
# Mechanical properties :
#
#
# Convention : Reuss Voigt Hill
#
# Bulk Modulus (GPa) = 9.60281 24.95980 17.28130
# Shear Modulus (GPa) = 9.82481 21.53285 15.67883
#
# Velocity S-wave (km/s) = 2.24421 3.32240 2.83503
# Velocity P-wave (km/s) = 3.41144 5.24527 4.42441
#
# Compressibility (1/GPa) = 0.10413618
#
# Stress axis : x y z
#
# Youngs Moduli (GPa) = 60.46242 39.87144 13.15243
#
# Poissons Ratio (x) = 0.24294 0.21924
# Poissons Ratio (y) = 0.36840 -0.21050
# Poissons Ratio (z) = 1.00785 -0.63813
#
# Static dielectric constant tensor:
#      x y z
#    x 1.683890 0.000000 0.014140 
#    y 0.000000 1.666290 0.000000 
#    z 0.014140 0.000000 1.651240 
# 
# From -- ./inp_files/96397.got.cif
#   From: 2010.05.17/outbox.cif.g08.bks.cpg/sg15_49_cif.got.tgz:96397.got - 2010.06.03 18:47:42.
