data_PCOD9272273
_publ_section_title
;
Structure prediction by ZEFSAII (Michael W. Deem and Ramdas Pophale) SiO2 
 PCOD9272273
Probable space group: C 2/C
;
_chemical_formula_sum "Si O2"
_cell_formula_units_Z 64
_cell_length_a 17.801520
_cell_length_b 15.565849
_cell_length_c 15.452065
_cell_angle_alpha 90.000000
_cell_angle_beta 130.703943
_cell_angle_gamma 90.000000
_cell_volume 3245.913061
_symmetry_space_group_name_H-M "C 2/C"
_symmetry_group_IT_number 15
_symmetry_cell_setting 'monoclinic'
loop_
_space_group_symop_operation_xyz
x,y,z
-x,y,1/2-z
-x,-y,-z
x,-y,1/2+z
1/2+x,1/2+y,z
1/2-x,1/2+y,1/2-z
1/2-x,1/2-y,-z
1/2+x,1/2-y,1/2+z
loop_
_atom_site_type_symbol
_atom_site_label
_atom_site_fract_x
_atom_site_fract_y
_atom_site_fract_z
Si Si1 0.295784 0.654819 0.742462
Si Si2 0.578466 0.074126 0.041212
Si Si3 0.485690 0.745698 0.948508
Si Si4 0.922850 0.073956 0.412263
Si Si5 0.311694 0.001070 0.037220
Si Si6 0.390845 0.505653 0.705784
Si Si7 0.831673 0.299345 0.504447
Si Si8 0.220235 0.505480 0.294885
O O1 0.374200 0.719481 0.840552
O O2 0.357641 0.596711 0.720879
O O3 0.209759 0.700594 0.624752
O O4 0.251635 0.584969 0.775321
O O5 0.524714 0.164986 0.009142
O O6 0.658097 0.058925 0.177900
O O7 0.628035 0.056047 0.985848
O O8 0.500000 0.000000 0.000000
O O9 0.558625 0.760083 0.920965
O O10 0.530040 0.665599 0.034075
O O11 0.895149 0.057921 0.291355
O O12 0.821404 0.058124 0.388237
O O13 0.000000 0.000000 0.500000
O O14 0.332099 0.988310 0.153491
O O15 0.335285 0.101116 0.035038
O O16 0.195799 0.983983 0.927075
O O17 0.500000 0.510043 0.750000
O O18 0.750000 0.250000 0.500000
#
# Coordination Sequence:
#
# PCOD9272273 Si02
#       8
#     8   8   8   8   8   8   8   8
#     4  10  23  41  62 101 133 176 219 282 350 403
#     4  12  25  50  65  96 144 188 229 277 333 421
#     4  12  25  39  70  97 137 176 231 276 345 412
#     4  11  20  40  66 100 132 173 219 287 354 395
#     4  11  23  43  69  97 131 187 227 270 345 412
#     4  10  20  36  66  97 136 167 219 286 344 412
#     4  11  24  41  62 101 139 163 219 287 341 404
#     4  11  22  45  73  93 139 182 225 285 349 403
#
# _framework density 19.717103000000002
#
# number of rings (size 3 to 8) (size 9 to 14) (size 15 to 20)
#    0.000    1.000    7.500    1.500    7.000    0.500 
#    0.000    0.625    5.500    0.000    0.000    0.000 
#    0.000    0.000    0.000    0.000    0.000    0.000 
#
# Total GULP energy -178773.698061 kJ/mol
# GULP energy per Si atom -5586.678064 kJ/mol
# Density = 1.967223 g / cm^3
# Si number density = 19.717103 Si / 1000 Ang^3
#
#
#
# Elastic Constant Matrix: (Units=GPa)
#
#
# Indices 1 2 3 4 5 6 
#
# 1 89.5891 31.0268 17.7387 0.0000 -9.8955 0.0000
# 2 31.0268 120.2610 25.8778 0.0000 2.1274 0.0000
# 3 17.7387 25.8778 55.8976 0.0000 -6.1854 0.0000
# 4 0.0000 0.0000 0.0000 22.1163 0.0000 10.9910
# 5 -9.8955 2.1274 -6.1854 0.0000 34.2554 0.0000
# 6 0.0000 0.0000 0.0000 10.9910 0.0000 27.5143
#
#
#
# Elastic Compliance Matrix: (Units=1/GPa)
#
#
# Indices 1 2 3 4 5 6 
#
# 1 0.013032 -0.002908 -0.002401 0.000000 0.003512 0.000000
# 2 -0.002908 0.009948 -0.003922 0.000000 -0.002166 0.000000
# 3 -0.002401 -0.003922 0.020834 0.000000 0.003312 0.000000
# 4 0.000000 0.000000 0.000000 0.056415 0.000000 -0.022536
# 5 0.003512 -0.002166 0.003312 0.000000 0.030939 0.000000
# 6 0.000000 0.000000 0.000000 -0.022536 0.000000 0.045347
#
#
# Mechanical properties :
#
#
# Convention : Reuss Voigt Hill
#
# Bulk Modulus (GPa) = 39.44424 46.11491 42.77958
# Shear Modulus (GPa) = 24.57864 29.51750 27.04807
#
# Velocity S-wave (km/s) = 3.53450 3.87337 3.70781
# Velocity P-wave (km/s) = 6.05850 6.59113 6.33042
#
# Compressibility (1/GPa) = 0.02535224
#
# Stress axis : x y z
#
# Youngs Moduli (GPa) = 76.73194 100.52530 47.99830
#
# Poissons Ratio (x) = 0.29231 0.11524
# Poissons Ratio (y) = 0.22312 0.18826
# Poissons Ratio (z) = 0.18423 0.39428
#
# Static dielectric constant tensor:
#      x y z
#    x 1.716480 0.000000 0.025590 
#    y 0.000000 1.675430 0.000000 
#    z 0.025590 0.000000 1.768560 
# 
# From -- ./inp_files/162267.got.cif
#   From: 2010.05.17/outbox.cif.g08.bks.cpg/sg15_82_cif.got.tgz:162267.got - 2010.06.03 18:47:42.
