data_PCOD9272064
_publ_section_title
;
Structure prediction by ZEFSAII (Michael W. Deem and Ramdas Pophale) SiO2 
 PCOD9272064
Probable space group: C 2/C
;
_chemical_formula_sum "Si O2"
_cell_formula_units_Z 64
_cell_length_a 11.055657
_cell_length_b 18.567546
_cell_length_c 18.072477
_cell_angle_alpha 90.000000
_cell_angle_beta 132.338107
_cell_angle_gamma 90.000000
_cell_volume 2742.261721
_symmetry_space_group_name_H-M "C 2/C"
_symmetry_group_IT_number 15
_symmetry_cell_setting 'monoclinic'
loop_
_space_group_symop_operation_xyz
x,y,z
-x,y,1/2-z
-x,-y,-z
x,-y,1/2+z
1/2+x,1/2+y,z
1/2-x,1/2+y,1/2-z
1/2-x,1/2-y,-z
1/2+x,1/2-y,1/2+z
loop_
_atom_site_type_symbol
_atom_site_label
_atom_site_fract_x
_atom_site_fract_y
_atom_site_fract_z
Si Si1 0.722288 0.434940 0.462398
Si Si2 0.513510 0.847519 0.012300
Si Si3 0.321535 0.985692 0.659155
Si Si4 0.764965 0.818186 0.225549
Si Si5 0.189256 0.115860 0.311284
Si Si6 0.229323 0.829499 0.668640
Si Si7 0.511931 0.307185 0.450739
Si Si8 0.622629 0.471206 0.214180
O O1 0.877080 0.410901 0.478136
O O2 0.780639 0.481813 0.556323
O O3 0.632253 0.360268 0.453665
O O4 0.572198 0.479691 0.365932
O O5 0.577659 0.828895 0.121305
O O6 0.322853 0.865056 0.927243
O O7 0.546271 0.777963 0.972623
O O8 0.500000 0.016499 0.750000
O O9 0.321209 0.900805 0.681243
O O10 0.186911 0.023970 0.655614
O O11 0.813342 0.748744 0.195939
O O12 0.841382 0.894500 0.235425
O O13 0.836188 0.811580 0.337958
O O14 0.211908 0.165444 0.248782
O O15 0.000000 0.122808 0.250000
O O16 0.217260 0.035382 0.292373
O O17 0.057250 0.831816 0.553044
#
# Coordination Sequence:
#
# PCOD9272064 Si02
#       8
#     8   8   8   8   8   8   8   8
#     4  10  20  36  63  95 128 161 209 267 328 375
#     4  11  22  39  65  97 128 167 212 264 324 383
#     4  10  20  38  62  90 124 172 215 256 315 390
#     4  10  21  39  65  92 135 156 210 273 318 372
#     4  11  24  43  64  88 129 174 218 255 318 390
#     4   9  19  40  64  90 122 165 213 266 320 378
#     4   9  19  36  64  96 129 155 202 269 330 374
#     4  10  23  39  59  90 131 167 211 263 321 373
#
# _framework density 23.3384
#
# number of rings (size 3 to 8) (size 9 to 14) (size 15 to 20)
#    0.000    2.000    1.250    2.250    1.750    3.000 
#    6.750    3.125    0.000    0.000    0.000    0.000 
#    0.000    0.000    0.000    0.000    0.000    0.000 
#
# Total GULP energy -178316.560257 kJ/mol
# GULP energy per Si atom -5572.392508 kJ/mol
# Density = 2.328528 g / cm^3
# Si number density = 23.338400 Si / 1000 Ang^3
#
#
#
# Elastic Constant Matrix: (Units=GPa)
#
#
# Indices 1 2 3 4 5 6 
#
# 1 28.4687 8.1970 25.9984 0.0000 4.9017 0.0000
# 2 8.1970 67.9602 32.5052 0.0000 3.0182 0.0000
# 3 25.9984 32.5052 194.4154 0.0000 5.0183 0.0000
# 4 0.0000 0.0000 0.0000 32.1699 0.0000 7.8058
# 5 4.9017 3.0182 5.0183 0.0000 24.7498 0.0000
# 6 0.0000 0.0000 0.0000 7.8058 0.0000 1.3959
#
#
#
# Elastic Compliance Matrix: (Units=1/GPa)
#
#
# Indices 1 2 3 4 5 6 
#
# 1 0.041543 -0.002317 -0.004989 0.000000 -0.006934 0.000000
# 2 -0.002317 0.016172 -0.002367 0.000000 -0.001033 0.000000
# 3 -0.004989 -0.002367 0.006206 0.000000 0.000018 0.000000
# 4 0.000000 0.000000 0.000000 -0.087120 0.000000 0.487159
# 5 -0.006934 -0.001033 0.000018 0.000000 0.041900 0.000000
# 6 0.000000 0.000000 0.000000 0.487159 0.000000 -2.007723
#
#
# Mechanical properties :
#
#
# Convention : Reuss Voigt Hill
#
# Bulk Modulus (GPa) = 22.43390 47.13839 34.78615
# Shear Modulus (GPa) = -2.55778 26.60604 12.02413
#
# Velocity S-wave (km/s) = -1.04801 3.38007 2.27228
# Velocity P-wave (km/s) = 2.85812 5.95607 4.67138
#
# Compressibility (1/GPa) = 0.04457539
#
# Stress axis : x y z
#
# Youngs Moduli (GPa) = 24.07128 61.83472 161.13043
#
# Poissons Ratio (x) = 0.14324 0.80390
# Poissons Ratio (y) = 0.05576 0.38147
# Poissons Ratio (z) = 0.12009 0.14639
#
# Static dielectric constant tensor:
#      x y z
#    x 1.888380 0.000000 -0.039040 
#    y 0.000000 1.927830 0.000000 
#    z -0.039040 0.000000 1.922280 
# 
# From -- ./inp_files/240437.got.cif
#   From: 2010.05.17/outbox.cif.g08.bks.cpg/sg15_121_cif.got.tgz:240437.got - 2010.06.03 18:47:42.
