data_PCOD9272130
_publ_section_title
;
Structure prediction by ZEFSAII (Michael W. Deem and Ramdas Pophale) SiO2 
 PCOD9272130
Probable space group: C 2/C
;
_chemical_formula_sum "Si O2"
_cell_formula_units_Z 60
_cell_length_a 18.007781
_cell_length_b 22.343047
_cell_length_c 12.650677
_cell_angle_alpha 90.000000
_cell_angle_beta 141.942653
_cell_angle_gamma 90.000000
_cell_volume 3137.719673
_symmetry_space_group_name_H-M "C 2/C"
_symmetry_group_IT_number 15
_symmetry_cell_setting 'monoclinic'
loop_
_space_group_symop_operation_xyz
x,y,z
-x,y,1/2-z
-x,-y,-z
x,-y,1/2+z
1/2+x,1/2+y,z
1/2-x,1/2+y,1/2-z
1/2-x,1/2-y,-z
1/2+x,1/2-y,1/2+z
loop_
_atom_site_type_symbol
_atom_site_label
_atom_site_fract_x
_atom_site_fract_y
_atom_site_fract_z
Si Si1 0.175507 0.578299 0.268753
Si Si2 0.800422 0.654510 0.773527
Si Si3 0.709664 0.975752 0.137544
Si Si4 0.500000 0.031038 0.250000
Si Si5 0.619745 0.413498 0.331412
Si Si6 0.435733 0.193221 0.451574
Si Si7 0.827006 0.217050 0.677130
Si Si8 0.360775 0.722479 0.054175
O O1 0.211203 0.523910 0.232271
O O2 0.067989 0.565587 0.231799
O O3 0.284443 0.592668 0.467714
O O4 0.136258 0.633365 0.153771
O O5 0.819335 0.587483 0.837558
O O6 0.764250 0.694981 0.833651
O O7 0.696357 0.664569 0.569651
O O8 0.926429 0.678131 0.871456
O O9 0.825999 0.956879 0.198138
O O10 0.609122 0.997848 0.939378
O O11 0.500000 0.437558 0.250000
O O12 0.606285 0.345032 0.276783
O O13 0.419335 0.235892 0.331314
O O14 0.380222 0.227767 0.486769
O O15 0.750000 0.250000 0.500000
O O16 0.500000 0.711158 0.250000
O O17 0.250000 0.750000 0.000000
#
# Coordination Sequence:
#
# PCOD9272130 Si02
#       8
#     8   8   8   4   8   8   8   8
#     4  11  22  40  62  93 128 161 212 262 319 383
#     4  10  22  38  62  92 123 164 205 258 328 377
#     4  10  22  42  61  92 129 162 208 265 317 381
#     4  10  20  36  64  90 126 154 194 264 320 372
#     4  10  23  41  61  89 127 171 212 261 319 388
#     4  11  22  36  66  95 122 166 207 263 329 386
#     4  10  21  35  59  95 126 159 198 261 328 391
#     4  11  23  45  63  89 128 169 219 269 314 386
#
# _framework density 19.122166
#
# number of rings (size 3 to 8) (size 9 to 14) (size 15 to 20)
#    0.000    1.600    4.000    0.400    1.867    0.533 
#    8.400    0.667    0.000    0.000    0.000    0.000 
#    0.000    0.000    0.000    0.000    0.000    0.000 
#
# Total GULP energy -167088.751237 kJ/mol
# GULP energy per Si atom -5569.625041 kJ/mol
# Density = 1.907864 g / cm^3
# Si number density = 19.122166 Si / 1000 Ang^3
#
#
#
# Elastic Constant Matrix: (Units=GPa)
#
#
# Indices 1 2 3 4 5 6 
#
# 1 97.4542 28.0793 39.3678 0.0000 8.9804 0.0000
# 2 28.0793 73.6650 21.4773 0.0000 -2.1110 0.0000
# 3 39.3678 21.4773 80.7700 0.0000 1.4638 0.0000
# 4 0.0000 0.0000 0.0000 -61.0947 0.0000 4.8336
# 5 8.9804 -2.1110 1.4638 0.0000 28.5313 0.0000
# 6 0.0000 0.0000 0.0000 4.8336 0.0000 31.1894
#
#
#
# Elastic Compliance Matrix: (Units=1/GPa)
#
#
# Indices 1 2 3 4 5 6 
#
# 1 0.014103 -0.003818 -0.005779 0.000000 -0.004425 0.000000
# 2 -0.003818 0.015797 -0.002385 0.000000 0.002493 0.000000
# 3 -0.005779 -0.002385 0.015816 0.000000 0.000831 0.000000
# 4 0.000000 0.000000 0.000000 -0.016170 0.000000 0.002506
# 5 -0.004425 0.002493 0.000831 0.000000 0.036584 0.000000
# 6 0.000000 0.000000 0.000000 0.002506 0.000000 0.031674
#
#
# Mechanical properties :
#
#
# Convention : Reuss Voigt Hill
#
# Bulk Modulus (GPa) = 45.96847 47.74869 46.85858
# Shear Modulus (GPa) = 38.75398 10.58953 24.67176
#
# Velocity S-wave (km/s) = 4.50672 2.35581 3.59586
# Velocity P-wave (km/s) = 7.15348 5.69424 6.46516
#
# Compressibility (1/GPa) = 0.02175404
#
# Stress axis : x y z
#
# Youngs Moduli (GPa) = 70.90478 63.30318 63.22515
#
# Poissons Ratio (x) = 0.24168 0.36536
# Poissons Ratio (y) = 0.27071 0.15078
# Poissons Ratio (z) = 0.40974 0.15097
#
# Static dielectric constant tensor:
#      x y z
#    x 1.698380 0.000000 0.013530 
#    y 0.000000 1.649500 0.000000 
#    z 0.013530 0.000000 1.713130 
# 
# From -- ./inp_files/100682.got.cif
#   From: 2010.05.17/outbox.cif.g08.bks.cpg/sg15_51_cif.got.tgz:100682.got - 2010.06.03 18:47:42.
