data_PCOD9272033
_publ_section_title
;
Structure prediction by ZEFSAII (Michael W. Deem and Ramdas Pophale) SiO2 
 PCOD9272033
Probable space group: C 2/C
;
_chemical_formula_sum "Si O2"
_cell_formula_units_Z 48
_cell_length_a 19.671016
_cell_length_b 11.051194
_cell_length_c 30.664163
_cell_angle_alpha 90.000000
_cell_angle_beta 19.234289
_cell_angle_gamma 90.000000
_cell_volume 2196.001184
_symmetry_space_group_name_H-M "C 2/C"
_symmetry_group_IT_number 15
_symmetry_cell_setting 'monoclinic'
loop_
_space_group_symop_operation_xyz
x,y,z
-x,y,1/2-z
-x,-y,-z
x,-y,1/2+z
1/2+x,1/2+y,z
1/2-x,1/2+y,1/2-z
1/2-x,1/2-y,-z
1/2+x,1/2-y,1/2+z
loop_
_atom_site_type_symbol
_atom_site_label
_atom_site_fract_x
_atom_site_fract_y
_atom_site_fract_z
Si Si1 0.293317 0.940184 0.293085
Si Si2 0.031076 0.184416 0.343827
Si Si3 0.440433 0.886456 0.632685
Si Si4 0.905008 0.845849 0.425272
Si Si5 0.374706 0.513214 0.369228
Si Si6 0.642055 0.535844 0.977467
O O1 0.400735 0.819038 0.210074
O O2 0.055893 0.963970 0.422434
O O3 0.395725 0.052516 0.206362
O O4 0.290714 0.940484 0.347020
O O5 0.244221 0.104240 0.219461
O O6 0.883974 0.130340 0.395103
O O7 0.928310 0.155871 0.453336
O O8 0.451392 0.742396 0.634103
O O9 0.653042 0.953599 0.491046
O O10 0.750000 0.750000 0.500000
O O11 0.984929 0.914688 0.334243
O O12 0.793352 0.943672 0.523550
O O13 0.500000 0.537558 0.250000
#
# Coordination Sequence:
#
# PCOD9272033 Si02
#       6
#     8   8   8   8   8   8
#     4  10  20  36  63  91 123 165 207 253 311 381
#     4  10  21  40  61  87 128 161 204 265 309 367
#     4  10  21  38  62  90 123 163 206 259 316 361
#     4   9  18  37  60  85 122 156 203 264 303 353
#     4  10  23  40  58  89 123 161 209 254 309 377
#     4   9  19  37  59  92 124 159 213 253 305 379
#
# _framework density 21.85791
#
# number of rings (size 3 to 8) (size 9 to 14) (size 15 to 20)
#    0.000    2.333    1.667    0.000    0.000    5.333 
#    3.000   10.000    0.000    0.000    0.000    0.000 
#    0.000    0.000    0.000    0.000    0.000    0.000 
#
# Total GULP energy -133623.087647 kJ/mol
# GULP energy per Si atom -5567.628652 kJ/mol
# Density = 2.180816 g / cm^3
# Si number density = 21.857910 Si / 1000 Ang^3
#
#
#
# Elastic Constant Matrix: (Units=GPa)
#
#
# Indices 1 2 3 4 5 6 
#
# 1 91.4083 29.7053 37.3716 -0.0167 13.8105 -0.0198
# 2 29.7053 110.2040 30.7172 0.0251 26.6373 -0.0061
# 3 37.3716 30.7172 79.3279 0.0228 27.5502 0.0472
# 4 -0.0167 0.0251 0.0228 21.8374 0.0215 -0.0102
# 5 13.8105 26.6373 27.5502 0.0215 53.4709 0.0210
# 6 -0.0198 -0.0061 0.0472 -0.0102 0.0210 2.5976
#
#
#
# Elastic Compliance Matrix: (Units=1/GPa)
#
#
# Indices 1 2 3 4 5 6 
#
# 1 0.014010 -0.002262 -0.005918 0.000019 0.000557 0.000205
# 2 -0.002262 0.011176 -0.001865 -0.000009 -0.004022 0.000075
# 3 -0.005918 -0.001865 0.018589 -0.000015 -0.007120 -0.000330
# 4 0.000019 -0.000009 -0.000015 0.045793 -0.000011 0.000180
# 5 0.000557 -0.004022 -0.007120 -0.000011 0.024230 -0.000071
# 6 0.000205 0.000075 -0.000330 0.000180 -0.000071 0.384980
#
#
# Mechanical properties :
#
#
# Convention : Reuss Voigt Hill
#
# Bulk Modulus (GPa) = 42.22018 52.94761 47.58390
# Shear Modulus (GPa) = 9.49192 27.79093 18.64142
#
# Velocity S-wave (km/s) = 2.08614 3.56959 2.92352
# Velocity P-wave (km/s) = 5.01601 6.42382 5.76306
#
# Compressibility (1/GPa) = 0.02368536
#
# Stress axis : x y z
#
# Youngs Moduli (GPa) = 71.37569 89.47918 53.79474
#
# Poissons Ratio (x) = 0.20236 0.31837
# Poissons Ratio (y) = 0.16142 0.10034
# Poissons Ratio (z) = 0.42242 0.16689
#
# Static dielectric constant tensor:
#      x y z
#    x 1.919630 0.000000 -0.099710 
#    y 0.000000 1.895010 0.000040 
#    z -0.099710 0.000040 1.825230 
# 
# From -- ./inp_files/317767.got.cif
#   From: 2010.05.17/outbox.cif.g08.bks.cpg/sg15_159_cif.got.tgz:317767.got - 2010.06.03 18:47:42.
