data_PCOD9272106
_publ_section_title
;
Structure prediction by ZEFSAII (Michael W. Deem and Ramdas Pophale) SiO2 
 PCOD9272106
Probable space group: C 2/C
;
_chemical_formula_sum "Si O2"
_cell_formula_units_Z 40
_cell_length_a 19.144496
_cell_length_b 18.344242
_cell_length_c 11.685230
_cell_angle_alpha 90.000000
_cell_angle_beta 149.999651
_cell_angle_gamma 90.000000
_cell_volume 2051.897016
_symmetry_space_group_name_H-M "C 2/C"
_symmetry_group_IT_number 15
_symmetry_cell_setting 'monoclinic'
loop_
_space_group_symop_operation_xyz
x,y,z
-x,y,1/2-z
-x,-y,-z
x,-y,1/2+z
1/2+x,1/2+y,z
1/2-x,1/2+y,1/2-z
1/2-x,1/2-y,-z
1/2+x,1/2-y,1/2+z
loop_
_atom_site_type_symbol
_atom_site_label
_atom_site_fract_x
_atom_site_fract_y
_atom_site_fract_z
Si Si1 0.822569 0.826587 0.730874
Si Si2 0.921256 0.415172 0.018981
Si Si3 0.521809 0.429101 0.151752
Si Si4 0.706407 0.455810 0.224943
Si Si5 0.685854 0.845008 0.292516
O O1 0.689561 0.850163 0.618720
O O2 0.779637 0.850185 0.541133
O O3 0.844488 0.740430 0.764780
O O4 0.950363 0.871800 0.963857
O O5 0.000000 0.426591 0.250000
O O6 0.041510 0.389141 0.104551
O O7 0.829763 0.487365 0.870654
O O8 0.500000 0.402542 0.250000
O O9 0.674387 0.444939 0.314902
O O10 0.431936 0.503361 0.017058
O O11 0.734738 0.381229 0.200269
#
# Coordination Sequence:
#
# PCOD9272106 Si02
#       5
#     8   8   8   8   8
#     4   9  21  38  58  90 116 153 191 238 290 337
#     4   9  19  36  56  86 120 146 193 240 281 343
#     4  10  23  39  58  83 120 151 195 242 283 352
#     4  10  22  36  61  86 112 157 193 236 297 337
#     4  10  20  36  64  86 118 149 193 242 286 348
#
# _framework density 19.494156
#
# number of rings (size 3 to 8) (size 9 to 14) (size 15 to 20)
#    0.000    2.400    0.000    0.600   14.000    0.000 
#    0.000    2.000    0.000    0.000    0.000    0.000 
#    0.000    0.000    0.000    0.000    0.000    0.000 
#
# Total GULP energy -111513.766594 kJ/mol
# GULP energy per Si atom -5575.688330 kJ/mol
# Density = 1.944979 g / cm^3
# Si number density = 19.494156 Si / 1000 Ang^3
#
#
#
# Elastic Constant Matrix: (Units=GPa)
#
#
# Indices 1 2 3 4 5 6 
#
# 1 108.2627 52.8250 25.2079 0.0000 14.1590 0.0000
# 2 52.8250 89.1882 32.7165 0.0000 5.6518 0.0000
# 3 25.2079 32.7165 41.9468 0.0000 9.7218 0.0000
# 4 0.0000 0.0000 0.0000 20.5475 0.0000 2.0720
# 5 14.1590 5.6518 9.7218 0.0000 16.1572 0.0000
# 6 0.0000 0.0000 0.0000 2.0720 0.0000 23.4912
#
#
#
# Elastic Compliance Matrix: (Units=1/GPa)
#
#
# Indices 1 2 3 4 5 6 
#
# 1 0.014375 -0.007781 -0.000327 0.000000 -0.009679 0.000000
# 2 -0.007781 0.019984 -0.012632 0.000000 0.007429 0.000000
# 3 -0.000327 -0.012632 0.038113 0.000000 -0.018228 0.000000
# 4 0.000000 0.000000 0.000000 0.049104 0.000000 -0.004331
# 5 -0.009679 0.007429 -0.018228 0.000000 0.078743 0.000000
# 6 0.000000 0.000000 0.000000 -0.004331 0.000000 0.042951
#
#
# Mechanical properties :
#
#
# Convention : Reuss Voigt Hill
#
# Bulk Modulus (GPa) = 32.26617 51.21074 41.73846
# Shear Modulus (GPa) = 16.94445 20.61575 18.78010
#
# Velocity S-wave (km/s) = 2.95143 3.25550 3.10719
# Velocity P-wave (km/s) = 5.31058 6.36065 5.85919
#
# Compressibility (1/GPa) = 0.03099221
#
# Stress axis : x y z
#
# Youngs Moduli (GPa) = 69.56312 50.03997 26.23769
#
# Poissons Ratio (x) = 0.38937 0.00857
# Poissons Ratio (y) = 0.54128 0.33144
# Poissons Ratio (z) = 0.02272 0.63212
#
# Static dielectric constant tensor:
#      x y z
#    x 1.730040 0.000000 0.014300 
#    y 0.000000 1.664960 0.000000 
#    z 0.014300 0.000000 1.706720 
# 
# From -- ./inp_files/30187.got.cif
#   From: 2010.05.17/outbox.cif.g08.bks.cpg/sg15_16_cif.got.tgz:30187.got - 2010.06.03 18:47:42.
