data_PCOD9272414
_publ_section_title
;
Structure prediction by ZEFSAII (Michael W. Deem and Ramdas Pophale) SiO2 
 PCOD9272414
Probable space group: C 2/C
;
_chemical_formula_sum "Si O2"
_cell_formula_units_Z 60
_cell_length_a 18.158212
_cell_length_b 11.551833
_cell_length_c 23.181459
_cell_angle_alpha 90.000000
_cell_angle_beta 140.092408
_cell_angle_gamma 90.000000
_cell_volume 3119.579988
_symmetry_space_group_name_H-M "C 2/C"
_symmetry_group_IT_number 15
_symmetry_cell_setting 'monoclinic'
loop_
_space_group_symop_operation_xyz
x,y,z
-x,y,1/2-z
-x,-y,-z
x,-y,1/2+z
1/2+x,1/2+y,z
1/2-x,1/2+y,1/2-z
1/2-x,1/2-y,-z
1/2+x,1/2-y,1/2+z
loop_
_atom_site_type_symbol
_atom_site_label
_atom_site_fract_x
_atom_site_fract_y
_atom_site_fract_z
Si Si1 0.677744 0.072436 0.294594
Si Si2 0.919746 0.349151 0.985655
Si Si3 0.376660 0.694589 0.342996
Si Si4 0.120777 0.788347 0.436427
Si Si5 0.769559 0.827837 0.339576
Si Si6 0.016887 0.039996 0.576563
Si Si7 0.000000 0.730115 0.250000
Si Si8 0.997122 0.563909 0.085362
O O1 0.777565 0.151229 0.327078
O O2 0.605865 0.146708 0.296580
O O3 0.589587 0.042979 0.190200
O O4 0.725012 0.947127 0.340527
O O5 0.914718 0.454241 0.027288
O O6 0.033378 0.276895 0.070409
O O7 0.817010 0.259711 0.916020
O O8 0.935573 0.409635 0.933111
O O9 0.319825 0.762609 0.255661
O O10 0.441572 0.575224 0.365573
O O11 0.250000 0.750000 0.500000
O O12 0.070801 0.678052 0.439670
O O13 0.091905 0.898233 0.459572
O O14 0.044932 0.800347 0.332320
O O15 0.878212 0.868011 0.364993
O O16 0.000000 0.000000 0.500000
#
# Coordination Sequence:
#
# PCOD9272414 Si02
#       8
#     8   8   8   8   8   8   4   8
#     4  10  21  36  59  84 117 162 204 245 316 378
#     4  11  20  34  58  88 123 147 200 266 303 369
#     4  11  21  34  60  88 119 156 197 269 311 362
#     4  11  24  42  63  91 128 170 204 260 325 387
#     4  11  20  35  58  89 118 156 202 256 325 361
#     4  11  22  39  63  96 129 157 223 268 312 391
#     4  10  24  40  60  84 126 162 214 246 308 406
#     4  10  20  37  55  89 120 154 207 248 310 372
#
# _framework density 19.233357999999999
#
# number of rings (size 3 to 8) (size 9 to 14) (size 15 to 20)
#    0.000    1.333    5.333    0.800    5.600    0.000 
#    2.400    0.000    2.933    2.400    0.000    0.000 
#    0.000    0.000    0.000    0.000    0.000    0.000 
#
# Total GULP energy -167434.928042 kJ/mol
# GULP energy per Si atom -5581.164268 kJ/mol
# Density = 1.918958 g / cm^3
# Si number density = 19.233358 Si / 1000 Ang^3
#
#
#
# Elastic Constant Matrix: (Units=GPa)
#
#
# Indices 1 2 3 4 5 6 
#
# 1 55.9982 20.1638 10.7723 0.0000 4.6080 0.0000
# 2 20.1638 96.4851 29.5674 0.0000 -5.1017 0.0000
# 3 10.7723 29.5674 62.9305 0.0000 -13.2833 0.0000
# 4 0.0000 0.0000 0.0000 35.7747 0.0000 7.0538
# 5 4.6080 -5.1017 -13.2833 0.0000 24.2538 0.0000
# 6 0.0000 0.0000 0.0000 7.0538 0.0000 20.3947
#
#
#
# Elastic Compliance Matrix: (Units=1/GPa)
#
#
# Indices 1 2 3 4 5 6 
#
# 1 0.020278 -0.003621 -0.003103 0.000000 -0.006313 0.000000
# 2 -0.003621 0.012763 -0.005275 0.000000 0.000484 0.000000
# 3 -0.003103 -0.005275 0.021246 0.000000 0.011116 0.000000
# 4 0.000000 0.000000 0.000000 0.029999 0.000000 -0.010375
# 5 -0.006313 0.000484 0.011116 0.000000 0.048620 0.000000
# 6 0.000000 0.000000 0.000000 -0.010375 0.000000 0.052621
#
#
# Mechanical properties :
#
#
# Convention : Reuss Voigt Hill
#
# Bulk Modulus (GPa) = 33.01304 37.38008 35.19656
# Shear Modulus (GPa) = 22.76664 26.41198 24.58931
#
# Velocity S-wave (km/s) = 3.44424 3.70974 3.57945
# Velocity P-wave (km/s) = 5.74619 6.15035 5.95170
#
# Compressibility (1/GPa) = 0.03029106
#
# Stress axis : x y z
#
# Youngs Moduli (GPa) = 49.31487 78.35173 47.06710
#
# Poissons Ratio (x) = 0.28370 0.14603
# Poissons Ratio (y) = 0.17856 0.24826
# Poissons Ratio (z) = 0.15300 0.41328
#
# Static dielectric constant tensor:
#      x y z
#    x 1.674580 0.000000 0.012210 
#    y 0.000000 1.706510 0.000000 
#    z 0.012210 0.000000 1.715000 
# 
# From -- ./inp_files/277286.got.cif
#   From: 2010.05.17/outbox.cif.g08.bks.cpg/sg15_139_cif.got.tgz:277286.got - 2010.06.03 18:47:42.
