data_PCOD9272104
_publ_section_title
;
Structure prediction by ZEFSAII (Michael W. Deem and Ramdas Pophale) SiO2 
 PCOD9272104
Probable space group: C 2/C
;
_chemical_formula_sum "Si O2"
_cell_formula_units_Z 56
_cell_length_a 14.504442
_cell_length_b 11.685128
_cell_length_c 26.240523
_cell_angle_alpha 90.000000
_cell_angle_beta 38.202646
_cell_angle_gamma 90.000000
_cell_volume 2750.475933
_symmetry_space_group_name_H-M "C 2/C"
_symmetry_group_IT_number 15
_symmetry_cell_setting 'monoclinic'
loop_
_space_group_symop_operation_xyz
x,y,z
-x,y,1/2-z
-x,-y,-z
x,-y,1/2+z
1/2+x,1/2+y,z
1/2-x,1/2+y,1/2-z
1/2-x,1/2-y,-z
1/2+x,1/2-y,1/2+z
loop_
_atom_site_type_symbol
_atom_site_label
_atom_site_fract_x
_atom_site_fract_y
_atom_site_fract_z
Si Si1 0.985265 0.132420 0.679922
Si Si2 0.512577 0.256013 0.065742
Si Si3 0.000000 0.057990 0.250000
Si Si4 0.877224 0.109302 0.494867
Si Si5 0.000000 0.331440 0.750000
Si Si6 0.173786 0.911303 0.911244
Si Si7 0.292050 0.045803 0.514860
Si Si8 0.294605 0.160839 0.077186
O O1 0.951530 0.159028 0.635728
O O2 0.162700 0.109398 0.602438
O O3 0.956182 0.247041 0.723181
O O4 0.926679 0.025471 0.738571
O O5 0.603199 0.147810 0.050021
O O6 0.385372 0.200281 0.086867
O O7 0.619241 0.326527 0.980626
O O8 0.126640 0.130944 0.166818
O O9 0.809327 0.234342 0.531384
O O10 0.058289 0.114214 0.415046
O O11 0.850695 0.040159 0.558882
O O12 0.795459 0.032547 0.488232
O O13 0.848515 0.398049 0.826680
O O14 0.363662 0.952368 0.521110
#
# Coordination Sequence:
#
# PCOD9272104 Si02
#       8
#     8   8   4   8   4   8   8   8
#     4  10  20  36  64  85 119 154 204 250 313 352
#     4  11  20  39  64  94 115 157 216 263 290 365
#     4   9  22  43  58  84 126 173 193 250 324 364
#     4  10  21  38  61  88 123 171 205 244 304 378
#     4  11  20  37  58  96 122 153 193 268 316 348
#     4  10  21  37  62  93 123 157 207 261 309 352
#     4  11  19  37  64  88 119 158 207 253 301 367
#     4  10  23  39  59  86 129 163 202 248 311 371
#
# _framework density 20.360112000000001
#
# number of rings (size 3 to 8) (size 9 to 14) (size 15 to 20)
#    0.000    1.714    2.857    2.143    0.000    0.571 
#    5.143    1.429    0.000    0.000    0.000    0.000 
#    0.000    0.000    0.000    0.000    0.000    0.000 
#
# Total GULP energy -156078.163502 kJ/mol
# GULP energy per Si atom -5574.220125 kJ/mol
# Density = 2.031377 g / cm^3
# Si number density = 20.360112 Si / 1000 Ang^3
#
#
#
# Elastic Constant Matrix: (Units=GPa)
#
#
# Indices 1 2 3 4 5 6 
#
# 1 95.9650 23.7970 18.1298 0.0000 3.5119 0.0000
# 2 23.7970 89.4427 15.6335 0.0000 -6.9366 0.0000
# 3 18.1298 15.6335 59.3512 0.0000 -9.4922 0.0000
# 4 0.0000 0.0000 0.0000 26.2940 0.0000 8.0009
# 5 3.5119 -6.9366 -9.4922 0.0000 26.8855 0.0000
# 6 0.0000 0.0000 0.0000 8.0009 0.0000 34.0870
#
#
#
# Elastic Compliance Matrix: (Units=1/GPa)
#
#
# Indices 1 2 3 4 5 6 
#
# 1 0.011904 -0.002836 -0.003450 0.000000 -0.003505 0.000000
# 2 -0.002836 0.012503 -0.001963 0.000000 0.002903 0.000000
# 3 -0.003450 -0.001963 0.019512 0.000000 0.006833 0.000000
# 4 0.000000 0.000000 0.000000 0.040957 0.000000 -0.009613
# 5 -0.003505 0.002903 0.006833 0.000000 0.040814 0.000000
# 6 0.000000 0.000000 0.000000 -0.009613 0.000000 0.031593
#
#
# Mechanical properties :
#
#
# Convention : Reuss Voigt Hill
#
# Bulk Modulus (GPa) = 36.46635 39.98660 38.22647
# Shear Modulus (GPa) = 27.33425 29.93321 28.63373
#
# Velocity S-wave (km/s) = 3.66804 3.83846 3.75422
# Velocity P-wave (km/s) = 5.99074 6.27116 6.13255
#
# Compressibility (1/GPa) = 0.02742254
#
# Stress axis : x y z
#
# Youngs Moduli (GPa) = 84.00779 79.98025 51.24922
#
# Poissons Ratio (x) = 0.22682 0.17679
# Poissons Ratio (y) = 0.23824 0.10059
# Poissons Ratio (z) = 0.28980 0.15699
#
# Static dielectric constant tensor:
#      x y z
#    x 1.812800 0.000000 0.032630 
#    y 0.000000 1.745440 0.000000 
#    z 0.032630 0.000000 1.719900 
# 
# From -- ./inp_files/203978.got.cif
#   From: 2010.05.17/outbox.cif.g08.bks.cpg/sg15_102_cif.got.tgz:203978.got - 2010.06.03 18:47:42.
