data_PCOD9272277
_publ_section_title
;
Structure prediction by ZEFSAII (Michael W. Deem and Ramdas Pophale) SiO2 
 PCOD9272277
Probable space group: C 2/C
;
_chemical_formula_sum "Si O2"
_cell_formula_units_Z 60
_cell_length_a 26.075627
_cell_length_b 21.236612
_cell_length_c 14.192408
_cell_angle_alpha 90.000000
_cell_angle_beta 20.842599
_cell_angle_gamma 90.000000
_cell_volume 2796.303739
_symmetry_space_group_name_H-M "C 2/C"
_symmetry_group_IT_number 15
_symmetry_cell_setting 'monoclinic'
loop_
_space_group_symop_operation_xyz
x,y,z
-x,y,1/2-z
-x,-y,-z
x,-y,1/2+z
1/2+x,1/2+y,z
1/2-x,1/2+y,1/2-z
1/2-x,1/2-y,-z
1/2+x,1/2-y,1/2+z
loop_
_atom_site_type_symbol
_atom_site_label
_atom_site_fract_x
_atom_site_fract_y
_atom_site_fract_z
Si Si1 0.659257 0.197007 0.447400
Si Si2 0.394571 0.547883 0.632045
Si Si3 0.714742 0.673921 0.956886
Si Si4 0.500000 0.570958 0.250000
Si Si5 0.480690 0.901163 0.011860
Si Si6 0.922185 0.489586 0.284693
Si Si7 0.081217 0.168006 0.381599
Si Si8 0.864470 0.718695 0.233615
O O1 0.669459 0.261863 0.487703
O O2 0.806551 0.158822 0.223354
O O3 0.662608 0.218125 0.332420
O O4 0.500000 0.170234 0.750000
O O5 0.500000 0.500000 0.500000
O O6 0.422932 0.539443 0.471328
O O7 0.459474 0.615417 0.560323
O O8 0.233697 0.522921 0.931856
O O9 0.870022 0.649859 0.663688
O O10 0.615900 0.616819 0.095340
O O11 0.694307 0.675411 0.102810
O O12 0.428768 0.930038 0.201426
O O13 0.490065 0.957973 0.923956
O O14 0.620728 0.856824 0.775686
O O15 0.000000 0.476755 0.250000
O O16 0.999129 0.234661 0.522590
O O17 0.750000 0.750000 0.500000
#
# Coordination Sequence:
#
# PCOD9272277 Si02
#       8
#     8   8   8   4   8   8   8   8
#     4  12  22  40  70 102 139 193 240 294 361 439
#     4  11  24  44  68 100 141 188 234 302 363 434
#     4  11  19  39  66  99 132 181 234 294 355 436
#     4  10  20  36  66  98 128 180 244 282 356 438
#     4  11  25  43  68 100 141 180 239 306 356 429
#     4  11  25  47  71 101 135 189 248 299 359 431
#     4  11  23  43  67 102 145 178 240 299 365 435
#     4  12  26  43  65 103 147 189 235 300 371 435
#
# _framework density 21.456897000000001
#
# number of rings (size 3 to 8) (size 9 to 14) (size 15 to 20)
#    0.000    0.800    3.333    5.200    0.000    5.333 
#    0.000    1.333    0.000    0.000    0.000    0.000 
#    0.000    0.000    0.000    0.000    0.000    0.000 
#
# Total GULP energy -167126.678913 kJ/mol
# GULP energy per Si atom -5570.889297 kJ/mol
# Density = 2.140806 g / cm^3
# Si number density = 21.456897 Si / 1000 Ang^3
#
#
#
# Elastic Constant Matrix: (Units=GPa)
#
#
# Indices 1 2 3 4 5 6 
#
# 1 109.8872 18.2248 46.9854 -0.0007 5.4635 0.0009
# 2 18.2248 92.5323 15.3861 0.0044 5.6730 -0.0026
# 3 46.9854 15.3861 87.4213 0.0063 1.9703 -0.0039
# 4 -0.0007 0.0044 0.0063 38.7348 -0.0043 2.1592
# 5 5.4635 5.6730 1.9703 -0.0043 31.3596 0.0025
# 6 0.0009 -0.0026 -0.0039 2.1592 0.0025 29.1826
#
#
#
# Elastic Compliance Matrix: (Units=1/GPa)
#
#
# Indices 1 2 3 4 5 6 
#
# 1 0.012039 -0.001246 -0.006218 0.000001 -0.001481 -0.000001
# 2 -0.001246 0.011375 -0.001292 -0.000001 -0.001759 0.000001
# 3 -0.006218 -0.001292 0.015000 -0.000002 0.000375 0.000002
# 4 0.000001 -0.000001 -0.000002 0.025923 0.000004 -0.001918
# 5 -0.001481 -0.001759 0.000375 0.000004 0.032441 -0.000003
# 6 -0.000001 0.000001 0.000002 -0.001918 -0.000003 0.034409
#
#
# Mechanical properties :
#
#
# Convention : Reuss Voigt Hill
#
# Bulk Modulus (GPa) = 47.84526 50.11481 48.98004
# Shear Modulus (GPa) = 32.11962 33.80504 32.96233
#
# Velocity S-wave (km/s) = 3.87322 3.97355 3.92371
# Velocity P-wave (km/s) = 6.50763 6.66775 6.58817
#
# Compressibility (1/GPa) = 0.02090071
#
# Stress axis : x y z
#
# Youngs Moduli (GPa) = 83.06178 87.90961 66.66794
#
# Poissons Ratio (x) = 0.10958 0.41453
# Poissons Ratio (y) = 0.10354 0.08617
# Poissons Ratio (z) = 0.51646 0.11362
#
# Static dielectric constant tensor:
#      x y z
#    x 1.774040 0.000020 0.025170 
#    y 0.000020 1.917940 0.000030 
#    z 0.025170 0.000030 1.916480 
# 
# From -- ./inp_files/179098.got.cif
#   From: 2010.05.17/outbox.cif.g08.bks.cpg/sg15_90_cif.got.tgz:179098.got - 2010.06.03 18:47:42.
