data_PCOD9272183
_publ_section_title
;
Structure prediction by ZEFSAII (Michael W. Deem and Ramdas Pophale) SiO2 
 PCOD9272183
Probable space group: C 2/C
;
_chemical_formula_sum "Si O2"
_cell_formula_units_Z 56
_cell_length_a 24.149799
_cell_length_b 15.195517
_cell_length_c 9.206798
_cell_angle_alpha 90.000000
_cell_angle_beta 119.528257
_cell_angle_gamma 90.000000
_cell_volume 2939.768570
_symmetry_space_group_name_H-M "C 2/C"
_symmetry_group_IT_number 15
_symmetry_cell_setting 'monoclinic'
loop_
_space_group_symop_operation_xyz
x,y,z
-x,y,1/2-z
-x,-y,-z
x,-y,1/2+z
1/2+x,1/2+y,z
1/2-x,1/2+y,1/2-z
1/2-x,1/2-y,-z
1/2+x,1/2-y,1/2+z
loop_
_atom_site_type_symbol
_atom_site_label
_atom_site_fract_x
_atom_site_fract_y
_atom_site_fract_z
Si Si1 0.440707 0.814469 0.908212
Si Si2 0.606096 0.964252 0.441293
Si Si3 0.812226 0.455960 0.222391
Si Si4 0.299935 0.843606 0.662777
Si Si5 0.782948 0.837767 0.236756
Si Si6 0.429709 0.389328 0.419788
Si Si7 0.500000 0.491499 0.250000
Si Si8 0.000000 0.412391 0.750000
O O1 0.374846 0.823692 0.727740
O O2 0.450490 0.713035 0.960929
O O3 0.499079 0.849996 0.888661
O O4 0.425056 0.880944 0.019599
O O5 0.661574 0.938034 0.403308
O O6 0.630989 0.037247 0.587757
O O7 0.555617 0.019332 0.285653
O O8 0.790807 0.557692 0.204599
O O9 0.758639 0.389258 0.201180
O O10 0.255310 0.840919 0.464728
O O11 0.286566 0.767534 0.762981
O O12 0.852765 0.881040 0.315814
O O13 0.458508 0.432166 0.309067
O O14 0.455809 0.447334 0.588521
#
# Coordination Sequence:
#
# PCOD9272183 Si02
#       8
#     8   8   8   8   8   8   4   4
#     4  10  21  37  58  89 123 159 199 255 295 359
#     4  11  22  35  56  84 128 156 197 240 294 365
#     4  11  20  38  56  86 121 157 187 256 298 348
#     4   9  19  37  56  88 122 146 199 249 289 361
#     4  10  20  36  65  86 113 161 198 242 307 368
#     4  10  23  42  65  85 120 152 207 256 313 356
#     4  10  23  45  62  88 118 156 200 269 305 364
#     4  12  19  35  60  86 118 170 202 221 303 374
#
# _framework density 19.049118
#
# number of rings (size 3 to 8) (size 9 to 14) (size 15 to 20)
#    0.000    1.714    4.286    0.857    2.000    0.571 
#    0.000    7.857    0.000    0.000    0.000    0.000 
#    0.000    0.000    0.000    0.000    0.000    0.000 
#
# Total GULP energy -155884.732883 kJ/mol
# GULP energy per Si atom -5567.311889 kJ/mol
# Density = 1.900576 g / cm^3
# Si number density = 19.049118 Si / 1000 Ang^3
#
#
#
# Elastic Constant Matrix: (Units=GPa)
#
#
# Indices 1 2 3 4 5 6 
#
# 1 96.4492 66.8373 21.1443 0.0000 -31.4043 0.0000
# 2 66.8373 135.2219 19.7666 0.0000 -24.6400 0.0000
# 3 21.1443 19.7666 43.0300 0.0000 -16.8550 0.0000
# 4 0.0000 0.0000 0.0000 16.4305 0.0000 -0.8015
# 5 -31.4043 -24.6400 -16.8550 0.0000 32.8144 0.0000
# 6 0.0000 0.0000 0.0000 -0.8015 0.0000 32.9460
#
#
#
# Elastic Compliance Matrix: (Units=1/GPa)
#
#
# Indices 1 2 3 4 5 6 
#
# 1 0.019921 -0.007298 -0.001396 0.000000 0.012868 0.000000
# 2 -0.007298 0.011350 -0.001283 0.000000 0.000879 0.000000
# 3 -0.001396 -0.001283 0.029562 0.000000 0.012885 0.000000
# 4 0.000000 0.000000 0.000000 0.060935 0.000000 0.001482
# 5 0.012868 0.000879 0.012885 0.000000 0.050068 0.000000
# 6 0.000000 0.000000 0.000000 0.001482 0.000000 0.030389
#
#
# Mechanical properties :
#
#
# Convention : Reuss Voigt Hill
#
# Bulk Modulus (GPa) = 24.46237 54.46640 39.46439
# Shear Modulus (GPa) = 21.20380 27.56837 24.38608
#
# Velocity S-wave (km/s) = 3.33995 3.80837 3.58183
# Velocity P-wave (km/s) = 5.26719 6.92769 6.15371
#
# Compressibility (1/GPa) = 0.04087911
#
# Stress axis : x y z
#
# Youngs Moduli (GPa) = 50.19715 88.10372 33.82694
#
# Poissons Ratio (x) = 0.64296 0.04723
# Poissons Ratio (y) = 0.36633 0.04342
# Poissons Ratio (z) = 0.07008 0.11308
#
# Static dielectric constant tensor:
#      x y z
#    x 1.707630 0.000000 0.061140 
#    y 0.000000 1.683310 0.000000 
#    z 0.061140 0.000000 1.750470 
# 
# From -- ./inp_files/61649.got.cif
#   From: 2010.05.17/outbox.cif.g08.bks.cpg/sg15_31_cif.got.tgz:61649.got - 2010.06.03 18:47:42.
