data_PCOD9272728
_publ_section_title
;
Structure prediction by ZEFSAII (Michael W. Deem and Ramdas Pophale) SiO2 
 PCOD9272728
Probable space group: C 2/C
;
_chemical_formula_sum "Si O2"
_cell_formula_units_Z 64
_cell_length_a 20.590057
_cell_length_b 21.480852
_cell_length_c 8.492428
_cell_angle_alpha 90.000000
_cell_angle_beta 132.004653
_cell_angle_gamma 90.000000
_cell_volume 2791.146451
_symmetry_space_group_name_H-M "C 2/C"
_symmetry_group_IT_number 15
_symmetry_cell_setting 'monoclinic'
loop_
_space_group_symop_operation_xyz
x,y,z
-x,y,1/2-z
-x,-y,-z
x,-y,1/2+z
1/2+x,1/2+y,z
1/2-x,1/2+y,1/2-z
1/2-x,1/2-y,-z
1/2+x,1/2-y,1/2+z
loop_
_atom_site_type_symbol
_atom_site_label
_atom_site_fract_x
_atom_site_fract_y
_atom_site_fract_z
Si Si1 0.169467 0.240730 0.749397
Si Si2 0.979821 0.618379 0.907575
Si Si3 0.935241 0.975423 0.528627
Si Si4 0.804792 0.434889 0.074776
Si Si5 0.664867 0.882549 0.706521
Si Si6 0.817721 0.947413 0.072112
Si Si7 0.980115 0.761760 0.905922
Si Si8 0.196225 0.188787 0.461332
O O1 0.155673 0.309886 0.649425
O O2 0.188248 0.195430 0.635950
O O3 0.070470 0.224035 0.644892
O O4 0.250000 0.250000 0.000000
O O5 0.897679 0.574943 0.810109
O O6 0.955388 0.690064 0.904174
O O7 0.000000 0.615943 0.750000
O O8 0.072412 0.602603 0.138688
O O9 0.886348 0.029861 0.549155
O O10 0.000000 0.939025 0.750000
O O11 0.864193 0.939376 0.314347
O O12 0.000000 0.000000 0.500000
O O13 0.744444 0.374984 0.004945
O O14 0.825656 0.429050 0.923947
O O15 0.750351 0.495549 0.024213
O O16 0.757113 0.889077 0.940991
O O17 0.895934 0.805777 0.781286
O O18 0.000000 0.763467 0.750000
O O19 0.250000 0.250000 0.500000
#
# Coordination Sequence:
#
# PCOD9272728 Si02
#       8
#     8   8   8   8   8   8   8   8
#     4  10  21  38  60  87 121 159 200 256 316 361
#     4   8  15  30  55  85 114 162 190 236 298 360
#     4   9  20  40  62  81 110 160 205 252 311 367
#     4  11  20  34  61  92 120 157 210 250 301 367
#     4  10  20  37  60  84 125 164 200 249 309 370
#     4  11  21  37  62  90 120 159 207 249 308 375
#     4   8  15  32  56  83 112 151 199 232 295 370
#     4  11  18  34  64  87 114 155 204 251 297 371
#
# _framework density 22.929646999999999
#
# number of rings (size 3 to 8) (size 9 to 14) (size 15 to 20)
#    0.000    2.250    3.750    1.500    0.000    1.500 
#    0.000   10.000    0.000    1.500    0.000    0.000 
#    0.000    0.000    0.000    0.000    0.000    0.000 
#
# Total GULP energy -178496.030156 kJ/mol
# GULP energy per Si atom -5578.000942 kJ/mol
# Density = 2.287746 g / cm^3
# Si number density = 22.929647 Si / 1000 Ang^3
#
#
#
# Elastic Constant Matrix: (Units=GPa)
#
#
# Indices 1 2 3 4 5 6 
#
# 1 75.4599 30.7018 36.3363 0.0000 28.6370 0.0000
# 2 30.7018 57.4235 -6.8994 0.0000 7.3337 0.0000
# 3 36.3363 -6.8994 148.7654 0.0000 35.5319 0.0000
# 4 0.0000 0.0000 0.0000 20.8686 0.0000 -1.6682
# 5 28.6370 7.3337 35.5319 0.0000 34.2161 0.0000
# 6 0.0000 0.0000 0.0000 -1.6682 0.0000 4.1871
#
#
#
# Elastic Compliance Matrix: (Units=1/GPa)
#
#
# Indices 1 2 3 4 5 6 
#
# 1 0.025556 -0.012037 -0.003069 0.000000 -0.015622 0.000000
# 2 -0.012037 0.024199 0.003850 0.000000 0.000890 0.000000
# 3 -0.003069 0.003850 0.009620 0.000000 -0.008246 0.000000
# 4 0.000000 0.000000 0.000000 0.049495 0.000000 0.019719
# 5 -0.015622 0.000890 -0.008246 0.000000 0.050673 0.000000
# 6 0.000000 0.000000 0.000000 0.019719 0.000000 0.246684
#
#
# Mechanical properties :
#
#
# Convention : Reuss Voigt Hill
#
# Bulk Modulus (GPa) = 27.12841 44.65846 35.89344
# Shear Modulus (GPa) = 11.33716 26.62169 18.97943
#
# Velocity S-wave (km/s) = 2.22600 3.41107 2.88014
# Velocity P-wave (km/s) = 4.29693 5.91882 5.17185
#
# Compressibility (1/GPa) = 0.03686173
#
# Stress axis : x y z
#
# Youngs Moduli (GPa) = 39.12989 41.32375 103.95284
#
# Poissons Ratio (x) = 0.49742 0.31905
# Poissons Ratio (y) = 0.47102 -0.40021
# Poissons Ratio (z) = 0.12010 -0.15909
#
# Static dielectric constant tensor:
#      x y z
#    x 1.956560 0.000000 -0.013610 
#    y 0.000000 1.839080 0.000000 
#    z -0.013610 0.000000 2.034060 
# 
# From -- ./inp_files/58650.got.cif
#   From: 2010.05.17/outbox.cif.g08.bks.cpg/sg15_30_cif.got.tgz:58650.got - 2010.06.03 18:47:42.
