data_PCOD9272606
_publ_section_title
;
Structure prediction by ZEFSAII (Michael W. Deem and Ramdas Pophale) SiO2 
 PCOD9272606
Probable space group: C 2/C
;
_chemical_formula_sum "Si O2"
_cell_formula_units_Z 48
_cell_length_a 10.844007
_cell_length_b 12.953266
_cell_length_c 16.101077
_cell_angle_alpha 90.000000
_cell_angle_beta 61.362978
_cell_angle_gamma 90.000000
_cell_volume 1984.983848
_symmetry_space_group_name_H-M "C 2/C"
_symmetry_group_IT_number 15
_symmetry_cell_setting 'monoclinic'
loop_
_space_group_symop_operation_xyz
x,y,z
-x,y,1/2-z
-x,-y,-z
x,-y,1/2+z
1/2+x,1/2+y,z
1/2-x,1/2+y,1/2-z
1/2-x,1/2-y,-z
1/2+x,1/2-y,1/2+z
loop_
_atom_site_type_symbol
_atom_site_label
_atom_site_fract_x
_atom_site_fract_y
_atom_site_fract_z
Si Si1 0.876407 0.684585 0.620499
Si Si2 0.676843 0.628512 0.834137
Si Si3 0.285653 0.917404 0.991731
Si Si4 0.343307 0.590634 0.145610
Si Si5 0.689478 0.135633 0.531945
Si Si6 0.440265 0.837659 0.680253
O O1 0.778378 0.640550 0.723539
O O2 0.787976 0.665498 0.564782
O O3 0.917883 0.800889 0.634902
O O4 0.025653 0.632078 0.565335
O O5 0.592475 0.520936 0.856407
O O6 0.773524 0.615135 0.883833
O O7 0.591893 0.735640 0.863513
O O8 0.189153 0.901453 0.942458
O O9 0.442610 0.906442 0.901494
O O10 0.254421 0.033724 0.033412
O O11 0.201209 0.602617 0.246955
O O12 0.750000 0.250000 0.500000
O O13 0.500000 0.800343 0.750000
#
# Coordination Sequence:
#
# PCOD9272606 Si02
#       6
#     8   8   8   8   8   8
#     4  11  21  36  59  84 110 148 191 229 275 336
#     4  10  21  38  56  83 116 146 180 231 285 331
#     4  10  20  37  59  81 108 148 190 228 272 334
#     4   9  20  37  57  82 112 144 184 235 280 323
#     4  11  23  38  56  83 115 148 184 230 282 334
#     4   9  18  36  60  81 107 148 193 227 271 338
#
# _framework density 24.181557999999999
#
# number of rings (size 3 to 8) (size 9 to 14) (size 15 to 20)
#    0.000    2.000    0.000    3.500    0.000    5.333 
#    0.000   15.833    0.000    0.000    0.000    0.000 
#    0.000    0.000    0.000    0.000    0.000    0.000 
#
# Total GULP energy -134024.171680 kJ/mol
# GULP energy per Si atom -5584.340487 kJ/mol
# Density = 2.412652 g / cm^3
# Si number density = 24.181558 Si / 1000 Ang^3
#
#
#
# Elastic Constant Matrix: (Units=GPa)
#
#
# Indices 1 2 3 4 5 6 
#
# 1 29.6831 1.6904 3.3467 0.0000 1.8767 0.0000
# 2 1.6904 171.4896 11.4923 0.0000 4.2690 0.0000
# 3 3.3467 11.4923 67.2462 0.0000 8.4614 0.0000
# 4 0.0000 0.0000 0.0000 23.6692 0.0000 6.7392
# 5 1.8767 4.2690 8.4614 0.0000 25.4906 0.0000
# 6 0.0000 0.0000 0.0000 6.7392 0.0000 25.6102
#
#
#
# Elastic Compliance Matrix: (Units=1/GPa)
#
#
# Indices 1 2 3 4 5 6 
#
# 1 0.033985 -0.000191 -0.001407 0.000000 -0.002003 0.000000
# 2 -0.000191 0.005911 -0.000916 0.000000 -0.000672 0.000000
# 3 -0.001407 -0.000916 0.015722 0.000000 -0.004962 0.000000
# 4 0.000000 0.000000 0.000000 0.045671 0.000000 -0.012018
# 5 -0.002003 -0.000672 -0.004962 0.000000 0.041137 0.000000
# 6 0.000000 0.000000 0.000000 -0.012018 0.000000 0.042210
#
#
# Mechanical properties :
#
#
# Convention : Reuss Voigt Hill
#
# Bulk Modulus (GPa) = 19.76650 33.49752 26.63201
# Shear Modulus (GPa) = 24.20993 31.74663 27.97828
#
# Velocity S-wave (km/s) = 3.16756 3.62725 3.40517
# Velocity P-wave (km/s) = 4.64434 5.60582 5.14758
#
# Compressibility (1/GPa) = 0.05059064
#
# Stress axis : x y z
#
# Youngs Moduli (GPa) = 29.42450 169.16868 63.60666
#
# Poissons Ratio (x) = 0.03229 0.08948
# Poissons Ratio (y) = 0.00562 0.05828
# Poissons Ratio (z) = 0.04139 0.15499
#
# Static dielectric constant tensor:
#      x y z
#    x 1.919620 0.000000 0.000260 
#    y 0.000000 1.982860 0.000000 
#    z 0.000260 0.000000 1.876700 
# 
# From -- ./inp_files/152744.got.cif
#   From: 2010.05.17/outbox.cif.g08.bks.cpg/sg15_77_cif.got.tgz:152744.got - 2010.06.03 18:47:42.
