data_PCOD9272224
_publ_section_title
;
Structure prediction by ZEFSAII (Michael W. Deem and Ramdas Pophale) SiO2 
 PCOD9272224
Probable space group: C 2/C
;
_chemical_formula_sum "Si O2"
_cell_formula_units_Z 60
_cell_length_a 27.619243
_cell_length_b 11.177307
_cell_length_c 9.106929
_cell_angle_alpha 90.000000
_cell_angle_beta 105.955117
_cell_angle_gamma 90.000000
_cell_volume 2703.086522
_symmetry_space_group_name_H-M "C 2/C"
_symmetry_group_IT_number 15
_symmetry_cell_setting 'monoclinic'
loop_
_space_group_symop_operation_xyz
x,y,z
-x,y,1/2-z
-x,-y,-z
x,-y,1/2+z
1/2+x,1/2+y,z
1/2-x,1/2+y,1/2-z
1/2-x,1/2-y,-z
1/2+x,1/2-y,1/2+z
loop_
_atom_site_type_symbol
_atom_site_label
_atom_site_fract_x
_atom_site_fract_y
_atom_site_fract_z
Si Si1 0.500000 0.226574 0.250000
Si Si2 0.286684 0.514603 0.331143
Si Si3 0.951812 0.944147 0.035575
Si Si4 0.638996 0.295681 0.645693
Si Si5 0.377051 0.356722 0.540053
Si Si6 0.870832 0.618784 0.400569
Si Si7 0.734855 0.888125 0.518155
Si Si8 0.099770 0.406284 0.891793
O O1 0.475480 0.323738 0.120862
O O2 0.452445 0.138962 0.222216
O O3 0.310318 0.646165 0.380327
O O4 0.330538 0.424070 0.420906
O O5 0.237871 0.460515 0.369155
O O6 0.273755 0.532782 0.149739
O O7 0.922676 0.048703 0.102475
O O8 0.905031 0.893783 0.906148
O O9 0.000000 0.000000 0.000000
O O10 0.640386 0.289440 0.824140
O O11 0.623062 0.183761 0.533470
O O12 0.392295 0.252490 0.440088
O O13 0.816380 0.613153 0.433134
O O14 0.904952 0.528684 0.523130
O O15 0.866738 0.586302 0.226532
O O16 0.750000 0.750000 0.500000
#
# Coordination Sequence:
#
# PCOD9272224 Si02
#       8
#     4   8   8   8   8   8   8   8
#     4  10  22  44  66 100 136 174 228 274 338 428
#     4  11  23  41  71  94 137 180 229 290 349 405
#     4  10  20  36  66 102 137 171 221 277 347 411
#     4  10  22  40  66  99 133 180 227 287 348 411
#     4  11  22  41  70  98 142 178 230 289 351 412
#     4  12  25  45  66  98 136 184 231 287 354 414
#     4  12  25  45  68 103 143 183 243 297 347 429
#     4  11  26  45  70  97 139 182 232 287 356 424
#
# _framework density 22.196847000000002
#
# number of rings (size 3 to 8) (size 9 to 14) (size 15 to 20)
#    0.000    1.067    2.667    3.200    1.867    3.733 
#    0.000    4.000    0.000    0.000    0.000    0.000 
#    0.000    0.000    0.000    0.000    0.000    0.000 
#
# Total GULP energy -167014.889406 kJ/mol
# GULP energy per Si atom -5567.162980 kJ/mol
# Density = 2.214633 g / cm^3
# Si number density = 22.196847 Si / 1000 Ang^3
#
#
#
# Elastic Constant Matrix: (Units=GPa)
#
#
# Indices 1 2 3 4 5 6 
#
# 1 77.0462 39.0210 14.7681 0.0000 -9.5873 0.0000
# 2 39.0210 76.7537 46.3154 0.0000 -1.7733 0.0000
# 3 14.7681 46.3154 109.0303 0.0000 -13.4194 0.0000
# 4 0.0000 0.0000 0.0000 35.3142 0.0000 1.2910
# 5 -9.5873 -1.7733 -13.4194 0.0000 18.0910 0.0000
# 6 0.0000 0.0000 0.0000 1.2910 0.0000 36.5074
#
#
#
# Elastic Compliance Matrix: (Units=1/GPa)
#
#
# Indices 1 2 3 4 5 6 
#
# 1 0.019982 -0.012316 0.004050 0.000000 0.012386 0.000000
# 2 -0.012316 0.025404 -0.010586 0.000000 -0.011890 0.000000
# 3 0.004050 -0.010586 0.014589 0.000000 0.011930 0.000000
# 4 0.000000 0.000000 0.000000 0.028354 0.000000 -0.001003
# 5 0.012386 -0.011890 0.011930 0.000000 0.069524 0.000000
# 6 0.000000 0.000000 0.000000 -0.001003 0.000000 0.027427
#
#
# Mechanical properties :
#
#
# Convention : Reuss Voigt Hill
#
# Bulk Modulus (GPa) = 44.90666 51.44880 48.17773
# Shear Modulus (GPa) = 21.70061 28.83090 25.26576
#
# Velocity S-wave (km/s) = 3.13012 3.60790 3.37747
# Velocity P-wave (km/s) = 5.77396 6.37061 6.07961
#
# Compressibility (1/GPa) = 0.02226841
#
# Stress axis : x y z
#
# Youngs Moduli (GPa) = 50.04503 39.36432 68.54656
#
# Poissons Ratio (x) = 0.48482 -0.27760
# Poissons Ratio (y) = 0.61637 0.72567
# Poissons Ratio (z) = -0.20267 0.41673
#
# Static dielectric constant tensor:
#      x y z
#    x 1.961490 0.000000 0.022430 
#    y 0.000000 1.814380 0.000000 
#    z 0.022430 0.000000 1.834190 
# 
# From -- ./inp_files/69139.got.cif
#   From: 2010.05.17/outbox.cif.g08.bks.cpg/sg15_35_cif.got.tgz:69139.got - 2010.06.03 18:47:42.
