data_PCOD9272855
_publ_section_title
;
Structure prediction by ZEFSAII (Michael W. Deem and Ramdas Pophale) SiO2 
 PCOD9272855
Probable space group: C 2/C
;
_chemical_formula_sum "Si O2"
_cell_formula_units_Z 64
_cell_length_a 23.942545
_cell_length_b 19.809926
_cell_length_c 14.385936
_cell_angle_alpha 90.000000
_cell_angle_beta 150.369697
_cell_angle_gamma 90.000000
_cell_volume 3373.426185
_symmetry_space_group_name_H-M "C 2/C"
_symmetry_group_IT_number 15
_symmetry_cell_setting 'monoclinic'
loop_
_space_group_symop_operation_xyz
x,y,z
-x,y,1/2-z
-x,-y,-z
x,-y,1/2+z
1/2+x,1/2+y,z
1/2-x,1/2+y,1/2-z
1/2-x,1/2-y,-z
1/2+x,1/2-y,1/2+z
loop_
_atom_site_type_symbol
_atom_site_label
_atom_site_fract_x
_atom_site_fract_y
_atom_site_fract_z
Si Si1 0.837982 0.308583 0.101986
Si Si2 0.279685 0.848900 0.631248
Si Si3 0.876548 0.025654 0.567692
Si Si4 0.335977 0.416783 0.661070
Si Si5 0.094718 0.293603 0.514707
Si Si6 0.626313 0.520513 0.647280
Si Si7 0.083012 0.748348 0.285271
Si Si8 0.950825 0.835884 0.446926
O O1 0.863359 0.304287 0.028781
O O2 0.959932 0.305591 0.326076
O O3 0.750000 0.250000 0.000000
O O4 0.770738 0.375927 0.027828
O O5 0.219156 0.921385 0.539979
O O6 0.184226 0.792419 0.475277
O O7 0.373743 0.822799 0.694361
O O8 0.334763 0.838561 0.811968
O O9 0.859474 0.996987 0.439669
O O10 0.000000 0.060989 0.750000
O O11 0.884602 0.962590 0.649077
O O12 0.298026 0.469639 0.684826
O O13 0.431029 0.365917 0.841334
O O14 0.104486 0.215910 0.560757
O O15 0.500000 0.500000 0.500000
O O16 0.630356 0.599037 0.678775
O O17 0.000000 0.737336 0.250000
O O18 0.037314 0.794304 0.132283
#
# Coordination Sequence:
#
# PCOD9272855 Si02
#       8
#     8   8   8   8   8   8   8   8
#     4  11  23  38  63  90 121 164 205 254 310 366
#     4  10  23  39  59  95 122 167 211 247 323 374
#     4  12  22  37  66  90 130 163 198 266 317 376
#     4  11  23  38  60  94 123 156 209 254 316 363
#     4  10  23  40  62  87 128 161 202 258 303 374
#     4  10  21  33  54  93 125 157 189 249 322 370
#     4  10  22  37  64  90 127 168 208 261 308 376
#     4  10  20  37  60  95 127 150 205 256 317 366
#
# _framework density 18.971810000000001
#
# number of rings (size 3 to 8) (size 9 to 14) (size 15 to 20)
#    0.000    1.500    3.750    1.875    8.750    0.000 
#    0.000    0.625    8.250    0.000    0.000    0.000 
#    0.000    0.000    0.000    0.000    0.000    0.000 
#
# Total GULP energy -178486.129613 kJ/mol
# GULP energy per Si atom -5577.691550 kJ/mol
# Density = 1.892863 g / cm^3
# Si number density = 18.971810 Si / 1000 Ang^3
#
#
#
# Elastic Constant Matrix: (Units=GPa)
#
#
# Indices 1 2 3 4 5 6 
#
# 1 102.5956 29.1138 25.1059 0.0000 -9.3857 0.0000
# 2 29.1138 93.6610 25.9248 0.0000 6.4366 0.0000
# 3 25.1059 25.9248 72.6101 0.0000 -6.7838 0.0000
# 4 0.0000 0.0000 0.0000 22.7603 0.0000 -0.1811
# 5 -9.3857 6.4366 -6.7838 0.0000 24.6331 0.0000
# 6 0.0000 0.0000 0.0000 -0.1811 0.0000 20.9656
#
#
#
# Elastic Compliance Matrix: (Units=1/GPa)
#
#
# Indices 1 2 3 4 5 6 
#
# 1 0.011700 -0.003280 -0.002440 0.000000 0.004643 0.000000
# 2 -0.003280 0.013245 -0.004141 0.000000 -0.005851 0.000000
# 3 -0.002440 -0.004141 0.016534 0.000000 0.004706 0.000000
# 4 0.000000 0.000000 0.000000 0.043939 0.000000 0.000379
# 5 0.004643 -0.005851 0.004706 0.000000 0.045190 0.000000
# 6 0.000000 0.000000 0.000000 0.000379 0.000000 0.047701
#
#
# Mechanical properties :
#
#
# Convention : Reuss Voigt Hill
#
# Bulk Modulus (GPa) = 45.96710 47.68397 46.82553
# Shear Modulus (GPa) = 24.35647 26.25328 25.30488
#
# Velocity S-wave (km/s) = 3.58694 3.72399 3.65610
# Velocity P-wave (km/s) = 6.43712 6.60904 6.52365
#
# Compressibility (1/GPa) = 0.02175469
#
# Stress axis : x y z
#
# Youngs Moduli (GPa) = 85.47137 75.50072 60.48051
#
# Poissons Ratio (x) = 0.24767 0.14759
# Poissons Ratio (y) = 0.28038 0.25047
# Poissons Ratio (z) = 0.20858 0.31268
#
# Static dielectric constant tensor:
#      x y z
#    x 1.649710 0.000000 -0.030240 
#    y 0.000000 1.683410 0.000000 
#    z -0.030240 0.000000 1.704090 
# 
# From -- ./inp_files/174246.got.cif
#   From: 2010.05.17/outbox.cif.g08.bks.cpg/sg15_88_cif.got.tgz:174246.got - 2010.06.03 18:47:42.
