data_PCOD9272886
_publ_section_title
;
Structure prediction by ZEFSAII (Michael W. Deem and Ramdas Pophale) SiO2 
 PCOD9272886
Probable space group: C 2/C
;
_chemical_formula_sum "Si O2"
_cell_formula_units_Z 56
_cell_length_a 5.453696
_cell_length_b 22.356737
_cell_length_c 25.299393
_cell_angle_alpha 90.000000
_cell_angle_beta 63.827529
_cell_angle_gamma 90.000000
_cell_volume 2768.404698
_symmetry_space_group_name_H-M "C 2/C"
_symmetry_group_IT_number 15
_symmetry_cell_setting 'monoclinic'
loop_
_space_group_symop_operation_xyz
x,y,z
-x,y,1/2-z
-x,-y,-z
x,-y,1/2+z
1/2+x,1/2+y,z
1/2-x,1/2+y,1/2-z
1/2-x,1/2-y,-z
1/2+x,1/2-y,1/2+z
loop_
_atom_site_type_symbol
_atom_site_label
_atom_site_fract_x
_atom_site_fract_y
_atom_site_fract_z
Si Si1 0.000000 0.743919 0.750000
Si Si2 0.774163 0.646463 0.382324
Si Si3 0.512977 0.424338 0.059018
Si Si4 0.521922 0.841464 0.528463
Si Si5 0.859238 0.819849 0.129374
Si Si6 0.128787 0.948301 0.541480
Si Si7 0.524341 0.231106 0.925202
Si Si8 0.500000 0.179541 0.250000
O O1 0.165515 0.703646 0.693486
O O2 0.232032 0.782700 0.758136
O O3 0.655475 0.582438 0.412114
O O4 0.545065 0.698910 0.407960
O O5 0.908028 0.645171 0.312101
O O6 0.969583 0.671580 0.410362
O O7 0.372091 0.391600 0.120891
O O8 0.668835 0.485051 0.059009
O O9 0.342153 0.447409 0.024990
O O10 0.687480 0.369824 0.017432
O O11 0.473117 0.788402 0.491254
O O12 0.338969 0.899504 0.540269
O O13 0.702233 0.798293 0.090843
O O14 0.166680 0.795553 0.112594
#
# Coordination Sequence:
#
# PCOD9272886 Si02
#       8
#     4   8   8   8   8   8   8   4
#     4  12  22  42  65  86 121 164 210 248 308 364
#     4  11  24  38  57  93 122 163 207 250 312 376
#     4   9  20  38  58  90 123 159 207 254 305 365
#     4  10  21  36  60  93 123 162 202 258 312 373
#     4  11  21  39  63  92 117 162 206 257 302 363
#     4  10  20  37  61  86 124 165 202 247 312 371
#     4  11  22  38  60  93 130 152 199 259 315 363
#     4  12  26  42  63  88 127 166 202 250 302 388
#
# _framework density 20.228255999999998
#
# number of rings (size 3 to 8) (size 9 to 14) (size 15 to 20)
#    0.000    1.429    4.286    0.857    4.000    0.571 
#    0.000    0.714    0.000    0.000    7.429    0.000 
#    0.000    0.000    0.000    0.000    0.000    0.000 
#
# Total GULP energy -156087.122515 kJ/mol
# GULP energy per Si atom -5574.540090 kJ/mol
# Density = 2.018222 g / cm^3
# Si number density = 20.228256 Si / 1000 Ang^3
#
#
#
# Elastic Constant Matrix: (Units=GPa)
#
#
# Indices 1 2 3 4 5 6 
#
# 1 94.5106 14.0588 19.7999 0.0000 -1.4396 0.0000
# 2 14.0588 87.9095 17.4521 0.0000 -0.1765 0.0000
# 3 19.7999 17.4521 130.1428 0.0000 3.8306 0.0000
# 4 0.0000 0.0000 0.0000 27.1208 0.0000 -1.7713
# 5 -1.4396 -0.1765 3.8306 0.0000 23.1501 0.0000
# 6 0.0000 0.0000 0.0000 -1.7713 0.0000 24.8182
#
#
#
# Elastic Compliance Matrix: (Units=1/GPa)
#
#
# Indices 1 2 3 4 5 6 
#
# 1 0.011134 -0.001476 -0.001523 0.000000 0.000933 0.000000
# 2 -0.001476 0.011885 -0.001376 0.000000 0.000226 0.000000
# 3 -0.001523 -0.001376 0.008143 0.000000 -0.001453 0.000000
# 4 0.000000 0.000000 0.000000 0.037045 0.000000 0.002644
# 5 0.000933 0.000226 -0.001453 0.000000 0.043496 0.000000
# 6 0.000000 0.000000 0.000000 0.002644 0.000000 0.040482
#
#
# Mechanical properties :
#
#
# Convention : Reuss Voigt Hill
#
# Bulk Modulus (GPa) = 44.62152 46.13161 45.37657
# Shear Modulus (GPa) = 29.69018 32.43463 31.06241
#
# Velocity S-wave (km/s) = 3.83529 4.00863 3.92292
# Velocity P-wave (km/s) = 6.45906 6.65436 6.55744
#
# Compressibility (1/GPa) = 0.02241071
#
# Stress axis : x y z
#
# Youngs Moduli (GPa) = 89.81674 84.13956 122.80648
#
# Poissons Ratio (x) = 0.12421 0.18708
# Poissons Ratio (y) = 0.13259 0.16896
# Poissons Ratio (z) = 0.13683 0.11576
#
# Static dielectric constant tensor:
#      x y z
#    x 1.850430 0.000000 -0.029670 
#    y 0.000000 1.828750 0.000000 
#    z -0.029670 0.000000 1.757930 
# 
# From -- ./inp_files/261651.got.cif
#   From: 2010.05.17/outbox.cif.g08.bks.cpg/sg15_131_cif.got.tgz:261651.got - 2010.06.03 18:47:42.
