data_PCOD9272930
_publ_section_title
;
Structure prediction by ZEFSAII (Michael W. Deem and Ramdas Pophale) SiO2 
 PCOD9272930
Probable space group: C 2/C
;
_chemical_formula_sum "Si O2"
_cell_formula_units_Z 60
_cell_length_a 29.609729
_cell_length_b 4.678710
_cell_length_c 16.284781
_cell_angle_alpha 90.000000
_cell_angle_beta 95.363580
_cell_angle_gamma 90.000000
_cell_volume 2246.139809
_symmetry_space_group_name_H-M "C 2/C"
_symmetry_group_IT_number 15
_symmetry_cell_setting 'monoclinic'
loop_
_space_group_symop_operation_xyz
x,y,z
-x,y,1/2-z
-x,-y,-z
x,-y,1/2+z
1/2+x,1/2+y,z
1/2-x,1/2+y,1/2-z
1/2-x,1/2-y,-z
1/2+x,1/2-y,1/2+z
loop_
_atom_site_type_symbol
_atom_site_label
_atom_site_fract_x
_atom_site_fract_y
_atom_site_fract_z
Si Si1 0.589755 0.764526 0.824157
Si Si2 0.321936 0.781072 0.577503
Si Si3 0.353802 0.324191 0.483100
Si Si4 0.276829 0.969343 0.227022
Si Si5 0.367269 0.058129 0.825420
Si Si6 0.552230 0.218581 0.951939
Si Si7 0.000000 0.264877 0.750000
Si Si8 0.460017 0.837621 0.388404
O O1 0.635892 0.633040 0.867463
O O2 0.609475 0.899223 0.745748
O O3 0.544463 0.595355 0.789236
O O4 0.570547 0.005503 0.883607
O O5 0.317907 0.575694 0.497153
O O6 0.286958 0.872041 0.642296
O O7 0.338920 0.075926 0.542715
O O8 0.355568 0.163923 0.396093
O O9 0.405776 0.416410 0.514432
O O10 0.258715 0.214583 0.284590
O O11 0.321205 0.829401 0.277286
O O12 0.408815 0.264131 0.860375
O O13 0.503710 0.353539 0.919036
O O14 0.545753 0.031523 0.032264
O O15 0.020591 0.466721 0.682257
#
# Coordination Sequence:
#
# PCOD9272930 Si02
#       8
#     8   8   8   8   8   8   4   8
#     4   8  15  29  53  80 114 156 199 242 294 356
#     4  10  21  39  62  88 120 159 197 246 310 371
#     4  10  20  37  61  90 124 159 199 243 300 366
#     4  11  24  44  67  91 120 158 205 259 320 380
#     4   9  19  35  59  87 118 156 203 255 306 364
#     4   8  14  26  51  83 120 160 199 241 291 354
#     4   8  12  22  46  78 114 156 202 248 288 344
#     4   8  13  25  49  82 119 158 202 246 295 352
#
# _framework density 26.712492999999998
#
# number of rings (size 3 to 8) (size 9 to 14) (size 15 to 20)
#    0.000    2.933    0.000    0.800    0.000    1.067 
#    0.000    6.667    0.000  100.000    0.000    0.000 
#    0.000    0.000    0.000    0.000    0.000    0.000 
#
# Total GULP energy -167404.748842 kJ/mol
# GULP energy per Si atom -5580.158295 kJ/mol
# Density = 2.665169 g / cm^3
# Si number density = 26.712493 Si / 1000 Ang^3
#
#
#
# Elastic Constant Matrix: (Units=GPa)
#
#
# Indices 1 2 3 4 5 6 
#
# 1 97.6128 12.6716 51.9107 0.0000 -10.3754 0.0000
# 2 12.6716 70.1199 39.2337 0.0000 -16.0641 0.0000
# 3 51.9107 39.2337 133.2198 0.0000 -44.3790 0.0000
# 4 0.0000 0.0000 0.0000 36.1029 0.0000 -18.2582
# 5 -10.3754 -16.0641 -44.3790 0.0000 34.6969 0.0000
# 6 0.0000 0.0000 0.0000 -18.2582 0.0000 6.0575
#
#
#
# Elastic Compliance Matrix: (Units=1/GPa)
#
#
# Indices 1 2 3 4 5 6 
#
# 1 0.013344 0.000362 -0.006832 0.000000 -0.004581 0.000000
# 2 0.000362 0.017217 -0.004391 0.000000 0.002463 0.000000
# 3 -0.006832 -0.004391 0.017605 0.000000 0.018442 0.000000
# 4 0.000000 0.000000 0.000000 -0.052825 0.000000 -0.159223
# 5 -0.004581 0.002463 0.018442 0.000000 0.052180 0.000000
# 6 0.000000 0.000000 0.000000 -0.159223 0.000000 -0.314839
#
#
# Mechanical properties :
#
#
# Convention : Reuss Voigt Hill
#
# Bulk Modulus (GPa) = 37.81608 56.50938 47.16273
# Shear Modulus (GPa) = -21.11663 28.51388 3.69863
#
# Velocity S-wave (km/s) = -2.81466 3.27071 1.17797
# Velocity P-wave (km/s) = 1.90377 5.95516 4.42088
#
# Compressibility (1/GPa) = 0.02644377
#
# Stress axis : x y z
#
# Youngs Moduli (GPa) = 74.93946 58.08202 56.80075
#
# Poissons Ratio (x) = -0.02102 0.38808
# Poissons Ratio (y) = -0.02712 0.24941
# Poissons Ratio (z) = 0.51201 0.25503
#
# Static dielectric constant tensor:
#      x y z
#    x 2.140400 0.000000 0.070930 
#    y 0.000000 2.066330 0.000000 
#    z 0.070930 0.000000 2.188150 
# 
# From -- ./inp_files/223655.got.cif
#   From: 2010.05.17/outbox.cif.g08.bks.cpg/sg15_112_cif.got.tgz:223655.got - 2010.06.03 18:47:42.
