data_PCOD9272748
_publ_section_title
;
Structure prediction by ZEFSAII (Michael W. Deem and Ramdas Pophale) SiO2 
 PCOD9272748
Probable space group: C 2/C
;
_chemical_formula_sum "Si O2"
_cell_formula_units_Z 40
_cell_length_a 16.806922
_cell_length_b 8.170393
_cell_length_c 18.550150
_cell_angle_alpha 90.000000
_cell_angle_beta 41.850561
_cell_angle_gamma 90.000000
_cell_volume 1699.527220
_symmetry_space_group_name_H-M "C 2/C"
_symmetry_group_IT_number 15
_symmetry_cell_setting 'monoclinic'
loop_
_space_group_symop_operation_xyz
x,y,z
-x,y,1/2-z
-x,-y,-z
x,-y,1/2+z
1/2+x,1/2+y,z
1/2-x,1/2+y,1/2-z
1/2-x,1/2-y,-z
1/2+x,1/2-y,1/2+z
loop_
_atom_site_type_symbol
_atom_site_label
_atom_site_fract_x
_atom_site_fract_y
_atom_site_fract_z
Si Si1 0.733880 0.245022 0.845813
Si Si2 0.834315 0.938009 0.036026
Si Si3 0.998624 0.642812 0.941709
Si Si4 0.645513 0.939554 0.552451
Si Si5 0.496482 0.629762 0.675852
O O1 0.630456 0.214334 0.857566
O O2 0.867546 0.192680 0.739761
O O3 0.723779 0.437789 0.868505
O O4 0.697409 0.139810 0.942995
O O5 0.888209 0.768732 0.028124
O O6 0.950927 0.026674 0.924709
O O7 0.741501 0.955855 0.031951
O O8 0.964264 0.557351 0.890787
O O9 0.000000 0.500000 0.000000
O O10 0.588153 0.780644 0.628372
O O11 0.500000 0.536567 0.750000
#
# Coordination Sequence:
#
# PCOD9272748 Si02
#       5
#     8   8   8   8   8
#     4  10  20  38  61  86 117 154 196 255 314 360
#     4  11  20  37  64  86 112 163 204 242 310 368
#     4  10  23  39  56  86 125 158 200 253 299 354
#     4  10  20  37  60  86 117 155 203 251 297 367
#     4  11  19  36  63  88 118 151 205 258 308 359
#
# _framework density 23.535958000000001
#
# number of rings (size 3 to 8) (size 9 to 14) (size 15 to 20)
#    0.000    1.600    4.000    2.400    0.000    1.600 
#    0.000    5.000    0.000    0.000    0.000    0.000 
#    0.000    0.000    0.000    0.000    0.000    0.000 
#
# Total GULP energy -111645.668542 kJ/mol
# GULP energy per Si atom -5582.283427 kJ/mol
# Density = 2.348239 g / cm^3
# Si number density = 23.535958 Si / 1000 Ang^3
#
#
#
# Elastic Constant Matrix: (Units=GPa)
#
#
# Indices 1 2 3 4 5 6 
#
# 1 143.5273 52.7848 17.0458 0.0000 -45.8227 0.0000
# 2 52.7848 83.5100 -7.0841 0.0000 -5.4709 0.0000
# 3 17.0458 -7.0841 45.8935 0.0000 -16.2826 0.0000
# 4 0.0000 0.0000 0.0000 7.4706 0.0000 -7.5156
# 5 -45.8227 -5.4709 -16.2826 0.0000 26.2308 0.0000
# 6 0.0000 0.0000 0.0000 -7.5156 0.0000 48.8836
#
#
#
# Elastic Compliance Matrix: (Units=1/GPa)
#
#
# Indices 1 2 3 4 5 6 
#
# 1 0.025136 -0.012644 0.004303 0.000000 0.043944 0.000000
# 2 -0.012644 0.018971 0.001528 0.000000 -0.017182 0.000000
# 3 0.004303 0.001528 0.029762 0.000000 0.026311 0.000000
# 4 0.000000 0.000000 0.000000 0.158349 0.000000 0.024345
# 5 0.043944 -0.017182 0.026311 0.000000 0.127638 0.000000
# 6 0.000000 0.000000 0.000000 0.024345 0.000000 0.024200
#
#
# Mechanical properties :
#
#
# Convention : Reuss Voigt Hill
#
# Bulk Modulus (GPa) = 16.59920 44.26929 30.43424
# Shear Modulus (GPa) = 11.96856 30.52930 21.24893
#
# Velocity S-wave (km/s) = 2.25749 3.60548 3.00797
# Velocity P-wave (km/s) = 3.72331 6.01521 5.00229
#
# Compressibility (1/GPa) = 0.06024386
#
# Stress axis : x y z
#
# Youngs Moduli (GPa) = 39.78358 52.71322 33.59994
#
# Poissons Ratio (x) = 0.66650 -0.14459
# Poissons Ratio (y) = 0.50302 -0.05135
# Poissons Ratio (z) = -0.17120 -0.08057
#
# Static dielectric constant tensor:
#      x y z
#    x 1.953970 0.000000 0.035970 
#    y 0.000000 1.949590 0.000000 
#    z 0.035970 0.000000 1.917190 
# 
# From -- ./inp_files/125745.got.cif
#   From: 2010.05.17/outbox.cif.g08.bks.cpg/sg15_63_cif.got.tgz:125745.got - 2010.06.03 18:47:42.
