data_PCOD9272170
_publ_section_title
;
Structure prediction by ZEFSAII (Michael W. Deem and Ramdas Pophale) SiO2 
 PCOD9272170
Probable space group: C 2/C
;
_chemical_formula_sum "Si O2"
_cell_formula_units_Z 48
_cell_length_a 11.777536
_cell_length_b 22.854165
_cell_length_c 10.543123
_cell_angle_alpha 90.000000
_cell_angle_beta 126.571972
_cell_angle_gamma 90.000000
_cell_volume 2279.101081
_symmetry_space_group_name_H-M "C 2/C"
_symmetry_group_IT_number 15
_symmetry_cell_setting 'monoclinic'
loop_
_space_group_symop_operation_xyz
x,y,z
-x,y,1/2-z
-x,-y,-z
x,-y,1/2+z
1/2+x,1/2+y,z
1/2-x,1/2+y,1/2-z
1/2-x,1/2-y,-z
1/2+x,1/2-y,1/2+z
loop_
_atom_site_type_symbol
_atom_site_label
_atom_site_fract_x
_atom_site_fract_y
_atom_site_fract_z
Si Si1 0.000000 0.068631 0.250000
Si Si2 0.204043 0.651702 0.723000
Si Si3 0.912231 0.477256 0.321585
Si Si4 0.500000 0.233458 0.750000
Si Si5 0.356536 0.346232 0.080267
Si Si6 0.997082 0.832001 0.554682
Si Si7 0.863286 0.019627 0.490415
O O1 0.951478 0.113851 0.325908
O O2 0.124387 0.027347 0.386370
O O3 0.131723 0.588907 0.678314
O O4 0.114288 0.694473 0.752597
O O5 0.230495 0.668024 0.592886
O O6 0.359921 0.646025 0.887703
O O7 0.770414 0.511951 0.189394
O O8 0.000000 0.478730 0.250000
O O9 0.000000 0.500000 0.500000
O O10 0.446550 0.278195 0.606608
O O11 0.500000 0.331032 0.250000
O O12 0.377016 0.315739 0.957893
O O13 0.362110 0.415806 0.050639
O O14 0.000000 0.000000 0.500000
#
# Coordination Sequence:
#
# PCOD9272170 Si02
#       7
#     4   8   8   4   8   8   8
#     4  11  20  34  66 102 132 168 229 290 336 404
#     4  11  22  43  63  89 134 182 223 285 347 422
#     4  12  27  43  64 100 148 190 221 274 358 437
#     4  11  24  42  64  90 126 184 239 280 350 398
#     4  10  20  36  64  98 131 163 225 288 348 404
#     4  10  22  39  64  99 125 169 239 299 335 396
#     4  12  22  38  67 103 139 181 230 284 344 419
#
# _framework density 21.060934
#
# number of rings (size 3 to 8) (size 9 to 14) (size 15 to 20)
#    0.000    1.000    5.000    2.500    2.333    0.667 
#    0.000    0.000    0.000    3.000    0.000    0.000 
#    0.000    0.000    0.000    0.000    0.000    0.000 
#
# Total GULP energy -133960.250186 kJ/mol
# GULP energy per Si atom -5581.677091 kJ/mol
# Density = 2.101300 g / cm^3
# Si number density = 21.060934 Si / 1000 Ang^3
#
#
#
# Elastic Constant Matrix: (Units=GPa)
#
#
# Indices 1 2 3 4 5 6 
#
# 1 170.6418 32.7980 38.7698 0.0000 -27.9457 0.0000
# 2 32.7980 67.5898 8.1581 0.0000 -11.5243 0.0000
# 3 38.7698 8.1581 98.6280 0.0000 -10.6504 0.0000
# 4 0.0000 0.0000 0.0000 15.9436 0.0000 -4.8820
# 5 -27.9457 -11.5243 -10.6504 0.0000 36.2337 0.0000
# 6 0.0000 0.0000 0.0000 -4.8820 0.0000 28.0938
#
#
#
# Elastic Compliance Matrix: (Units=1/GPa)
#
#
# Indices 1 2 3 4 5 6 
#
# 1 0.007608 -0.002674 -0.002301 0.000000 0.004341 0.000000
# 2 -0.002674 0.016642 0.000024 0.000000 0.003238 0.000000
# 3 -0.002301 0.000024 0.011206 0.000000 0.001527 0.000000
# 4 0.000000 0.000000 0.000000 0.066246 0.000000 0.011512
# 5 0.004341 0.003238 0.001527 0.000000 0.032425 0.000000
# 6 0.000000 0.000000 0.000000 0.011512 0.000000 0.037596
#
#
# Mechanical properties :
#
#
# Convention : Reuss Voigt Hill
#
# Bulk Modulus (GPa) = 39.13077 55.14570 47.13823
# Shear Modulus (GPa) = 26.29611 33.19646 29.74628
#
# Velocity S-wave (km/s) = 3.53735 3.97446 3.76226
# Velocity P-wave (km/s) = 5.94171 6.87768 6.42676
#
# Compressibility (1/GPa) = 0.02555534
#
# Stress axis : x y z
#
# Youngs Moduli (GPa) = 131.44483 60.08980 89.23483
#
# Poissons Ratio (x) = 0.16067 0.20529
# Poissons Ratio (y) = 0.35146 -0.00216
# Poissons Ratio (z) = 0.30240 -0.00145
#
# Static dielectric constant tensor:
#      x y z
#    x 1.867940 0.000000 -0.058430 
#    y 0.000000 1.749160 0.000000 
#    z -0.058430 0.000000 1.767430 
# 
# From -- ./inp_files/91003.got.cif
#   From: 2010.05.17/outbox.cif.g08.bks.cpg/sg15_46_cif.got.tgz:91003.got - 2010.06.03 18:47:42.
