data_PCOD9272434
_publ_section_title
;
Structure prediction by ZEFSAII (Michael W. Deem and Ramdas Pophale) SiO2 
 PCOD9272434
Probable space group: C 2/C
;
_chemical_formula_sum "Si O2"
_cell_formula_units_Z 60
_cell_length_a 27.860713
_cell_length_b 13.672798
_cell_length_c 7.761615
_cell_angle_alpha 90.000000
_cell_angle_beta 81.756210
_cell_angle_gamma 90.000000
_cell_volume 2926.110892
_symmetry_space_group_name_H-M "C 2/C"
_symmetry_group_IT_number 15
_symmetry_cell_setting 'monoclinic'
loop_
_space_group_symop_operation_xyz
x,y,z
-x,y,1/2-z
-x,-y,-z
x,-y,1/2+z
1/2+x,1/2+y,z
1/2-x,1/2+y,1/2-z
1/2-x,1/2-y,-z
1/2+x,1/2-y,1/2+z
loop_
_atom_site_type_symbol
_atom_site_label
_atom_site_fract_x
_atom_site_fract_y
_atom_site_fract_z
Si Si1 0.500000 0.738024 0.750000
Si Si2 0.463859 0.066846 0.633486
Si Si3 0.826984 0.276139 0.933460
Si Si4 0.082025 0.381757 0.680672
Si Si5 0.702918 0.447923 0.546700
Si Si6 0.862266 0.094455 0.117920
Si Si7 0.248510 0.139073 0.704784
Si Si8 0.024675 0.099081 0.418357
O O1 0.543768 0.808464 0.787084
O O2 0.516550 0.674207 0.579258
O O3 0.500000 0.118692 0.750000
O O4 0.431896 0.126016 0.515122
O O5 0.500000 0.000000 0.500000
O O6 0.429576 0.990786 0.751660
O O7 0.857189 0.183877 0.988647
O O8 0.800569 0.331128 0.104631
O O9 0.863531 0.348439 0.820262
O O10 0.786317 0.228759 0.832603
O O11 0.659405 0.496198 0.456920
O O12 0.675626 0.387406 0.707756
O O13 0.730982 0.541010 0.612805
O O14 0.738721 0.386675 0.407764
O O15 0.917895 0.083392 0.140796
O O16 0.000000 0.127027 0.250000
O O17 0.000000 0.000000 0.500000
#
# Coordination Sequence:
#
# PCOD9272434 Si02
#       8
#     4   8   8   8   8   8   8   8
#     4  12  24  40  62  88 126 166 204 262 298 368
#     4   9  18  36  59  78 113 154 196 251 303 355
#     4  10  21  37  57  83 120 147 196 245 306 356
#     4  11  21  39  59  87 116 161 202 251 307 367
#     4   9  19  36  62  80 110 150 196 235 304 362
#     4  10  20  37  56  84 114 156 194 241 296 364
#     4   9  20  38  59  84 112 152 188 251 298 361
#     4  12  25  40  60  90 129 169 208 256 303 361
#
# _framework density 20.505033000000001
#
# number of rings (size 3 to 8) (size 9 to 14) (size 15 to 20)
#    0.000    1.867    4.000    0.800    0.000    4.267 
#    0.000    2.667    0.000    0.000    0.000    0.000 
#    0.000    0.000    0.000    0.000    0.000    0.000 
#
# Total GULP energy -167432.848221 kJ/mol
# GULP energy per Si atom -5581.094941 kJ/mol
# Density = 2.045836 g / cm^3
# Si number density = 20.505033 Si / 1000 Ang^3
#
#
#
# Elastic Constant Matrix: (Units=GPa)
#
#
# Indices 1 2 3 4 5 6 
#
# 1 52.7358 1.4681 -18.1112 0.0000 -19.3831 0.0000
# 2 1.4681 52.2835 3.8127 0.0000 -12.2902 0.0000
# 3 -18.1112 3.8127 55.5758 0.0000 -7.4434 0.0000
# 4 0.0000 0.0000 0.0000 31.2498 0.0000 -14.6717
# 5 -19.3831 -12.2902 -7.4434 0.0000 29.4128 0.0000
# 6 0.0000 0.0000 0.0000 -14.6717 0.0000 18.6105
#
#
#
# Elastic Compliance Matrix: (Units=1/GPa)
#
#
# Indices 1 2 3 4 5 6 
#
# 1 0.034193 0.004592 0.014598 0.000000 0.028146 0.000000
# 2 0.004592 0.021831 0.001683 0.000000 0.012574 0.000000
# 3 0.014598 0.001683 0.024860 0.000000 0.016614 0.000000
# 4 0.000000 0.000000 0.000000 0.050805 0.000000 0.040052
# 5 0.028146 0.012574 0.016614 0.000000 0.062006 0.000000
# 6 0.000000 0.000000 0.000000 0.040052 0.000000 0.085309
#
#
# Mechanical properties :
#
#
# Convention : Reuss Voigt Hill
#
# Bulk Modulus (GPa) = 8.15477 14.99270 11.57373
# Shear Modulus (GPa) = 17.97689 27.41630 22.69660
#
# Velocity S-wave (km/s) = 2.96413 3.66054 3.33059
# Velocity P-wave (km/s) = 3.96237 5.01933 4.52184
#
# Compressibility (1/GPa) = 0.12262768
#
# Stress axis : x y z
#
# Youngs Moduli (GPa) = 29.24573 45.80745 40.22477
#
# Poissons Ratio (x) = -0.21033 -0.58719
# Poissons Ratio (y) = -0.13428 -0.06769
# Poissons Ratio (z) = -0.42692 -0.07708
#
# Static dielectric constant tensor:
#      x y z
#    x 1.727790 0.000000 0.022150 
#    y 0.000000 1.729600 0.000000 
#    z 0.022150 0.000000 1.774810 
# 
# From -- ./inp_files/65962.got.cif
#   From: 2010.05.17/outbox.cif.g08.bks.cpg/sg15_33_cif.got.tgz:65962.got - 2010.06.03 18:47:42.
