data_PCOD9272901
_publ_section_title
;
Structure prediction by ZEFSAII (Michael W. Deem and Ramdas Pophale) SiO2 
 PCOD9272901
Probable space group: C 2/C
;
_chemical_formula_sum "Si O2"
_cell_formula_units_Z 52
_cell_length_a 26.196290
_cell_length_b 11.540828
_cell_length_c 18.667082
_cell_angle_alpha 90.000000
_cell_angle_beta 30.366629
_cell_angle_gamma 90.000000
_cell_volume 2852.996649
_symmetry_space_group_name_H-M "C 2/C"
_symmetry_group_IT_number 15
_symmetry_cell_setting 'monoclinic'
loop_
_space_group_symop_operation_xyz
x,y,z
-x,y,1/2-z
-x,-y,-z
x,-y,1/2+z
1/2+x,1/2+y,z
1/2-x,1/2+y,1/2-z
1/2-x,1/2-y,-z
1/2+x,1/2-y,1/2+z
loop_
_atom_site_type_symbol
_atom_site_label
_atom_site_fract_x
_atom_site_fract_y
_atom_site_fract_z
Si Si1 0.674594 0.408826 0.636012
Si Si2 0.686774 0.946180 0.430654
Si Si3 0.000000 0.490429 0.250000
Si Si4 0.120102 0.500033 0.351392
Si Si5 0.707167 0.210947 0.158438
Si Si6 0.897299 0.145991 0.832225
Si Si7 0.639629 0.850106 0.190710
O O1 0.741795 0.456045 0.620499
O O2 0.604841 0.516457 0.697940
O O3 0.621270 0.287288 0.715806
O O4 0.754884 0.379231 0.476277
O O5 0.744717 0.824721 0.364505
O O6 0.587776 0.940616 0.601866
O O7 0.659999 0.976721 0.382314
O O8 0.055032 0.413163 0.244372
O O9 0.161844 0.619806 0.268295
O O10 0.146608 0.402444 0.261101
O O11 0.000000 0.500000 0.500000
O O12 0.623314 0.258642 0.204315
O O13 0.797856 0.154033 0.002738
O O14 0.000000 0.166337 0.750000
#
# Coordination Sequence:
#
# PCOD9272901 Si02
#       7
#     8   8   4   8   8   8   8
#     4   9  20  40  58  89 121 162 196 257 306 366
#     4  10  23  39  64  85 127 159 206 259 313 358
#     4  10  20  38  62  96 108 166 210 252 302 376
#     4  12  24  40  61  94 123 167 208 253 312 379
#     4  10  24  41  59  96 125 160 212 258 308 374
#     4  10  21  38  68  91 123 160 210 264 308 361
#     4  10  20  37  61  87 126 152 207 247 304 368
#
# _framework density 18.22645
#
# number of rings (size 3 to 8) (size 9 to 14) (size 15 to 20)
#    0.000    1.846    3.077    0.000    8.615    0.000 
#    0.000    1.538    0.000    3.692    0.000    0.000 
#    0.000    0.000    0.000    0.000    0.000    0.000 
#
# Total GULP energy -145182.233289 kJ/mol
# GULP energy per Si atom -5583.932050 kJ/mol
# Density = 1.818497 g / cm^3
# Si number density = 18.226450 Si / 1000 Ang^3
#
#
#
# Elastic Constant Matrix: (Units=GPa)
#
#
# Indices 1 2 3 4 5 6 
#
# 1 163.7295 68.8781 57.5952 0.0000 10.0825 0.0000
# 2 68.8781 123.7329 48.6063 0.0000 6.2718 0.0000
# 3 57.5952 48.6063 62.2780 0.0000 7.7999 0.0000
# 4 0.0000 0.0000 0.0000 22.2874 0.0000 4.7753
# 5 10.0825 6.2718 7.7999 0.0000 33.2785 0.0000
# 6 0.0000 0.0000 0.0000 4.7753 0.0000 13.7946
#
#
#
# Elastic Compliance Matrix: (Units=1/GPa)
#
#
# Indices 1 2 3 4 5 6 
#
# 1 0.009657 -0.002691 -0.006725 0.000000 -0.000842 0.000000
# 2 -0.002691 0.012406 -0.007214 0.000000 0.000168 0.000000
# 3 -0.006725 -0.007214 0.028313 0.000000 -0.003239 0.000000
# 4 0.000000 0.000000 0.000000 0.048463 0.000000 -0.016776
# 5 -0.000842 0.000168 -0.003239 0.000000 0.031032 0.000000
# 6 0.000000 0.000000 0.000000 -0.016776 0.000000 0.078300
#
#
# Mechanical properties :
#
#
# Convention : Reuss Voigt Hill
#
# Bulk Modulus (GPa) = 58.43162 77.76661 68.09912
# Shear Modulus (GPa) = 20.23169 25.51616 22.87392
#
# Velocity S-wave (km/s) = 3.33531 3.74565 3.54642
# Velocity P-wave (km/s) = 6.85279 7.84003 7.36297
#
# Compressibility (1/GPa) = 0.01711402
#
# Stress axis : x y z
#
# Youngs Moduli (GPa) = 103.54666 80.60858 35.31973
#
# Poissons Ratio (x) = 0.21695 0.23753
# Poissons Ratio (y) = 0.27869 0.25481
# Poissons Ratio (z) = 0.69637 0.58153
#
# Static dielectric constant tensor:
#      x y z
#    x 1.607210 0.000000 -0.019670 
#    y 0.000000 1.640060 0.000000 
#    z -0.019670 0.000000 1.565770 
# 
# From -- ./inp_files/167354.got.cif
#   From: 2010.05.17/outbox.cif.g08.bks.cpg/sg15_84_cif.got.tgz:167354.got - 2010.06.03 18:47:42.
