data_PCOD9272743
_publ_section_title
;
Structure prediction by ZEFSAII (Michael W. Deem and Ramdas Pophale) SiO2 
 PCOD9272743
Probable space group: C 2/C
;
_chemical_formula_sum "Si O2"
_cell_formula_units_Z 44
_cell_length_a 22.903486
_cell_length_b 21.314564
_cell_length_c 9.690875
_cell_angle_alpha 90.000000
_cell_angle_beta 156.584670
_cell_angle_gamma 90.000000
_cell_volume 1880.016741
_symmetry_space_group_name_H-M "C 2/C"
_symmetry_group_IT_number 15
_symmetry_cell_setting 'monoclinic'
loop_
_space_group_symop_operation_xyz
x,y,z
-x,y,1/2-z
-x,-y,-z
x,-y,1/2+z
1/2+x,1/2+y,z
1/2-x,1/2+y,1/2-z
1/2-x,1/2-y,-z
1/2+x,1/2-y,1/2+z
loop_
_atom_site_type_symbol
_atom_site_label
_atom_site_fract_x
_atom_site_fract_y
_atom_site_fract_z
Si Si1 0.789969 0.497279 0.783245
Si Si2 0.500000 0.879181 0.250000
Si Si3 0.408337 0.781999 0.811141
Si Si4 0.382642 0.466262 0.842983
Si Si5 0.015363 0.147686 0.068287
Si Si6 0.255882 0.877859 0.326271
O O1 0.645602 0.488217 0.564704
O O2 0.762191 0.518123 0.565720
O O3 0.844930 0.559202 0.983496
O O4 0.869056 0.430640 0.971417
O O5 0.532908 0.831908 0.448265
O O6 0.250000 0.750000 0.500000
O O7 0.371065 0.822576 0.597032
O O8 0.509436 0.721080 0.023903
O O9 0.429062 0.394076 0.936791
O O10 0.500000 0.500000 0.000000
O O11 0.138368 0.135196 0.451325
O O12 0.856535 0.123061 0.783998
#
# Coordination Sequence:
#
# PCOD9272743 Si02
#       6
#     8   4   8   8   8   8
#     4  11  24  39  64  96 132 168 215 277 334 384
#     4  12  26  40  62  96 132 170 222 270 328 408
#     4  10  20  37  60  85 122 172 219 252 319 393
#     4  11  21  40  65  99 129 165 222 273 329 386
#     4   9  18  34  61  89 118 161 216 265 309 389
#     4   9  17  34  57  86 121 160 205 259 323 372
#
# _framework density 23.404048
#
# number of rings (size 3 to 8) (size 9 to 14) (size 15 to 20)
#    0.000    1.818    1.818    3.818    2.545    2.909 
#    0.000    0.909    0.000    8.727    0.000    0.000 
#    0.000    0.000    0.000    0.000    0.000    0.000 
#
# Total GULP energy -122600.889395 kJ/mol
# GULP energy per Si atom -5572.767700 kJ/mol
# Density = 2.335078 g / cm^3
# Si number density = 23.404048 Si / 1000 Ang^3
#
#
#
# Elastic Constant Matrix: (Units=GPa)
#
#
# Indices 1 2 3 4 5 6 
#
# 1 59.9525 25.6882 23.1947 0.0000 -14.5307 0.0000
# 2 25.6882 217.2638 40.4107 0.0000 -7.2879 0.0000
# 3 23.1947 40.4107 63.5635 0.0000 -6.2747 0.0000
# 4 0.0000 0.0000 0.0000 38.5827 0.0000 -0.8599
# 5 -14.5307 -7.2879 -6.2747 0.0000 24.5078 0.0000
# 6 0.0000 0.0000 0.0000 -0.8599 0.0000 22.3638
#
#
#
# Elastic Compliance Matrix: (Units=1/GPa)
#
#
# Indices 1 2 3 4 5 6 
#
# 1 0.022337 -0.001081 -0.006348 0.000000 0.011297 0.000000
# 2 -0.001081 0.005285 -0.002948 0.000000 0.000176 0.000000
# 3 -0.006348 -0.002948 0.019970 0.000000 0.000472 0.000000
# 4 0.000000 0.000000 0.000000 0.025941 0.000000 0.000997
# 5 0.011297 0.000176 0.000472 0.000000 0.047674 0.000000
# 6 0.000000 0.000000 0.000000 0.000997 0.000000 0.044753
#
#
# Mechanical properties :
#
#
# Convention : Reuss Voigt Hill
#
# Bulk Modulus (GPa) = 37.26269 57.70745 47.48507
# Shear Modulus (GPa) = 25.55444 33.85662 29.70553
#
# Velocity S-wave (km/s) = 3.30795 3.80756 3.56652
# Velocity P-wave (km/s) = 5.52685 6.63631 6.10683
#
# Compressibility (1/GPa) = 0.02683650
#
# Stress axis : x y z
#
# Youngs Moduli (GPa) = 44.76811 189.22397 50.07607
#
# Poissons Ratio (x) = 0.20461 0.31790
# Poissons Ratio (y) = 0.04841 0.14762
# Poissons Ratio (z) = 0.28421 0.55781
#
# Static dielectric constant tensor:
#      x y z
#    x 1.759510 0.000000 -0.209670 
#    y 0.000000 1.938610 0.000000 
#    z -0.209670 0.000000 1.413300 
# 
# From -- ./inp_files/127437.got.cif
#   From: 2010.05.17/outbox.cif.g08.bks.cpg/sg15_64_cif.got.tgz:127437.got - 2010.06.03 18:47:42.
