data_PCOD9272735
_publ_section_title
;
Structure prediction by ZEFSAII (Michael W. Deem and Ramdas Pophale) SiO2 
 PCOD9272735
Probable space group: C 2/C
;
_chemical_formula_sum "Si O2"
_cell_formula_units_Z 48
_cell_length_a 14.568069
_cell_length_b 23.293811
_cell_length_c 12.550143
_cell_angle_alpha 90.000000
_cell_angle_beta 143.989926
_cell_angle_gamma 90.000000
_cell_volume 2503.888453
_symmetry_space_group_name_H-M "C 2/C"
_symmetry_group_IT_number 15
_symmetry_cell_setting 'monoclinic'
loop_
_space_group_symop_operation_xyz
x,y,z
-x,y,1/2-z
-x,-y,-z
x,-y,1/2+z
1/2+x,1/2+y,z
1/2-x,1/2+y,1/2-z
1/2-x,1/2-y,-z
1/2+x,1/2-y,1/2+z
loop_
_atom_site_type_symbol
_atom_site_label
_atom_site_fract_x
_atom_site_fract_y
_atom_site_fract_z
Si Si1 0.610468 0.321156 0.193631
Si Si2 0.771192 0.567902 0.943251
Si Si3 0.619598 0.466624 0.689641
Si Si4 0.115742 0.416062 0.710995
Si Si5 0.266977 0.701593 0.330145
Si Si6 0.476458 0.338326 0.849784
O O1 0.679528 0.376186 0.316358
O O2 0.702508 0.262886 0.302486
O O3 0.425052 0.314595 0.042959
O O4 0.611586 0.328279 0.065069
O O5 0.671126 0.511663 0.826560
O O6 0.817540 0.571056 0.109467
O O7 0.936098 0.566567 0.035601
O O8 0.500000 0.500000 0.500000
O O9 0.772266 0.447609 0.766565
O O10 0.553906 0.406673 0.671539
O O11 0.137430 0.347456 0.719604
O O12 0.332407 0.695737 0.270318
O O13 0.500000 0.321561 0.750000
#
# Coordination Sequence:
#
# PCOD9272735 Si02
#       6
#     8   8   8   8   8   8
#     4  10  20  37  60  85 115 158 193 250 299 344
#     4  11  22  37  62  85 120 159 198 243 298 356
#     4  11  21  38  58  86 120 158 191 253 289 354
#     4  10  23  39  56  90 118 157 200 241 298 357
#     4   9  20  38  58  83 121 151 199 248 297 348
#     4   9  21  37  57  89 115 153 201 236 298 351
#
# _framework density 19.170182
#
# number of rings (size 3 to 8) (size 9 to 14) (size 15 to 20)
#    1.000    1.000    1.667    1.500    2.333    3.333 
#    0.000    0.000    0.000    0.000    0.000    0.000 
#    0.000    0.000    0.000    0.000    0.000    0.000 
#
# Total GULP energy -133825.460273 kJ/mol
# GULP energy per Si atom -5576.060845 kJ/mol
# Density = 1.912655 g / cm^3
# Si number density = 19.170182 Si / 1000 Ang^3
#
#
#
# Elastic Constant Matrix: (Units=GPa)
#
#
# Indices 1 2 3 4 5 6 
#
# 1 22.6324 -8.4785 -7.1402 0.0000 -0.1658 0.0000
# 2 -8.4785 86.7147 8.3530 0.0000 8.8188 0.0000
# 3 -7.1402 8.3530 60.5136 0.0000 5.9277 0.0000
# 4 0.0000 0.0000 0.0000 31.7499 0.0000 13.3755
# 5 -0.1658 8.8188 5.9277 0.0000 20.7121 0.0000
# 6 0.0000 0.0000 0.0000 13.3755 0.0000 4.7268
#
#
#
# Elastic Compliance Matrix: (Units=1/GPa)
#
#
# Indices 1 2 3 4 5 6 
#
# 1 0.047494 0.004442 0.005287 0.000000 -0.003024 0.000000
# 2 0.004442 0.012554 -0.000709 0.000000 -0.005107 0.000000
# 3 0.005287 -0.000709 0.017710 0.000000 -0.004724 0.000000
# 4 0.000000 0.000000 0.000000 -0.163953 0.000000 0.463943
# 5 -0.003024 -0.005107 -0.004724 0.000000 0.051783 0.000000
# 6 0.000000 0.000000 0.000000 0.463943 0.000000 -1.101273
#
#
# Mechanical properties :
#
#
# Convention : Reuss Voigt Hill
#
# Bulk Modulus (GPa) = 10.43849 17.25882 13.84866
# Shear Modulus (GPa) = -4.45715 23.24618 9.39452
#
# Velocity S-wave (km/s) = -1.52646 3.48605 2.21613
# Velocity P-wave (km/s) = 1.53304 5.02254 3.71323
#
# Compressibility (1/GPa) = 0.09579926
#
# Stress axis : x y z
#
# Youngs Moduli (GPa) = 21.05510 79.65587 56.46648
#
# Poissons Ratio (x) = -0.35383 -0.29854
# Poissons Ratio (y) = -0.09353 0.04001
# Poissons Ratio (z) = -0.11132 0.05644
#
# Static dielectric constant tensor:
#      x y z
#    x 1.693250 0.000000 -0.006490 
#    y 0.000000 1.633800 0.000000 
#    z -0.006490 0.000000 1.659320 
# 
# From -- ./inp_files/100061.got.cif
#   From: 2010.05.17/outbox.cif.g08.bks.cpg/sg15_51_cif.got.tgz:100061.got - 2010.06.03 18:47:42.
