data_PCOD9272914
_publ_section_title
;
Structure prediction by ZEFSAII (Michael W. Deem and Ramdas Pophale) SiO2 
 PCOD9272914
Probable space group: C 2/C
;
_chemical_formula_sum "Si O2"
_cell_formula_units_Z 56
_cell_length_a 14.698987
_cell_length_b 8.363984
_cell_length_c 22.493599
_cell_angle_alpha 90.000000
_cell_angle_beta 71.104232
_cell_angle_gamma 90.000000
_cell_volume 2616.380181
_symmetry_space_group_name_H-M "C 2/C"
_symmetry_group_IT_number 15
_symmetry_cell_setting 'monoclinic'
loop_
_space_group_symop_operation_xyz
x,y,z
-x,y,1/2-z
-x,-y,-z
x,-y,1/2+z
1/2+x,1/2+y,z
1/2-x,1/2+y,1/2-z
1/2-x,1/2-y,-z
1/2+x,1/2-y,1/2+z
loop_
_atom_site_type_symbol
_atom_site_label
_atom_site_fract_x
_atom_site_fract_y
_atom_site_fract_z
Si Si1 0.257564 0.836396 0.406163
Si Si2 0.326106 0.265810 0.673368
Si Si3 0.482703 0.782580 0.872987
Si Si4 0.971881 0.661074 0.882492
Si Si5 0.545283 0.680773 0.990209
Si Si6 0.677278 0.359496 0.297904
Si Si7 0.230412 0.717638 0.074061
O O1 0.365532 0.772121 0.391240
O O2 0.161905 0.804563 0.465279
O O3 0.224715 0.785584 0.347280
O O4 0.269752 0.026590 0.415352
O O5 0.433797 0.224450 0.670166
O O6 0.319720 0.454139 0.686886
O O7 0.244121 0.180293 0.728670
O O8 0.304945 0.224567 0.608501
O O9 0.509461 0.748736 0.935557
O O10 0.568573 0.706063 0.816579
O O11 0.375227 0.717256 0.886729
O O12 0.476134 0.972892 0.868955
O O13 0.987426 0.715237 0.947258
O O14 0.500000 0.500000 0.000000
O O15 0.250000 0.750000 0.000000
#
# Coordination Sequence:
#
# PCOD9272914 Si02
#       7
#     8   8   8   8   8   8   8
#     4   9  21  37  58  84 120 157 195 245 295 354
#     4  11  23  40  63  85 119 158 197 247 295 358
#     4  10  21  37  58  84 118 152 196 250 292 352
#     4  11  21  36  58  87 114 157 200 244 301 349
#     4  11  20  36  58  86 122 159 197 244 299 356
#     4  10  22  43  60  85 116 156 201 243 300 355
#     4  10  20  37  61  89 117 153 197 244 300 352
#
# _framework density 21.403616
#
# number of rings (size 3 to 8) (size 9 to 14) (size 15 to 20)
#    0.000    1.714    0.000    6.000    0.000    2.286 
#    0.000   15.714    0.000    0.000    0.000    0.000 
#    0.000    0.000    0.000    0.000    0.000    0.000 
#
# Total GULP energy -156104.375861 kJ/mol
# GULP energy per Si atom -5575.156281 kJ/mol
# Density = 2.135490 g / cm^3
# Si number density = 21.403616 Si / 1000 Ang^3
#
#
#
# Elastic Constant Matrix: (Units=GPa)
#
#
# Indices 1 2 3 4 5 6 
#
# 1 161.9637 22.7020 55.0334 0.0000 -48.8277 0.0000
# 2 22.7020 29.1543 12.4124 0.0000 -6.6509 0.0000
# 3 55.0334 12.4124 96.5191 0.0000 -26.9155 0.0000
# 4 0.0000 0.0000 0.0000 29.0547 0.0000 -6.5576
# 5 -48.8277 -6.6509 -26.9155 0.0000 34.9874 0.0000
# 6 0.0000 0.0000 0.0000 -6.5576 0.0000 26.7655
#
#
#
# Elastic Compliance Matrix: (Units=1/GPa)
#
#
# Indices 1 2 3 4 5 6 
#
# 1 0.011803 -0.005096 -0.002229 0.000000 0.013788 0.000000
# 2 -0.005096 0.038981 -0.002577 0.000000 -0.001684 0.000000
# 3 -0.002229 -0.002577 0.013952 0.000000 0.007132 0.000000
# 4 0.000000 0.000000 0.000000 0.036432 0.000000 0.008926
# 5 0.013788 -0.001684 0.007132 0.000000 0.052990 0.000000
# 6 0.000000 0.000000 0.000000 0.008926 0.000000 0.039548
#
#
# Mechanical properties :
#
#
# Convention : Reuss Voigt Hill
#
# Bulk Modulus (GPa) = 22.25626 51.99254 37.12440
# Shear Modulus (GPa) = 21.88287 31.32746 26.60517
#
# Velocity S-wave (km/s) = 3.20095 3.82992 3.52948
# Velocity P-wave (km/s) = 4.90738 6.62585 5.83028
#
# Compressibility (1/GPa) = 0.04493117
#
# Stress axis : x y z
#
# Youngs Moduli (GPa) = 84.72619 25.65325 71.67396
#
# Poissons Ratio (x) = 0.13073 0.15979
# Poissons Ratio (y) = 0.43177 0.18471
# Poissons Ratio (z) = 0.18889 0.06611
#
# Static dielectric constant tensor:
#      x y z
#    x 1.830820 0.000000 -0.023850 
#    y 0.000000 1.754690 0.000000 
#    z -0.023850 0.000000 1.773580 
# 
# From -- ./inp_files/273028.got.cif
#   From: 2010.05.17/outbox.cif.g08.bks.cpg/sg15_137_cif.got.tgz:273028.got - 2010.06.03 18:47:42.
