data_PCOD9272726
_publ_section_title
;
Structure prediction by ZEFSAII (Michael W. Deem and Ramdas Pophale) SiO2 
 PCOD9272726
Probable space group: C 2/C
;
_chemical_formula_sum "Si O2"
_cell_formula_units_Z 40
_cell_length_a 10.886863
_cell_length_b 8.076641
_cell_length_c 24.142207
_cell_angle_alpha 90.000000
_cell_angle_beta 134.336487
_cell_angle_gamma 90.000000
_cell_volume 1518.333073
_symmetry_space_group_name_H-M "C 2/C"
_symmetry_group_IT_number 15
_symmetry_cell_setting 'monoclinic'
loop_
_space_group_symop_operation_xyz
x,y,z
-x,y,1/2-z
-x,-y,-z
x,-y,1/2+z
1/2+x,1/2+y,z
1/2-x,1/2+y,1/2-z
1/2-x,1/2-y,-z
1/2+x,1/2-y,1/2+z
loop_
_atom_site_type_symbol
_atom_site_label
_atom_site_fract_x
_atom_site_fract_y
_atom_site_fract_z
Si Si1 0.796257 0.644621 0.686402
Si Si2 0.025306 0.759180 0.471707
Si Si3 0.803731 0.016039 0.687325
Si Si4 0.091873 0.181432 0.120552
Si Si5 0.773679 0.002601 0.046269
O O1 0.673299 0.685062 0.593891
O O2 0.700353 0.477797 0.675425
O O3 0.000000 0.610719 0.750000
O O4 0.786381 0.832396 0.707251
O O5 0.096412 0.806588 0.554587
O O6 0.115095 0.867517 0.452487
O O7 0.081028 0.569113 0.474169
O O8 0.676865 0.153071 0.671055
O O9 0.780142 0.007785 0.613920
O O10 0.000000 0.074630 0.750000
O O11 0.890841 0.162067 0.070258
#
# Coordination Sequence:
#
# PCOD9272726 Si02
#       5
#     8   8   8   8   8
#     4  10  20  37  60  84 122 161 198 249 311 367
#     4   9  19  38  63  89 123 159 203 265 301 367
#     4  10  22  40  56  87 131 158 204 264 302 368
#     4  10  20  40  64  88 120 164 209 250 314 370
#     4   9  18  36  61  87 120 157 204 252 307 359
#
# _framework density 26.344681999999999
#
# number of rings (size 3 to 8) (size 9 to 14) (size 15 to 20)
#    0.000    2.400    0.000    3.000    0.000    3.200 
#   14.400   17.000    8.800    0.000    0.000    0.000 
#    0.000    0.000    0.000    0.000    0.000    0.000 
#
# Total GULP energy -111374.360839 kJ/mol
# GULP energy per Si atom -5568.718042 kJ/mol
# Density = 2.628472 g / cm^3
# Si number density = 26.344682 Si / 1000 Ang^3
#
#
#
# Elastic Constant Matrix: (Units=GPa)
#
#
# Indices 1 2 3 4 5 6 
#
# 1 114.6179 90.1272 41.4455 0.0000 4.7265 0.0000
# 2 90.1272 122.4977 60.4728 0.0000 35.7989 0.0000
# 3 41.4455 60.4728 118.0278 0.0000 39.8177 0.0000
# 4 0.0000 0.0000 0.0000 45.4152 0.0000 31.3806
# 5 4.7265 35.7989 39.8177 0.0000 47.0127 0.0000
# 6 0.0000 0.0000 0.0000 31.3806 0.0000 33.5756
#
#
#
# Elastic Compliance Matrix: (Units=1/GPa)
#
#
# Indices 1 2 3 4 5 6 
#
# 1 0.029259 -0.025338 -0.003932 0.000000 0.019683 0.000000
# 2 -0.025338 0.033784 -0.000830 0.000000 -0.022475 0.000000
# 3 -0.003932 -0.000830 0.013905 0.000000 -0.010750 0.000000
# 4 0.000000 0.000000 0.000000 0.062165 0.000000 -0.058101
# 5 0.019683 -0.022475 -0.010750 0.000000 0.045511 0.000000
# 6 0.000000 0.000000 0.000000 -0.058101 0.000000 0.084087
#
#
# Mechanical properties :
#
#
# Convention : Reuss Voigt Hill
#
# Bulk Modulus (GPa) = 59.71114 82.13716 70.92415
# Shear Modulus (GPa) = 14.94797 36.07390 25.51093
#
# Velocity S-wave (km/s) = 2.38460 3.70443 3.11521
# Velocity P-wave (km/s) = 5.50421 7.03865 6.31818
#
# Compressibility (1/GPa) = 0.01674729
#
# Stress axis : x y z
#
# Youngs Moduli (GPa) = 34.17748 29.60005 71.91623
#
# Poissons Ratio (x) = 0.75001 0.28280
# Poissons Ratio (y) = 0.86600 0.05967
# Poissons Ratio (z) = 0.13440 0.02456
#
# Static dielectric constant tensor:
#      x y z
#    x 2.055800 0.000000 0.070320 
#    y 0.000000 2.211800 0.000000 
#    z 0.070320 0.000000 2.156610 
# 
# From -- ./inp_files/267884.got.cif
#   From: 2010.05.17/outbox.cif.g08.bks.cpg/sg15_134_cif.got.tgz:267884.got - 2010.06.03 18:47:42.
