data_PCOD9272266
_publ_section_title
;
Structure prediction by ZEFSAII (Michael W. Deem and Ramdas Pophale) SiO2 
 PCOD9272266
Probable space group: C 2/C
;
_chemical_formula_sum "Si O2"
_cell_formula_units_Z 36
_cell_length_a 12.188723
_cell_length_b 16.126753
_cell_length_c 7.860948
_cell_angle_alpha 90.000000
_cell_angle_beta 111.778600
_cell_angle_gamma 90.000000
_cell_volume 1434.895216
_symmetry_space_group_name_H-M "C 2/C"
_symmetry_group_IT_number 15
_symmetry_cell_setting 'monoclinic'
loop_
_space_group_symop_operation_xyz
x,y,z
-x,y,1/2-z
-x,-y,-z
x,-y,1/2+z
1/2+x,1/2+y,z
1/2-x,1/2+y,1/2-z
1/2-x,1/2-y,-z
1/2+x,1/2-y,1/2+z
loop_
_atom_site_type_symbol
_atom_site_label
_atom_site_fract_x
_atom_site_fract_y
_atom_site_fract_z
Si Si1 0.500000 0.645852 0.750000
Si Si2 0.498823 0.095840 0.452928
Si Si3 0.642591 0.244147 0.574661
Si Si4 0.739754 0.375597 0.858545
Si Si5 0.868447 0.984592 0.996300
O O1 0.469299 0.707159 0.575779
O O2 0.608938 0.581062 0.835946
O O3 0.500000 0.104525 0.250000
O O4 0.606948 0.149827 0.581796
O O5 0.378243 0.133054 0.456232
O O6 0.500000 0.000000 0.500000
O O7 0.750000 0.250000 0.500000
O O8 0.679103 0.290919 0.766679
O O9 0.714933 0.436351 0.681718
O O10 0.681625 0.427967 0.974245
O O11 0.000000 0.000000 0.000000
#
# Coordination Sequence:
#
# PCOD9272266 Si02
#       5
#     4   8   8   8   8
#     4  10  20  36  66  96 128 184 236 288 356 432
#     4  12  25  46  71 105 149 190 245 303 373 443
#     4  11  22  42  69  99 142 193 244 293 368 448
#     4  11  23  40  72 107 139 195 244 300 371 444
#     4  11  21  39  67 108 143 182 245 305 368 440
#
# _framework density 25.088940999999998
#
# number of rings (size 3 to 8) (size 9 to 14) (size 15 to 20)
#    0.000    0.889    5.556    1.333    3.111    0.000 
#    0.000    4.444    0.000   16.000    0.000    0.000 
#    0.000    0.000    0.000    0.000    0.000    0.000 
#
# Total GULP energy -100752.844961 kJ/mol
# GULP energy per Si atom -5597.380276 kJ/mol
# Density = 2.503184 g / cm^3
# Si number density = 25.088941 Si / 1000 Ang^3
#
#
#
# Elastic Constant Matrix: (Units=GPa)
#
#
# Indices 1 2 3 4 5 6 
#
# 1 135.7109 56.5466 22.0697 0.0000 1.9353 0.0000
# 2 56.5466 173.8262 15.6246 0.0000 2.2049 0.0000
# 3 22.0697 15.6246 46.2175 0.0000 -2.5854 0.0000
# 4 0.0000 0.0000 0.0000 26.4489 0.0000 -5.6761
# 5 1.9353 2.2049 -2.5854 0.0000 27.7258 0.0000
# 6 0.0000 0.0000 0.0000 -5.6761 0.0000 39.1012
#
#
#
# Elastic Compliance Matrix: (Units=1/GPa)
#
#
# Indices 1 2 3 4 5 6 
#
# 1 0.009034 -0.002617 -0.003471 0.000000 -0.000746 0.000000
# 2 -0.002617 0.006704 -0.001041 0.000000 -0.000448 0.000000
# 3 -0.003471 -0.001041 0.023789 0.000000 0.002543 0.000000
# 4 0.000000 0.000000 0.000000 0.039025 0.000000 0.005665
# 5 -0.000746 -0.000448 0.002543 0.000000 0.036392 0.000000
# 6 0.000000 0.000000 0.000000 0.005665 0.000000 0.026397
#
#
# Mechanical properties :
#
#
# Convention : Reuss Voigt Hill
#
# Bulk Modulus (GPa) = 39.57743 60.47071 50.02407
# Shear Modulus (GPa) = 30.48366 36.08942 33.28654
#
# Velocity S-wave (km/s) = 3.48950 3.79682 3.64640
# Velocity P-wave (km/s) = 5.66079 6.58604 6.14087
#
# Compressibility (1/GPa) = 0.02526693
#
# Stress axis : x y z
#
# Youngs Moduli (GPa) = 110.68915 149.17282 42.03701
#
# Poissons Ratio (x) = 0.39045 0.14591
# Poissons Ratio (y) = 0.28972 0.04378
# Poissons Ratio (z) = 0.38419 0.15535
#
# Static dielectric constant tensor:
#      x y z
#    x 1.995740 0.000000 -0.020120 
#    y 0.000000 2.024540 0.000000 
#    z -0.020120 0.000000 2.086460 
# 
# From -- ./inp_files/29412.got.cif
#   From: 2010.05.17/outbox.cif.g08.bks.cpg/sg15_15_cif.got.tgz:29412.got - 2010.06.03 18:47:42.
