data_PCOD9272839
_publ_section_title
;
Structure prediction by ZEFSAII (Michael W. Deem and Ramdas Pophale) SiO2 
 PCOD9272839
Probable space group: C 2/C
;
_chemical_formula_sum "Si O2"
_cell_formula_units_Z 60
_cell_length_a 24.034148
_cell_length_b 9.225136
_cell_length_c 13.537288
_cell_angle_alpha 90.000000
_cell_angle_beta 115.417740
_cell_angle_gamma 90.000000
_cell_volume 2710.929854
_symmetry_space_group_name_H-M "C 2/C"
_symmetry_group_IT_number 15
_symmetry_cell_setting 'monoclinic'
loop_
_space_group_symop_operation_xyz
x,y,z
-x,y,1/2-z
-x,-y,-z
x,-y,1/2+z
1/2+x,1/2+y,z
1/2-x,1/2+y,1/2-z
1/2-x,1/2-y,-z
1/2+x,1/2-y,1/2+z
loop_
_atom_site_type_symbol
_atom_site_label
_atom_site_fract_x
_atom_site_fract_y
_atom_site_fract_z
Si Si1 0.000000 0.350433 0.750000
Si Si2 0.338019 0.504793 0.687425
Si Si3 0.852178 0.488983 0.315032
Si Si4 0.371310 0.659194 0.014419
Si Si5 0.795849 0.353654 0.454802
Si Si6 0.713741 0.441709 0.653484
Si Si7 0.928791 0.779784 0.365294
Si Si8 0.120047 0.458002 0.369622
O O1 0.985922 0.253307 0.836604
O O2 0.943856 0.456073 0.677076
O O3 0.368433 0.430074 0.614904
O O4 0.270741 0.573835 0.612984
O O5 0.324339 0.408641 0.775139
O O6 0.383209 0.627985 0.761849
O O7 0.844847 0.402823 0.409217
O O8 0.783547 0.545445 0.240857
O O9 0.898178 0.622821 0.358355
O O10 0.873175 0.399226 0.236134
O O11 0.368642 0.825584 0.047647
O O12 0.312628 0.593376 0.910000
O O13 0.426371 0.649629 0.974007
O O14 0.792357 0.183306 0.432746
O O15 0.827295 0.420672 0.574636
#
# Coordination Sequence:
#
# PCOD9272839 Si02
#       8
#     4   8   8   8   8   8   8   8
#     4  10  26  46  70  84 122 170 232 284 322 370
#     4  10  22  37  66  97 144 169 206 258 332 387
#     4  10  20  37  60  91 135 164 212 252 316 380
#     4  11  23  40  63  96 129 168 213 264 320 390
#     4  11  21  37  64 101 131 176 207 251 321 400
#     4  10  22  35  60  97 140 169 200 255 320 394
#     4  10  21  45  63  95 127 172 217 271 318 379
#     4  11  24  41  65  92 121 173 222 269 321 384
#
# _framework density 22.132628
#
# number of rings (size 3 to 8) (size 9 to 14) (size 15 to 20)
#    0.000    1.600    2.667    1.600    3.733    3.733 
#    0.000    1.333    0.000    0.000    0.000    0.000 
#    0.000    0.000    0.000    0.000    0.000    0.000 
#
# Total GULP energy -167297.012926 kJ/mol
# GULP energy per Si atom -5576.567098 kJ/mol
# Density = 2.208225 g / cm^3
# Si number density = 22.132628 Si / 1000 Ang^3
#
#
#
# Elastic Constant Matrix: (Units=GPa)
#
#
# Indices 1 2 3 4 5 6 
#
# 1 90.3869 37.6276 31.7429 0.0000 -37.5285 0.0000
# 2 37.6276 57.7089 25.4545 0.0000 -4.6659 0.0000
# 3 31.7429 25.4545 80.4451 0.0000 -36.9529 0.0000
# 4 0.0000 0.0000 0.0000 34.9840 0.0000 -17.9500
# 5 -37.5285 -4.6659 -36.9529 0.0000 50.5099 0.0000
# 6 0.0000 0.0000 0.0000 -17.9500 0.0000 31.5362
#
#
#
# Elastic Compliance Matrix: (Units=1/GPa)
#
#
# Indices 1 2 3 4 5 6 
#
# 1 0.024763 -0.016647 0.004882 0.000000 0.020432 0.000000
# 2 -0.016647 0.031946 -0.011847 0.000000 -0.018085 0.000000
# 3 0.004882 -0.011847 0.023220 0.000000 0.019521 0.000000
# 4 0.000000 0.000000 0.000000 0.040376 0.000000 0.022982
# 5 0.020432 -0.018085 0.019521 0.000000 0.047590 0.000000
# 6 0.000000 0.000000 0.000000 0.022982 0.000000 0.044790
#
#
# Mechanical properties :
#
#
# Convention : Reuss Voigt Hill
#
# Bulk Modulus (GPa) = 30.57682 46.46567 38.52125
# Shear Modulus (GPa) = 18.46309 32.32041 25.39175
#
# Velocity S-wave (km/s) = 2.89139 3.82554 3.39079
# Velocity P-wave (km/s) = 4.99921 6.36811 5.72472
#
# Compressibility (1/GPa) = 0.03270451
#
# Stress axis : x y z
#
# Youngs Moduli (GPa) = 40.38335 31.30276 43.06656
#
# Poissons Ratio (x) = 0.52111 -0.21026
# Poissons Ratio (y) = 0.67227 0.51021
# Poissons Ratio (z) = -0.19716 0.37084
#
# Static dielectric constant tensor:
#      x y z
#    x 1.853220 0.000000 -0.068090 
#    y 0.000000 1.840920 0.000000 
#    z -0.068090 0.000000 1.849840 
# 
# From -- ./inp_files/172414.got.cif
#   From: 2010.05.17/outbox.cif.g08.bks.cpg/sg15_87_cif.got.tgz:172414.got - 2010.06.03 18:47:42.
