data_PCOD9272386
_publ_section_title
;
Structure prediction by ZEFSAII (Michael W. Deem and Ramdas Pophale) SiO2 
 PCOD9272386
Probable space group: C 2/C
;
_chemical_formula_sum "Si O2"
_cell_formula_units_Z 48
_cell_length_a 16.032393
_cell_length_b 22.766798
_cell_length_c 5.164919
_cell_angle_alpha 90.000000
_cell_angle_beta 95.600186
_cell_angle_gamma 90.000000
_cell_volume 1876.229696
_symmetry_space_group_name_H-M "C 2/C"
_symmetry_group_IT_number 15
_symmetry_cell_setting 'monoclinic'
loop_
_space_group_symop_operation_xyz
x,y,z
-x,y,1/2-z
-x,-y,-z
x,-y,1/2+z
1/2+x,1/2+y,z
1/2-x,1/2+y,1/2-z
1/2-x,1/2-y,-z
1/2+x,1/2-y,1/2+z
loop_
_atom_site_type_symbol
_atom_site_label
_atom_site_fract_x
_atom_site_fract_y
_atom_site_fract_z
Si Si1 0.174106 0.274177 0.146469
Si Si2 0.317317 0.540661 0.641454
Si Si3 0.083860 0.359079 0.725317
Si Si4 0.762374 0.625965 0.536440
Si Si5 0.000000 0.958796 0.250000
Si Si6 0.000000 0.245607 0.750000
Si Si7 0.413275 0.668179 0.132185
O O1 0.215624 0.306219 0.401568
O O2 0.107398 0.222805 0.179907
O O3 0.250000 0.250000 0.000000
O O4 0.128109 0.326075 0.978107
O O5 0.309933 0.509269 0.363779
O O6 0.250925 0.589034 0.707440
O O7 0.409222 0.570179 0.704614
O O8 0.156811 0.393056 0.598866
O O9 0.041699 0.300420 0.581824
O O10 0.000000 0.396201 0.750000
O O11 0.670319 0.629295 0.381064
O O12 0.000000 0.000000 0.500000
O O13 0.064386 0.197774 0.636220
O O14 0.500000 0.638636 0.250000
#
# Coordination Sequence:
#
# PCOD9272386 Si02
#       7
#     8   8   8   8   4   4   8
#     4  12  22  37  62  91 136 175 220 266 322 395
#     4  10  24  47  71  96 132 171 226 295 346 397
#     4  10  21  39  61  89 128 175 219 258 328 398
#     4  12  26  39  65  98 127 177 229 269 337 402
#     4   8  16  39  66  90 120 164 206 266 345 396
#     4  10  20  37  54  86 134 174 210 250 317 388
#     4  12  23  38  57  92 137 178 211 265 317 400
#
# _framework density 25.583220000000001
#
# number of rings (size 3 to 8) (size 9 to 14) (size 15 to 20)
#    0.500    0.667    5.000    1.500    2.333    0.667 
#    9.000    0.000    0.000    1.000    0.000    0.000 
#    0.000    0.000    0.000    0.000    0.000    0.000 
#
# Total GULP energy -133699.369340 kJ/mol
# GULP energy per Si atom -5570.807056 kJ/mol
# Density = 2.552499 g / cm^3
# Si number density = 25.583220 Si / 1000 Ang^3
#
#
#
# Elastic Constant Matrix: (Units=GPa)
#
#
# Indices 1 2 3 4 5 6 
#
# 1 227.7115 38.6951 38.8813 0.0000 -26.6628 0.0000
# 2 38.6951 60.2865 14.1648 0.0000 -4.3530 0.0000
# 3 38.8813 14.1648 85.0112 0.0000 -14.6592 0.0000
# 4 0.0000 0.0000 0.0000 32.1199 0.0000 -25.2199
# 5 -26.6628 -4.3530 -14.6592 0.0000 45.3683 0.0000
# 6 0.0000 0.0000 0.0000 -25.2199 0.0000 32.9996
#
#
#
# Elastic Compliance Matrix: (Units=1/GPa)
#
#
# Indices 1 2 3 4 5 6 
#
# 1 0.005445 -0.002949 -0.001584 0.000000 0.002405 0.000000
# 2 -0.002949 0.018886 -0.001890 0.000000 -0.000532 0.000000
# 3 -0.001584 -0.001890 0.013355 0.000000 0.003203 0.000000
# 4 0.000000 0.000000 0.000000 0.077848 0.000000 0.059495
# 5 0.002405 -0.000532 0.003203 0.000000 0.024439 0.000000
# 6 0.000000 0.000000 0.000000 0.059495 0.000000 0.075772
#
#
# Mechanical properties :
#
#
# Convention : Reuss Voigt Hill
#
# Bulk Modulus (GPa) = 40.25785 61.83238 51.04512
# Shear Modulus (GPa) = 21.10863 40.84877 30.97870
#
# Velocity S-wave (km/s) = 2.87557 4.00021 3.48357
# Velocity P-wave (km/s) = 5.17642 6.74960 6.01467
#
# Compressibility (1/GPa) = 0.02483987
#
# Stress axis : x y z
#
# Youngs Moduli (GPa) = 183.66410 52.94973 74.87902
#
# Poissons Ratio (x) = 0.15614 0.11862
# Poissons Ratio (y) = 0.54160 0.14150
# Poissons Ratio (z) = 0.29095 0.10006
#
# Static dielectric constant tensor:
#      x y z
#    x 2.579650 0.000000 0.474380 
#    y 0.000000 2.011550 0.000000 
#    z 0.474380 0.000000 2.742960 
# 
# From -- ./inp_files/8274.got.cif
#   From: 2010.05.17/outbox.cif.g08.bks.cpg/sg15_5_cif.got.tgz:8274.got - 2010.06.03 18:47:42.
