data_PCOD9272513
_publ_section_title
;
Structure prediction by ZEFSAII (Michael W. Deem and Ramdas Pophale) SiO2 
 PCOD9272513
Probable space group: C 2/C
;
_chemical_formula_sum "Si O2"
_cell_formula_units_Z 48
_cell_length_a 12.412202
_cell_length_b 21.394757
_cell_length_c 7.255698
_cell_angle_alpha 90.000000
_cell_angle_beta 72.000612
_cell_angle_gamma 90.000000
_cell_volume 1832.496795
_symmetry_space_group_name_H-M "C 2/C"
_symmetry_group_IT_number 15
_symmetry_cell_setting 'monoclinic'
loop_
_space_group_symop_operation_xyz
x,y,z
-x,y,1/2-z
-x,-y,-z
x,-y,1/2+z
1/2+x,1/2+y,z
1/2-x,1/2+y,1/2-z
1/2-x,1/2-y,-z
1/2+x,1/2-y,1/2+z
loop_
_atom_site_type_symbol
_atom_site_label
_atom_site_fract_x
_atom_site_fract_y
_atom_site_fract_z
Si Si1 0.635792 0.991172 0.409766
Si Si2 0.590442 0.214116 0.078753
Si Si3 0.316616 0.332252 0.275639
Si Si4 0.851838 0.057654 0.996807
Si Si5 0.182666 0.609739 0.561930
Si Si6 0.500000 0.550723 0.250000
Si Si7 0.000000 0.710952 0.750000
O O1 0.720930 0.960690 0.517548
O O2 0.649789 0.939892 0.240846
O O3 0.500000 0.000000 0.500000
O O4 0.680257 0.063519 0.391203
O O5 0.500000 0.176229 0.250000
O O6 0.625360 0.267326 0.206427
O O7 0.697758 0.175256 0.951543
O O8 0.550960 0.243994 0.902973
O O9 0.378143 0.389936 0.333606
O O10 0.291350 0.352276 0.079568
O O11 0.915545 0.993408 0.912352
O O12 0.913221 0.081298 0.150785
O O13 0.089828 0.663871 0.608742
#
# Coordination Sequence:
#
# PCOD9272513 Si02
#       7
#     8   8   8   8   8   4   4
#     4  11  19  35  60  92 128 162 202 256 332 397
#     4  10  22  43  67  91 122 171 220 281 343 390
#     4   9  21  41  63  87 130 158 218 283 321 386
#     4  10  21  38  60  86 126 166 209 263 318 390
#     4  10  20  37  57  91 133 166 196 262 329 401
#     4  10  22  39  56  86 124 173 216 244 308 412
#     4  10  20  41  60  94 128 163 218 270 324 396
#
# _framework density 26.193771000000002
#
# number of rings (size 3 to 8) (size 9 to 14) (size 15 to 20)
#    0.000    2.000    1.667    2.000    1.167    0.667 
#   12.000    7.500    0.000    0.000    0.000    0.000 
#    0.000    0.000    0.000    0.000    0.000    0.000 
#
# Total GULP energy -133698.122762 kJ/mol
# GULP energy per Si atom -5570.755115 kJ/mol
# Density = 2.613415 g / cm^3
# Si number density = 26.193771 Si / 1000 Ang^3
#
#
#
# Elastic Constant Matrix: (Units=GPa)
#
#
# Indices 1 2 3 4 5 6 
#
# 1 160.2002 7.8259 39.7690 0.0000 21.3318 0.0000
# 2 7.8259 65.9451 -11.1255 0.0000 6.4479 0.0000
# 3 39.7690 -11.1255 69.1899 0.0000 6.3907 0.0000
# 4 0.0000 0.0000 0.0000 -3.5648 0.0000 115.3713
# 5 21.3318 6.4479 6.3907 0.0000 31.8235 0.0000
# 6 0.0000 0.0000 0.0000 115.3713 0.0000 -247.3658
#
#
#
# Elastic Compliance Matrix: (Units=1/GPa)
#
#
# Indices 1 2 3 4 5 6 
#
# 1 0.007952 -0.001274 -0.004388 0.000000 -0.004191 0.000000
# 2 -0.001274 0.016238 0.003636 0.000000 -0.003166 0.000000
# 3 -0.004388 0.003636 0.017684 0.000000 -0.001346 0.000000
# 4 0.000000 0.000000 0.000000 0.019903 0.000000 0.009283
# 5 -0.004191 -0.003166 -0.001346 0.000000 0.035144 0.000000
# 6 0.000000 0.000000 0.000000 0.009283 0.000000 0.000287
#
#
# Mechanical properties :
#
#
# Convention : Reuss Voigt Hill
#
# Bulk Modulus (GPa) = 26.44028 40.91934 33.67981
# Shear Modulus (GPa) = 43.91013 -26.56369 8.67322
#
# Velocity S-wave (km/s) = 4.09878 -3.18798 1.82164
# Velocity P-wave (km/s) = 5.70228 1.45076 4.16057
#
# Compressibility (1/GPa) = 0.03782109
#
# Stress axis : x y z
#
# Youngs Moduli (GPa) = 125.75645 61.58266 56.54718
#
# Poissons Ratio (x) = 0.07847 0.24815
# Poissons Ratio (y) = 0.16025 -0.20560
# Poissons Ratio (z) = 0.55187 -0.22391
#
# Static dielectric constant tensor:
#      x y z
#    x 3.735890 0.000000 -1.145540 
#    y 0.000000 1.999950 0.000000 
#    z -1.145540 0.000000 3.040930 
# 
# From -- ./inp_files/32078.got.cif
#   From: 2010.05.17/outbox.cif.g08.bks.cpg/sg15_17_cif.got.tgz:32078.got - 2010.06.03 18:47:42.
