data_PCOD9272180
_publ_section_title
;
Structure prediction by ZEFSAII (Michael W. Deem and Ramdas Pophale) SiO2 
 PCOD9272180
Probable space group: C 2/C
;
_chemical_formula_sum "Si O2"
_cell_formula_units_Z 64
_cell_length_a 16.105679
_cell_length_b 5.960754
_cell_length_c 33.260004
_cell_angle_alpha 90.000000
_cell_angle_beta 88.915185
_cell_angle_gamma 90.000000
_cell_volume 3192.454286
_symmetry_space_group_name_H-M "C 2/C"
_symmetry_group_IT_number 15
_symmetry_cell_setting 'monoclinic'
loop_
_space_group_symop_operation_xyz
x,y,z
-x,y,1/2-z
-x,-y,-z
x,-y,1/2+z
1/2+x,1/2+y,z
1/2-x,1/2+y,1/2-z
1/2-x,1/2-y,-z
1/2+x,1/2-y,1/2+z
loop_
_atom_site_type_symbol
_atom_site_label
_atom_site_fract_x
_atom_site_fract_y
_atom_site_fract_z
Si Si1 0.606770 0.068846 0.590415
Si Si2 0.327353 0.081507 0.613204
Si Si3 0.039792 0.950808 0.542949
Si Si4 0.528021 0.266793 0.383951
Si Si5 0.793807 0.791644 0.840785
Si Si6 0.712102 0.280435 0.043872
Si Si7 0.366815 0.470520 0.669427
Si Si8 0.702967 0.335885 0.748097
O O1 0.550911 0.196063 0.557866
O O2 0.645054 0.230157 0.623697
O O3 0.553000 0.887348 0.615034
O O4 0.678950 0.945977 0.565088
O O5 0.283569 0.130190 0.572021
O O6 0.371242 0.286584 0.634516
O O7 0.392606 0.884747 0.606998
O O8 0.254712 0.012424 0.644853
O O9 0.132163 0.057437 0.542609
O O10 0.987585 0.067324 0.578812
O O11 0.000000 0.000000 0.500000
O O12 0.553494 0.376809 0.341283
O O13 0.719399 0.607747 0.837084
O O14 0.833017 0.818679 0.796606
O O15 0.750000 0.250000 0.000000
O O16 0.358455 0.367094 0.713695
O O17 0.752409 0.584344 0.746913
#
# Coordination Sequence:
#
# PCOD9272180 Si02
#       8
#     8   8   8   8   8   8   8   8
#     4  11  23  44  62  92 130 175 215 267 338 401
#     4  11  20  40  63  93 124 164 213 266 320 383
#     4  11  26  43  60  87 127 174 215 264 332 400
#     4  10  25  39  65  89 127 173 211 262 328 403
#     4  10  20  37  65  98 125 168 213 273 328 394
#     4  11  26  38  64  97 124 162 218 280 325 385
#     4  10  20  38  64  99 128 163 218 264 334 390
#     4  10  20  36  65 108 137 167 219 287 339 402
#
# _framework density 20.047274000000002
#
# number of rings (size 3 to 8) (size 9 to 14) (size 15 to 20)
#    0.000    1.500    3.750    0.750    5.250    1.500 
#    0.000    0.000    0.000    4.500    0.000    0.000 
#    0.000    0.000    0.000    0.000    0.000    0.000 
#
# Total GULP energy -178404.925313 kJ/mol
# GULP energy per Si atom -5575.153916 kJ/mol
# Density = 2.000165 g / cm^3
# Si number density = 20.047274 Si / 1000 Ang^3
#
#
#
# Elastic Constant Matrix: (Units=GPa)
#
#
# Indices 1 2 3 4 5 6 
#
# 1 48.7144 14.9831 47.5304 0.0000 -22.4699 0.0000
# 2 14.9831 54.8879 13.4728 0.0000 -7.2627 0.0000
# 3 47.5304 13.4728 116.6907 0.0000 -19.4055 0.0000
# 4 0.0000 0.0000 0.0000 22.6998 0.0000 -0.7121
# 5 -22.4699 -7.2627 -19.4055 0.0000 28.8881 0.0000
# 6 0.0000 0.0000 0.0000 -0.7121 0.0000 11.9701
#
#
#
# Elastic Compliance Matrix: (Units=1/GPa)
#
#
# Indices 1 2 3 4 5 6 
#
# 1 0.049399 -0.006270 -0.014938 0.000000 0.026813 0.000000
# 2 -0.006270 0.019898 0.000312 0.000000 0.000335 0.000000
# 3 -0.014938 0.000312 0.014296 0.000000 -0.001938 0.000000
# 4 0.000000 0.000000 0.000000 0.044136 0.000000 0.002626
# 5 0.026813 0.000335 -0.001938 0.000000 0.054255 0.000000
# 6 0.000000 0.000000 0.000000 0.002626 0.000000 0.083698
#
#
# Mechanical properties :
#
#
# Convention : Reuss Voigt Hill
#
# Bulk Modulus (GPa) = 23.92277 41.36286 32.64282
# Shear Modulus (GPa) = 15.55651 22.33202 18.94427
#
# Velocity S-wave (km/s) = 2.78868 3.34124 3.07739
# Velocity P-wave (km/s) = 4.72526 5.96344 5.38009
#
# Compressibility (1/GPa) = 0.04180117
#
# Stress axis : x y z
#
# Youngs Moduli (GPa) = 20.24313 50.25563 69.94911
#
# Poissons Ratio (x) = 0.31511 1.04493
# Poissons Ratio (y) = 0.12693 -0.02185
# Poissons Ratio (z) = 0.30240 -0.01570
#
# Static dielectric constant tensor:
#      x y z
#    x 1.685560 0.000000 -0.013860 
#    y 0.000000 1.812620 0.000000 
#    z -0.013860 0.000000 1.675110 
# 
# From -- ./inp_files/315086.got.cif
#   From: 2010.05.17/outbox.cif.g08.bks.cpg/sg15_158_cif.got.tgz:315086.got - 2010.06.03 18:47:42.
