data_PCOD9272856
_publ_section_title
;
Structure prediction by ZEFSAII (Michael W. Deem and Ramdas Pophale) SiO2 
 PCOD9272856
Probable space group: C 2/C
;
_chemical_formula_sum "Si O2"
_cell_formula_units_Z 52
_cell_length_a 20.762688
_cell_length_b 20.569792
_cell_length_c 11.754791
_cell_angle_alpha 90.000000
_cell_angle_beta 28.652817
_cell_angle_gamma 90.000000
_cell_volume 2407.231803
_symmetry_space_group_name_H-M "C 2/C"
_symmetry_group_IT_number 15
_symmetry_cell_setting 'monoclinic'
loop_
_space_group_symop_operation_xyz
x,y,z
-x,y,1/2-z
-x,-y,-z
x,-y,1/2+z
1/2+x,1/2+y,z
1/2-x,1/2+y,1/2-z
1/2-x,1/2-y,-z
1/2+x,1/2-y,1/2+z
loop_
_atom_site_type_symbol
_atom_site_label
_atom_site_fract_x
_atom_site_fract_y
_atom_site_fract_z
Si Si1 0.875664 0.898022 0.058662
Si Si2 0.353585 0.542950 0.032985
Si Si3 0.000000 0.658362 0.250000
Si Si4 0.133860 0.323993 0.109584
Si Si5 0.831452 0.064612 0.326901
Si Si6 0.309325 0.216503 0.735736
Si Si7 0.262843 0.084063 0.498248
O O1 0.808595 0.837869 0.097585
O O2 0.835669 0.886354 0.253289
O O3 0.035217 0.912101 0.813561
O O4 0.810268 0.966735 0.117274
O O5 0.500000 0.543290 0.750000
O O6 0.262507 0.590475 0.097178
O O7 0.369575 0.566870 0.135660
O O8 0.909709 0.701997 0.475565
O O9 0.905443 0.611285 0.319533
O O10 0.114468 0.288194 0.260660
O O11 0.000000 0.337001 0.250000
O O12 0.207647 0.388633 0.033297
O O13 0.230657 0.283600 0.875127
O O14 0.777264 0.992223 0.432059
#
# Coordination Sequence:
#
# PCOD9272856 Si02
#       7
#     8   8   4   8   8   8   8
#     4  10  20  37  63  92 125 171 214 254 321 385
#     4  11  18  33  60  95 131 161 215 262 314 383
#     4  10  24  46  70  94 128 174 214 266 334 378
#     4  11  27  44  64  94 129 169 222 267 321 386
#     4  11  22  37  61  97 131 171 210 266 325 382
#     4  10  25  47  68  90 125 174 222 265 316 389
#     4  10  20  37  60  95 131 163 209 266 324 388
#
# _framework density 21.601576000000001
#
# number of rings (size 3 to 8) (size 9 to 14) (size 15 to 20)
#    0.000    1.538    3.077    1.846    7.538    0.000 
#    1.385    3.846    0.000    0.000    0.000    0.000 
#    0.000    0.000    0.000    0.000    0.000    0.000 
#
# Total GULP energy -144952.167050 kJ/mol
# GULP energy per Si atom -5575.083348 kJ/mol
# Density = 2.155241 g / cm^3
# Si number density = 21.601576 Si / 1000 Ang^3
#
#
#
# Elastic Constant Matrix: (Units=GPa)
#
#
# Indices 1 2 3 4 5 6 
#
# 1 136.4281 21.3839 29.5681 0.0006 -9.1534 -0.0005
# 2 21.3839 35.3596 10.2106 -0.0001 -9.6081 -0.0002
# 3 29.5681 10.2106 76.5264 -0.0001 2.3759 -0.0001
# 4 0.0006 -0.0001 -0.0001 16.0841 -0.0002 5.0156
# 5 -9.1534 -9.6081 2.3759 -0.0002 38.9514 0.0003
# 6 -0.0005 -0.0002 -0.0001 5.0156 0.0003 11.7119
#
#
#
# Elastic Compliance Matrix: (Units=1/GPa)
#
#
# Indices 1 2 3 4 5 6 
#
# 1 0.008668 -0.004096 -0.002840 0.000000 0.001200 0.000000
# 2 -0.004096 0.033718 -0.003151 0.000000 0.007547 0.000000
# 3 -0.002840 -0.003151 0.014658 0.000000 -0.002339 0.000000
# 4 0.000000 0.000000 0.000000 0.071756 0.000001 -0.030729
# 5 0.001200 0.007547 -0.002339 0.000001 0.027959 -0.000001
# 6 0.000000 0.000000 0.000000 -0.030729 -0.000001 0.098543
#
#
# Mechanical properties :
#
#
# Convention : Reuss Voigt Hill
#
# Bulk Modulus (GPa) = 27.12150 41.18215 34.15182
# Shear Modulus (GPa) = 17.37530 25.82624 21.60077
#
# Velocity S-wave (km/s) = 2.83919 3.46146 3.16565
# Velocity P-wave (km/s) = 4.83017 5.92295 5.40426
#
# Compressibility (1/GPa) = 0.03687112
#
# Stress axis : x y z
#
# Youngs Moduli (GPa) = 115.36916 29.65746 68.22399
#
# Poissons Ratio (x) = 0.12147 0.19374
# Poissons Ratio (y) = 0.47254 0.21495
# Poissons Ratio (z) = 0.32763 0.09344
#
# Static dielectric constant tensor:
#      x y z
#    x 1.866690 0.000000 0.056410 
#    y 0.000000 1.809010 0.000000 
#    z 0.056410 0.000000 1.804960 
# 
# From -- ./inp_files/114354.got.cif
#   From: 2010.05.17/outbox.cif.g08.bks.cpg/sg15_58_cif.got.tgz:114354.got - 2010.06.03 18:47:42.
