data_PCOD9272299
_publ_section_title
;
Structure prediction by ZEFSAII (Michael W. Deem and Ramdas Pophale) SiO2 
 PCOD9272299
Probable space group: C 2/C
;
_chemical_formula_sum "Si O2"
_cell_formula_units_Z 44
_cell_length_a 9.132459
_cell_length_b 19.090189
_cell_length_c 10.897943
_cell_angle_alpha 90.000000
_cell_angle_beta 80.272277
_cell_angle_gamma 90.000000
_cell_volume 1872.633570
_symmetry_space_group_name_H-M "C 2/C"
_symmetry_group_IT_number 15
_symmetry_cell_setting 'monoclinic'
loop_
_space_group_symop_operation_xyz
x,y,z
-x,y,1/2-z
-x,-y,-z
x,-y,1/2+z
1/2+x,1/2+y,z
1/2-x,1/2+y,1/2-z
1/2-x,1/2-y,-z
1/2+x,1/2-y,1/2+z
loop_
_atom_site_type_symbol
_atom_site_label
_atom_site_fract_x
_atom_site_fract_y
_atom_site_fract_z
Si Si1 0.860829 0.845988 0.850107
Si Si2 0.500000 0.592391 0.750000
Si Si3 0.089139 0.830153 0.011317
Si Si4 0.143890 0.567692 0.042318
Si Si5 0.039335 0.692307 0.388682
Si Si6 0.260607 0.005799 0.227037
O O1 0.716265 0.796958 0.875522
O O2 0.807538 0.919862 0.804429
O O3 0.000000 0.817488 0.750000
O O4 0.940505 0.858057 0.967714
O O5 0.413973 0.643638 0.850611
O O6 0.377656 0.541790 0.709771
O O7 0.062035 0.747125 0.021177
O O8 0.231217 0.872226 0.942605
O O9 0.144748 0.518561 0.162412
O O10 0.996412 0.614320 0.058956
O O11 0.175766 0.530157 0.907546
O O12 0.000000 0.695364 0.250000
#
# Coordination Sequence:
#
# PCOD9272299 Si02
#       6
#     8   4   8   8   8   8
#     4  12  23  42  69  98 135 180 231 289 342 406
#     4  10  20  36  68 102 128 178 224 284 330 418
#     4  11  22  42  69  99 133 177 237 278 343 416
#     4  11  24  43  73 102 141 184 229 292 350 420
#     4  12  24  44  67 101 141 185 225 286 354 416
#     4  11  21  41  69 102 138 176 237 282 354 404
#
# _framework density 23.496320000000001
#
# number of rings (size 3 to 8) (size 9 to 14) (size 15 to 20)
#    0.000    0.727    5.455    2.182    0.000    3.636 
#    0.000    0.000    0.000    0.000    0.000    0.000 
#    0.000    0.000    0.000    0.000    0.000    0.000 
#
# Total GULP energy -122807.903911 kJ/mol
# GULP energy per Si atom -5582.177451 kJ/mol
# Density = 2.344284 g / cm^3
# Si number density = 23.496320 Si / 1000 Ang^3
#
#
#
# Elastic Constant Matrix: (Units=GPa)
#
#
# Indices 1 2 3 4 5 6 
#
# 1 115.8451 27.2968 27.5433 0.0000 -18.3676 0.0000
# 2 27.2968 92.1074 42.1116 0.0000 -3.4022 0.0000
# 3 27.5433 42.1116 91.9626 0.0000 -4.5115 0.0000
# 4 0.0000 0.0000 0.0000 27.2709 0.0000 -8.4372
# 5 -18.3676 -3.4022 -4.5115 0.0000 22.8783 0.0000
# 6 0.0000 0.0000 0.0000 -8.4372 0.0000 22.7901
#
#
#
# Elastic Compliance Matrix: (Units=1/GPa)
#
#
# Indices 1 2 3 4 5 6 
#
# 1 0.010841 -0.002039 -0.001920 0.000000 0.008022 0.000000
# 2 -0.002039 0.014130 -0.005894 0.000000 -0.000698 0.000000
# 3 -0.001920 -0.005894 0.014166 0.000000 0.000376 0.000000
# 4 0.000000 0.000000 0.000000 0.041412 0.000000 0.015331
# 5 0.008022 -0.000698 0.000376 0.000000 0.050120 0.000000
# 6 0.000000 0.000000 0.000000 0.015331 0.000000 0.049555
#
#
# Mechanical properties :
#
#
# Convention : Reuss Voigt Hill
#
# Bulk Modulus (GPa) = 51.46101 54.86871 53.16486
# Shear Modulus (GPa) = 24.22397 28.11875 26.17136
#
# Velocity S-wave (km/s) = 3.21435 3.46313 3.34106
# Velocity P-wave (km/s) = 5.97707 6.27645 6.12859
#
# Compressibility (1/GPa) = 0.01943219
#
# Stress axis : x y z
#
# Youngs Moduli (GPa) = 92.24292 70.77087 70.58941
#
# Poissons Ratio (x) = 0.14429 0.13552
# Poissons Ratio (y) = 0.18806 0.41606
# Poissons Ratio (z) = 0.17709 0.41713
#
# Static dielectric constant tensor:
#      x y z
#    x 1.982640 0.000000 -0.037010 
#    y 0.000000 1.886460 0.000000 
#    z -0.037010 0.000000 2.023050 
# 
# From -- ./inp_files/78197.got.cif
#   From: 2010.05.17/outbox.cif.g08.bks.cpg/sg15_40_cif.got.tgz:78197.got - 2010.06.03 18:47:42.
