data_PCOD9272592
_publ_section_title
;
Structure prediction by ZEFSAII (Michael W. Deem and Ramdas Pophale) SiO2 
 PCOD9272592
Probable space group: C 2/C
;
_chemical_formula_sum "Si O2"
_cell_formula_units_Z 48
_cell_length_a 4.981064
_cell_length_b 16.619401
_cell_length_c 22.996903
_cell_angle_alpha 90.000000
_cell_angle_beta 94.763300
_cell_angle_gamma 90.000000
_cell_volume 1897.161500
_symmetry_space_group_name_H-M "C 2/C"
_symmetry_group_IT_number 15
_symmetry_cell_setting 'monoclinic'
loop_
_space_group_symop_operation_xyz
x,y,z
-x,y,1/2-z
-x,-y,-z
x,-y,1/2+z
1/2+x,1/2+y,z
1/2-x,1/2+y,1/2-z
1/2-x,1/2-y,-z
1/2+x,1/2-y,1/2+z
loop_
_atom_site_type_symbol
_atom_site_label
_atom_site_fract_x
_atom_site_fract_y
_atom_site_fract_z
Si Si1 0.732435 0.092275 0.903896
Si Si2 0.247369 0.994758 0.711437
Si Si3 0.039096 0.345029 0.669809
Si Si4 0.439203 0.365819 0.982808
Si Si5 0.092063 0.554165 0.060585
Si Si6 0.480026 0.743496 0.372686
O O1 0.546518 0.163612 0.877680
O O2 0.821883 0.039510 0.850041
O O3 0.551911 0.031217 0.939413
O O4 0.956418 0.134256 0.949394
O O5 0.500000 0.033798 0.750000
O O6 0.337375 0.901398 0.704376
O O7 0.000000 0.996550 0.750000
O O8 0.117707 0.415779 0.626606
O O9 0.826913 0.277460 0.646353
O O10 0.320816 0.296299 0.672230
O O11 0.123854 0.382073 0.969504
O O12 0.522343 0.295333 0.938854
O O13 0.610132 0.440183 0.958941
#
# Coordination Sequence:
#
# PCOD9272592 Si02
#       6
#     8   8   8   8   8   8
#     4  11  23  38  62  92 127 158 197 257 300 343
#     4  11  25  45  65  85 111 155 209 255 299 351
#     4   9  20  40  60  81 114 155 195 240 293 361
#     4  10  20  37  58  90 128 168 197 228 293 376
#     4   9  20  35  58  86 120 161 202 233 284 356
#     4  10  21  37  61  94 125 153 191 239 306 371
#
# _framework density 25.300955999999999
#
# number of rings (size 3 to 8) (size 9 to 14) (size 15 to 20)
#    0.000    2.000    0.000    2.500    0.000    9.333 
#    0.000   10.000    0.000    0.000    0.000    0.000 
#    0.000    0.000    0.000    0.000    0.000    0.000 
#
# Total GULP energy -133949.005185 kJ/mol
# GULP energy per Si atom -5581.208549 kJ/mol
# Density = 2.524337 g / cm^3
# Si number density = 25.300956 Si / 1000 Ang^3
#
#
#
# Elastic Constant Matrix: (Units=GPa)
#
#
# Indices 1 2 3 4 5 6 
#
# 1 126.3327 6.3128 34.1064 0.0000 -19.1120 0.0000
# 2 6.3128 82.0238 6.5080 0.0000 -1.0348 0.0000
# 3 34.1064 6.5080 70.5059 0.0000 -15.0857 0.0000
# 4 0.0000 0.0000 0.0000 22.8294 0.0000 8.8290
# 5 -19.1120 -1.0348 -15.0857 0.0000 23.2130 0.0000
# 6 0.0000 0.0000 0.0000 8.8290 0.0000 17.8989
#
#
#
# Elastic Compliance Matrix: (Units=1/GPa)
#
#
# Indices 1 2 3 4 5 6 
#
# 1 0.009736 -0.000404 -0.003439 0.000000 0.005763 0.000000
# 2 -0.000404 0.012299 -0.001038 0.000000 -0.000459 0.000000
# 3 -0.003439 -0.001038 0.017802 0.000000 0.008691 0.000000
# 4 0.000000 0.000000 0.000000 0.054129 0.000000 -0.026700
# 5 0.005763 -0.000459 0.008691 0.000000 0.053452 0.000000
# 6 0.000000 0.000000 0.000000 -0.026700 0.000000 0.069040
#
#
# Mechanical properties :
#
#
# Convention : Reuss Voigt Hill
#
# Bulk Modulus (GPa) = 33.24994 41.41298 37.33146
# Shear Modulus (GPa) = 21.16434 28.25062 24.70748
#
# Velocity S-wave (km/s) = 2.89537 3.34516 3.12836
# Velocity P-wave (km/s) = 4.93436 5.59676 5.27597
#
# Compressibility (1/GPa) = 0.03007524
#
# Stress axis : x y z
#
# Youngs Moduli (GPa) = 102.70990 81.30586 56.17196
#
# Poissons Ratio (x) = 0.03282 0.19320
# Poissons Ratio (y) = 0.04147 0.05831
# Poissons Ratio (z) = 0.35327 0.08441
#
# Static dielectric constant tensor:
#      x y z
#    x 1.929550 0.000000 0.119940 
#    y 0.000000 1.957370 0.000000 
#    z 0.119940 0.000000 1.682880 
# 
# From -- ./inp_files/260713.got.cif
#   From: 2010.05.17/outbox.cif.g08.bks.cpg/sg15_131_cif.got.tgz:260713.got - 2010.06.03 18:47:42.
