data_PCOD9272389
_publ_section_title
;
Structure prediction by ZEFSAII (Michael W. Deem and Ramdas Pophale) SiO2 
 PCOD9272389
Probable space group: C 2/C
;
_chemical_formula_sum "Si O2"
_cell_formula_units_Z 48
_cell_length_a 18.331428
_cell_length_b 18.688757
_cell_length_c 15.244654
_cell_angle_alpha 90.000000
_cell_angle_beta 32.728378
_cell_angle_gamma 90.000000
_cell_volume 2823.684393
_symmetry_space_group_name_H-M "C 2/C"
_symmetry_group_IT_number 15
_symmetry_cell_setting 'monoclinic'
loop_
_space_group_symop_operation_xyz
x,y,z
-x,y,1/2-z
-x,-y,-z
x,-y,1/2+z
1/2+x,1/2+y,z
1/2-x,1/2+y,1/2-z
1/2-x,1/2-y,-z
1/2+x,1/2-y,1/2+z
loop_
_atom_site_type_symbol
_atom_site_label
_atom_site_fract_x
_atom_site_fract_y
_atom_site_fract_z
Si Si1 0.891986 0.541659 0.173191
Si Si2 0.353081 0.536320 0.654066
Si Si3 0.225428 0.675067 0.308983
Si Si4 0.039889 0.813550 0.515860
Si Si5 0.500000 0.981687 0.750000
Si Si6 0.000000 0.125328 0.250000
Si Si7 0.754614 0.054153 0.417776
O O1 0.757123 0.492318 0.304497
O O2 0.839106 0.618148 0.192817
O O3 0.958647 0.554776 0.200355
O O4 0.000000 0.500000 0.000000
O O5 0.500000 0.500000 0.500000
O O6 0.384214 0.619378 0.606535
O O7 0.294557 0.506292 0.805532
O O8 0.131435 0.744077 0.409635
O O9 0.385644 0.691683 0.134967
O O10 0.222427 0.627757 0.400220
O O11 0.024976 0.830260 0.635406
O O12 0.626825 0.029484 0.598881
O O13 0.123931 0.073177 0.142399
#
# Coordination Sequence:
#
# PCOD9272389 Si02
#       7
#     8   8   8   8   4   4   8
#     4  11  22  41  61  92 123 156 211 248 298 365
#     4  11  19  41  62  84 122 164 204 246 294 363
#     4  10  23  39  55  89 122 161 199 241 307 364
#     4  11  23  36  61  86 125 164 195 252 309 360
#     4  12  22  35  66  91 120 160 198 266 292 355
#     4  10  20  37  54  91 122 160 204 244 294 379
#     4  10  22  36  58  91 120 160 204 242 307 351
#
# _framework density 16.999065999999999
#
# number of rings (size 3 to 8) (size 9 to 14) (size 15 to 20)
#    0.000    1.333    8.333    1.000    2.333    4.667 
#    0.000    0.000    0.000    5.000    0.000    0.000 
#    0.000    0.000    0.000    0.000    0.000    0.000 
#
# Total GULP energy -133642.713170 kJ/mol
# GULP energy per Si atom -5568.446382 kJ/mol
# Density = 1.696038 g / cm^3
# Si number density = 16.999066 Si / 1000 Ang^3
#
#
#
# Elastic Constant Matrix: (Units=GPa)
#
#
# Indices 1 2 3 4 5 6 
#
# 1 138.6341 54.3223 53.3521 0.0000 -29.1322 0.0001
# 2 54.3223 141.7202 74.4251 -0.0001 -16.6800 0.0000
# 3 53.3521 74.4251 108.5034 0.0002 -16.4902 0.0001
# 4 0.0000 -0.0001 0.0002 28.0451 -0.0002 -14.2143
# 5 -29.1322 -16.6800 -16.4902 -0.0002 27.6906 0.0001
# 6 0.0001 0.0000 0.0001 -14.2143 0.0001 12.5035
#
#
#
# Elastic Compliance Matrix: (Units=1/GPa)
#
#
# Indices 1 2 3 4 5 6 
#
# 1 0.010765 -0.001593 -0.002887 0.000000 0.008647 0.000000
# 2 -0.001593 0.011406 -0.006873 0.000000 0.001102 0.000000
# 3 -0.002887 -0.006873 0.015678 0.000000 0.002160 -0.000001
# 4 0.000000 0.000000 0.000000 0.084133 0.000000 0.095645
# 5 0.008647 0.001102 0.002160 0.000000 0.047161 0.000000
# 6 0.000000 0.000000 -0.000001 0.095645 0.000000 0.188710
#
#
# Mechanical properties :
#
#
# Convention : Reuss Voigt Hill
#
# Bulk Modulus (GPa) = 66.02961 83.67296 74.85128
# Shear Modulus (GPa) = 12.96659 27.43171 20.19915
#
# Velocity S-wave (km/s) = 2.76485 4.02147 3.45084
# Velocity P-wave (km/s) = 7.00856 8.41973 7.74635
#
# Compressibility (1/GPa) = 0.01514472
#
# Stress axis : x y z
#
# Youngs Moduli (GPa) = 92.89027 87.67608 63.78293
#
# Poissons Ratio (x) = 0.13964 0.18413
# Poissons Ratio (y) = 0.14794 0.43837
# Poissons Ratio (z) = 0.26815 0.60258
#
# Static dielectric constant tensor:
#      x y z
#    x 1.631850 0.000000 0.005090 
#    y 0.000000 1.556050 0.000000 
#    z 0.005090 0.000000 1.586520 
# 
# From -- ./inp_files/48423.got.cif
#   From: 2010.05.17/outbox.cif.g08.bks.cpg/sg15_25_cif.got.tgz:48423.got - 2010.06.03 18:47:42.
