data_PCOD9272369
_publ_section_title
;
Structure prediction by ZEFSAII (Michael W. Deem and Ramdas Pophale) SiO2 
 PCOD9272369
Probable space group: C 2/C
;
_chemical_formula_sum "Si O2"
_cell_formula_units_Z 56
_cell_length_a 13.002926
_cell_length_b 26.388316
_cell_length_c 8.675022
_cell_angle_alpha 90.000000
_cell_angle_beta 116.500045
_cell_angle_gamma 90.000000
_cell_volume 2663.878209
_symmetry_space_group_name_H-M "C 2/C"
_symmetry_group_IT_number 15
_symmetry_cell_setting 'monoclinic'
loop_
_space_group_symop_operation_xyz
x,y,z
-x,y,1/2-z
-x,-y,-z
x,-y,1/2+z
1/2+x,1/2+y,z
1/2-x,1/2+y,1/2-z
1/2-x,1/2-y,-z
1/2+x,1/2-y,1/2+z
loop_
_atom_site_type_symbol
_atom_site_label
_atom_site_fract_x
_atom_site_fract_y
_atom_site_fract_z
Si Si1 0.256240 0.719957 0.303528
Si Si2 0.402491 0.317119 0.312872
Si Si3 0.909889 0.700633 0.827231
Si Si4 0.372042 0.040529 0.231112
Si Si5 0.697670 0.135971 0.513477
Si Si6 0.628357 0.936075 0.405437
Si Si7 0.711440 0.661886 0.490745
O O1 0.150958 0.760232 0.229779
O O2 0.377469 0.750113 0.405884
O O3 0.222125 0.681588 0.413542
O O4 0.279498 0.685537 0.170649
O O5 0.500000 0.320958 0.250000
O O6 0.409565 0.332141 0.499721
O O7 0.308596 0.359715 0.196006
O O8 0.795044 0.697098 0.648349
O O9 0.000000 0.703062 0.750000
O O10 0.909109 0.653363 0.946495
O O11 0.500000 0.039296 0.250000
O O12 0.314675 0.085315 0.092917
O O13 0.378845 0.050072 0.418086
O O14 0.326759 0.984603 0.160318
O O15 0.500000 0.923480 0.250000
O O16 0.720953 0.891183 0.458924
#
# Coordination Sequence:
#
# PCOD9272369 Si02
#       7
#     8   8   8   8   8   8   8
#     4  10  20  37  53  88 118 155 201 245 292 353
#     4  10  22  38  60  82 122 164 206 245 287 346
#     4  10  21  33  57  81 121 156 194 240 291 354
#     4  11  24  37  62  93 123 155 192 241 307 377
#     4  10  22  38  57  90 121 158 198 246 296 358
#     4  11  23  39  62  92 124 152 191 241 308 376
#     4  10  21  36  58  83 120 154 198 235 299 352
#
# _framework density 21.021982999999999
#
# number of rings (size 3 to 8) (size 9 to 14) (size 15 to 20)
#    0.000    2.000    1.429    5.571   10.000    5.143 
#    0.000    0.000    0.000    0.857    0.000    0.000 
#    0.000    0.000    0.000    0.000    0.000    0.000 
#
# Total GULP energy -155937.745919 kJ/mol
# GULP energy per Si atom -5569.205211 kJ/mol
# Density = 2.097414 g / cm^3
# Si number density = 21.021983 Si / 1000 Ang^3
#
#
#
# Elastic Constant Matrix: (Units=GPa)
#
#
# Indices 1 2 3 4 5 6 
#
# 1 122.7934 44.4057 34.9387 0.0000 -45.8319 0.0000
# 2 44.4057 112.3493 34.7666 0.0000 -13.4531 0.0000
# 3 34.9387 34.7666 100.6132 0.0000 -42.7582 0.0000
# 4 0.0000 0.0000 0.0000 37.5262 0.0000 -6.4848
# 5 -45.8319 -13.4531 -42.7582 0.0000 39.9897 0.0000
# 6 0.0000 0.0000 0.0000 -6.4848 0.0000 26.8094
#
#
#
# Elastic Compliance Matrix: (Units=1/GPa)
#
#
# Indices 1 2 3 4 5 6 
#
# 1 0.018186 -0.006205 0.006964 0.000000 0.026201 0.000000
# 2 -0.006205 0.012092 -0.006080 0.000000 -0.009545 0.000000
# 3 0.006964 -0.006080 0.022258 0.000000 0.029735 0.000000
# 4 0.000000 0.000000 0.000000 0.027811 0.000000 0.006727
# 5 0.026201 -0.009545 0.029735 0.000000 0.083618 0.000000
# 6 0.000000 0.000000 0.000000 0.006727 0.000000 0.038928
#
#
# Mechanical properties :
#
#
# Convention : Reuss Voigt Hill
#
# Bulk Modulus (GPa) = 23.87004 62.66421 43.26712
# Shear Modulus (GPa) = 21.97810 35.64139 28.80975
#
# Velocity S-wave (km/s) = 3.23690 4.12203 3.70599
# Velocity P-wave (km/s) = 5.03483 7.24765 6.24011
#
# Compressibility (1/GPa) = 0.04189353
#
# Stress axis : x y z
#
# Youngs Moduli (GPa) = 54.98830 82.69960 44.92678
#
# Poissons Ratio (x) = 0.51319 -0.31287
# Poissons Ratio (y) = 0.34123 0.27314
# Poissons Ratio (z) = -0.38293 0.50279
#
# Static dielectric constant tensor:
#      x y z
#    x 1.903280 0.000000 -0.052990 
#    y 0.000000 1.868900 0.000000 
#    z -0.052990 0.000000 1.964990 
# 
# From -- ./inp_files/43205.got.cif
#   From: 2010.05.17/outbox.cif.g08.bks.cpg/sg15_22_cif.got.tgz:43205.got - 2010.06.03 18:47:42.
