data_PCOD9272075
_publ_section_title
;
Structure prediction by ZEFSAII (Michael W. Deem and Ramdas Pophale) SiO2 
 PCOD9272075
Probable space group: C 2/C
;
_chemical_formula_sum "Si O2"
_cell_formula_units_Z 52
_cell_length_a 11.718261
_cell_length_b 28.985357
_cell_length_c 11.079005
_cell_angle_alpha 90.000000
_cell_angle_beta 142.601797
_cell_angle_gamma 90.000000
_cell_volume 2285.505524
_symmetry_space_group_name_H-M "C 2/C"
_symmetry_group_IT_number 15
_symmetry_cell_setting 'monoclinic'
loop_
_space_group_symop_operation_xyz
x,y,z
-x,y,1/2-z
-x,-y,-z
x,-y,1/2+z
1/2+x,1/2+y,z
1/2-x,1/2+y,1/2-z
1/2-x,1/2-y,-z
1/2+x,1/2-y,1/2+z
loop_
_atom_site_type_symbol
_atom_site_label
_atom_site_fract_x
_atom_site_fract_y
_atom_site_fract_z
Si Si1 0.591995 0.401051 0.533189
Si Si2 0.853337 0.282659 0.236480
Si Si3 0.839854 0.631509 0.844074
Si Si4 0.685770 0.530044 0.325760
Si Si5 0.500000 0.917961 0.250000
Si Si6 0.942494 0.179443 0.329237
Si Si7 0.842360 0.561887 0.030291
O O1 0.377984 0.384625 0.324996
O O2 0.627809 0.443786 0.654764
O O3 0.654289 0.356461 0.664004
O O4 0.693191 0.414962 0.495116
O O5 0.898432 0.314733 0.390184
O O6 0.833192 0.227584 0.227027
O O7 0.000000 0.290253 0.250000
O O8 0.646505 0.302311 0.039779
O O9 0.893837 0.613208 0.757869
O O10 0.936750 0.601504 0.029089
O O11 0.500000 0.527717 0.250000
O O12 0.759185 0.477665 0.374188
O O13 0.847054 0.554986 0.540600
O O14 0.000000 0.156331 0.250000
O O15 0.000000 0.540588 0.250000
#
# Coordination Sequence:
#
# PCOD9272075 Si02
#       7
#     8   8   8   8   4   8   8
#     4  11  25  44  67  96 134 177 218 274 337 391
#     4  10  20  36  63  97 131 166 214 267 325 385
#     4  11  24  43  67  99 134 174 220 275 328 399
#     4  12  25  43  70  95 133 174 224 281 330 386
#     4  12  24  40  70 100 130 170 232 262 340 388
#     4  10  21  36  64  96 131 167 214 267 325 391
#     4  12  28  45  65  95 133 176 224 273 331 404
#
# _framework density 22.752078000000001
#
# number of rings (size 3 to 8) (size 9 to 14) (size 15 to 20)
#    0.000    0.923    3.077    4.615    4.308    6.154 
#    0.000    0.769    0.000    0.000    0.000    0.000 
#    0.000    0.000    0.000    0.000    0.000    0.000 
#
# Total GULP energy -145229.866102 kJ/mol
# GULP energy per Si atom -5585.764081 kJ/mol
# Density = 2.270029 g / cm^3
# Si number density = 22.752078 Si / 1000 Ang^3
#
#
#
# Elastic Constant Matrix: (Units=GPa)
#
#
# Indices 1 2 3 4 5 6 
#
# 1 88.9842 41.9098 7.5707 0.0000 1.0703 0.0000
# 2 41.9098 124.8360 18.5387 0.0000 -6.1952 0.0000
# 3 7.5707 18.5387 62.4978 0.0000 6.6582 0.0000
# 4 0.0000 0.0000 0.0000 181.8195 0.0000 41.2381
# 5 1.0703 -6.1952 6.6582 0.0000 40.4487 0.0000
# 6 0.0000 0.0000 0.0000 41.2381 0.0000 39.4751
#
#
#
# Elastic Compliance Matrix: (Units=1/GPa)
#
#
# Indices 1 2 3 4 5 6 
#
# 1 0.013395 -0.004522 -0.000173 0.000000 -0.001019 0.000000
# 2 -0.004522 0.010026 -0.002649 0.000000 0.002091 0.000000
# 3 -0.000173 -0.002649 0.017151 0.000000 -0.003224 0.000000
# 4 0.000000 0.000000 0.000000 0.007208 0.000000 -0.007530
# 5 -0.001019 0.002091 -0.003224 0.000000 0.025601 0.000000
# 6 0.000000 0.000000 0.000000 -0.007530 0.000000 0.033198
#
#
# Mechanical properties :
#
#
# Convention : Reuss Voigt Hill
#
# Bulk Modulus (GPa) = 38.63374 45.81737 42.22556
# Shear Modulus (GPa) = 38.49332 66.23523 52.36427
#
# Velocity S-wave (km/s) = 4.11768 5.40138 4.80262
# Velocity P-wave (km/s) = 6.29478 7.68644 7.02515
#
# Compressibility (1/GPa) = 0.02588411
#
# Stress axis : x y z
#
# Youngs Moduli (GPa) = 74.65735 99.74375 58.30647
#
# Poissons Ratio (x) = 0.45101 0.01007
# Poissons Ratio (y) = 0.33758 0.15445
# Poissons Ratio (z) = 0.01290 0.26422
#
# Static dielectric constant tensor:
#      x y z
#    x 1.780730 0.000000 0.008280 
#    y 0.000000 1.969620 0.000000 
#    z 0.008280 0.000000 2.052020 
# 
# From -- ./inp_files/92637.got.cif
#   From: 2010.05.17/outbox.cif.g08.bks.cpg/sg15_47_cif.got.tgz:92637.got - 2010.06.03 18:47:42.
