data_PCOD9272580
_publ_section_title
;
Structure prediction by ZEFSAII (Michael W. Deem and Ramdas Pophale) SiO2 
 PCOD9272580
Probable space group: C 2/C
;
_chemical_formula_sum "Si O2"
_cell_formula_units_Z 48
_cell_length_a 8.928816
_cell_length_b 24.195553
_cell_length_c 9.416711
_cell_angle_alpha 90.000000
_cell_angle_beta 94.362608
_cell_angle_gamma 90.000000
_cell_volume 2028.469678
_symmetry_space_group_name_H-M "C 2/C"
_symmetry_group_IT_number 15
_symmetry_cell_setting 'monoclinic'
loop_
_space_group_symop_operation_xyz
x,y,z
-x,y,1/2-z
-x,-y,-z
x,-y,1/2+z
1/2+x,1/2+y,z
1/2-x,1/2+y,1/2-z
1/2-x,1/2-y,-z
1/2+x,1/2-y,1/2+z
loop_
_atom_site_type_symbol
_atom_site_label
_atom_site_fract_x
_atom_site_fract_y
_atom_site_fract_z
Si Si1 0.698773 0.843443 0.316189
Si Si2 0.586909 0.056446 0.972658
Si Si3 0.184974 0.626475 0.421150
Si Si4 0.961275 0.284946 0.464435
Si Si5 0.144023 0.926306 0.824924
Si Si6 0.493915 0.657549 0.527537
O O1 0.639727 0.906840 0.338159
O O2 0.627562 0.808521 0.443682
O O3 0.632532 0.811267 0.175278
O O4 0.877410 0.842181 0.344278
O O5 0.463070 0.097035 0.032132
O O6 0.747043 0.044317 0.057787
O O7 0.500000 0.000000 0.000000
O O8 0.123547 0.688999 0.405969
O O9 0.244260 0.597069 0.285794
O O10 0.333172 0.627252 0.532243
O O11 0.962240 0.219859 0.476882
O O12 0.071260 0.875273 0.903535
O O13 0.000000 0.957666 0.750000
#
# Coordination Sequence:
#
# PCOD9272580 Si02
#       6
#     8   8   8   8   8   8
#     4   9  21  37  59  89 121 168 213 243 309 378
#     4  10  21  43  66  87 122 162 207 267 313 361
#     4  10  21  37  57  93 123 150 214 248 295 377
#     4  10  20  37  58  88 129 167 202 249 307 373
#     4   9  20  39  63  90 125 157 207 253 303 377
#     4  10  20  38  61  87 130 165 200 256 302 366
#
# _framework density 23.663160000000001
#
# number of rings (size 3 to 8) (size 9 to 14) (size 15 to 20)
#    0.000    2.333    0.000    1.500    7.000    0.667 
#   15.000    7.500    0.000    0.000    0.000    0.000 
#    0.000    0.000    0.000    0.000    0.000    0.000 
#
# Total GULP energy -133667.185634 kJ/mol
# GULP energy per Si atom -5569.466068 kJ/mol
# Density = 2.360930 g / cm^3
# Si number density = 23.663160 Si / 1000 Ang^3
#
#
#
# Elastic Constant Matrix: (Units=GPa)
#
#
# Indices 1 2 3 4 5 6 
#
# 1 146.3809 15.7233 18.7004 0.0000 21.6251 0.0000
# 2 15.7233 93.6409 -5.4808 0.0000 15.8418 0.0000
# 3 18.7004 -5.4808 37.0588 0.0000 17.3831 0.0000
# 4 0.0000 0.0000 0.0000 -9.3073 0.0000 0.3695
# 5 21.6251 15.8418 17.3831 0.0000 55.0074 0.0000
# 6 0.0000 0.0000 0.0000 0.3695 0.0000 17.8365
#
#
#
# Elastic Compliance Matrix: (Units=1/GPa)
#
#
# Indices 1 2 3 4 5 6 
#
# 1 0.007616 -0.001196 -0.003260 0.000000 -0.001619 0.000000
# 2 -0.001196 0.011871 0.004393 0.000000 -0.004337 0.000000
# 3 -0.003260 0.004393 0.034365 0.000000 -0.010843 0.000000
# 4 0.000000 0.000000 0.000000 -0.107354 0.000000 0.002224
# 5 -0.001619 -0.004337 -0.010843 0.000000 0.023492 0.000000
# 6 0.000000 0.000000 0.000000 0.002224 0.000000 0.056019
#
#
# Mechanical properties :
#
#
# Convention : Reuss Voigt Hill
#
# Bulk Modulus (GPa) = 18.61277 37.21851 27.91564
# Shear Modulus (GPa) = 113.52739 29.24984 71.38861
#
# Velocity S-wave (km/s) = 6.93402 3.51962 5.49856
# Velocity P-wave (km/s) = 8.48471 5.68151 7.22045
#
# Compressibility (1/GPa) = 0.05372656
#
# Stress axis : x y z
#
# Youngs Moduli (GPa) = 131.30869 84.24104 29.09911
#
# Poissons Ratio (x) = 0.10072 0.09487
# Poissons Ratio (y) = 0.15699 -0.12784
# Poissons Ratio (z) = 0.42809 -0.37009
#
# Static dielectric constant tensor:
#      x y z
#    x 1.939640 0.000000 0.034440 
#    y 0.000000 1.977200 0.000000 
#    z 0.034440 0.000000 2.032120 
# 
# From -- ./inp_files/79244.got.cif
#   From: 2010.05.17/outbox.cif.g08.bks.cpg/sg15_40_cif.got.tgz:79244.got - 2010.06.03 18:47:42.
