data_PCOD9272752
_publ_section_title
;
Structure prediction by ZEFSAII (Michael W. Deem and Ramdas Pophale) SiO2 
 PCOD9272752
Probable space group: C 2/C
;
_chemical_formula_sum "Si O2"
_cell_formula_units_Z 32
_cell_length_a 8.679028
_cell_length_b 15.349808
_cell_length_c 13.433339
_cell_angle_alpha 90.000000
_cell_angle_beta 126.720998
_cell_angle_gamma 90.000000
_cell_volume 1434.472378
_symmetry_space_group_name_H-M "C 2/C"
_symmetry_group_IT_number 15
_symmetry_cell_setting 'monoclinic'
loop_
_space_group_symop_operation_xyz
x,y,z
-x,y,1/2-z
-x,-y,-z
x,-y,1/2+z
1/2+x,1/2+y,z
1/2-x,1/2+y,1/2-z
1/2-x,1/2-y,-z
1/2+x,1/2-y,1/2+z
loop_
_atom_site_type_symbol
_atom_site_label
_atom_site_fract_x
_atom_site_fract_y
_atom_site_fract_z
Si Si1 0.558796 0.902647 0.000204
Si Si2 0.666962 0.592985 0.731013
Si Si3 0.680763 0.613767 0.246892
Si Si4 0.141541 0.830970 0.512856
O O1 0.647791 0.870084 0.139018
O O2 0.372742 0.858922 0.880449
O O3 0.725050 0.907090 0.981420
O O4 0.500000 0.000000 0.000000
O O5 0.500000 0.598550 0.750000
O O6 0.695925 0.489722 0.722766
O O7 0.574756 0.647156 0.605485
O O8 0.500000 0.621843 0.250000
O O9 0.659860 0.666990 0.137482
O O10 0.250000 0.750000 0.500000
#
# Coordination Sequence:
#
# PCOD9272752 Si02
#       4
#     8   8   8   8
#     4   9  19  36  58  86 117 154 201 247 295 358
#     4   8  17  34  57  87 118 151 199 249 294 355
#     4  10  20  37  60  86 119 160 204 251 301 359
#     4  11  22  37  62  91 120 159 202 251 308 368
#
# _framework density 22.307853999999999
#
# number of rings (size 3 to 8) (size 9 to 14) (size 15 to 20)
#    0.000    2.500    0.000    3.000    0.000    6.000 
#    0.000    5.000    0.000   12.000    0.000    0.000 
#    0.000    0.000    0.000    0.000    0.000    0.000 
#
# Total GULP energy -89201.842003 kJ/mol
# GULP energy per Si atom -5575.115125 kJ/mol
# Density = 2.225708 g / cm^3
# Si number density = 22.307854 Si / 1000 Ang^3
#
#
#
# Elastic Constant Matrix: (Units=GPa)
#
#
# Indices 1 2 3 4 5 6 
#
# 1 58.7674 17.5527 85.1602 0.0000 4.7844 0.0000
# 2 17.5527 92.3567 58.5262 0.0000 -7.4605 0.0000
# 3 85.1602 58.5262 248.6246 0.0000 31.4513 0.0000
# 4 0.0000 0.0000 0.0000 0.4506 0.0000 -13.8816
# 5 4.7844 -7.4605 31.4513 0.0000 45.2989 0.0000
# 6 0.0000 0.0000 0.0000 -13.8816 0.0000 22.1173
#
#
#
# Elastic Compliance Matrix: (Units=1/GPa)
#
#
# Indices 1 2 3 4 5 6 
#
# 1 0.035168 0.002232 -0.013318 0.000000 0.005900 0.000000
# 2 0.002232 0.013797 -0.004681 0.000000 0.005287 0.000000
# 3 -0.013318 -0.004681 0.010530 0.000000 -0.006676 0.000000
# 4 0.000000 0.000000 0.000000 -0.121037 0.000000 -0.075967
# 5 0.005900 0.005287 -0.006676 0.000000 0.026958 0.000000
# 6 0.000000 0.000000 0.000000 -0.075967 0.000000 -0.002466
#
#
# Mechanical properties :
#
#
# Convention : Reuss Voigt Hill
#
# Bulk Modulus (GPa) = 35.76321 80.24745 58.00533
# Shear Modulus (GPa) = 1314.31913 29.47399 671.89656
#
# Velocity S-wave (km/s) = 24.29922 3.63883 17.37374
# Velocity P-wave (km/s) = 28.34319 7.32841 20.70075
#
# Compressibility (1/GPa) = 0.02796169
#
# Stress axis : x y z
#
# Youngs Moduli (GPa) = 28.43493 72.48048 94.96512
#
# Poissons Ratio (x) = -0.16179 1.26472
# Poissons Ratio (y) = -0.06347 0.44454
# Poissons Ratio (z) = 0.37869 0.33929
#
# Static dielectric constant tensor:
#      x y z
#    x 1.834230 0.000000 0.064390 
#    y 0.000000 1.941400 0.000000 
#    z 0.064390 0.000000 1.909060 
# 
# From -- ./inp_files/76510.got.cif
#   From: 2010.05.17/outbox.cif.g08.bks.cpg/sg15_39_cif.got.tgz:76510.got - 2010.06.03 18:47:42.
