data_PCOD9272004
_publ_section_title
;
Structure prediction by ZEFSAII (Michael W. Deem and Ramdas Pophale) SiO2 
 PCOD9272004
Probable space group: C 2/C
;
_chemical_formula_sum "Si O2"
_cell_formula_units_Z 64
_cell_length_a 17.123263
_cell_length_b 21.958985
_cell_length_c 8.601399
_cell_angle_alpha 90.000000
_cell_angle_beta 84.402247
_cell_angle_gamma 90.000000
_cell_volume 3218.784321
_symmetry_space_group_name_H-M "C 2/C"
_symmetry_group_IT_number 15
_symmetry_cell_setting 'monoclinic'
loop_
_space_group_symop_operation_xyz
x,y,z
-x,y,1/2-z
-x,-y,-z
x,-y,1/2+z
1/2+x,1/2+y,z
1/2-x,1/2+y,1/2-z
1/2-x,1/2-y,-z
1/2+x,1/2-y,1/2+z
loop_
_atom_site_type_symbol
_atom_site_label
_atom_site_fract_x
_atom_site_fract_y
_atom_site_fract_z
Si Si1 0.731070 0.857028 0.773931
Si Si2 0.910699 0.666883 0.717723
Si Si3 0.867446 0.156823 0.712038
Si Si4 0.659708 0.765081 0.567656
Si Si5 0.305588 0.465984 0.614337
Si Si6 0.286196 0.092016 0.881100
Si Si7 0.914734 0.971797 0.308805
Si Si8 0.164310 0.773113 0.573806
O O1 0.670338 0.809631 0.713572
O O2 0.752216 0.907139 0.641688
O O3 0.811875 0.822062 0.800335
O O4 0.704204 0.885827 0.942678
O O5 0.888040 0.698616 0.556528
O O6 0.862945 0.604841 0.763836
O O7 0.878292 0.716475 0.845380
O O8 0.000000 0.657811 0.750000
O O9 0.874148 0.201529 0.858131
O O10 0.778401 0.134149 0.694865
O O11 0.911552 0.093011 0.720079
O O12 0.884254 0.195227 0.553671
O O13 0.750000 0.750000 0.500000
O O14 0.250161 0.524714 0.601354
O O15 0.379261 0.458350 0.484446
O O16 0.349679 0.480442 0.765400
O O17 0.000000 0.996642 0.250000
O O18 0.250000 0.750000 0.500000
#
# Coordination Sequence:
#
# PCOD9272004 Si02
#       8
#     8   8   8   8   8   8   8   8
#     4  11  20  36  67  91 114 162 225 254 286 373
#     4  12  25  38  61  99 134 158 199 272 335 363
#     4  10  20  36  63  86 119 170 213 245 298 376
#     4  12  19  35  64  94 118 160 216 253 290 385
#     4  11  23  39  64  91 114 169 221 252 305 374
#     4  10  20  41  60  85 122 167 214 261 307 365
#     4  11  24  40  57  90 133 161 201 263 317 363
#     4  11  18  39  63  88 127 169 206 254 313 376
#
# _framework density 19.883282999999999
#
# number of rings (size 3 to 8) (size 9 to 14) (size 15 to 20)
#    0.000    1.000    7.500    1.125    1.750    1.000 
#    0.000    1.875    0.000    3.000    0.000    0.000 
#    0.000    0.000    0.000    0.000    0.000    0.000 
#
# Total GULP energy -178368.727050 kJ/mol
# GULP energy per Si atom -5574.022720 kJ/mol
# Density = 1.983803 g / cm^3
# Si number density = 19.883283 Si / 1000 Ang^3
#
#
#
# Elastic Constant Matrix: (Units=GPa)
#
#
# Indices 1 2 3 4 5 6 
#
# 1 65.7110 8.6846 19.2213 0.0000 9.3784 0.0000
# 2 8.6846 70.0172 -0.6381 0.0000 -4.9401 0.0000
# 3 19.2213 -0.6381 57.6570 0.0000 4.4734 0.0000
# 4 0.0000 0.0000 0.0000 0.7846 0.0000 -23.8000
# 5 9.3784 -4.9401 4.4734 0.0000 16.3797 0.0000
# 6 0.0000 0.0000 0.0000 -23.8000 0.0000 6.6072
#
#
#
# Elastic Compliance Matrix: (Units=1/GPa)
#
#
# Indices 1 2 3 4 5 6 
#
# 1 0.018671 -0.003080 -0.005473 0.000000 -0.010125 0.000000
# 2 -0.003080 0.015103 0.000719 0.000000 0.006122 0.000000
# 3 -0.005473 0.000719 0.019326 0.000000 -0.001928 0.000000
# 4 0.000000 0.000000 0.000000 -0.011772 0.000000 -0.042405
# 5 -0.010125 0.006122 -0.001928 0.000000 0.069221 0.000000
# 6 0.000000 0.000000 0.000000 -0.042405 0.000000 -0.001398
#
#
# Mechanical properties :
#
#
# Convention : Reuss Voigt Hill
#
# Bulk Modulus (GPa) = 26.71538 27.54675 27.13107
# Shear Modulus (GPa) = 36.41763 15.82880 26.12321
#
# Velocity S-wave (km/s) = 4.28433 2.82456 3.62861
# Velocity P-wave (km/s) = 6.15948 4.95195 5.58843
#
# Compressibility (1/GPa) = 0.03743162
#
# Stress axis : x y z
#
# Youngs Moduli (GPa) = 53.55864 66.21313 51.74372
#
# Poissons Ratio (x) = 0.20394 0.28319
# Poissons Ratio (y) = 0.16496 -0.03720
# Poissons Ratio (z) = 0.29313 -0.04760
#
# Static dielectric constant tensor:
#      x y z
#    x 1.726990 0.000000 0.014120 
#    y 0.000000 1.735560 0.000000 
#    z 0.014120 0.000000 1.779080 
# 
# From -- ./inp_files/50230.got.cif
#   From: 2010.05.17/outbox.cif.g08.bks.cpg/sg15_26_cif.got.tgz:50230.got - 2010.06.03 18:47:42.
