data_PCOD9272793
_publ_section_title
;
Structure prediction by ZEFSAII (Michael W. Deem and Ramdas Pophale) SiO2 
 PCOD9272793
Probable space group: C 2/C
;
_chemical_formula_sum "Si O2"
_cell_formula_units_Z 56
_cell_length_a 12.866001
_cell_length_b 26.386695
_cell_length_c 7.524108
_cell_angle_alpha 90.000000
_cell_angle_beta 75.624380
_cell_angle_gamma 90.000000
_cell_volume 2474.388674
_symmetry_space_group_name_H-M "C 2/C"
_symmetry_group_IT_number 15
_symmetry_cell_setting 'monoclinic'
loop_
_space_group_symop_operation_xyz
x,y,z
-x,y,1/2-z
-x,-y,-z
x,-y,1/2+z
1/2+x,1/2+y,z
1/2-x,1/2+y,1/2-z
1/2-x,1/2-y,-z
1/2+x,1/2-y,1/2+z
loop_
_atom_site_type_symbol
_atom_site_label
_atom_site_fract_x
_atom_site_fract_y
_atom_site_fract_z
Si Si1 0.433543 0.199583 0.062881
Si Si2 0.855839 0.652008 0.431579
Si Si3 0.028680 0.806205 0.531520
Si Si4 0.015953 0.918777 0.036690
Si Si5 0.280258 0.560000 0.590959
Si Si6 0.243071 0.949832 0.977984
Si Si7 0.273569 0.830362 0.349682
O O1 0.353802 0.188654 0.261280
O O2 0.523100 0.156097 0.043945
O O3 0.497806 0.252427 0.044545
O O4 0.368212 0.198956 0.908014
O O5 0.821562 0.595457 0.389539
O O6 0.785666 0.668358 0.631726
O O7 0.156285 0.810872 0.447991
O O8 0.000000 0.805192 0.750000
O O9 0.977280 0.857692 0.477539
O O10 0.000000 0.932460 0.250000
O O11 0.906626 0.935785 0.985857
O O12 0.128257 0.942413 0.929050
O O13 0.226347 0.508308 0.552538
O O14 0.222866 0.612564 0.571335
O O15 0.276559 0.559056 0.805789
#
# Coordination Sequence:
#
# PCOD9272793 Si02
#       7
#     8   8   8   8   8   8   8
#     4  11  24  43  65  87 127 169 218 271 312 365
#     4  10  24  42  63  93 119 172 220 257 318 373
#     4  11  24  39  63  99 125 166 213 252 323 385
#     4   9  20  37  57  90 130 161 201 252 312 388
#     4   9  20  35  61  92 120 164 200 250 323 374
#     4  10  20  37  60  88 124 159 206 255 312 385
#     4  10  22  44  64  93 130 161 210 266 313 380
#
# _framework density 22.631853
#
# number of rings (size 3 to 8) (size 9 to 14) (size 15 to 20)
#    0.000    2.000    0.000    3.000    6.000    1.714 
#    0.000    1.429    3.143    0.000    0.000    0.000 
#    0.000    0.000    0.000    0.000    0.000    0.000 
#
# Total GULP energy -156366.827211 kJ/mol
# GULP energy per Si atom -5584.529543 kJ/mol
# Density = 2.258034 g / cm^3
# Si number density = 22.631853 Si / 1000 Ang^3
#
#
#
# Elastic Constant Matrix: (Units=GPa)
#
#
# Indices 1 2 3 4 5 6 
#
# 1 10.7854 -6.1060 10.1551 0.0000 -8.2710 0.0000
# 2 -6.1060 99.2962 5.6136 0.0000 -10.4835 0.0000
# 3 10.1551 5.6136 79.4631 0.0000 -11.4431 0.0000
# 4 0.0000 0.0000 0.0000 24.8862 0.0000 7.2271
# 5 -8.2710 -10.4835 -11.4431 0.0000 25.3224 0.0000
# 6 0.0000 0.0000 0.0000 7.2271 0.0000 25.4626
#
#
#
# Elastic Compliance Matrix: (Units=1/GPa)
#
#
# Indices 1 2 3 4 5 6 
#
# 1 0.152493 0.015428 -0.013355 0.000000 0.050161 0.000000
# 2 0.015428 0.012093 -0.001475 0.000000 0.009379 0.000000
# 3 -0.013355 -0.001475 0.014631 0.000000 0.001639 0.000000
# 4 0.000000 0.000000 0.000000 0.043793 0.000000 -0.012430
# 5 0.050161 0.009379 0.001639 0.000000 0.060498 0.000000
# 6 0.000000 0.000000 0.000000 -0.012430 0.000000 0.042801
#
#
# Mechanical properties :
#
#
# Convention : Reuss Voigt Hill
#
# Bulk Modulus (GPa) = 5.54280 23.20778 14.37529
# Shear Modulus (GPa) = 12.97853 27.12638 20.05245
#
# Velocity S-wave (km/s) = 2.39731 3.46583 2.97985
# Velocity P-wave (km/s) = 3.18076 5.12764 4.26672
#
# Compressibility (1/GPa) = 0.18041422
#
# Stress axis : x y z
#
# Youngs Moduli (GPa) = 6.55767 82.69087 68.34620
#
# Poissons Ratio (x) = -1.27576 0.91273
# Poissons Ratio (y) = -0.10117 0.10083
# Poissons Ratio (z) = 0.08757 0.12200
#
# Static dielectric constant tensor:
#      x y z
#    x 1.828020 0.000000 -0.011090 
#    y 0.000000 1.887440 0.000000 
#    z -0.011090 0.000000 1.861240 
# 
# From -- ./inp_files/42106.got.cif
#   From: 2010.05.17/outbox.cif.g08.bks.cpg/sg15_22_cif.got.tgz:42106.got - 2010.06.03 18:47:42.
