data_PCOD9272366
_publ_section_title
;
Structure prediction by ZEFSAII (Michael W. Deem and Ramdas Pophale) SiO2 
 PCOD9272366
Probable space group: C 2/C
;
_chemical_formula_sum "Si O2"
_cell_formula_units_Z 60
_cell_length_a 20.953120
_cell_length_b 23.476023
_cell_length_c 14.547396
_cell_angle_alpha 90.000000
_cell_angle_beta 21.189319
_cell_angle_gamma 90.000000
_cell_volume 2586.471108
_symmetry_space_group_name_H-M "C 2/C"
_symmetry_group_IT_number 15
_symmetry_cell_setting 'monoclinic'
loop_
_space_group_symop_operation_xyz
x,y,z
-x,y,1/2-z
-x,-y,-z
x,-y,1/2+z
1/2+x,1/2+y,z
1/2-x,1/2+y,1/2-z
1/2-x,1/2-y,-z
1/2+x,1/2-y,1/2+z
loop_
_atom_site_type_symbol
_atom_site_label
_atom_site_fract_x
_atom_site_fract_y
_atom_site_fract_z
Si Si1 0.629281 0.871401 0.389872
Si Si2 0.761327 0.591575 0.417728
Si Si3 0.409372 0.191940 0.721601
Si Si4 0.704233 0.544537 0.986903
Si Si5 0.604174 0.609911 0.819150
Si Si6 0.214873 0.609306 0.320747
Si Si7 0.806966 0.506774 0.039158
Si Si8 0.000000 0.215619 0.250000
O O1 0.466905 0.898872 0.661296
O O2 0.564469 0.815209 0.422991
O O3 0.690218 0.918832 0.231231
O O4 0.779558 0.859120 0.261036
O O5 0.721280 0.524491 0.456895
O O6 0.652278 0.618672 0.647460
O O7 0.743246 0.618506 0.342179
O O8 0.540643 0.142913 0.583291
O O9 0.484687 0.244523 0.679049
O O10 0.192872 0.185790 0.007901
O O11 0.500000 0.559776 0.250000
O O12 0.754770 0.550006 0.026573
O O13 0.665009 0.543086 0.744275
O O14 0.402466 0.622083 0.113894
O O15 0.178174 0.543157 0.388970
O O16 0.000000 0.486404 0.750000
#
# Coordination Sequence:
#
# PCOD9272366 Si02
#       8
#     8   8   8   8   8   8   8   4
#     4  11  22  36  57  93 120 170 224 264 307 388
#     4  10  20  37  53  81 131 185 227 263 307 341
#     4  10  25  42  72  93 123 156 195 255 334 408
#     4  11  21  32  51  83 127 181 220 271 312 361
#     4  11  21  35  56  87 135 181 222 268 304 347
#     4  11  22  37  61  94 123 173 231 267 306 385
#     4  11  21  34  53  84 133 188 222 267 308 355
#     4  10  24  52  72  98 126 156 186 268 354 422
#
# _framework density 23.19763
#
# number of rings (size 3 to 8) (size 9 to 14) (size 15 to 20)
#    0.000    1.333    0.000    8.000    3.733    2.133 
#    0.000    0.000    0.000    0.000    0.000   44.800 
#    0.000    0.000    0.000    0.000    0.000    0.000 
#
# Total GULP energy -167115.788728 kJ/mol
# GULP energy per Si atom -5570.526291 kJ/mol
# Density = 2.314483 g / cm^3
# Si number density = 23.197630 Si / 1000 Ang^3
#
#
#
# Elastic Constant Matrix: (Units=GPa)
#
#
# Indices 1 2 3 4 5 6 
#
# 1 105.7121 24.9715 47.5983 -0.0670 -6.9847 -0.0307
# 2 24.9715 31.4969 30.0343 -0.2232 -5.1166 -0.0683
# 3 47.5983 30.0343 143.3327 -0.0601 -40.1989 -0.0444
# 4 -0.0670 -0.2232 -0.0601 37.3195 0.0161 12.1051
# 5 -6.9847 -5.1166 -40.1989 0.0161 45.1175 0.0186
# 6 -0.0307 -0.0683 -0.0444 12.1051 0.0186 24.8980
#
#
#
# Elastic Compliance Matrix: (Units=1/GPa)
#
#
# Indices 1 2 3 4 5 6 
#
# 1 0.012437 -0.007187 -0.003083 -0.000026 -0.001637 0.000004
# 2 -0.007187 0.044347 -0.007742 0.000247 -0.002982 -0.000019
# 3 -0.003083 -0.007742 0.012322 -0.000039 0.009623 0.000009
# 4 -0.000026 0.000247 -0.000039 0.031814 -0.000016 -0.015467
# 5 -0.001637 -0.002982 0.009623 -0.000016 0.030147 -0.000008
# 6 0.000004 -0.000019 0.000009 -0.015467 -0.000008 0.047684
#
#
# Mechanical properties :
#
#
# Convention : Reuss Voigt Hill
#
# Bulk Modulus (GPa) = 30.22791 53.97222 42.10006
# Shear Modulus (GPa) = 22.14327 33.32952 27.73640
#
# Velocity S-wave (km/s) = 3.09293 3.79458 3.46158
# Velocity P-wave (km/s) = 5.08073 6.52037 5.84504
#
# Compressibility (1/GPa) = 0.03308201
#
# Stress axis : x y z
#
# Youngs Moduli (GPa) = 80.40223 22.54954 81.15582
#
# Poissons Ratio (x) = 0.16205 0.25024
# Poissons Ratio (y) = 0.57781 0.62832
# Poissons Ratio (z) = 0.24792 0.17458
#
# Static dielectric constant tensor:
#      x y z
#    x 1.972700 0.000000 -0.023180 
#    y 0.000000 1.918830 0.000030 
#    z -0.023180 0.000030 1.936910 
# 
# From -- ./inp_files/169939.got.cif
#   From: 2010.05.17/outbox.cif.g08.bks.cpg/sg15_85_cif.got.tgz:169939.got - 2010.06.03 18:47:42.
