data_PCOD9272551
_publ_section_title
;
Structure prediction by ZEFSAII (Michael W. Deem and Ramdas Pophale) SiO2 
 PCOD9272551
Probable space group: C 2/C
;
_chemical_formula_sum "Si O2"
_cell_formula_units_Z 56
_cell_length_a 11.158939
_cell_length_b 15.735309
_cell_length_c 25.147139
_cell_angle_alpha 90.000000
_cell_angle_beta 138.975728
_cell_angle_gamma 90.000000
_cell_volume 2898.285947
_symmetry_space_group_name_H-M "C 2/C"
_symmetry_group_IT_number 15
_symmetry_cell_setting 'monoclinic'
loop_
_space_group_symop_operation_xyz
x,y,z
-x,y,1/2-z
-x,-y,-z
x,-y,1/2+z
1/2+x,1/2+y,z
1/2-x,1/2+y,1/2-z
1/2-x,1/2-y,-z
1/2+x,1/2-y,1/2+z
loop_
_atom_site_type_symbol
_atom_site_label
_atom_site_fract_x
_atom_site_fract_y
_atom_site_fract_z
Si Si1 0.000000 0.967796 0.750000
Si Si2 0.646237 0.936414 0.444611
Si Si3 0.266645 0.916403 0.268214
Si Si4 0.299569 0.314200 0.419290
Si Si5 0.117768 0.621612 0.449882
Si Si6 0.500000 0.906239 0.250000
Si Si7 0.473070 0.305443 0.109382
Si Si8 0.217277 0.619292 0.082997
O O1 0.898091 0.909907 0.673100
O O2 0.857777 0.024049 0.736564
O O3 0.446963 0.897066 0.363945
O O4 0.801162 0.881191 0.467429
O O5 0.678397 0.934310 0.517835
O O6 0.650987 0.034919 0.429088
O O7 0.363098 0.952273 0.245850
O O8 0.130360 0.842413 0.200558
O O9 0.459060 0.315440 0.429141
O O10 0.277835 0.218240 0.431056
O O11 0.125257 0.345419 0.327379
O O12 0.285812 0.641958 0.545867
O O13 0.076649 0.706030 0.401413
O O14 0.941155 0.607611 0.426923
#
# Coordination Sequence:
#
# PCOD9272551 Si02
#       8
#     4   8   8   8   8   4   8   8
#     4  12  23  36  62  93 116 158 204 249 308 374
#     4  11  21  36  58  89 123 152 198 262 302 349
#     4  10  21  36  59  88 118 156 204 246 306 362
#     4   9  19  36  58  84 111 163 203 240 300 365
#     4  10  20  37  58  84 117 158 200 247 304 363
#     4   8  17  38  58  77 114 160 198 251 290 366
#     4   9  20  38  61  82 114 164 206 239 303 376
#     4  11  22  36  57  88 124 154 198 253 305 367
#
# _framework density 19.321764999999999
#
# number of rings (size 3 to 8) (size 9 to 14) (size 15 to 20)
#    0.000    2.000    1.429    2.143    2.000    1.714 
#    0.000    1.429    0.000    5.143    0.000    0.000 
#    0.000    0.000    0.000    0.000    0.000    0.000 
#
# Total GULP energy -155948.099081 kJ/mol
# GULP energy per Si atom -5569.574967 kJ/mol
# Density = 1.927779 g / cm^3
# Si number density = 19.321765 Si / 1000 Ang^3
#
#
#
# Elastic Constant Matrix: (Units=GPa)
#
#
# Indices 1 2 3 4 5 6 
#
# 1 53.2673 25.2680 -5.5708 0.0000 10.9895 0.0000
# 2 25.2680 104.5983 11.0966 0.0000 -3.4184 0.0000
# 3 -5.5708 11.0966 93.1435 0.0000 -1.3332 0.0000
# 4 0.0000 0.0000 0.0000 14.2736 0.0000 0.4635
# 5 10.9895 -3.4184 -1.3332 0.0000 18.3058 0.0000
# 6 0.0000 0.0000 0.0000 0.4635 0.0000 16.2109
#
#
#
# Elastic Compliance Matrix: (Units=1/GPa)
#
#
# Indices 1 2 3 4 5 6 
#
# 1 0.025734 -0.006986 0.002134 0.000000 -0.016598 0.000000
# 2 -0.006986 0.011634 -0.001714 0.000000 0.006241 0.000000
# 3 0.002134 -0.001714 0.011057 0.000000 -0.000796 0.000000
# 4 0.000000 0.000000 0.000000 0.070125 0.000000 -0.002005
# 5 -0.016598 0.006241 -0.000796 0.000000 0.065699 0.000000
# 6 0.000000 0.000000 0.000000 -0.002005 0.000000 0.061744
#
#
# Mechanical properties :
#
#
# Convention : Reuss Voigt Hill
#
# Bulk Modulus (GPa) = 28.33472 34.73297 31.53384
# Shear Modulus (GPa) = 18.45770 24.43908 21.44839
#
# Velocity S-wave (km/s) = 3.09411 3.56033 3.33538
# Velocity P-wave (km/s) = 5.24035 5.90901 5.58469
#
# Compressibility (1/GPa) = 0.03529240
#
# Stress axis : x y z
#
# Youngs Moduli (GPa) = 38.85846 85.95689 90.44373
#
# Poissons Ratio (x) = 0.60045 -0.19299
# Poissons Ratio (y) = 0.27145 0.15506
# Poissons Ratio (z) = -0.08292 0.14737
#
# Static dielectric constant tensor:
#      x y z
#    x 1.714530 0.000000 0.009830 
#    y 0.000000 1.687590 0.000000 
#    z 0.009830 0.000000 1.667000 
# 
# From -- ./inp_files/198460.got.cif
#   From: 2010.05.17/outbox.cif.g08.bks.cpg/sg15_100_cif.got.tgz:198460.got - 2010.06.03 18:47:42.
