data_PCOD9272440
_publ_section_title
;
Structure prediction by ZEFSAII (Michael W. Deem and Ramdas Pophale) SiO2 
 PCOD9272440
Probable space group: C 2/C
;
_chemical_formula_sum "Si O2"
_cell_formula_units_Z 52
_cell_length_a 18.923526
_cell_length_b 19.600575
_cell_length_c 8.818414
_cell_angle_alpha 90.000000
_cell_angle_beta 64.783715
_cell_angle_gamma 90.000000
_cell_volume 2959.162581
_symmetry_space_group_name_H-M "C 2/C"
_symmetry_group_IT_number 15
_symmetry_cell_setting 'monoclinic'
loop_
_space_group_symop_operation_xyz
x,y,z
-x,y,1/2-z
-x,-y,-z
x,-y,1/2+z
1/2+x,1/2+y,z
1/2-x,1/2+y,1/2-z
1/2-x,1/2-y,-z
1/2+x,1/2-y,1/2+z
loop_
_atom_site_type_symbol
_atom_site_label
_atom_site_fract_x
_atom_site_fract_y
_atom_site_fract_z
Si Si1 0.550777 0.177122 0.065035
Si Si2 0.365352 0.591220 0.750866
Si Si3 0.287719 0.074833 0.191113
Si Si4 0.275527 0.828081 0.979683
Si Si5 0.500000 0.687999 0.750000
Si Si6 0.807590 0.972076 0.007320
Si Si7 0.970990 0.432063 0.444993
O O1 0.500000 0.147210 0.250000
O O2 0.640321 0.163641 0.020111
O O3 0.536186 0.258544 0.094330
O O4 0.514631 0.136999 0.959194
O O5 0.436008 0.640507 0.730331
O O6 0.358816 0.569050 0.582246
O O7 0.286412 0.630921 0.864914
O O8 0.361170 0.525760 0.865939
O O9 0.276936 0.140664 0.308800
O O10 0.255946 0.013575 0.330464
O O11 0.236737 0.070179 0.083696
O O12 0.378164 0.071365 0.060404
O O13 0.250000 0.750000 0.000000
O O14 0.000000 0.441511 0.250000
O O15 0.000000 0.500000 0.500000
#
# Coordination Sequence:
#
# PCOD9272440 Si02
#       7
#     8   8   8   8   4   8   8
#     4  10  21  39  57  84 120 151 199 239 281 360
#     4  10  21  37  64  87 115 155 194 249 301 347
#     4  10  20  37  56  84 122 152 197 243 285 352
#     4  11  20  38  63  84 113 162 197 233 299 355
#     4  10  20  40  66  82 114 152 198 242 302 346
#     4   9  21  37  58  88 118 148 201 247 291 354
#     4  12  25  35  57  88 121 163 193 241 295 344
#
# _framework density 17.572538999999999
#
# number of rings (size 3 to 8) (size 9 to 14) (size 15 to 20)
#    0.462    1.231    3.077    1.385    8.615    0.615 
#    0.000    2.308    0.000    0.000    0.000    0.000 
#    0.000    0.000    0.000    0.000    0.000    0.000 
#
# Total GULP energy -144869.027996 kJ/mol
# GULP energy per Si atom -5571.885692 kJ/mol
# Density = 1.753254 g / cm^3
# Si number density = 17.572539 Si / 1000 Ang^3
#
#
#
# Elastic Constant Matrix: (Units=GPa)
#
#
# Indices 1 2 3 4 5 6 
#
# 1 125.6122 61.6267 44.3009 0.0000 15.4190 0.0000
# 2 61.6267 107.4549 49.8385 0.0000 23.2333 0.0000
# 3 44.3009 49.8385 106.1354 0.0000 27.7997 0.0000
# 4 0.0000 0.0000 0.0000 9.0676 0.0000 18.5767
# 5 15.4190 23.2333 27.7997 0.0000 22.6703 0.0000
# 6 0.0000 0.0000 0.0000 18.5767 0.0000 24.3742
#
#
#
# Elastic Compliance Matrix: (Units=1/GPa)
#
#
# Indices 1 2 3 4 5 6 
#
# 1 0.011468 -0.005681 -0.002359 0.000000 0.000914 0.000000
# 2 -0.005681 0.015747 -0.002664 0.000000 -0.009008 0.000000
# 3 -0.002359 -0.002664 0.015501 0.000000 -0.014674 0.000000
# 4 0.000000 0.000000 0.000000 -0.196443 0.000000 0.149718
# 5 0.000914 -0.009008 -0.014674 0.000000 0.070714 0.000000
# 6 0.000000 0.000000 0.000000 0.149718 0.000000 -0.073079
#
#
# Mechanical properties :
#
#
# Convention : Reuss Voigt Hill
#
# Bulk Modulus (GPa) = 46.92781 72.30384 59.61583
# Shear Modulus (GPa) = -39.19032 23.45150 -7.86941
#
# Velocity S-wave (km/s) = -4.72763 3.65712 -2.11848
# Velocity P-wave (km/s) = 1.74282 7.68557 5.29294
#
# Compressibility (1/GPa) = 0.02130932
#
# Stress axis : x y z
#
# Youngs Moduli (GPa) = 87.20272 63.50259 64.51281
#
# Poissons Ratio (x) = 0.36073 0.15216
# Poissons Ratio (y) = 0.49536 0.17187
# Poissons Ratio (z) = 0.20568 0.16918
#
# Static dielectric constant tensor:
#      x y z
#    x 1.582730 0.000000 -0.015880 
#    y 0.000000 1.769580 0.000000 
#    z -0.015880 0.000000 1.558650 
# 
# From -- ./inp_files/48510.got.cif
#   From: 2010.05.17/outbox.cif.g08.bks.cpg/sg15_25_cif.got.tgz:48510.got - 2010.06.03 18:47:42.
