data_PCOD9272333
_publ_section_title
;
Structure prediction by ZEFSAII (Michael W. Deem and Ramdas Pophale) SiO2 
 PCOD9272333
Probable space group: C 2/C
;
_chemical_formula_sum "Si O2"
_cell_formula_units_Z 48
_cell_length_a 8.944109
_cell_length_b 27.513771
_cell_length_c 10.437012
_cell_angle_alpha 90.000000
_cell_angle_beta 118.169735
_cell_angle_gamma 90.000000
_cell_volume 2264.184345
_symmetry_space_group_name_H-M "C 2/C"
_symmetry_group_IT_number 15
_symmetry_cell_setting 'monoclinic'
loop_
_space_group_symop_operation_xyz
x,y,z
-x,y,1/2-z
-x,-y,-z
x,-y,1/2+z
1/2+x,1/2+y,z
1/2-x,1/2+y,1/2-z
1/2-x,1/2-y,-z
1/2+x,1/2-y,1/2+z
loop_
_atom_site_type_symbol
_atom_site_label
_atom_site_fract_x
_atom_site_fract_y
_atom_site_fract_z
Si Si1 0.701469 0.088225 0.809800
Si Si2 0.500000 0.237056 0.250000
Si Si3 0.500000 0.773657 0.250000
Si Si4 0.167988 0.189186 0.162348
Si Si5 0.194158 0.898923 0.853136
Si Si6 0.886193 0.510267 0.329175
Si Si7 0.351944 0.318964 0.374632
O O1 0.500000 0.094055 0.750000
O O2 0.786470 0.133759 0.771296
O O3 0.727908 0.037221 0.748806
O O4 0.766701 0.092407 0.981962
O O5 0.336342 0.203890 0.152427
O O6 0.428702 0.273418 0.329074
O O7 0.575023 0.738150 0.172783
O O8 0.670482 0.802077 0.363275
O O9 0.221912 0.154879 0.303417
O O10 0.013479 0.164599 0.023955
O O11 0.296550 0.939028 0.816630
O O12 0.000000 0.909547 0.750000
O O13 0.000000 0.514873 0.250000
O O14 0.000000 0.500000 0.500000
#
# Coordination Sequence:
#
# PCOD9272333 Si02
#       7
#     8   4   4   8   8   8   8
#     4  11  22  45  71 100 134 181 235 283 353 432
#     4  10  26  42  58  98 144 186 232 284 360 404
#     4  10  20  36  70  92 122 174 222 280 344 404
#     4  11  22  42  63  98 132 178 229 289 343 417
#     4  12  24  44  72 103 137 177 237 296 354 425
#     4  11  24  48  73 103 140 183 235 287 359 432
#     4  11  21  42  64  97 135 176 228 287 341 423
#
# _framework density 21.199687000000001
#
# number of rings (size 3 to 8) (size 9 to 14) (size 15 to 20)
#    0.000    1.000    6.667    1.000    1.167    2.000 
#    7.500    0.000    0.000    0.000    0.000    0.000 
#    0.000    0.000    0.000    0.000    0.000    0.000 
#
# Total GULP energy -133760.113846 kJ/mol
# GULP energy per Si atom -5573.338077 kJ/mol
# Density = 2.115144 g / cm^3
# Si number density = 21.199687 Si / 1000 Ang^3
#
#
#
# Elastic Constant Matrix: (Units=GPa)
#
#
# Indices 1 2 3 4 5 6 
#
# 1 113.1937 35.7791 37.4876 0.0000 20.3558 0.0000
# 2 35.7791 107.8566 36.4860 0.0000 4.9403 0.0000
# 3 37.4876 36.4860 113.5330 0.0000 12.5001 0.0000
# 4 0.0000 0.0000 0.0000 29.3127 0.0000 8.3410
# 5 20.3558 4.9403 12.5001 0.0000 28.1228 0.0000
# 6 0.0000 0.0000 0.0000 8.3410 0.0000 123.9109
#
#
#
# Elastic Compliance Matrix: (Units=1/GPa)
#
#
# Indices 1 2 3 4 5 6 
#
# 1 0.011712 -0.002824 -0.002188 0.000000 -0.007009 0.000000
# 2 -0.002824 0.011087 -0.002777 0.000000 0.001331 0.000000
# 3 -0.002188 -0.002777 0.010719 0.000000 -0.002693 0.000000
# 4 0.000000 0.000000 0.000000 0.034781 0.000000 -0.002341
# 5 -0.007009 0.001331 -0.002693 0.000000 0.041595 0.000000
# 6 0.000000 0.000000 0.000000 -0.002341 0.000000 0.008228
#
#
# Mechanical properties :
#
#
# Convention : Reuss Voigt Hill
#
# Bulk Modulus (GPa) = 55.74057 61.56541 58.65299
# Shear Modulus (GPa) = 35.79602 51.25798 43.52700
#
# Velocity S-wave (km/s) = 4.11361 4.92251 4.53613
# Velocity P-wave (km/s) = 6.99376 7.83658 7.42713
#
# Compressibility (1/GPa) = 0.01794025
#
# Stress axis : x y z
#
# Youngs Moduli (GPa) = 85.38186 90.19704 93.28862
#
# Poissons Ratio (x) = 0.25472 0.20412
# Poissons Ratio (y) = 0.24112 0.25906
# Poissons Ratio (z) = 0.18682 0.25048
#
# Static dielectric constant tensor:
#      x y z
#    x 1.768080 0.000000 -0.018360 
#    y 0.000000 1.851880 0.000000 
#    z -0.018360 0.000000 1.829950 
# 
# From -- ./inp_files/80975.got.cif
#   From: 2010.05.17/outbox.cif.g08.bks.cpg/sg15_41_cif.got.tgz:80975.got - 2010.06.03 18:47:42.
