data_PCOD9272644
_publ_section_title
;
Structure prediction by ZEFSAII (Michael W. Deem and Ramdas Pophale) SiO2 
 PCOD9272644
Probable space group: C 2/C
;
_chemical_formula_sum "Si O2"
_cell_formula_units_Z 52
_cell_length_a 8.220751
_cell_length_b 16.387592
_cell_length_c 26.492911
_cell_angle_alpha 90.000000
_cell_angle_beta 137.387694
_cell_angle_gamma 90.000000
_cell_volume 2416.388891
_symmetry_space_group_name_H-M "C 2/C"
_symmetry_group_IT_number 15
_symmetry_cell_setting 'monoclinic'
loop_
_space_group_symop_operation_xyz
x,y,z
-x,y,1/2-z
-x,-y,-z
x,-y,1/2+z
1/2+x,1/2+y,z
1/2-x,1/2+y,1/2-z
1/2-x,1/2-y,-z
1/2+x,1/2-y,1/2+z
loop_
_atom_site_type_symbol
_atom_site_label
_atom_site_fract_x
_atom_site_fract_y
_atom_site_fract_z
Si Si1 0.663995 0.769592 0.423520
Si Si2 0.310290 0.732248 0.636686
Si Si3 0.500000 0.537493 0.250000
Si Si4 0.854844 0.092337 0.794815
Si Si5 0.191271 0.428128 0.367753
Si Si6 0.911437 0.677450 0.013885
Si Si7 0.543377 0.904542 0.878598
O O1 0.750000 0.750000 0.500000
O O2 0.379087 0.759377 0.361546
O O3 0.736148 0.859160 0.420115
O O4 0.812271 0.707358 0.422855
O O5 0.543770 0.679175 0.698974
O O6 0.176316 0.675592 0.563579
O O7 0.374434 0.820566 0.629172
O O8 0.499896 0.478068 0.201085
O O9 0.755028 0.584119 0.306523
O O10 0.581529 0.085524 0.713732
O O11 0.853433 0.083291 0.855124
O O12 0.184949 0.519222 0.387655
O O13 0.893581 0.602888 0.047752
O O14 0.750000 0.750000 0.000000
#
# Coordination Sequence:
#
# PCOD9272644 Si02
#       7
#     8   8   4   8   8   8   8
#     4  10  21  39  61  87 121 159 200 241 293 362
#     4  10  20  37  59  86 117 157 200 240 292 358
#     4  10  22  40  58  88 120 152 198 252 306 358
#     4  10  21  40  63  85 119 160 199 245 305 368
#     4  10  21  39  61  89 122 157 200 253 304 352
#     4   9  19  37  57  82 115 152 195 238 287 354
#     4  10  21  37  60  89 119 152 197 250 296 347
#
# _framework density 21.519715000000001
#
# number of rings (size 3 to 8) (size 9 to 14) (size 15 to 20)
#    0.000    2.154    0.000    3.692    0.000    3.692 
#    0.000   26.923    0.000    0.000    0.000    0.000 
#    0.000    0.000    0.000    0.000    0.000    0.000 
#
# Total GULP energy -145094.437038 kJ/mol
# GULP energy per Si atom -5580.555271 kJ/mol
# Density = 2.147074 g / cm^3
# Si number density = 21.519715 Si / 1000 Ang^3
#
#
#
# Elastic Constant Matrix: (Units=GPa)
#
#
# Indices 1 2 3 4 5 6 
#
# 1 150.1349 56.7326 28.7793 0.0000 5.6983 0.0000
# 2 56.7326 115.1079 36.9352 0.0000 -8.4279 0.0000
# 3 28.7793 36.9352 52.3349 -0.0001 -12.9375 0.0000
# 4 0.0000 0.0000 -0.0001 31.1987 0.0000 -9.0045
# 5 5.6983 -8.4279 -12.9375 0.0000 26.1266 0.0000
# 6 0.0000 0.0000 0.0000 -9.0045 0.0000 25.8610
#
#
#
# Elastic Compliance Matrix: (Units=1/GPa)
#
#
# Indices 1 2 3 4 5 6 
#
# 1 0.008884 -0.003595 -0.003548 0.000000 -0.004854 0.000000
# 2 -0.003595 0.012689 -0.006577 0.000000 0.001620 0.000000
# 3 -0.003548 -0.006577 0.028906 0.000000 0.012966 0.000000
# 4 0.000000 0.000000 0.000000 0.035634 0.000000 0.012407
# 5 -0.004854 0.001620 0.012966 0.000000 0.046277 0.000000
# 6 0.000000 0.000000 0.000000 0.012407 0.000000 0.042988
#
#
# Mechanical properties :
#
#
# Convention : Reuss Voigt Hill
#
# Bulk Modulus (GPa) = 43.40796 62.49686 52.95241
# Shear Modulus (GPa) = 23.75333 29.64595 26.69964
#
# Velocity S-wave (km/s) = 3.32594 3.71565 3.52619
# Velocity P-wave (km/s) = 5.91306 6.89296 6.42172
#
# Compressibility (1/GPa) = 0.02303725
#
# Stress axis : x y z
#
# Youngs Moduli (GPa) = 112.56700 78.81028 34.59523
#
# Poissons Ratio (x) = 0.28336 0.12273
# Poissons Ratio (y) = 0.40473 0.22754
# Poissons Ratio (z) = 0.39934 0.51836
#
# Static dielectric constant tensor:
#      x y z
#    x 1.811460 0.000000 0.014110 
#    y 0.000000 1.744730 0.000000 
#    z 0.014110 0.000000 1.895690 
# 
# From -- ./inp_files/308340.got.cif
#   From: 2010.05.17/outbox.cif.g08.bks.cpg/sg15_155_cif.got.tgz:308340.got - 2010.06.03 18:47:42.
