data_PCOD9272433
_publ_section_title
;
Structure prediction by ZEFSAII (Michael W. Deem and Ramdas Pophale) SiO2 
 PCOD9272433
Probable space group: C 2/C
;
_chemical_formula_sum "Si O2"
_cell_formula_units_Z 60
_cell_length_a 20.691010
_cell_length_b 15.474279
_cell_length_c 12.687128
_cell_angle_alpha 90.000000
_cell_angle_beta 121.809829
_cell_angle_gamma 90.000000
_cell_volume 3452.020197
_symmetry_space_group_name_H-M "C 2/C"
_symmetry_group_IT_number 15
_symmetry_cell_setting 'monoclinic'
loop_
_space_group_symop_operation_xyz
x,y,z
-x,y,1/2-z
-x,-y,-z
x,-y,1/2+z
1/2+x,1/2+y,z
1/2-x,1/2+y,1/2-z
1/2-x,1/2-y,-z
1/2+x,1/2-y,1/2+z
loop_
_atom_site_type_symbol
_atom_site_label
_atom_site_fract_x
_atom_site_fract_y
_atom_site_fract_z
Si Si1 0.814242 0.245977 0.645233
Si Si2 0.887863 0.413625 0.626196
Si Si3 0.125953 0.937876 0.231606
Si Si4 0.633173 0.379642 0.998235
Si Si5 0.243869 0.545378 0.052561
Si Si6 0.155195 0.308510 0.605143
Si Si7 0.973059 0.425043 0.900859
Si Si8 0.000000 0.035935 0.250000
O O1 0.750000 0.250000 0.500000
O O2 0.870975 0.318492 0.653323
O O3 0.850821 0.151851 0.690928
O O4 0.796561 0.277944 0.749851
O O5 0.815505 0.469432 0.528530
O O6 0.923318 0.459939 0.759571
O O7 0.948903 0.397609 0.587644
O O8 0.048447 0.976151 0.212138
O O9 0.193132 0.004356 0.316615
O O10 0.122905 0.920889 0.104898
O O11 0.708678 0.416797 0.005685
O O12 0.561358 0.406755 0.865477
O O13 0.638942 0.277146 0.023462
O O14 0.199171 0.620959 0.074127
O O15 0.077794 0.354003 0.582053
O O16 0.000000 0.500000 0.000000
#
# Coordination Sequence:
#
# PCOD9272433 Si02
#       8
#     8   8   8   8   8   8   8   4
#     4  10  20  37  58  90 118 148 195 252 294 345
#     4  10  21  35  59  87 116 151 197 243 293 357
#     4  10  22  37  65  86 115 155 197 245 301 346
#     4  10  23  40  58  89 119 159 197 245 295 352
#     4  11  21  37  62  86 119 158 195 245 299 362
#     4  10  22  38  59  82 126 153 200 243 296 358
#     4  10  20  37  56  84 114 155 193 241 295 347
#     4  10  22  42  62  86 120 154 202 240 290 362
#
# _framework density 17.381126999999999
#
# number of rings (size 3 to 8) (size 9 to 14) (size 15 to 20)
#    0.000    1.867    2.667    0.800    3.733    3.200 
#    2.400    2.667    0.000    0.000    0.000    0.000 
#    0.000    0.000    0.000    0.000    0.000    0.000 
#
# Total GULP energy -167141.572892 kJ/mol
# GULP energy per Si atom -5571.385763 kJ/mol
# Density = 1.734157 g / cm^3
# Si number density = 17.381127 Si / 1000 Ang^3
#
#
#
# Elastic Constant Matrix: (Units=GPa)
#
#
# Indices 1 2 3 4 5 6 
#
# 1 135.7827 65.2120 51.0287 0.0000 -8.4129 0.0000
# 2 65.2120 109.1822 45.4177 0.0000 -13.5615 0.0000
# 3 51.0287 45.4177 82.2879 0.0000 -6.6957 0.0000
# 4 0.0000 0.0000 0.0000 30.2583 0.0000 -7.9554
# 5 -8.4129 -13.5615 -6.6957 0.0000 22.7744 0.0000
# 6 0.0000 0.0000 0.0000 -7.9554 0.0000 19.8347
#
#
#
# Elastic Compliance Matrix: (Units=1/GPa)
#
#
# Indices 1 2 3 4 5 6 
#
# 1 0.011387 -0.005021 -0.004294 0.000000 -0.000046 0.000000
# 2 -0.005021 0.014755 -0.004576 0.000000 0.005586 0.000000
# 3 -0.004294 -0.004576 0.017406 0.000000 0.000807 0.000000
# 4 0.000000 0.000000 0.000000 0.036945 0.000000 0.014818
# 5 -0.000046 0.005586 0.000807 0.000000 0.047456 0.000000
# 6 0.000000 0.000000 0.000000 0.014818 0.000000 0.056360
#
#
# Mechanical properties :
#
#
# Convention : Reuss Voigt Hill
#
# Bulk Modulus (GPa) = 63.42163 72.28552 67.85358
# Shear Modulus (GPa) = 23.00490 25.61312 24.30901
#
# Velocity S-wave (km/s) = 3.64202 3.84294 3.74383
# Velocity P-wave (km/s) = 7.36571 7.83388 7.60340
#
# Compressibility (1/GPa) = 0.01576749
#
# Stress axis : x y z
#
# Youngs Moduli (GPa) = 87.82103 67.77357 57.44998
#
# Poissons Ratio (x) = 0.34026 0.24669
# Poissons Ratio (y) = 0.44091 0.26289
# Poissons Ratio (z) = 0.37710 0.31013
#
# Static dielectric constant tensor:
#      x y z
#    x 1.516130 0.000000 0.009100 
#    y 0.000000 1.678030 0.000000 
#    z 0.009100 0.000000 1.621490 
# 
# From -- ./inp_files/105757.got.cif
#   From: 2010.05.17/outbox.cif.g08.bks.cpg/sg15_53_cif.got.tgz:105757.got - 2010.06.03 18:47:42.
