data_PCOD9272269
_publ_section_title
;
Structure prediction by ZEFSAII (Michael W. Deem and Ramdas Pophale) SiO2 
 PCOD9272269
Probable space group: C 2/C
;
_chemical_formula_sum "Si O2"
_cell_formula_units_Z 56
_cell_length_a 17.208697
_cell_length_b 9.321563
_cell_length_c 22.484651
_cell_angle_alpha 90.000000
_cell_angle_beta 47.447972
_cell_angle_gamma 90.000000
_cell_volume 2657.003114
_symmetry_space_group_name_H-M "C 2/C"
_symmetry_group_IT_number 15
_symmetry_cell_setting 'monoclinic'
loop_
_space_group_symop_operation_xyz
x,y,z
-x,y,1/2-z
-x,-y,-z
x,-y,1/2+z
1/2+x,1/2+y,z
1/2-x,1/2+y,1/2-z
1/2-x,1/2-y,-z
1/2+x,1/2-y,1/2+z
loop_
_atom_site_type_symbol
_atom_site_label
_atom_site_fract_x
_atom_site_fract_y
_atom_site_fract_z
Si Si1 0.949839 0.059669 0.950217
Si Si2 0.052199 0.767277 0.493507
Si Si3 0.248188 0.923891 0.630431
Si Si4 0.855919 0.344896 0.148780
Si Si5 0.829585 0.177936 0.911280
Si Si6 0.242113 0.607976 0.139644
Si Si7 0.396443 0.166162 0.763700
O O1 0.844399 0.087017 0.044443
O O2 0.962050 0.888990 0.948310
O O3 0.930064 0.125048 0.896136
O O4 0.041298 0.142656 0.937992
O O5 0.158300 0.679042 0.440292
O O6 0.951853 0.664336 0.552067
O O7 0.150933 0.821695 0.696169
O O8 0.288619 0.015606 0.666081
O O9 0.221166 0.039683 0.593821
O O10 0.783885 0.204483 0.172826
O O11 0.906845 0.345670 0.187221
O O12 0.841131 0.294889 0.853786
O O13 0.750000 0.250000 0.000000
O O14 0.190430 0.456086 0.178070
O O15 0.500000 0.141673 0.750000
#
# Coordination Sequence:
#
# PCOD9272269 Si02
#       7
#     8   8   8   8   8   8   8
#     4   9  18  35  61  97 123 151 199 258 313 360
#     4  10  20  36  66  97 120 158 207 255 309 370
#     4  11  23  42  65  94 126 165 207 257 310 371
#     4  10  23  41  64  89 126 165 204 253 311 376
#     4   9  20  37  62  90 124 161 201 255 316 363
#     4   9  19  42  60  82 125 165 203 247 310 372
#     4  12  26  41  60  91 126 166 214 256 304 365
#
# _framework density 21.076376
#
# number of rings (size 3 to 8) (size 9 to 14) (size 15 to 20)
#    0.000    2.000    1.429    2.143    2.000    4.000 
#    0.000    2.857    0.000    0.000    0.000    0.000 
#    0.000    0.000    0.000    0.000    0.000    0.000 
#
# Total GULP energy -156288.230178 kJ/mol
# GULP energy per Si atom -5581.722506 kJ/mol
# Density = 2.102841 g / cm^3
# Si number density = 21.076376 Si / 1000 Ang^3
#
#
#
# Elastic Constant Matrix: (Units=GPa)
#
#
# Indices 1 2 3 4 5 6 
#
# 1 97.3587 15.6779 6.5973 0.0000 23.7716 0.0000
# 2 15.6779 91.8904 8.1287 0.0000 7.7735 0.0000
# 3 6.5973 8.1287 15.5911 0.0000 5.8395 0.0000
# 4 0.0000 0.0000 0.0000 9.2928 0.0000 0.5230
# 5 23.7716 7.7735 5.8395 0.0000 26.0095 0.0000
# 6 0.0000 0.0000 0.0000 0.5230 0.0000 29.3123
#
#
#
# Elastic Compliance Matrix: (Units=1/GPa)
#
#
# Indices 1 2 3 4 5 6 
#
# 1 0.013372 -0.001235 -0.000628 0.000000 -0.011712 0.000000
# 2 -0.001235 0.011646 -0.005097 0.000000 -0.001207 0.000000
# 3 -0.000628 -0.005097 0.072362 0.000000 -0.014149 0.000000
# 4 0.000000 0.000000 0.000000 0.107718 0.000000 -0.001922
# 5 -0.011712 -0.001207 -0.014149 0.000000 0.052689 0.000000
# 6 0.000000 0.000000 0.000000 -0.001922 0.000000 0.034150
#
#
# Mechanical properties :
#
#
# Convention : Reuss Voigt Hill
#
# Bulk Modulus (GPa) = 11.98178 29.51644 20.74911
# Shear Modulus (GPa) = 14.98450 24.55200 19.76825
#
# Velocity S-wave (km/s) = 2.66928 3.41678 3.06589
# Velocity P-wave (km/s) = 3.89838 5.44065 4.73276
#
# Compressibility (1/GPa) = 0.08346006
#
# Stress axis : x y z
#
# Youngs Moduli (GPa) = 74.78137 85.86409 13.81942
#
# Poissons Ratio (x) = 0.10606 0.00868
# Poissons Ratio (y) = 0.09237 0.07044
# Poissons Ratio (z) = 0.04695 0.43766
#
# Static dielectric constant tensor:
#      x y z
#    x 1.777760 0.000000 0.014800 
#    y 0.000000 1.797670 0.000000 
#    z 0.014800 0.000000 1.747050 
# 
# From -- ./inp_files/276530.got.cif
#   From: 2010.05.17/outbox.cif.g08.bks.cpg/sg15_139_cif.got.tgz:276530.got - 2010.06.03 18:47:42.
