data_PCOD9272210
_publ_section_title
;
Structure prediction by ZEFSAII (Michael W. Deem and Ramdas Pophale) SiO2 
 PCOD9272210
Probable space group: C 2/C
;
_chemical_formula_sum "Si O2"
_cell_formula_units_Z 44
_cell_length_a 21.290075
_cell_length_b 16.827994
_cell_length_c 5.444045
_cell_angle_alpha 90.000000
_cell_angle_beta 76.290971
_cell_angle_gamma 90.000000
_cell_volume 1894.869563
_symmetry_space_group_name_H-M "C 2/C"
_symmetry_group_IT_number 15
_symmetry_cell_setting 'monoclinic'
loop_
_space_group_symop_operation_xyz
x,y,z
-x,y,1/2-z
-x,-y,-z
x,-y,1/2+z
1/2+x,1/2+y,z
1/2-x,1/2+y,1/2-z
1/2-x,1/2-y,-z
1/2+x,1/2-y,1/2+z
loop_
_atom_site_type_symbol
_atom_site_label
_atom_site_fract_x
_atom_site_fract_y
_atom_site_fract_z
Si Si1 0.000000 0.950043 0.750000
Si Si2 0.500000 0.259126 0.250000
Si Si3 0.645226 0.675797 0.632438
Si Si4 0.500000 0.154390 0.750000
Si Si5 0.870330 0.450545 0.390425
Si Si6 0.868449 0.856672 0.856909
Si Si7 0.187780 0.290865 0.940357
O O1 0.062959 0.896467 0.706945
O O2 0.000000 0.000000 0.500000
O O3 0.432794 0.309910 0.305997
O O4 0.497676 0.206221 0.500046
O O5 0.666319 0.632387 0.367620
O O6 0.677340 0.761137 0.668957
O O7 0.662239 0.622816 0.853487
O O8 0.561708 0.096495 0.667265
O O9 0.865571 0.510044 0.626417
O O10 0.818304 0.381499 0.492436
O O11 0.870374 0.760314 0.878430
O O12 0.250000 0.250000 0.000000
#
# Coordination Sequence:
#
# PCOD9272210 Si02
#       7
#     4   4   8   4   8   8   8
#     4  12  24  42  68 102 146 176 214 284 358 404
#     4  12  18  32  62  97 128 161 212 266 322 384
#     4  10  20  36  65  96 129 161 229 271 326 376
#     4  12  22  38  60  91 140 173 204 256 344 408
#     4  12  26  44  65 101 138 174 216 277 346 395
#     4  10  22  40  64  98 126 175 225 270 329 398
#     4  10  25  46  71  97 130 183 237 273 322 402
#
# _framework density 23.220596
#
# number of rings (size 3 to 8) (size 9 to 14) (size 15 to 20)
#    1.091    0.000    1.818    6.000    2.545    1.455 
#    0.000    1.818    0.000    0.000    0.000    0.000 
#    0.000    0.000    0.000    0.000    0.000    0.000 
#
# Total GULP energy -122751.678617 kJ/mol
# GULP energy per Si atom -5579.621755 kJ/mol
# Density = 2.316774 g / cm^3
# Si number density = 23.220596 Si / 1000 Ang^3
#
#
#
# Elastic Constant Matrix: (Units=GPa)
#
#
# Indices 1 2 3 4 5 6 
#
# 1 80.2046 39.5673 23.6713 0.0000 7.1123 0.0000
# 2 39.5673 74.6859 42.9668 0.0000 -0.8922 0.0000
# 3 23.6713 42.9668 203.7141 0.0000 29.8411 0.0000
# 4 0.0000 0.0000 0.0000 26.9163 0.0000 -31.0398
# 5 7.1123 -0.8922 29.8411 0.0000 32.8725 0.0000
# 6 0.0000 0.0000 0.0000 -31.0398 0.0000 -62.0351
#
#
#
# Elastic Compliance Matrix: (Units=1/GPa)
#
#
# Indices 1 2 3 4 5 6 
#
# 1 0.017469 -0.009717 0.000706 0.000000 -0.004684 0.000000
# 2 -0.009717 0.021076 -0.004277 0.000000 0.006557 0.000000
# 3 0.000706 -0.004277 0.006653 0.000000 -0.006308 0.000000
# 4 0.000000 0.000000 0.000000 0.023559 0.000000 -0.011788
# 5 -0.004684 0.006557 -0.006308 0.000000 0.037338 0.000000
# 6 0.000000 0.000000 0.000000 -0.011788 0.000000 -0.010222
#
#
# Mechanical properties :
#
#
# Convention : Reuss Voigt Hill
#
# Bulk Modulus (GPa) = 53.69902 63.44616 58.57259
# Shear Modulus (GPa) = 38.86372 16.37736 27.62054
#
# Velocity S-wave (km/s) = 4.09550 2.65862 3.45263
# Velocity P-wave (km/s) = 6.74833 6.06687 6.41665
#
# Compressibility (1/GPa) = 0.01862231
#
# Stress axis : x y z
#
# Youngs Moduli (GPa) = 57.24547 47.44798 150.31041
#
# Poissons Ratio (x) = 0.46103 -0.10607
# Poissons Ratio (y) = 0.55623 0.64282
# Poissons Ratio (z) = -0.04040 0.20292
#
# Static dielectric constant tensor:
#      x y z
#    x 1.899070 0.000000 0.001080 
#    y 0.000000 1.867360 0.000000 
#    z 0.001080 0.000000 2.018670 
# 
# From -- ./inp_files/15125.got.cif
#   From: 2010.05.17/outbox.cif.g08.bks.cpg/sg15_8_cif.got.tgz:15125.got - 2010.06.03 18:47:42.
