data_PCOD9272632
_publ_section_title
;
Structure prediction by ZEFSAII (Michael W. Deem and Ramdas Pophale) SiO2 
 PCOD9272632
Probable space group: C 2/C
;
_chemical_formula_sum "Si O2"
_cell_formula_units_Z 48
_cell_length_a 30.869933
_cell_length_b 14.521581
_cell_length_c 15.348129
_cell_angle_alpha 90.000000
_cell_angle_beta 18.559865
_cell_angle_gamma 90.000000
_cell_volume 2189.955536
_symmetry_space_group_name_H-M "C 2/C"
_symmetry_group_IT_number 15
_symmetry_cell_setting 'monoclinic'
loop_
_space_group_symop_operation_xyz
x,y,z
-x,y,1/2-z
-x,-y,-z
x,-y,1/2+z
1/2+x,1/2+y,z
1/2-x,1/2+y,1/2-z
1/2-x,1/2-y,-z
1/2+x,1/2-y,1/2+z
loop_
_atom_site_type_symbol
_atom_site_label
_atom_site_fract_x
_atom_site_fract_y
_atom_site_fract_z
Si Si1 0.500000 0.900319 0.250000
Si Si2 0.000000 0.783335 0.250000
Si Si3 0.293735 0.768340 0.726711
Si Si4 0.595441 0.394685 0.899958
Si Si5 0.617484 0.084053 0.710131
Si Si6 0.112836 0.891093 0.362591
Si Si7 0.652992 0.116033 0.208376
O O1 0.367933 0.837495 0.519234
O O2 0.460850 0.946521 0.231066
O O3 0.855563 0.733103 0.514223
O O4 0.966764 0.843948 0.398764
O O5 0.400145 0.685845 0.539900
O O6 0.279478 0.834492 0.838547
O O7 0.744266 0.366416 0.580797
O O8 0.613717 0.503131 0.889324
O O9 0.494019 0.386021 0.011867
O O10 0.654920 0.995309 0.697701
O O11 0.505814 0.140860 0.977831
O O12 0.258267 0.860573 0.044247
#
# Coordination Sequence:
#
# PCOD9272632 Si02
#       7
#     4   4   8   8   8   8   8
#     4  10  20  37  59  84 122 162 188 252 300 346
#     4  12  22  37  63  90 120 156 204 250 304 352
#     4  11  22  38  62  85 123 156 195 252 303 348
#     4  10  21  38  61  86 113 156 203 240 291 366
#     4   9  18  35  57  86 115 152 203 234 292 351
#     4  10  21  39  61  84 117 157 198 242 296 358
#     4   9  18  34  60  83 114 157 192 238 288 354
#
# _framework density 21.918254000000001
#
# number of rings (size 3 to 8) (size 9 to 14) (size 15 to 20)
#    0.000    2.000    3.333    0.500    0.000    0.667 
#    0.000    8.333    0.000    0.000    0.000    0.000 
#    0.000    0.000    0.000    0.000    0.000    0.000 
#
# Total GULP energy -133633.661115 kJ/mol
# GULP energy per Si atom -5568.069213 kJ/mol
# Density = 2.186837 g / cm^3
# Si number density = 21.918254 Si / 1000 Ang^3
#
#
#
# Elastic Constant Matrix: (Units=GPa)
#
#
# Indices 1 2 3 4 5 6 
#
# 1 48.9562 32.9035 7.1746 0.0000 -14.1671 0.0000
# 2 32.9035 38.4203 8.5803 -0.0001 -5.8749 0.0000
# 3 7.1746 8.5803 102.7054 -0.0001 -10.7319 0.0000
# 4 0.0000 -0.0001 -0.0001 12.0805 0.0000 -2.7520
# 5 -14.1671 -5.8749 -10.7319 0.0000 29.6587 0.0000
# 6 0.0000 0.0000 0.0000 -2.7520 0.0000 14.4042
#
#
#
# Elastic Compliance Matrix: (Units=1/GPa)
#
#
# Indices 1 2 3 4 5 6 
#
# 1 0.056266 -0.045770 0.001823 0.000000 0.018470 0.000000
# 2 -0.045770 0.064379 -0.003256 0.000000 -0.010289 0.000000
# 3 0.001823 -0.003256 0.010294 0.000000 0.003951 0.000000
# 4 0.000000 0.000000 0.000000 0.086545 0.000000 0.016535
# 5 0.018470 -0.010289 0.003951 0.000000 0.041931 0.000000
# 6 0.000000 0.000000 0.000000 0.016535 0.000000 0.072583
#
#
# Mechanical properties :
#
#
# Convention : Reuss Voigt Hill
#
# Bulk Modulus (GPa) = 27.37162 31.93318 29.65240
# Shear Modulus (GPa) = 11.40037 20.65692 16.02864
#
# Velocity S-wave (km/s) = 2.28311 3.07327 2.70717
# Velocity P-wave (km/s) = 4.41195 5.21480 4.83009
#
# Compressibility (1/GPa) = 0.03653419
#
# Stress axis : x y z
#
# Youngs Moduli (GPa) = 17.77269 15.53291 97.14322
#
# Poissons Ratio (x) = 0.71094 -0.17711
# Poissons Ratio (y) = 0.81345 0.31632
# Poissons Ratio (z) = -0.03240 0.05058
#
# Static dielectric constant tensor:
#      x y z
#    x 1.856880 0.000000 -0.012750 
#    y 0.000000 1.810810 0.000000 
#    z -0.012750 0.000000 1.865550 
# 
# From -- ./inp_files/182491.got.cif
#   From: 2010.05.17/outbox.cif.g08.bks.cpg/sg15_92_cif.got.tgz:182491.got - 2010.06.03 18:47:42.
