data_PCOD9272948
_publ_section_title
;
Structure prediction by ZEFSAII (Michael W. Deem and Ramdas Pophale) SiO2 
 PCOD9272948
Probable space group: C 2/C
;
_chemical_formula_sum "Si O2"
_cell_formula_units_Z 56
_cell_length_a 19.435121
_cell_length_b 8.723618
_cell_length_c 20.555288
_cell_angle_alpha 90.000000
_cell_angle_beta 127.058261
_cell_angle_gamma 90.000000
_cell_volume 2781.140577
_symmetry_space_group_name_H-M "C 2/C"
_symmetry_group_IT_number 15
_symmetry_cell_setting 'monoclinic'
loop_
_space_group_symop_operation_xyz
x,y,z
-x,y,1/2-z
-x,-y,-z
x,-y,1/2+z
1/2+x,1/2+y,z
1/2-x,1/2+y,1/2-z
1/2-x,1/2-y,-z
1/2+x,1/2-y,1/2+z
loop_
_atom_site_type_symbol
_atom_site_label
_atom_site_fract_x
_atom_site_fract_y
_atom_site_fract_z
Si Si1 0.199706 0.866569 0.384222
Si Si2 0.980509 0.652390 0.602811
Si Si3 0.950610 0.839651 0.973586
Si Si4 0.168425 0.634926 0.771636
Si Si5 0.614005 0.173287 0.441311
Si Si6 0.738553 0.318148 0.698128
Si Si7 0.829776 0.210949 0.092388
O O1 0.292003 0.851518 0.472968
O O2 0.133368 0.752797 0.383273
O O3 0.216518 0.812072 0.320562
O O4 0.173869 0.042061 0.379158
O O5 0.935004 0.488003 0.584741
O O6 0.916163 0.771118 0.600112
O O7 0.999465 0.710703 0.540461
O O8 0.070989 0.648487 0.691398
O O9 0.855584 0.851686 0.886935
O O10 0.936961 0.786068 0.039573
O O11 0.000000 0.000000 0.000000
O O12 0.205054 0.469363 0.774954
O O13 0.223902 0.757597 0.762262
O O14 0.172524 0.668658 0.850035
O O15 0.750000 0.250000 0.000000
#
# Coordination Sequence:
#
# PCOD9272948 Si02
#       7
#     8   8   8   8   8   8   8
#     4  10  21  38  64  94 120 160 217 259 313 377
#     4  11  23  41  60  94 128 171 212 265 322 381
#     4  10  22  36  61  95 128 162 214 270 313 376
#     4  11  25  43  63  93 132 170 216 258 326 387
#     4  10  20  37  61  91 126 159 209 265 312 377
#     4  10  23  42  65  90 130 171 210 264 317 385
#     4  12  24  40  68  94 126 170 215 268 324 377
#
# _framework density 20.135624
#
# number of rings (size 3 to 8) (size 9 to 14) (size 15 to 20)
#    0.000    1.429    1.429    3.429    6.000    1.143 
#    0.000    2.857    0.000    0.000    0.000    0.000 
#    0.000    0.000    0.000    0.000    0.000    0.000 
#
# Total GULP energy -156539.669912 kJ/mol
# GULP energy per Si atom -5590.702497 kJ/mol
# Density = 2.008979 g / cm^3
# Si number density = 20.135624 Si / 1000 Ang^3
#
#
#
# Elastic Constant Matrix: (Units=GPa)
#
#
# Indices 1 2 3 4 5 6 
#
# 1 133.2671 36.2252 27.5788 0.0000 1.8655 0.0000
# 2 36.2252 86.1634 0.6479 0.0000 24.0842 0.0000
# 3 27.5788 0.6479 36.4488 0.0000 -8.6941 0.0000
# 4 0.0000 0.0000 0.0000 22.4251 0.0000 0.5967
# 5 1.8655 24.0842 -8.6941 0.0000 16.3503 0.0000
# 6 0.0000 0.0000 0.0000 0.5967 0.0000 57.2167
#
#
#
# Elastic Compliance Matrix: (Units=1/GPa)
#
#
# Indices 1 2 3 4 5 6 
#
# 1 0.010285 -0.004891 -0.007165 0.000000 0.002221 0.000000
# 2 -0.004891 0.024548 -0.005987 0.000000 -0.038786 0.000000
# 3 -0.007165 -0.005987 0.040385 0.000000 0.031111 0.000000
# 4 0.000000 0.000000 0.000000 0.044605 0.000000 -0.000465
# 5 0.002221 -0.038786 0.031111 0.000000 0.134582 0.000000
# 6 0.000000 0.000000 0.000000 -0.000465 0.000000 0.017482
#
#
# Mechanical properties :
#
#
# Convention : Reuss Voigt Hill
#
# Bulk Modulus (GPa) = 25.55519 42.75369 34.15444
# Shear Modulus (GPa) = 15.57543 31.96025 23.76784
#
# Velocity S-wave (km/s) = 2.78425 3.98835 3.43940
# Velocity P-wave (km/s) = 4.80158 6.51830 5.72466
#
# Compressibility (1/GPa) = 0.03913100
#
# Stress axis : x y z
#
# Youngs Moduli (GPa) = 97.22960 40.73584 24.76191
#
# Poissons Ratio (x) = 0.19923 0.17743
# Poissons Ratio (y) = 0.47554 0.14825
# Poissons Ratio (z) = 0.69669 0.24389
#
# Static dielectric constant tensor:
#      x y z
#    x 1.700400 0.000000 -0.006750 
#    y 0.000000 1.702480 0.000000 
#    z -0.006750 0.000000 1.668380 
# 
# From -- ./inp_files/247569.got.cif
#   From: 2010.05.17/outbox.cif.g08.bks.cpg/sg15_124_cif.got.tgz:247569.got - 2010.06.03 18:47:42.
