data_PCOD9272568
_publ_section_title
;
Structure prediction by ZEFSAII (Michael W. Deem and Ramdas Pophale) SiO2 
 PCOD9272568
Probable space group: C 2/C
;
_chemical_formula_sum "Si O2"
_cell_formula_units_Z 56
_cell_length_a 23.165165
_cell_length_b 8.326962
_cell_length_c 22.434671
_cell_angle_alpha 90.000000
_cell_angle_beta 137.916605
_cell_angle_gamma 90.000000
_cell_volume 2900.371296
_symmetry_space_group_name_H-M "C 2/C"
_symmetry_group_IT_number 15
_symmetry_cell_setting 'monoclinic'
loop_
_space_group_symop_operation_xyz
x,y,z
-x,y,1/2-z
-x,-y,-z
x,-y,1/2+z
1/2+x,1/2+y,z
1/2-x,1/2+y,1/2-z
1/2-x,1/2-y,-z
1/2+x,1/2-y,1/2+z
loop_
_atom_site_type_symbol
_atom_site_label
_atom_site_fract_x
_atom_site_fract_y
_atom_site_fract_z
Si Si1 0.319439 0.107367 0.403540
Si Si2 0.793889 0.400639 0.166159
Si Si3 0.678369 0.811742 0.898812
Si Si4 0.065403 0.503551 0.902689
Si Si5 0.958325 0.191303 0.277613
Si Si6 0.854853 0.086686 0.738010
Si Si7 0.896016 0.602279 0.338726
O O1 0.288719 0.291237 0.386319
O O2 0.356266 0.043151 0.493599
O O3 0.387473 0.086115 0.402619
O O4 0.234349 0.007023 0.322380
O O5 0.781548 0.547538 0.111673
O O6 0.868567 0.285025 0.196749
O O7 0.834841 0.473585 0.257921
O O8 0.647824 0.675488 0.828722
O O9 0.599892 0.893716 0.875232
O O10 0.750000 0.750000 0.000000
O O11 0.023191 0.671859 0.850015
O O12 0.990215 0.419070 0.882874
O O13 0.000000 0.123478 0.250000
O O14 0.931139 0.044132 0.298487
O O15 0.864013 0.223457 0.793934
#
# Coordination Sequence:
#
# PCOD9272568 Si02
#       7
#     8   8   8   8   8   8   8
#     4  11  21  41  60  87 119 161 203 237 294 356
#     4   9  21  37  62  84 117 159 191 241 294 353
#     4  11  21  39  60  94 121 145 196 253 306 346
#     4  11  23  38  61  89 124 155 193 252 305 338
#     4  10  20  37  58  87 119 152 191 237 300 362
#     4  10  23  37  63  90 114 163 200 242 296 360
#     4  10  22  40  61  86 120 158 202 246 288 350
#
# _framework density 19.307872
#
# number of rings (size 3 to 8) (size 9 to 14) (size 15 to 20)
#    0.000    1.714    2.857    1.286    2.000    1.714 
#    0.000    0.714    0.000    0.000    0.000    0.000 
#    0.000    0.000    0.000    0.000    0.000    0.000 
#
# Total GULP energy -156294.940583 kJ/mol
# GULP energy per Si atom -5581.962164 kJ/mol
# Density = 1.926393 g / cm^3
# Si number density = 19.307872 Si / 1000 Ang^3
#
#
#
# Elastic Constant Matrix: (Units=GPa)
#
#
# Indices 1 2 3 4 5 6 
#
# 1 86.7012 19.2267 -4.1339 0.0000 -4.5868 0.0000
# 2 19.2267 72.1390 -3.5433 0.0000 5.0472 -0.0001
# 3 -4.1339 -3.5433 21.6218 0.0000 0.9029 0.0000
# 4 0.0000 0.0000 0.0000 15.9456 0.0000 11.2958
# 5 -4.5868 5.0472 0.9029 0.0000 21.1345 0.0000
# 6 0.0000 -0.0001 0.0000 11.2958 0.0000 18.9790
#
#
#
# Elastic Compliance Matrix: (Units=1/GPa)
#
#
# Indices 1 2 3 4 5 6 
#
# 1 0.012578 -0.003514 0.001683 0.000000 0.003497 0.000000
# 2 -0.003514 0.015211 0.002008 0.000000 -0.004481 0.000000
# 3 0.001683 0.002008 0.046989 0.000000 -0.002122 0.000000
# 4 0.000000 0.000000 0.000000 0.108429 0.000000 -0.064534
# 5 0.003497 -0.004481 -0.002122 0.000000 0.049236 0.000000
# 6 0.000000 0.000000 0.000000 -0.064534 0.000000 0.091099
#
#
# Mechanical properties :
#
#
# Convention : Reuss Voigt Hill
#
# Bulk Modulus (GPa) = 13.31007 22.61789 17.96398
# Shear Modulus (GPa) = 14.35821 22.47266 18.41544
#
# Velocity S-wave (km/s) = 2.72994 3.41532 3.09168
# Velocity P-wave (km/s) = 4.10431 5.22420 4.69775
#
# Compressibility (1/GPa) = 0.07513108
#
# Stress axis : x y z
#
# Youngs Moduli (GPa) = 79.50081 65.74210 21.28159
#
# Poissons Ratio (x) = 0.23105 -0.03582
# Poissons Ratio (y) = 0.27940 -0.04273
# Poissons Ratio (z) = -0.13379 -0.13200
#
# Static dielectric constant tensor:
#      x y z
#    x 1.668990 0.000000 0.005980 
#    y 0.000000 1.677760 0.000000 
#    z 0.005980 0.000000 1.652280 
# 
# From -- ./inp_files/218331.got.cif
#   From: 2010.05.17/outbox.cif.g08.bks.cpg/sg15_110_cif.got.tgz:218331.got - 2010.06.03 18:47:42.
