data_PCOD9272291
_publ_section_title
;
Structure prediction by ZEFSAII (Michael W. Deem and Ramdas Pophale) SiO2 
 PCOD9272291
Probable space group: C 2/C
;
_chemical_formula_sum "Si O2"
_cell_formula_units_Z 64
_cell_length_a 30.938337
_cell_length_b 10.428266
_cell_length_c 18.923711
_cell_angle_alpha 90.000000
_cell_angle_beta 144.538784
_cell_angle_gamma 90.000000
_cell_volume 3542.068641
_symmetry_space_group_name_H-M "C 2/C"
_symmetry_group_IT_number 15
_symmetry_cell_setting 'monoclinic'
loop_
_space_group_symop_operation_xyz
x,y,z
-x,y,1/2-z
-x,-y,-z
x,-y,1/2+z
1/2+x,1/2+y,z
1/2-x,1/2+y,1/2-z
1/2-x,1/2-y,-z
1/2+x,1/2-y,1/2+z
loop_
_atom_site_type_symbol
_atom_site_label
_atom_site_fract_x
_atom_site_fract_y
_atom_site_fract_z
Si Si1 0.084439 0.723658 0.389839
Si Si2 0.586568 0.528038 0.389266
Si Si3 0.306264 0.867875 0.584320
Si Si4 0.425560 0.868249 0.464452
Si Si5 0.098100 0.627443 0.146731
Si Si6 0.794051 0.117200 0.065818
Si Si7 0.427934 0.379302 0.474214
Si Si8 0.900613 0.878639 0.839666
O O1 0.133677 0.652248 0.397392
O O2 0.090011 0.659454 0.474284
O O3 0.000000 0.718038 0.250000
O O4 0.104208 0.875603 0.419180
O O5 0.500000 0.537800 0.250000
O O6 0.642036 0.593662 0.407759
O O7 0.594477 0.594740 0.475587
O O8 0.250000 0.750000 0.500000
O O9 0.344841 0.864675 0.712494
O O10 0.263143 0.000352 0.517481
O O11 0.515004 0.871764 0.570360
O O12 0.395110 0.748990 0.378889
O O13 0.394373 0.999420 0.390019
O O14 0.102270 0.750046 0.101248
O O15 0.836456 0.112841 0.196823
O O16 0.750000 0.250000 0.000000
O O17 0.518154 0.375231 0.589594
O O18 0.402051 0.498352 0.392062
#
# Coordination Sequence:
#
# PCOD9272291 Si02
#       8
#     8   8   8   8   8   8   8   8
#     4  11  22  40  69  98 124 166 229 270 305 376
#     4  11  22  41  67  99 125 163 231 271 304 373
#     4  12  24  43  64  95 132 171 212 256 329 391
#     4  10  20  40  64  92 127 162 215 265 316 371
#     4  10  22  38  61  95 130 165 202 266 327 377
#     4  12  26  43  62  94 138 174 200 259 336 392
#     4  10  20  36  67  95 120 155 223 273 302 364
#     4  10  20  38  63  95 121 166 211 260 322 369
#
# _framework density 18.068536999999999
#
# number of rings (size 3 to 8) (size 9 to 14) (size 15 to 20)
#    0.000    1.250    5.000    1.500    0.000    1.000 
#    0.000    8.750    0.000    0.000    0.000    0.000 
#    0.000    0.000    0.000    0.000    0.000    0.000 
#
# Total GULP energy -178802.492316 kJ/mol
# GULP energy per Si atom -5587.577885 kJ/mol
# Density = 1.802741 g / cm^3
# Si number density = 18.068537 Si / 1000 Ang^3
#
#
#
# Elastic Constant Matrix: (Units=GPa)
#
#
# Indices 1 2 3 4 5 6 
#
# 1 110.7792 60.3667 50.4712 0.0000 -15.1508 0.0000
# 2 60.3667 176.5608 82.2566 0.0000 -8.8803 0.0000
# 3 50.4712 82.2566 151.2588 0.0000 -24.4213 0.0000
# 4 0.0000 0.0000 0.0000 13.2624 0.0000 -5.4530
# 5 -15.1508 -8.8803 -24.4213 0.0000 28.9874 0.0000
# 6 0.0000 0.0000 0.0000 -5.4530 0.0000 20.8885
#
#
#
# Elastic Compliance Matrix: (Units=1/GPa)
#
#
# Indices 1 2 3 4 5 6 
#
# 1 0.012036 -0.003136 -0.001678 0.000000 0.003916 0.000000
# 2 -0.003136 0.008448 -0.003929 0.000000 -0.002361 0.000000
# 3 -0.001678 -0.003929 0.010384 0.000000 0.006668 0.000000
# 4 0.000000 0.000000 0.000000 0.084467 0.000000 0.022050
# 5 0.003916 -0.002361 0.006668 0.000000 0.041439 0.000000
# 6 0.000000 0.000000 0.000000 0.022050 0.000000 0.053630
#
#
# Mechanical properties :
#
#
# Convention : Reuss Voigt Hill
#
# Bulk Modulus (GPa) = 74.73019 91.64309 83.18664
# Shear Modulus (GPa) = 21.51917 28.99460 25.25689
#
# Velocity S-wave (km/s) = 3.45479 4.01022 3.74282
# Velocity P-wave (km/s) = 7.57385 8.50131 8.05095
#
# Compressibility (1/GPa) = 0.01338147
#
# Stress axis : x y z
#
# Youngs Moduli (GPa) = 83.08181 118.37642 96.30063
#
# Poissons Ratio (x) = 0.37128 0.16162
# Poissons Ratio (y) = 0.26058 0.37833
# Poissons Ratio (z) = 0.13944 0.46505
#
# Static dielectric constant tensor:
#      x y z
#    x 1.600220 0.000000 0.019410 
#    y 0.000000 1.598820 0.000000 
#    z 0.019410 0.000000 1.591830 
# 
# From -- ./inp_files/224648.got.cif
#   From: 2010.05.17/outbox.cif.g08.bks.cpg/sg15_113_cif.got.tgz:224648.got - 2010.06.03 18:47:42.
