data_PCOD9272811
_publ_section_title
;
Structure prediction by ZEFSAII (Michael W. Deem and Ramdas Pophale) SiO2 
 PCOD9272811
Probable space group: C 2/C
;
_chemical_formula_sum "Si O2"
_cell_formula_units_Z 48
_cell_length_a 29.569382
_cell_length_b 15.989792
_cell_length_c 4.965043
_cell_angle_alpha 90.000000
_cell_angle_beta 115.915683
_cell_angle_gamma 90.000000
_cell_volume 2111.443171
_symmetry_space_group_name_H-M "C 2/C"
_symmetry_group_IT_number 15
_symmetry_cell_setting 'monoclinic'
loop_
_space_group_symop_operation_xyz
x,y,z
-x,y,1/2-z
-x,-y,-z
x,-y,1/2+z
1/2+x,1/2+y,z
1/2-x,1/2+y,1/2-z
1/2-x,1/2-y,-z
1/2+x,1/2-y,1/2+z
loop_
_atom_site_type_symbol
_atom_site_label
_atom_site_fract_x
_atom_site_fract_y
_atom_site_fract_z
Si Si1 0.228710 0.448692 0.543535
Si Si2 0.610464 0.055966 0.725713
Si Si3 0.702071 0.690813 0.340864
Si Si4 0.056717 0.179946 0.312545
Si Si5 0.903590 0.269214 0.584365
Si Si6 0.147583 0.938625 0.055778
O O1 0.234970 0.470742 0.247117
O O2 0.170357 0.424715 0.412579
O O3 0.269628 0.382895 0.745284
O O4 0.590084 0.139032 0.528163
O O5 0.598272 0.979256 0.489845
O O6 0.750000 0.750000 0.500000
O O7 0.654577 0.738241 0.089658
O O8 0.679348 0.643610 0.545024
O O9 0.064200 0.209070 0.025786
O O10 0.091780 0.099381 0.438398
O O11 0.000000 0.164968 0.250000
O O12 0.078507 0.253211 0.565614
O O13 0.154771 0.005486 0.836636
#
# Coordination Sequence:
#
# PCOD9272811 Si02
#       6
#     8   8   8   8   8   8
#     4  10  21  37  56  84 124 173 215 253 306 377
#     4  10  20  37  60  89 127 172 215 260 316 388
#     4  11  22  40  61  95 134 177 215 266 323 389
#     4  11  25  45  72  99 128 171 222 285 354 401
#     4  11  23  42  66  99 132 171 222 281 334 405
#     4  11  24  44  66  96 135 175 223 275 326 395
#
# _framework density 22.733264999999999
#
# number of rings (size 3 to 8) (size 9 to 14) (size 15 to 20)
#    0.000    1.333    1.667    4.500    0.000    3.333 
#    0.000    8.333    0.000   10.000    0.000    0.000 
#    0.000    0.000    0.000    0.000    0.000    0.000 
#
# Total GULP energy -133964.781368 kJ/mol
# GULP energy per Si atom -5581.865890 kJ/mol
# Density = 2.268152 g / cm^3
# Si number density = 22.733265 Si / 1000 Ang^3
#
#
#
# Elastic Constant Matrix: (Units=GPa)
#
#
# Indices 1 2 3 4 5 6 
#
# 1 84.9885 18.9760 23.8519 0.0000 17.5710 0.0000
# 2 18.9760 77.6004 13.6142 0.0000 14.7626 0.0000
# 3 23.8519 13.6142 78.5562 0.0000 -12.2330 0.0000
# 4 0.0000 0.0000 0.0000 18.2308 0.0000 0.9497
# 5 17.5710 14.7626 -12.2330 0.0000 32.8489 0.0000
# 6 0.0000 0.0000 0.0000 0.9497 0.0000 18.2498
#
#
#
# Elastic Compliance Matrix: (Units=1/GPa)
#
#
# Indices 1 2 3 4 5 6 
#
# 1 0.015886 -0.000777 -0.006325 0.000000 -0.010504 0.000000
# 2 -0.000777 0.015183 -0.003602 0.000000 -0.007749 0.000000
# 3 -0.006325 -0.003602 0.017041 0.000000 0.011348 0.000000
# 4 0.000000 0.000000 0.000000 0.055001 0.000000 -0.002862
# 5 -0.010504 -0.007749 0.011348 0.000000 0.043769 0.000000
# 6 0.000000 0.000000 0.000000 -0.002862 0.000000 0.054944
#
#
# Mechanical properties :
#
#
# Convention : Reuss Voigt Hill
#
# Bulk Modulus (GPa) = 37.44850 39.33659 38.39255
# Shear Modulus (GPa) = 21.53935 26.17945 23.85940
#
# Velocity S-wave (km/s) = 3.08146 3.39719 3.24317
# Velocity P-wave (km/s) = 5.40086 5.72093 5.56319
#
# Compressibility (1/GPa) = 0.02670334
#
# Stress axis : x y z
#
# Youngs Moduli (GPa) = 62.94703 65.86487 58.68048
#
# Poissons Ratio (x) = 0.05118 0.37113
# Poissons Ratio (y) = 0.04891 0.21137
# Poissons Ratio (z) = 0.39811 0.23724
#
# Static dielectric constant tensor:
#      x y z
#    x 1.835440 0.000000 0.017940 
#    y 0.000000 1.923440 0.000000 
#    z 0.017940 0.000000 1.850880 
# 
# From -- ./inp_files/18175.got.cif
#   From: 2010.05.17/outbox.cif.g08.bks.cpg/sg15_10_cif.got.tgz:18175.got - 2010.06.03 18:47:42.
