data_PCOD9272899
_publ_section_title
;
Structure prediction by ZEFSAII (Michael W. Deem and Ramdas Pophale) SiO2 
 PCOD9272899
Probable space group: C 2/C
;
_chemical_formula_sum "Si O2"
_cell_formula_units_Z 48
_cell_length_a 16.273171
_cell_length_b 9.678299
_cell_length_c 23.987773
_cell_angle_alpha 90.000000
_cell_angle_beta 33.992922
_cell_angle_gamma 90.000000
_cell_volume 2112.239959
_symmetry_space_group_name_H-M "C 2/C"
_symmetry_group_IT_number 15
_symmetry_cell_setting 'monoclinic'
loop_
_space_group_symop_operation_xyz
x,y,z
-x,y,1/2-z
-x,-y,-z
x,-y,1/2+z
1/2+x,1/2+y,z
1/2-x,1/2+y,1/2-z
1/2-x,1/2-y,-z
1/2+x,1/2-y,1/2+z
loop_
_atom_site_type_symbol
_atom_site_label
_atom_site_fract_x
_atom_site_fract_y
_atom_site_fract_z
Si Si1 0.409418 0.547454 0.927690
Si Si2 0.103540 0.773247 0.831074
Si Si3 0.666014 0.864345 0.881674
Si Si4 0.115607 0.899296 0.226019
Si Si5 0.860432 0.229273 0.058123
Si Si6 0.674656 0.126475 0.508290
O O1 0.504515 0.406608 0.871020
O O2 0.514425 0.649435 0.833639
O O3 0.386895 0.601609 0.002378
O O4 0.256226 0.510716 0.983467
O O5 0.241875 0.768587 0.712228
O O6 0.134980 0.799001 0.878385
O O7 0.998967 0.640014 0.883469
O O8 0.746120 0.012077 0.829099
O O9 0.492734 0.838833 0.971130
O O10 0.694489 0.841391 0.931586
O O11 0.196471 0.786373 0.143263
O O12 0.000000 0.977158 0.250000
O O13 0.750000 0.250000 0.500000
#
# Coordination Sequence:
#
# PCOD9272899 Si02
#       6
#     8   8   8   8   8   8
#     4  10  20  37  61  87 124 157 201 264 314 362
#     4   9  20  36  64  88 121 162 207 249 314 370
#     4  10  20  39  61  88 117 162 216 254 295 383
#     4  11  22  38  61  83 119 167 207 245 315 380
#     4  11  22  37  61  90 124 157 205 263 317 364
#     4   9  18  34  61  91 117 159 199 252 314 366
#
# _framework density 22.724691
#
# number of rings (size 3 to 8) (size 9 to 14) (size 15 to 20)
#    0.000    2.000    1.667    2.000    0.000    0.667 
#    0.000    0.000   18.333    0.000    0.000    0.000 
#    0.000    0.000    0.000    0.000    0.000    0.000 
#
# Total GULP energy -133805.378015 kJ/mol
# GULP energy per Si atom -5575.224084 kJ/mol
# Density = 2.267297 g / cm^3
# Si number density = 22.724691 Si / 1000 Ang^3
#
#
#
# Elastic Constant Matrix: (Units=GPa)
#
#
# Indices 1 2 3 4 5 6 
#
# 1 111.8696 12.6411 50.7170 0.0000 -0.8912 0.0000
# 2 12.6411 15.8034 24.5835 -0.0001 -6.8076 0.0000
# 3 50.7170 24.5835 173.4235 -0.0002 0.8407 0.0000
# 4 0.0000 -0.0001 -0.0002 28.6209 0.0000 1.4613
# 5 -0.8912 -6.8076 0.8407 0.0000 33.6225 0.0000
# 6 0.0000 0.0000 0.0000 1.4613 0.0000 30.5140
#
#
#
# Elastic Compliance Matrix: (Units=1/GPa)
#
#
# Indices 1 2 3 4 5 6 
#
# 1 0.010582 -0.005069 -0.002373 0.000000 -0.000687 0.000000
# 2 -0.005069 0.094244 -0.011970 0.000000 0.019247 0.000000
# 3 -0.002373 -0.011970 0.008170 0.000000 -0.002691 0.000000
# 4 0.000000 0.000000 0.000000 0.035025 0.000000 -0.001677
# 5 -0.000687 0.019247 -0.002691 0.000000 0.033688 0.000000
# 6 0.000000 0.000000 0.000000 -0.001677 0.000000 0.032852
#
#
# Mechanical properties :
#
#
# Convention : Reuss Voigt Hill
#
# Bulk Modulus (GPa) = 13.48222 52.99772 33.23997
# Shear Modulus (GPa) = 17.97847 32.76182 25.37014
#
# Velocity S-wave (km/s) = 2.81578 3.80107 3.34490
# Velocity P-wave (km/s) = 4.06414 6.52966 5.43846
#
# Compressibility (1/GPa) = 0.07417175
#
# Stress axis : x y z
#
# Youngs Moduli (GPa) = 94.49981 10.61070 122.39875
#
# Poissons Ratio (x) = 0.05379 0.29042
# Poissons Ratio (y) = 0.47905 1.46515
# Poissons Ratio (z) = 0.22422 0.12701
#
# Static dielectric constant tensor:
#      x y z
#    x 1.884670 0.000000 -0.010930 
#    y 0.000000 1.950960 0.000000 
#    z -0.010930 0.000000 1.882330 
# 
# From -- ./inp_files/103696.got.cif
#   From: 2010.05.17/outbox.cif.g08.bks.cpg/sg15_52_cif.got.tgz:103696.got - 2010.06.03 18:47:42.
