data_PCOD9272719
_publ_section_title
;
Structure prediction by ZEFSAII (Michael W. Deem and Ramdas Pophale) SiO2 
 PCOD9272719
Probable space group: C 2/C
;
_chemical_formula_sum "Si O2"
_cell_formula_units_Z 48
_cell_length_a 17.882440
_cell_length_b 30.272392
_cell_length_c 9.846872
_cell_angle_alpha 90.000000
_cell_angle_beta 25.335632
_cell_angle_gamma 90.000000
_cell_volume 2281.047971
_symmetry_space_group_name_H-M "C 2/C"
_symmetry_group_IT_number 15
_symmetry_cell_setting 'monoclinic'
loop_
_space_group_symop_operation_xyz
x,y,z
-x,y,1/2-z
-x,-y,-z
x,-y,1/2+z
1/2+x,1/2+y,z
1/2-x,1/2+y,1/2-z
1/2-x,1/2-y,-z
1/2+x,1/2-y,1/2+z
loop_
_atom_site_type_symbol
_atom_site_label
_atom_site_fract_x
_atom_site_fract_y
_atom_site_fract_z
Si Si1 0.177075 0.706929 0.543361
Si Si2 0.294751 0.642280 0.576536
Si Si3 0.357534 0.428845 0.758767
Si Si4 0.616956 0.006436 0.176907
Si Si5 0.802327 0.862410 0.625501
Si Si6 0.742365 0.896017 0.442841
O O1 0.250000 0.750000 0.500000
O O2 0.181692 0.672362 0.661124
O O3 0.283676 0.680893 0.250010
O O4 0.000000 0.716390 0.750000
O O5 0.306471 0.595178 0.482295
O O6 0.218874 0.634593 0.850036
O O7 0.500000 0.658280 0.250000
O O8 0.262171 0.403745 0.790270
O O9 0.557745 0.414847 0.402008
O O10 0.298066 0.479138 0.873733
O O11 0.500000 0.987165 0.250000
O O12 0.500000 0.000000 0.500000
O O13 0.641147 0.058285 0.115986
O O14 0.705379 0.869094 0.641727
O O15 0.000000 0.864148 0.250000
#
# Coordination Sequence:
#
# PCOD9272719 Si02
#       6
#     8   8   8   8   8   8
#     4  11  24  43  67  94 124 159 191 237 304 376
#     4   9  19  38  64  89 116 154 203 249 296 356
#     4   9  19  37  57  80 116 165 207 245 297 357
#     4  12  24  34  50  82 122 161 205 259 299 340
#     4   9  20  39  64  89 117 156 204 253 302 360
#     4  10  20  37  60  84 115 159 206 251 298 355
#
# _framework density 21.042959
#
# number of rings (size 3 to 8) (size 9 to 14) (size 15 to 20)
#    0.000    2.000    0.000    4.000    0.000    6.667 
#    0.000   10.000    0.000    0.000    0.000    0.000 
#    0.000    0.000    0.000    0.000    0.000    0.000 
#
# Total GULP energy -133713.249645 kJ/mol
# GULP energy per Si atom -5571.385402 kJ/mol
# Density = 2.099506 g / cm^3
# Si number density = 21.042959 Si / 1000 Ang^3
#
#
#
# Elastic Constant Matrix: (Units=GPa)
#
#
# Indices 1 2 3 4 5 6 
#
# 1 161.5194 53.7202 52.6655 0.0000 31.6852 -0.0029
# 2 53.7202 100.5823 34.1605 0.0000 10.4197 -0.0001
# 3 52.6655 34.1605 76.1687 -0.0009 28.4664 -0.0104
# 4 0.0000 0.0000 -0.0009 17.5937 -0.0001 8.7604
# 5 31.6852 10.4197 28.4664 -0.0001 39.9652 0.0022
# 6 -0.0029 -0.0001 -0.0104 8.7604 0.0022 71.2695
#
#
#
# Elastic Compliance Matrix: (Units=1/GPa)
#
#
# Indices 1 2 3 4 5 6 
#
# 1 0.009187 -0.003354 -0.003342 0.000000 -0.004028 0.000000
# 2 -0.003354 0.012979 -0.004403 0.000000 0.002412 -0.000001
# 3 -0.003342 -0.004403 0.021798 -0.000001 -0.011728 0.000003
# 4 0.000000 0.000000 -0.000001 0.060544 0.000001 -0.007442
# 5 -0.004028 0.002412 -0.011728 0.000001 0.035941 -0.000003
# 6 0.000000 -0.000001 0.000003 -0.007442 -0.000003 0.014946
#
#
# Mechanical properties :
#
#
# Convention : Reuss Voigt Hill
#
# Bulk Modulus (GPa) = 45.94615 68.81809 57.38212
# Shear Modulus (GPa) = 27.04923 38.94728 32.99826
#
# Velocity S-wave (km/s) = 3.58918 4.30681 3.96427
# Velocity P-wave (km/s) = 6.24965 7.58328 6.94853
#
# Compressibility (1/GPa) = 0.02176461
#
# Stress axis : x y z
#
# Youngs Moduli (GPa) = 108.85171 77.04682 45.87666
#
# Poissons Ratio (x) = 0.25843 0.15333
# Poissons Ratio (y) = 0.36511 0.20200
# Poissons Ratio (z) = 0.36381 0.33924
#
# Static dielectric constant tensor:
#      x y z
#    x 1.862360 0.000000 -0.074890 
#    y 0.000000 1.760770 0.000000 
#    z -0.074890 0.000000 1.772050 
# 
# From -- ./inp_files/52717.got.cif
#   From: 2010.05.17/outbox.cif.g08.bks.cpg/sg15_27_cif.got.tgz:52717.got - 2010.06.03 18:47:42.
