data_PCOD9272631
_publ_section_title
;
Structure prediction by ZEFSAII (Michael W. Deem and Ramdas Pophale) SiO2 
 PCOD9272631
Probable space group: C 2/C
;
_chemical_formula_sum "Si O2"
_cell_formula_units_Z 52
_cell_length_a 13.233001
_cell_length_b 20.254276
_cell_length_c 14.063707
_cell_angle_alpha 90.000000
_cell_angle_beta 143.002447
_cell_angle_gamma 90.000000
_cell_volume 2268.366833
_symmetry_space_group_name_H-M "C 2/C"
_symmetry_group_IT_number 15
_symmetry_cell_setting 'monoclinic'
loop_
_space_group_symop_operation_xyz
x,y,z
-x,y,1/2-z
-x,-y,-z
x,-y,1/2+z
1/2+x,1/2+y,z
1/2-x,1/2+y,1/2-z
1/2-x,1/2-y,-z
1/2+x,1/2-y,1/2+z
loop_
_atom_site_type_symbol
_atom_site_label
_atom_site_fract_x
_atom_site_fract_y
_atom_site_fract_z
Si Si1 0.808405 0.461619 0.585578
Si Si2 0.476983 0.439447 0.616059
Si Si3 0.000000 0.781826 0.250000
Si Si4 0.901693 0.666874 0.453284
Si Si5 0.171431 0.527512 0.087904
Si Si6 0.841728 0.665333 0.017088
Si Si7 0.973174 0.794726 0.843358
O O1 0.664018 0.507927 0.519816
O O2 0.776686 0.474555 0.450544
O O3 0.812051 0.381972 0.587120
O O4 0.000000 0.483076 0.750000
O O5 0.500000 0.438129 0.750000
O O6 0.665394 0.459292 0.724618
O O7 0.436763 0.363611 0.559146
O O8 0.841602 0.823740 0.165525
O O9 0.078361 0.734307 0.388252
O O10 0.023146 0.643761 0.459680
O O11 0.973209 0.728172 0.564949
O O12 0.867066 0.599693 0.485913
O O13 0.721452 0.691235 0.281852
O O14 0.000000 0.500000 0.000000
O O15 0.000000 0.786934 0.750000
#
# Coordination Sequence:
#
# PCOD9272631 Si02
#       7
#     8   8   4   8   8   8   8
#     4  11  22  38  61  86 117 157 205 252 288 360
#     4   8  19  37  59  86 117 159 196 238 299 365
#     4  10  24  40  60  88 120 162 202 254 298 368
#     4  11  22  37  64  89 123 158 197 256 297 366
#     4  10  20  37  59  84 118 156 199 237 304 358
#     4  11  22  40  61  90 121 160 207 247 308 351
#     4  10  21  39  61  91 124 157 196 249 309 368
#
# _framework density 22.923981999999999
#
# number of rings (size 3 to 8) (size 9 to 14) (size 15 to 20)
#    0.000    1.846    2.308    2.308    3.231    1.846 
#    0.000    0.769    0.000    0.000    0.000    0.000 
#    0.000    0.000    0.000    0.000    0.000    0.000 
#
# Total GULP energy -144908.577406 kJ/mol
# GULP energy per Si atom -5573.406823 kJ/mol
# Density = 2.287181 g / cm^3
# Si number density = 22.923982 Si / 1000 Ang^3
#
#
#
# Elastic Constant Matrix: (Units=GPa)
#
#
# Indices 1 2 3 4 5 6 
#
# 1 51.2650 26.6130 17.8666 0.0000 18.9743 0.0000
# 2 26.6130 143.2131 67.7510 0.0000 20.3904 0.0000
# 3 17.8666 67.7510 103.3285 0.0000 39.5722 0.0000
# 4 0.0000 0.0000 0.0000 31.0873 0.0000 3.2853
# 5 18.9743 20.3904 39.5722 0.0000 39.1159 0.0000
# 6 0.0000 0.0000 0.0000 3.2853 0.0000 18.5351
#
#
#
# Elastic Compliance Matrix: (Units=1/GPa)
#
#
# Indices 1 2 3 4 5 6 
#
# 1 0.025763 -0.004680 0.004025 0.000000 -0.014129 0.000000
# 2 -0.004680 0.011106 -0.008367 0.000000 0.004945 0.000000
# 3 0.004025 -0.008367 0.022113 0.000000 -0.019962 0.000000
# 4 0.000000 0.000000 0.000000 0.032782 0.000000 -0.005810
# 5 -0.014129 0.004945 -0.019962 0.000000 0.050036 0.000000
# 6 0.000000 0.000000 0.000000 -0.005810 0.000000 0.054981
#
#
# Mechanical properties :
#
#
# Convention : Reuss Voigt Hill
#
# Bulk Modulus (GPa) = 24.42693 58.02976 41.22835
# Shear Modulus (GPa) = 21.88469 30.11941 26.00205
#
# Velocity S-wave (km/s) = 3.09312 3.62868 3.37155
# Velocity P-wave (km/s) = 4.84100 6.55175 5.76024
#
# Compressibility (1/GPa) = 0.04093842
#
# Stress axis : x y z
#
# Youngs Moduli (GPa) = 38.81572 90.03816 45.22273
#
# Poissons Ratio (x) = 0.42137 -0.18203
# Poissons Ratio (y) = 0.18165 0.37838
# Poissons Ratio (z) = -0.15624 0.75334
#
# Static dielectric constant tensor:
#      x y z
#    x 2.045060 0.000000 0.028940 
#    y 0.000000 1.917890 0.000000 
#    z 0.028940 0.000000 1.871760 
# 
# From -- ./inp_files/206842.got.cif
#   From: 2010.05.17/outbox.cif.g08.bks.cpg/sg15_104_cif.got.tgz:206842.got - 2010.06.03 18:47:42.
