data_PCOD9272646
_publ_section_title
;
Structure prediction by ZEFSAII (Michael W. Deem and Ramdas Pophale) SiO2 
 PCOD9272646
Probable space group: C 2/C
;
_chemical_formula_sum "Si O2"
_cell_formula_units_Z 48
_cell_length_a 18.284932
_cell_length_b 8.594400
_cell_length_c 28.452000
_cell_angle_alpha 90.000000
_cell_angle_beta 153.309529
_cell_angle_gamma 90.000000
_cell_volume 2008.319728
_symmetry_space_group_name_H-M "C 2/C"
_symmetry_group_IT_number 15
_symmetry_cell_setting 'monoclinic'
loop_
_space_group_symop_operation_xyz
x,y,z
-x,y,1/2-z
-x,-y,-z
x,-y,1/2+z
1/2+x,1/2+y,z
1/2-x,1/2+y,1/2-z
1/2-x,1/2-y,-z
1/2+x,1/2-y,1/2+z
loop_
_atom_site_type_symbol
_atom_site_label
_atom_site_fract_x
_atom_site_fract_y
_atom_site_fract_z
Si Si1 0.331162 0.324627 0.092412
Si Si2 0.108701 0.345784 0.175553
Si Si3 0.360939 0.309309 0.462713
Si Si4 0.384686 0.689512 0.115110
Si Si5 0.395841 0.343878 0.970133
Si Si6 0.148866 0.327995 0.745129
O O1 0.369780 0.505494 0.110786
O O2 0.201862 0.286636 0.058514
O O3 0.502428 0.235326 0.192624
O O4 0.250000 0.250000 0.000000
O O5 0.099732 0.522190 0.187016
O O6 0.279876 0.298849 0.250352
O O7 0.053112 0.243744 0.188651
O O8 0.977028 0.304327 0.059555
O O9 0.178517 0.265519 0.372612
O O10 0.426779 0.298411 0.447282
O O11 0.391224 0.490714 0.494113
O O12 0.250000 0.750000 0.000000
O O13 0.291444 0.373965 0.862851
#
# Coordination Sequence:
#
# PCOD9272646 Si02
#       6
#     8   8   8   8   8   8
#     4  12  23  38  64  89 119 165 212 258 313 379
#     4  10  20  38  63  90 124 167 213 259 316 382
#     4   9  19  39  63  88 124 165 210 260 318 381
#     4  10  20  37  59  86 118 155 205 253 300 370
#     4  10  22  40  62  91 127 167 212 266 319 369
#     4  11  23  40  63  93 129 167 213 266 317 371
#
# _framework density 23.900576999999998
#
# number of rings (size 3 to 8) (size 9 to 14) (size 15 to 20)
#    0.000    1.667    0.000    6.500    0.000    3.333 
#    0.000    6.667    0.000    0.000    0.000    0.000 
#    0.000    0.000    0.000    0.000    0.000    0.000 
#
# Total GULP energy -134209.233759 kJ/mol
# GULP energy per Si atom -5592.051407 kJ/mol
# Density = 2.384618 g / cm^3
# Si number density = 23.900577 Si / 1000 Ang^3
#
#
#
# Elastic Constant Matrix: (Units=GPa)
#
#
# Indices 1 2 3 4 5 6 
#
# 1 142.6304 35.9358 14.6188 0.0003 36.8170 -0.0003
# 2 35.9358 119.1350 1.0948 0.0004 10.3887 -0.0004
# 3 14.6188 1.0948 52.8129 -0.0021 5.1219 0.0003
# 4 0.0003 0.0004 -0.0021 28.9838 0.0004 7.5980
# 5 36.8170 10.3887 5.1219 0.0004 39.7237 0.0001
# 6 -0.0003 -0.0004 0.0003 7.5980 0.0001 44.8270
#
#
#
# Elastic Compliance Matrix: (Units=1/GPa)
#
#
# Indices 1 2 3 4 5 6 
#
# 1 0.009933 -0.002249 -0.001891 0.000000 -0.008374 0.000000
# 2 -0.002249 0.009099 0.000468 0.000000 -0.000356 0.000000
# 3 -0.001891 0.000468 0.019535 0.000002 -0.000889 0.000000
# 4 0.000000 0.000000 0.000002 0.036106 0.000000 -0.006120
# 5 -0.008374 -0.000356 -0.000889 0.000000 0.033143 0.000000
# 6 0.000000 0.000000 0.000000 -0.006120 0.000000 0.023345
#
#
# Mechanical properties :
#
#
# Convention : Reuss Voigt Hill
#
# Bulk Modulus (GPa) = 32.02606 46.43079 39.22842
# Shear Modulus (GPa) = 33.57695 40.23548 36.90621
#
# Velocity S-wave (km/s) = 3.75221 4.10744 3.93384
# Velocity P-wave (km/s) = 5.67458 6.47793 6.08952
#
# Compressibility (1/GPa) = 0.03122458
#
# Stress axis : x y z
#
# Youngs Moduli (GPa) = 100.67309 109.90424 51.19118
#
# Poissons Ratio (x) = 0.24713 0.09679
# Poissons Ratio (y) = 0.22637 -0.02397
# Poissons Ratio (z) = 0.19035 -0.05147
#
# Static dielectric constant tensor:
#      x y z
#    x 2.193880 0.000000 -0.105190 
#    y 0.000000 1.842060 0.000000 
#    z -0.105190 0.000000 2.092930 
# 
# From -- ./inp_files/315785.got.cif
#   From: 2010.05.17/outbox.cif.g08.bks.cpg/sg15_158_cif.got.tgz:315785.got - 2010.06.03 18:47:42.
