data_PCOD9272421
_publ_section_title
;
Structure prediction by ZEFSAII (Michael W. Deem and Ramdas Pophale) SiO2 
 PCOD9272421
Probable space group: C 2/C
;
_chemical_formula_sum "Si O2"
_cell_formula_units_Z 64
_cell_length_a 27.317022
_cell_length_b 11.540447
_cell_length_c 9.242543
_cell_angle_alpha 90.000000
_cell_angle_beta 99.692283
_cell_angle_gamma 90.000000
_cell_volume 2872.127680
_symmetry_space_group_name_H-M "C 2/C"
_symmetry_group_IT_number 15
_symmetry_cell_setting 'monoclinic'
loop_
_space_group_symop_operation_xyz
x,y,z
-x,y,1/2-z
-x,-y,-z
x,-y,1/2+z
1/2+x,1/2+y,z
1/2-x,1/2+y,1/2-z
1/2-x,1/2-y,-z
1/2+x,1/2-y,1/2+z
loop_
_atom_site_type_symbol
_atom_site_label
_atom_site_fract_x
_atom_site_fract_y
_atom_site_fract_z
Si Si1 0.053610 0.563080 0.012739
Si Si2 0.201726 0.322832 0.327969
Si Si3 0.123280 0.291965 0.742519
Si Si4 0.115367 0.335079 0.058956
Si Si5 0.265452 0.495099 0.035439
Si Si6 0.767456 0.631697 0.220755
Si Si7 0.555522 0.726404 0.285986
Si Si8 0.857737 0.863002 0.509542
O O1 0.075473 0.636521 0.159786
O O2 0.092625 0.459904 0.008407
O O3 0.054184 0.656135 0.883386
O O4 0.000000 0.500000 0.000000
O O5 0.164962 0.351977 0.178290
O O6 0.224673 0.423278 0.435669
O O7 0.246157 0.245355 0.287345
O O8 0.170183 0.242865 0.421748
O O9 0.173397 0.367060 0.744991
O O10 0.131248 0.178717 0.647197
O O11 0.121568 0.269158 0.911501
O O12 0.077803 0.266109 0.144386
O O13 0.252579 0.375717 0.952654
O O14 0.256631 0.525735 0.197740
O O15 0.320485 0.531930 0.014843
O O16 0.500000 0.682942 0.250000
O O17 0.590759 0.633002 0.379598
#
# Coordination Sequence:
#
# PCOD9272421 Si02
#       8
#     8   8   8   8   8   8   8   8
#     4  11  22  37  52  76 116 151 188 228 276 336
#     4  10  20  40  56  75 116 151 192 224 279 338
#     4  11  22  34  51  80 110 147 191 221 277 322
#     4  11  23  32  52  78 109 150 181 236 265 322
#     4  11  21  38  57  82 110 148 194 231 278 328
#     4  11  23  36  58  82 110 156 190 231 277 337
#     4  10  20  37  56  77 106 149 190 222 281 338
#     4   9  19  39  57  72 112 149 180 228 279 329
#
# _framework density 22.28313
#
# number of rings (size 3 to 8) (size 9 to 14) (size 15 to 20)
#    0.000    1.500    3.750    2.250    3.500    1.500 
#    0.000    0.000    0.000    0.000    0.000    7.875 
#    0.000    0.000    0.000    0.125    0.000    0.000 
#
# Total GULP energy -178968.570601 kJ/mol
# GULP energy per Si atom -5592.767831 kJ/mol
# Density = 2.223241 g / cm^3
# Si number density = 22.283130 Si / 1000 Ang^3
#
#
#
# Elastic Constant Matrix: (Units=GPa)
#
#
# Indices 1 2 3 4 5 6 
#
# 1 134.7368 11.3617 51.0388 0.0000 24.5936 0.0000
# 2 11.3617 24.7148 13.1327 0.0000 4.9973 0.0000
# 3 51.0388 13.1327 119.0024 0.0000 -7.8627 0.0000
# 4 0.0000 0.0000 0.0000 13.5021 0.0000 1.7331
# 5 24.5936 4.9973 -7.8627 0.0000 35.9352 0.0000
# 6 0.0000 0.0000 0.0000 1.7331 0.0000 20.8818
#
#
#
# Elastic Compliance Matrix: (Units=1/GPa)
#
#
# Indices 1 2 3 4 5 6 
#
# 1 0.011024 -0.000543 -0.005237 0.000000 -0.008615 0.000000
# 2 -0.000543 0.044881 -0.005183 0.000000 -0.007004 0.000000
# 3 -0.005237 -0.005183 0.011675 0.000000 0.006860 0.000000
# 4 0.000000 0.000000 0.000000 0.074860 0.000000 -0.006213
# 5 -0.008615 -0.007004 0.006860 0.000000 0.036199 0.000000
# 6 0.000000 0.000000 0.000000 -0.006213 0.000000 0.048404
#
#
# Mechanical properties :
#
#
# Convention : Reuss Voigt Hill
#
# Bulk Modulus (GPa) = 21.90404 47.72451 34.81427
# Shear Modulus (GPa) = 18.92595 27.59188 23.25891
#
# Velocity S-wave (km/s) = 2.91751 3.52268 3.23428
# Velocity P-wave (km/s) = 4.60438 6.16519 5.44104
#
# Compressibility (1/GPa) = 0.04565369
#
# Stress axis : x y z
#
# Youngs Moduli (GPa) = 90.70961 22.28099 85.65553
#
# Poissons Ratio (x) = 0.01210 0.44862
# Poissons Ratio (y) = 0.04925 0.44394
# Poissons Ratio (z) = 0.47509 0.11548
#
# Static dielectric constant tensor:
#      x y z
#    x 1.826730 0.000000 0.007750 
#    y 0.000000 1.863110 0.000000 
#    z 0.007750 0.000000 1.869900 
# 
# From -- ./inp_files/66236.got.cif
#   From: 2010.05.17/outbox.cif.g08.bks.cpg/sg15_34_cif.got.tgz:66236.got - 2010.06.03 18:47:42.
