data_PCOD9272284
_publ_section_title
;
Structure prediction by ZEFSAII (Michael W. Deem and Ramdas Pophale) SiO2 
 PCOD9272284
Probable space group: C 2/C
;
_chemical_formula_sum "Si O2"
_cell_formula_units_Z 40
_cell_length_a 18.140888
_cell_length_b 11.213920
_cell_length_c 9.825815
_cell_angle_alpha 90.000000
_cell_angle_beta 130.633418
_cell_angle_gamma 90.000000
_cell_volume 1516.925775
_symmetry_space_group_name_H-M "C 2/C"
_symmetry_group_IT_number 15
_symmetry_cell_setting 'monoclinic'
loop_
_space_group_symop_operation_xyz
x,y,z
-x,y,1/2-z
-x,-y,-z
x,-y,1/2+z
1/2+x,1/2+y,z
1/2-x,1/2+y,1/2-z
1/2-x,1/2-y,-z
1/2+x,1/2-y,1/2+z
loop_
_atom_site_type_symbol
_atom_site_label
_atom_site_fract_x
_atom_site_fract_y
_atom_site_fract_z
Si Si1 0.770108 0.842333 0.909028
Si Si2 0.602176 0.503246 0.550353
Si Si3 0.699476 0.993855 0.534342
Si Si4 0.970391 0.615351 0.053937
Si Si5 0.610369 0.766527 0.517485
O O1 0.878692 0.886109 0.017331
O O2 0.711989 0.790334 0.714475
O O3 0.750000 0.750000 0.000000
O O4 0.715695 0.959389 0.901827
O O5 0.500000 0.500000 0.500000
O O6 0.692973 0.490511 0.766397
O O7 0.392764 0.371610 0.526082
O O8 0.626002 0.878710 0.434739
O O9 0.643329 0.092497 0.558116
O O10 0.000000 0.621888 0.250000
O O11 0.024213 0.713463 0.024551
O O12 0.000000 0.500000 0.000000
#
# Coordination Sequence:
#
# PCOD9272284 Si02
#       5
#     8   8   8   8   8
#     4  11  22  42  70  95 134 188 231 284 364 441
#     4  11  26  41  64 102 139 181 235 297 366 425
#     4  10  22  41  66 100 132 183 239 288 354 437
#     4  10  20  36  67 102 136 181 241 301 360 430
#     4  10  22  40  66 101 136 177 233 307 357 430
#
# _framework density 26.369122999999998
#
# number of rings (size 3 to 8) (size 9 to 14) (size 15 to 20)
#    0.000    1.600    4.000    0.000    2.800    1.600 
#    0.000    0.000   17.600    0.000    0.000    0.000 
#    0.000    0.000    0.000    0.000    0.000    0.000 
#
# Total GULP energy -111515.317951 kJ/mol
# GULP energy per Si atom -5575.765898 kJ/mol
# Density = 2.630911 g / cm^3
# Si number density = 26.369123 Si / 1000 Ang^3
#
#
#
# Elastic Constant Matrix: (Units=GPa)
#
#
# Indices 1 2 3 4 5 6 
#
# 1 139.1750 51.2955 27.8459 0.0000 49.5169 0.0000
# 2 51.2955 125.2444 13.3694 0.0000 17.9155 0.0000
# 3 27.8459 13.3694 79.2135 0.0000 22.0386 0.0000
# 4 0.0000 0.0000 0.0000 16.8495 0.0000 6.8707
# 5 49.5169 17.9155 22.0386 0.0000 48.5390 0.0000
# 6 0.0000 0.0000 0.0000 6.8707 0.0000 62.6040
#
#
#
# Elastic Compliance Matrix: (Units=1/GPa)
#
#
# Indices 1 2 3 4 5 6 
#
# 1 0.012618 -0.003481 -0.000715 0.000000 -0.011264 0.000000
# 2 -0.003481 0.009418 -0.000443 0.000000 0.000276 0.000000
# 3 -0.000715 -0.000443 0.014538 0.000000 -0.005709 0.000000
# 4 0.000000 0.000000 0.000000 0.062129 0.000000 -0.006819
# 5 -0.011264 0.000276 -0.005709 0.000000 0.034583 0.000000
# 6 0.000000 0.000000 0.000000 -0.006819 0.000000 0.016722
#
#
# Mechanical properties :
#
#
# Convention : Reuss Voigt Hill
#
# Bulk Modulus (GPa) = 36.63170 58.73940 47.68555
# Shear Modulus (GPa) = 29.69413 42.33997 36.01705
#
# Velocity S-wave (km/s) = 3.35937 4.01142 3.69979
# Velocity P-wave (km/s) = 5.38231 6.61661 6.03112
#
# Compressibility (1/GPa) = 0.02729876
#
# Stress axis : x y z
#
# Youngs Moduli (GPa) = 79.24901 106.18275 68.78402
#
# Poissons Ratio (x) = 0.36958 0.04915
# Poissons Ratio (y) = 0.27583 0.03045
# Poissons Ratio (z) = 0.05663 0.04700
#
# Static dielectric constant tensor:
#      x y z
#    x 2.379310 0.000000 -0.393900 
#    y 0.000000 4.922590 0.000000 
#    z -0.393900 0.000000 2.574920 
# 
# From -- ./inp_files/96654.got.cif
#   From: 2010.05.17/outbox.cif.g08.bks.cpg/sg15_49_cif.got.tgz:96654.got - 2010.06.03 18:47:42.
