data_PCOD9272334
_publ_section_title
;
Structure prediction by ZEFSAII (Michael W. Deem and Ramdas Pophale) SiO2 
 PCOD9272334
Probable space group: C 2/C
;
_chemical_formula_sum "Si O2"
_cell_formula_units_Z 60
_cell_length_a 18.055685
_cell_length_b 23.832426
_cell_length_c 11.643636
_cell_angle_alpha 90.000000
_cell_angle_beta 148.868204
_cell_angle_gamma 90.000000
_cell_volume 2590.409759
_symmetry_space_group_name_H-M "C 2/C"
_symmetry_group_IT_number 15
_symmetry_cell_setting 'monoclinic'
loop_
_space_group_symop_operation_xyz
x,y,z
-x,y,1/2-z
-x,-y,-z
x,-y,1/2+z
1/2+x,1/2+y,z
1/2-x,1/2+y,1/2-z
1/2-x,1/2-y,-z
1/2+x,1/2-y,1/2+z
loop_
_atom_site_type_symbol
_atom_site_label
_atom_site_fract_x
_atom_site_fract_y
_atom_site_fract_z
Si Si1 0.387968 0.655704 0.005696
Si Si2 0.795970 0.366148 0.826008
Si Si3 0.570168 0.833087 0.078371
Si Si4 0.619733 0.547782 0.652528
Si Si5 0.081657 0.489701 0.482834
Si Si6 0.308234 0.638690 0.570035
Si Si7 0.971294 0.792490 0.006859
Si Si8 0.000000 0.354348 0.750000
O O1 0.500000 0.667854 0.250000
O O2 0.225674 0.654579 0.832375
O O3 0.423229 0.596439 0.992929
O O4 0.415021 0.702199 0.945196
O O5 0.726491 0.373513 0.607130
O O6 0.669604 0.329130 0.714771
O O7 0.855396 0.425976 0.946517
O O8 0.944083 0.333551 0.002272
O O9 0.569273 0.771125 0.022268
O O10 0.537046 0.875893 0.928904
O O11 0.500000 0.500000 0.500000
O O12 0.648564 0.581003 0.809369
O O13 0.771595 0.523918 0.816848
O O14 0.000000 0.502227 0.250000
O O15 0.000000 0.500000 0.500000
O O16 0.436298 0.680403 0.769274
O O17 0.162448 0.664383 0.432204
#
# Coordination Sequence:
#
# PCOD9272334 Si02
#       8
#     8   8   8   8   8   8   8   4
#     4  11  25  46  66  91 135 181 229 279 348 429
#     4  11  25  39  65 102 140 171 225 293 353 414
#     4  11  23  41  67  99 134 184 228 278 358 418
#     4  11  24  43  69  96 128 177 235 287 351 418
#     4  12  27  46  73 103 140 186 237 297 362 432
#     4  10  22  40  65  97 138 175 223 287 351 419
#     4  11  23  41  65 101 134 174 232 285 343 410
#     4  10  20  36  70  92 132 172 222 280 332 420
#
# _framework density 23.162357
#
# number of rings (size 3 to 8) (size 9 to 14) (size 15 to 20)
#    0.000    1.067    2.667    4.400    4.667    6.933 
#    0.000    1.333    0.000    0.000    0.000    0.000 
#    0.000    0.000    0.000    0.000    0.000    0.000 
#
# Total GULP energy -167200.648336 kJ/mol
# GULP energy per Si atom -5573.354945 kJ/mol
# Density = 2.310964 g / cm^3
# Si number density = 23.162357 Si / 1000 Ang^3
#
#
#
# Elastic Constant Matrix: (Units=GPa)
#
#
# Indices 1 2 3 4 5 6 
#
# 1 62.6226 20.4393 40.7301 0.0000 17.0724 0.0000
# 2 20.4393 96.0271 15.7287 0.0000 18.0462 0.0000
# 3 40.7301 15.7287 139.7420 0.0000 21.1868 0.0000
# 4 0.0000 0.0000 0.0000 23.7277 0.0000 24.2512
# 5 17.0724 18.0462 21.1868 0.0000 46.8422 0.0000
# 6 0.0000 0.0000 0.0000 24.2512 0.0000 4.4752
#
#
#
# Elastic Compliance Matrix: (Units=1/GPa)
#
#
# Indices 1 2 3 4 5 6 
#
# 1 0.021542 -0.002903 -0.005294 0.000000 -0.004339 0.000000
# 2 -0.002903 0.011673 0.000058 0.000000 -0.003465 0.000000
# 3 -0.005294 0.000058 0.009022 0.000000 -0.002173 0.000000
# 4 0.000000 0.000000 0.000000 -0.009286 0.000000 0.050320
# 5 -0.004339 -0.003465 -0.002173 0.000000 0.025248 0.000000
# 6 0.000000 0.000000 0.000000 0.050320 0.000000 -0.049234
#
#
# Mechanical properties :
#
#
# Convention : Reuss Voigt Hill
#
# Bulk Modulus (GPa) = 38.52265 50.24311 44.38288
# Shear Modulus (GPa) = 147.50285 29.77524 88.63904
#
# Velocity S-wave (km/s) = 7.98877 3.58928 6.19287
# Velocity P-wave (km/s) = 10.08769 6.23827 8.38682
#
# Compressibility (1/GPa) = 0.02595875
#
# Stress axis : x y z
#
# Youngs Moduli (GPa) = 46.42014 85.66499 110.83766
#
# Poissons Ratio (x) = 0.24867 0.58682
# Poissons Ratio (y) = 0.13475 -0.00638
# Poissons Ratio (z) = 0.24577 -0.00493
#
# Static dielectric constant tensor:
#      x y z
#    x 1.967990 0.000000 -0.009280 
#    y 0.000000 1.841630 0.000000 
#    z -0.009280 0.000000 1.835010 
# 
# From -- ./inp_files/108466.got.cif
#   From: 2010.05.17/outbox.cif.g08.bks.cpg/sg15_55_cif.got.tgz:108466.got - 2010.06.03 18:47:42.
