data_PCOD9272313
_publ_section_title
;
Structure prediction by ZEFSAII (Michael W. Deem and Ramdas Pophale) SiO2 
 PCOD9272313
Probable space group: C 2/C
;
_chemical_formula_sum "Si O2"
_cell_formula_units_Z 44
_cell_length_a 27.388051
_cell_length_b 13.691202
_cell_length_c 13.460748
_cell_angle_alpha 90.000000
_cell_angle_beta 158.125819
_cell_angle_gamma 90.000000
_cell_volume 1880.526070
_symmetry_space_group_name_H-M "C 2/C"
_symmetry_group_IT_number 15
_symmetry_cell_setting 'monoclinic'
loop_
_space_group_symop_operation_xyz
x,y,z
-x,y,1/2-z
-x,-y,-z
x,-y,1/2+z
1/2+x,1/2+y,z
1/2-x,1/2+y,1/2-z
1/2-x,1/2-y,-z
1/2+x,1/2-y,1/2+z
loop_
_atom_site_type_symbol
_atom_site_label
_atom_site_fract_x
_atom_site_fract_y
_atom_site_fract_z
Si Si1 0.500000 0.056414 0.250000
Si Si2 0.731052 0.450953 0.703235
Si Si3 0.109986 0.071449 0.623572
Si Si4 0.813763 0.064001 0.076447
Si Si5 0.809944 0.274141 0.721480
Si Si6 0.534117 0.887570 0.038348
O O1 0.509045 0.117592 0.371032
O O2 0.627954 0.985954 0.488234
O O3 0.621887 0.474029 0.579317
O O4 0.697964 0.530170 0.557748
O O5 0.739396 0.347156 0.664863
O O6 0.170035 0.168485 0.690744
O O7 0.961923 0.097398 0.373226
O O8 0.194152 0.036951 0.876511
O O9 0.686664 0.128731 0.853748
O O10 0.750000 0.250000 0.500000
O O11 0.945402 0.323887 0.943190
O O12 0.500000 0.000000 0.000000
#
# Coordination Sequence:
#
# PCOD9272313 Si02
#       6
#     4   8   8   8   8   8
#     4  10  20  36  68  98 126 192 222 282 346 406
#     4  11  22  42  69  97 142 181 229 291 345 411
#     4  11  24  43  69  98 140 186 233 278 364 414
#     4  10  22  44  67  95 141 187 217 298 351 412
#     4  12  23  43  74 102 137 184 235 292 347 427
#     4  11  20  41  69 100 142 180 233 285 356 410
#
# _framework density 23.397708999999999
#
# number of rings (size 3 to 8) (size 9 to 14) (size 15 to 20)
#    0.000    1.091    5.455    2.727    0.000    0.727 
#    3.273   10.909    0.000    0.000    0.000    0.000 
#    0.000    0.000    0.000    0.000    0.000    0.000 
#
# Total GULP energy -122756.578102 kJ/mol
# GULP energy per Si atom -5579.844459 kJ/mol
# Density = 2.334445 g / cm^3
# Si number density = 23.397709 Si / 1000 Ang^3
#
#
#
# Elastic Constant Matrix: (Units=GPa)
#
#
# Indices 1 2 3 4 5 6 
#
# 1 104.2310 43.0839 22.7853 0.0000 5.2832 0.0000
# 2 43.0839 97.5508 11.6055 0.0000 2.5671 0.0000
# 3 22.7853 11.6055 100.2330 0.0000 4.3572 0.0000
# 4 0.0000 0.0000 0.0000 15.9750 0.0000 3.7279
# 5 5.2832 2.5671 4.3572 0.0000 26.7153 0.0000
# 6 0.0000 0.0000 0.0000 3.7279 0.0000 37.1943
#
#
#
# Elastic Compliance Matrix: (Units=1/GPa)
#
#
# Indices 1 2 3 4 5 6 
#
# 1 0.012254 -0.005118 -0.002124 0.000000 -0.001585 0.000000
# 2 -0.005118 0.012549 -0.000283 0.000000 -0.000148 0.000000
# 3 -0.002124 -0.000283 0.010548 0.000000 -0.001273 0.000000
# 4 0.000000 0.000000 0.000000 0.064097 0.000000 -0.006424
# 5 -0.001585 -0.000148 -0.001273 0.000000 0.037967 0.000000
# 6 0.000000 0.000000 0.000000 -0.006424 0.000000 0.027530
#
#
# Mechanical properties :
#
#
# Convention : Reuss Voigt Hill
#
# Bulk Modulus (GPa) = 49.25948 50.77381 50.01665
# Shear Modulus (GPa) = 26.77206 30.94626 28.85916
#
# Velocity S-wave (km/s) = 3.38630 3.64073 3.51582
# Velocity P-wave (km/s) = 6.03226 6.27859 6.15666
#
# Compressibility (1/GPa) = 0.02030066
#
# Stress axis : x y z
#
# Youngs Moduli (GPa) = 81.60469 79.68817 94.80688
#
# Poissons Ratio (x) = 0.40782 0.20139
# Poissons Ratio (y) = 0.41763 0.02685
# Poissons Ratio (z) = 0.17335 0.02257
#
# Static dielectric constant tensor:
#      x y z
#    x 1.936350 0.000000 0.033700 
#    y 0.000000 1.893130 0.000000 
#    z 0.033700 0.000000 1.969590 
# 
# From -- ./inp_files/182369.got.cif
#   From: 2010.05.17/outbox.cif.g08.bks.cpg/sg15_92_cif.got.tgz:182369.got - 2010.06.03 18:47:42.
