data_PCOD9272374
_publ_section_title
;
Structure prediction by ZEFSAII (Michael W. Deem and Ramdas Pophale) SiO2 
 PCOD9272374
Probable space group: C 2/C
;
_chemical_formula_sum "Si O2"
_cell_formula_units_Z 64
_cell_length_a 25.581586
_cell_length_b 17.666839
_cell_length_c 24.708088
_cell_angle_alpha 90.000000
_cell_angle_beta 19.454800
_cell_angle_gamma 90.000000
_cell_volume 3719.221108
_symmetry_space_group_name_H-M "C 2/C"
_symmetry_group_IT_number 15
_symmetry_cell_setting 'monoclinic'
loop_
_space_group_symop_operation_xyz
x,y,z
-x,y,1/2-z
-x,-y,-z
x,-y,1/2+z
1/2+x,1/2+y,z
1/2-x,1/2+y,1/2-z
1/2-x,1/2-y,-z
1/2+x,1/2-y,1/2+z
loop_
_atom_site_type_symbol
_atom_site_label
_atom_site_fract_x
_atom_site_fract_y
_atom_site_fract_z
Si Si1 0.816984 0.024599 0.076135
Si Si2 0.630985 0.865013 0.998503
Si Si3 0.645109 0.473824 0.784105
Si Si4 0.816245 0.831669 0.921213
Si Si5 0.615576 0.951201 0.184775
Si Si6 0.459611 0.793836 0.518534
Si Si7 0.362762 0.647586 0.116626
Si Si8 0.851246 0.555048 0.658248
O O1 0.843860 0.107419 0.076774
O O2 0.711811 0.012848 0.125518
O O3 0.727042 0.976235 0.210511
O O4 0.992331 0.991206 0.898285
O O5 0.488273 0.900032 0.172432
O O6 0.584121 0.797967 0.002862
O O7 0.712899 0.931079 0.883963
O O8 0.764301 0.842243 0.910300
O O9 0.595609 0.419465 0.882000
O O10 0.723452 0.546305 0.735667
O O11 0.000000 0.834187 0.750000
O O12 0.750000 0.750000 0.000000
O O13 0.733904 0.894927 0.038545
O O14 0.500000 0.981009 0.250000
O O15 0.519984 0.716099 0.484981
O O16 0.307437 0.821892 0.699308
O O17 0.589487 0.859811 0.395704
O O18 0.000000 0.500000 0.500000
#
# Coordination Sequence:
#
# PCOD9272374 Si02
#       8
#     8   8   8   8   8   8   8   8
#     4  11  20  36  56  78 111 144 189 235 273 325
#     4  10  20  37  54  77 104 150 184 221 282 324
#     4  10  21  33  54  80 108 144 186 220 274 336
#     4  11  23  38  53  78 113 145 190 234 270 321
#     4  10  21  36  59  79 103 146 192 234 273 326
#     4  11  22  34  51  78 115 142 179 225 273 342
#     4  10  23  33  50  82 112 147 187 216 280 335
#     4  11  17  35  54  74 107 149 180 224 268 341
#
# _framework density 17.207903999999999
#
# number of rings (size 3 to 8) (size 9 to 14) (size 15 to 20)
#    0.000    1.500    5.000    3.375    3.500    5.000 
#    0.000    0.000    0.000    0.000    0.000    0.875 
#    0.000    0.000    0.000    0.000    0.000    0.000 
#
# Total GULP energy -178492.433109 kJ/mol
# GULP energy per Si atom -5577.888535 kJ/mol
# Density = 1.716874 g / cm^3
# Si number density = 17.207904 Si / 1000 Ang^3
#
#
#
# Elastic Constant Matrix: (Units=GPa)
#
#
# Indices 1 2 3 4 5 6 
#
# 1 128.4303 50.7141 36.1550 0.0015 -27.1514 0.0002
# 2 50.7141 71.2801 22.8829 0.0046 -14.0871 -0.0066
# 3 36.1550 22.8829 82.2594 -0.0064 -20.5644 -0.0014
# 4 0.0015 0.0046 -0.0064 24.2670 0.0014 -9.3925
# 5 -27.1514 -14.0871 -20.5644 0.0014 30.1793 -0.0010
# 6 0.0002 -0.0066 -0.0014 -9.3925 -0.0010 29.4627
#
#
#
# Elastic Compliance Matrix: (Units=1/GPa)
#
#
# Indices 1 2 3 4 5 6 
#
# 1 0.012475 -0.006949 -0.001874 -0.000001 0.006702 -0.000002
# 2 -0.006949 0.019969 -0.002089 -0.000003 0.001645 0.000004
# 3 -0.001874 -0.002089 0.015544 0.000005 0.007930 0.000002
# 4 -0.000001 -0.000003 0.000005 0.047009 0.000000 0.014986
# 5 0.006702 0.001645 0.007930 0.000000 0.045337 0.000002
# 6 -0.000002 0.000004 0.000002 0.014986 0.000002 0.038719
#
#
# Mechanical properties :
#
#
# Convention : Reuss Voigt Hill
#
# Bulk Modulus (GPa) = 38.22241 55.71931 46.97086
# Shear Modulus (GPa) = 23.85494 28.26299 26.05896
#
# Velocity S-wave (km/s) = 3.72731 4.05710 3.89570
# Velocity P-wave (km/s) = 6.38625 7.37544 6.89860
#
# Compressibility (1/GPa) = 0.02616266
#
# Stress axis : x y z
#
# Youngs Moduli (GPa) = 80.15977 50.07656 64.33246
#
# Poissons Ratio (x) = 0.34800 0.12058
# Poissons Ratio (y) = 0.55706 0.13441
# Poissons Ratio (z) = 0.15025 0.10462
#
# Static dielectric constant tensor:
#      x y z
#    x 1.531990 0.000000 -0.033640 
#    y 0.000000 1.575820 0.000010 
#    z -0.033640 0.000010 1.607100 
# 
# From -- ./inp_files/282243.got.cif
#   From: 2010.05.17/outbox.cif.g08.bks.cpg/sg15_142_cif.got.tgz:282243.got - 2010.06.03 18:47:42.
