data_PCOD9272815
_publ_section_title
;
Structure prediction by ZEFSAII (Michael W. Deem and Ramdas Pophale) SiO2 
 PCOD9272815
Probable space group: C 2/C
;
_chemical_formula_sum "Si O2"
_cell_formula_units_Z 52
_cell_length_a 18.973186
_cell_length_b 20.269547
_cell_length_c 8.062749
_cell_angle_alpha 90.000000
_cell_angle_beta 58.439036
_cell_angle_gamma 90.000000
_cell_volume 2642.102858
_symmetry_space_group_name_H-M "C 2/C"
_symmetry_group_IT_number 15
_symmetry_cell_setting 'monoclinic'
loop_
_space_group_symop_operation_xyz
x,y,z
-x,y,1/2-z
-x,-y,-z
x,-y,1/2+z
1/2+x,1/2+y,z
1/2-x,1/2+y,1/2-z
1/2-x,1/2-y,-z
1/2+x,1/2-y,1/2+z
loop_
_atom_site_type_symbol
_atom_site_label
_atom_site_fract_x
_atom_site_fract_y
_atom_site_fract_z
Si Si1 0.451483 0.685421 0.486053
Si Si2 0.964498 0.337168 0.476963
Si Si3 0.116184 0.416642 0.428121
Si Si4 0.203783 0.898604 0.375322
Si Si5 0.670073 0.528306 0.569359
Si Si6 0.500000 0.400700 0.250000
Si Si7 0.655582 0.061926 0.262050
O O1 0.500000 0.677651 0.250000
O O2 0.453323 0.761469 0.540549
O O3 0.358007 0.662145 0.562012
O O4 0.485227 0.642084 0.599957
O O5 0.033625 0.376717 0.494341
O O6 0.000000 0.336090 0.250000
O O7 0.880970 0.379693 0.583793
O O8 0.198647 0.384099 0.246365
O O9 0.116533 0.491679 0.360458
O O10 0.129808 0.421783 0.606708
O O11 0.186716 0.941781 0.230006
O O12 0.178640 0.949356 0.551087
O O13 0.580741 0.553875 0.625392
O O14 0.745742 0.554839 0.363716
#
# Coordination Sequence:
#
# PCOD9272815 Si02
#       7
#     8   8   8   8   8   4   8
#     4  10  24  41  57  87 122 161 202 243 294 357
#     4  11  23  40  56  83 120 159 199 241 291 358
#     4  10  20  37  62  88 115 156 191 248 300 345
#     4   9  20  38  58  90 120 146 198 247 293 356
#     4   9  20  35  60  90 115 151 194 243 301 346
#     4  10  22  40  60  90 120 158 202 244 296 354
#     4  10  20  37  60  90 117 149 197 246 299 350
#
# _framework density 19.681293
#
# number of rings (size 3 to 8) (size 9 to 14) (size 15 to 20)
#    0.000    2.154    0.000    1.846    5.385    2.462 
#    2.769    3.846    0.000    0.000    0.000    0.000 
#    0.000    0.000    0.000    0.000    0.000    0.000 
#
# Total GULP energy -145125.698174 kJ/mol
# GULP energy per Si atom -5581.757622 kJ/mol
# Density = 1.963650 g / cm^3
# Si number density = 19.681293 Si / 1000 Ang^3
#
#
#
# Elastic Constant Matrix: (Units=GPa)
#
#
# Indices 1 2 3 4 5 6 
#
# 1 65.0999 17.8466 24.0246 0.0000 -22.2604 0.0000
# 2 17.8466 60.7738 45.3643 0.0000 -21.0985 0.0000
# 3 24.0246 45.3643 61.4379 0.0000 -14.3210 0.0000
# 4 0.0000 0.0000 0.0000 27.4591 0.0000 -1.9489
# 5 -22.2604 -21.0985 -14.3210 0.0000 29.2148 0.0000
# 6 0.0000 0.0000 0.0000 -1.9489 0.0000 -1.1019
#
#
#
# Elastic Compliance Matrix: (Units=1/GPa)
#
#
# Indices 1 2 3 4 5 6 
#
# 1 0.023231 0.006736 -0.009933 0.000000 0.017697 0.000000
# 2 0.006736 0.045436 -0.030865 0.000000 0.022816 0.000000
# 3 -0.009933 -0.030865 0.040633 0.000000 -0.009940 0.000000
# 4 0.000000 0.000000 0.000000 0.032356 0.000000 -0.057226
# 5 0.017697 0.022816 -0.009940 0.000000 0.059318 0.000000
# 6 0.000000 0.000000 0.000000 -0.057226 0.000000 -0.806299
#
#
# Mechanical properties :
#
#
# Convention : Reuss Voigt Hill
#
# Bulk Modulus (GPa) = 24.28489 40.19807 32.24148
# Shear Modulus (GPa) = -9.55155 17.78614 4.11729
#
# Velocity S-wave (km/s) = -2.20537 3.00943 1.44794
# Velocity P-wave (km/s) = 2.42508 5.70477 4.38323
#
# Compressibility (1/GPa) = 0.04117788
#
# Stress axis : x y z
#
# Youngs Moduli (GPa) = 43.04522 22.00901 24.61025
#
# Poissons Ratio (x) = -0.14826 0.24446
# Poissons Ratio (y) = -0.28996 0.75958
# Poissons Ratio (z) = 0.42757 0.67930
#
# Static dielectric constant tensor:
#      x y z
#    x 1.712380 0.000000 0.013230 
#    y 0.000000 1.776530 0.000000 
#    z 0.013230 0.000000 1.722660 
# 
# From -- ./inp_files/56961.got.cif
#   From: 2010.05.17/outbox.cif.g08.bks.cpg/sg15_29_cif.got.tgz:56961.got - 2010.06.03 18:47:42.
