data_PCOD9272905
_publ_section_title
;
Structure prediction by ZEFSAII (Michael W. Deem and Ramdas Pophale) SiO2 
 PCOD9272905
Probable space group: C 2/C
;
_chemical_formula_sum "Si O2"
_cell_formula_units_Z 48
_cell_length_a 15.668485
_cell_length_b 8.551927
_cell_length_c 20.164444
_cell_angle_alpha 90.000000
_cell_angle_beta 96.282461
_cell_angle_gamma 90.000000
_cell_volume 2685.723036
_symmetry_space_group_name_H-M "C 2/C"
_symmetry_group_IT_number 15
_symmetry_cell_setting 'monoclinic'
loop_
_space_group_symop_operation_xyz
x,y,z
-x,y,1/2-z
-x,-y,-z
x,-y,1/2+z
1/2+x,1/2+y,z
1/2-x,1/2+y,1/2-z
1/2-x,1/2-y,-z
1/2+x,1/2-y,1/2+z
loop_
_atom_site_type_symbol
_atom_site_label
_atom_site_fract_x
_atom_site_fract_y
_atom_site_fract_z
Si Si1 0.438021 0.411523 0.045529
Si Si2 0.048712 0.889192 0.186097
Si Si3 0.736306 0.699313 0.686977
Si Si4 0.732550 0.380249 0.943229
Si Si5 0.816165 0.858350 0.820464
Si Si6 0.327966 0.186178 0.961826
O O1 0.354271 0.521077 0.050295
O O2 0.500000 0.500000 0.000000
O O3 0.514196 0.618976 0.881520
O O4 0.409837 0.250471 0.007924
O O5 0.132815 0.780622 0.184003
O O6 0.000000 0.858299 0.250000
O O7 0.092903 0.061713 0.190608
O O8 0.771022 0.797812 0.628453
O O9 0.780292 0.752572 0.758552
O O10 0.744069 0.512473 0.676187
O O11 0.810872 0.503536 0.952098
O O12 0.750000 0.250000 0.000000
O O13 0.823395 0.767431 0.889736
O O14 0.250000 0.250000 0.000000
#
# Coordination Sequence:
#
# PCOD9272905 Si02
#       6
#     8   8   8   8   8   8
#     4  11  20  40  63  90 120 158 206 255 312 372
#     4  10  22  37  61  88 120 159 203 244 310 363
#     4  10  21  37  61  86 119 156 209 243 298 373
#     4  11  22  39  62  90 120 162 206 251 306 376
#     4  10  20  37  61  88 117 158 205 245 298 372
#     4  10  21  35  63  88 116 160 204 244 304 375
#
# _framework density 17.872281999999998
#
# number of rings (size 3 to 8) (size 9 to 14) (size 15 to 20)
#    1.000    0.667    1.667    5.000    4.667    0.000 
#    0.000    3.333    0.000    2.000    0.000    0.000 
#    0.000    0.000    0.000    0.000    0.000    0.000 
#
# Total GULP energy -133760.637632 kJ/mol
# GULP energy per Si atom -5573.359901 kJ/mol
# Density = 1.783160 g / cm^3
# Si number density = 17.872282 Si / 1000 Ang^3
#
#
#
# Elastic Constant Matrix: (Units=GPa)
#
#
# Indices 1 2 3 4 5 6 
#
# 1 73.7631 19.4057 49.7826 0.0000 11.9073 0.0000
# 2 19.4057 81.8826 37.4353 0.0000 13.7035 0.0000
# 3 49.7826 37.4353 156.6628 0.0000 20.4171 0.0000
# 4 0.0000 0.0000 0.0000 28.0735 0.0000 1.6707
# 5 11.9073 13.7035 20.4171 0.0000 42.5410 0.0000
# 6 0.0000 0.0000 0.0000 1.6707 0.0000 34.6701
#
#
#
# Elastic Compliance Matrix: (Units=1/GPa)
#
#
# Indices 1 2 3 4 5 6 
#
# 1 0.017653 -0.001569 -0.004967 0.000000 -0.002052 0.000000
# 2 -0.001569 0.014227 -0.002518 0.000000 -0.002935 0.000000
# 3 -0.004967 -0.002518 0.008829 0.000000 -0.002036 0.000000
# 4 0.000000 0.000000 0.000000 0.035723 0.000000 -0.001721
# 5 -0.002052 -0.002935 -0.002036 0.000000 0.026003 0.000000
# 6 0.000000 0.000000 0.000000 -0.001721 0.000000 0.028926
#
#
# Mechanical properties :
#
#
# Convention : Reuss Voigt Hill
#
# Bulk Modulus (GPa) = 44.24998 58.39508 51.32253
# Shear Modulus (GPa) = 31.84604 34.76923 33.30764
#
# Velocity S-wave (km/s) = 4.22580 4.41549 4.32168
# Velocity P-wave (km/s) = 6.97299 7.66419 7.32674
#
# Compressibility (1/GPa) = 0.02259888
#
# Stress axis : x y z
#
# Youngs Moduli (GPa) = 56.64625 70.28833 113.26720
#
# Poissons Ratio (x) = 0.11031 0.56263
# Poissons Ratio (y) = 0.08890 0.28525
# Poissons Ratio (z) = 0.28138 0.17702
#
# Static dielectric constant tensor:
#      x y z
#    x 1.600040 0.000000 -0.040320 
#    y 0.000000 1.618550 0.000000 
#    z -0.040320 0.000000 1.495590 
# 
# From -- ./inp_files/208633.got.cif
#   From: 2010.05.17/outbox.cif.g08.bks.cpg/sg15_105_cif.got.tgz:208633.got - 2010.06.03 18:47:42.
