data_PCOD9272675
_publ_section_title
;
Structure prediction by ZEFSAII (Michael W. Deem and Ramdas Pophale) SiO2 
 PCOD9272675
Probable space group: C 2/C
;
_chemical_formula_sum "Si O2"
_cell_formula_units_Z 64
_cell_length_a 11.881306
_cell_length_b 18.750230
_cell_length_c 20.175983
_cell_angle_alpha 90.000000
_cell_angle_beta 45.041446
_cell_angle_gamma 90.000000
_cell_volume 3180.566015
_symmetry_space_group_name_H-M "C 2/C"
_symmetry_group_IT_number 15
_symmetry_cell_setting 'monoclinic'
loop_
_space_group_symop_operation_xyz
x,y,z
-x,y,1/2-z
-x,-y,-z
x,-y,1/2+z
1/2+x,1/2+y,z
1/2-x,1/2+y,1/2-z
1/2-x,1/2-y,-z
1/2+x,1/2-y,1/2+z
loop_
_atom_site_type_symbol
_atom_site_label
_atom_site_fract_x
_atom_site_fract_y
_atom_site_fract_z
Si Si1 0.094596 0.024310 0.551066
Si Si2 0.347297 0.150798 0.117875
Si Si3 0.079878 0.742168 0.533179
Si Si4 0.764033 0.560405 0.754551
Si Si5 0.813621 0.999538 0.845839
Si Si6 0.888539 0.589481 0.235559
Si Si7 0.131374 0.283523 0.252092
Si Si8 0.439832 0.388629 0.560053
O O1 0.134393 0.079406 0.476490
O O2 0.916026 0.043101 0.648796
O O3 0.203268 0.021542 0.570695
O O4 0.071409 0.945892 0.529551
O O5 0.242884 0.081303 0.142925
O O6 0.441186 0.123820 0.143919
O O7 0.248915 0.219998 0.182862
O O8 0.424630 0.178152 0.017683
O O9 0.250000 0.750000 0.500000
O O10 0.952919 0.733349 0.643804
O O11 0.029276 0.814286 0.516499
O O12 0.770395 0.551165 0.672205
O O13 0.874622 0.496399 0.735351
O O14 0.798475 0.637881 0.767883
O O15 0.000000 0.001236 0.750000
O O16 0.706593 0.613848 0.327200
O O17 0.000000 0.609703 0.250000
O O18 0.000000 0.286252 0.250000
#
# Coordination Sequence:
#
# PCOD9272675 Si02
#       8
#     8   8   8   8   8   8   8   8
#     4   9  18  34  62  89 115 155 200 254 299 356
#     4  11  22  40  62  88 124 158 202 255 300 368
#     4  12  24  37  61  95 122 158 203 251 318 365
#     4   9  20  37  59  88 121 152 200 252 304 359
#     4   9  18  36  62  85 116 161 200 240 306 362
#     4  10  21  43  63  81 117 171 207 241 306 367
#     4  12  23  38  60  89 125 158 194 258 310 359
#     4  10  20  37  59  89 121 150 207 253 295 371
#
# _framework density 20.122205000000001
#
# number of rings (size 3 to 8) (size 9 to 14) (size 15 to 20)
#    0.000    1.750    2.500    3.000    0.000    0.000 
#    9.000    5.000    0.000    0.000    0.000    0.000 
#    0.000    0.000    0.000    0.000    0.000    0.000 
#
# Total GULP energy -178600.600108 kJ/mol
# GULP energy per Si atom -5581.268753 kJ/mol
# Density = 2.007641 g / cm^3
# Si number density = 20.122205 Si / 1000 Ang^3
#
#
#
# Elastic Constant Matrix: (Units=GPa)
#
#
# Indices 1 2 3 4 5 6 
#
# 1 78.3426 26.4093 9.8296 -0.0001 30.9682 0.0001
# 2 26.4093 94.6056 9.5734 0.0001 7.8889 -0.0001
# 3 9.8296 9.5734 59.0773 0.0000 28.7653 -0.0001
# 4 -0.0001 0.0001 0.0000 30.7271 -0.0002 5.0971
# 5 30.9682 7.8889 28.7653 -0.0002 34.1374 0.0000
# 6 0.0001 -0.0001 -0.0001 5.0971 0.0000 18.7660
#
#
#
# Elastic Compliance Matrix: (Units=1/GPa)
#
#
# Indices 1 2 3 4 5 6 
#
# 1 0.026273 -0.005854 0.012758 0.000000 -0.033232 0.000000
# 2 -0.005854 0.012111 -0.003750 0.000000 0.005672 0.000000
# 3 0.012758 -0.003750 0.034975 0.000000 -0.040178 0.000000
# 4 0.000000 0.000000 0.000000 0.034080 0.000001 -0.009257
# 5 -0.033232 0.005672 -0.040178 0.000001 0.091984 0.000000
# 6 0.000000 0.000000 0.000000 -0.009257 0.000000 0.055802
#
#
# Mechanical properties :
#
#
# Convention : Reuss Voigt Hill
#
# Bulk Modulus (GPa) = 12.55239 35.96113 24.25676
# Shear Modulus (GPa) = 18.15052 29.14032 23.64542
#
# Velocity S-wave (km/s) = 3.00661 3.80961 3.43168
# Velocity P-wave (km/s) = 4.27839 6.10418 5.27094
#
# Compressibility (1/GPa) = 0.07966612
#
# Stress axis : x y z
#
# Youngs Moduli (GPa) = 38.06132 82.57001 28.59191
#
# Poissons Ratio (x) = 0.48338 -0.36477
# Poissons Ratio (y) = 0.22282 0.10723
# Poissons Ratio (z) = -0.48558 0.30966
#
# Static dielectric constant tensor:
#      x y z
#    x 1.715850 0.000000 0.017950 
#    y 0.000000 1.701010 0.000000 
#    z 0.017950 0.000000 1.791210 
# 
# From -- ./inp_files/239798.got.cif
#   From: 2010.05.17/outbox.cif.g08.bks.cpg/sg15_120_cif.got.tgz:239798.got - 2010.06.03 18:47:42.
