data_PCOD9272789
_publ_section_title
;
Structure prediction by ZEFSAII (Michael W. Deem and Ramdas Pophale) SiO2 
 PCOD9272789
Probable space group: C 2/C
;
_chemical_formula_sum "Si O2"
_cell_formula_units_Z 56
_cell_length_a 17.447880
_cell_length_b 19.520432
_cell_length_c 14.598601
_cell_angle_alpha 90.000000
_cell_angle_beta 149.804580
_cell_angle_gamma 90.000000
_cell_volume 2500.741969
_symmetry_space_group_name_H-M "C 2/C"
_symmetry_group_IT_number 15
_symmetry_cell_setting 'monoclinic'
loop_
_space_group_symop_operation_xyz
x,y,z
-x,y,1/2-z
-x,-y,-z
x,-y,1/2+z
1/2+x,1/2+y,z
1/2-x,1/2+y,1/2-z
1/2-x,1/2-y,-z
1/2+x,1/2-y,1/2+z
loop_
_atom_site_type_symbol
_atom_site_label
_atom_site_fract_x
_atom_site_fract_y
_atom_site_fract_z
Si Si1 0.506841 0.113274 0.856464
Si Si2 0.394123 0.616182 0.723041
Si Si3 0.627788 0.781847 0.630733
Si Si4 0.924921 0.343556 0.575210
Si Si5 0.544447 0.347591 0.564033
Si Si6 0.812702 0.969533 0.692723
Si Si7 0.351648 0.046365 0.840907
O O1 0.500000 0.145540 0.750000
O O2 0.357042 0.077641 0.745173
O O3 0.550589 0.167269 0.978527
O O4 0.646577 0.059519 0.993319
O O5 0.500000 0.637537 0.750000
O O6 0.251839 0.669179 0.581130
O O7 0.349672 0.535152 0.668220
O O8 0.489700 0.617460 0.914686
O O9 0.541688 0.794943 0.639353
O O10 0.590986 0.706002 0.557117
O O11 0.804047 0.803720 0.805904
O O12 0.885947 0.400645 0.458047
O O13 0.000000 0.363957 0.750000
O O14 0.581795 0.403180 0.681119
O O15 0.788534 0.001237 0.770469
O O16 0.500000 0.000000 0.000000
#
# Coordination Sequence:
#
# PCOD9272789 Si02
#       7
#     8   8   8   8   8   8   8
#     4   9  18  35  60  90 120 153 196 244 292 350
#     4  11  23  37  58  92 123 155 192 239 301 361
#     4  10  22  40  63  87 115 159 206 245 293 346
#     4  10  20  37  60  88 121 155 193 240 290 351
#     4  11  22  41  60  82 117 157 199 248 293 348
#     4   9  20  36  57  85 119 157 193 237 298 355
#     4   8  16  30  53  86 117 152 190 229 287 347
#
# _framework density 22.393355
#
# number of rings (size 3 to 8) (size 9 to 14) (size 15 to 20)
#    0.000    2.286    0.000    3.000    0.000    6.857 
#    0.000    9.286    0.000    0.000    0.000    0.000 
#    0.000    0.000    0.000    0.000    0.000    0.000 
#
# Total GULP energy -155921.469637 kJ/mol
# GULP energy per Si atom -5568.623916 kJ/mol
# Density = 2.234239 g / cm^3
# Si number density = 22.393355 Si / 1000 Ang^3
#
#
#
# Elastic Constant Matrix: (Units=GPa)
#
#
# Indices 1 2 3 4 5 6 
#
# 1 85.6227 -0.0618 18.4067 0.0000 -5.1934 0.0000
# 2 -0.0618 52.2336 13.5412 0.0000 8.0812 0.0000
# 3 18.4067 13.5412 69.8205 0.0000 7.8690 0.0000
# 4 0.0000 0.0000 0.0000 29.9751 0.0000 5.7823
# 5 -5.1934 8.0812 7.8690 0.0000 19.4710 0.0000
# 6 0.0000 0.0000 0.0000 5.7823 0.0000 10.7512
#
#
#
# Elastic Compliance Matrix: (Units=1/GPa)
#
#
# Indices 1 2 3 4 5 6 
#
# 1 0.012836 0.000290 -0.003995 0.000000 0.004918 0.000000
# 2 0.000290 0.021150 -0.003350 0.000000 -0.007347 0.000000
# 3 -0.003995 -0.003350 0.016752 0.000000 -0.006445 0.000000
# 4 0.000000 0.000000 0.000000 0.037223 0.000000 -0.020019
# 5 0.004918 -0.007347 -0.006445 0.000000 0.058324 0.000000
# 6 0.000000 0.000000 0.000000 -0.020019 0.000000 0.103780
#
#
# Mechanical properties :
#
#
# Convention : Reuss Voigt Hill
#
# Bulk Modulus (GPa) = 27.30124 30.16100 28.73112
# Shear Modulus (GPa) = 18.09077 23.75885 20.92481
#
# Velocity S-wave (km/s) = 2.84538 3.26080 3.06015
# Velocity P-wave (km/s) = 4.79719 5.26071 5.03429
#
# Compressibility (1/GPa) = 0.03662837
#
# Stress axis : x y z
#
# Youngs Moduli (GPa) = 77.90374 47.28054 59.69561
#
# Poissons Ratio (x) = -0.01371 0.23845
# Poissons Ratio (y) = -0.02258 0.20000
# Poissons Ratio (z) = 0.31119 0.15841
#
# Static dielectric constant tensor:
#      x y z
#    x 1.848530 0.000000 0.037600 
#    y 0.000000 1.894300 0.000000 
#    z 0.037600 0.000000 1.845700 
# 
# From -- ./inp_files/163840.got.cif
#   From: 2010.05.17/outbox.cif.g08.bks.cpg/sg15_82_cif.got.tgz:163840.got - 2010.06.03 18:47:42.
