data_PCOD9272188
_publ_section_title
;
Structure prediction by ZEFSAII (Michael W. Deem and Ramdas Pophale) SiO2 
 PCOD9272188
Probable space group: C 2/C
;
_chemical_formula_sum "Si O2"
_cell_formula_units_Z 40
_cell_length_a 7.692944
_cell_length_b 11.056853
_cell_length_c 24.922117
_cell_angle_alpha 90.000000
_cell_angle_beta 50.505956
_cell_angle_gamma 90.000000
_cell_volume 1635.883244
_symmetry_space_group_name_H-M "C 2/C"
_symmetry_group_IT_number 15
_symmetry_cell_setting 'monoclinic'
loop_
_space_group_symop_operation_xyz
x,y,z
-x,y,1/2-z
-x,-y,-z
x,-y,1/2+z
1/2+x,1/2+y,z
1/2-x,1/2+y,1/2-z
1/2-x,1/2-y,-z
1/2+x,1/2-y,1/2+z
loop_
_atom_site_type_symbol
_atom_site_label
_atom_site_fract_x
_atom_site_fract_y
_atom_site_fract_z
Si Si1 0.548221 0.001737 0.081973
Si Si2 0.707085 0.845898 0.448105
Si Si3 0.736796 0.500743 0.232211
Si Si4 0.560765 0.729507 0.300155
Si Si5 0.618792 0.678758 0.934258
O O1 0.370546 0.905560 0.091446
O O2 0.413922 0.062448 0.156373
O O3 0.763565 0.939332 0.065860
O O4 0.621047 0.076922 0.016270
O O5 0.556502 0.727189 0.486964
O O6 0.970705 0.834146 0.409123
O O7 0.500000 0.477736 0.250000
O O8 0.695956 0.604196 0.285718
O O9 0.832864 0.364791 0.221505
O O10 0.500000 0.713465 0.250000
O O11 0.333293 0.735309 0.380337
#
# Coordination Sequence:
#
# PCOD9272188 Si02
#       5
#     8   8   8   8   8
#     4  10  21  38  60  92 124 160 212 261 318 385
#     4  10  20  36  65  88 126 162 200 266 332 368
#     4  10  22  40  63  89 128 166 213 262 316 379
#     4  10  22  40  63  89 128 166 213 262 316 379
#     4  10  21  38  60  92 124 160 212 261 318 385
#
# _framework density 24.451623000000001
#
# number of rings (size 3 to 8) (size 9 to 14) (size 15 to 20)
#    0.000    2.000    0.000    3.600    2.800    0.800 
#    0.000    0.000    0.000    0.000    0.000    0.000 
#    0.000    0.000    0.000    0.000    0.000    0.000 
#
# Total GULP energy -111576.416299 kJ/mol
# GULP energy per Si atom -5578.820815 kJ/mol
# Density = 2.439597 g / cm^3
# Si number density = 24.451623 Si / 1000 Ang^3
#
#
#
# Elastic Constant Matrix: (Units=GPa)
#
#
# Indices 1 2 3 4 5 6 
#
# 1 70.6298 36.0681 36.5038 0.0000 -27.8822 0.0000
# 2 36.0681 116.0885 25.0330 0.0000 -25.7354 0.0000
# 3 36.5038 25.0330 85.9495 0.0000 -23.0874 0.0000
# 4 0.0000 0.0000 0.0000 38.3439 0.0000 -5.7971
# 5 -27.8822 -25.7354 -23.0874 0.0000 27.5478 0.0000
# 6 0.0000 0.0000 0.0000 -5.7971 0.0000 35.2871
#
#
#
# Elastic Compliance Matrix: (Units=1/GPa)
#
#
# Indices 1 2 3 4 5 6 
#
# 1 0.025727 -0.002615 -0.004938 0.000000 0.019458 0.000000
# 2 -0.002615 0.011151 -0.000064 0.000000 0.007717 0.000000
# 3 -0.004938 -0.000064 0.015992 0.000000 0.008344 0.000000
# 4 0.000000 0.000000 0.000000 0.026744 0.000000 0.004394
# 5 0.019458 0.007717 0.008344 0.000000 0.070198 0.000000
# 6 0.000000 0.000000 0.000000 0.004394 0.000000 0.029061
#
#
# Mechanical properties :
#
#
# Convention : Reuss Voigt Hill
#
# Bulk Modulus (GPa) = 26.57047 51.98641 39.27844
# Shear Modulus (GPa) = 24.19506 31.90661 28.05084
#
# Velocity S-wave (km/s) = 3.14906 3.61624 3.39070
# Velocity P-wave (km/s) = 4.91042 6.22442 5.60605
#
# Compressibility (1/GPa) = 0.03763576
#
# Stress axis : x y z
#
# Youngs Moduli (GPa) = 38.86910 89.67656 62.52994
#
# Poissons Ratio (x) = 0.23449 0.30880
# Poissons Ratio (y) = 0.10164 0.00402
# Poissons Ratio (z) = 0.19195 0.00577
#
# Static dielectric constant tensor:
#      x y z
#    x 1.940550 0.000000 -0.011570 
#    y 0.000000 2.143650 0.000000 
#    z -0.011570 0.000000 1.941110 
# 
# From -- ./inp_files/307002.got.cif
#   From: 2010.05.17/outbox.cif.g08.bks.cpg/sg15_154_cif.got.tgz:307002.got - 2010.06.03 18:47:42.
