data_PCOD9272904
_publ_section_title
;
Structure prediction by ZEFSAII (Michael W. Deem and Ramdas Pophale) SiO2 
 PCOD9272904
Probable space group: C 2/C
;
_chemical_formula_sum "Si O2"
_cell_formula_units_Z 56
_cell_length_a 15.069696
_cell_length_b 14.064176
_cell_length_c 12.459550
_cell_angle_alpha 90.000000
_cell_angle_beta 85.586499
_cell_angle_gamma 90.000000
_cell_volume 2632.881976
_symmetry_space_group_name_H-M "C 2/C"
_symmetry_group_IT_number 15
_symmetry_cell_setting 'monoclinic'
loop_
_space_group_symop_operation_xyz
x,y,z
-x,y,1/2-z
-x,-y,-z
x,-y,1/2+z
1/2+x,1/2+y,z
1/2-x,1/2+y,1/2-z
1/2-x,1/2-y,-z
1/2+x,1/2-y,1/2+z
loop_
_atom_site_type_symbol
_atom_site_label
_atom_site_fract_x
_atom_site_fract_y
_atom_site_fract_z
Si Si1 0.870546 0.402337 0.989917
Si Si2 0.143953 0.962197 0.531740
Si Si3 0.768954 0.902433 0.315667
Si Si4 0.508952 0.820562 0.129161
Si Si5 0.452719 0.630036 0.048961
Si Si6 0.417253 0.259422 0.332738
Si Si7 0.690126 0.102967 0.593166
O O1 0.874676 0.334341 0.887191
O O2 0.851399 0.508819 0.956583
O O3 0.793659 0.369916 0.079951
O O4 0.961082 0.387321 0.047317
O O5 0.214941 0.889573 0.475259
O O6 0.046472 0.921048 0.558290
O O7 0.182047 0.005921 0.638446
O O8 0.125626 0.051357 0.450390
O O9 0.842802 0.823455 0.283579
O O10 0.711537 0.917507 0.215461
O O11 0.500000 0.859047 0.250000
O O12 0.455923 0.720314 0.127382
O O13 0.614149 0.816653 0.093129
O O14 0.450399 0.677902 0.931182
O O15 0.500000 0.237765 0.250000
#
# Coordination Sequence:
#
# PCOD9272904 Si02
#       7
#     8   8   8   8   8   8   8
#     4  10  22  41  59  84 119 166 201 243 309 375
#     4   9  20  39  61  88 122 156 202 252 308 371
#     4  10  20  38  60  86 120 156 197 250 309 364
#     4  11  22  39  61  86 122 162 205 250 306 366
#     4   9  20  39  61  87 121 160 198 251 309 371
#     4  10  20  37  61  88 116 156 200 249 306 369
#     4  11  22  38  60  89 119 160 203 257 302 363
#
# _framework density 21.269469000000001
#
# number of rings (size 3 to 8) (size 9 to 14) (size 15 to 20)
#    0.000    2.000    1.429    1.714    0.000    3.429 
#   12.857    1.429    0.000    0.000    0.000    0.000 
#    0.000    0.000    0.000    0.000    0.000    0.000 
#
# Total GULP energy -156232.621279 kJ/mol
# GULP energy per Si atom -5579.736474 kJ/mol
# Density = 2.122106 g / cm^3
# Si number density = 21.269469 Si / 1000 Ang^3
#
#
#
# Elastic Constant Matrix: (Units=GPa)
#
#
# Indices 1 2 3 4 5 6 
#
# 1 81.1620 3.1538 4.4162 0.0000 12.4754 0.0000
# 2 3.1538 28.4699 2.3017 0.0000 2.0938 0.0000
# 3 4.4162 2.3017 34.9095 0.0000 8.0507 0.0000
# 4 0.0000 0.0000 0.0000 1.4688 0.0000 -11.1086
# 5 12.4754 2.0938 8.0507 0.0000 37.0965 0.0000
# 6 0.0000 0.0000 0.0000 -11.1086 0.0000 -30.1254
#
#
#
# Elastic Compliance Matrix: (Units=1/GPa)
#
#
# Indices 1 2 3 4 5 6 
#
# 1 0.013041 -0.001087 -0.000611 0.000000 -0.004192 0.000000
# 2 -0.001087 0.035490 -0.001921 0.000000 -0.001221 0.000000
# 3 -0.000611 -0.001921 0.030293 0.000000 -0.006260 0.000000
# 4 0.000000 0.000000 0.000000 0.179693 0.000000 -0.066261
# 5 -0.004192 -0.001221 -0.006260 0.000000 0.029794 0.000000
# 6 0.000000 0.000000 0.000000 -0.066261 0.000000 -0.008761
#
#
# Mechanical properties :
#
#
# Convention : Reuss Voigt Hill
#
# Bulk Modulus (GPa) = 13.96927 18.25386 16.11156
# Shear Modulus (GPa) = 16.09529 10.66596 13.38063
#
# Velocity S-wave (km/s) = 2.75386 2.24178 2.51091
# Velocity P-wave (km/s) = 4.08579 3.91172 3.99970
#
# Compressibility (1/GPa) = 0.07158571
#
# Stress axis : x y z
#
# Youngs Moduli (GPa) = 76.68224 28.17667 33.01071
#
# Poissons Ratio (x) = 0.03063 0.02018
# Poissons Ratio (y) = 0.08335 0.06341
# Poissons Ratio (z) = 0.04688 0.05413
#
# Static dielectric constant tensor:
#      x y z
#    x 1.802050 0.000000 -0.002950 
#    y 0.000000 1.803340 0.000000 
#    z -0.002950 0.000000 1.749360 
# 
# From -- ./inp_files/97011.got.cif
#   From: 2010.05.17/outbox.cif.g08.bks.cpg/sg15_49_cif.got.tgz:97011.got - 2010.06.03 18:47:42.
