data_PCOD9272328
_publ_section_title
;
Structure prediction by ZEFSAII (Michael W. Deem and Ramdas Pophale) SiO2 
 PCOD9272328
Probable space group: C 2/C
;
_chemical_formula_sum "Si O2"
_cell_formula_units_Z 36
_cell_length_a 21.660037
_cell_length_b 8.630074
_cell_length_c 15.156947
_cell_angle_alpha 90.000000
_cell_angle_beta 140.867231
_cell_angle_gamma 90.000000
_cell_volume 1788.121712
_symmetry_space_group_name_H-M "C 2/C"
_symmetry_group_IT_number 15
_symmetry_cell_setting 'monoclinic'
loop_
_space_group_symop_operation_xyz
x,y,z
-x,y,1/2-z
-x,-y,-z
x,-y,1/2+z
1/2+x,1/2+y,z
1/2-x,1/2+y,1/2-z
1/2-x,1/2-y,-z
1/2+x,1/2-y,1/2+z
loop_
_atom_site_type_symbol
_atom_site_label
_atom_site_fract_x
_atom_site_fract_y
_atom_site_fract_z
Si Si1 0.312041 0.862771 0.275151
Si Si2 0.528400 0.638638 0.963336
Si Si3 0.382354 0.803328 0.900409
Si Si4 0.500000 0.478754 0.750000
Si Si5 0.942992 0.681506 0.765495
O O1 0.377111 0.730866 0.396505
O O2 0.200138 0.816542 0.161888
O O3 0.349378 0.873180 0.215376
O O4 0.336623 0.027434 0.344659
O O5 0.435185 0.753878 0.868243
O O6 0.537525 0.575943 0.874496
O O7 0.500000 0.500000 0.000000
O O8 0.471816 0.803570 0.067544
O O9 0.422706 0.353025 0.703330
O O10 0.000000 0.592784 0.750000
#
# Coordination Sequence:
#
# PCOD9272328 Si02
#       5
#     8   8   8   4   8
#     4  11  23  39  63  87 119 161 200 244 300 353
#     4  11  19  41  63  89 122 156 200 243 302 358
#     4  11  23  39  63  87 119 161 200 244 300 353
#     4  10  20  36  70  86 118 160 196 242 310 348
#     4   9  20  39  61  86 118 157 195 241 301 356
#
# _framework density 20.132857999999999
#
# number of rings (size 3 to 8) (size 9 to 14) (size 15 to 20)
#    0.667    0.889    4.444    4.000    0.000    0.889 
#    8.000    1.111    0.000    0.000    0.000    0.000 
#    0.000    0.000    0.000    0.000    0.000    0.000 
#
# Total GULP energy -100299.097028 kJ/mol
# GULP energy per Si atom -5572.172057 kJ/mol
# Density = 2.008704 g / cm^3
# Si number density = 20.132858 Si / 1000 Ang^3
#
#
#
# Elastic Constant Matrix: (Units=GPa)
#
#
# Indices 1 2 3 4 5 6 
#
# 1 94.3528 -3.3825 29.7607 0.0000 -8.2543 0.0000
# 2 -3.3825 63.2700 7.5097 0.0000 -8.7012 0.0000
# 3 29.7607 7.5097 33.6457 0.0000 8.0452 0.0000
# 4 0.0000 0.0000 0.0000 36.0741 0.0000 -27.2714
# 5 -8.2543 -8.7012 8.0452 0.0000 38.5497 0.0000
# 6 0.0000 0.0000 0.0000 -27.2714 0.0000 111.1645
#
#
#
# Elastic Compliance Matrix: (Units=1/GPa)
#
#
# Indices 1 2 3 4 5 6 
#
# 1 0.017234 0.004245 -0.018212 0.000000 0.008449 0.000000
# 2 0.004245 0.018115 -0.009465 0.000000 0.006973 0.000000
# 3 -0.018212 -0.009465 0.051981 0.000000 -0.016884 0.000000
# 4 0.000000 0.000000 0.000000 0.034032 0.000000 0.008349
# 5 0.008449 0.006973 -0.016884 0.000000 0.032847 0.000000
# 6 0.000000 0.000000 0.000000 0.008349 0.000000 0.011044
#
#
# Mechanical properties :
#
#
# Convention : Reuss Voigt Hill
#
# Bulk Modulus (GPa) = 24.71295 28.78269 26.74782
# Shear Modulus (GPa) = 22.16250 47.64970 34.90610
#
# Velocity S-wave (km/s) = 3.32145 4.87022 4.16839
# Velocity P-wave (km/s) = 5.19721 6.77885 6.04002
#
# Compressibility (1/GPa) = 0.04046461
#
# Stress axis : x y z
#
# Youngs Moduli (GPa) = 58.02388 55.20387 19.23795
#
# Poissons Ratio (x) = -0.23434 0.35036
# Poissons Ratio (y) = -0.24631 0.18209
# Poissons Ratio (z) = 1.05673 0.52253
#
# Static dielectric constant tensor:
#      x y z
#    x 1.785690 0.000000 -0.010150 
#    y 0.000000 1.775070 0.000000 
#    z -0.010150 0.000000 1.676920 
# 
# From -- ./inp_files/213606.got.cif
#   From: 2010.05.17/outbox.cif.g08.bks.cpg/sg15_107_cif.got.tgz:213606.got - 2010.06.03 18:47:42.
