data_PCOD9272035
_publ_section_title
;
Structure prediction by ZEFSAII (Michael W. Deem and Ramdas Pophale) SiO2 
 PCOD9272035
Probable space group: C 2/C
;
_chemical_formula_sum "Si O2"
_cell_formula_units_Z 48
_cell_length_a 9.450286
_cell_length_b 31.416068
_cell_length_c 7.937481
_cell_angle_alpha 90.000000
_cell_angle_beta 72.827679
_cell_angle_gamma 90.000000
_cell_volume 2251.512224
_symmetry_space_group_name_H-M "C 2/C"
_symmetry_group_IT_number 15
_symmetry_cell_setting 'monoclinic'
loop_
_space_group_symop_operation_xyz
x,y,z
-x,y,1/2-z
-x,-y,-z
x,-y,1/2+z
1/2+x,1/2+y,z
1/2-x,1/2+y,1/2-z
1/2-x,1/2-y,-z
1/2+x,1/2-y,1/2+z
loop_
_atom_site_type_symbol
_atom_site_label
_atom_site_fract_x
_atom_site_fract_y
_atom_site_fract_z
Si Si1 0.500000 0.327038 0.750000
Si Si2 0.698441 0.366088 0.391613
Si Si3 0.000000 0.029640 0.250000
Si Si4 0.000000 0.682228 0.750000
Si Si5 0.712793 0.529941 0.447078
Si Si6 0.000000 0.814095 0.250000
Si Si7 0.160690 0.551953 0.762008
Si Si8 0.109382 0.758141 0.933386
O O1 0.582884 0.354414 0.578956
O O2 0.622233 0.293971 0.783564
O O3 0.635680 0.345585 0.239661
O O4 0.720969 0.416196 0.362266
O O5 0.859753 0.345162 0.359275
O O6 0.110044 0.052838 0.343035
O O7 0.102392 0.997951 0.103058
O O8 0.946098 0.714379 0.623582
O O9 0.813428 0.554828 0.545977
O O10 0.810315 0.495888 0.310721
O O11 0.004708 0.782053 0.404524
O O12 0.000000 0.564114 0.750000
O O13 0.250000 0.750000 0.000000
#
# Coordination Sequence:
#
# PCOD9272035 Si02
#       8
#     4   8   4   4   8   4   8   8
#     4   9  24  39  60  93 128 166 210 255 320 374
#     4  11  23  42  61  92 128 166 210 266 327 379
#     4   8  16  34  58  89 112 144 200 252 314 369
#     4  11  22  38  66  91 126 166 216 256 310 387
#     4   9  19  35  62  90 117 156 211 260 318 394
#     4  10  22  37  62  95 128 170 212 253 328 368
#     4  11  22  39  62  88 125 166 210 270 330 385
#     4  10  20  36  63  91 127 168 210 260 304 374
#
# _framework density 21.319004
#
# number of rings (size 3 to 8) (size 9 to 14) (size 15 to 20)
#    0.000    2.000    2.500    0.500    2.333    6.667 
#    0.000    5.000    0.000    5.000    0.000    0.000 
#    0.000    0.000    0.000    0.000    0.000    0.000 
#
# Total GULP energy -133782.343620 kJ/mol
# GULP energy per Si atom -5574.264318 kJ/mol
# Density = 2.127048 g / cm^3
# Si number density = 21.319004 Si / 1000 Ang^3
#
#
#
# Elastic Constant Matrix: (Units=GPa)
#
#
# Indices 1 2 3 4 5 6 
#
# 1 111.6774 33.5436 35.7995 0.0000 35.8627 0.0000
# 2 33.5436 76.8246 23.2843 0.0000 10.1952 0.0000
# 3 35.7995 23.2843 83.3422 0.0000 30.8489 0.0000
# 4 0.0000 0.0000 0.0000 14.3336 0.0000 -8.9881
# 5 35.8627 10.1952 30.8489 0.0000 46.5568 0.0000
# 6 0.0000 0.0000 0.0000 -8.9881 0.0000 -1.4298
#
#
#
# Elastic Compliance Matrix: (Units=1/GPa)
#
#
# Indices 1 2 3 4 5 6 
#
# 1 0.013418 -0.004303 -0.001437 0.000000 -0.008442 0.000000
# 2 -0.004303 0.015615 -0.003280 0.000000 0.002068 0.000000
# 3 -0.001437 -0.003280 0.017035 0.000000 -0.009462 0.000000
# 4 0.000000 0.000000 0.000000 0.014117 0.000000 -0.088745
# 5 -0.008442 0.002068 -0.009462 0.000000 0.033799 0.000000
# 6 0.000000 0.000000 0.000000 -0.088745 0.000000 -0.141525
#
#
# Mechanical properties :
#
#
# Convention : Reuss Voigt Hill
#
# Bulk Modulus (GPa) = 35.67802 50.78880 43.23341
# Shear Modulus (GPa) = -248.02617 23.83991 -112.09313
#
# Velocity S-wave (km/s) = -10.79782 3.34765 -7.25900
# Velocity P-wave (km/s) = 11.77649 6.23035 7.06641
#
# Compressibility (1/GPa) = 0.02802846
#
# Stress axis : x y z
#
# Youngs Moduli (GPa) = 74.52505 64.04085 58.70370
#
# Poissons Ratio (x) = 0.27557 0.08436
# Poissons Ratio (y) = 0.32068 0.19254
# Poissons Ratio (z) = 0.10709 0.21004
#
# Static dielectric constant tensor:
#      x y z
#    x 1.964570 0.000000 -0.352330 
#    y 0.000000 1.768810 0.000000 
#    z -0.352330 0.000000 2.754350 
# 
# From -- ./inp_files/26215.got.cif
#   From: 2010.05.17/outbox.cif.g08.bks.cpg/sg15_14_cif.got.tgz:26215.got - 2010.06.03 18:47:42.
