data_PCOD9272910
_publ_section_title
;
Structure prediction by ZEFSAII (Michael W. Deem and Ramdas Pophale) SiO2 
 PCOD9272910
Probable space group: C 2/C
;
_chemical_formula_sum "Si O2"
_cell_formula_units_Z 56
_cell_length_a 7.655449
_cell_length_b 30.075966
_cell_length_c 12.696293
_cell_angle_alpha 90.000000
_cell_angle_beta 57.722041
_cell_angle_gamma 90.000000
_cell_volume 2471.519376
_symmetry_space_group_name_H-M "C 2/C"
_symmetry_group_IT_number 15
_symmetry_cell_setting 'monoclinic'
loop_
_space_group_symop_operation_xyz
x,y,z
-x,y,1/2-z
-x,-y,-z
x,-y,1/2+z
1/2+x,1/2+y,z
1/2-x,1/2+y,1/2-z
1/2-x,1/2-y,-z
1/2+x,1/2-y,1/2+z
loop_
_atom_site_type_symbol
_atom_site_label
_atom_site_fract_x
_atom_site_fract_y
_atom_site_fract_z
Si Si1 0.351567 0.191105 0.192411
Si Si2 0.920394 0.606592 0.444654
Si Si3 0.210131 0.433217 0.314736
Si Si4 0.777727 0.033781 0.362931
Si Si5 0.768846 0.074198 0.568105
Si Si6 0.925781 0.853582 0.568755
Si Si7 0.541017 0.723715 0.610360
O O1 0.500000 0.194466 0.250000
O O2 0.455282 0.152888 0.089069
O O3 0.137947 0.175008 0.309990
O O4 0.363922 0.239951 0.140536
O O5 0.766115 0.597457 0.591516
O O6 0.769100 0.613597 0.393789
O O7 0.089684 0.566815 0.391088
O O8 0.229217 0.484602 0.339363
O O9 0.335620 0.428077 0.167070
O O10 0.975505 0.421600 0.360863
O O11 0.806332 0.032550 0.480225
O O12 0.000000 0.049090 0.250000
O O13 0.878420 0.115750 0.479643
O O14 0.959920 0.820610 0.459099
O O15 0.500000 0.714092 0.750000
O O16 0.750000 0.750000 0.500000
#
# Coordination Sequence:
#
# PCOD9272910 Si02
#       7
#     8   8   8   8   8   8   8
#     4   9  18  35  54  94 131 159 214 263 315 386
#     4  10  20  37  61  88 124 164 211 265 322 387
#     4  10  24  45  60  90 125 166 219 270 332 398
#     4  11  24  45  63  86 125 174 215 269 335 398
#     4  10  23  43  62  91 128 165 211 275 326 396
#     4  11  22  36  65 100 125 169 220 271 330 384
#     4  11  19  35  58  95 139 167 213 276 323 384
#
# _framework density 22.658125999999999
#
# number of rings (size 3 to 8) (size 9 to 14) (size 15 to 20)
#    0.000    1.714    4.286    2.571    4.000    0.571 
#   20.571    0.000    0.000    3.429    3.714    0.000 
#    0.000    0.000    0.000    0.000    0.000    0.000 
#
# Total GULP energy -156084.377596 kJ/mol
# GULP energy per Si atom -5574.442057 kJ/mol
# Density = 2.260656 g / cm^3
# Si number density = 22.658126 Si / 1000 Ang^3
#
#
#
# Elastic Constant Matrix: (Units=GPa)
#
#
# Indices 1 2 3 4 5 6 
#
# 1 62.5366 38.7475 48.1921 0.0000 -10.0703 0.0000
# 2 38.7475 98.9029 25.5447 0.0000 -2.8945 0.0000
# 3 48.1921 25.5447 114.2143 0.0000 -8.9447 0.0000
# 4 0.0000 0.0000 0.0000 45.1157 0.0000 -2.5880
# 5 -10.0703 -2.8945 -8.9447 0.0000 16.3616 0.0000
# 6 0.0000 0.0000 0.0000 -2.5880 0.0000 16.3584
#
#
#
# Elastic Compliance Matrix: (Units=1/GPa)
#
#
# Indices 1 2 3 4 5 6 
#
# 1 0.031760 -0.009415 -0.010337 0.000000 0.012231 0.000000
# 2 -0.009415 0.013528 0.000711 0.000000 -0.003013 0.000000
# 3 -0.010337 0.000711 0.013028 0.000000 0.000885 0.000000
# 4 0.000000 0.000000 0.000000 0.022368 0.000000 0.003539
# 5 0.012231 -0.003013 0.000885 0.000000 0.068597 0.000000
# 6 0.000000 0.000000 0.000000 0.003539 0.000000 0.061691
#
#
# Mechanical properties :
#
#
# Convention : Reuss Voigt Hill
#
# Bulk Modulus (GPa) = 49.42473 55.62468 52.52471
# Shear Modulus (GPa) = 19.54674 26.44510 22.99592
#
# Velocity S-wave (km/s) = 2.94033 3.42004 3.18922
# Velocity P-wave (km/s) = 5.77823 6.34022 6.06574
#
# Compressibility (1/GPa) = 0.02023279
#
# Stress axis : x y z
#
# Youngs Moduli (GPa) = 31.48652 73.92330 76.76043
#
# Poissons Ratio (x) = 0.69596 0.79349
# Poissons Ratio (y) = 0.29644 -0.05458
# Poissons Ratio (z) = 0.32549 -0.05256
#
# Static dielectric constant tensor:
#      x y z
#    x 1.896870 0.000000 0.026870 
#    y 0.000000 1.808940 0.000000 
#    z 0.026870 0.000000 1.959850 
# 
# From -- ./inp_files/139451.got.cif
#   From: 2010.05.17/outbox.cif.g08.bks.cpg/sg15_70_cif.got.tgz:139451.got - 2010.06.03 18:47:42.
