data_PCOD9272968
_publ_section_title
;
Structure prediction by ZEFSAII (Michael W. Deem and Ramdas Pophale) SiO2 
 PCOD9272968
Probable space group: C 2/C
;
_chemical_formula_sum "Si O2"
_cell_formula_units_Z 60
_cell_length_a 13.258999
_cell_length_b 14.185212
_cell_length_c 15.873111
_cell_angle_alpha 90.000000
_cell_angle_beta 100.241251
_cell_angle_gamma 90.000000
_cell_volume 2937.877403
_symmetry_space_group_name_H-M "C 2/C"
_symmetry_group_IT_number 15
_symmetry_cell_setting 'monoclinic'
loop_
_space_group_symop_operation_xyz
x,y,z
-x,y,1/2-z
-x,-y,-z
x,-y,1/2+z
1/2+x,1/2+y,z
1/2-x,1/2+y,1/2-z
1/2-x,1/2-y,-z
1/2+x,1/2-y,1/2+z
loop_
_atom_site_type_symbol
_atom_site_label
_atom_site_fract_x
_atom_site_fract_y
_atom_site_fract_z
Si Si1 0.438902 0.066388 0.555605
Si Si2 0.708718 0.806041 0.246688
Si Si3 0.280724 0.592781 0.926951
Si Si4 0.592217 0.574153 0.013309
Si Si5 0.620091 0.371802 0.790286
Si Si6 0.110892 0.909942 0.316026
Si Si7 0.055686 0.214885 0.452044
Si Si8 0.500000 0.091720 0.750000
O O1 0.315793 0.074815 0.526066
O O2 0.465818 0.175662 0.544492
O O3 0.460231 0.040754 0.658085
O O4 0.500000 0.000000 0.500000
O O5 0.742694 0.857722 0.337659
O O6 0.695359 0.693351 0.247517
O O7 0.798012 0.840529 0.198141
O O8 0.592343 0.845607 0.224788
O O9 0.323179 0.486785 0.926281
O O10 0.369291 0.664889 0.969785
O O11 0.604813 0.596747 0.916575
O O12 0.500000 0.500000 0.000000
O O13 0.552907 0.663053 0.058198
O O14 0.500000 0.371068 0.750000
O O15 0.645326 0.481911 0.801976
O O16 0.615873 0.314520 0.877186
O O17 0.000000 0.895308 0.250000
#
# Coordination Sequence:
#
# PCOD9272968 Si02
#       8
#     8   8   8   8   8   8   8   4
#     4  11  24  40  66  88 128 171 216 258 322 386
#     4  11  22  40  64  90 130 161 217 267 316 385
#     4  10  21  38  60  93 116 158 211 263 312 380
#     4  10  20  37  61  94 125 151 206 265 319 374
#     4  11  21  38  64  90 115 170 217 253 312 389
#     4  11  23  38  64  95 122 163 207 269 328 373
#     4  11  20  39  65  90 121 160 211 263 310 387
#     4  10  22  44  62  90 124 176 218 266 300 402
#
# _framework density 20.422908
#
# number of rings (size 3 to 8) (size 9 to 14) (size 15 to 20)
#    0.000    1.333    6.000    2.000    3.733    0.000 
#    0.000    3.333    2.933    0.000    0.000    0.000 
#    0.000    0.000    0.000    0.000    0.000    0.000 
#
# Total GULP energy -167021.233854 kJ/mol
# GULP energy per Si atom -5567.374462 kJ/mol
# Density = 2.037642 g / cm^3
# Si number density = 20.422908 Si / 1000 Ang^3
#
#
#
# Elastic Constant Matrix: (Units=GPa)
#
#
# Indices 1 2 3 4 5 6 
#
# 1 75.3118 57.5623 28.3024 0.0000 -16.7947 0.0000
# 2 57.5623 123.7838 16.8183 0.0000 -17.4612 0.0000
# 3 28.3024 16.8183 48.6844 0.0000 -7.7085 0.0000
# 4 0.0000 0.0000 0.0000 18.7786 0.0000 -9.8695
# 5 -16.7947 -17.4612 -7.7085 0.0000 33.6423 0.0000
# 6 0.0000 0.0000 0.0000 -9.8695 0.0000 32.1640
#
#
#
# Elastic Compliance Matrix: (Units=1/GPa)
#
#
# Indices 1 2 3 4 5 6 
#
# 1 0.026180 -0.009925 -0.010934 0.000000 0.005413 0.000000
# 2 -0.009925 0.012754 0.001689 0.000000 0.002052 0.000000
# 3 -0.010934 0.001689 0.026551 0.000000 0.001502 0.000000
# 4 0.000000 0.000000 0.000000 0.063492 0.000000 0.019482
# 5 0.005413 0.002052 0.001502 0.000000 0.033836 0.000000
# 6 0.000000 0.000000 0.000000 0.019482 0.000000 0.037069
#
#
# Mechanical properties :
#
#
# Convention : Reuss Voigt Hill
#
# Bulk Modulus (GPa) = 36.83938 50.34955 43.59446
# Shear Modulus (GPa) = 20.22074 26.59012 23.40543
#
# Velocity S-wave (km/s) = 3.15000 3.61220 3.38899
# Velocity P-wave (km/s) = 5.59530 6.48879 6.05854
#
# Compressibility (1/GPa) = 0.02714487
#
# Stress axis : x y z
#
# Youngs Moduli (GPa) = 38.19655 78.40637 37.66300
#
# Poissons Ratio (x) = 0.77821 0.41181
# Poissons Ratio (y) = 0.37911 -0.06361
# Poissons Ratio (z) = 0.41764 -0.13243
#
# Static dielectric constant tensor:
#      x y z
#    x 1.590460 0.000000 -0.139760 
#    y 0.000000 1.755860 0.000000 
#    z -0.139760 0.000000 1.756020 
# 
# From -- ./inp_files/197875.got.cif
#   From: 2010.05.17/outbox.cif.g08.bks.cpg/sg15_99_cif.got.tgz:197875.got - 2010.06.03 18:47:42.
