data_PCOD9272943
_publ_section_title
;
Structure prediction by ZEFSAII (Michael W. Deem and Ramdas Pophale) SiO2 
 PCOD9272943
Probable space group: C 2/C
;
_chemical_formula_sum "Si O2"
_cell_formula_units_Z 40
_cell_length_a 18.530332
_cell_length_b 12.100970
_cell_length_c 10.953849
_cell_angle_alpha 90.000000
_cell_angle_beta 42.080329
_cell_angle_gamma 90.000000
_cell_volume 1646.100363
_symmetry_space_group_name_H-M "C 2/C"
_symmetry_group_IT_number 15
_symmetry_cell_setting 'monoclinic'
loop_
_space_group_symop_operation_xyz
x,y,z
-x,y,1/2-z
-x,-y,-z
x,-y,1/2+z
1/2+x,1/2+y,z
1/2-x,1/2+y,1/2-z
1/2-x,1/2-y,-z
1/2+x,1/2-y,1/2+z
loop_
_atom_site_type_symbol
_atom_site_label
_atom_site_fract_x
_atom_site_fract_y
_atom_site_fract_z
Si Si1 0.375026 0.362770 0.658855
Si Si2 0.272477 0.901218 0.887454
Si Si3 0.506827 0.919066 0.605741
Si Si4 0.785869 0.646021 0.787550
Si Si5 0.115832 0.882981 0.300561
O O1 0.285568 0.376269 0.666683
O O2 0.331255 0.258506 0.790487
O O3 0.493057 0.343108 0.453709
O O4 0.387820 0.482145 0.703316
O O5 0.393503 0.854723 0.739569
O O6 0.285255 0.036026 0.870963
O O7 0.195493 0.858646 0.089672
O O8 0.500000 0.968808 0.750000
O O9 0.624239 0.868461 0.434178
O O10 0.500000 0.000000 0.500000
O O11 0.672778 0.648884 0.857543
#
# Coordination Sequence:
#
# PCOD9272943 Si02
#       5
#     8   8   8   8   8
#     4  10  23  38  60  90 121 163 208 264 322 384
#     4  10  21  39  61  84 125 162 206 267 316 382
#     4  10  20  37  61  91 124 159 207 264 318 377
#     4  10  22  38  60  90 119 163 212 258 321 384
#     4  10  21  41  60  84 125 159 207 259 321 383
#
# _framework density 24.299855000000001
#
# number of rings (size 3 to 8) (size 9 to 14) (size 15 to 20)
#    0.000    2.000    2.000    0.600    2.800    3.200 
#    0.000    0.000    0.000    0.000    0.000    0.000 
#    0.000    0.000    0.000    0.000    0.000    0.000 
#
# Total GULP energy -111646.681728 kJ/mol
# GULP energy per Si atom -5582.334086 kJ/mol
# Density = 2.424455 g / cm^3
# Si number density = 24.299855 Si / 1000 Ang^3
#
#
#
# Elastic Constant Matrix: (Units=GPa)
#
#
# Indices 1 2 3 4 5 6 
#
# 1 74.8598 3.5011 22.9377 0.0000 -21.4297 0.0000
# 2 3.5011 141.1010 26.8318 0.0000 -14.1912 0.0000
# 3 22.9377 26.8318 136.4237 0.0000 -18.8243 0.0000
# 4 0.0000 0.0000 0.0000 44.1719 0.0000 -17.6297
# 5 -21.4297 -14.1912 -18.8243 0.0000 35.3555 0.0000
# 6 0.0000 0.0000 0.0000 -17.6297 0.0000 9.5244
#
#
#
# Elastic Compliance Matrix: (Units=1/GPa)
#
#
# Indices 1 2 3 4 5 6 
#
# 1 0.016539 0.000856 -0.001639 0.000000 0.009496 0.000000
# 2 0.000856 0.007593 -0.001236 0.000000 0.002909 0.000000
# 3 -0.001639 -0.001236 0.008249 0.000000 0.002903 0.000000
# 4 0.000000 0.000000 0.000000 0.086661 0.000000 0.160411
# 5 0.009496 0.002909 0.002903 0.000000 0.036753 0.000000
# 6 0.000000 0.000000 0.000000 0.160411 0.000000 0.401917
#
#
# Mechanical properties :
#
#
# Convention : Reuss Voigt Hill
#
# Bulk Modulus (GPa) = 35.28080 50.99175 43.13627
# Shear Modulus (GPa) = 8.75354 37.75127 23.25240
#
# Velocity S-wave (km/s) = 1.90003 3.94580 3.09673
# Velocity P-wave (km/s) = 4.40045 6.46444 5.52960
#
# Compressibility (1/GPa) = 0.02834403
#
# Stress axis : x y z
#
# Youngs Moduli (GPa) = 60.46430 131.69180 121.22242
#
# Poissons Ratio (x) = -0.11277 0.19868
# Poissons Ratio (y) = -0.05178 0.14984
# Poissons Ratio (z) = 0.09910 0.16278
#
# Static dielectric constant tensor:
#      x y z
#    x 1.885490 0.000000 0.003480 
#    y 0.000000 2.152830 0.000000 
#    z 0.003480 0.000000 2.174380 
# 
# From -- ./inp_files/95998.got.cif
#   From: 2010.05.17/outbox.cif.g08.bks.cpg/sg15_48_cif.got.tgz:95998.got - 2010.06.03 18:47:42.
