data_PCOD9272492
_publ_section_title
;
Structure prediction by ZEFSAII (Michael W. Deem and Ramdas Pophale) SiO2 
 PCOD9272492
Probable space group: C 2/C
;
_chemical_formula_sum "Si O2"
_cell_formula_units_Z 56
_cell_length_a 26.699729
_cell_length_b 12.370343
_cell_length_c 16.128981
_cell_angle_alpha 90.000000
_cell_angle_beta 153.129073
_cell_angle_gamma 90.000000
_cell_volume 2407.779958
_symmetry_space_group_name_H-M "C 2/C"
_symmetry_group_IT_number 15
_symmetry_cell_setting 'monoclinic'
loop_
_space_group_symop_operation_xyz
x,y,z
-x,y,1/2-z
-x,-y,-z
x,-y,1/2+z
1/2+x,1/2+y,z
1/2-x,1/2+y,1/2-z
1/2-x,1/2-y,-z
1/2+x,1/2-y,1/2+z
loop_
_atom_site_type_symbol
_atom_site_label
_atom_site_fract_x
_atom_site_fract_y
_atom_site_fract_z
Si Si1 0.316390 0.388379 0.916983
Si Si2 0.416956 0.420927 0.484320
Si Si3 0.283869 0.194759 0.758882
Si Si4 0.359390 0.502808 0.221874
Si Si5 0.166828 0.537304 0.808239
Si Si6 0.480492 0.070144 0.124343
Si Si7 0.624667 0.721169 0.837730
O O1 0.395169 0.490487 0.022506
O O2 0.305142 0.317758 0.817053
O O3 0.211229 0.441942 0.810471
O O4 0.371622 0.302942 0.060001
O O5 0.344408 0.320878 0.405818
O O6 0.359841 0.473196 0.318667
O O7 0.545868 0.409066 0.656270
O O8 0.311798 0.149914 0.708588
O O9 0.356036 0.106863 0.919077
O O10 0.403924 0.389531 0.249535
O O11 0.246875 0.527906 0.007094
O O12 0.042298 0.516753 0.656860
O O13 0.500000 0.044080 0.250000
O O14 0.548020 0.179631 0.203943
O O15 0.750000 0.750000 0.000000
#
# Coordination Sequence:
#
# PCOD9272492 Si02
#       7
#     8   8   8   8   8   8   8
#     4  10  20  38  57  88 118 149 195 247 299 356
#     4  10  22  36  58  88 115 156 198 248 299 359
#     4  11  22  36  55  87 123 158 194 239 303 361
#     4  10  20  37  57  85 121 150 197 250 300 352
#     4  10  23  38  59  88 120 157 198 250 296 361
#     4  12  21  33  58  90 122 150 190 245 311 356
#     4  11  19  34  61  91 115 144 190 255 315 349
#
# _framework density 23.257939
#
# number of rings (size 3 to 8) (size 9 to 14) (size 15 to 20)
#    0.000    1.429    4.286    3.000    0.000    4.571 
#    0.000    0.714    0.000    0.000   11.143    0.000 
#    0.000    0.000    0.000    0.000    0.000    0.000 
#
# Total GULP energy -156300.245889 kJ/mol
# GULP energy per Si atom -5582.151639 kJ/mol
# Density = 2.320500 g / cm^3
# Si number density = 23.257939 Si / 1000 Ang^3
#
#
#
# Elastic Constant Matrix: (Units=GPa)
#
#
# Indices 1 2 3 4 5 6 
#
# 1 67.8150 -1.3037 9.8119 0.0000 8.2444 0.0000
# 2 -1.3037 34.9800 0.7444 0.0000 -1.5884 0.0000
# 3 9.8119 0.7444 60.4189 0.0000 3.3582 0.0000
# 4 0.0000 0.0000 0.0000 20.1048 0.0000 -5.4648
# 5 8.2444 -1.5884 3.3582 0.0000 41.7887 0.0000
# 6 0.0000 0.0000 0.0000 -5.4648 0.0000 15.5566
#
#
#
# Elastic Compliance Matrix: (Units=1/GPa)
#
#
# Indices 1 2 3 4 5 6 
#
# 1 0.015441 0.000497 -0.002356 0.000000 -0.002838 0.000000
# 2 0.000497 0.028664 -0.000491 0.000000 0.001031 0.000000
# 3 -0.002356 -0.000491 0.016991 0.000000 -0.000919 0.000000
# 4 0.000000 0.000000 0.000000 0.054990 0.000000 0.019317
# 5 -0.002838 0.001031 -0.000919 0.000000 0.024603 0.000000
# 6 0.000000 0.000000 0.000000 0.019317 0.000000 0.071067
#
#
# Mechanical properties :
#
#
# Convention : Reuss Voigt Hill
#
# Bulk Modulus (GPa) = 17.73204 20.19102 18.96153
# Shear Modulus (GPa) = 21.25353 25.75412 23.50382
#
# Velocity S-wave (km/s) = 3.02622 3.33126 3.18240
# Velocity P-wave (km/s) = 4.45548 4.84733 4.65553
#
# Compressibility (1/GPa) = 0.05639508
#
# Stress axis : x y z
#
# Youngs Moduli (GPa) = 64.76063 34.88749 58.85514
#
# Poissons Ratio (x) = -0.01733 0.13866
# Poissons Ratio (y) = -0.03217 0.02891
# Poissons Ratio (z) = 0.15258 0.01713
#
# Static dielectric constant tensor:
#      x y z
#    x 1.822770 0.000000 -0.024930 
#    y 0.000000 1.868160 0.000000 
#    z -0.024930 0.000000 1.931600 
# 
# From -- ./inp_files/178400.got.cif
#   From: 2010.05.17/outbox.cif.g08.bks.cpg/sg15_90_cif.got.tgz:178400.got - 2010.06.03 18:47:42.
