data_PCOD9272700
_publ_section_title
;
Structure prediction by ZEFSAII (Michael W. Deem and Ramdas Pophale) SiO2 
 PCOD9272700
Probable space group: C 2/C
;
_chemical_formula_sum "Si O2"
_cell_formula_units_Z 48
_cell_length_a 14.540739
_cell_length_b 27.169849
_cell_length_c 11.236439
_cell_angle_alpha 90.000000
_cell_angle_beta 30.077566
_cell_angle_gamma 90.000000
_cell_volume 2224.790695
_symmetry_space_group_name_H-M "C 2/C"
_symmetry_group_IT_number 15
_symmetry_cell_setting 'monoclinic'
loop_
_space_group_symop_operation_xyz
x,y,z
-x,y,1/2-z
-x,-y,-z
x,-y,1/2+z
1/2+x,1/2+y,z
1/2-x,1/2+y,1/2-z
1/2-x,1/2-y,-z
1/2+x,1/2-y,1/2+z
loop_
_atom_site_type_symbol
_atom_site_label
_atom_site_fract_x
_atom_site_fract_y
_atom_site_fract_z
Si Si1 0.108133 0.598059 0.915880
Si Si2 0.608256 0.453644 0.235367
Si Si3 0.496573 0.798107 0.897407
Si Si4 0.416519 0.311691 0.475648
Si Si5 0.312342 0.591752 0.197848
Si Si6 0.706941 0.947326 0.055328
O O1 0.212360 0.572016 0.908731
O O2 0.200668 0.575894 0.693152
O O3 0.124737 0.657113 0.916737
O O4 0.886839 0.587876 0.146349
O O5 0.500000 0.425557 0.250000
O O6 0.443135 0.453568 0.516204
O O7 0.676785 0.503837 0.098498
O O8 0.500000 0.798938 0.750000
O O9 0.465161 0.741965 0.971781
O O10 0.699821 0.810444 0.706462
O O11 0.500000 0.314238 0.250000
O O12 0.438610 0.361079 0.525746
O O13 0.270562 0.591300 0.384163
O O14 0.500000 0.960547 0.250000
#
# Coordination Sequence:
#
# PCOD9272700 Si02
#       6
#     8   8   8   8   8   8
#     4  10  26  45  64  95 134 170 216 269 319 389
#     4  12  28  39  67  94 129 168 222 267 322 378
#     4  10  21  36  65  91 128 166 208 262 331 375
#     4  10  20  37  59  97 127 161 209 269 317 383
#     4  10  24  43  67  94 131 173 215 265 323 384
#     4  10  25  47  66  91 132 176 219 266 320 383
#
# _framework density 21.575063
#
# number of rings (size 3 to 8) (size 9 to 14) (size 15 to 20)
#    0.000    1.667    0.000    3.000   16.333    1.333 
#    0.000    0.833    0.000    0.000    0.000    0.000 
#    0.000    0.000    0.000    0.000    0.000    0.000 
#
# Total GULP energy -133882.636014 kJ/mol
# GULP energy per Si atom -5578.443167 kJ/mol
# Density = 2.152596 g / cm^3
# Si number density = 21.575063 Si / 1000 Ang^3
#
#
#
# Elastic Constant Matrix: (Units=GPa)
#
#
# Indices 1 2 3 4 5 6 
#
# 1 77.6802 69.0687 31.3357 0.0006 1.5406 -0.0002
# 2 69.0687 158.4026 72.9277 -0.0005 12.9048 0.0002
# 3 31.3357 72.9277 112.5802 0.0009 2.9782 -0.0002
# 4 0.0006 -0.0005 0.0009 50.8039 -0.0003 -12.1676
# 5 1.5406 12.9048 2.9782 -0.0003 21.7817 0.0000
# 6 -0.0002 0.0002 -0.0002 -12.1676 0.0000 31.7356
#
#
#
# Elastic Compliance Matrix: (Units=1/GPa)
#
#
# Indices 1 2 3 4 5 6 
#
# 1 0.021393 -0.009806 0.000285 0.000000 0.004258 0.000000
# 2 -0.009806 0.013964 -0.006138 0.000000 -0.006740 0.000000
# 3 0.000285 -0.006138 0.012729 0.000000 0.001876 0.000000
# 4 0.000000 0.000000 0.000000 0.021674 0.000000 0.008310
# 5 0.004258 -0.006740 0.001876 0.000000 0.049346 0.000000
# 6 0.000000 0.000000 0.000000 0.008310 0.000000 0.034696
#
#
# Mechanical properties :
#
#
# Convention : Reuss Voigt Hill
#
# Bulk Modulus (GPa) = 59.63525 77.25855 68.44690
# Shear Modulus (GPa) = 26.21795 32.55297 29.38546
#
# Velocity S-wave (km/s) = 3.48975 3.88857 3.69455
# Velocity P-wave (km/s) = 6.62862 7.48654 7.07060
#
# Compressibility (1/GPa) = 0.01676861
#
# Stress axis : x y z
#
# Youngs Moduli (GPa) = 46.74461 71.61434 78.55775
#
# Poissons Ratio (x) = 0.70226 -0.02240
# Poissons Ratio (y) = 0.45838 0.48216
# Poissons Ratio (z) = -0.01333 0.43955
#
# Static dielectric constant tensor:
#      x y z
#    x 1.813580 0.000000 -0.004880 
#    y 0.000000 1.949680 0.000000 
#    z -0.004880 0.000000 1.831990 
# 
# From -- ./inp_files/101232.got.cif
#   From: 2010.05.17/outbox.cif.g08.bks.cpg/sg15_51_cif.got.tgz:101232.got - 2010.06.03 18:47:42.
