data_PCOD9272395
_publ_section_title
;
Structure prediction by ZEFSAII (Michael W. Deem and Ramdas Pophale) SiO2 
 PCOD9272395
Probable space group: C 2/C
;
_chemical_formula_sum "Si O2"
_cell_formula_units_Z 56
_cell_length_a 25.814916
_cell_length_b 8.234824
_cell_length_c 34.790784
_cell_angle_alpha 90.000000
_cell_angle_beta 155.616613
_cell_angle_gamma 90.000000
_cell_volume 3053.313512
_symmetry_space_group_name_H-M "C 2/C"
_symmetry_group_IT_number 15
_symmetry_cell_setting 'monoclinic'
loop_
_space_group_symop_operation_xyz
x,y,z
-x,y,1/2-z
-x,-y,-z
x,-y,1/2+z
1/2+x,1/2+y,z
1/2-x,1/2+y,1/2-z
1/2-x,1/2-y,-z
1/2+x,1/2-y,1/2+z
loop_
_atom_site_type_symbol
_atom_site_label
_atom_site_fract_x
_atom_site_fract_y
_atom_site_fract_z
Si Si1 0.373205 0.513834 0.987734
Si Si2 0.664001 0.792178 0.477963
Si Si3 0.916912 0.504541 0.302139
Si Si4 0.194480 0.227093 0.628340
Si Si5 0.014873 0.316741 0.574803
Si Si6 0.114237 0.673147 0.298930
Si Si7 0.247548 0.504865 0.105700
O O1 0.382959 0.621986 0.955574
O O2 0.235302 0.432398 0.893062
O O3 0.379589 0.632346 0.028337
O O4 0.470744 0.366764 0.054093
O O5 0.750000 0.750000 0.500000
O O6 0.541543 0.894777 0.384013
O O7 0.740768 0.899486 0.560906
O O8 0.794819 0.391278 0.215966
O O9 0.916146 0.623887 0.265173
O O10 0.921615 0.601487 0.345256
O O11 0.264532 0.364557 0.650804
O O12 0.105091 0.307629 0.599282
O O13 0.889034 0.420256 0.481194
O O14 0.000000 0.637632 0.250000
O O15 0.152793 0.861171 0.327214
#
# Coordination Sequence:
#
# PCOD9272395 Si02
#       7
#     8   8   8   8   8   8   8
#     4   9  20  36  57  79 103 141 183 207 257 331
#     4  10  20  37  56  78 108 140 174 221 264 307
#     4  10  23  34  51  84 108 133 182 220 259 313
#     4  10  20  37  56  78 108 140 173 220 264 307
#     4  10  20  37  56  78 108 140 174 221 264 307
#     4  10  20  37  55  77 109 141 173 220 264 308
#     4   9  21  36  55  80 104 141 184 207 259 333
#
# _framework density 18.340731000000002
#
# number of rings (size 3 to 8) (size 9 to 14) (size 15 to 20)
#    0.000    2.286    0.000    1.714    0.000    5.714 
#    0.000    8.571    0.000    0.000    0.000    0.000 
#    0.000    0.000    0.000    0.000    0.000    0.000 
#
# Total GULP energy -156350.634503 kJ/mol
# GULP energy per Si atom -5583.951232 kJ/mol
# Density = 1.829899 g / cm^3
# Si number density = 18.340731 Si / 1000 Ang^3
#
#
#
# Elastic Constant Matrix: (Units=GPa)
#
#
# Indices 1 2 3 4 5 6 
#
# 1 126.4114 29.4852 33.1280 -0.0001 2.8983 -0.0002
# 2 29.4852 75.6282 9.3689 0.0013 -11.5434 -0.0036
# 3 33.1280 9.3689 39.1902 0.0057 -10.0768 0.0007
# 4 -0.0001 0.0013 0.0057 18.1023 0.0002 0.4285
# 5 2.8983 -11.5434 -10.0768 0.0002 14.1986 -0.0004
# 6 -0.0002 -0.0036 0.0007 0.4285 -0.0004 19.3067
#
#
#
# Elastic Compliance Matrix: (Units=1/GPa)
#
#
# Indices 1 2 3 4 5 6 
#
# 1 0.013683 -0.006314 -0.014795 0.000005 -0.018427 -0.000001
# 2 -0.006314 0.018020 0.006273 -0.000004 0.020391 0.000004
# 3 -0.014795 0.006273 0.047230 -0.000016 0.041639 0.000001
# 4 0.000005 -0.000004 -0.000016 0.055271 -0.000016 -0.001227
# 5 -0.018427 0.020391 0.041639 -0.000016 0.120320 0.000005
# 6 -0.000001 0.000004 0.000001 -0.001227 0.000005 0.051823
#
#
# Mechanical properties :
#
#
# Convention : Reuss Voigt Hill
#
# Bulk Modulus (GPa) = 20.30069 42.79932 31.55000
# Shear Modulus (GPa) = 14.18682 21.60469 17.89576
#
# Velocity S-wave (km/s) = 2.78423 3.43587 3.12707
# Velocity P-wave (km/s) = 4.62910 6.25513 5.50251
#
# Compressibility (1/GPa) = 0.04925942
#
# Stress axis : x y z
#
# Youngs Moduli (GPa) = 73.08182 55.49499 21.17300
#
# Poissons Ratio (x) = 0.35042 0.31326
# Poissons Ratio (y) = 0.46147 -0.13282
# Poissons Ratio (z) = 1.08126 -0.34811
#
# Static dielectric constant tensor:
#      x y z
#    x 1.590210 0.000000 -0.006730 
#    y 0.000000 1.628260 0.000000 
#    z -0.006730 0.000000 1.616690 
# 
# From -- ./inp_files/171960.got.cif
#   From: 2010.05.17/outbox.cif.g08.bks.cpg/sg15_86_cif.got.tgz:171960.got - 2010.06.03 18:47:42.
