data_PCOD9272094
_publ_section_title
;
Structure prediction by ZEFSAII (Michael W. Deem and Ramdas Pophale) SiO2 
 PCOD9272094
Probable space group: C 2/C
;
_chemical_formula_sum "Si O2"
_cell_formula_units_Z 36
_cell_length_a 15.577286
_cell_length_b 6.845389
_cell_length_c 23.091518
_cell_angle_alpha 90.000000
_cell_angle_beta 36.965772
_cell_angle_gamma 90.000000
_cell_volume 1480.679035
_symmetry_space_group_name_H-M "C 2/C"
_symmetry_group_IT_number 15
_symmetry_cell_setting 'monoclinic'
loop_
_space_group_symop_operation_xyz
x,y,z
-x,y,1/2-z
-x,-y,-z
x,-y,1/2+z
1/2+x,1/2+y,z
1/2-x,1/2+y,1/2-z
1/2-x,1/2-y,-z
1/2+x,1/2-y,1/2+z
loop_
_atom_site_type_symbol
_atom_site_label
_atom_site_fract_x
_atom_site_fract_y
_atom_site_fract_z
Si Si1 0.606358 0.643336 0.833796
Si Si2 0.346407 0.130107 0.495142
Si Si3 0.780249 0.167233 0.147663
Si Si4 0.000000 0.510354 0.750000
Si Si5 0.081828 0.883337 0.647760
O O1 0.745707 0.695909 0.721191
O O2 0.651585 0.535841 0.868095
O O3 0.059872 0.653079 0.667470
O O4 0.505435 0.483923 0.856426
O O5 0.250000 0.250000 0.500000
O O6 0.354287 0.226357 0.554759
O O7 0.248749 0.938196 0.555742
O O8 0.126949 0.383105 0.704151
O O9 0.509956 0.161637 0.388791
O O10 0.000000 0.959009 0.750000
#
# Coordination Sequence:
#
# PCOD9272094 Si02
#       5
#     8   8   8   4   8
#     4  11  23  38  63  91 122 164 199 260 304 359
#     4  10  21  39  65  90 122 163 204 250 304 369
#     4  12  22  41  60  92 125 160 208 250 308 360
#     4  10  20  36  64  82 118 166 196 248 302 362
#     4   9  18  39  61  86 120 159 202 244 305 360
#
# _framework density 24.313168999999998
#
# number of rings (size 3 to 8) (size 9 to 14) (size 15 to 20)
#    0.667    0.889    2.222    4.667    0.000    0.000 
#    0.000   16.667    0.000    0.000    0.000    0.000 
#    0.000    0.000    0.000    0.000    0.000    0.000 
#
# Total GULP energy -100531.330075 kJ/mol
# GULP energy per Si atom -5585.073893 kJ/mol
# Density = 2.425783 g / cm^3
# Si number density = 24.313169 Si / 1000 Ang^3
#
#
#
# Elastic Constant Matrix: (Units=GPa)
#
#
# Indices 1 2 3 4 5 6 
#
# 1 72.3912 3.0693 2.0345 0.0002 -6.1700 -0.0008
# 2 3.0693 52.8452 -1.5825 0.0006 3.1114 -0.0002
# 3 2.0345 -1.5825 90.4421 0.0002 7.2637 -0.0003
# 4 0.0002 0.0006 0.0002 17.9241 -0.0004 2.2057
# 5 -6.1700 3.1114 7.2637 -0.0004 13.4457 0.0003
# 6 -0.0008 -0.0002 -0.0003 2.2057 0.0003 33.8211
#
#
#
# Elastic Compliance Matrix: (Units=1/GPa)
#
#
# Indices 1 2 3 4 5 6 
#
# 1 0.014534 -0.001314 -0.000951 0.000000 0.007488 0.000000
# 2 -0.001314 0.019349 0.000811 -0.000001 -0.005518 0.000000
# 3 -0.000951 0.000811 0.011648 0.000000 -0.006917 0.000000
# 4 0.000000 -0.000001 0.000000 0.056242 0.000002 -0.003668
# 5 0.007488 -0.005518 -0.006917 0.000002 0.082823 -0.000001
# 6 0.000000 0.000000 0.000000 -0.003668 -0.000001 0.029807
#
#
# Mechanical properties :
#
#
# Convention : Reuss Voigt Hill
#
# Bulk Modulus (GPa) = 23.46094 24.74679 24.10387
# Shear Modulus (GPa) = 21.59664 27.18199 24.38932
#
# Velocity S-wave (km/s) = 2.98362 3.34727 3.17066
# Velocity P-wave (km/s) = 4.64109 5.01392 4.83110
#
# Compressibility (1/GPa) = 0.04262404
#
# Stress axis : x y z
#
# Youngs Moduli (GPa) = 68.80210 51.68309 85.85242
#
# Poissons Ratio (x) = 0.06789 0.08167
# Poissons Ratio (y) = 0.09037 -0.06965
# Poissons Ratio (z) = 0.06545 -0.04193
#
# Static dielectric constant tensor:
#      x y z
#    x 1.876880 0.000000 0.069760 
#    y 0.000000 1.956610 0.000000 
#    z 0.069760 0.000000 2.129040 
# 
# From -- ./inp_files/151051.got.cif
#   From: 2010.05.17/outbox.cif.g08.bks.cpg/sg15_76_cif.got.tgz:151051.got - 2010.06.03 18:47:42.
