data_PCOD9272195
_publ_section_title
;
Structure prediction by ZEFSAII (Michael W. Deem and Ramdas Pophale) SiO2 
 PCOD9272195
Probable space group: C 2/C
;
_chemical_formula_sum "Si O2"
_cell_formula_units_Z 52
_cell_length_a 26.252818
_cell_length_b 14.557649
_cell_length_c 16.325948
_cell_angle_alpha 90.000000
_cell_angle_beta 20.279670
_cell_angle_gamma 90.000000
_cell_volume 2162.607482
_symmetry_space_group_name_H-M "C 2/C"
_symmetry_group_IT_number 15
_symmetry_cell_setting 'monoclinic'
loop_
_space_group_symop_operation_xyz
x,y,z
-x,y,1/2-z
-x,-y,-z
x,-y,1/2+z
1/2+x,1/2+y,z
1/2-x,1/2+y,1/2-z
1/2-x,1/2-y,-z
1/2+x,1/2-y,1/2+z
loop_
_atom_site_type_symbol
_atom_site_label
_atom_site_fract_x
_atom_site_fract_y
_atom_site_fract_z
Si Si1 0.500000 0.596254 0.250000
Si Si2 0.240155 0.669182 0.908985
Si Si3 0.248509 0.744446 0.630888
Si Si4 0.099077 0.369782 0.214933
Si Si5 0.326723 0.528906 0.908252
Si Si6 0.049076 0.671732 0.051552
Si Si7 0.364253 0.866870 0.685239
O O1 0.361563 0.661330 0.476815
O O2 0.537280 0.534019 0.272125
O O3 0.334304 0.600315 0.822380
O O4 0.327338 0.759101 0.750307
O O5 0.157933 0.627333 0.953679
O O6 0.100851 0.699001 0.176187
O O7 0.148343 0.709555 0.706041
O O8 0.346421 0.828180 0.452504
O O9 0.142289 0.753238 0.868791
O O10 0.932776 0.387768 0.493979
O O11 0.195679 0.459454 0.083128
O O12 0.275611 0.579687 0.068892
O O13 0.991993 0.612307 0.060907
#
# Coordination Sequence:
#
# PCOD9272195 Si02
#       7
#     4   8   8   8   8   8   8
#     4  10  22  36  62  90 132 158 206 262 324 376
#     4  10  21  37  65  91 125 169 210 257 323 379
#     4   9  19  37  61  84 121 166 201 257 316 376
#     4   9  19  37  64  88 118 163 217 251 317 380
#     4  10  20  38  61  93 129 165 209 270 310 376
#     4   9  19  37  60  85 121 161 211 255 302 380
#     4  10  20  36  65  92 126 169 204 263 324 380
#
# _framework density 24.045048999999999
#
# number of rings (size 3 to 8) (size 9 to 14) (size 15 to 20)
#    0.000    2.462    0.000    2.308    2.154    3.692 
#    0.000    3.846   13.538    0.000    0.000    0.000 
#    0.000    0.000    0.000    0.000    0.000    0.000 
#
# Total GULP energy -145124.929483 kJ/mol
# GULP energy per Si atom -5581.728057 kJ/mol
# Density = 2.399032 g / cm^3
# Si number density = 24.045049 Si / 1000 Ang^3
#
#
#
# Elastic Constant Matrix: (Units=GPa)
#
#
# Indices 1 2 3 4 5 6 
#
# 1 89.4983 15.5579 21.5458 0.0000 4.7847 0.0001
# 2 15.5579 81.5382 8.2660 0.0003 -0.8582 0.0000
# 3 21.5458 8.2660 61.9681 0.0004 9.1716 0.0001
# 4 0.0000 0.0003 0.0004 14.8741 0.0000 -3.7017
# 5 4.7847 -0.8582 9.1716 0.0000 33.2587 -0.0001
# 6 0.0001 0.0000 0.0001 -3.7017 -0.0001 15.7018
#
#
#
# Elastic Compliance Matrix: (Units=1/GPa)
#
#
# Indices 1 2 3 4 5 6 
#
# 1 0.012517 -0.001993 -0.003974 0.000000 -0.000756 0.000000
# 2 -0.001993 0.012771 -0.001149 0.000000 0.000933 0.000000
# 3 -0.003974 -0.001149 0.018341 -0.000001 -0.004516 0.000000
# 4 0.000000 0.000000 -0.000001 0.071421 0.000000 0.016838
# 5 -0.000756 0.000933 -0.004516 0.000000 0.031445 0.000000
# 6 0.000000 0.000000 0.000000 0.016838 0.000000 0.067657
#
#
# Mechanical properties :
#
#
# Convention : Reuss Voigt Hill
#
# Bulk Modulus (GPa) = 34.01797 35.97156 34.99477
# Shear Modulus (GPa) = 20.99225 25.27591 23.13408
#
# Velocity S-wave (km/s) = 2.95793 3.24572 3.10516
# Velocity P-wave (km/s) = 5.08371 5.38877 5.23846
#
# Compressibility (1/GPa) = 0.02939622
#
# Stress axis : x y z
#
# Youngs Moduli (GPa) = 79.89060 78.30370 54.52357
#
# Poissons Ratio (x) = 0.15609 0.21669
# Poissons Ratio (y) = 0.15925 0.06262
# Poissons Ratio (z) = 0.31751 0.08993
#
# Static dielectric constant tensor:
#      x y z
#    x 2.003320 0.000000 0.006160 
#    y 0.000000 1.902100 0.000000 
#    z 0.006160 0.000000 1.988920 
# 
# From -- ./inp_files/225458.got.cif
#   From: 2010.05.17/outbox.cif.g08.bks.cpg/sg15_113_cif.got.tgz:225458.got - 2010.06.03 18:47:42.
