data_PCOD9272678
_publ_section_title
;
Structure prediction by ZEFSAII (Michael W. Deem and Ramdas Pophale) SiO2 
 PCOD9272678
Probable space group: C 2/C
;
_chemical_formula_sum "Si O2"
_cell_formula_units_Z 40
_cell_length_a 8.157996
_cell_length_b 24.591358
_cell_length_c 9.836175
_cell_angle_alpha 90.000000
_cell_angle_beta 115.529663
_cell_angle_gamma 90.000000
_cell_volume 1780.627926
_symmetry_space_group_name_H-M "C 2/C"
_symmetry_group_IT_number 15
_symmetry_cell_setting 'monoclinic'
loop_
_space_group_symop_operation_xyz
x,y,z
-x,y,1/2-z
-x,-y,-z
x,-y,1/2+z
1/2+x,1/2+y,z
1/2-x,1/2+y,1/2-z
1/2-x,1/2-y,-z
1/2+x,1/2-y,1/2+z
loop_
_atom_site_type_symbol
_atom_site_label
_atom_site_fract_x
_atom_site_fract_y
_atom_site_fract_z
Si Si1 0.997698 0.136943 0.403072
Si Si2 0.723621 0.464051 0.692717
Si Si3 0.963372 0.587148 0.037450
Si Si4 0.348459 0.800262 0.603203
Si Si5 0.171869 0.909990 0.208670
O O1 0.949799 0.073728 0.371458
O O2 0.820936 0.165883 0.400224
O O3 0.000000 0.159191 0.250000
O O4 0.152660 0.132155 0.575236
O O5 0.835121 0.445930 0.597712
O O6 0.670010 0.526272 0.671513
O O7 0.846908 0.443388 0.865455
O O8 0.968732 0.650794 0.080016
O O9 0.862346 0.590904 0.858151
O O10 0.500000 0.772996 0.750000
O O11 0.250000 0.750000 0.500000
O O12 0.000000 0.899226 0.250000
#
# Coordination Sequence:
#
# PCOD9272678 Si02
#       5
#     8   8   8   8   8
#     4  11  24  42  64  98 135 159 212 278 322 374
#     4  10  20  37  59  89 137 174 207 261 317 372
#     4  10  21  41  58  93 131 167 222 263 312 390
#     4  11  23  44  74  91 122 173 219 272 329 380
#     4  12  22  35  64  95 127 179 221 245 314 406
#
# _framework density 22.463985000000001
#
# number of rings (size 3 to 8) (size 9 to 14) (size 15 to 20)
#    0.000    1.200    8.000    1.800    5.600    0.000 
#    0.000    1.000    0.000    0.000    0.000    0.000 
#    0.000    0.000    0.000    0.000    0.000    0.000 
#
# Total GULP energy -111371.266600 kJ/mol
# GULP energy per Si atom -5568.563330 kJ/mol
# Density = 2.241286 g / cm^3
# Si number density = 22.463985 Si / 1000 Ang^3
#
#
#
# Elastic Constant Matrix: (Units=GPa)
#
#
# Indices 1 2 3 4 5 6 
#
# 1 30.3970 17.6022 31.9248 0.0000 5.7931 0.0000
# 2 17.6022 76.4172 37.4886 0.0000 -1.0721 0.0000
# 3 31.9248 37.4886 189.5011 0.0000 27.2105 0.0000
# 4 0.0000 0.0000 0.0000 34.2754 0.0000 18.8139
# 5 5.7931 -1.0721 27.2105 0.0000 24.6826 0.0000
# 6 0.0000 0.0000 0.0000 18.8139 0.0000 5.4253
#
#
#
# Elastic Compliance Matrix: (Units=1/GPa)
#
#
# Indices 1 2 3 4 5 6 
#
# 1 0.043633 -0.007595 -0.005145 0.000000 -0.004899 0.000000
# 2 -0.007595 0.016249 -0.002723 0.000000 0.005491 0.000000
# 3 -0.005145 -0.002723 0.007753 0.000000 -0.007458 0.000000
# 4 0.000000 0.000000 0.000000 -0.032292 0.000000 0.111983
# 5 -0.004899 0.005491 -0.007458 0.000000 0.050125 0.000000
# 6 0.000000 0.000000 0.000000 0.111983 0.000000 -0.204012
#
#
# Mechanical properties :
#
#
# Convention : Reuss Voigt Hill
#
# Bulk Modulus (GPa) = 27.24170 52.26073 39.75122
# Shear Modulus (GPa) = -66.32955 26.82998 -19.74978
#
# Velocity S-wave (km/s) = -5.43978 3.45969 -2.96831
# Velocity P-wave (km/s) = 5.22510 6.26690 2.44666
#
# Compressibility (1/GPa) = 0.03670842
#
# Stress axis : x y z
#
# Youngs Moduli (GPa) = 22.91827 61.54374 128.97557
#
# Poissons Ratio (x) = 0.46745 0.66355
# Poissons Ratio (y) = 0.17408 0.35123
# Poissons Ratio (z) = 0.11791 0.16760
#
# Static dielectric constant tensor:
#      x y z
#    x 1.895240 0.000000 -0.126890 
#    y 0.000000 1.827090 0.000000 
#    z -0.126890 0.000000 2.468880 
# 
# From -- ./inp_files/79534.got.cif
#   From: 2010.05.17/outbox.cif.g08.bks.cpg/sg15_40_cif.got.tgz:79534.got - 2010.06.03 18:47:42.
