data_PCOD9272755
_publ_section_title
;
Structure prediction by ZEFSAII (Michael W. Deem and Ramdas Pophale) SiO2 
 PCOD9272755
Probable space group: C 2/C
;
_chemical_formula_sum "Si O2"
_cell_formula_units_Z 44
_cell_length_a 9.540249
_cell_length_b 16.317961
_cell_length_c 16.711765
_cell_angle_alpha 90.000000
_cell_angle_beta 125.788928
_cell_angle_gamma 90.000000
_cell_volume 2110.393618
_symmetry_space_group_name_H-M "C 2/C"
_symmetry_group_IT_number 15
_symmetry_cell_setting 'monoclinic'
loop_
_space_group_symop_operation_xyz
x,y,z
-x,y,1/2-z
-x,-y,-z
x,-y,1/2+z
1/2+x,1/2+y,z
1/2-x,1/2+y,1/2-z
1/2-x,1/2-y,-z
1/2+x,1/2-y,1/2+z
loop_
_atom_site_type_symbol
_atom_site_label
_atom_site_fract_x
_atom_site_fract_y
_atom_site_fract_z
Si Si1 0.216481 0.986295 0.774714
Si Si2 0.457408 0.553590 0.563768
Si Si3 0.768006 0.660573 0.412916
Si Si4 0.000000 0.473633 0.250000
Si Si5 0.381077 0.918934 0.461092
Si Si6 0.235918 0.153981 0.587426
O O1 0.209861 0.906751 0.829022
O O2 0.045802 0.007466 0.668127
O O3 0.373050 0.975050 0.763928
O O4 0.271282 0.067426 0.843628
O O5 0.500000 0.500000 0.500000
O O6 0.258797 0.573193 0.515230
O O7 0.567015 0.634872 0.583060
O O8 0.710806 0.753021 0.377301
O O9 0.704508 0.643072 0.482075
O O10 0.978910 0.653038 0.488019
O O11 0.122235 0.413137 0.341547
O O12 0.500000 0.000000 0.500000
#
# Coordination Sequence:
#
# PCOD9272755 Si02
#       6
#     8   8   8   4   8   8
#     4  10  21  37  65  90 121 167 214 257 313 377
#     4  11  23  38  61  93 125 164 211 259 306 379
#     4  10  21  41  65  93 125 170 203 264 323 377
#     4  10  20  38  66  90 124 168 210 266 302 390
#     4  10  20  37  60  86 120 160 207 255 306 372
#     4  10  22  41  62  94 128 159 211 260 322 371
#
# _framework density 20.849191000000001
#
# number of rings (size 3 to 8) (size 9 to 14) (size 15 to 20)
#    0.000    1.818    1.818    2.727    7.636    0.727 
#   13.091    0.000    8.000    0.000    0.000    0.000 
#    0.000    0.000    0.000    0.000    0.000    0.000 
#
# Total GULP energy -122849.736373 kJ/mol
# GULP energy per Si atom -5584.078926 kJ/mol
# Density = 2.080174 g / cm^3
# Si number density = 20.849191 Si / 1000 Ang^3
#
#
#
# Elastic Constant Matrix: (Units=GPa)
#
#
# Indices 1 2 3 4 5 6 
#
# 1 151.5218 23.9861 12.1773 0.0000 -7.7952 0.0000
# 2 23.9861 81.3821 39.6444 0.0000 -14.2358 0.0000
# 3 12.1773 39.6444 89.4518 0.0000 -5.8281 0.0000
# 4 0.0000 0.0000 0.0000 26.5758 0.0000 -6.9970
# 5 -7.7952 -14.2358 -5.8281 0.0000 31.4543 0.0000
# 6 0.0000 0.0000 0.0000 -6.9970 0.0000 15.2012
#
#
#
# Elastic Compliance Matrix: (Units=1/GPa)
#
#
# Indices 1 2 3 4 5 6 
#
# 1 0.006944 -0.001865 -0.000062 0.000000 0.000865 0.000000
# 2 -0.001865 0.017324 -0.007028 0.000000 0.006076 0.000000
# 3 -0.000062 -0.007028 0.014266 0.000000 -0.000553 0.000000
# 4 0.000000 0.000000 0.000000 0.042817 0.000000 0.019709
# 5 0.000865 0.006076 -0.000553 0.000000 0.034654 0.000000
# 6 0.000000 0.000000 0.000000 0.019709 0.000000 0.074856
#
#
# Mechanical properties :
#
#
# Convention : Reuss Voigt Hill
#
# Bulk Modulus (GPa) = 48.48749 52.66349 50.57549
# Shear Modulus (GPa) = 23.18596 31.08279 27.13437
#
# Velocity S-wave (km/s) = 3.33840 3.86533 3.61149
# Velocity P-wave (km/s) = 6.17792 6.72570 6.45762
#
# Compressibility (1/GPa) = 0.02062388
#
# Stress axis : x y z
#
# Youngs Moduli (GPa) = 143.99927 57.72372 70.09440
#
# Poissons Ratio (x) = 0.10765 0.00438
# Poissons Ratio (y) = 0.26856 0.49263
# Poissons Ratio (z) = 0.00899 0.40569
#
# Static dielectric constant tensor:
#      x y z
#    x 1.813810 0.000000 0.018340 
#    y 0.000000 1.748870 0.000000 
#    z 0.018340 0.000000 1.828060 
# 
# From -- ./inp_files/134498.got.cif
#   From: 2010.05.17/outbox.cif.g08.bks.cpg/sg15_68_cif.got.tgz:134498.got - 2010.06.03 18:47:42.
