data_PCOD9272519
_publ_section_title
;
Structure prediction by ZEFSAII (Michael W. Deem and Ramdas Pophale) SiO2 
 PCOD9272519
Probable space group: C 2/C
;
_chemical_formula_sum "Si O2"
_cell_formula_units_Z 52
_cell_length_a 12.754020
_cell_length_b 8.417325
_cell_length_c 27.484185
_cell_angle_alpha 90.000000
_cell_angle_beta 105.020512
_cell_angle_gamma 90.000000
_cell_volume 2849.745922
_symmetry_space_group_name_H-M "C 2/C"
_symmetry_group_IT_number 15
_symmetry_cell_setting 'monoclinic'
loop_
_space_group_symop_operation_xyz
x,y,z
-x,y,1/2-z
-x,-y,-z
x,-y,1/2+z
1/2+x,1/2+y,z
1/2-x,1/2+y,1/2-z
1/2-x,1/2-y,-z
1/2+x,1/2-y,1/2+z
loop_
_atom_site_type_symbol
_atom_site_label
_atom_site_fract_x
_atom_site_fract_y
_atom_site_fract_z
Si Si1 0.225126 0.157841 0.947519
Si Si2 0.418574 0.083109 0.838846
Si Si3 0.334719 0.870609 0.914637
Si Si4 0.484677 0.423257 0.445261
Si Si5 0.000000 0.639438 0.750000
Si Si6 0.302615 0.374213 0.868580
Si Si7 0.353076 0.837809 0.150476
O O1 0.246576 0.274796 0.905102
O O2 0.101448 0.099540 0.934846
O O3 0.304843 0.008590 0.948792
O O4 0.250000 0.250000 0.000000
O O5 0.435054 0.043319 0.783821
O O6 0.348202 0.243820 0.836412
O O7 0.543295 0.115276 0.869737
O O8 0.371377 0.951886 0.868566
O O9 0.424583 0.746308 0.942817
O O10 0.225950 0.775251 0.888144
O O11 0.500000 0.500000 0.500000
O O12 0.405412 0.532881 0.403594
O O13 0.087216 0.731092 0.794048
O O14 0.216499 0.507744 0.842111
#
# Coordination Sequence:
#
# PCOD9272519 Si02
#       7
#     8   8   8   8   4   8   8
#     4  11  22  38  55  86 112 148 197 225 271 334
#     4   9  19  38  56  82 110 143 185 227 283 334
#     4  10  22  37  61  78 116 158 178 235 290 324
#     4  11  22  38  55  86 112 148 197 225 271 334
#     4   8  20  36  58  86 106 140 182 238 272 348
#     4  10  20  37  58  76 112 154 173 233 278 326
#     4   9  19  38  56  82 110 143 185 227 283 334
#
# _framework density 18.247240999999999
#
# number of rings (size 3 to 8) (size 9 to 14) (size 15 to 20)
#    0.923    1.231    1.538    1.846    0.000    2.462 
#    2.769    0.000    0.000    3.692    0.000    0.000 
#    0.000    0.000    0.000    0.000    0.000    0.000 
#
# Total GULP energy -144755.430468 kJ/mol
# GULP energy per Si atom -5567.516556 kJ/mol
# Density = 1.820571 g / cm^3
# Si number density = 18.247241 Si / 1000 Ang^3
#
#
#
# Elastic Constant Matrix: (Units=GPa)
#
#
# Indices 1 2 3 4 5 6 
#
# 1 77.5729 9.3936 2.8030 0.0000 -16.3970 0.0000
# 2 9.3936 71.8763 14.8685 0.0000 -10.4683 0.0000
# 3 2.8030 14.8685 48.4737 0.0000 -10.1638 0.0000
# 4 0.0000 0.0000 0.0000 5.0889 0.0000 -6.0193
# 5 -16.3970 -10.4683 -10.1638 0.0000 9.4176 0.0000
# 6 0.0000 0.0000 0.0000 -6.0193 0.0000 23.7599
#
#
#
# Elastic Compliance Matrix: (Units=1/GPa)
#
#
# Indices 1 2 3 4 5 6 
#
# 1 0.023701 0.002934 0.009132 0.000000 0.054383 0.000000
# 2 0.002934 0.017058 -0.000459 0.000000 0.023573 0.000000
# 3 0.009132 -0.000459 0.030334 0.000000 0.048127 0.000000
# 4 0.000000 0.000000 0.000000 0.280587 0.000000 0.071084
# 5 0.054383 0.023573 0.048127 0.000000 0.279012 0.000000
# 6 0.000000 0.000000 0.000000 0.071084 0.000000 0.060096
#
#
# Mechanical properties :
#
#
# Convention : Reuss Voigt Hill
#
# Bulk Modulus (GPa) = 10.60374 28.00589 19.30481
# Shear Modulus (GPa) = 7.15299 19.04380 13.09839
#
# Velocity S-wave (km/s) = 1.98206 3.23407 2.68214
# Velocity P-wave (km/s) = 3.32593 5.41543 4.49382
#
# Compressibility (1/GPa) = 0.09430636
#
# Stress axis : x y z
#
# Youngs Moduli (GPa) = 42.19234 58.62484 32.96683
#
# Poissons Ratio (x) = -0.17199 -0.30106
# Poissons Ratio (y) = -0.12378 0.01513
# Poissons Ratio (z) = -0.38531 0.02691
#
# Static dielectric constant tensor:
#      x y z
#    x 1.634460 0.000000 0.003450 
#    y 0.000000 1.655470 0.000000 
#    z 0.003450 0.000000 1.613560 
# 
# From -- ./inp_files/309692.got.cif
#   From: 2010.05.17/outbox.cif.g08.bks.cpg/sg15_155_cif.got.tgz:309692.got - 2010.06.03 18:47:42.
