data_PCOD9272166
_publ_section_title
;
Structure prediction by ZEFSAII (Michael W. Deem and Ramdas Pophale) SiO2 
 PCOD9272166
Probable space group: C 2/C
;
_chemical_formula_sum "Si O2"
_cell_formula_units_Z 56
_cell_length_a 16.759960
_cell_length_b 10.679751
_cell_length_c 21.312121
_cell_angle_alpha 90.000000
_cell_angle_beta 139.656495
_cell_angle_gamma 90.000000
_cell_volume 2469.519557
_symmetry_space_group_name_H-M "C 2/C"
_symmetry_group_IT_number 15
_symmetry_cell_setting 'monoclinic'
loop_
_space_group_symop_operation_xyz
x,y,z
-x,y,1/2-z
-x,-y,-z
x,-y,1/2+z
1/2+x,1/2+y,z
1/2-x,1/2+y,1/2-z
1/2-x,1/2-y,-z
1/2+x,1/2-y,1/2+z
loop_
_atom_site_type_symbol
_atom_site_label
_atom_site_fract_x
_atom_site_fract_y
_atom_site_fract_z
Si Si1 0.284753 0.693500 0.317416
Si Si2 0.500000 0.977635 0.750000
Si Si3 0.267427 0.311708 0.667040
Si Si4 0.507868 0.177472 0.373830
Si Si5 0.372189 0.437179 0.077680
Si Si6 0.500000 0.404328 0.750000
Si Si7 0.331284 0.927335 0.433757
Si Si8 0.771639 0.048527 0.891040
O O1 0.328875 0.694625 0.272414
O O2 0.322624 0.814337 0.379573
O O3 0.314549 0.564922 0.371869
O O4 0.136562 0.698550 0.220467
O O5 0.450525 0.889458 0.665061
O O6 0.621440 0.047785 0.798806
O O7 0.377398 0.323900 0.682667
O O8 0.192565 0.439557 0.612413
O O9 0.190241 0.185945 0.609019
O O10 0.579999 0.307436 0.422006
O O11 0.543493 0.088102 0.452354
O O12 0.483886 0.506813 0.180012
O O13 0.273766 0.413083 0.074599
O O14 0.316687 0.519313 0.988245
#
# Coordination Sequence:
#
# PCOD9272166 Si02
#       8
#     8   4   8   8   8   4   8   8
#     4  11  24  43  65  91 128 166 211 260 309 369
#     4  10  20  36  64  98 121 165 204 264 309 361
#     4  11  25  45  61  93 128 167 209 256 317 377
#     4  11  20  37  65  98 125 163 211 257 310 361
#     4  11  20  40  66 100 124 163 215 257 305 369
#     4  10  24  42  66  88 125 167 206 266 317 367
#     4  11  22  40  68  92 131 165 208 262 303 370
#     4  11  22  40  66  92 132 162 208 260 308 371
#
# _framework density 22.676475
#
# number of rings (size 3 to 8) (size 9 to 14) (size 15 to 20)
#    0.000    1.143    2.857    5.571    0.000    2.857 
#    7.714    1.429    0.000    0.000    0.000    0.000 
#    0.000    0.000    0.000    0.000    0.000    0.000 
#
# Total GULP energy -156633.565350 kJ/mol
# GULP energy per Si atom -5594.055905 kJ/mol
# Density = 2.262486 g / cm^3
# Si number density = 22.676475 Si / 1000 Ang^3
#
#
#
# Elastic Constant Matrix: (Units=GPa)
#
#
# Indices 1 2 3 4 5 6 
#
# 1 33.2725 6.1502 -6.3920 0.0000 -9.7612 0.0000
# 2 6.1502 173.7409 60.2583 0.0000 -21.0813 0.0000
# 3 -6.3920 60.2583 127.7261 0.0000 -31.9433 0.0000
# 4 0.0000 0.0000 0.0000 3.5908 0.0000 -6.6430
# 5 -9.7612 -21.0813 -31.9433 0.0000 32.2211 0.0000
# 6 0.0000 0.0000 0.0000 -6.6430 0.0000 6.8230
#
#
#
# Elastic Compliance Matrix: (Units=1/GPa)
#
#
# Indices 1 2 3 4 5 6 
#
# 1 0.036567 -0.001614 0.006778 0.000000 0.016742 0.000000
# 2 -0.001614 0.007024 -0.003148 0.000000 0.000986 0.000000
# 3 0.006778 -0.003148 0.012834 0.000000 0.012717 0.000000
# 4 0.000000 0.000000 0.000000 -0.347581 0.000000 -0.338414
# 5 0.016742 0.000986 0.012717 0.000000 0.049360 0.000000
# 6 0.000000 0.000000 0.000000 -0.338414 0.000000 -0.182925
#
#
# Mechanical properties :
#
#
# Convention : Reuss Voigt Hill
#
# Bulk Modulus (GPa) = 16.54041 50.53028 33.53534
# Shear Modulus (GPa) = -12.23690 26.84184 7.30247
#
# Velocity S-wave (km/s) = -2.32551 3.44421 1.79646
# Velocity P-wave (km/s) = 0.31501 6.17643 4.37307
#
# Compressibility (1/GPa) = 0.06045801
#
# Stress axis : x y z
#
# Youngs Moduli (GPa) = 27.34712 142.36272 77.91691
#
# Poissons Ratio (x) = 0.22977 -0.52815
# Poissons Ratio (y) = 0.04414 0.24529
# Poissons Ratio (z) = -0.18537 0.44818
#
# Static dielectric constant tensor:
#      x y z
#    x 1.903380 0.000000 0.023650 
#    y 0.000000 1.846560 0.000000 
#    z 0.023650 0.000000 1.815880 
# 
# From -- ./inp_files/252442.got.cif
#   From: 2010.05.17/outbox.cif.g08.bks.cpg/sg15_127_cif.got.tgz:252442.got - 2010.06.03 18:47:42.
