data_PCOD9272918
_publ_section_title
;
Structure prediction by ZEFSAII (Michael W. Deem and Ramdas Pophale) SiO2 
 PCOD9272918
Probable space group: C 2/C
;
_chemical_formula_sum "Si O2"
_cell_formula_units_Z 52
_cell_length_a 14.891344
_cell_length_b 12.800302
_cell_length_c 14.099639
_cell_angle_alpha 90.000000
_cell_angle_beta 123.031995
_cell_angle_gamma 90.000000
_cell_volume 2253.180162
_symmetry_space_group_name_H-M "C 2/C"
_symmetry_group_IT_number 15
_symmetry_cell_setting 'monoclinic'
loop_
_space_group_symop_operation_xyz
x,y,z
-x,y,1/2-z
-x,-y,-z
x,-y,1/2+z
1/2+x,1/2+y,z
1/2-x,1/2+y,1/2-z
1/2-x,1/2-y,-z
1/2+x,1/2-y,1/2+z
loop_
_atom_site_type_symbol
_atom_site_label
_atom_site_fract_x
_atom_site_fract_y
_atom_site_fract_z
Si Si1 0.848210 0.241656 0.665562
Si Si2 0.000000 0.824216 0.750000
Si Si3 0.433656 0.761658 0.900729
Si Si4 0.682496 0.352038 0.000734
Si Si5 0.764426 0.430509 0.510314
Si Si6 0.371071 0.208676 0.842518
Si Si7 0.119188 0.508683 0.108035
O O1 0.939602 0.224036 0.796622
O O2 0.846729 0.353819 0.612034
O O3 0.827532 0.150196 0.577056
O O4 0.739811 0.240127 0.670764
O O5 0.913090 0.875838 0.629823
O O6 0.922238 0.764172 0.780452
O O7 0.372845 0.872873 0.857439
O O8 0.365634 0.686607 0.928311
O O9 0.542269 0.777797 0.022456
O O10 0.736261 0.464145 0.048970
O O11 0.750000 0.250000 0.000000
O O12 0.807166 0.480136 0.437705
O O13 0.364949 0.086356 0.811753
O O14 0.000000 0.500000 0.000000
#
# Coordination Sequence:
#
# PCOD9272918 Si02
#       7
#     8   4   8   8   8   8   8
#     4  10  22  42  61  87 125 165 207 256 305 378
#     4  10  22  38  60  96 126 160 208 258 312 380
#     4  10  20  37  61  89 120 159 206 253 314 367
#     4  11  21  39  63  91 126 160 208 256 311 379
#     4  10  22  40  62  87 124 164 207 252 314 368
#     4   9  20  38  59  88 126 156 204 257 308 368
#     4   9  18  37  58  87 122 151 199 263 304 361
#
# _framework density 23.078492000000001
#
# number of rings (size 3 to 8) (size 9 to 14) (size 15 to 20)
#    0.000    2.154    1.538    0.923    0.000    3.692 
#    2.769   12.308    0.000    0.000    0.000    0.000 
#    0.000    0.000    0.000    0.000    0.000    0.000 
#
# Total GULP energy -144999.219070 kJ/mol
# GULP energy per Si atom -5576.893041 kJ/mol
# Density = 2.302596 g / cm^3
# Si number density = 23.078492 Si / 1000 Ang^3
#
#
#
# Elastic Constant Matrix: (Units=GPa)
#
#
# Indices 1 2 3 4 5 6 
#
# 1 43.9037 20.3591 -3.4931 0.0000 -16.2141 0.0000
# 2 20.3591 106.3709 20.4841 0.0000 4.5058 0.0000
# 3 -3.4931 20.4841 138.1861 0.0000 -6.4555 0.0000
# 4 0.0000 0.0000 0.0000 19.3948 0.0000 -1.7361
# 5 -16.2141 4.5058 -6.4555 0.0000 34.2241 0.0000
# 6 0.0000 0.0000 0.0000 -1.7361 0.0000 26.7535
#
#
#
# Elastic Compliance Matrix: (Units=1/GPa)
#
#
# Indices 1 2 3 4 5 6 
#
# 1 0.032774 -0.007522 0.002739 0.000000 0.017034 0.000000
# 2 -0.007522 0.011487 -0.002149 0.000000 -0.005481 0.000000
# 3 0.002739 -0.002149 0.007767 0.000000 0.003046 0.000000
# 4 0.000000 0.000000 0.000000 0.051861 0.000000 0.003365
# 5 0.017034 -0.005481 0.003046 0.000000 0.038585 0.000000
# 6 0.000000 0.000000 0.000000 0.003365 0.000000 0.037597
#
#
# Mechanical properties :
#
#
# Convention : Reuss Voigt Hill
#
# Bulk Modulus (GPa) = 26.20258 40.35121 33.27689
# Shear Modulus (GPa) = 24.19488 32.81520 28.50504
#
# Velocity S-wave (km/s) = 3.24137 3.77489 3.51826
# Velocity P-wave (km/s) = 5.03855 6.04335 5.56368
#
# Compressibility (1/GPa) = 0.03816418
#
# Stress axis : x y z
#
# Youngs Moduli (GPa) = 30.51207 87.05698 128.75503
#
# Poissons Ratio (x) = 0.65483 -0.35269
# Poissons Ratio (y) = 0.22951 0.27669
# Poissons Ratio (z) = -0.08358 0.18708
#
# Static dielectric constant tensor:
#      x y z
#    x 1.958080 0.000000 0.046710 
#    y 0.000000 1.949040 0.000000 
#    z 0.046710 0.000000 1.890290 
# 
# From -- ./inp_files/161054.got.cif
#   From: 2010.05.17/outbox.cif.g08.bks.cpg/sg15_81_cif.got.tgz:161054.got - 2010.06.03 18:47:42.
