data_PCOD9272857
_publ_section_title
;
Structure prediction by ZEFSAII (Michael W. Deem and Ramdas Pophale) SiO2 
 PCOD9272857
Probable space group: C 2/C
;
_chemical_formula_sum "Si O2"
_cell_formula_units_Z 60
_cell_length_a 15.043551
_cell_length_b 22.661337
_cell_length_c 8.565357
_cell_angle_alpha 90.000000
_cell_angle_beta 114.536168
_cell_angle_gamma 90.000000
_cell_volume 2656.312880
_symmetry_space_group_name_H-M "C 2/C"
_symmetry_group_IT_number 15
_symmetry_cell_setting 'monoclinic'
loop_
_space_group_symop_operation_xyz
x,y,z
-x,y,1/2-z
-x,-y,-z
x,-y,1/2+z
1/2+x,1/2+y,z
1/2-x,1/2+y,1/2-z
1/2-x,1/2-y,-z
1/2+x,1/2-y,1/2+z
loop_
_atom_site_type_symbol
_atom_site_label
_atom_site_fract_x
_atom_site_fract_y
_atom_site_fract_z
Si Si1 0.275264 0.112900 0.442028
Si Si2 0.606720 0.526941 0.401952
Si Si3 0.799424 0.764421 0.702334
Si Si4 0.500000 0.702531 0.250000
Si Si5 0.011580 0.566807 0.944294
Si Si6 0.347721 0.609977 0.567549
Si Si7 0.460973 0.376665 0.450095
Si Si8 0.320075 0.856850 0.345397
O O1 0.190874 0.063543 0.376599
O O2 0.241894 0.169242 0.313456
O O3 0.378214 0.090116 0.451012
O O4 0.288963 0.125317 0.641270
O O5 0.500000 0.532213 0.250000
O O6 0.637639 0.460092 0.434013
O O7 0.583611 0.558685 0.549704
O O8 0.750000 0.750000 0.500000
O O9 0.916476 0.760676 0.768878
O O10 0.788358 0.712550 0.819550
O O11 0.559348 0.662215 0.414205
O O12 0.928966 0.614625 0.937529
O O13 0.000000 0.562373 0.750000
O O14 0.000000 0.500000 0.000000
O O15 0.422790 0.628866 0.485694
O O16 0.404960 0.640441 0.754902
O O17 0.238066 0.618843 0.546016
#
# Coordination Sequence:
#
# PCOD9272857 Si02
#       8
#     8   8   8   4   8   8   8   8
#     4  10  20  37  60  96 128 161 219 271 308 380
#     4  12  20  34  58  91 133 162 206 251 321 387
#     4  10  21  37  65  93 121 158 215 276 312 364
#     4  12  22  40  66  96 122 164 214 266 310 392
#     4  10  22  41  66  94 129 172 219 267 324 385
#     4  11  23  36  58  89 136 170 196 261 319 390
#     4  11  21  37  56  92 131 165 206 244 323 382
#     4  10  21  40  61  91 125 166 218 262 324 374
#
# _framework density 22.587700000000002
#
# number of rings (size 3 to 8) (size 9 to 14) (size 15 to 20)
#    0.000    1.333    4.667    2.000    4.667    0.000 
#    0.000    3.333    0.000    0.000    0.000    0.000 
#    0.000    0.000    0.000    0.000    0.000    0.000 
#
# Total GULP energy -167061.722272 kJ/mol
# GULP energy per Si atom -5568.724076 kJ/mol
# Density = 2.253629 g / cm^3
# Si number density = 22.587700 Si / 1000 Ang^3
#
#
#
# Elastic Constant Matrix: (Units=GPa)
#
#
# Indices 1 2 3 4 5 6 
#
# 1 181.4090 52.0332 11.8919 0.0000 13.8404 0.0000
# 2 52.0332 71.1275 5.3639 0.0000 12.3017 0.0000
# 3 11.8919 5.3639 18.3933 0.0000 6.2218 0.0000
# 4 0.0000 0.0000 0.0000 8.9253 0.0000 6.1137
# 5 13.8404 12.3017 6.2218 0.0000 32.5158 0.0000
# 6 0.0000 0.0000 0.0000 6.1137 0.0000 31.9997
#
#
#
# Elastic Compliance Matrix: (Units=1/GPa)
#
#
# Indices 1 2 3 4 5 6 
#
# 1 0.007163 -0.004908 -0.002990 0.000000 -0.000620 0.000000
# 2 -0.004908 0.018526 -0.000605 0.000000 -0.004804 0.000000
# 3 -0.002990 -0.000605 0.059843 0.000000 -0.009949 0.000000
# 4 0.000000 0.000000 0.000000 0.128912 0.000000 -0.024629
# 5 -0.000620 -0.004804 -0.009949 0.000000 0.034740 0.000000
# 6 0.000000 0.000000 0.000000 -0.024629 0.000000 0.035956
#
#
# Mechanical properties :
#
#
# Convention : Reuss Voigt Hill
#
# Bulk Modulus (GPa) = 14.59281 45.50087 30.04684
# Shear Modulus (GPa) = 15.38526 28.13088 21.75807
#
# Velocity S-wave (km/s) = 2.61269 3.53286 3.10703
# Velocity P-wave (km/s) = 3.94665 6.06871 5.11885
#
# Compressibility (1/GPa) = 0.06852689
#
# Stress axis : x y z
#
# Youngs Moduli (GPa) = 139.59882 53.97852 16.71048
#
# Poissons Ratio (x) = 0.26490 0.04997
# Poissons Ratio (y) = 0.68509 0.01010
# Poissons Ratio (z) = 0.41746 0.03263
#
# Static dielectric constant tensor:
#      x y z
#    x 1.822080 0.000000 0.256430 
#    y 0.000000 1.920960 0.000000 
#    z 0.256430 0.000000 0.727390 
# 
# From -- ./inp_files/42702.got.cif
#   From: 2010.05.17/outbox.cif.g08.bks.cpg/sg15_22_cif.got.tgz:42702.got - 2010.06.03 18:47:42.
