data_PCOD9272089
_publ_section_title
;
Structure prediction by ZEFSAII (Michael W. Deem and Ramdas Pophale) SiO2 
 PCOD9272089
Probable space group: C 2/C
;
_chemical_formula_sum "Si O2"
_cell_formula_units_Z 44
_cell_length_a 8.909617
_cell_length_b 16.059454
_cell_length_c 15.185074
_cell_angle_alpha 90.000000
_cell_angle_beta 120.057188
_cell_angle_gamma 90.000000
_cell_volume 1880.558286
_symmetry_space_group_name_H-M "C 2/C"
_symmetry_group_IT_number 15
_symmetry_cell_setting 'monoclinic'
loop_
_space_group_symop_operation_xyz
x,y,z
-x,y,1/2-z
-x,-y,-z
x,-y,1/2+z
1/2+x,1/2+y,z
1/2-x,1/2+y,1/2-z
1/2-x,1/2-y,-z
1/2+x,1/2-y,1/2+z
loop_
_atom_site_type_symbol
_atom_site_label
_atom_site_fract_x
_atom_site_fract_y
_atom_site_fract_z
Si Si1 0.500000 0.271884 0.250000
Si Si2 0.663494 0.680479 0.614995
Si Si3 0.310150 0.528042 0.971300
Si Si4 0.682835 0.640890 0.349564
Si Si5 0.541717 0.915139 0.963678
Si Si6 0.842464 0.249273 0.433670
O O1 0.439947 0.320014 0.321884
O O2 0.684130 0.227566 0.323956
O O3 0.753127 0.593251 0.621092
O O4 0.791712 0.758797 0.638779
O O5 0.513556 0.695320 0.496583
O O6 0.199084 0.444169 0.949230
O O7 0.500000 0.500000 0.000000
O O8 0.312208 0.582812 0.061869
O O9 0.500000 0.623975 0.250000
O O10 0.870910 0.616489 0.363196
O O11 0.592674 0.845228 0.050927
O O12 0.500000 0.000000 0.000000
O O13 0.750000 0.250000 0.500000
#
# Coordination Sequence:
#
# PCOD9272089 Si02
#       6
#     4   8   8   8   8   8
#     4  10  20  36  64 102 130 166 228 264 336 398
#     4  10  22  40  67  97 134 177 223 282 329 398
#     4  11  22  42  69  99 137 177 218 278 355 399
#     4  10  23  45  68  94 130 181 233 280 330 406
#     4   9  20  42  64  89 133 171 208 271 345 389
#     4   9  18  36  62  88 125 171 211 265 319 386
#
# _framework density 23.397306
#
# number of rings (size 3 to 8) (size 9 to 14) (size 15 to 20)
#    0.000    2.182    0.000    2.727    2.545    0.000 
#   14.727    0.000    0.000    0.000    0.000    0.000 
#    0.000    0.000    0.000    0.000    0.000    0.000 
#
# Total GULP energy -122544.581161 kJ/mol
# GULP energy per Si atom -5570.208235 kJ/mol
# Density = 2.334405 g / cm^3
# Si number density = 23.397306 Si / 1000 Ang^3
#
#
#
# Elastic Constant Matrix: (Units=GPa)
#
#
# Indices 1 2 3 4 5 6 
#
# 1 115.0501 27.1194 39.8567 0.0000 18.9833 0.0000
# 2 27.1194 105.3336 15.7384 0.0000 -3.8173 0.0000
# 3 39.8567 15.7384 103.9256 0.0000 22.6786 0.0000
# 4 0.0000 0.0000 0.0000 8.3768 0.0000 -4.0532
# 5 18.9833 -3.8173 22.6786 0.0000 41.6858 0.0000
# 6 0.0000 0.0000 0.0000 -4.0532 0.0000 49.4076
#
#
#
# Elastic Compliance Matrix: (Units=1/GPa)
#
#
# Indices 1 2 3 4 5 6 
#
# 1 0.010914 -0.002485 -0.003036 0.000000 -0.003546 0.000000
# 2 -0.002485 0.010416 -0.001225 0.000000 0.002752 0.000000
# 3 -0.003036 -0.001225 0.012135 0.000000 -0.005332 0.000000
# 4 0.000000 0.000000 0.000000 0.124312 0.000000 0.010198
# 5 -0.003546 0.002752 -0.005332 0.000000 0.028757 0.000000
# 6 0.000000 0.000000 0.000000 0.010198 0.000000 0.021076
#
#
# Mechanical properties :
#
#
# Convention : Reuss Voigt Hill
#
# Bulk Modulus (GPa) = 50.06232 54.41534 52.23883
# Shear Modulus (GPa) = 21.95284 36.00035 28.97660
#
# Velocity S-wave (km/s) = 3.06643 3.92682 3.52299
# Velocity P-wave (km/s) = 5.82927 6.62325 6.23891
#
# Compressibility (1/GPa) = 0.01997510
#
# Stress axis : x y z
#
# Youngs Moduli (GPa) = 91.62213 96.00440 82.40300
#
# Poissons Ratio (x) = 0.23857 0.25014
# Poissons Ratio (y) = 0.22768 0.10094
# Poissons Ratio (z) = 0.27813 0.11760
#
# Static dielectric constant tensor:
#      x y z
#    x 2.035940 0.000000 -0.040160 
#    y 0.000000 1.998700 0.000000 
#    z -0.040160 0.000000 2.094080 
# 
# From -- ./inp_files/134961.got.cif
#   From: 2010.05.17/outbox.cif.g08.bks.cpg/sg15_68_cif.got.tgz:134961.got - 2010.06.03 18:47:42.
