data_PCOD9272312
_publ_section_title
;
Structure prediction by ZEFSAII (Michael W. Deem and Ramdas Pophale) SiO2 
 PCOD9272312
Probable space group: C 2/C
;
_chemical_formula_sum "Si O2"
_cell_formula_units_Z 60
_cell_length_a 21.405919
_cell_length_b 8.174720
_cell_length_c 22.926415
_cell_angle_alpha 90.000000
_cell_angle_beta 137.895968
_cell_angle_gamma 90.000000
_cell_volume 2689.849516
_symmetry_space_group_name_H-M "C 2/C"
_symmetry_group_IT_number 15
_symmetry_cell_setting 'monoclinic'
loop_
_space_group_symop_operation_xyz
x,y,z
-x,y,1/2-z
-x,-y,-z
x,-y,1/2+z
1/2+x,1/2+y,z
1/2-x,1/2+y,1/2-z
1/2-x,1/2-y,-z
1/2+x,1/2-y,1/2+z
loop_
_atom_site_type_symbol
_atom_site_label
_atom_site_fract_x
_atom_site_fract_y
_atom_site_fract_z
Si Si1 0.543815 0.673321 0.481067
Si Si2 0.525173 0.933141 0.370618
Si Si3 0.166386 0.942314 0.791074
Si Si4 0.797053 0.967375 0.971277
Si Si5 0.864274 0.043113 0.851784
Si Si6 0.680228 0.067216 0.787341
Si Si7 0.000000 0.820775 0.750000
Si Si8 0.789052 0.585152 0.968498
O O1 0.532235 0.835666 0.436171
O O2 0.608306 0.548804 0.487164
O O3 0.596526 0.687100 0.579457
O O4 0.442142 0.594815 0.417647
O O5 0.422068 0.005025 0.291372
O O6 0.536101 0.800174 0.326264
O O7 0.610216 0.056269 0.433362
O O8 0.173083 0.760502 0.768680
O O9 0.080061 0.928190 0.775731
O O10 0.144394 0.064557 0.723080
O O11 0.258895 0.986066 0.890593
O O12 0.785066 0.775452 0.950095
O O13 0.715788 0.055907 0.878419
O O14 0.781417 0.974168 0.029436
O O15 0.762929 0.995483 0.805858
#
# Coordination Sequence:
#
# PCOD9272312 Si02
#       8
#     8   8   8   8   8   8   4   8
#     4  10  20  41  67  88 122 164 214 258 313 377
#     4  11  21  41  67  99 121 168 220 267 310 380
#     4  11  22  40  64  99 121 167 219 266 309 383
#     4  10  23  42  59  91 130 172 199 262 333 377
#     4  10  21  38  64  91 122 160 203 261 316 369
#     4  10  22  42  66  90 128 165 214 262 316 369
#     4  10  20  36  68  98 126 156 222 272 310 360
#     4  11  23  39  61  93 133 163 211 255 324 394
#
# _framework density 22.306080999999999
#
# number of rings (size 3 to 8) (size 9 to 14) (size 15 to 20)
#    0.000    1.600    2.667    4.000    0.000    3.733 
#    4.800    0.667    0.000    0.000    0.000    0.000 
#    0.000    0.000    0.000    0.000    0.000    0.000 
#
# Total GULP energy -167549.480729 kJ/mol
# GULP energy per Si atom -5584.982691 kJ/mol
# Density = 2.225531 g / cm^3
# Si number density = 22.306081 Si / 1000 Ang^3
#
#
#
# Elastic Constant Matrix: (Units=GPa)
#
#
# Indices 1 2 3 4 5 6 
#
# 1 107.7271 8.8861 41.9417 0.0000 25.4760 0.0000
# 2 8.8861 19.8081 15.5199 0.0000 -6.1436 -0.0001
# 3 41.9417 15.5199 103.9887 0.0000 -4.2582 0.0000
# 4 0.0000 0.0000 0.0000 7.1275 0.0000 -0.8883
# 5 25.4760 -6.1436 -4.2582 0.0000 27.4578 0.0000
# 6 0.0000 -0.0001 0.0000 -0.8883 0.0000 12.0471
#
#
#
# Elastic Compliance Matrix: (Units=1/GPa)
#
#
# Indices 1 2 3 4 5 6 
#
# 1 0.016755 -0.008302 -0.006271 0.000000 -0.018375 0.000000
# 2 -0.008302 0.065164 -0.005500 0.000000 0.021430 0.000000
# 3 -0.006271 -0.005500 0.013238 0.000000 0.006641 0.000000
# 4 0.000000 0.000000 0.000000 0.141604 0.000000 0.010441
# 5 -0.018375 0.021430 0.006641 0.000000 0.059293 0.000000
# 6 0.000000 0.000000 0.000000 0.010441 0.000000 0.083778
#
#
# Mechanical properties :
#
#
# Convention : Reuss Voigt Hill
#
# Bulk Modulus (GPa) = 18.17780 40.46880 29.32330
# Shear Modulus (GPa) = 11.40735 20.33822 15.87278
#
# Velocity S-wave (km/s) = 2.26387 3.02284 2.67046
# Velocity P-wave (km/s) = 3.87304 5.51047 4.76265
#
# Compressibility (1/GPa) = 0.05501214
#
# Stress axis : x y z
#
# Youngs Moduli (GPa) = 59.68534 15.34585 75.53759
#
# Poissons Ratio (x) = 0.12740 0.47370
# Poissons Ratio (y) = 0.49550 0.41542
# Poissons Ratio (z) = 0.37429 0.08440
#
# Static dielectric constant tensor:
#      x y z
#    x 1.861260 0.000000 -0.004940 
#    y 0.000000 1.811080 0.000000 
#    z -0.004940 0.000000 1.821170 
# 
# From -- ./inp_files/281693.got.cif
#   From: 2010.05.17/outbox.cif.g08.bks.cpg/sg15_141_cif.got.tgz:281693.got - 2010.06.03 18:47:42.
