data_PCOD9272737
_publ_section_title
;
Structure prediction by ZEFSAII (Michael W. Deem and Ramdas Pophale) SiO2 
 PCOD9272737
Probable space group: C 2/C
;
_chemical_formula_sum "Si O2"
_cell_formula_units_Z 40
_cell_length_a 18.346547
_cell_length_b 6.321687
_cell_length_c 16.438612
_cell_angle_alpha 90.000000
_cell_angle_beta 80.260177
_cell_angle_gamma 90.000000
_cell_volume 1879.087711
_symmetry_space_group_name_H-M "C 2/C"
_symmetry_group_IT_number 15
_symmetry_cell_setting 'monoclinic'
loop_
_space_group_symop_operation_xyz
x,y,z
-x,y,1/2-z
-x,-y,-z
x,-y,1/2+z
1/2+x,1/2+y,z
1/2-x,1/2+y,1/2-z
1/2-x,1/2-y,-z
1/2+x,1/2-y,1/2+z
loop_
_atom_site_type_symbol
_atom_site_label
_atom_site_fract_x
_atom_site_fract_y
_atom_site_fract_z
Si Si1 0.842509 0.597893 0.555036
Si Si2 0.794474 0.024699 0.179447
Si Si3 0.429961 0.283781 0.090976
Si Si4 0.212386 0.838865 0.636133
Si Si5 0.589533 0.432202 0.067759
O O1 0.820287 0.767202 0.627668
O O2 0.912481 0.458043 0.570727
O O3 0.773924 0.436539 0.563931
O O4 0.861773 0.733619 0.472261
O O5 0.774446 0.074007 0.275338
O O6 0.864152 0.864555 0.161301
O O7 0.728347 0.908905 0.143745
O O8 0.510571 0.339686 0.109260
O O9 0.421934 0.420265 0.009559
O O10 0.133728 0.922908 0.622136
#
# Coordination Sequence:
#
# PCOD9272737 Si02
#       5
#     8   8   8   8   8
#     4  10  20  37  60  85 116 155 199 253 302 363
#     4  10  21  37  58  83 121 158 201 252 301 362
#     4   9  21  39  57  85 120 154 199 254 305 364
#     4  11  21  36  59  86 117 158 205 249 306 362
#     4  10  21  37  60  86 117 156 200 251 308 367
#
# _framework density 21.286923999999999
#
# number of rings (size 3 to 8) (size 9 to 14) (size 15 to 20)
#    0.000    2.000    2.000    1.200    0.000    9.600 
#    0.000    0.000    0.000    7.200    0.000    0.000 
#    0.000    0.000    0.000    0.000    0.000    0.000 
#
# Total GULP energy -111710.215817 kJ/mol
# GULP energy per Si atom -5585.510791 kJ/mol
# Density = 2.123847 g / cm^3
# Si number density = 21.286924 Si / 1000 Ang^3
#
#
#
# Elastic Constant Matrix: (Units=GPa)
#
#
# Indices 1 2 3 4 5 6 
#
# 1 101.8212 51.2024 28.2570 0.0000 14.4984 0.0000
# 2 51.2024 104.9852 29.2847 0.0000 1.3696 0.0000
# 3 28.2570 29.2847 41.8047 0.0000 -3.4626 0.0000
# 4 0.0000 0.0000 0.0000 27.3868 0.0000 2.8954
# 5 14.4984 1.3696 -3.4626 0.0000 22.6912 0.0000
# 6 0.0000 0.0000 0.0000 2.8954 0.0000 42.4159
#
#
#
# Elastic Compliance Matrix: (Units=1/GPa)
#
#
# Indices 1 2 3 4 5 6 
#
# 1 0.016573 -0.005646 -0.008200 0.000000 -0.011500 0.000000
# 2 -0.005646 0.013852 -0.005731 0.000000 0.001897 0.000000
# 3 -0.008200 -0.005731 0.034375 0.000000 0.010831 0.000000
# 4 0.000000 0.000000 0.000000 0.036779 0.000000 -0.002511
# 5 -0.011500 0.001897 0.010831 0.000000 0.052956 0.000000
# 6 0.000000 0.000000 0.000000 -0.002511 0.000000 0.023747
#
#
# Mechanical properties :
#
#
# Convention : Reuss Voigt Hill
#
# Bulk Modulus (GPa) = 38.98946 51.78879 45.38913
# Shear Modulus (GPa) = 22.12535 27.82323 24.97429
#
# Velocity S-wave (km/s) = 3.22745 3.61925 3.42895
# Velocity P-wave (km/s) = 5.67842 6.46893 6.08652
#
# Compressibility (1/GPa) = 0.02564795
#
# Stress axis : x y z
#
# Youngs Moduli (GPa) = 60.33829 72.19010 29.09100
#
# Poissons Ratio (x) = 0.40755 0.23855
# Poissons Ratio (y) = 0.34064 0.16671
# Poissons Ratio (z) = 0.49478 0.41369
#
# Static dielectric constant tensor:
#      x y z
#    x 1.798840 0.000000 0.003040 
#    y 0.000000 1.837560 0.000000 
#    z 0.003040 0.000000 1.727870 
# 
# From -- ./inp_files/207995.got.cif
#   From: 2010.05.17/outbox.cif.g08.bks.cpg/sg15_104_cif.got.tgz:207995.got - 2010.06.03 18:47:42.
