data_PCOD9272765
_publ_section_title
;
Structure prediction by ZEFSAII (Michael W. Deem and Ramdas Pophale) SiO2 
 PCOD9272765
Probable space group: C 2/C
;
_chemical_formula_sum "Si O2"
_cell_formula_units_Z 48
_cell_length_a 12.097464
_cell_length_b 35.039511
_cell_length_c 7.297153
_cell_angle_alpha 90.000000
_cell_angle_beta 40.897159
_cell_angle_gamma 90.000000
_cell_volume 2025.118215
_symmetry_space_group_name_H-M "C 2/C"
_symmetry_group_IT_number 15
_symmetry_cell_setting 'monoclinic'
loop_
_space_group_symop_operation_xyz
x,y,z
-x,y,1/2-z
-x,-y,-z
x,-y,1/2+z
1/2+x,1/2+y,z
1/2-x,1/2+y,1/2-z
1/2-x,1/2-y,-z
1/2+x,1/2-y,1/2+z
loop_
_atom_site_type_symbol
_atom_site_label
_atom_site_fract_x
_atom_site_fract_y
_atom_site_fract_z
Si Si1 0.127845 0.752068 0.988611
Si Si2 0.146354 0.669966 0.817963
Si Si3 0.221012 0.909292 0.303157
Si Si4 0.964830 0.544143 0.008561
Si Si5 0.268252 0.166208 0.218730
Si Si6 0.864103 0.084940 0.152029
O O1 0.411799 0.750590 0.742802
O O2 0.183920 0.713211 0.826266
O O3 0.173166 0.794238 0.872471
O O4 0.251763 0.635521 0.772511
O O5 0.183078 0.666612 0.556444
O O6 0.946865 0.663657 0.099327
O O7 0.396318 0.931192 0.058079
O O8 0.178282 0.913259 0.575116
O O9 0.060325 0.925370 0.397161
O O10 0.000000 0.551518 0.750000
O O11 0.772561 0.557707 0.271805
O O12 0.000000 0.500000 0.000000
O O13 0.164572 0.127931 0.382259
#
# Coordination Sequence:
#
# PCOD9272765 Si02
#       6
#     8   8   8   8   8   8
#     4  12  25  39  51  79 122 161 193 239 307 359
#     4  10  20  38  61  83 108 151 206 253 289 345
#     4   9  18  34  59  88 112 147 197 244 289 338
#     4  10  20  37  60  87 118 149 186 236 294 352
#     4  10  20  38  61  82 109 149 208 251 291 343
#     4   9  18  34  60  86 111 149 195 245 287 341
#
# _framework density 23.70232
#
# number of rings (size 3 to 8) (size 9 to 14) (size 15 to 20)
#    0.000    2.000    3.333    0.500    2.333    0.667 
#    0.000    2.500    0.000    0.000    0.000    0.000 
#    0.000    0.000    0.000    0.000    0.000    0.000 
#
# Total GULP energy -133945.492897 kJ/mol
# GULP energy per Si atom -5581.062204 kJ/mol
# Density = 2.364837 g / cm^3
# Si number density = 23.702320 Si / 1000 Ang^3
#
#
#
# Elastic Constant Matrix: (Units=GPa)
#
#
# Indices 1 2 3 4 5 6 
#
# 1 87.8071 40.7041 47.3990 0.0000 -32.8321 0.0000
# 2 40.7041 147.9941 56.9301 0.0000 -39.3341 0.0000
# 3 47.3990 56.9301 100.3518 0.0000 -20.1524 0.0000
# 4 0.0000 0.0000 0.0000 18.7682 0.0000 -11.9394
# 5 -32.8321 -39.3341 -20.1524 0.0000 41.4747 0.0000
# 6 0.0000 0.0000 0.0000 -11.9394 0.0000 32.2318
#
#
#
# Elastic Compliance Matrix: (Units=1/GPa)
#
#
# Indices 1 2 3 4 5 6 
#
# 1 0.019699 0.000740 -0.007149 0.000000 0.012822 0.000000
# 2 0.000740 0.010566 -0.004669 0.000000 0.008337 0.000000
# 3 -0.007149 -0.004669 0.015475 0.000000 -0.002569 0.000000
# 4 0.000000 0.000000 0.000000 0.069708 0.000000 0.025822
# 5 0.012822 0.008337 -0.002569 0.000000 0.040920 0.000000
# 6 0.000000 0.000000 0.000000 0.025822 0.000000 0.040590
#
#
# Mechanical properties :
#
#
# Convention : Reuss Voigt Hill
#
# Bulk Modulus (GPa) = 42.40407 69.57991 55.99199
# Shear Modulus (GPa) = 22.02872 31.23625 26.63248
#
# Velocity S-wave (km/s) = 3.05190 3.63417 3.35569
# Velocity P-wave (km/s) = 5.50889 6.85777 6.22000
#
# Compressibility (1/GPa) = 0.02358264
#
# Stress axis : x y z
#
# Youngs Moduli (GPa) = 50.76339 94.64755 64.62106
#
# Poissons Ratio (x) = -0.07005 0.46200
# Poissons Ratio (y) = -0.03757 0.30173
# Poissons Ratio (z) = 0.36293 0.44192
#
# Static dielectric constant tensor:
#      x y z
#    x 2.035430 0.000000 -0.102620 
#    y 0.000000 1.819400 0.000000 
#    z -0.102620 0.000000 2.061340 
# 
# From -- ./inp_files/101602.got.cif
#   From: 2010.05.17/outbox.cif.g08.bks.cpg/sg15_51_cif.got.tgz:101602.got - 2010.06.03 18:47:42.
