data_PCOD9272842
_publ_section_title
;
Structure prediction by ZEFSAII (Michael W. Deem and Ramdas Pophale) SiO2 
 PCOD9272842
Probable space group: C 2/C
;
_chemical_formula_sum "Si O2"
_cell_formula_units_Z 56
_cell_length_a 15.321190
_cell_length_b 17.602445
_cell_length_c 11.863206
_cell_angle_alpha 90.000000
_cell_angle_beta 112.851784
_cell_angle_gamma 90.000000
_cell_volume 2948.280600
_symmetry_space_group_name_H-M "C 2/C"
_symmetry_group_IT_number 15
_symmetry_cell_setting 'monoclinic'
loop_
_space_group_symop_operation_xyz
x,y,z
-x,y,1/2-z
-x,-y,-z
x,-y,1/2+z
1/2+x,1/2+y,z
1/2-x,1/2+y,1/2-z
1/2-x,1/2-y,-z
1/2+x,1/2-y,1/2+z
loop_
_atom_site_type_symbol
_atom_site_label
_atom_site_fract_x
_atom_site_fract_y
_atom_site_fract_z
Si Si1 0.139771 0.660482 0.790117
Si Si2 0.978333 0.715488 0.570808
Si Si3 0.651135 0.509300 0.365749
Si Si4 0.011641 0.603858 0.122082
Si Si5 0.357955 0.025790 0.888038
Si Si6 0.468372 0.537380 0.869507
Si Si7 0.148299 0.856213 0.045919
O O1 0.081955 0.658306 0.878487
O O2 0.136892 0.583653 0.714902
O O3 0.248865 0.676898 0.871764
O O4 0.080571 0.719281 0.682652
O O5 0.920752 0.792950 0.538514
O O6 0.985586 0.680608 0.449984
O O7 0.752905 0.478988 0.384173
O O8 0.594159 0.528105 0.223038
O O9 0.571166 0.447687 0.364714
O O10 0.660491 0.576304 0.460424
O O11 0.000000 0.613033 0.250000
O O12 0.104561 0.554582 0.138647
O O13 0.926301 0.555857 0.021733
O O14 0.401457 0.607041 0.869194
O O15 0.500000 0.500000 0.000000
#
# Coordination Sequence:
#
# PCOD9272842 Si02
#       7
#     8   8   8   8   8   8   8
#     4  10  21  38  62  89 125 165 210 261 314 374
#     4  10  23  40  57  93 128 169 214 250 317 392
#     4  10  20  37  60  92 117 156 206 258 320 367
#     4  10  23  37  58  89 123 163 211 261 312 373
#     4  10  21  36  62  89 122 158 208 272 316 360
#     4   9  20  35  56  89 120 151 204 254 312 361
#     4  11  21  39  65  88 129 167 204 269 312 379
#
# _framework density 18.994121
#
# number of rings (size 3 to 8) (size 9 to 14) (size 15 to 20)
#    0.000    2.000    1.429    1.286    8.000    4.571 
#    2.571    1.429    0.000    3.429    0.000    0.000 
#    0.000    0.000    0.000    0.000    0.000    0.000 
#
# Total GULP energy -155919.114348 kJ/mol
# GULP energy per Si atom -5568.539798 kJ/mol
# Density = 1.895089 g / cm^3
# Si number density = 18.994121 Si / 1000 Ang^3
#
#
#
# Elastic Constant Matrix: (Units=GPa)
#
#
# Indices 1 2 3 4 5 6 
#
# 1 147.1290 33.7892 43.6899 0.0000 13.0437 0.0000
# 2 33.7892 41.0742 23.9645 0.0000 -0.0605 0.0000
# 3 43.6899 23.9645 100.0892 0.0000 -3.5858 0.0000
# 4 0.0000 0.0000 0.0000 13.0557 0.0000 4.2189
# 5 13.0437 -0.0605 -3.5858 0.0000 38.4806 0.0000
# 6 0.0000 0.0000 0.0000 4.2189 0.0000 19.6037
#
#
#
# Elastic Compliance Matrix: (Units=1/GPa)
#
#
# Indices 1 2 3 4 5 6 
#
# 1 0.009304 -0.006065 -0.002731 0.000000 -0.003418 0.000000
# 2 -0.006065 0.032266 -0.005019 0.000000 0.001639 0.000000
# 3 -0.002731 -0.005019 0.012460 0.000000 0.002079 0.000000
# 4 0.000000 0.000000 0.000000 0.082320 0.000000 -0.017716
# 5 -0.003418 0.001639 0.002079 0.000000 0.027342 0.000000
# 6 0.000000 0.000000 0.000000 -0.017716 0.000000 0.054824
#
#
# Mechanical properties :
#
#
# Convention : Reuss Voigt Hill
#
# Bulk Modulus (GPa) = 37.88156 54.57550 46.22853
# Shear Modulus (GPa) = 19.61197 26.68458 23.14828
#
# Velocity S-wave (km/s) = 3.21678 3.75225 3.49479
# Velocity P-wave (km/s) = 5.81241 6.89693 6.37776
#
# Compressibility (1/GPa) = 0.02639807
#
# Stress axis : x y z
#
# Youngs Moduli (GPa) = 107.48382 30.99194 80.25882
#
# Poissons Ratio (x) = 0.18797 0.21922
# Poissons Ratio (y) = 0.65189 0.40286
# Poissons Ratio (z) = 0.29359 0.15556
#
# Static dielectric constant tensor:
#      x y z
#    x 1.715350 0.000000 -0.063720 
#    y 0.000000 1.661360 0.000000 
#    z -0.063720 0.000000 1.794410 
# 
# From -- ./inp_files/98408.got.cif
#   From: 2010.05.17/outbox.cif.g08.bks.cpg/sg15_50_cif.got.tgz:98408.got - 2010.06.03 18:47:42.
