data_PCOD9272791
_publ_section_title
;
Structure prediction by ZEFSAII (Michael W. Deem and Ramdas Pophale) SiO2 
 PCOD9272791
Probable space group: C 2/C
;
_chemical_formula_sum "Si O2"
_cell_formula_units_Z 52
_cell_length_a 28.337313
_cell_length_b 19.904582
_cell_length_c 15.234529
_cell_angle_alpha 90.000000
_cell_angle_beta 18.819140
_cell_angle_gamma 90.000000
_cell_volume 2771.920506
_symmetry_space_group_name_H-M "C 2/C"
_symmetry_group_IT_number 15
_symmetry_cell_setting 'monoclinic'
loop_
_space_group_symop_operation_xyz
x,y,z
-x,y,1/2-z
-x,-y,-z
x,-y,1/2+z
1/2+x,1/2+y,z
1/2-x,1/2+y,1/2-z
1/2-x,1/2-y,-z
1/2+x,1/2-y,1/2+z
loop_
_atom_site_type_symbol
_atom_site_label
_atom_site_fract_x
_atom_site_fract_y
_atom_site_fract_z
Si Si1 0.845553 0.595860 0.142313
Si Si2 0.152344 0.035279 0.630228
Si Si3 0.141406 0.455589 0.448481
Si Si4 0.500000 0.206413 0.750000
Si Si5 0.664242 0.301767 0.589760
Si Si6 0.619478 0.925502 0.286662
Si Si7 0.430136 0.414916 0.033705
O O1 0.705449 0.582042 0.454848
O O2 0.832781 0.535967 0.093307
O O3 0.897913 0.660714 0.994210
O O4 0.980044 0.587987 0.973428
O O5 0.107064 0.073612 0.798164
O O6 0.287109 0.986327 0.418647
O O7 0.027075 0.979413 0.830622
O O8 0.097396 0.446505 0.425316
O O9 0.284659 0.417365 0.230407
O O10 0.000000 0.434623 0.750000
O O11 0.610141 0.255450 0.606436
O O12 0.750000 0.250000 0.500000
O O13 0.782786 0.360090 0.372349
O O14 0.521341 0.345976 0.867608
#
# Coordination Sequence:
#
# PCOD9272791 Si02
#       7
#     8   8   8   4   8   8   8
#     4  11  21  35  59  93 124 162 203 261 313 376
#     4   9  20  36  61  93 125 149 199 270 335 360
#     4  11  20  34  62  95 126 153 200 264 333 377
#     4  12  24  38  62  88 126 178 224 246 304 378
#     4  11  23  42  62  84 123 176 217 252 294 382
#     4  10  20  37  60  88 122 159 207 259 317 370
#     4  10  21  38  63  94 124 163 205 264 324 378
#
# _framework density 18.759557000000001
#
# number of rings (size 3 to 8) (size 9 to 14) (size 15 to 20)
#    0.000    1.538    2.308    4.615    0.000    6.154 
#    0.000    0.769    3.385    0.000    0.000    0.000 
#    0.000    0.000    0.000    0.000    0.000    0.000 
#
# Total GULP energy -144739.358183 kJ/mol
# GULP energy per Si atom -5566.898392 kJ/mol
# Density = 1.871686 g / cm^3
# Si number density = 18.759557 Si / 1000 Ang^3
#
#
#
# Elastic Constant Matrix: (Units=GPa)
#
#
# Indices 1 2 3 4 5 6 
#
# 1 78.1167 51.7853 52.2191 0.0011 -18.9123 -0.0005
# 2 51.7853 119.7893 49.2005 0.0019 6.0070 -0.0002
# 3 52.2191 49.2005 111.6310 0.0013 0.0760 -0.0003
# 4 0.0011 0.0019 0.0013 8.6170 -0.0011 -4.0749
# 5 -18.9123 6.0070 0.0760 -0.0011 32.8849 0.0005
# 6 -0.0005 -0.0002 -0.0003 -4.0749 0.0005 32.5189
#
#
#
# Elastic Compliance Matrix: (Units=1/GPa)
#
#
# Indices 1 2 3 4 5 6 
#
# 1 0.031175 -0.010351 -0.010035 0.000003 0.019843 0.000000
# 2 -0.010351 0.013744 -0.001210 -0.000003 -0.008460 0.000000
# 3 -0.010035 -0.001210 0.014189 -0.000001 -0.005583 0.000000
# 4 0.000003 -0.000003 -0.000001 0.123360 0.000006 0.015458
# 5 0.019843 -0.008460 -0.005583 0.000006 0.043379 0.000000
# 6 0.000000 0.000000 0.000000 0.015458 0.000000 0.032688
#
#
# Mechanical properties :
#
#
# Convention : Reuss Voigt Hill
#
# Bulk Modulus (GPa) = 62.82348 68.43852 65.63100
# Shear Modulus (GPa) = 16.28499 25.22632 20.75565
#
# Velocity S-wave (km/s) = 2.94953 3.67102 3.32987
# Velocity P-wave (km/s) = 6.72020 7.38442 7.06013
#
# Compressibility (1/GPa) = 0.01591762
#
# Stress axis : x y z
#
# Youngs Moduli (GPa) = 32.07721 72.76042 70.47636
#
# Poissons Ratio (x) = 0.75311 0.70720
# Poissons Ratio (y) = 0.33202 0.08527
# Poissons Ratio (z) = 0.32188 0.08803
#
# Static dielectric constant tensor:
#      x y z
#    x 1.988370 0.000010 0.142000 
#    y 0.000010 1.838780 0.000000 
#    z 0.142000 0.000000 1.720810 
# 
# From -- ./inp_files/136144.got.cif
#   From: 2010.05.17/outbox.cif.g08.bks.cpg/sg15_69_cif.got.tgz:136144.got - 2010.06.03 18:47:42.
