data_PCOD9272420
_publ_section_title
;
Structure prediction by ZEFSAII (Michael W. Deem and Ramdas Pophale) SiO2 
 PCOD9272420
Probable space group: C 2/C
;
_chemical_formula_sum "Si O2"
_cell_formula_units_Z 48
_cell_length_a 11.090797
_cell_length_b 24.465255
_cell_length_c 12.397326
_cell_angle_alpha 90.000000
_cell_angle_beta 126.360971
_cell_angle_gamma 90.000000
_cell_volume 2708.925478
_symmetry_space_group_name_H-M "C 2/C"
_symmetry_group_IT_number 15
_symmetry_cell_setting 'monoclinic'
loop_
_space_group_symop_operation_xyz
x,y,z
-x,y,1/2-z
-x,-y,-z
x,-y,1/2+z
1/2+x,1/2+y,z
1/2-x,1/2+y,1/2-z
1/2-x,1/2-y,-z
1/2+x,1/2-y,1/2+z
loop_
_atom_site_type_symbol
_atom_site_label
_atom_site_fract_x
_atom_site_fract_y
_atom_site_fract_z
Si Si1 0.941594 0.790097 0.339657
Si Si2 0.500000 0.513451 0.750000
Si Si3 0.711297 0.420862 0.935209
Si Si4 0.030594 0.382377 0.138247
Si Si5 0.104761 0.258473 0.122770
Si Si6 0.143911 0.087821 0.651165
Si Si7 0.500000 0.324171 0.750000
O O1 0.780655 0.760545 0.244666
O O2 0.912725 0.849948 0.373288
O O3 0.000000 0.796488 0.250000
O O4 0.059029 0.759690 0.478728
O O5 0.640176 0.472953 0.839736
O O6 0.534642 0.550345 0.663850
O O7 0.635255 0.365388 0.850006
O O8 0.665985 0.426750 0.037516
O O9 0.888486 0.413888 0.015944
O O10 0.043428 0.319902 0.106321
O O11 0.190613 0.411032 0.207505
O O12 0.000000 0.379345 0.250000
O O13 0.030953 0.215552 0.165958
#
# Coordination Sequence:
#
# PCOD9272420 Si02
#       7
#     8   4   8   8   8   8   4
#     4  11  22  37  55  81 116 156 186 218 268 339
#     4  11  22  36  58  76 102 146 184 229 278 318
#     4  10  21  36  54  82 110 135 181 232 276 323
#     4   9  19  34  56  83 110 138 175 223 277 330
#     4  11  21  34  59  85 118 148 179 225 277 331
#     4  10  20  37  56  77 105 145 185 224 272 327
#     4  11  20  32  58  90 112 140 178 227 280 326
#
# _framework density 17.719203
#
# number of rings (size 3 to 8) (size 9 to 14) (size 15 to 20)
#    0.000    1.667    3.333    2.000    0.000    2.000 
#    0.000    0.000    0.000    0.000    0.000    0.000 
#    0.000    0.000    0.000    0.000    0.000    0.000 
#
# Total GULP energy -133905.961378 kJ/mol
# GULP energy per Si atom -5579.415057 kJ/mol
# Density = 1.767887 g / cm^3
# Si number density = 17.719203 Si / 1000 Ang^3
#
#
#
# Elastic Constant Matrix: (Units=GPa)
#
#
# Indices 1 2 3 4 5 6 
#
# 1 19.0431 1.7513 -12.9350 0.0000 -0.6636 0.0000
# 2 1.7513 44.9467 17.3615 0.0000 12.8688 0.0000
# 3 -12.9350 17.3615 59.0397 0.0000 4.0854 0.0000
# 4 0.0000 0.0000 0.0000 3.9029 0.0000 2.8428
# 5 -0.6636 12.8688 4.0854 0.0000 26.8600 0.0000
# 6 0.0000 0.0000 0.0000 2.8428 0.0000 3.3662
#
#
#
# Elastic Compliance Matrix: (Units=1/GPa)
#
#
# Indices 1 2 3 4 5 6 
#
# 1 0.065144 -0.010232 0.017010 0.000000 0.003925 0.000000
# 2 -0.010232 0.030410 -0.010267 0.000000 -0.013261 0.000000
# 3 0.017010 -0.010267 0.023562 0.000000 0.001755 0.000000
# 4 0.000000 0.000000 0.000000 0.665701 0.000000 -0.562189
# 5 0.003925 -0.013261 0.001755 0.000000 0.043413 0.000000
# 6 0.000000 0.000000 0.000000 -0.562189 0.000000 0.771847
#
#
# Mechanical properties :
#
#
# Convention : Reuss Voigt Hill
#
# Bulk Modulus (GPa) = 8.91762 15.04280 11.98021
# Shear Modulus (GPa) = 3.04056 14.61592 8.82824
#
# Velocity S-wave (km/s) = 1.31137 2.87516 2.23453
# Velocity P-wave (km/s) = 2.70861 4.41928 3.66515
#
# Compressibility (1/GPa) = 0.11213755
#
# Stress axis : x y z
#
# Youngs Moduli (GPa) = 15.35055 32.88416 42.44107
#
# Poissons Ratio (x) = 0.33649 -0.72192
# Poissons Ratio (y) = 0.15707 0.43573
# Poissons Ratio (z) = -0.26111 0.33761
#
# Static dielectric constant tensor:
#      x y z
#    x 1.595760 0.000000 0.025200 
#    y 0.000000 1.573320 0.000000 
#    z 0.025200 0.000000 1.605710 
# 
# From -- ./inp_files/89178.got.cif
#   From: 2010.05.17/outbox.cif.g08.bks.cpg/sg15_45_cif.got.tgz:89178.got - 2010.06.03 18:47:42.
