data_PCOD9272300
_publ_section_title
;
Structure prediction by ZEFSAII (Michael W. Deem and Ramdas Pophale) SiO2 
 PCOD9272300
Probable space group: C 2/C
;
_chemical_formula_sum "Si O2"
_cell_formula_units_Z 44
_cell_length_a 17.214220
_cell_length_b 28.294556
_cell_length_c 8.472973
_cell_angle_alpha 90.000000
_cell_angle_beta 145.674275
_cell_angle_gamma 90.000000
_cell_volume 2327.157414
_symmetry_space_group_name_H-M "C 2/C"
_symmetry_group_IT_number 15
_symmetry_cell_setting 'monoclinic'
loop_
_space_group_symop_operation_xyz
x,y,z
-x,y,1/2-z
-x,-y,-z
x,-y,1/2+z
1/2+x,1/2+y,z
1/2-x,1/2+y,1/2-z
1/2-x,1/2-y,-z
1/2+x,1/2-y,1/2+z
loop_
_atom_site_type_symbol
_atom_site_label
_atom_site_fract_x
_atom_site_fract_y
_atom_site_fract_z
Si Si1 0.645090 0.827276 0.063285
Si Si2 0.500000 0.508631 0.250000
Si Si3 0.380232 0.432915 0.814414
Si Si4 0.833462 0.226212 0.285575
Si Si5 0.551531 0.656279 0.519145
Si Si6 0.846932 0.641156 0.556167
O O1 0.646336 0.770029 0.065859
O O2 0.784061 0.842517 0.207546
O O3 0.655847 0.845032 0.262741
O O4 0.500000 0.843857 0.750000
O O5 0.583833 0.473960 0.504139
O O6 0.602611 0.542337 0.326098
O O7 0.236295 0.407294 0.600505
O O8 0.491891 0.390321 0.003095
O O9 0.975363 0.201804 0.466911
O O10 0.750000 0.250000 0.000000
O O11 0.736827 0.182711 0.174645
O O12 0.500000 0.655318 0.250000
O O13 0.000000 0.638943 0.750000
#
# Coordination Sequence:
#
# PCOD9272300 Si02
#       6
#     8   4   8   8   8   8
#     4  11  23  35  55  87 116 159 202 244 280 327
#     4  10  20  36  68  88 112 132 202 248 286 358
#     4  10  20  39  61  92 109 152 188 243 294 349
#     4   9  19  32  54  78 107 159 198 228 272 331
#     4  11  18  37  61  78 118 154 195 233 286 345
#     4  10  21  38  58  79 120 155 191 233 298 348
#
# _framework density 18.907185999999999
#
# number of rings (size 3 to 8) (size 9 to 14) (size 15 to 20)
#    0.000    1.818    6.364    0.000    5.091    2.182 
#    6.545    0.909    0.000    4.364    0.000    0.000 
#    0.000    0.000    0.000    0.000    0.000    0.000 
#
# Total GULP energy -122760.165958 kJ/mol
# GULP energy per Si atom -5580.007544 kJ/mol
# Density = 1.886415 g / cm^3
# Si number density = 18.907186 Si / 1000 Ang^3
#
#
#
# Elastic Constant Matrix: (Units=GPa)
#
#
# Indices 1 2 3 4 5 6 
#
# 1 76.0972 29.1041 26.1907 0.0000 44.2803 0.0000
# 2 29.1041 82.5770 9.7921 0.0000 18.3367 0.0000
# 3 26.1907 9.7921 75.2276 0.0000 40.7761 0.0000
# 4 0.0000 0.0000 0.0000 14.1442 0.0000 6.9856
# 5 44.2803 18.3367 40.7761 0.0000 41.6832 0.0000
# 6 0.0000 0.0000 0.0000 6.9856 0.0000 16.7571
#
#
#
# Elastic Compliance Matrix: (Units=1/GPa)
#
#
# Indices 1 2 3 4 5 6 
#
# 1 0.049225 -0.003848 0.022969 0.000000 -0.073069 0.000000
# 2 -0.003848 0.014069 0.001378 0.000000 -0.003449 0.000000
# 3 0.022969 0.001378 0.039746 0.000000 -0.063887 0.000000
# 4 0.000000 0.000000 0.000000 0.089031 0.000000 -0.037114
# 5 -0.073069 -0.003449 -0.063887 0.000000 0.165626 0.000000
# 6 0.000000 0.000000 0.000000 -0.037114 0.000000 0.075148
#
#
# Mechanical properties :
#
#
# Convention : Reuss Voigt Hill
#
# Bulk Modulus (GPa) = 6.94260 40.45282 23.69771
# Shear Modulus (GPa) = 11.36726 25.77123 18.56925
#
# Velocity S-wave (km/s) = 2.45463 3.69594 3.13729
# Velocity P-wave (km/s) = 3.42250 6.29724 5.06797
#
# Compressibility (1/GPa) = 0.14403829
#
# Stress axis : x y z
#
# Youngs Moduli (GPa) = 20.31470 71.08027 25.15966
#
# Poissons Ratio (x) = 0.27350 -0.57789
# Poissons Ratio (y) = 0.07817 -0.03467
# Poissons Ratio (z) = -0.46660 -0.09795
#
# Static dielectric constant tensor:
#      x y z
#    x 1.674280 0.000000 -0.038130 
#    y 0.000000 1.646220 0.000000 
#    z -0.038130 0.000000 1.646760 
# 
# From -- ./inp_files/52701.got.cif
#   From: 2010.05.17/outbox.cif.g08.bks.cpg/sg15_27_cif.got.tgz:52701.got - 2010.06.03 18:47:42.
