data_PCOD9272518
_publ_section_title
;
Structure prediction by ZEFSAII (Michael W. Deem and Ramdas Pophale) SiO2 
 PCOD9272518
Probable space group: C 2/C
;
_chemical_formula_sum "Si O2"
_cell_formula_units_Z 44
_cell_length_a 5.101889
_cell_length_b 24.360242
_cell_length_c 13.795758
_cell_angle_alpha 90.000000
_cell_angle_beta 104.280178
_cell_angle_gamma 90.000000
_cell_volume 1661.603006
_symmetry_space_group_name_H-M "C 2/C"
_symmetry_group_IT_number 15
_symmetry_cell_setting 'monoclinic'
loop_
_space_group_symop_operation_xyz
x,y,z
-x,y,1/2-z
-x,-y,-z
x,-y,1/2+z
1/2+x,1/2+y,z
1/2-x,1/2+y,1/2-z
1/2-x,1/2-y,-z
1/2+x,1/2-y,1/2+z
loop_
_atom_site_type_symbol
_atom_site_label
_atom_site_fract_x
_atom_site_fract_y
_atom_site_fract_z
Si Si1 0.395773 0.158907 0.509845
Si Si2 0.500000 0.331539 0.250000
Si Si3 0.472372 0.258095 0.406608
Si Si4 0.423376 0.397378 0.882395
Si Si5 0.000000 0.195904 0.250000
Si Si6 0.000000 0.990229 0.750000
Si Si7 0.159790 0.086093 0.896817
O O1 0.581461 0.204492 0.471931
O O2 0.163849 0.197024 0.535027
O O3 0.245357 0.117284 0.422576
O O4 0.569628 0.121156 0.596305
O O5 0.635529 0.287492 0.335461
O O6 0.576264 0.377159 0.175537
O O7 0.210778 0.232325 0.328058
O O8 0.341932 0.343760 0.812374
O O9 0.349247 0.448727 0.808720
O O10 0.356587 0.412256 0.988060
O O11 0.840181 0.029217 0.660045
#
# Coordination Sequence:
#
# PCOD9272518 Si02
#       7
#     8   4   8   8   4   4   8
#     4  10  22  39  63  89 127 160 202 243 302 358
#     4  11  22  35  60  92 124 159 200 235 304 362
#     4  10  20  37  57  96 129 163 194 243 292 367
#     4  10  21  44  61  86 123 157 205 261 301 362
#     4   9  20  35  60  86 126 165 192 243 302 354
#     4  10  24  44  64  86 120 158 206 270 322 338
#     4  11  23  40  63  90 115 164 204 254 304 368
#
# _framework density 26.480453000000001
#
# number of rings (size 3 to 8) (size 9 to 14) (size 15 to 20)
#    0.000    1.818    1.818    1.636    2.545    1.455 
#    0.000    1.818    0.000    0.000    0.000    0.000 
#    0.000    0.000    0.000    0.000    0.000    0.000 
#
# Total GULP energy -122504.970567 kJ/mol
# GULP energy per Si atom -5568.407753 kJ/mol
# Density = 2.642018 g / cm^3
# Si number density = 26.480453 Si / 1000 Ang^3
#
#
#
# Elastic Constant Matrix: (Units=GPa)
#
#
# Indices 1 2 3 4 5 6 
#
# 1 50.6697 24.4319 31.0647 0.0000 -16.8470 0.0000
# 2 24.4319 136.5811 63.8191 0.0000 -9.1608 0.0000
# 3 31.0647 63.8191 215.4763 0.0000 -22.7865 0.0000
# 4 0.0000 0.0000 0.0000 88.2699 0.0000 3.5117
# 5 -16.8470 -9.1608 -22.7865 0.0000 41.7523 0.0000
# 6 0.0000 0.0000 0.0000 3.5117 0.0000 8.8398
#
#
#
# Elastic Compliance Matrix: (Units=1/GPa)
#
#
# Indices 1 2 3 4 5 6 
#
# 1 0.025156 -0.003082 -0.001817 0.000000 0.008483 0.000000
# 2 -0.003082 0.008886 -0.002242 0.000000 -0.000518 0.000000
# 3 -0.001817 -0.002242 0.005770 0.000000 0.001924 0.000000
# 4 0.000000 0.000000 0.000000 0.011511 0.000000 -0.004573
# 5 0.008483 -0.000518 0.001924 0.000000 0.028310 0.000000
# 6 0.000000 0.000000 0.000000 -0.004573 0.000000 0.114942
#
#
# Mechanical properties :
#
#
# Convention : Reuss Voigt Hill
#
# Bulk Modulus (GPa) = 39.16942 71.26205 55.21573
# Shear Modulus (GPa) = 23.00256 46.66651 34.83453
#
# Velocity S-wave (km/s) = 2.95050 4.20253 3.63089
# Velocity P-wave (km/s) = 5.14113 7.10760 6.20279
#
# Compressibility (1/GPa) = 0.02553012
#
# Stress axis : x y z
#
# Youngs Moduli (GPa) = 39.75197 112.53696 173.29887
#
# Poissons Ratio (x) = 0.34685 0.31485
# Poissons Ratio (y) = 0.12252 0.38857
# Poissons Ratio (z) = 0.07222 0.25233
#
# Static dielectric constant tensor:
#      x y z
#    x 2.175830 0.000000 -0.012670 
#    y 0.000000 2.068860 0.000000 
#    z -0.012670 0.000000 2.202350 
# 
# From -- ./inp_files/129417.got.cif
#   From: 2010.05.17/outbox.cif.g08.bks.cpg/sg15_65_cif.got.tgz:129417.got - 2010.06.03 18:47:42.
