data_PCOD9272493
_publ_section_title
;
Structure prediction by ZEFSAII (Michael W. Deem and Ramdas Pophale) SiO2 
 PCOD9272493
Probable space group: C 2/C
;
_chemical_formula_sum "Si O2"
_cell_formula_units_Z 64
_cell_length_a 28.788129
_cell_length_b 12.387386
_cell_length_c 14.432248
_cell_angle_alpha 90.000000
_cell_angle_beta 39.652385
_cell_angle_gamma 90.000000
_cell_volume 3284.241077
_symmetry_space_group_name_H-M "C 2/C"
_symmetry_group_IT_number 15
_symmetry_cell_setting 'monoclinic'
loop_
_space_group_symop_operation_xyz
x,y,z
-x,y,1/2-z
-x,-y,-z
x,-y,1/2+z
1/2+x,1/2+y,z
1/2-x,1/2+y,1/2-z
1/2-x,1/2-y,-z
1/2+x,1/2-y,1/2+z
loop_
_atom_site_type_symbol
_atom_site_label
_atom_site_fract_x
_atom_site_fract_y
_atom_site_fract_z
Si Si1 0.654186 0.551884 0.273888
Si Si2 0.339478 0.830156 0.642949
Si Si3 0.914171 0.948673 0.804271
Si Si4 0.677509 0.745474 0.356781
Si Si5 0.567907 0.379039 0.517075
Si Si6 0.572909 0.693352 0.683352
Si Si7 0.320362 0.830394 0.879515
Si Si8 0.686934 0.030188 0.925294
O O1 0.651822 0.551368 0.166440
O O2 0.647231 0.674936 0.318983
O O3 0.592651 0.471656 0.407488
O O4 0.728297 0.504171 0.203264
O O5 0.263538 0.774249 0.730805
O O6 0.399224 0.736898 0.556591
O O7 0.323358 0.874510 0.771030
O O8 0.354890 0.924174 0.545292
O O9 0.900652 0.911888 0.929654
O O10 0.980975 0.879627 0.661120
O O11 0.942300 0.071424 0.765036
O O12 0.636103 0.694522 0.508871
O O13 0.668247 0.873104 0.383141
O O14 0.500000 0.740826 0.750000
O O15 0.607698 0.758633 0.713697
O O16 0.250000 0.750000 0.000000
O O17 0.323134 0.919030 0.956859
#
# Coordination Sequence:
#
# PCOD9272493 Si02
#       8
#     8   8   8   8   8   8   8   8
#     4  11  20  34  61  89 120 161 200 256 316 370
#     4  11  22  39  62  85 124 172 204 259 306 375
#     4  11  22  35  59  93 126 160 194 256 326 384
#     4  10  20  37  57  85 123 155 209 256 302 359
#     4  11  21  39  57  90 127 159 200 254 320 371
#     4  11  19  34  60  94 126 153 202 266 315 361
#     4  11  20  39  64  92 122 171 216 257 311 382
#     4  10  22  37  58  90 122 157 213 263 307 360
#
# _framework density 19.486999000000001
#
# number of rings (size 3 to 8) (size 9 to 14) (size 15 to 20)
#    0.000    1.250    6.250    1.875    0.000    1.000 
#    2.250    1.250   11.000    3.750    0.000    0.000 
#    0.000    0.000    0.000    0.000    0.000    0.000 
#
# Total GULP energy -178451.256536 kJ/mol
# GULP energy per Si atom -5576.601767 kJ/mol
# Density = 1.944265 g / cm^3
# Si number density = 19.486999 Si / 1000 Ang^3
#
#
#
# Elastic Constant Matrix: (Units=GPa)
#
#
# Indices 1 2 3 4 5 6 
#
# 1 73.4074 19.6591 3.4871 0.0000 7.7480 0.0000
# 2 19.6591 72.1410 22.6455 0.0000 -6.6501 0.0000
# 3 3.4871 22.6455 41.6659 0.0000 2.3248 0.0000
# 4 0.0000 0.0000 0.0000 21.1294 0.0000 4.0741
# 5 7.7480 -6.6501 2.3248 0.0000 28.2981 0.0000
# 6 0.0000 0.0000 0.0000 4.0741 0.0000 18.8780
#
#
#
# Elastic Compliance Matrix: (Units=1/GPa)
#
#
# Indices 1 2 3 4 5 6 
#
# 1 0.015570 -0.005375 0.001935 0.000000 -0.005685 0.000000
# 2 -0.005375 0.019213 -0.010374 0.000000 0.006839 0.000000
# 3 0.001935 -0.010374 0.029779 0.000000 -0.005414 0.000000
# 4 0.000000 0.000000 0.000000 0.049382 0.000000 -0.010657
# 5 -0.005685 0.006839 -0.005414 0.000000 0.038947 0.000000
# 6 0.000000 0.000000 0.000000 -0.010657 0.000000 0.055272
#
#
# Mechanical properties :
#
#
# Convention : Reuss Voigt Hill
#
# Bulk Modulus (GPa) = 27.07442 30.97751 29.02597
# Shear Modulus (GPa) = 20.15300 23.08927 21.62113
#
# Velocity S-wave (km/s) = 3.21935 3.44591 3.33455
# Velocity P-wave (km/s) = 5.26713 5.63590 5.45463
#
# Compressibility (1/GPa) = 0.03693523
#
# Stress axis : x y z
#
# Youngs Moduli (GPa) = 64.22579 52.04725 33.58068
#
# Poissons Ratio (x) = 0.27973 -0.06498
# Poissons Ratio (y) = 0.34518 0.34837
# Poissons Ratio (z) = -0.12429 0.53995
#
# Static dielectric constant tensor:
#      x y z
#    x 1.701340 0.000000 0.014630 
#    y 0.000000 1.696020 0.000000 
#    z 0.014630 0.000000 1.691910 
# 
# From -- ./inp_files/181754.got.cif
#   From: 2010.05.17/outbox.cif.g08.bks.cpg/sg15_91_cif.got.tgz:181754.got - 2010.06.03 18:47:42.
