data_PCOD9272805
_publ_section_title
;
Structure prediction by ZEFSAII (Michael W. Deem and Ramdas Pophale) SiO2 
 PCOD9272805
Probable space group: C 2/C
;
_chemical_formula_sum "Si O2"
_cell_formula_units_Z 44
_cell_length_a 19.359117
_cell_length_b 8.766603
_cell_length_c 13.880336
_cell_angle_alpha 90.000000
_cell_angle_beta 80.328110
_cell_angle_gamma 90.000000
_cell_volume 2322.199437
_symmetry_space_group_name_H-M "C 2/C"
_symmetry_group_IT_number 15
_symmetry_cell_setting 'monoclinic'
loop_
_space_group_symop_operation_xyz
x,y,z
-x,y,1/2-z
-x,-y,-z
x,-y,1/2+z
1/2+x,1/2+y,z
1/2-x,1/2+y,1/2-z
1/2-x,1/2-y,-z
1/2+x,1/2-y,1/2+z
loop_
_atom_site_type_symbol
_atom_site_label
_atom_site_fract_x
_atom_site_fract_y
_atom_site_fract_z
Si Si1 0.812864 0.829542 0.432529
Si Si2 0.226707 0.604764 0.383096
Si Si3 0.000000 0.189776 0.750000
Si Si4 0.937888 0.989479 0.937520
Si Si5 0.146810 0.313816 0.096405
Si Si6 0.877941 0.595783 0.269457
O O1 0.750000 0.750000 0.500000
O O2 0.849597 0.702949 0.360734
O O3 0.777923 0.960404 0.376634
O O4 0.869571 0.913834 0.486460
O O5 0.176744 0.614192 0.489551
O O6 0.281637 0.745025 0.373514
O O7 0.178607 0.591743 0.301594
O O8 0.944833 0.308772 0.716424
O O9 0.965012 0.078390 0.836359
O O10 0.907437 0.822063 0.918564
O O11 0.000000 0.000000 0.000000
O O12 0.113072 0.433153 0.179539
#
# Coordination Sequence:
#
# PCOD9272805 Si02
#       6
#     8   8   4   8   8   8
#     4  10  20  39  59  89 122 150 198 254 299 362
#     4  10  20  37  60  89 121 152 191 251 303 348
#     4  10  24  42  56  84 126 154 202 248 288 374
#     4  10  22  43  61  83 120 165 196 246 311 358
#     4  10  21  37  61  90 118 151 208 244 288 372
#     4  11  21  39  60  87 120 158 197 245 305 350
#
# _framework density 18.947555000000001
#
# number of rings (size 3 to 8) (size 9 to 14) (size 15 to 20)
#    0.000    1.818    1.818    2.182    0.000    0.727 
#   16.364    2.727    0.000    0.000    0.000    0.000 
#    0.000    0.000    0.000    0.000    0.000    0.000 
#
# Total GULP energy -122598.309536 kJ/mol
# GULP energy per Si atom -5572.650433 kJ/mol
# Density = 1.890443 g / cm^3
# Si number density = 18.947555 Si / 1000 Ang^3
#
#
#
# Elastic Constant Matrix: (Units=GPa)
#
#
# Indices 1 2 3 4 5 6 
#
# 1 109.7584 39.8157 13.7361 0.0000 29.6267 0.0000
# 2 39.8157 100.5213 27.4872 0.0000 10.8281 0.0000
# 3 13.7361 27.4872 26.8269 0.0000 15.0395 0.0000
# 4 0.0000 0.0000 0.0000 8.5669 0.0000 3.9515
# 5 29.6267 10.8281 15.0395 0.0000 39.2348 0.0000
# 6 0.0000 0.0000 0.0000 3.9515 0.0000 10.2701
#
#
#
# Elastic Compliance Matrix: (Units=1/GPa)
#
#
# Indices 1 2 3 4 5 6 
#
# 1 0.013266 -0.005368 0.004449 0.000000 -0.010241 0.000000
# 2 -0.005368 0.016124 -0.017258 0.000000 0.006219 0.000000
# 3 0.004449 -0.017258 0.066099 0.000000 -0.023933 0.000000
# 4 0.000000 0.000000 0.000000 0.141914 0.000000 -0.054602
# 5 -0.010241 0.006219 -0.023933 0.000000 0.040678 0.000000
# 6 0.000000 0.000000 0.000000 -0.054602 0.000000 0.118378
#
#
# Mechanical properties :
#
#
# Convention : Reuss Voigt Hill
#
# Bulk Modulus (GPa) = 16.91106 44.35384 30.63245
# Shear Modulus (GPa) = 11.04911 22.01887 16.53399
#
# Velocity S-wave (km/s) = 2.41745 3.41265 2.95722
# Velocity P-wave (km/s) = 4.09105 6.24402 5.27847
#
# Compressibility (1/GPa) = 0.05913292
#
# Stress axis : x y z
#
# Youngs Moduli (GPa) = 75.38259 62.02076 15.12891
#
# Poissons Ratio (x) = 0.33291 -0.06730
# Poissons Ratio (y) = 0.40464 0.26110
# Poissons Ratio (z) = -0.33536 1.07038
#
# Static dielectric constant tensor:
#      x y z
#    x 1.693450 0.000000 -0.042640 
#    y 0.000000 1.734530 0.000000 
#    z -0.042640 0.000000 1.628530 
# 
# From -- ./inp_files/110050.got.cif
#   From: 2010.05.17/outbox.cif.g08.bks.cpg/sg15_56_cif.got.tgz:110050.got - 2010.06.03 18:47:42.
