data_PCOD9272122
_publ_section_title
;
Structure prediction by ZEFSAII (Michael W. Deem and Ramdas Pophale) SiO2 
 PCOD9272122
Probable space group: C 2/C
;
_chemical_formula_sum "Si O2"
_cell_formula_units_Z 60
_cell_length_a 25.050521
_cell_length_b 7.779000
_cell_length_c 28.026465
_cell_angle_alpha 90.000000
_cell_angle_beta 150.237229
_cell_angle_gamma 90.000000
_cell_volume 2711.124036
_symmetry_space_group_name_H-M "C 2/C"
_symmetry_group_IT_number 15
_symmetry_cell_setting 'monoclinic'
loop_
_space_group_symop_operation_xyz
x,y,z
-x,y,1/2-z
-x,-y,-z
x,-y,1/2+z
1/2+x,1/2+y,z
1/2-x,1/2+y,1/2-z
1/2-x,1/2-y,-z
1/2+x,1/2-y,1/2+z
loop_
_atom_site_type_symbol
_atom_site_label
_atom_site_fract_x
_atom_site_fract_y
_atom_site_fract_z
Si Si1 0.000000 0.990541 0.750000
Si Si2 0.641589 0.668087 0.981904
Si Si3 0.812337 0.717525 0.456332
Si Si4 0.224155 0.321131 0.294378
Si Si5 0.130481 0.430791 0.650403
Si Si6 0.623101 0.880694 0.051249
Si Si7 0.772618 0.968811 0.040197
Si Si8 0.980536 0.105749 0.341211
O O1 0.980907 0.884928 0.783937
O O2 0.111436 0.091171 0.847827
O O3 0.662517 0.715573 0.052802
O O4 0.711635 0.535054 0.004513
O O5 0.521688 0.588599 0.884365
O O6 0.675454 0.843141 0.980120
O O7 0.763453 0.844140 0.379195
O O8 0.825238 0.544974 0.434492
O O9 0.744997 0.651425 0.448994
O O10 0.927795 0.777871 0.563831
O O11 0.181053 0.495864 0.237712
O O12 0.129944 0.177025 0.224229
O O13 0.314527 0.234928 0.330865
O O14 0.142499 0.589670 0.621881
O O15 0.004395 0.393970 0.556473
#
# Coordination Sequence:
#
# PCOD9272122 Si02
#       8
#     4   8   8   8   8   8   8   8
#     4  10  20  36  64  90 120 156 200 240 312 370
#     4   9  20  34  61  85 115 154 203 241 300 355
#     4  10  20  39  65  83 125 157 201 247 310 364
#     4  11  23  40  60  94 118 163 206 258 304 366
#     4  10  22  38  62  86 124 160 208 250 309 354
#     4   9  19  40  60  84 116 168 194 248 310 355
#     4   9  18  38  59  88 117 161 196 243 303 369
#     4  11  22  39  62  92 120 162 202 255 297 375
#
# _framework density 22.131041
#
# number of rings (size 3 to 8) (size 9 to 14) (size 15 to 20)
#    0.000    2.133    2.667    0.000    1.867    3.200 
#    0.000    4.000    0.000    3.200    0.000    0.000 
#    0.000    0.000    0.000    0.000    0.000    0.000 
#
# Total GULP energy -167169.650626 kJ/mol
# GULP energy per Si atom -5572.321688 kJ/mol
# Density = 2.208067 g / cm^3
# Si number density = 22.131041 Si / 1000 Ang^3
#
#
#
# Elastic Constant Matrix: (Units=GPa)
#
#
# Indices 1 2 3 4 5 6 
#
# 1 72.6041 14.9580 10.0526 0.0000 -20.0911 -0.0002
# 2 14.9580 56.1153 19.8849 0.0000 -12.1723 0.0003
# 3 10.0526 19.8849 81.2181 0.0000 -19.5532 -0.0002
# 4 0.0000 0.0000 0.0000 26.2365 0.0000 -6.7418
# 5 -20.0911 -12.1723 -19.5532 0.0000 36.5190 -0.0001
# 6 -0.0002 0.0003 -0.0002 -6.7418 -0.0001 26.0540
#
#
#
# Elastic Compliance Matrix: (Units=1/GPa)
#
#
# Indices 1 2 3 4 5 6 
#
# 1 0.016633 -0.002819 0.000698 0.000000 0.008585 0.000000
# 2 -0.002819 0.020667 -0.003933 0.000000 0.003232 0.000000
# 3 0.000698 -0.003933 0.014885 0.000000 0.007043 0.000000
# 4 0.000000 0.000000 0.000000 0.040830 0.000000 0.010565
# 5 0.008585 0.003232 0.007043 0.000000 0.036954 0.000000
# 6 0.000000 0.000000 0.000000 0.010565 0.000000 0.041116
#
#
# Mechanical properties :
#
#
# Convention : Reuss Voigt Hill
#
# Bulk Modulus (GPa) = 24.95186 33.30316 29.12751
# Shear Modulus (GPa) = 25.43885 28.76471 27.10178
#
# Velocity S-wave (km/s) = 3.39405 3.60911 3.50323
# Velocity P-wave (km/s) = 5.16319 5.69635 5.43631
#
# Compressibility (1/GPa) = 0.04007717
#
# Stress axis : x y z
#
# Youngs Moduli (GPa) = 60.12125 48.38737 67.18371
#
# Poissons Ratio (x) = 0.13640 -0.04691
# Poissons Ratio (y) = 0.16948 0.26423
# Poissons Ratio (z) = -0.04198 0.19030
#
# Static dielectric constant tensor:
#      x y z
#    x 1.856570 0.000000 -0.005280 
#    y 0.000000 1.858260 0.000000 
#    z -0.005280 0.000000 1.803160 
# 
# From -- ./inp_files/319444.got.cif
#   From: 2010.05.17/outbox.cif.g08.bks.cpg/sg15_160_cif.got.tgz:319444.got - 2010.06.03 18:47:42.
