data_PCOD9272039
_publ_section_title
;
Structure prediction by ZEFSAII (Michael W. Deem and Ramdas Pophale) SiO2 
 PCOD9272039
Probable space group: C 2/C
;
_chemical_formula_sum "Si O2"
_cell_formula_units_Z 64
_cell_length_a 7.709240
_cell_length_b 27.003493
_cell_length_c 12.796648
_cell_angle_alpha 90.000000
_cell_angle_beta 89.514969
_cell_angle_gamma 90.000000
_cell_volume 2663.864767
_symmetry_space_group_name_H-M "C 2/C"
_symmetry_group_IT_number 15
_symmetry_cell_setting 'monoclinic'
loop_
_space_group_symop_operation_xyz
x,y,z
-x,y,1/2-z
-x,-y,-z
x,-y,1/2+z
1/2+x,1/2+y,z
1/2-x,1/2+y,1/2-z
1/2-x,1/2-y,-z
1/2+x,1/2-y,1/2+z
loop_
_atom_site_type_symbol
_atom_site_label
_atom_site_fract_x
_atom_site_fract_y
_atom_site_fract_z
Si Si1 0.785027 0.052615 0.995212
Si Si2 0.252075 0.860438 0.447048
Si Si3 0.805101 0.191557 0.757811
Si Si4 0.682219 0.293348 0.790025
Si Si5 0.165132 0.616674 0.326384
Si Si6 0.674742 0.997607 0.814600
Si Si7 0.841930 0.836680 0.488365
Si Si8 0.354103 0.535920 0.629370
O O1 0.765405 0.109716 0.017493
O O2 0.967803 0.045211 0.933894
O O3 0.645932 0.027515 0.920920
O O4 0.793660 0.018647 0.095462
O O5 0.296935 0.828962 0.342602
O O6 0.354652 0.860588 0.556508
O O7 0.253962 0.916949 0.407981
O O8 0.052120 0.843801 0.475665
O O9 0.812000 0.250817 0.752770
O O10 0.757782 0.178217 0.877609
O O11 0.000000 0.169532 0.750000
O O12 0.500000 0.273264 0.750000
O O13 0.707297 0.345841 0.733314
O O14 0.689482 0.300861 0.914119
O O15 0.227523 0.559479 0.336458
O O16 0.000000 0.616187 0.250000
O O17 0.500000 0.997441 0.750000
O O18 0.818370 0.029755 0.751798
#
# Coordination Sequence:
#
# PCOD9272039 Si02
#       8
#     8   8   8   8   8   8   8   8
#     4  10  20  37  63  94 120 169 215 257 319 367
#     4  10  20  43  67  93 129 172 222 258 318 393
#     4  10  23  43  68  92 126 172 211 264 330 394
#     4  12  24  43  68  97 127 158 214 278 332 380
#     4  11  24  43  62  93 133 179 215 260 323 390
#     4  11  23  38  58  91 135 171 214 258 320 381
#     4  10  21  42  68  96 129 163 213 273 325 383
#     4  10  20  36  63  92 123 166 218 263 302 383
#
# _framework density 24.025241999999999
#
# number of rings (size 3 to 8) (size 9 to 14) (size 15 to 20)
#    0.000    1.500    2.500    2.625    0.000    4.000 
#    6.750    1.250    0.000    0.000    0.000    0.000 
#    0.000    0.000    0.000    0.000    0.000    0.000 
#
# Total GULP energy -178671.695872 kJ/mol
# GULP energy per Si atom -5583.490496 kJ/mol
# Density = 2.397056 g / cm^3
# Si number density = 24.025242 Si / 1000 Ang^3
#
#
#
# Elastic Constant Matrix: (Units=GPa)
#
#
# Indices 1 2 3 4 5 6 
#
# 1 58.1029 11.9471 11.7690 0.0000 0.3322 0.0000
# 2 11.9471 88.6634 38.3917 0.0000 6.1638 0.0000
# 3 11.7690 38.3917 170.2774 0.0000 16.1578 0.0000
# 4 0.0000 0.0000 0.0000 17.1250 0.0000 14.1327
# 5 0.3322 6.1638 16.1578 0.0000 24.8592 0.0000
# 6 0.0000 0.0000 0.0000 14.1327 0.0000 2.7138
#
#
#
# Elastic Compliance Matrix: (Units=1/GPa)
#
#
# Indices 1 2 3 4 5 6 
#
# 1 0.017806 -0.002094 -0.000837 0.000000 0.000825 0.000000
# 2 -0.002094 0.012788 -0.002601 0.000000 -0.001452 0.000000
# 3 -0.000837 -0.002601 0.006879 0.000000 -0.003815 0.000000
# 4 0.000000 0.000000 0.000000 -0.017708 0.000000 0.092215
# 5 0.000825 -0.001452 -0.003815 0.000000 0.043055 0.000000
# 6 0.000000 0.000000 0.000000 0.092215 0.000000 -0.111740
#
#
# Mechanical properties :
#
#
# Convention : Reuss Voigt Hill
#
# Bulk Modulus (GPa) = 37.86519 49.02883 43.44701
# Shear Modulus (GPa) = -172.10550 25.93534 -73.08508
#
# Velocity S-wave (km/s) = -8.47294 3.28914 -5.52143
# Velocity P-wave (km/s) = 8.94015 5.90560 4.74606
#
# Compressibility (1/GPa) = 0.02640948
#
# Stress axis : x y z
#
# Youngs Moduli (GPa) = 56.16004 78.19899 145.37020
#
# Poissons Ratio (x) = 0.16378 0.12165
# Poissons Ratio (y) = 0.11762 0.37806
# Poissons Ratio (z) = 0.04700 0.20337
#
# Static dielectric constant tensor:
#      x y z
#    x 1.994400 0.000000 0.037400 
#    y 0.000000 1.861940 0.000000 
#    z 0.037400 0.000000 1.927870 
# 
# From -- ./inp_files/82607.got.cif
#   From: 2010.05.17/outbox.cif.g08.bks.cpg/sg15_42_cif.got.tgz:82607.got - 2010.06.03 18:47:42.
