data_PCOD9272229
_publ_section_title
;
Structure prediction by ZEFSAII (Michael W. Deem and Ramdas Pophale) SiO2 
 PCOD9272229
Probable space group: C 2/C
;
_chemical_formula_sum "Si O2"
_cell_formula_units_Z 56
_cell_length_a 7.978799
_cell_length_b 12.210433
_cell_length_c 25.295798
_cell_angle_alpha 90.000000
_cell_angle_beta 77.295817
_cell_angle_gamma 90.000000
_cell_volume 2404.099731
_symmetry_space_group_name_H-M "C 2/C"
_symmetry_group_IT_number 15
_symmetry_cell_setting 'monoclinic'
loop_
_space_group_symop_operation_xyz
x,y,z
-x,y,1/2-z
-x,-y,-z
x,-y,1/2+z
1/2+x,1/2+y,z
1/2-x,1/2+y,1/2-z
1/2-x,1/2-y,-z
1/2+x,1/2-y,1/2+z
loop_
_atom_site_type_symbol
_atom_site_label
_atom_site_fract_x
_atom_site_fract_y
_atom_site_fract_z
Si Si1 0.630730 0.145054 0.997981
Si Si2 0.521743 0.703416 0.072423
Si Si3 0.886588 0.986089 0.308438
Si Si4 0.098259 0.728651 0.409003
Si Si5 0.275885 0.267758 0.796941
Si Si6 0.448447 0.536431 0.927750
Si Si7 0.882687 0.692130 0.681747
O O1 0.492231 0.195934 0.967079
O O2 0.753936 0.055748 0.963243
O O3 0.750000 0.250000 0.000000
O O4 0.529828 0.135748 0.060025
O O5 0.712349 0.700758 0.083270
O O6 0.483997 0.580103 0.055214
O O7 0.391440 0.736890 0.128117
O O8 0.854532 0.113175 0.300751
O O9 0.000000 0.947776 0.250000
O O10 0.956833 0.974212 0.363155
O O11 0.706421 0.922780 0.321656
O O12 0.108837 0.737090 0.344858
O O13 0.048410 0.850550 0.432356
O O14 0.270278 0.247862 0.735466
O O15 0.421461 0.185610 0.810366
#
# Coordination Sequence:
#
# PCOD9272229 Si02
#       7
#     8   8   8   8   8   8   8
#     4  10  23  41  62  93 128 162 215 260 302 368
#     4  11  21  42  64  89 126 165 207 256 315 363
#     4  12  20  37  68  88 119 167 198 249 319 363
#     4  10  22  39  63  90 125 167 206 257 301 372
#     4  10  20  41  59  92 125 158 205 249 310 367
#     4  11  22  40  64  91 123 166 206 254 314 359
#     4  10  20  36  66  88 121 160 199 255 303 375
#
# _framework density 23.293541999999999
#
# number of rings (size 3 to 8) (size 9 to 14) (size 15 to 20)
#    0.000    1.429    5.714    1.286    0.000    2.857 
#    0.000    8.571    9.429    0.000    0.000    0.000 
#    0.000    0.000    0.000    0.000    0.000    0.000 
#
# Total GULP energy -156304.364358 kJ/mol
# GULP energy per Si atom -5582.298727 kJ/mol
# Density = 2.324053 g / cm^3
# Si number density = 23.293542 Si / 1000 Ang^3
#
#
#
# Elastic Constant Matrix: (Units=GPa)
#
#
# Indices 1 2 3 4 5 6 
#
# 1 23.4151 14.7475 2.2358 0.0000 -11.7224 0.0000
# 2 14.7475 61.5248 6.5276 0.0000 -6.5234 0.0000
# 3 2.2358 6.5276 167.3829 0.0000 -20.8169 0.0000
# 4 0.0000 0.0000 0.0000 31.0546 0.0000 -1.8134
# 5 -11.7224 -6.5234 -20.8169 0.0000 31.5303 0.0000
# 6 0.0000 0.0000 0.0000 -1.8134 0.0000 23.3106
#
#
#
# Elastic Compliance Matrix: (Units=1/GPa)
#
#
# Indices 1 2 3 4 5 6 
#
# 1 0.061340 -0.012649 0.002380 0.000000 0.021760 0.000000
# 2 -0.012649 0.019235 -0.000731 0.000000 -0.001206 0.000000
# 3 0.002380 -0.000731 0.006605 0.000000 0.005094 0.000000
# 4 0.000000 0.000000 0.000000 0.032348 0.000000 0.002517
# 5 0.021760 -0.001206 0.005094 0.000000 0.042919 0.000000
# 6 0.000000 0.000000 0.000000 0.002517 0.000000 0.043095
#
#
# Mechanical properties :
#
#
# Convention : Reuss Voigt Hill
#
# Bulk Modulus (GPa) = 15.34196 33.26052 24.30124
# Shear Modulus (GPa) = 20.05870 32.43322 26.24596
#
# Velocity S-wave (km/s) = 2.93768 3.73550 3.36035
# Velocity P-wave (km/s) = 4.25526 5.73717 5.05086
#
# Compressibility (1/GPa) = 0.06518071
#
# Stress axis : x y z
#
# Youngs Moduli (GPa) = 16.30252 51.98791 151.41004
#
# Poissons Ratio (x) = 0.65758 -0.36037
# Poissons Ratio (y) = 0.20620 0.11070
# Poissons Ratio (z) = -0.03880 0.03801
#
# Static dielectric constant tensor:
#      x y z
#    x 1.911950 0.000000 0.024080 
#    y 0.000000 1.845760 0.000000 
#    z 0.024080 0.000000 2.027800 
# 
# From -- ./inp_files/307410.got.cif
#   From: 2010.05.17/outbox.cif.g08.bks.cpg/sg15_154_cif.got.tgz:307410.got - 2010.06.03 18:47:42.
