data_PCOD9272506
_publ_section_title
;
Structure prediction by ZEFSAII (Michael W. Deem and Ramdas Pophale) SiO2 
 PCOD9272506
Probable space group: C 2/C
;
_chemical_formula_sum "Si O2"
_cell_formula_units_Z 60
_cell_length_a 12.224060
_cell_length_b 17.836605
_cell_length_c 21.223205
_cell_angle_alpha 90.000000
_cell_angle_beta 142.482918
_cell_angle_gamma 90.000000
_cell_volume 2818.087368
_symmetry_space_group_name_H-M "C 2/C"
_symmetry_group_IT_number 15
_symmetry_cell_setting 'monoclinic'
loop_
_space_group_symop_operation_xyz
x,y,z
-x,y,1/2-z
-x,-y,-z
x,-y,1/2+z
1/2+x,1/2+y,z
1/2-x,1/2+y,1/2-z
1/2-x,1/2-y,-z
1/2+x,1/2-y,1/2+z
loop_
_atom_site_type_symbol
_atom_site_label
_atom_site_fract_x
_atom_site_fract_y
_atom_site_fract_z
Si Si1 0.094939 0.708078 0.965464
Si Si2 0.567424 0.245985 0.479025
Si Si3 0.190030 0.620770 0.451167
Si Si4 0.295115 0.078784 0.266578
Si Si5 0.318737 0.402934 0.644908
Si Si6 0.765458 0.748810 0.231655
Si Si7 0.006293 0.966951 0.357320
Si Si8 0.500000 0.337633 0.250000
O O1 0.916652 0.704603 0.841755
O O2 0.250000 0.750000 0.000000
O O3 0.183993 0.634408 0.034725
O O4 0.030453 0.750066 0.999368
O O5 0.720107 0.308747 0.542596
O O6 0.644713 0.162874 0.497456
O O7 0.416882 0.257193 0.355058
O O8 0.343843 0.559148 0.525306
O O9 0.003811 0.585212 0.342644
O O10 0.284912 0.078435 0.338398
O O11 0.219005 0.159901 0.210051
O O12 0.168949 0.007597 0.193422
O O13 0.500000 0.357688 0.750000
O O14 0.403131 0.472395 0.647070
O O15 0.847180 0.779674 0.203703
O O16 0.983171 0.894784 0.301614
#
# Coordination Sequence:
#
# PCOD9272506 Si02
#       8
#     8   8   8   8   8   8   8   4
#     4  12  24  37  65  95 127 183 233 270 335 421
#     4  10  22  41  62  96 135 172 221 289 347 390
#     4  10  20  38  63  92 130 176 212 280 350 402
#     4  10  21  40  61  90 141 186 203 279 370 399
#     4  10  20  37  57  87 139 177 216 275 352 397
#     4  11  24  39  64 100 137 177 228 284 346 408
#     4  11  21  37  61 101 138 169 231 288 338 406
#     4  12  22  36  68 112 128 164 242 298 318 406
#
# _framework density 21.291035999999998
#
# number of rings (size 3 to 8) (size 9 to 14) (size 15 to 20)
#    0.000    1.333    6.000    2.400    3.733    1.600 
#    0.000    0.000    0.000    3.200    3.467    0.000 
#    0.000    0.000    0.000    0.000    0.000    0.000 
#
# Total GULP energy -167124.320801 kJ/mol
# GULP energy per Si atom -5570.810693 kJ/mol
# Density = 2.124258 g / cm^3
# Si number density = 21.291036 Si / 1000 Ang^3
#
#
#
# Elastic Constant Matrix: (Units=GPa)
#
#
# Indices 1 2 3 4 5 6 
#
# 1 95.8628 29.8791 20.9323 0.0000 25.2971 0.0000
# 2 29.8791 83.4064 54.3449 0.0000 18.1569 0.0000
# 3 20.9323 54.3449 101.6404 0.0001 30.1888 -0.0001
# 4 0.0000 0.0000 0.0001 43.9769 0.0000 9.6780
# 5 25.2971 18.1569 30.1888 0.0000 34.5057 0.0000
# 6 0.0000 0.0000 -0.0001 9.6780 0.0000 36.8799
#
#
#
# Elastic Compliance Matrix: (Units=1/GPa)
#
#
# Indices 1 2 3 4 5 6 
#
# 1 0.013918 -0.004413 0.002478 0.000000 -0.010050 0.000000
# 2 -0.004413 0.019853 -0.010220 0.000000 0.001730 0.000000
# 3 0.002478 -0.010220 0.018557 0.000000 -0.012674 0.000000
# 4 0.000000 0.000000 0.000000 0.024133 0.000000 -0.006333
# 5 -0.010050 0.001730 -0.012674 0.000000 0.046527 0.000000
# 6 0.000000 0.000000 0.000000 -0.006333 0.000000 0.028777
#
#
# Mechanical properties :
#
#
# Convention : Reuss Voigt Hill
#
# Bulk Modulus (GPa) = 35.69077 54.58026 45.13551
# Shear Modulus (GPa) = 26.96686 34.78938 30.87812
#
# Velocity S-wave (km/s) = 3.56277 4.04665 3.81240
# Velocity P-wave (km/s) = 5.80725 6.89383 6.37373
#
# Compressibility (1/GPa) = 0.02801845
#
# Stress axis : x y z
#
# Youngs Moduli (GPa) = 71.85027 50.37129 53.88778
#
# Poissons Ratio (x) = 0.22227 -0.13353
# Poissons Ratio (y) = 0.31705 0.55072
# Poissons Ratio (z) = -0.17804 0.51478
#
# Static dielectric constant tensor:
#      x y z
#    x 1.752290 0.000000 0.023650 
#    y 0.000000 1.800640 0.000000 
#    z 0.023650 0.000000 1.929010 
# 
# From -- ./inp_files/239990.got.cif
#   From: 2010.05.17/outbox.cif.g08.bks.cpg/sg15_120_cif.got.tgz:239990.got - 2010.06.03 18:47:42.
