data_PCOD9272757
_publ_section_title
;
Structure prediction by ZEFSAII (Michael W. Deem and Ramdas Pophale) SiO2 
 PCOD9272757
Probable space group: C 2/C
;
_chemical_formula_sum "Si O2"
_cell_formula_units_Z 60
_cell_length_a 15.979420
_cell_length_b 22.255073
_cell_length_c 9.537123
_cell_angle_alpha 90.000000
_cell_angle_beta 124.583292
_cell_angle_gamma 90.000000
_cell_volume 2792.328752
_symmetry_space_group_name_H-M "C 2/C"
_symmetry_group_IT_number 15
_symmetry_cell_setting 'monoclinic'
loop_
_space_group_symop_operation_xyz
x,y,z
-x,y,1/2-z
-x,-y,-z
x,-y,1/2+z
1/2+x,1/2+y,z
1/2-x,1/2+y,1/2-z
1/2-x,1/2-y,-z
1/2+x,1/2-y,1/2+z
loop_
_atom_site_type_symbol
_atom_site_label
_atom_site_fract_x
_atom_site_fract_y
_atom_site_fract_z
Si Si1 0.893715 0.019482 0.973485
Si Si2 0.888844 0.405011 0.195461
Si Si3 0.500000 0.616592 0.250000
Si Si4 0.126478 0.792716 0.010434
Si Si5 0.562535 0.032012 0.184442
Si Si6 0.759384 0.097183 0.380981
Si Si7 0.738555 0.822262 0.619751
Si Si8 0.748293 0.114697 0.692921
O O1 0.817348 0.056873 0.800726
O O2 0.838541 0.957589 0.959738
O O3 0.915202 0.066197 0.123126
O O4 0.000000 0.000000 0.000000
O O5 0.884922 0.476689 0.182634
O O6 0.858481 0.390360 0.326370
O O7 0.000000 0.386210 0.250000
O O8 0.806556 0.374067 0.021190
O O9 0.474223 0.666032 0.102675
O O10 0.175898 0.794597 0.900817
O O11 0.145403 0.723123 0.064935
O O12 0.195271 0.828435 0.186478
O O13 0.500000 0.062791 0.250000
O O14 0.652251 0.073386 0.217182
O O15 0.500000 0.000000 0.000000
O O16 0.789415 0.150219 0.305332
O O17 0.740122 0.118040 0.520039
#
# Coordination Sequence:
#
# PCOD9272757 Si02
#       8
#     8   8   4   8   8   8   8   8
#     4  11  22  37  61  94 132 166 212 258 331 397
#     4  10  20  37  60  86 121 160 213 251 309 384
#     4  10  20  38  62  88 116 166 214 270 302 376
#     4   9  21  42  61  85 122 162 223 266 312 373
#     4  11  22  36  55  86 126 163 199 250 313 388
#     4  12  23  36  64  95 131 167 208 263 338 386
#     4  10  22  38  61  90 116 168 213 260 315 385
#     4  10  22  38  60  91 127 166 202 273 324 381
#
# _framework density 21.487441
#
# number of rings (size 3 to 8) (size 9 to 14) (size 15 to 20)
#    0.000    1.600    1.333    4.000    2.800    0.533 
#    0.000    0.000    0.000    0.000   13.867    0.000 
#    0.000    0.000    0.000    0.000    0.000    0.000 
#
# Total GULP energy -167088.885283 kJ/mol
# GULP energy per Si atom -5569.629509 kJ/mol
# Density = 2.143853 g / cm^3
# Si number density = 21.487441 Si / 1000 Ang^3
#
#
#
# Elastic Constant Matrix: (Units=GPa)
#
#
# Indices 1 2 3 4 5 6 
#
# 1 101.8029 10.7919 31.7352 0.0000 -6.7206 0.0000
# 2 10.7919 86.8040 31.5618 0.0000 -4.0531 0.0000
# 3 31.7352 31.5618 99.3115 0.0000 -17.8906 0.0000
# 4 0.0000 0.0000 0.0000 23.8437 0.0000 0.7640
# 5 -6.7206 -4.0531 -17.8906 0.0000 29.9155 0.0000
# 6 0.0000 0.0000 0.0000 0.7640 0.0000 18.0307
#
#
#
# Elastic Compliance Matrix: (Units=1/GPa)
#
#
# Indices 1 2 3 4 5 6 
#
# 1 0.010915 -0.000109 -0.003378 0.000000 0.000417 0.000000
# 2 -0.000109 0.013043 -0.004255 0.000000 -0.000802 0.000000
# 3 -0.003378 -0.004255 0.013741 0.000000 0.006882 0.000000
# 4 0.000000 0.000000 0.000000 0.041997 0.000000 -0.001780
# 5 0.000417 -0.000802 0.006882 0.000000 0.037528 0.000000
# 6 0.000000 0.000000 0.000000 -0.001780 0.000000 0.055536
#
#
# Mechanical properties :
#
#
# Convention : Reuss Voigt Hill
#
# Bulk Modulus (GPa) = 45.01472 48.45512 46.73492
# Shear Modulus (GPa) = 25.55584 28.61328 27.08456
#
# Velocity S-wave (km/s) = 3.45242 3.65311 3.55418
# Velocity P-wave (km/s) = 6.07347 6.35555 6.21611
#
# Compressibility (1/GPa) = 0.02221496
#
# Stress axis : x y z
#
# Youngs Moduli (GPa) = 91.61641 76.66716 72.77590
#
# Poissons Ratio (x) = 0.00838 0.24584
# Poissons Ratio (y) = 0.01001 0.30965
# Poissons Ratio (z) = 0.30949 0.32620
#
# Static dielectric constant tensor:
#      x y z
#    x 1.907700 0.000000 0.025880 
#    y 0.000000 1.819670 0.000000 
#    z 0.025880 0.000000 1.792150 
# 
# From -- ./inp_files/50690.got.cif
#   From: 2010.05.17/outbox.cif.g08.bks.cpg/sg15_26_cif.got.tgz:50690.got - 2010.06.03 18:47:42.
