data_PCOD9272056
_publ_section_title
;
Structure prediction by ZEFSAII (Michael W. Deem and Ramdas Pophale) SiO2 
 PCOD9272056
Probable space group: C 2/C
;
_chemical_formula_sum "Si O2"
_cell_formula_units_Z 40
_cell_length_a 8.803820
_cell_length_b 26.154224
_cell_length_c 8.375565
_cell_angle_alpha 90.000000
_cell_angle_beta 73.362788
_cell_angle_gamma 90.000000
_cell_volume 1847.798624
_symmetry_space_group_name_H-M "C 2/C"
_symmetry_group_IT_number 15
_symmetry_cell_setting 'monoclinic'
loop_
_space_group_symop_operation_xyz
x,y,z
-x,y,1/2-z
-x,-y,-z
x,-y,1/2+z
1/2+x,1/2+y,z
1/2-x,1/2+y,1/2-z
1/2-x,1/2-y,-z
1/2+x,1/2-y,1/2+z
loop_
_atom_site_type_symbol
_atom_site_label
_atom_site_fract_x
_atom_site_fract_y
_atom_site_fract_z
Si Si1 0.312524 0.131142 0.789633
Si Si2 0.675225 0.567640 0.278391
Si Si3 0.182198 0.033979 0.642259
Si Si4 0.312514 0.731946 0.811264
Si Si5 0.187423 0.172647 0.165412
O O1 0.500000 0.127753 0.750000
O O2 0.252933 0.078249 0.732027
O O3 0.270927 0.178016 0.688672
O O4 0.227149 0.149904 0.978820
O O5 0.500000 0.574060 0.250000
O O6 0.677659 0.548313 0.458409
O O7 0.755684 0.522277 0.151655
O O8 0.743378 0.624758 0.256698
O O9 0.000000 0.029458 0.750000
O O10 0.500000 0.724317 0.750000
O O11 0.269894 0.774649 0.690826
O O12 0.250000 0.750000 0.000000
O O13 0.000000 0.181622 0.250000
#
# Coordination Sequence:
#
# PCOD9272056 Si02
#       5
#     8   8   8   8   8
#     4  12  25  42  62  92 129 168 207 258 315 370
#     4  10  20  36  63  94 123 161 208 258 308 369
#     4  11  20  38  63  92 124 165 213 257 305 372
#     4  12  24  41  64  93 123 163 211 261 313 373
#     4  11  22  41  63  89 123 165 208 256 309 370
#
# _framework density 21.647382
#
# number of rings (size 3 to 8) (size 9 to 14) (size 15 to 20)
#    0.000    0.800    0.000   11.400    0.000    0.000 
#    0.000    5.000    0.000    0.000    0.000    0.000 
#    0.000    0.000    0.000    0.000    0.000    0.000 
#
# Total GULP energy -111766.489854 kJ/mol
# GULP energy per Si atom -5588.324493 kJ/mol
# Density = 2.159811 g / cm^3
# Si number density = 21.647382 Si / 1000 Ang^3
#
#
#
# Elastic Constant Matrix: (Units=GPa)
#
#
# Indices 1 2 3 4 5 6 
#
# 1 96.1370 33.4232 -4.2691 0.0000 1.7849 0.0000
# 2 33.4232 120.0019 -48.8539 0.0000 12.0702 0.0000
# 3 -4.2691 -48.8539 55.5363 0.0000 3.7366 0.0000
# 4 0.0000 0.0000 0.0000 49.8841 0.0000 22.4440
# 5 1.7849 12.0702 3.7366 0.0000 16.1864 0.0000
# 6 0.0000 0.0000 0.0000 22.4440 0.0000 55.7295
#
#
#
# Elastic Compliance Matrix: (Units=1/GPa)
#
#
# Indices 1 2 3 4 5 6 
#
# 1 0.012014 -0.005343 -0.004017 0.000000 0.003587 0.000000
# 2 -0.005343 0.018446 0.016965 0.000000 -0.017083 0.000000
# 3 -0.004017 0.016965 0.033970 0.000000 -0.020050 0.000000
# 4 0.000000 0.000000 0.000000 0.024483 0.000000 -0.009860
# 5 0.003587 -0.017083 -0.020050 0.000000 0.078752 0.000000
# 6 0.000000 0.000000 0.000000 -0.009860 0.000000 0.021915
#
#
# Mechanical properties :
#
#
# Convention : Reuss Voigt Hill
#
# Bulk Modulus (GPa) = 12.55630 25.80839 19.18235
# Shear Modulus (GPa) = 24.88601 43.78501 34.33551
#
# Velocity S-wave (km/s) = 3.39427 4.50226 3.98694
# Velocity P-wave (km/s) = 4.60156 6.24301 5.48405
#
# Compressibility (1/GPa) = 0.07964130
#
# Stress axis : x y z
#
# Youngs Moduli (GPa) = 83.23468 54.21190 29.43749
#
# Poissons Ratio (x) = 0.28963 0.11826
# Poissons Ratio (y) = 0.44468 -0.49941
# Poissons Ratio (z) = 0.33439 -0.91972
#
# Static dielectric constant tensor:
#      x y z
#    x 4.541080 0.000000 -21.237310 
#    y 0.000000 1.869890 0.000000 
#    z -21.237310 0.000000 164.216050 
# 
# From -- ./inp_files/23427.got.cif
#   From: 2010.05.17/outbox.cif.g08.bks.cpg/sg15_12_cif.got.tgz:23427.got - 2010.06.03 18:47:42.
