data_PCOD9272573
_publ_section_title
;
Structure prediction by ZEFSAII (Michael W. Deem and Ramdas Pophale) SiO2 
 PCOD9272573
Probable space group: C 2/C
;
_chemical_formula_sum "Si O2"
_cell_formula_units_Z 48
_cell_length_a 22.983122
_cell_length_b 7.100800
_cell_length_c 14.896796
_cell_angle_alpha 90.000000
_cell_angle_beta 108.699373
_cell_angle_gamma 90.000000
_cell_volume 2302.805106
_symmetry_space_group_name_H-M "C 2/C"
_symmetry_group_IT_number 15
_symmetry_cell_setting 'monoclinic'
loop_
_space_group_symop_operation_xyz
x,y,z
-x,y,1/2-z
-x,-y,-z
x,-y,1/2+z
1/2+x,1/2+y,z
1/2-x,1/2+y,1/2-z
1/2-x,1/2-y,-z
1/2+x,1/2-y,1/2+z
loop_
_atom_site_type_symbol
_atom_site_label
_atom_site_fract_x
_atom_site_fract_y
_atom_site_fract_z
Si Si1 0.602769 0.923094 0.302547
Si Si2 0.546876 0.877148 0.464079
Si Si3 0.819865 0.742264 0.417343
Si Si4 0.135166 0.177201 0.738798
Si Si5 0.807533 0.100791 0.092989
Si Si6 0.030351 0.096806 0.170400
O O1 0.561551 0.957437 0.371199
O O2 0.661440 0.801001 0.364005
O O3 0.568254 0.783891 0.217074
O O4 0.619034 0.116030 0.263773
O O5 0.613570 0.855639 0.542295
O O6 0.518109 0.671685 0.425942
O O7 0.500000 0.000000 0.500000
O O8 0.814019 0.814562 0.313633
O O9 0.816961 0.905909 0.490963
O O10 0.763607 0.608053 0.416122
O O11 0.157470 0.057122 0.834629
O O12 0.076881 0.067232 0.668077
O O13 0.000000 0.036025 0.250000
#
# Coordination Sequence:
#
# PCOD9272573 Si02
#       6
#     8   8   8   8   8   8
#     4   9  20  39  61  86 120 161 203 252 303 362
#     4  10  20  37  58  87 128 163 198 252 312 367
#     4  10  22  40  61  87 124 161 199 259 310 357
#     4  11  22  37  67  92 112 165 210 246 306 371
#     4   9  22  44  59  87 128 153 202 265 305 356
#     4   9  20  37  56  86 124 155 194 251 296 351
#
# _framework density 20.844142999999999
#
# number of rings (size 3 to 8) (size 9 to 14) (size 15 to 20)
#    0.000    2.333    0.000    2.000    2.333    5.333 
#    0.000    9.167    0.000    0.000    0.000    0.000 
#    0.000    0.000    0.000    0.000    0.000    0.000 
#
# Total GULP energy -133985.952513 kJ/mol
# GULP energy per Si atom -5582.748021 kJ/mol
# Density = 2.079670 g / cm^3
# Si number density = 20.844143 Si / 1000 Ang^3
#
#
#
# Elastic Constant Matrix: (Units=GPa)
#
#
# Indices 1 2 3 4 5 6 
#
# 1 105.4145 37.0894 14.4705 0.0000 -6.1362 0.0000
# 2 37.0894 76.7644 31.4967 0.0000 -20.5923 0.0000
# 3 14.4705 31.4967 52.5470 0.0000 -12.0225 0.0000
# 4 0.0000 0.0000 0.0000 7.2915 0.0000 -4.5471
# 5 -6.1362 -20.5923 -12.0225 0.0000 44.1286 0.0000
# 6 0.0000 0.0000 0.0000 -4.5471 0.0000 8.7990
#
#
#
# Elastic Compliance Matrix: (Units=1/GPa)
#
#
# Indices 1 2 3 4 5 6 
#
# 1 0.011479 -0.005895 0.000115 0.000000 -0.001123 0.000000
# 2 -0.005895 0.021700 -0.009869 0.000000 0.006617 0.000000
# 3 0.000115 -0.009869 0.025451 0.000000 0.002344 0.000000
# 4 0.000000 0.000000 0.000000 0.202360 0.000000 0.104573
# 5 -0.001123 0.006617 0.002344 0.000000 0.026232 0.000000
# 6 0.000000 0.000000 0.000000 0.104573 0.000000 0.167689
#
#
# Mechanical properties :
#
#
# Convention : Reuss Voigt Hill
#
# Bulk Modulus (GPa) = 36.58747 44.53770 40.56259
# Shear Modulus (GPa) = 10.09451 22.15511 16.12481
#
# Velocity S-wave (km/s) = 2.20304 3.26374 2.78436
# Velocity P-wave (km/s) = 4.90532 5.96792 5.46252
#
# Compressibility (1/GPa) = 0.02733176
#
# Stress axis : x y z
#
# Youngs Moduli (GPa) = 87.11385 46.08375 39.29128
#
# Poissons Ratio (x) = 0.27166 -0.00453
# Poissons Ratio (y) = 0.51352 0.38778
# Poissons Ratio (z) = -0.01004 0.45482
#
# Static dielectric constant tensor:
#      x y z
#    x 1.776590 0.000000 0.013870 
#    y 0.000000 1.709350 0.000000 
#    z 0.013870 0.000000 1.865470 
# 
# From -- ./inp_files/217799.got.cif
#   From: 2010.05.17/outbox.cif.g08.bks.cpg/sg15_109_cif.got.tgz:217799.got - 2010.06.03 18:47:42.
