data_PCOD9272536
_publ_section_title
;
Structure prediction by ZEFSAII (Michael W. Deem and Ramdas Pophale) SiO2 
 PCOD9272536
Probable space group: C 2/C
;
_chemical_formula_sum "Si O2"
_cell_formula_units_Z 64
_cell_length_a 29.144196
_cell_length_b 21.203072
_cell_length_c 9.946424
_cell_angle_alpha 90.000000
_cell_angle_beta 147.408918
_cell_angle_gamma 90.000000
_cell_volume 3310.672006
_symmetry_space_group_name_H-M "C 2/C"
_symmetry_group_IT_number 15
_symmetry_cell_setting 'monoclinic'
loop_
_space_group_symop_operation_xyz
x,y,z
-x,y,1/2-z
-x,-y,-z
x,-y,1/2+z
1/2+x,1/2+y,z
1/2-x,1/2+y,1/2-z
1/2-x,1/2-y,-z
1/2+x,1/2-y,1/2+z
loop_
_atom_site_type_symbol
_atom_site_label
_atom_site_fract_x
_atom_site_fract_y
_atom_site_fract_z
Si Si1 0.315195 0.822841 0.521719
Si Si2 0.108231 0.053021 0.370727
Si Si3 0.323702 0.310108 0.100707
Si Si4 0.293990 0.326150 0.496730
Si Si5 0.400746 0.938563 0.163076
Si Si6 0.894229 0.551415 0.339223
Si Si7 0.799497 0.684942 0.458493
Si Si8 0.596607 0.440547 0.150724
O O1 0.365401 0.758276 0.678657
O O2 0.226134 0.811899 0.380982
O O3 0.356082 0.885514 0.680652
O O4 0.290880 0.828617 0.306115
O O5 0.147189 0.116345 0.403681
O O6 0.131899 0.049172 0.586715
O O7 0.133021 0.992440 0.343093
O O8 0.005517 0.054463 0.110275
O O9 0.382625 0.370730 0.246836
O O10 0.253254 0.316595 0.810052
O O11 0.265175 0.329686 0.579396
O O12 0.331791 0.256315 0.562783
O O13 0.503206 0.942537 0.414235
O O14 0.368713 0.990495 0.189790
O O15 0.369912 0.953512 0.935627
O O16 0.370074 0.868959 0.126010
#
# Coordination Sequence:
#
# PCOD9272536 Si02
#       8
#     8   8   8   8   8   8   8   8
#     4  10  20  37  58  83 112 142 185 232 274 326
#     4  10  22  39  57  82 114 147 185 229 274 328
#     4  10  20  37  58  83 112 142 185 232 274 326
#     4  10  22  39  58  83 114 146 183 229 278 328
#     4  10  22  39  57  82 114 147 185 229 274 328
#     4  10  22  38  58  83 112 147 186 228 276 326
#     4  10  22  39  58  83 114 146 183 229 278 328
#     4  10  22  38  58  83 112 147 186 228 276 326
#
# _framework density 19.331423000000001
#
# number of rings (size 3 to 8) (size 9 to 14) (size 15 to 20)
#    0.000    2.000    2.500    0.000    3.500    3.000 
#    0.000    2.500    0.000    4.500    0.000    0.000 
#    0.000    0.000    0.000    0.000    0.000    0.000 
#
# Total GULP energy -178600.839399 kJ/mol
# GULP energy per Si atom -5581.276231 kJ/mol
# Density = 1.928742 g / cm^3
# Si number density = 19.331423 Si / 1000 Ang^3
#
#
#
# Elastic Constant Matrix: (Units=GPa)
#
#
# Indices 1 2 3 4 5 6 
#
# 1 63.3393 36.4176 12.3575 0.0000 -22.4377 0.0000
# 2 36.4176 132.4189 38.6206 0.0000 -15.8036 0.0000
# 3 12.3575 38.6206 39.9432 0.0000 -18.5040 0.0000
# 4 0.0000 0.0000 0.0000 45.4657 0.0000 8.5814
# 5 -22.4377 -15.8036 -18.5040 0.0000 17.8051 0.0000
# 6 0.0000 0.0000 0.0000 8.5814 0.0000 38.4499
#
#
#
# Elastic Compliance Matrix: (Units=1/GPa)
#
#
# Indices 1 2 3 4 5 6 
#
# 1 0.048011 -0.014336 0.040770 0.000000 0.090148 0.000000
# 2 -0.014336 0.014851 -0.023501 0.000000 -0.029308 0.000000
# 3 0.040770 -0.023501 0.095038 0.000000 0.129287 0.000000
# 4 0.000000 0.000000 0.000000 0.022962 0.000000 -0.005125
# 5 0.090148 -0.029308 0.129287 0.000000 0.278115 0.000000
# 6 0.000000 0.000000 0.000000 -0.005125 0.000000 0.027152
#
#
# Mechanical properties :
#
#
# Convention : Reuss Voigt Hill
#
# Bulk Modulus (GPa) = 6.10628 45.61034 25.85831
# Shear Modulus (GPa) = 9.34838 30.23120 19.78979
#
# Velocity S-wave (km/s) = 2.20144 3.95883 3.20302
# Velocity P-wave (km/s) = 3.10280 6.67394 5.20427
#
# Compressibility (1/GPa) = 0.16376589
#
# Stress axis : x y z
#
# Youngs Moduli (GPa) = 20.82852 67.33636 10.52206
#
# Poissons Ratio (x) = 0.96532 -0.42898
# Poissons Ratio (y) = 0.29859 0.24728
# Poissons Ratio (z) = -0.84917 1.58247
#
# Static dielectric constant tensor:
#      x y z
#    x 1.665750 0.000000 -0.003970 
#    y 0.000000 1.686760 0.000000 
#    z -0.003970 0.000000 1.661210 
# 
# From -- ./inp_files/70629.got.cif
#   From: 2010.05.17/outbox.cif.g08.bks.cpg/sg15_36_cif.got.tgz:70629.got - 2010.06.03 18:47:42.
