data_PCOD9272946
_publ_section_title
;
Structure prediction by ZEFSAII (Michael W. Deem and Ramdas Pophale) SiO2 
 PCOD9272946
Probable space group: C 2/C
;
_chemical_formula_sum "Si O2"
_cell_formula_units_Z 64
_cell_length_a 27.925849
_cell_length_b 11.130018
_cell_length_c 15.415641
_cell_angle_alpha 90.000000
_cell_angle_beta 142.044128
_cell_angle_gamma 90.000000
_cell_volume 2946.981151
_symmetry_space_group_name_H-M "C 2/C"
_symmetry_group_IT_number 15
_symmetry_cell_setting 'monoclinic'
loop_
_space_group_symop_operation_xyz
x,y,z
-x,y,1/2-z
-x,-y,-z
x,-y,1/2+z
1/2+x,1/2+y,z
1/2-x,1/2+y,1/2-z
1/2-x,1/2-y,-z
1/2+x,1/2-y,1/2+z
loop_
_atom_site_type_symbol
_atom_site_label
_atom_site_fract_x
_atom_site_fract_y
_atom_site_fract_z
Si Si1 0.401700 0.330812 0.027120
Si Si2 0.813090 0.245936 0.733861
Si Si3 0.885572 0.387722 0.993894
Si Si4 0.303176 0.870840 0.323205
Si Si5 0.960369 0.469608 0.349914
Si Si6 0.432719 0.242062 0.257347
Si Si7 0.284470 0.486721 0.942593
Si Si8 0.300300 0.870367 0.057284
O O1 0.403820 0.252667 0.118233
O O2 0.489987 0.322836 0.121532
O O3 0.346869 0.257568 0.882465
O O4 0.366727 0.454422 0.014726
O O5 0.755964 0.141611 0.681221
O O6 0.869401 0.217412 0.735915
O O7 0.762589 0.362762 0.636291
O O8 0.858603 0.290327 0.884564
O O9 0.840409 0.370226 0.019646
O O10 0.978714 0.394478 0.120621
O O11 0.860619 0.519774 0.923746
O O12 0.252691 0.908706 0.169034
O O13 0.948784 0.602146 0.294963
O O14 0.876600 0.402812 0.227016
O O15 0.000000 0.500000 0.500000
O O16 0.264721 0.528761 0.011331
O O17 0.250000 0.750000 0.000000
#
# Coordination Sequence:
#
# PCOD9272946 Si02
#       8
#     8   8   8   8   8   8   8   8
#     4  10  23  36  64  95 125 169 219 272 332 397
#     4  10  21  36  63  93 128 168 215 280 333 393
#     4  11  22  38  62  95 125 167 218 269 331 394
#     4  10  20  37  61  91 125 166 213 273 332 396
#     4  12  22  41  67  95 129 167 224 285 330 392
#     4  11  21  38  64  95 125 166 220 275 329 393
#     4  10  22  40  60  92 136 168 216 278 330 400
#     4  12  26  41  65  95 134 177 218 274 345 404
#
# _framework density 21.717137999999998
#
# number of rings (size 3 to 8) (size 9 to 14) (size 15 to 20)
#    0.000    1.250    3.750    2.625    3.500    1.000 
#    0.000    0.625   11.000    0.000    0.000    0.000 
#    0.000    0.000    0.000    0.000    0.000    0.000 
#
# Total GULP energy -178542.892840 kJ/mol
# GULP energy per Si atom -5579.465401 kJ/mol
# Density = 2.166771 g / cm^3
# Si number density = 21.717138 Si / 1000 Ang^3
#
#
#
# Elastic Constant Matrix: (Units=GPa)
#
#
# Indices 1 2 3 4 5 6 
#
# 1 110.6005 19.1182 -4.0846 0.0000 28.3167 0.0000
# 2 19.1182 47.0792 23.3640 0.0000 11.5795 0.0000
# 3 -4.0846 23.3640 45.5871 0.0000 11.4371 0.0000
# 4 0.0000 0.0000 0.0000 20.9761 0.0000 7.5040
# 5 28.3167 11.5795 11.4371 0.0000 42.7492 0.0000
# 6 0.0000 0.0000 0.0000 7.5040 0.0000 36.3334
#
#
#
# Elastic Compliance Matrix: (Units=1/GPa)
#
#
# Indices 1 2 3 4 5 6 
#
# 1 0.012467 -0.006183 0.006365 0.000000 -0.008286 0.000000
# 2 -0.006183 0.032234 -0.017056 0.000000 -0.000072 0.000000
# 3 0.006365 -0.017056 0.033388 0.000000 -0.008528 0.000000
# 4 0.000000 0.000000 0.000000 0.051477 0.000000 -0.010632
# 5 -0.008286 -0.000072 -0.008528 0.000000 0.031182 0.000000
# 6 0.000000 0.000000 0.000000 -0.010632 0.000000 0.029719
#
#
# Mechanical properties :
#
#
# Convention : Reuss Voigt Hill
#
# Bulk Modulus (GPa) = 22.55352 31.11802 26.83577
# Shear Modulus (GPa) = 20.92091 31.00302 25.96196
#
# Velocity S-wave (km/s) = 3.10713 3.78244 3.46129
# Velocity P-wave (km/s) = 4.82494 5.78236 5.32521
#
# Compressibility (1/GPa) = 0.04433898
#
# Stress axis : x y z
#
# Youngs Moduli (GPa) = 80.21257 31.02301 29.95119
#
# Poissons Ratio (x) = 0.19183 -0.19064
# Poissons Ratio (y) = 0.49598 0.51086
# Poissons Ratio (z) = -0.51055 0.52914
#
# Static dielectric constant tensor:
#      x y z
#    x 1.871420 0.000000 0.024200 
#    y 0.000000 1.785960 0.000000 
#    z 0.024200 0.000000 1.878080 
# 
# From -- ./inp_files/177859.got.cif
#   From: 2010.05.17/outbox.cif.g08.bks.cpg/sg15_89_cif.got.tgz:177859.got - 2010.06.03 18:47:42.
