data_PCOD9272199
_publ_section_title
;
Structure prediction by ZEFSAII (Michael W. Deem and Ramdas Pophale) SiO2 
 PCOD9272199
Probable space group: C 2/C
;
_chemical_formula_sum "Si O2"
_cell_formula_units_Z 40
_cell_length_a 7.072332
_cell_length_b 21.039870
_cell_length_c 13.106180
_cell_angle_alpha 90.000000
_cell_angle_beta 79.764388
_cell_angle_gamma 90.000000
_cell_volume 1919.175043
_symmetry_space_group_name_H-M "C 2/C"
_symmetry_group_IT_number 15
_symmetry_cell_setting 'monoclinic'
loop_
_space_group_symop_operation_xyz
x,y,z
-x,y,1/2-z
-x,-y,-z
x,-y,1/2+z
1/2+x,1/2+y,z
1/2-x,1/2+y,1/2-z
1/2-x,1/2-y,-z
1/2+x,1/2-y,1/2+z
loop_
_atom_site_type_symbol
_atom_site_label
_atom_site_fract_x
_atom_site_fract_y
_atom_site_fract_z
Si Si1 0.130254 0.812314 0.991517
Si Si2 0.862517 0.166664 0.357091
Si Si3 0.976086 0.612514 0.366640
Si Si4 0.003310 0.074166 0.628940
Si Si5 0.255846 0.541571 0.470016
O O1 0.064044 0.854410 0.093311
O O2 0.250000 0.750000 0.000000
O O3 0.271238 0.858254 0.911557
O O4 0.943139 0.794696 0.944019
O O5 0.636974 0.168860 0.355808
O O6 0.882524 0.093190 0.393004
O O7 0.000000 0.179834 0.250000
O O8 0.048739 0.561815 0.444491
O O9 0.000000 0.585638 0.250000
O O10 0.000000 0.065662 0.750000
O O11 0.809465 0.056783 0.582625
O O12 0.161628 0.026045 0.568318
#
# Coordination Sequence:
#
# PCOD9272199 Si02
#       5
#     8   8   8   8   8
#     4  11  23  38  56  87 125 163 204 250 294 358
#     4   9  17  36  60  88 110 150 200 251 303 357
#     4  10  20  36  65  93 111 149 208 254 303 363
#     4  10  20  39  61  85 124 165 194 246 320 360
#     4   8  19  35  62  87 116 147 199 246 305 368
#
# _framework density 20.842286999999999
#
# number of rings (size 3 to 8) (size 9 to 14) (size 15 to 20)
#    1.200    1.200    2.000    0.600    0.000    4.000 
#    0.000    1.000    0.000    0.000    0.000    0.000 
#    0.000    0.000    0.000    0.000    0.000    0.000 
#
# Total GULP energy -111346.686975 kJ/mol
# GULP energy per Si atom -5567.334349 kJ/mol
# Density = 2.079485 g / cm^3
# Si number density = 20.842287 Si / 1000 Ang^3
#
#
#
# Elastic Constant Matrix: (Units=GPa)
#
#
# Indices 1 2 3 4 5 6 
#
# 1 90.5135 -4.1788 30.0157 0.0000 16.5170 0.0000
# 2 -4.1788 50.9963 25.4509 0.0000 11.5136 0.0000
# 3 30.0157 25.4509 131.7131 0.0000 20.6531 0.0000
# 4 0.0000 0.0000 0.0000 6.1184 0.0000 -1.5517
# 5 16.5170 11.5136 20.6531 0.0000 32.1351 0.0000
# 6 0.0000 0.0000 0.0000 -1.5517 0.0000 11.5319
#
#
#
# Elastic Compliance Matrix: (Units=1/GPa)
#
#
# Indices 1 2 3 4 5 6 
#
# 1 0.013336 0.003946 -0.002786 0.000000 -0.006478 0.000000
# 2 0.003946 0.023833 -0.004279 0.000000 -0.007817 0.000000
# 3 -0.002786 -0.004279 0.009552 0.000000 -0.003174 0.000000
# 4 0.000000 0.000000 0.000000 0.169215 0.000000 0.022769
# 5 -0.006478 -0.007817 -0.003174 0.000000 0.039289 0.000000
# 6 0.000000 0.000000 0.000000 0.022769 0.000000 0.089779
#
#
# Mechanical properties :
#
#
# Convention : Reuss Voigt Hill
#
# Bulk Modulus (GPa) = 24.70173 41.75538 33.22855
# Shear Modulus (GPa) = 13.70855 24.75277 19.23066
#
# Velocity S-wave (km/s) = 2.56740 3.44993 3.04085
# Velocity P-wave (km/s) = 4.54601 5.99557 5.32039
#
# Compressibility (1/GPa) = 0.04048299
#
# Stress axis : x y z
#
# Youngs Moduli (GPa) = 74.98421 41.95893 104.69521
#
# Poissons Ratio (x) = -0.16556 0.29166
# Poissons Ratio (y) = -0.29586 0.44795
# Poissons Ratio (z) = 0.20889 0.17953
#
# Static dielectric constant tensor:
#      x y z
#    x 1.810750 0.000000 0.040020 
#    y 0.000000 1.761920 0.000000 
#    z 0.040020 0.000000 1.761470 
# 
# From -- ./inp_files/77813.got.cif
#   From: 2010.05.17/outbox.cif.g08.bks.cpg/sg15_39_cif.got.tgz:77813.got - 2010.06.03 18:47:42.
