data_PCOD9272476
_publ_section_title
;
Structure prediction by ZEFSAII (Michael W. Deem and Ramdas Pophale) SiO2 
 PCOD9272476
Probable space group: C 2/C
;
_chemical_formula_sum "Si O2"
_cell_formula_units_Z 44
_cell_length_a 10.074385
_cell_length_b 14.015129
_cell_length_c 19.373210
_cell_angle_alpha 90.000000
_cell_angle_beta 42.457621
_cell_angle_gamma 90.000000
_cell_volume 1846.501892
_symmetry_space_group_name_H-M "C 2/C"
_symmetry_group_IT_number 15
_symmetry_cell_setting 'monoclinic'
loop_
_space_group_symop_operation_xyz
x,y,z
-x,y,1/2-z
-x,-y,-z
x,-y,1/2+z
1/2+x,1/2+y,z
1/2-x,1/2+y,1/2-z
1/2-x,1/2-y,-z
1/2+x,1/2-y,1/2+z
loop_
_atom_site_type_symbol
_atom_site_label
_atom_site_fract_x
_atom_site_fract_y
_atom_site_fract_z
Si Si1 0.432811 0.624047 0.545857
Si Si2 0.532264 0.011894 0.663453
Si Si3 0.093160 0.827804 0.586241
Si Si4 0.222496 0.963896 0.048467
Si Si5 0.000000 0.152366 0.750000
Si Si6 0.772263 0.704272 0.763446
O O1 0.238826 0.566444 0.597706
O O2 0.530768 0.647367 0.436078
O O3 0.563025 0.571706 0.552595
O O4 0.348318 0.713292 0.619909
O O5 0.500000 0.960472 0.750000
O O6 0.370392 0.097069 0.719954
O O7 0.574001 0.957723 0.574852
O O8 0.250000 0.750000 0.500000
O O9 0.944763 0.778701 0.694075
O O10 0.190413 0.924270 0.575428
O O11 0.157552 0.907755 0.142469
O O12 0.875179 0.211702 0.743357
#
# Coordination Sequence:
#
# PCOD9272476 Si02
#       6
#     8   8   8   8   4   8
#     4   9  19  35  58  81 116 147 180 234 287 340
#     4   9  16  31  57  82 107 142 187 226 280 331
#     4  11  19  33  61  90 107 143 193 243 277 332
#     4  10  20  37  57  85 114 151 185 232 285 339
#     4  10  24  40  56  76 122 160 182 234 286 340
#     4  10  20  37  57  81 115 151 187 228 292 334
#
# _framework density 23.82884
#
# number of rings (size 3 to 8) (size 9 to 14) (size 15 to 20)
#    0.000    2.182    3.636    2.182    0.000    2.182 
#    0.000    3.636   28.000    0.000    0.000    0.000 
#    0.000    0.000    0.000    0.000    0.000    0.000 
#
# Total GULP energy -122633.016652 kJ/mol
# GULP energy per Si atom -5574.228030 kJ/mol
# Density = 2.377460 g / cm^3
# Si number density = 23.828840 Si / 1000 Ang^3
#
#
#
# Elastic Constant Matrix: (Units=GPa)
#
#
# Indices 1 2 3 4 5 6 
#
# 1 61.4398 -8.1427 0.7011 0.0001 17.2051 -0.0001
# 2 -8.1427 35.2628 13.6140 -0.0004 3.5863 0.0000
# 3 0.7011 13.6140 103.5576 -0.0010 24.7501 0.0001
# 4 0.0001 -0.0004 -0.0010 6.7422 0.0003 0.1576
# 5 17.2051 3.5863 24.7501 0.0003 34.5696 0.0000
# 6 -0.0001 0.0000 0.0001 0.1576 0.0000 6.5666
#
#
#
# Elastic Compliance Matrix: (Units=1/GPa)
#
#
# Indices 1 2 3 4 5 6 
#
# 1 0.020333 0.005123 0.002093 0.000001 -0.012149 0.000000
# 2 0.005123 0.031169 -0.003318 0.000001 -0.003408 0.000000
# 3 0.002093 -0.003318 0.012360 0.000002 -0.009546 0.000000
# 4 0.000001 0.000001 0.000002 0.148404 -0.000003 -0.003561
# 5 -0.012149 -0.003408 -0.009546 -0.000003 0.042162 0.000000
# 6 0.000000 0.000000 0.000000 -0.003561 0.000000 0.152372
#
#
# Mechanical properties :
#
#
# Convention : Reuss Voigt Hill
#
# Bulk Modulus (GPa) = 13.95514 23.62276 18.78895
# Shear Modulus (GPa) = 11.82340 22.51486 17.16913
#
# Velocity S-wave (km/s) = 2.22993 3.07719 2.68716
# Velocity P-wave (km/s) = 3.53542 4.74979 4.18687
#
# Compressibility (1/GPa) = 0.07165817
#
# Stress axis : x y z
#
# Youngs Moduli (GPa) = 49.18014 32.08317 80.90592
#
# Poissons Ratio (x) = -0.16436 -0.16930
# Poissons Ratio (y) = -0.25195 0.26843
# Poissons Ratio (z) = -0.10291 0.10644
#
# Static dielectric constant tensor:
#      x y z
#    x 1.945850 0.000000 0.027140 
#    y 0.000000 1.976340 0.000000 
#    z 0.027140 0.000000 2.018880 
# 
# From -- ./inp_files/142934.got.cif
#   From: 2010.05.17/outbox.cif.g08.bks.cpg/sg15_72_cif.got.tgz:142934.got - 2010.06.03 18:47:42.
