data_PCOD9272336
_publ_section_title
;
Structure prediction by ZEFSAII (Michael W. Deem and Ramdas Pophale) SiO2 
 PCOD9272336
Probable space group: C 2/C
;
_chemical_formula_sum "Si O2"
_cell_formula_units_Z 40
_cell_length_a 14.108703
_cell_length_b 8.069380
_cell_length_c 14.285476
_cell_angle_alpha 90.000000
_cell_angle_beta 101.723539
_cell_angle_gamma 90.000000
_cell_volume 1592.452579
_symmetry_space_group_name_H-M "C 2/C"
_symmetry_group_IT_number 15
_symmetry_cell_setting 'monoclinic'
loop_
_space_group_symop_operation_xyz
x,y,z
-x,y,1/2-z
-x,-y,-z
x,-y,1/2+z
1/2+x,1/2+y,z
1/2-x,1/2+y,1/2-z
1/2-x,1/2-y,-z
1/2+x,1/2-y,1/2+z
loop_
_atom_site_type_symbol
_atom_site_label
_atom_site_fract_x
_atom_site_fract_y
_atom_site_fract_z
Si Si1 0.888370 0.442162 0.982189
Si Si2 0.463449 0.612678 0.080870
Si Si3 0.500000 0.400260 0.250000
Si Si4 0.306900 0.024663 0.144292
Si Si5 0.000000 0.656192 0.750000
Si Si6 0.677307 0.763054 0.694613
O O1 0.836847 0.422061 0.873470
O O2 0.893521 0.253170 0.024973
O O3 0.825608 0.552148 0.039380
O O4 0.000000 0.500000 0.000000
O O5 0.431217 0.494002 0.159920
O O6 0.529229 0.729173 0.165341
O O7 0.500000 0.500000 0.000000
O O8 0.429286 0.300418 0.302179
O O9 0.411585 0.957618 0.200490
O O10 0.234245 0.878024 0.152843
O O11 0.276514 0.180370 0.199123
#
# Coordination Sequence:
#
# PCOD9272336 Si02
#       6
#     8   8   4   8   4   8
#     4  11  23  45  72  98 136 182 228 280 346 411
#     4  10  20  36  70  94 126 168 232 271 335 394
#     4  11  23  42  70  97 133 184 224 281 343 406
#     4  11  26  43  67  98 134 181 227 285 337 410
#     4   9  21  42  64  89 133 176 222 273 349 394
#     4  12  25  44  68 100 139 177 232 281 346 404
#
# _framework density 25.118486999999998
#
# number of rings (size 3 to 8) (size 9 to 14) (size 15 to 20)
#    0.000    1.200    2.000    4.800    8.400    0.000 
#    0.000    1.000    0.000    0.000    0.000    0.000 
#    0.000    0.000    0.000    0.000    0.000    0.000 
#
# Total GULP energy -111626.860935 kJ/mol
# GULP energy per Si atom -5581.343047 kJ/mol
# Density = 2.506132 g / cm^3
# Si number density = 25.118487 Si / 1000 Ang^3
#
#
#
# Elastic Constant Matrix: (Units=GPa)
#
#
# Indices 1 2 3 4 5 6 
#
# 1 81.2954 2.4128 5.0446 0.0000 -15.4870 0.0000
# 2 2.4128 38.6158 18.6800 0.0000 0.0117 0.0000
# 3 5.0446 18.6800 129.5617 0.0000 -26.4247 0.0000
# 4 0.0000 0.0000 0.0000 40.0078 0.0000 0.4192
# 5 -15.4870 0.0117 -26.4247 0.0000 27.3389 0.0000
# 6 0.0000 0.0000 0.0000 0.4192 0.0000 27.3144
#
#
#
# Elastic Compliance Matrix: (Units=1/GPa)
#
#
# Indices 1 2 3 4 5 6 
#
# 1 0.014070 -0.001677 0.001644 0.000000 0.009560 0.000000
# 2 -0.001677 0.028563 -0.005292 0.000000 -0.006078 0.000000
# 3 0.001644 -0.005292 0.010721 0.000000 0.011296 0.000000
# 4 0.000000 0.000000 0.000000 0.024999 0.000000 -0.000384
# 5 0.009560 -0.006078 0.011296 0.000000 0.052914 0.000000
# 6 0.000000 0.000000 0.000000 -0.000384 0.000000 0.036617
#
#
# Mechanical properties :
#
#
# Convention : Reuss Voigt Hill
#
# Bulk Modulus (GPa) = 23.41794 33.52752 28.47273
# Shear Modulus (GPa) = 25.93764 33.82125 29.87944
#
# Velocity S-wave (km/s) = 3.21691 3.67341 3.45271
# Velocity P-wave (km/s) = 4.81054 5.60077 5.22063
#
# Compressibility (1/GPa) = 0.04270230
#
# Stress axis : x y z
#
# Youngs Moduli (GPa) = 71.07440 35.01040 93.27232
#
# Poissons Ratio (x) = 0.05872 -0.15332
# Poissons Ratio (y) = 0.11920 0.49364
# Poissons Ratio (z) = -0.11683 0.18529
#
# Static dielectric constant tensor:
#      x y z
#    x 1.946960 0.000000 -0.013650 
#    y 0.000000 2.094380 0.000000 
#    z -0.013650 0.000000 2.141950 
# 
# From -- ./inp_files/150722.got.cif
#   From: 2010.05.17/outbox.cif.g08.bks.cpg/sg15_76_cif.got.tgz:150722.got - 2010.06.03 18:47:42.
