data_PCOD9272101
_publ_section_title
;
Structure prediction by ZEFSAII (Michael W. Deem and Ramdas Pophale) SiO2 
 PCOD9272101
Probable space group: C 2/C
;
_chemical_formula_sum "Si O2"
_cell_formula_units_Z 44
_cell_length_a 27.024606
_cell_length_b 14.665450
_cell_length_c 14.558322
_cell_angle_alpha 90.000000
_cell_angle_beta 160.717993
_cell_angle_gamma 90.000000
_cell_volume 1905.315113
_symmetry_space_group_name_H-M "C 2/C"
_symmetry_group_IT_number 15
_symmetry_cell_setting 'monoclinic'
loop_
_space_group_symop_operation_xyz
x,y,z
-x,y,1/2-z
-x,-y,-z
x,-y,1/2+z
1/2+x,1/2+y,z
1/2-x,1/2+y,1/2-z
1/2-x,1/2-y,-z
1/2+x,1/2-y,1/2+z
loop_
_atom_site_type_symbol
_atom_site_label
_atom_site_fract_x
_atom_site_fract_y
_atom_site_fract_z
Si Si1 0.423839 0.237423 0.281721
Si Si2 0.200522 0.624073 0.593845
Si Si3 0.517614 0.606093 0.054861
Si Si4 0.164510 0.938635 0.989727
Si Si5 0.413801 0.920478 0.902343
Si Si6 0.500000 0.953781 0.250000
O O1 0.521336 0.327549 0.473002
O O2 0.460336 0.164571 0.423535
O O3 0.250000 0.250000 0.000000
O O4 0.406296 0.191108 0.151588
O O5 0.363749 0.633364 0.835973
O O6 0.134396 0.523137 0.459622
O O7 0.231773 0.620074 0.758180
O O8 0.500000 0.500000 0.000000
O O9 0.643087 0.609567 0.353751
O O10 0.000000 0.949817 0.750000
O O11 0.245281 0.036761 0.113999
O O12 0.459400 0.902021 0.086974
O O13 0.500000 0.000000 0.000000
#
# Coordination Sequence:
#
# PCOD9272101 Si02
#       6
#     8   8   8   8   8   4
#     4  10  20  37  61  90 119 162 206 255 311 375
#     4   9  18  35  61  85 118 160 200 255 306 368
#     4  10  20  36  64  84 123 164 208 251 315 369
#     4   9  19  36  61  89 124 169 206 259 313 376
#     4  11  21  38  67  89 125 163 207 258 321 374
#     4  10  20  36  64  86 122 158 204 250 320 368
#
# _framework density 23.093294
#
# number of rings (size 3 to 8) (size 9 to 14) (size 15 to 20)
#    0.000    2.182    1.818    2.182    0.000    0.000 
#    8.182    0.909   38.000    0.000    0.000    0.000 
#    0.000    0.000    0.000    0.000    0.000    0.000 
#
# Total GULP energy -122575.409815 kJ/mol
# GULP energy per Si atom -5571.609537 kJ/mol
# Density = 2.304073 g / cm^3
# Si number density = 23.093294 Si / 1000 Ang^3
#
#
#
# Elastic Constant Matrix: (Units=GPa)
#
#
# Indices 1 2 3 4 5 6 
#
# 1 97.8124 27.4749 47.4937 0.0000 -22.8938 0.0000
# 2 27.4749 104.9154 39.1320 0.0000 -35.7534 0.0000
# 3 47.4937 39.1320 126.7163 0.0000 -51.3812 0.0000
# 4 0.0000 0.0000 0.0000 27.1134 0.0000 -35.0617
# 5 -22.8938 -35.7534 -51.3812 0.0000 49.2152 0.0000
# 6 0.0000 0.0000 0.0000 -35.0617 0.0000 103.0618
#
#
#
# Elastic Compliance Matrix: (Units=1/GPa)
#
#
# Indices 1 2 3 4 5 6 
#
# 1 0.012786 -0.001663 -0.004087 0.000000 0.000473 0.000000
# 2 -0.001663 0.012891 0.000218 0.000000 0.008819 0.000000
# 3 -0.004087 0.000218 0.014999 0.000000 0.013917 0.000000
# 4 0.000000 0.000000 0.000000 0.065853 0.000000 0.022403
# 5 0.000473 0.008819 0.013917 0.000000 0.041475 0.000000
# 6 0.000000 0.000000 0.000000 0.022403 0.000000 0.017324
#
#
# Mechanical properties :
#
#
# Convention : Reuss Voigt Hill
#
# Bulk Modulus (GPa) = 33.76873 61.96058 47.86465
# Shear Modulus (GPa) = 26.84398 50.23431 38.53914
#
# Velocity S-wave (km/s) = 3.41312 4.66905 4.08958
# Velocity P-wave (km/s) = 5.49427 7.48034 6.56287
#
# Compressibility (1/GPa) = 0.02961320
#
# Stress axis : x y z
#
# Youngs Moduli (GPa) = 78.21146 77.57347 66.67163
#
# Poissons Ratio (x) = 0.12899 0.27248
# Poissons Ratio (y) = 0.13005 -0.01456
# Poissons Ratio (z) = 0.31964 -0.01694
#
# Static dielectric constant tensor:
#      x y z
#    x 1.877530 0.000000 -0.029910 
#    y 0.000000 1.865790 0.000000 
#    z -0.029910 0.000000 1.911960 
# 
# From -- ./inp_files/182383.got.cif
#   From: 2010.05.17/outbox.cif.g08.bks.cpg/sg15_92_cif.got.tgz:182383.got - 2010.06.03 18:47:42.
