data_PCOD9272576
_publ_section_title
;
Structure prediction by ZEFSAII (Michael W. Deem and Ramdas Pophale) SiO2 
 PCOD9272576
Probable space group: C 2/C
;
_chemical_formula_sum "Si O2"
_cell_formula_units_Z 40
_cell_length_a 17.437788
_cell_length_b 7.444344
_cell_length_c 24.043134
_cell_angle_alpha 90.000000
_cell_angle_beta 30.168839
_cell_angle_gamma 90.000000
_cell_volume 1568.512669
_symmetry_space_group_name_H-M "C 2/C"
_symmetry_group_IT_number 15
_symmetry_cell_setting 'monoclinic'
loop_
_space_group_symop_operation_xyz
x,y,z
-x,y,1/2-z
-x,-y,-z
x,-y,1/2+z
1/2+x,1/2+y,z
1/2-x,1/2+y,1/2-z
1/2-x,1/2-y,-z
1/2+x,1/2-y,1/2+z
loop_
_atom_site_type_symbol
_atom_site_label
_atom_site_fract_x
_atom_site_fract_y
_atom_site_fract_z
Si Si1 0.215074 0.796878 0.887992
Si Si2 0.459365 0.497051 0.210672
Si Si3 0.796059 0.466824 0.001649
Si Si4 0.995790 0.636929 0.553616
Si Si5 0.405777 0.088998 0.725333
O O1 0.129537 0.973083 0.080179
O O2 0.292173 0.989148 0.836834
O O3 0.071418 0.805872 0.935987
O O4 0.189228 0.699790 0.963799
O O5 0.500000 0.490792 0.250000
O O6 0.406808 0.697519 0.230579
O O7 0.336099 0.340224 0.281368
O O8 0.844053 0.631773 0.013601
O O9 0.928410 0.491875 0.873235
O O10 0.116253 0.564102 0.827438
O O11 0.000000 0.500000 0.500000
#
# Coordination Sequence:
#
# PCOD9272576 Si02
#       5
#     8   8   8   8   8
#     4  10  20  37  58  88 121 153 195 249 296 343
#     4  10  21  37  59  86 120 160 197 245 295 349
#     4   8  19  38  60  81 121 160 187 249 299 339
#     4   8  18  36  58  80 121 156 190 243 296 340
#     4  10  21  35  62  86 113 161 203 237 294 363
#
# _framework density 25.501866
#
# number of rings (size 3 to 8) (size 9 to 14) (size 15 to 20)
#    1.200    1.600    0.000    0.600    2.800    3.200 
#    0.000    4.000    0.000    9.600    0.000    0.000 
#    0.000    0.000    0.000    0.000    0.000    0.000 
#
# Total GULP energy -111399.677981 kJ/mol
# GULP energy per Si atom -5569.983899 kJ/mol
# Density = 2.544382 g / cm^3
# Si number density = 25.501866 Si / 1000 Ang^3
#
#
#
# Elastic Constant Matrix: (Units=GPa)
#
#
# Indices 1 2 3 4 5 6 
#
# 1 71.0427 48.0985 11.9104 0.0003 -5.0056 -0.0003
# 2 48.0985 97.9882 35.7383 0.0003 2.4967 -0.0005
# 3 11.9104 35.7383 43.7849 0.0007 -4.0909 -0.0004
# 4 0.0003 0.0003 0.0007 39.4887 -0.0004 -2.1391
# 5 -5.0056 2.4967 -4.0909 -0.0004 26.5791 0.0001
# 6 -0.0003 -0.0005 -0.0004 -2.1391 0.0001 2.0926
#
#
#
# Elastic Compliance Matrix: (Units=1/GPa)
#
#
# Indices 1 2 3 4 5 6 
#
# 1 0.022515 -0.013087 0.005142 0.000000 0.006261 0.000000
# 2 -0.013087 0.022418 -0.015386 0.000000 -0.006939 0.000002
# 3 0.005142 -0.015386 0.034723 0.000000 0.007758 0.000002
# 4 0.000000 0.000000 0.000000 0.026808 0.000000 0.027404
# 5 0.006261 -0.006939 0.007758 0.000000 0.040648 -0.000002
# 6 0.000000 0.000002 0.000002 0.027404 -0.000002 0.505881
#
#
# Mechanical properties :
#
#
# Convention : Reuss Voigt Hill
#
# Bulk Modulus (GPa) = 30.30789 44.92337 37.61563
# Shear Modulus (GPa) = 7.03578 21.43667 14.23622
#
# Velocity S-wave (km/s) = 1.66280 2.90244 2.36528
# Velocity P-wave (km/s) = 3.94930 5.37459 4.71610
#
# Compressibility (1/GPa) = 0.03299471
#
# Stress axis : x y z
#
# Youngs Moduli (GPa) = 44.41410 44.60790 28.79896
#
# Poissons Ratio (x) = 0.58378 -0.14809
# Poissons Ratio (y) = 0.58124 0.44310
# Poissons Ratio (z) = -0.22838 0.68634
#
# Static dielectric constant tensor:
#      x y z
#    x 2.120400 0.000000 -0.119120 
#    y 0.000000 2.046000 0.000000 
#    z -0.119120 0.000000 2.167540 
# 
# From -- ./inp_files/203174.got.cif
#   From: 2010.05.17/outbox.cif.g08.bks.cpg/sg15_102_cif.got.tgz:203174.got - 2010.06.03 18:47:42.
