data_PCOD9272892
_publ_section_title
;
Structure prediction by ZEFSAII (Michael W. Deem and Ramdas Pophale) SiO2 
 PCOD9272892
Probable space group: C 2/C
;
_chemical_formula_sum "Si O2"
_cell_formula_units_Z 56
_cell_length_a 9.495336
_cell_length_b 34.489491
_cell_length_c 8.719986
_cell_angle_alpha 90.000000
_cell_angle_beta 53.067752
_cell_angle_gamma 90.000000
_cell_volume 2282.695797
_symmetry_space_group_name_H-M "C 2/C"
_symmetry_group_IT_number 15
_symmetry_cell_setting 'monoclinic'
loop_
_space_group_symop_operation_xyz
x,y,z
-x,y,1/2-z
-x,-y,-z
x,-y,1/2+z
1/2+x,1/2+y,z
1/2-x,1/2+y,1/2-z
1/2-x,1/2-y,-z
1/2+x,1/2-y,1/2+z
loop_
_atom_site_type_symbol
_atom_site_label
_atom_site_fract_x
_atom_site_fract_y
_atom_site_fract_z
Si Si1 0.693267 0.958279 0.071574
Si Si2 0.505115 0.800120 0.419521
Si Si3 0.831061 0.111076 0.970947
Si Si4 0.867768 0.239778 0.695876
Si Si5 0.667550 0.122434 0.773047
Si Si6 0.001919 0.169743 0.429999
Si Si7 0.303636 0.963898 0.799039
O O1 0.500000 0.969161 0.250000
O O2 0.699884 0.915499 0.144645
O O3 0.786675 0.995673 0.085374
O O4 0.693817 0.960883 0.887620
O O5 0.500000 0.784584 0.250000
O O6 0.691964 0.783385 0.359219
O O7 0.352859 0.781519 0.622763
O O8 0.505908 0.846666 0.397598
O O9 0.680586 0.110274 0.941604
O O10 0.000000 0.112406 0.750000
O O11 0.818567 0.071666 0.070688
O O12 0.844607 0.147336 0.077194
O O13 0.969055 0.213353 0.504817
O O14 0.000000 0.243114 0.750000
O O15 0.826025 0.149198 0.611628
O O16 0.000000 0.164853 0.250000
O O17 0.500000 0.957423 0.750000
#
# Coordination Sequence:
#
# PCOD9272892 Si02
#       7
#     8   8   8   8   8   8   8
#     4  11  21  38  60  86 121 160 202 252 305 367
#     4  11  23  40  63  91 122 159 205 258 311 367
#     4  10  21  40  62  90 125 161 202 252 306 369
#     4  11  23  42  63  88 123 166 207 254 312 375
#     4  10  21  39  60  87 122 160 200 250 307 368
#     4  10  20  37  61  87 119 161 202 246 304 367
#     4  11  22  38  62  89 119 161 204 250 308 367
#
# _framework density 24.532397
#
# number of rings (size 3 to 8) (size 9 to 14) (size 15 to 20)
#    0.000    1.429    0.000    8.143    0.000    1.143 
#    0.000   13.571    0.000    0.000    0.000    0.000 
#    0.000    0.000    0.000    0.000    0.000    0.000 
#
# Total GULP energy -156121.592991 kJ/mol
# GULP energy per Si atom -5575.771178 kJ/mol
# Density = 2.447656 g / cm^3
# Si number density = 24.532397 Si / 1000 Ang^3
#
#
#
# Elastic Constant Matrix: (Units=GPa)
#
#
# Indices 1 2 3 4 5 6 
#
# 1 55.0611 21.6360 23.8686 0.0000 28.9424 0.0000
# 2 21.6360 169.5387 61.7087 0.0000 25.3847 0.0000
# 3 23.8686 61.7087 145.1500 0.0000 47.1486 0.0000
# 4 0.0000 0.0000 0.0000 42.6586 0.0000 2.8539
# 5 28.9424 25.3847 47.1486 0.0000 41.4501 0.0000
# 6 0.0000 0.0000 0.0000 2.8539 0.0000 23.2520
#
#
#
# Elastic Compliance Matrix: (Units=1/GPa)
#
#
# Indices 1 2 3 4 5 6 
#
# 1 0.029765 -0.001498 0.003482 0.000000 -0.023826 0.000000
# 2 -0.001498 0.007107 -0.002698 0.000000 -0.000237 0.000000
# 3 0.003482 -0.002698 0.012239 0.000000 -0.014701 0.000000
# 4 0.000000 0.000000 0.000000 0.023636 0.000000 -0.002901
# 5 -0.023826 -0.000237 -0.014701 0.000000 0.057629 0.000000
# 6 0.000000 0.000000 0.000000 -0.002901 0.000000 0.043363
#
#
# Mechanical properties :
#
#
# Convention : Reuss Voigt Hill
#
# Bulk Modulus (GPa) = 20.97221 64.90849 42.94035
# Shear Modulus (GPa) = 26.16943 38.97456 32.57199
#
# Velocity S-wave (km/s) = 3.26963 3.99017 3.64773
# Velocity P-wave (km/s) = 4.77716 6.90973 5.93993
#
# Compressibility (1/GPa) = 0.04768214
#
# Stress axis : x y z
#
# Youngs Moduli (GPa) = 33.59636 140.70357 81.70587
#
# Poissons Ratio (x) = 0.21083 -0.28449
# Poissons Ratio (y) = 0.05034 0.22044
# Poissons Ratio (z) = -0.11698 0.37962
#
# Static dielectric constant tensor:
#      x y z
#    x 2.165160 0.000000 -0.005740 
#    y 0.000000 2.101930 0.000000 
#    z -0.005740 0.000000 1.888560 
# 
# From -- ./inp_files/35547.got.cif
#   From: 2010.05.17/outbox.cif.g08.bks.cpg/sg15_18_cif.got.tgz:35547.got - 2010.06.03 18:47:42.
