data_PCOD9272305
_publ_section_title
;
Structure prediction by ZEFSAII (Michael W. Deem and Ramdas Pophale) SiO2 
 PCOD9272305
Probable space group: C 2/C
;
_chemical_formula_sum "Si O2"
_cell_formula_units_Z 56
_cell_length_a 21.141933
_cell_length_b 8.742466
_cell_length_c 22.488729
_cell_angle_alpha 90.000000
_cell_angle_beta 148.447822
_cell_angle_gamma 90.000000
_cell_volume 2175.070806
_symmetry_space_group_name_H-M "C 2/C"
_symmetry_group_IT_number 15
_symmetry_cell_setting 'monoclinic'
loop_
_space_group_symop_operation_xyz
x,y,z
-x,y,1/2-z
-x,-y,-z
x,-y,1/2+z
1/2+x,1/2+y,z
1/2-x,1/2+y,1/2-z
1/2-x,1/2-y,-z
1/2+x,1/2-y,1/2+z
loop_
_atom_site_type_symbol
_atom_site_label
_atom_site_fract_x
_atom_site_fract_y
_atom_site_fract_z
Si Si1 0.133396 0.343965 0.888787
Si Si2 0.758098 0.506829 0.632837
Si Si3 0.495351 0.060011 0.392503
Si Si4 0.872360 0.969229 0.172599
Si Si5 0.123872 0.121377 0.687755
Si Si6 0.684084 0.163680 0.084447
Si Si7 0.178742 0.830678 0.680411
O O1 0.210316 0.453921 0.907669
O O2 0.094051 0.385848 0.923585
O O3 0.170579 0.167778 0.905018
O O4 0.000000 0.346128 0.750000
O O5 0.677733 0.657055 0.568535
O O6 0.699836 0.380451 0.628755
O O7 0.887166 0.524721 0.770440
O O8 0.445117 0.217383 0.381177
O O9 0.561005 0.931984 0.484289
O O10 0.890747 0.896827 0.253067
O O11 0.000000 0.027294 0.250000
O O12 0.775001 0.099535 0.106755
O O13 0.083249 0.966810 0.622050
O O14 0.265143 0.158354 0.783584
O O15 0.749863 0.143620 0.199758
#
# Coordination Sequence:
#
# PCOD9272305 Si02
#       7
#     8   8   8   8   8   8   8
#     4  12  22  42  69  97 131 176 225 279 336 413
#     4  11  24  44  67  97 140 185 220 286 350 400
#     4  11  23  41  70  98 134 181 228 281 350 403
#     4  11  20  39  67  98 130 171 228 276 344 402
#     4  10  20  36  68  91 127 179 223 279 338 403
#     4  11  25  42  68 103 136 178 231 287 338 414
#     4  10  20  40  65  93 133 178 231 276 341 401
#
# _framework density 25.746289000000001
#
# number of rings (size 3 to 8) (size 9 to 14) (size 15 to 20)
#    0.000    1.143    7.143    0.429    0.000    4.000 
#    2.571    0.000    0.000    5.143    0.000    0.000 
#    0.000    0.000    0.000    0.000    0.000    0.000 
#
# Total GULP energy -155981.346404 kJ/mol
# GULP energy per Si atom -5570.762372 kJ/mol
# Density = 2.568769 g / cm^3
# Si number density = 25.746289 Si / 1000 Ang^3
#
#
#
# Elastic Constant Matrix: (Units=GPa)
#
#
# Indices 1 2 3 4 5 6 
#
# 1 132.6528 39.7072 20.1184 0.0000 -6.1519 0.0000
# 2 39.7072 96.9276 15.5346 0.0000 13.8793 0.0000
# 3 20.1184 15.5346 39.1885 0.0000 7.6931 0.0000
# 4 0.0000 0.0000 0.0000 20.6825 0.0000 8.1114
# 5 -6.1519 13.8793 7.6931 0.0000 31.1548 0.0000
# 6 0.0000 0.0000 0.0000 8.1114 0.0000 70.6946
#
#
#
# Elastic Compliance Matrix: (Units=1/GPa)
#
#
# Indices 1 2 3 4 5 6 
#
# 1 0.009576 -0.003907 -0.004288 0.000000 0.004690 0.000000
# 2 -0.003907 0.013113 -0.001991 0.000000 -0.006122 0.000000
# 3 -0.004288 -0.001991 0.029952 0.000000 -0.007356 0.000000
# 4 0.000000 0.000000 0.000000 0.050628 0.000000 -0.005809
# 5 0.004690 -0.006122 -0.007356 0.000000 0.037568 0.000000
# 6 0.000000 0.000000 0.000000 -0.005809 0.000000 0.014812
#
#
# Mechanical properties :
#
#
# Convention : Reuss Voigt Hill
#
# Bulk Modulus (GPa) = 30.98865 46.60992 38.79929
# Shear Modulus (GPa) = 26.76991 37.40031 32.08511
#
# Velocity S-wave (km/s) = 3.22803 3.81550 3.53399
# Velocity P-wave (km/s) = 5.09469 6.12809 5.63513
#
# Compressibility (1/GPa) = 0.03226988
#
# Stress axis : x y z
#
# Youngs Moduli (GPa) = 104.42917 76.25885 33.38664
#
# Poissons Ratio (x) = 0.29796 0.14316
# Poissons Ratio (y) = 0.40803 0.06646
# Poissons Ratio (z) = 0.44778 0.15179
#
# Static dielectric constant tensor:
#      x y z
#    x 2.002000 0.000000 0.149300 
#    y 0.000000 2.133310 0.000000 
#    z 0.149300 0.000000 2.301650 
# 
# From -- ./inp_files/281535.got.cif
#   From: 2010.05.17/outbox.cif.g08.bks.cpg/sg15_141_cif.got.tgz:281535.got - 2010.06.03 18:47:42.
