data_PCOD9272721
_publ_section_title
;
Structure prediction by ZEFSAII (Michael W. Deem and Ramdas Pophale) SiO2 
 PCOD9272721
Probable space group: C 2/C
;
_chemical_formula_sum "Si O2"
_cell_formula_units_Z 60
_cell_length_a 17.572719
_cell_length_b 18.580282
_cell_length_c 18.210991
_cell_angle_alpha 90.000000
_cell_angle_beta 149.337855
_cell_angle_gamma 90.000000
_cell_volume 3032.309192
_symmetry_space_group_name_H-M "C 2/C"
_symmetry_group_IT_number 15
_symmetry_cell_setting 'monoclinic'
loop_
_space_group_symop_operation_xyz
x,y,z
-x,y,1/2-z
-x,-y,-z
x,-y,1/2+z
1/2+x,1/2+y,z
1/2-x,1/2+y,1/2-z
1/2-x,1/2-y,-z
1/2+x,1/2-y,1/2+z
loop_
_atom_site_type_symbol
_atom_site_label
_atom_site_fract_x
_atom_site_fract_y
_atom_site_fract_z
Si Si1 0.078249 0.594476 0.127047
Si Si2 0.000000 0.800587 0.750000
Si Si3 0.152885 0.473837 0.530668
Si Si4 0.237861 0.091027 0.517945
Si Si5 0.407885 0.393999 0.937821
Si Si6 0.977024 0.992436 0.859333
Si Si7 0.002790 0.265723 0.494442
Si Si8 0.314873 0.199932 0.703085
O O1 0.107866 0.570490 0.066565
O O2 0.234353 0.585104 0.298549
O O3 0.037439 0.678184 0.087448
O O4 0.951298 0.543727 0.054484
O O5 0.872524 0.849434 0.608545
O O6 0.921409 0.751437 0.744717
O O7 0.145359 0.430013 0.448388
O O8 0.327550 0.492592 0.687740
O O9 0.296648 0.126913 0.641594
O O10 0.130397 0.023841 0.445436
O O11 0.459365 0.425795 0.901853
O O12 0.505252 0.435677 0.078483
O O13 0.428359 0.309006 0.956713
O O14 0.157108 0.240318 0.584119
O O15 0.893004 0.305892 0.346601
#
# Coordination Sequence:
#
# PCOD9272721 Si02
#       8
#     8   4   8   8   8   8   8   8
#     4  10  23  40  58  85 122 157 210 260 308 363
#     4  12  22  38  52  88 132 164 192 246 306 378
#     4  10  22  39  59  83 120 167 208 254 303 368
#     4  12  22  39  61  86 127 169 204 252 312 375
#     4  10  21  38  60  87 121 158 208 266 306 369
#     4  10  20  37  60  84 117 163 211 249 310 372
#     4  12  23  40  62  89 125 163 208 259 318 369
#     4  12  25  36  58  92 125 167 203 246 312 386
#
# _framework density 19.786899999999999
#
# number of rings (size 3 to 8) (size 9 to 14) (size 15 to 20)
#    0.000    1.067    5.333    1.200    3.733    2.133 
#    0.000    0.000    0.000    0.800    0.000    0.000 
#    0.000    0.000    0.000    0.000    0.000    0.000 
#
# Total GULP energy -167708.135776 kJ/mol
# GULP energy per Si atom -5590.271193 kJ/mol
# Density = 1.974186 g / cm^3
# Si number density = 19.786900 Si / 1000 Ang^3
#
#
#
# Elastic Constant Matrix: (Units=GPa)
#
#
# Indices 1 2 3 4 5 6 
#
# 1 50.9868 22.8678 12.6118 0.0017 16.3571 0.0027
# 2 22.8678 83.1120 29.5533 0.0025 9.6460 0.0033
# 3 12.6118 29.5533 74.8261 0.0020 4.7590 0.0049
# 4 0.0017 0.0025 0.0020 10.3572 0.0012 9.9655
# 5 16.3571 9.6460 4.7590 0.0012 18.7071 0.0024
# 6 0.0027 0.0033 0.0049 9.9655 0.0024 30.3946
#
#
#
# Elastic Compliance Matrix: (Units=1/GPa)
#
#
# Indices 1 2 3 4 5 6 
#
# 1 0.029556 -0.004910 -0.001586 -0.000001 -0.022909 0.000000
# 2 -0.004910 0.015486 -0.005137 -0.000002 -0.002386 0.000000
# 3 -0.001586 -0.005137 0.015657 0.000000 0.000052 -0.000002
# 4 -0.000001 -0.000002 0.000000 0.141048 -0.000001 -0.046245
# 5 -0.022909 -0.002386 0.000052 -0.000001 0.074703 -0.000003
# 6 0.000000 0.000000 -0.000002 -0.046245 -0.000003 0.048063
#
#
# Mechanical properties :
#
#
# Convention : Reuss Voigt Hill
#
# Bulk Modulus (GPa) = 26.71292 37.66563 32.18928
# Shear Modulus (GPa) = 13.87895 21.48459 17.68177
#
# Velocity S-wave (km/s) = 2.65131 3.29872 2.99257
# Velocity P-wave (km/s) = 4.78562 5.79532 5.31450
#
# Compressibility (1/GPa) = 0.03743507
#
# Stress axis : x y z
#
# Youngs Moduli (GPa) = 33.83359 64.57270 63.86819
#
# Poissons Ratio (x) = 0.31703 0.10127
# Poissons Ratio (y) = 0.16611 0.32811
# Poissons Ratio (z) = 0.05364 0.33173
#
# Static dielectric constant tensor:
#      x y z
#    x 1.706400 0.000000 -0.000030 
#    y 0.000000 1.695080 0.000000 
#    z -0.000030 0.000000 1.714810 
# 
# From -- ./inp_files/211773.got.cif
#   From: 2010.05.17/outbox.cif.g08.bks.cpg/sg15_106_cif.got.tgz:211773.got - 2010.06.03 18:47:42.
