data_PCOD9272564
_publ_section_title
;
Structure prediction by ZEFSAII (Michael W. Deem and Ramdas Pophale) SiO2 
 PCOD9272564
Probable space group: C 2/C
;
_chemical_formula_sum "Si O2"
_cell_formula_units_Z 44
_cell_length_a 17.067867
_cell_length_b 13.527722
_cell_length_c 26.822776
_cell_angle_alpha 90.000000
_cell_angle_beta 19.510322
_cell_angle_gamma 90.000000
_cell_volume 2068.348792
_symmetry_space_group_name_H-M "C 2/C"
_symmetry_group_IT_number 15
_symmetry_cell_setting 'monoclinic'
loop_
_space_group_symop_operation_xyz
x,y,z
-x,y,1/2-z
-x,-y,-z
x,-y,1/2+z
1/2+x,1/2+y,z
1/2-x,1/2+y,1/2-z
1/2-x,1/2-y,-z
1/2+x,1/2-y,1/2+z
loop_
_atom_site_type_symbol
_atom_site_label
_atom_site_fract_x
_atom_site_fract_y
_atom_site_fract_z
Si Si1 0.504799 0.242535 0.439851
Si Si2 0.370856 0.611558 0.935506
Si Si3 0.121268 0.609940 0.747677
Si Si4 0.369311 0.085818 0.203605
Si Si5 0.355231 0.418831 0.009368
Si Si6 0.500000 0.319684 0.250000
O O1 0.489120 0.304602 0.397751
O O2 0.707580 0.297687 0.348154
O O3 0.573013 0.130358 0.385250
O O4 0.237520 0.241312 0.618628
O O5 0.413211 0.508215 0.937438
O O6 0.447272 0.619114 0.832220
O O7 0.087539 0.622270 0.106158
O O8 0.121253 0.532409 0.793120
O O9 0.237730 0.548714 0.631934
O O10 0.857273 0.639105 0.890165
O O11 0.108077 0.125317 0.370702
#
# Coordination Sequence:
#
# PCOD9272564 Si02
#       6
#     8   8   8   8   8   4
#     4  11  23  36  63  93 120 160 199 251 305 345
#     4  10  22  37  58  92 118 159 198 249 303 346
#     4  10  22  37  60  97 118 159 202 245 302 357
#     4  10  20  37  58  86 125 155 197 247 298 354
#     4  10  21  38  63  86 125 155 202 246 298 361
#     4  10  22  38  58  92 124 150 208 250 300 356
#
# _framework density 21.273008000000001
#
# number of rings (size 3 to 8) (size 9 to 14) (size 15 to 20)
#    0.000    1.818    1.818    2.727    5.091    2.182 
#    0.000    3.636    0.000    0.000    0.000    0.000 
#    0.000    0.000    0.000    0.000    0.000    0.000 
#
# Total GULP energy -122503.110751 kJ/mol
# GULP energy per Si atom -5568.323216 kJ/mol
# Density = 2.122459 g / cm^3
# Si number density = 21.273008 Si / 1000 Ang^3
#
#
#
# Elastic Constant Matrix: (Units=GPa)
#
#
# Indices 1 2 3 4 5 6 
#
# 1 83.9717 26.2830 43.5795 -0.0415 -14.7482 0.0176
# 2 26.2830 41.8075 12.3008 0.0219 5.9766 0.0495
# 3 43.5795 12.3008 102.9611 0.0111 -17.5443 0.1371
# 4 -0.0415 0.0219 0.0111 27.1953 0.0919 -1.9938
# 5 -14.7482 5.9766 -17.5443 0.0919 48.7252 -0.0225
# 6 0.0176 0.0495 0.1371 -1.9938 -0.0225 18.6886
#
#
#
# Elastic Compliance Matrix: (Units=1/GPa)
#
#
# Indices 1 2 3 4 5 6 
#
# 1 0.019419 -0.011163 -0.006020 0.000029 0.005079 0.000065
# 2 -0.011163 0.032116 -0.000382 -0.000024 -0.007456 -0.000083
# 3 -0.006020 -0.000382 0.012788 -0.000030 0.002829 -0.000087
# 4 0.000029 -0.000024 -0.000030 0.037061 -0.000067 0.003954
# 5 0.005079 -0.007456 0.002829 -0.000067 0.023994 0.000016
# 6 0.000065 -0.000083 -0.000087 0.003954 0.000016 0.053931
#
#
# Mechanical properties :
#
#
# Convention : Reuss Voigt Hill
#
# Bulk Modulus (GPa) = 34.25623 43.67410 38.96516
# Shear Modulus (GPa) = 22.30425 28.69359 25.49892
#
# Velocity S-wave (km/s) = 3.24153 3.67662 3.46591
# Velocity P-wave (km/s) = 5.49073 6.21275 5.86287
#
# Compressibility (1/GPa) = 0.02919177
#
# Stress axis : x y z
#
# Youngs Moduli (GPa) = 51.49485 31.13754 78.19528
#
# Poissons Ratio (x) = 0.34760 0.47077
# Poissons Ratio (y) = 0.57485 0.02989
# Poissons Ratio (z) = 0.31002 0.01190
#
# Static dielectric constant tensor:
#      x y z
#    x 1.804440 0.000000 -0.015160 
#    y 0.000000 1.831260 0.000050 
#    z -0.015160 0.000050 1.808170 
# 
# From -- ./inp_files/299140.got.cif
#   From: 2010.05.17/outbox.cif.g08.bks.cpg/sg15_150_cif.got.tgz:299140.got - 2010.06.03 18:47:42.
