data_PCOD9272941
_publ_section_title
;
Structure prediction by ZEFSAII (Michael W. Deem and Ramdas Pophale) SiO2 
 PCOD9272941
Probable space group: C 2/C
;
_chemical_formula_sum "Si O2"
_cell_formula_units_Z 52
_cell_length_a 5.687411
_cell_length_b 16.280935
_cell_length_c 24.112838
_cell_angle_alpha 90.000000
_cell_angle_beta 107.310956
_cell_angle_gamma 90.000000
_cell_volume 2131.625905
_symmetry_space_group_name_H-M "C 2/C"
_symmetry_group_IT_number 15
_symmetry_cell_setting 'monoclinic'
loop_
_space_group_symop_operation_xyz
x,y,z
-x,y,1/2-z
-x,-y,-z
x,-y,1/2+z
1/2+x,1/2+y,z
1/2-x,1/2+y,1/2-z
1/2-x,1/2-y,-z
1/2+x,1/2-y,1/2+z
loop_
_atom_site_type_symbol
_atom_site_label
_atom_site_fract_x
_atom_site_fract_y
_atom_site_fract_z
Si Si1 0.466719 0.516169 0.072685
Si Si2 0.357075 0.288987 0.562344
Si Si3 0.759111 0.775411 0.164746
Si Si4 0.593074 0.153152 0.145082
Si Si5 0.500000 0.714338 0.250000
Si Si6 0.076806 0.061777 0.817144
Si Si7 0.487229 0.977759 0.086906
O O1 0.440079 0.614579 0.062162
O O2 0.526711 0.496822 0.142219
O O3 0.693997 0.471193 0.057021
O O4 0.194016 0.472755 0.052377
O O5 0.250000 0.250000 0.500000
O O6 0.573017 0.230531 0.600183
O O7 0.155142 0.289289 0.597081
O O8 0.633508 0.773335 0.215387
O O9 0.974657 0.842415 0.175430
O O10 0.883282 0.686443 0.169313
O O11 0.514632 0.070009 0.111189
O O12 0.831692 0.155871 0.200209
O O13 0.000000 0.040063 0.750000
O O14 0.373672 0.067794 0.852021
#
# Coordination Sequence:
#
# PCOD9272941 Si02
#       7
#     8   8   8   8   4   8   8
#     4   9  20  41  59  91 124 166 217 265 320 390
#     4  10  22  41  66  95 127 175 228 281 330 387
#     4  11  22  41  61  94 129 166 220 268 337 392
#     4  10  20  37  61  91 122 169 217 270 323 392
#     4  10  22  34  60  88 130 160 210 270 326 400
#     4  10  23  37  59  94 130 175 206 269 331 409
#     4   9  20  37  59  84 128 161 209 257 314 387
#
# _framework density 24.394523
#
# number of rings (size 3 to 8) (size 9 to 14) (size 15 to 20)
#    0.923    1.231    1.538    1.385    1.077    4.923 
#    2.769    0.769    0.000    1.846    0.000    0.000 
#    0.000    0.000    0.000    0.000    0.000    0.000 
#
# Total GULP energy -144825.055289 kJ/mol
# GULP energy per Si atom -5570.194434 kJ/mol
# Density = 2.433900 g / cm^3
# Si number density = 24.394523 Si / 1000 Ang^3
#
#
#
# Elastic Constant Matrix: (Units=GPa)
#
#
# Indices 1 2 3 4 5 6 
#
# 1 102.9831 6.4784 54.3696 0.0000 3.8549 0.0000
# 2 6.4784 54.7772 34.5826 0.0000 -3.0641 0.0000
# 3 54.3696 34.5826 119.0506 0.0000 -6.8148 0.0000
# 4 0.0000 0.0000 0.0000 32.3550 0.0000 1.9213
# 5 3.8549 -3.0641 -6.8148 0.0000 35.1421 0.0000
# 6 0.0000 0.0000 0.0000 1.9213 0.0000 13.8026
#
#
#
# Elastic Compliance Matrix: (Units=1/GPa)
#
#
# Indices 1 2 3 4 5 6 
#
# 1 0.013350 0.002717 -0.007035 0.000000 -0.002592 0.000000
# 2 0.002717 0.022926 -0.007891 0.000000 0.000171 0.000000
# 3 -0.007035 -0.007891 0.014066 0.000000 0.002811 0.000000
# 4 0.000000 0.000000 0.000000 0.031165 0.000000 -0.004338
# 5 -0.002592 0.000171 0.002811 0.000000 0.029300 0.000000
# 6 0.000000 0.000000 0.000000 -0.004338 0.000000 0.073054
#
#
# Mechanical properties :
#
#
# Convention : Reuss Voigt Hill
#
# Bulk Modulus (GPa) = 38.57243 51.96356 45.26800
# Shear Modulus (GPa) = 23.05013 28.35198 25.70106
#
# Velocity S-wave (km/s) = 3.07724 3.41284 3.24938
# Velocity P-wave (km/s) = 5.33593 6.07269 5.71619
#
# Compressibility (1/GPa) = 0.02592525
#
# Stress axis : x y z
#
# Youngs Moduli (GPa) = 74.90423 43.61918 71.09533
#
# Poissons Ratio (x) = -0.11853 0.50014
# Poissons Ratio (y) = -0.20354 0.56100
# Poissons Ratio (z) = 0.52693 0.34419
#
# Static dielectric constant tensor:
#      x y z
#    x 2.087290 0.000000 0.079980 
#    y 0.000000 2.379290 0.000000 
#    z 0.079980 0.000000 1.961590 
# 
# From -- ./inp_files/261431.got.cif
#   From: 2010.05.17/outbox.cif.g08.bks.cpg/sg15_131_cif.got.tgz:261431.got - 2010.06.03 18:47:42.
