data_PCOD9272553
_publ_section_title
;
Structure prediction by ZEFSAII (Michael W. Deem and Ramdas Pophale) SiO2 
 PCOD9272553
Probable space group: C 2/C
;
_chemical_formula_sum "Si O2"
_cell_formula_units_Z 56
_cell_length_a 15.804547
_cell_length_b 19.253354
_cell_length_c 19.975062
_cell_angle_alpha 90.000000
_cell_angle_beta 29.110293
_cell_angle_gamma 90.000000
_cell_volume 2957.008640
_symmetry_space_group_name_H-M "C 2/C"
_symmetry_group_IT_number 15
_symmetry_cell_setting 'monoclinic'
loop_
_space_group_symop_operation_xyz
x,y,z
-x,y,1/2-z
-x,-y,-z
x,-y,1/2+z
1/2+x,1/2+y,z
1/2-x,1/2+y,1/2-z
1/2-x,1/2-y,-z
1/2+x,1/2-y,1/2+z
loop_
_atom_site_type_symbol
_atom_site_label
_atom_site_fract_x
_atom_site_fract_y
_atom_site_fract_z
Si Si1 0.799190 0.290443 0.897821
Si Si2 0.405080 0.644017 0.145408
Si Si3 0.495142 0.388785 0.073052
Si Si4 0.449768 0.521968 0.386219
Si Si5 0.690465 0.211348 0.837742
Si Si6 0.791251 0.502973 0.562363
Si Si7 0.452184 0.102180 0.052204
O O1 0.764377 0.244603 0.855152
O O2 0.000000 0.311394 0.750000
O O3 0.750000 0.250000 0.000000
O O4 0.664302 0.353513 0.989213
O O5 0.527340 0.603460 0.113221
O O6 0.357002 0.725509 0.179382
O O7 0.219553 0.606793 0.284724
O O8 0.487024 0.627345 0.017229
O O9 0.514436 0.470092 0.076678
O O10 0.325431 0.347037 0.217620
O O11 0.270184 0.508393 0.470976
O O12 0.611661 0.500737 0.227249
O O13 0.511845 0.175242 0.982511
O O14 0.912928 0.445741 0.514584
O O15 0.892469 0.573193 0.509319
#
# Coordination Sequence:
#
# PCOD9272553 Si02
#       7
#     8   8   8   8   8   8   8
#     4  11  23  35  52  86 120 150 190 241 296 354
#     4  10  22  37  56  85 117 153 193 237 287 352
#     4  11  22  35  57  85 116 155 187 238 297 352
#     4  10  20  37  58  85 116 152 193 240 295 348
#     4  11  22  37  59  82 115 157 191 238 292 353
#     4   9  20  36  62  85 110 147 199 245 287 345
#     4  10  20  38  61  85 109 150 199 242 286 349
#
# _framework density 18.938058000000002
#
# number of rings (size 3 to 8) (size 9 to 14) (size 15 to 20)
#    0.000    1.714    2.857    2.143    4.000    0.000 
#    0.000    0.714    0.000    1.714    0.000    0.000 
#    0.000    0.000    0.000    0.000    0.000    0.000 
#
# Total GULP energy -155954.282088 kJ/mol
# GULP energy per Si atom -5569.795789 kJ/mol
# Density = 1.889495 g / cm^3
# Si number density = 18.938058 Si / 1000 Ang^3
#
#
#
# Elastic Constant Matrix: (Units=GPa)
#
#
# Indices 1 2 3 4 5 6 
#
# 1 60.4363 24.7050 14.4186 0.0018 -12.7469 0.0034
# 2 24.7050 66.3783 4.9595 0.0047 -6.6923 0.0132
# 3 14.4186 4.9595 61.8275 0.0141 3.1349 0.0050
# 4 0.0018 0.0047 0.0141 9.4819 -0.0022 25.7630
# 5 -12.7469 -6.6923 3.1349 -0.0022 19.7240 -0.0033
# 6 0.0034 0.0132 0.0050 25.7630 -0.0033 -11.2698
#
#
#
# Elastic Compliance Matrix: (Units=1/GPa)
#
#
# Indices 1 2 3 4 5 6 
#
# 1 0.023671 -0.006993 -0.005660 0.000004 0.013825 0.000002
# 2 -0.006993 0.017810 0.000126 -0.000008 0.001503 0.000000
# 3 -0.005660 0.000126 0.017811 -0.000007 -0.006446 -0.000007
# 4 0.000004 -0.000008 -0.000007 0.014625 0.000008 0.033433
# 5 0.013825 0.001503 -0.006446 0.000008 0.061169 0.000004
# 6 0.000002 0.000000 -0.000007 0.033433 0.000004 -0.012305
#
#
# Mechanical properties :
#
#
# Convention : Reuss Voigt Hill
#
# Bulk Modulus (GPa) = 29.20821 30.75648 29.98234
# Shear Modulus (GPa) = 31.39738 13.22448 22.31093
#
# Velocity S-wave (km/s) = 4.07615 2.64541 3.43607
# Velocity P-wave (km/s) = 6.13268 5.06031 5.62212
#
# Compressibility (1/GPa) = 0.03423695
#
# Stress axis : x y z
#
# Youngs Moduli (GPa) = 42.24519 56.14782 56.14566
#
# Poissons Ratio (x) = 0.39266 0.31780
# Poissons Ratio (y) = 0.29544 -0.00708
# Poissons Ratio (z) = 0.23912 -0.00708
#
# Static dielectric constant tensor:
#      x y z
#    x 1.688120 0.000000 0.013850 
#    y 0.000000 1.722260 0.000000 
#    z 0.013850 0.000000 1.645210 
# 
# From -- ./inp_files/41253.got.cif
#   From: 2010.05.17/outbox.cif.g08.bks.cpg/sg15_21_cif.got.tgz:41253.got - 2010.06.03 18:47:42.
