data_PCOD9272725
_publ_section_title
;
Structure prediction by ZEFSAII (Michael W. Deem and Ramdas Pophale) SiO2 
 PCOD9272725
Probable space group: C 2/C
;
_chemical_formula_sum "Si O2"
_cell_formula_units_Z 56
_cell_length_a 23.509792
_cell_length_b 24.008644
_cell_length_c 5.031893
_cell_angle_alpha 90.000000
_cell_angle_beta 102.573945
_cell_angle_gamma 90.000000
_cell_volume 2772.073183
_symmetry_space_group_name_H-M "C 2/C"
_symmetry_group_IT_number 15
_symmetry_cell_setting 'monoclinic'
loop_
_space_group_symop_operation_xyz
x,y,z
-x,y,1/2-z
-x,-y,-z
x,-y,1/2+z
1/2+x,1/2+y,z
1/2-x,1/2+y,1/2-z
1/2-x,1/2-y,-z
1/2+x,1/2-y,1/2+z
loop_
_atom_site_type_symbol
_atom_site_label
_atom_site_fract_x
_atom_site_fract_y
_atom_site_fract_z
Si Si1 0.764147 0.963022 0.895547
Si Si2 0.366539 0.962255 0.664048
Si Si3 0.135220 0.123984 0.989827
Si Si4 0.114314 0.274873 0.466929
Si Si5 0.815344 0.751624 0.959463
Si Si6 0.934167 0.850680 0.589163
Si Si7 0.462509 0.123089 0.471913
O O1 0.699143 0.938822 0.869403
O O2 0.816078 0.921597 0.016527
O O3 0.767949 0.984597 0.598450
O O4 0.414566 0.918597 0.803887
O O5 0.371790 0.985188 0.370765
O O6 0.166725 0.183732 0.026922
O O7 0.106888 0.116553 0.248114
O O8 0.083919 0.128981 0.720848
O O9 0.166298 0.274671 0.303319
O O10 0.082076 0.215142 0.407015
O O11 0.069010 0.325081 0.414505
O O12 0.143440 0.277293 0.783876
O O13 0.750000 0.750000 0.000000
O O14 0.000000 0.857906 0.750000
O O15 0.500000 0.140782 0.250000
O O16 0.500000 0.096065 0.750000
#
# Coordination Sequence:
#
# PCOD9272725 Si02
#       7
#     8   8   8   8   8   8   8
#     4  10  21  40  63  86 116 151 195 249 299 357
#     4  10  23  42  61  86 114 156 205 253 311 354
#     4  10  21  36  60  90 112 154 197 234 297 348
#     4  10  22  38  56  87 121 159 199 236 292 359
#     4  10  21  37  57  89 122 155 190 243 303 355
#     4  10  20  37  60  84 121 156 194 233 276 357
#     4  12  25  40  61  89 120 163 207 252 302 349
#
# _framework density 20.201485000000002
#
# number of rings (size 3 to 8) (size 9 to 14) (size 15 to 20)
#    0.000    1.714    0.000    3.857    2.000    4.000 
#    5.143    0.000    0.000    8.571    0.000    0.000 
#    0.000    0.000    0.000    0.000    0.000    0.000 
#
# Total GULP energy -156385.227616 kJ/mol
# GULP energy per Si atom -5585.186701 kJ/mol
# Density = 2.015551 g / cm^3
# Si number density = 20.201485 Si / 1000 Ang^3
#
#
#
# Elastic Constant Matrix: (Units=GPa)
#
#
# Indices 1 2 3 4 5 6 
#
# 1 64.2557 23.4554 -4.4466 0.0000 12.6054 0.0000
# 2 23.4554 25.7229 0.0907 0.0000 8.0870 0.0000
# 3 -4.4466 0.0907 43.4543 0.0000 -5.0816 0.0000
# 4 0.0000 0.0000 0.0000 16.9572 0.0000 3.4234
# 5 12.6054 8.0870 -5.0816 0.0000 38.7597 0.0000
# 6 0.0000 0.0000 0.0000 3.4234 0.0000 17.9747
#
#
#
# Elastic Compliance Matrix: (Units=1/GPa)
#
#
# Indices 1 2 3 4 5 6 
#
# 1 0.023937 -0.020842 0.002124 0.000000 -0.003158 0.000000
# 2 -0.020842 0.059805 -0.002970 0.000000 -0.006089 0.000000
# 3 0.002124 -0.002970 0.023590 0.000000 0.003022 0.000000
# 4 0.000000 0.000000 0.000000 0.061330 0.000000 -0.011681
# 5 -0.003158 -0.006089 0.003022 0.000000 0.028494 0.000000
# 6 0.000000 0.000000 0.000000 -0.011681 0.000000 0.057858
#
#
# Mechanical properties :
#
#
# Convention : Reuss Voigt Hill
#
# Bulk Modulus (GPa) = 15.63560 19.07020 17.35290
# Shear Modulus (GPa) = 15.63925 22.36055 18.99990
#
# Velocity S-wave (km/s) = 2.78540 3.33058 3.07012
# Velocity P-wave (km/s) = 4.25455 4.92452 4.60174
#
# Compressibility (1/GPa) = 0.06395659
#
# Stress axis : x y z
#
# Youngs Moduli (GPa) = 41.77600 16.72093 42.39169
#
# Poissons Ratio (x) = 0.34849 -0.09003
# Poissons Ratio (y) = 0.87069 0.12589
# Poissons Ratio (z) = -0.08872 0.04965
#
# Static dielectric constant tensor:
#      x y z
#    x 1.720070 0.000000 0.000890 
#    y 0.000000 1.716250 0.000000 
#    z 0.000890 0.000000 1.701290 
# 
# From -- ./inp_files/13942.got.cif
#   From: 2010.05.17/outbox.cif.g08.bks.cpg/sg15_7_cif.got.tgz:13942.got - 2010.06.03 18:47:42.
