data_PCOD9272546
_publ_section_title
;
Structure prediction by ZEFSAII (Michael W. Deem and Ramdas Pophale) SiO2 
 PCOD9272546
Probable space group: C 2/C
;
_chemical_formula_sum "Si O2"
_cell_formula_units_Z 56
_cell_length_a 28.218393
_cell_length_b 18.680396
_cell_length_c 18.547620
_cell_angle_alpha 90.000000
_cell_angle_beta 160.989596
_cell_angle_gamma 90.000000
_cell_volume 3184.765241
_symmetry_space_group_name_H-M "C 2/C"
_symmetry_group_IT_number 15
_symmetry_cell_setting 'monoclinic'
loop_
_space_group_symop_operation_xyz
x,y,z
-x,y,1/2-z
-x,-y,-z
x,-y,1/2+z
1/2+x,1/2+y,z
1/2-x,1/2+y,1/2-z
1/2-x,1/2-y,-z
1/2+x,1/2-y,1/2+z
loop_
_atom_site_type_symbol
_atom_site_label
_atom_site_fract_x
_atom_site_fract_y
_atom_site_fract_z
Si Si1 0.343265 0.617469 0.386507
Si Si2 0.148555 0.953910 0.314251
Si Si3 0.778963 0.541028 0.153502
Si Si4 0.103867 0.576092 0.571195
Si Si5 0.307219 0.803589 0.522398
Si Si6 0.371328 0.219925 0.959865
Si Si7 0.848431 0.467838 0.991287
O O1 0.480413 0.567316 0.563176
O O2 0.297532 0.596010 0.401944
O O3 0.380774 0.701376 0.439803
O O4 0.211649 0.596581 0.144253
O O5 0.180661 0.974708 0.442961
O O6 0.236136 0.880477 0.427895
O O7 0.222994 0.009761 0.367272
O O8 0.813153 0.470044 0.248952
O O9 0.934029 0.572522 0.349570
O O10 0.164162 0.655919 0.646001
O O11 0.123517 0.533143 0.524270
O O12 0.250000 0.750000 0.500000
O O13 0.475601 0.805761 0.786660
O O14 0.276997 0.777252 0.397494
O O15 0.000000 0.453526 0.250000
#
# Coordination Sequence:
#
# PCOD9272546 Si02
#       7
#     8   8   8   8   8   8   8
#     4  11  25  34  56  88 118 145 186 241 295 339
#     4  12  20  37  58  86 115 147 184 240 288 343
#     4  10  21  35  57  85 114 153 191 233 275 347
#     4  10  20  37  58  84 111 156 197 226 281 341
#     4  11  20  31  53  82 119 147 173 226 299 352
#     4  11  21  34  52  85 118 149 183 232 286 346
#     4  11  21  41  60  79 108 155 202 231 277 343
#
# _framework density 17.583714000000001
#
# number of rings (size 3 to 8) (size 9 to 14) (size 15 to 20)
#    0.000    1.143    5.714    1.714    2.000    0.000 
#    0.000    0.000    0.000    4.286    0.000    0.000 
#    0.000    0.000    0.000    0.000    0.000    0.000 
#
# Total GULP energy -156204.172229 kJ/mol
# GULP energy per Si atom -5578.720437 kJ/mol
# Density = 1.754369 g / cm^3
# Si number density = 17.583714 Si / 1000 Ang^3
#
#
#
# Elastic Constant Matrix: (Units=GPa)
#
#
# Indices 1 2 3 4 5 6 
#
# 1 96.6461 29.3698 24.6248 0.0000 -7.0276 0.0000
# 2 29.3698 62.6189 18.9363 0.0000 -4.1236 0.0000
# 3 24.6248 18.9363 69.5079 0.0000 -9.0646 0.0000
# 4 0.0000 0.0000 0.0000 14.3757 0.0000 6.1199
# 5 -7.0276 -4.1236 -9.0646 0.0000 23.9700 0.0000
# 6 0.0000 0.0000 0.0000 6.1199 0.0000 22.4997
#
#
#
# Elastic Compliance Matrix: (Units=1/GPa)
#
#
# Indices 1 2 3 4 5 6 
#
# 1 0.012732 -0.004970 -0.002925 0.000000 0.001771 0.000000
# 2 -0.004970 0.019380 -0.003444 0.000000 0.000574 0.000000
# 3 -0.002925 -0.003444 0.017011 0.000000 0.004983 0.000000
# 4 0.000000 0.000000 0.000000 0.078672 0.000000 -0.021398
# 5 0.001771 0.000574 0.004983 0.000000 0.044221 0.000000
# 6 0.000000 0.000000 0.000000 -0.021398 0.000000 0.050265
#
#
# Mechanical properties :
#
#
# Convention : Reuss Voigt Hill
#
# Bulk Modulus (GPa) = 37.81614 41.62608 39.72111
# Shear Modulus (GPa) = 19.70248 22.55854 21.13051
#
# Velocity S-wave (km/s) = 3.35101 3.58568 3.47033
# Velocity P-wave (km/s) = 6.04363 6.39275 6.22064
#
# Compressibility (1/GPa) = 0.02644373
#
# Stress axis : x y z
#
# Youngs Moduli (GPa) = 78.54491 51.59947 58.78424
#
# Poissons Ratio (x) = 0.25645 0.17197
# Poissons Ratio (y) = 0.39038 0.20246
# Poissons Ratio (z) = 0.22978 0.17771
#
# Static dielectric constant tensor:
#      x y z
#    x 1.676010 0.000000 0.065390 
#    y 0.000000 1.562110 0.000000 
#    z 0.065390 0.000000 1.615320 
# 
# From -- ./inp_files/222970.got.cif
#   From: 2010.05.17/outbox.cif.g08.bks.cpg/sg15_112_cif.got.tgz:222970.got - 2010.06.03 18:47:42.
