data_PCOD9272958
_publ_section_title
;
Structure prediction by ZEFSAII (Michael W. Deem and Ramdas Pophale) SiO2 
 PCOD9272958
Probable space group: C 2/C
;
_chemical_formula_sum "Si O2"
_cell_formula_units_Z 60
_cell_length_a 24.547648
_cell_length_b 20.292638
_cell_length_c 8.108805
_cell_angle_alpha 90.000000
_cell_angle_beta 44.116187
_cell_angle_gamma 90.000000
_cell_volume 2811.814397
_symmetry_space_group_name_H-M "C 2/C"
_symmetry_group_IT_number 15
_symmetry_cell_setting 'monoclinic'
loop_
_space_group_symop_operation_xyz
x,y,z
-x,y,1/2-z
-x,-y,-z
x,-y,1/2+z
1/2+x,1/2+y,z
1/2-x,1/2+y,1/2-z
1/2-x,1/2-y,-z
1/2+x,1/2-y,1/2+z
loop_
_atom_site_type_symbol
_atom_site_label
_atom_site_fract_x
_atom_site_fract_y
_atom_site_fract_z
Si Si1 0.087782 0.081313 0.821018
Si Si2 0.419297 0.722734 0.522593
Si Si3 0.669358 0.957785 0.543561
Si Si4 0.752526 0.583118 0.303077
Si Si5 0.500000 0.504976 0.750000
Si Si6 0.063244 0.453541 0.494823
Si Si7 0.517232 0.184604 0.023053
Si Si8 0.811651 0.716726 0.993263
O O1 0.092468 0.158571 0.842948
O O2 0.163440 0.068683 0.545040
O O3 0.018051 0.054442 0.859991
O O4 0.070372 0.042648 0.031144
O O5 0.447882 0.785415 0.565134
O O6 0.343236 0.738395 0.577432
O O7 0.500000 0.707088 0.250000
O O8 0.709629 0.913838 0.595038
O O9 0.629517 0.923294 0.473438
O O10 0.719096 0.018075 0.357461
O O11 0.604284 0.996175 0.788887
O O12 0.775969 0.648378 0.147070
O O13 0.021386 0.393732 0.496835
O O14 0.000000 0.486935 0.750000
O O15 0.500000 0.201198 0.250000
O O16 0.604317 0.206425 0.779920
O O17 0.750000 0.750000 0.000000
#
# Coordination Sequence:
#
# PCOD9272958 Si02
#       8
#     8   8   8   8   4   8   8   8
#     4  11  23  44  68 100 123 172 210 276 326 411
#     4  10  24  45  68  95 133 175 222 272 330 397
#     4  10  22  41  60  95 134 167 214 262 329 387
#     4  11  24  42  66  95 133 172 214 270 335 385
#     4  10  24  44  70  98 132 158 222 266 346 390
#     4  10  20  37  61  92 124 170 217 262 308 378
#     4  10  23  42  67  93 132 176 220 274 329 385
#     4  11  26  46  65  97 134 178 226 281 329 395
#
# _framework density 21.338533999999999
#
# number of rings (size 3 to 8) (size 9 to 14) (size 15 to 20)
#    0.000    1.600    2.000    1.200    6.533    2.667 
#    2.400    0.000    0.000    0.000    0.000    0.000 
#    0.000    0.000    0.000    0.000    0.000    0.000 
#
# Total GULP energy -167191.578391 kJ/mol
# GULP energy per Si atom -5573.052613 kJ/mol
# Density = 2.128997 g / cm^3
# Si number density = 21.338534 Si / 1000 Ang^3
#
#
#
# Elastic Constant Matrix: (Units=GPa)
#
#
# Indices 1 2 3 4 5 6 
#
# 1 118.2083 46.8458 -11.0864 0.0000 -0.9078 0.0000
# 2 46.8458 92.8484 20.7820 0.0000 -2.2228 0.0000
# 3 -11.0864 20.7820 76.5177 0.0000 -11.6886 0.0000
# 4 0.0000 0.0000 0.0000 30.0949 0.0000 14.4284
# 5 -0.9078 -2.2228 -11.6886 0.0000 18.8214 0.0000
# 6 0.0000 0.0000 0.0000 14.4284 0.0000 36.5227
#
#
#
# Elastic Compliance Matrix: (Units=1/GPa)
#
#
# Indices 1 2 3 4 5 6 
#
# 1 0.011426 -0.006556 0.003759 0.000000 0.002111 0.000000
# 2 -0.006556 0.015236 -0.005371 0.000000 -0.001852 0.000000
# 3 0.003759 -0.005371 0.016575 0.000000 0.009841 0.000000
# 4 0.000000 0.000000 0.000000 0.040992 0.000000 -0.016194
# 5 0.002111 -0.001852 0.009841 0.000000 0.059125 0.000000
# 6 0.000000 0.000000 0.000000 -0.016194 0.000000 0.033778
#
#
# Mechanical properties :
#
#
# Convention : Reuss Voigt Hill
#
# Bulk Modulus (GPa) = 37.17279 44.51748 40.84514
# Shear Modulus (GPa) = 24.69914 32.49000 28.59457
#
# Velocity S-wave (km/s) = 3.40588 3.90628 3.66463
# Velocity P-wave (km/s) = 5.73803 6.42286 6.09008
#
# Compressibility (1/GPa) = 0.02690140
#
# Stress axis : x y z
#
# Youngs Moduli (GPa) = 87.51647 65.63521 60.33044
#
# Poissons Ratio (x) = 0.43029 -0.22676
# Poissons Ratio (y) = 0.57374 0.32402
# Poissons Ratio (z) = -0.32894 0.35251
#
# Static dielectric constant tensor:
#      x y z
#    x 1.891600 0.000000 -0.008000 
#    y 0.000000 1.777110 0.000000 
#    z -0.008000 0.000000 1.848120 
# 
# From -- ./inp_files/67527.got.cif
#   From: 2010.05.17/outbox.cif.g08.bks.cpg/sg15_34_cif.got.tgz:67527.got - 2010.06.03 18:47:42.
