data_PCOD9272522
_publ_section_title
;
Structure prediction by ZEFSAII (Michael W. Deem and Ramdas Pophale) SiO2 
 PCOD9272522
Probable space group: C 2/C
;
_chemical_formula_sum "Si O2"
_cell_formula_units_Z 56
_cell_length_a 15.500127
_cell_length_b 21.682424
_cell_length_c 8.398077
_cell_angle_alpha 90.000000
_cell_angle_beta 81.858146
_cell_angle_gamma 90.000000
_cell_volume 2793.979691
_symmetry_space_group_name_H-M "C 2/C"
_symmetry_group_IT_number 15
_symmetry_cell_setting 'monoclinic'
loop_
_space_group_symop_operation_xyz
x,y,z
-x,y,1/2-z
-x,-y,-z
x,-y,1/2+z
1/2+x,1/2+y,z
1/2-x,1/2+y,1/2-z
1/2-x,1/2-y,-z
1/2+x,1/2-y,1/2+z
loop_
_atom_site_type_symbol
_atom_site_label
_atom_site_fract_x
_atom_site_fract_y
_atom_site_fract_z
Si Si1 0.476100 0.066239 0.571760
Si Si2 0.773659 0.417456 0.163235
Si Si3 0.906717 0.212999 0.367524
Si Si4 0.003037 0.694367 0.434786
Si Si5 0.808972 0.278991 0.124112
Si Si6 0.091261 0.926512 0.633781
Si Si7 0.684364 0.513934 0.397438
O O1 0.500000 0.073073 0.750000
O O2 0.372732 0.071926 0.587270
O O3 0.520388 0.122574 0.466644
O O4 0.500000 0.000000 0.500000
O O5 0.766701 0.344018 0.189023
O O6 0.750626 0.460663 0.319909
O O7 0.716656 0.442195 0.030390
O O8 0.830615 0.234991 0.268205
O O9 0.893186 0.143182 0.427370
O O10 0.000000 0.211669 0.250000
O O11 0.925561 0.262891 0.498721
O O12 0.906436 0.707666 0.530387
O O13 0.000000 0.706526 0.250000
O O14 0.750000 0.250000 0.000000
O O15 0.103318 0.974916 0.488457
O O16 0.000000 0.929999 0.750000
O O17 0.160948 0.945713 0.750286
#
# Coordination Sequence:
#
# PCOD9272522 Si02
#       7
#     8   8   8   8   8   8   8
#     4  11  21  36  58  82 110 148 189 228 273 327
#     4  10  21  36  53  79 110 143 176 221 273 321
#     4   9  19  37  58  79 109 146 183 227 277 328
#     4  10  21  37  56  82 112 145 187 231 274 329
#     4  10  20  37  58  80 110 146 182 225 277 332
#     4  10  20  37  59  82 106 142 182 225 275 327
#     4  10  21  36  55  80 112 140 177 225 274 328
#
# _framework density 20.043095000000001
#
# number of rings (size 3 to 8) (size 9 to 14) (size 15 to 20)
#    0.000    2.000    0.000    4.714    0.000    2.286 
#    0.000   10.714    0.000    0.000    0.000    0.000 
#    0.000    0.000    0.000    0.000    0.000    0.000 
#
# Total GULP energy -156269.970839 kJ/mol
# GULP energy per Si atom -5581.070387 kJ/mol
# Density = 1.999748 g / cm^3
# Si number density = 20.043095 Si / 1000 Ang^3
#
#
#
# Elastic Constant Matrix: (Units=GPa)
#
#
# Indices 1 2 3 4 5 6 
#
# 1 41.6168 38.5365 -2.1939 0.0000 15.3403 0.0000
# 2 38.5365 120.1981 11.3077 0.0000 10.7991 0.0000
# 3 -2.1939 11.3077 48.4936 0.0000 13.4206 0.0000
# 4 0.0000 0.0000 0.0000 24.8305 0.0000 1.6333
# 5 15.3403 10.7991 13.4206 0.0000 31.2176 0.0000
# 6 0.0000 0.0000 0.0000 1.6333 0.0000 33.5007
#
#
#
# Elastic Compliance Matrix: (Units=1/GPa)
#
#
# Indices 1 2 3 4 5 6 
#
# 1 0.045666 -0.013690 0.011530 0.000000 -0.022661 0.000000
# 2 -0.013690 0.012768 -0.004808 0.000000 0.004377 0.000000
# 3 0.011530 -0.004808 0.026528 0.000000 -0.015407 0.000000
# 4 0.000000 0.000000 0.000000 0.040403 0.000000 -0.001970
# 5 -0.022661 0.004377 -0.015407 0.000000 0.048278 0.000000
# 6 0.000000 0.000000 0.000000 -0.001970 0.000000 0.029946
#
#
# Mechanical properties :
#
#
# Convention : Reuss Voigt Hill
#
# Bulk Modulus (GPa) = 14.07940 33.95658 24.01799
# Shear Modulus (GPa) = 20.72972 28.75363 24.74167
#
# Velocity S-wave (km/s) = 3.21948 3.79171 3.51725
# Velocity P-wave (km/s) = 4.56726 6.01232 5.33890
#
# Compressibility (1/GPa) = 0.07102574
#
# Stress axis : x y z
#
# Youngs Moduli (GPa) = 21.89811 78.32313 37.69628
#
# Poissons Ratio (x) = 1.07221 -0.43462
# Poissons Ratio (y) = 0.29978 0.18124
# Poissons Ratio (z) = -0.25248 0.37657
#
# Static dielectric constant tensor:
#      x y z
#    x 1.702830 0.000000 -0.020030 
#    y 0.000000 1.713970 0.000000 
#    z -0.020030 0.000000 1.700610 
# 
# From -- ./inp_files/41271.got.cif
#   From: 2010.05.17/outbox.cif.g08.bks.cpg/sg15_21_cif.got.tgz:41271.got - 2010.06.03 18:47:42.
