data_PCOD9272452
_publ_section_title
;
Structure prediction by ZEFSAII (Michael W. Deem and Ramdas Pophale) SiO2 
 PCOD9272452
Probable space group: C 2/C
;
_chemical_formula_sum "Si O2"
_cell_formula_units_Z 64
_cell_length_a 20.118106
_cell_length_b 12.033312
_cell_length_c 13.424929
_cell_angle_alpha 90.000000
_cell_angle_beta 68.325800
_cell_angle_gamma 90.000000
_cell_volume 3020.227960
_symmetry_space_group_name_H-M "C 2/C"
_symmetry_group_IT_number 15
_symmetry_cell_setting 'monoclinic'
loop_
_space_group_symop_operation_xyz
x,y,z
-x,y,1/2-z
-x,-y,-z
x,-y,1/2+z
1/2+x,1/2+y,z
1/2-x,1/2+y,1/2-z
1/2-x,1/2-y,-z
1/2+x,1/2-y,1/2+z
loop_
_atom_site_type_symbol
_atom_site_label
_atom_site_fract_x
_atom_site_fract_y
_atom_site_fract_z
Si Si1 0.708844 0.523124 0.060174
Si Si2 0.095682 0.689183 0.008847
Si Si3 0.256523 0.436111 0.676593
Si Si4 0.089222 0.891147 0.882189
Si Si5 0.157031 0.539501 0.400861
Si Si6 0.565035 0.753987 0.886606
Si Si7 0.562901 0.569441 0.061392
Si Si8 0.323803 0.281287 0.346628
O O1 0.775790 0.584537 0.072122
O O2 0.706040 0.403171 0.116026
O O3 0.729757 0.498170 0.934121
O O4 0.629813 0.576490 0.098661
O O5 0.149305 0.735607 0.062200
O O6 0.015635 0.709897 0.093109
O O7 0.097223 0.762632 0.907223
O O8 0.118005 0.563767 0.973347
O O9 0.332741 0.433574 0.690940
O O10 0.194506 0.491649 0.775432
O O11 0.230718 0.310089 0.667499
O O12 0.072492 0.952368 0.998012
O O13 0.019070 0.919110 0.857100
O O14 0.102790 0.637347 0.409180
O O15 0.568266 0.661262 0.971044
O O16 0.609912 0.713639 0.766639
#
# Coordination Sequence:
#
# PCOD9272452 Si02
#       8
#     8   8   8   8   8   8   8   8
#     4  11  21  37  62  89 122 159 204 259 305 363
#     4  11  19  40  64  90 121 158 210 263 303 358
#     4  10  20  37  56  90 122 156 202 252 311 358
#     4   9  18  35  59  85 119 156 193 252 309 356
#     4  11  24  37  61  93 123 170 205 249 316 366
#     4  10  24  38  60  91 128 165 204 250 314 376
#     4   9  19  37  59  84 123 162 194 247 313 367
#     4  11  20  36  63  95 118 154 211 266 305 350
#
# _framework density 21.190453999999999
#
# number of rings (size 3 to 8) (size 9 to 14) (size 15 to 20)
#    0.000    1.750    3.750    1.875    3.500    0.500 
#    0.000    0.625    0.000    0.000    0.000    0.000 
#    0.000    0.000    0.000    0.000    0.000    0.000 
#
# Total GULP energy -178744.808533 kJ/mol
# GULP energy per Si atom -5585.775267 kJ/mol
# Density = 2.114222 g / cm^3
# Si number density = 21.190454 Si / 1000 Ang^3
#
#
#
# Elastic Constant Matrix: (Units=GPa)
#
#
# Indices 1 2 3 4 5 6 
#
# 1 105.8503 12.0523 7.1295 0.0000 -6.5306 0.0000
# 2 12.0523 42.9758 8.1794 0.0000 1.3917 0.0000
# 3 7.1295 8.1794 55.6564 0.0000 -11.0312 0.0000
# 4 0.0000 0.0000 0.0000 19.0702 0.0000 -1.0838
# 5 -6.5306 1.3917 -11.0312 0.0000 32.6547 0.0000
# 6 0.0000 0.0000 0.0000 -1.0838 0.0000 28.6731
#
#
#
# Elastic Compliance Matrix: (Units=1/GPa)
#
#
# Indices 1 2 3 4 5 6 
#
# 1 0.009912 -0.002751 -0.000482 0.000000 0.001937 0.000000
# 2 -0.002751 0.024874 -0.003882 0.000000 -0.002922 0.000000
# 3 -0.000482 -0.003882 0.019949 0.000000 0.006808 0.000000
# 4 0.000000 0.000000 0.000000 0.052551 0.000000 0.001986
# 5 0.001937 -0.002922 0.006808 0.000000 0.033435 0.000000
# 6 0.000000 0.000000 0.000000 0.001986 0.000000 0.034951
#
#
# Mechanical properties :
#
#
# Convention : Reuss Voigt Hill
#
# Bulk Modulus (GPa) = 24.68780 28.80056 26.74418
# Shear Modulus (GPa) = 24.58164 27.88768 26.23466
#
# Velocity S-wave (km/s) = 3.40962 3.63168 3.52240
# Velocity P-wave (km/s) = 5.21310 5.58625 5.40290
#
# Compressibility (1/GPa) = 0.04050584
#
# Stress axis : x y z
#
# Youngs Moduli (GPa) = 100.88306 40.20273 50.12776
#
# Poissons Ratio (x) = 0.11060 0.02414
# Poissons Ratio (y) = 0.27752 0.19461
# Poissons Ratio (z) = 0.04858 0.15608
#
# Static dielectric constant tensor:
#      x y z
#    x 1.801310 0.000000 -0.013630 
#    y 0.000000 1.744850 0.000000 
#    z -0.013630 0.000000 1.784790 
# 
# From -- ./inp_files/167632.got.cif
#   From: 2010.05.17/outbox.cif.g08.bks.cpg/sg15_84_cif.got.tgz:167632.got - 2010.06.03 18:47:42.
