data_PCOD9272173
_publ_section_title
;
Structure prediction by ZEFSAII (Michael W. Deem and Ramdas Pophale) SiO2 
 PCOD9272173
Probable space group: C 2/C
;
_chemical_formula_sum "Si O2"
_cell_formula_units_Z 48
_cell_length_a 13.223621
_cell_length_b 8.163279
_cell_length_c 31.031414
_cell_angle_alpha 90.000000
_cell_angle_beta 140.417085
_cell_angle_gamma 90.000000
_cell_volume 2134.461936
_symmetry_space_group_name_H-M "C 2/C"
_symmetry_group_IT_number 15
_symmetry_cell_setting 'monoclinic'
loop_
_space_group_symop_operation_xyz
x,y,z
-x,y,1/2-z
-x,-y,-z
x,-y,1/2+z
1/2+x,1/2+y,z
1/2-x,1/2+y,1/2-z
1/2-x,1/2-y,-z
1/2+x,1/2-y,1/2+z
loop_
_atom_site_type_symbol
_atom_site_label
_atom_site_fract_x
_atom_site_fract_y
_atom_site_fract_z
Si Si1 0.053886 0.681840 0.314978
Si Si2 0.735679 0.933021 0.267280
Si Si3 0.823104 0.924718 0.709957
Si Si4 0.389917 0.477563 0.901340
Si Si5 0.241507 0.454702 0.091192
Si Si6 0.422783 0.751053 0.981126
O O1 0.223371 0.595219 0.363664
O O2 0.106800 0.835328 0.362062
O O3 0.000000 0.740520 0.250000
O O4 0.924757 0.544568 0.285134
O O5 0.712467 0.751013 0.279056
O O6 0.793761 0.942070 0.237576
O O7 0.862319 0.012945 0.341574
O O8 0.000000 0.905628 0.750000
O O9 0.728530 0.986625 0.636922
O O10 0.401405 0.647804 0.930556
O O11 0.536647 0.370431 0.966389
O O12 0.223140 0.625105 0.059843
O O13 0.085450 0.351963 0.028709
#
# Coordination Sequence:
#
# PCOD9272173 Si02
#       6
#     8   8   8   8   8   8
#     4   9  19  36  63  94 133 174 215 282 339 392
#     4  11  25  42  69 105 134 178 229 282 351 413
#     4  12  27  44  69 105 138 177 225 288 351 407
#     4   9  17  37  65  96 138 181 225 279 339 401
#     4  10  20  36  64  98 134 180 224 275 343 400
#     4   9  18  33  63  98 132 188 221 277 338 395
#
# _framework density 22.488105000000001
#
# number of rings (size 3 to 8) (size 9 to 14) (size 15 to 20)
#    0.000    2.000    1.667    2.000    9.333    0.000 
#    0.000    0.000    0.000   24.000    0.000    0.000 
#    0.000    0.000    0.000    0.000    0.000    0.000 
#
# Total GULP energy -133893.792272 kJ/mol
# GULP energy per Si atom -5578.908011 kJ/mol
# Density = 2.243692 g / cm^3
# Si number density = 22.488105 Si / 1000 Ang^3
#
#
#
# Elastic Constant Matrix: (Units=GPa)
#
#
# Indices 1 2 3 4 5 6 
#
# 1 71.4254 19.2579 23.0428 0.0000 -10.9234 0.0000
# 2 19.2579 117.5833 44.4780 0.0000 7.8345 0.0000
# 3 23.0428 44.4780 123.1370 0.0000 2.6653 0.0000
# 4 0.0000 0.0000 0.0000 48.5403 0.0000 7.5657
# 5 -10.9234 7.8345 2.6653 0.0000 19.9241 0.0000
# 6 0.0000 0.0000 0.0000 7.5657 0.0000 33.6093
#
#
#
# Elastic Compliance Matrix: (Units=1/GPa)
#
#
# Indices 1 2 3 4 5 6 
#
# 1 0.017149 -0.002575 -0.002512 0.000000 0.010751 0.000000
# 2 -0.002575 0.010473 -0.003191 0.000000 -0.005103 0.000000
# 3 -0.002512 -0.003191 0.009775 0.000000 -0.001430 0.000000
# 4 0.000000 0.000000 0.000000 0.021351 0.000000 -0.004806
# 5 0.010751 -0.005103 -0.001430 0.000000 0.058282 0.000000
# 6 0.000000 0.000000 0.000000 -0.004806 0.000000 0.030836
#
#
# Mechanical properties :
#
#
# Convention : Reuss Voigt Hill
#
# Bulk Modulus (GPa) = 47.97931 53.96700 50.97316
# Shear Modulus (GPa) = 29.17698 35.43921 32.30810
#
# Velocity S-wave (km/s) = 3.60591 3.97408 3.79446
# Velocity P-wave (km/s) = 6.22242 6.71624 6.47404
#
# Compressibility (1/GPa) = 0.02084232
#
# Stress axis : x y z
#
# Youngs Moduli (GPa) = 58.31123 95.48093 102.30661
#
# Poissons Ratio (x) = 0.24585 0.25697
# Poissons Ratio (y) = 0.15015 0.32643
# Poissons Ratio (z) = 0.14647 0.30465
#
# Static dielectric constant tensor:
#      x y z
#    x 1.810410 0.000000 0.019770 
#    y 0.000000 1.959350 0.000000 
#    z 0.019770 0.000000 1.835150 
# 
# From -- ./inp_files/312993.got.cif
#   From: 2010.05.17/outbox.cif.g08.bks.cpg/sg15_157_cif.got.tgz:312993.got - 2010.06.03 18:47:42.
