data_PCOD9272027
_publ_section_title
;
Structure prediction by ZEFSAII (Michael W. Deem and Ramdas Pophale) SiO2 
 PCOD9272027
Probable space group: C 2/C
;
_chemical_formula_sum "Si O2"
_cell_formula_units_Z 52
_cell_length_a 7.807215
_cell_length_b 19.954206
_cell_length_c 17.565781
_cell_angle_alpha 90.000000
_cell_angle_beta 123.020139
_cell_angle_gamma 90.000000
_cell_volume 2294.511751
_symmetry_space_group_name_H-M "C 2/C"
_symmetry_group_IT_number 15
_symmetry_cell_setting 'monoclinic'
loop_
_space_group_symop_operation_xyz
x,y,z
-x,y,1/2-z
-x,-y,-z
x,-y,1/2+z
1/2+x,1/2+y,z
1/2-x,1/2+y,1/2-z
1/2-x,1/2-y,-z
1/2+x,1/2-y,1/2+z
loop_
_atom_site_type_symbol
_atom_site_label
_atom_site_fract_x
_atom_site_fract_y
_atom_site_fract_z
Si Si1 0.109174 0.158437 0.528157
Si Si2 0.948433 0.657044 0.321072
Si Si3 0.102632 0.191391 0.701283
Si Si4 0.057286 0.717192 0.599957
Si Si5 0.677283 0.540359 0.439548
Si Si6 0.500000 0.607201 0.250000
Si Si7 0.127133 0.403341 0.010018
O O1 0.098343 0.159243 0.617153
O O2 0.330807 0.189881 0.562125
O O3 0.095257 0.083986 0.490191
O O4 0.963359 0.210334 0.445952
O O5 0.998716 0.735623 0.334777
O O6 0.709827 0.647597 0.285694
O O7 0.000000 0.631592 0.250000
O O8 0.084306 0.618157 0.413968
O O9 0.322040 0.211245 0.791330
O O10 0.000000 0.155701 0.750000
O O11 0.156389 0.664025 0.565362
O O12 0.547889 0.563004 0.335397
O O13 0.704190 0.460840 0.446792
O O14 0.910859 0.566539 0.486249
#
# Coordination Sequence:
#
# PCOD9272027 Si02
#       7
#     8   8   8   8   8   4   8
#     4  10  20  37  61  97 121 165 230 269 337 405
#     4  10  21  38  61  92 127 170 220 269 340 405
#     4  11  23  37  57  93 132 167 209 278 341 395
#     4  10  20  36  63  90 127 170 212 285 335 401
#     4   9  19  36  64  92 124 171 218 266 334 407
#     4  10  20  38  64  94 124 168 220 278 322 408
#     4   9  18  39  60  87 132 171 208 273 338 402
#
# _framework density 22.662773999999999
#
# number of rings (size 3 to 8) (size 9 to 14) (size 15 to 20)
#    0.000    2.154    1.538    1.385    4.308    0.615 
#    4.154    6.923    0.000    0.000    0.000    0.000 
#    0.000    0.000    0.000    0.000    0.000    0.000 
#
# Total GULP energy -145257.036592 kJ/mol
# GULP energy per Si atom -5586.809100 kJ/mol
# Density = 2.261119 g / cm^3
# Si number density = 22.662774 Si / 1000 Ang^3
#
#
#
# Elastic Constant Matrix: (Units=GPa)
#
#
# Indices 1 2 3 4 5 6 
#
# 1 91.0952 37.3821 50.0031 0.0000 -19.3120 0.0000
# 2 37.3821 115.3606 54.8976 0.0000 -17.9742 0.0000
# 3 50.0031 54.8976 158.9713 0.0000 -33.2672 0.0000
# 4 0.0000 0.0000 0.0000 -3.3890 0.0000 -11.4205
# 5 -19.3120 -17.9742 -33.2672 0.0000 48.3399 0.0000
# 6 0.0000 0.0000 0.0000 -11.4205 0.0000 17.9741
#
#
#
# Elastic Compliance Matrix: (Units=1/GPa)
#
#
# Indices 1 2 3 4 5 6 
#
# 1 0.014327 -0.002813 -0.002986 0.000000 0.002623 0.000000
# 2 -0.002813 0.011036 -0.002690 0.000000 0.001128 0.000000
# 3 -0.002986 -0.002690 0.008995 0.000000 0.003997 0.000000
# 4 0.000000 0.000000 0.000000 -0.093937 0.000000 -0.059686
# 5 0.002623 0.001128 0.003997 0.000000 0.024905 0.000000
# 6 0.000000 0.000000 0.000000 -0.059686 0.000000 0.017712
#
#
# Mechanical properties :
#
#
# Convention : Reuss Voigt Hill
#
# Bulk Modulus (GPa) = 57.53858 72.22140 64.87999
# Shear Modulus (GPa) = 860.64432 27.46128 444.05280
#
# Velocity S-wave (km/s) = 19.50861 3.48478 14.01302
# Velocity P-wave (km/s) = 23.08445 6.93748 17.04436
#
# Compressibility (1/GPa) = 0.01737964
#
# Stress axis : x y z
#
# Youngs Moduli (GPa) = 69.79828 90.61269 111.17047
#
# Poissons Ratio (x) = 0.25488 0.33198
# Poissons Ratio (y) = 0.19633 0.29907
# Poissons Ratio (z) = 0.20843 0.24376
#
# Static dielectric constant tensor:
#      x y z
#    x 1.937710 0.000000 0.033670 
#    y 0.000000 1.810400 0.000000 
#    z 0.033670 0.000000 1.832160 
# 
# From -- ./inp_files/137537.got.cif
#   From: 2010.05.17/outbox.cif.g08.bks.cpg/sg15_69_cif.got.tgz:137537.got - 2010.06.03 18:47:42.
