data_PCOD9272235
_publ_section_title
;
Structure prediction by ZEFSAII (Michael W. Deem and Ramdas Pophale) SiO2 
 PCOD9272235
Probable space group: C 2/C
;
_chemical_formula_sum "Si O2"
_cell_formula_units_Z 52
_cell_length_a 29.392069
_cell_length_b 14.484018
_cell_length_c 18.710021
_cell_angle_alpha 90.000000
_cell_angle_beta 161.848662
_cell_angle_gamma 90.000000
_cell_volume 2481.364432
_symmetry_space_group_name_H-M "C 2/C"
_symmetry_group_IT_number 15
_symmetry_cell_setting 'monoclinic'
loop_
_space_group_symop_operation_xyz
x,y,z
-x,y,1/2-z
-x,-y,-z
x,-y,1/2+z
1/2+x,1/2+y,z
1/2-x,1/2+y,1/2-z
1/2-x,1/2-y,-z
1/2+x,1/2-y,1/2+z
loop_
_atom_site_type_symbol
_atom_site_label
_atom_site_fract_x
_atom_site_fract_y
_atom_site_fract_z
Si Si1 0.329116 0.519948 0.740508
Si Si2 0.262019 0.815566 0.868851
Si Si3 0.617348 0.904303 0.581870
Si Si4 0.071251 0.567511 0.276873
Si Si5 0.500000 0.679401 0.250000
Si Si6 0.314449 0.566073 0.876011
Si Si7 0.963932 0.323948 0.491010
O O1 0.247872 0.420659 0.622001
O O2 0.245628 0.563592 0.549303
O O3 0.300057 0.577322 0.769589
O O4 0.500000 0.500000 0.000000
O O5 0.344512 0.822484 0.915760
O O6 0.098295 0.777337 0.616670
O O7 0.365625 0.747797 0.068349
O O8 0.554446 0.865460 0.561043
O O9 0.503931 0.978644 0.376034
O O10 0.769914 0.959628 0.821023
O O11 0.000000 0.572405 0.250000
O O12 0.038339 0.654704 0.177447
O O13 0.541218 0.610801 0.376387
O O14 0.186745 0.619056 0.726677
#
# Coordination Sequence:
#
# PCOD9272235 Si02
#       7
#     8   8   8   8   4   8   8
#     4  11  23  38  62  89 127 166 209 254 311 378
#     4  10  21  39  59  91 128 156 201 267 317 358
#     4  10  20  38  63  88 124 164 212 254 313 379
#     4  11  18  39  69  86 117 173 212 245 310 387
#     4  10  20  36  66  90 118 154 204 262 322 348
#     4   9  19  36  57  88 122 157 201 256 303 375
#     4  10  21  36  62  92 120 160 210 259 311 366
#
# _framework density 20.956212000000001
#
# number of rings (size 3 to 8) (size 9 to 14) (size 15 to 20)
#    0.000    1.846    4.615    2.769    0.000    6.154 
#    0.000    5.385    6.769    0.000    0.000    0.000 
#    0.000    0.000    0.000    0.000    0.000    0.000 
#
# Total GULP energy -144819.207063 kJ/mol
# GULP energy per Si atom -5569.969502 kJ/mol
# Density = 2.090851 g / cm^3
# Si number density = 20.956212 Si / 1000 Ang^3
#
#
#
# Elastic Constant Matrix: (Units=GPa)
#
#
# Indices 1 2 3 4 5 6 
#
# 1 51.0646 -4.3752 7.6265 0.0000 -4.3899 0.0000
# 2 -4.3752 41.3958 30.0047 0.0000 -18.7651 0.0000
# 3 7.6265 30.0047 124.7578 0.0000 -15.9633 0.0000
# 4 0.0000 0.0000 0.0000 35.6656 0.0000 3.7180
# 5 -4.3899 -18.7651 -15.9633 0.0000 26.7489 0.0000
# 6 0.0000 0.0000 0.0000 3.7180 0.0000 0.7848
#
#
#
# Elastic Compliance Matrix: (Units=1/GPa)
#
#
# Indices 1 2 3 4 5 6 
#
# 1 0.021094 0.006934 -0.002048 0.000000 0.007104 -0.000001
# 2 0.006934 0.042021 -0.007159 0.000000 0.026345 -0.000001
# 3 -0.002048 -0.007159 0.009936 0.000000 0.000571 0.000000
# 4 0.000000 0.000000 0.000000 0.055395 0.000000 -0.262424
# 5 0.007104 0.026345 0.000571 0.000000 0.057373 -0.000002
# 6 -0.000001 -0.000001 0.000000 -0.262424 -0.000002 2.517332
#
#
# Mechanical properties :
#
#
# Convention : Reuss Voigt Hill
#
# Bulk Modulus (GPa) = 14.59756 31.52560 23.06158
# Shear Modulus (GPa) = 1.83115 24.90402 13.36758
#
# Velocity S-wave (km/s) = 0.93578 3.45103 2.52837
# Velocity P-wave (km/s) = 2.85455 5.56379 4.42177
#
# Compressibility (1/GPa) = 0.06850459
#
# Stress axis : x y z
#
# Youngs Moduli (GPa) = 47.40728 23.79739 100.64799
#
# Poissons Ratio (x) = -0.16502 0.20615
# Poissons Ratio (y) = -0.32874 0.72057
# Poissons Ratio (z) = 0.09710 0.17037
#
# Static dielectric constant tensor:
#      x y z
#    x 1.766880 0.000000 0.016600 
#    y 0.000000 1.821900 0.000000 
#    z 0.016600 0.000000 1.856290 
# 
# From -- ./inp_files/225519.got.cif
#   From: 2010.05.17/outbox.cif.g08.bks.cpg/sg15_113_cif.got.tgz:225519.got - 2010.06.03 18:47:42.
