data_PCOD9272673
_publ_section_title
;
Structure prediction by ZEFSAII (Michael W. Deem and Ramdas Pophale) SiO2 
 PCOD9272673
Probable space group: C 2/C
;
_chemical_formula_sum "Si O2"
_cell_formula_units_Z 48
_cell_length_a 16.016487
_cell_length_b 27.712111
_cell_length_c 8.815181
_cell_angle_alpha 90.000000
_cell_angle_beta 142.059001
_cell_angle_gamma 90.000000
_cell_volume 2405.675609
_symmetry_space_group_name_H-M "C 2/C"
_symmetry_group_IT_number 15
_symmetry_cell_setting 'monoclinic'
loop_
_space_group_symop_operation_xyz
x,y,z
-x,y,1/2-z
-x,-y,-z
x,-y,1/2+z
1/2+x,1/2+y,z
1/2-x,1/2+y,1/2-z
1/2-x,1/2-y,-z
1/2+x,1/2-y,1/2+z
loop_
_atom_site_type_symbol
_atom_site_label
_atom_site_fract_x
_atom_site_fract_y
_atom_site_fract_z
Si Si1 0.750980 0.842962 0.495382
Si Si2 0.846808 0.454141 0.467732
Si Si3 0.499534 0.712447 0.503659
Si Si4 0.742890 0.648401 0.860915
Si Si5 0.500000 0.781235 0.250000
Si Si6 0.500000 0.210701 0.250000
Si Si7 0.649772 0.945654 0.391980
O O1 0.877853 0.816384 0.751997
O O2 0.761554 0.845839 0.328745
O O3 0.615197 0.813868 0.341343
O O4 0.735114 0.897106 0.536386
O O5 0.761578 0.408771 0.408113
O O6 0.857154 0.453128 0.299851
O O7 0.794879 0.505769 0.451545
O O8 0.000000 0.448837 0.750000
O O9 0.609018 0.675327 0.727361
O O10 0.566091 0.746004 0.469026
O O11 0.450166 0.752345 0.550902
O O12 0.874749 0.676300 0.113365
O O13 0.500000 0.938283 0.250000
#
# Coordination Sequence:
#
# PCOD9272673 Si02
#       7
#     8   8   8   8   4   4   8
#     4  11  22  39  64  89 115 160 204 236 293 349
#     4  10  20  37  60  87 116 149 194 243 295 346
#     4  12  24  41  59  87 123 158 199 243 287 356
#     4  11  22  40  62  88 120 160 194 243 298 347
#     4  12  20  38  65  82 117 158 204 242 270 354
#     4  12  24  40  55  94 121 154 202 242 298 334
#     4  10  20  37  59  89 115 148 195 245 292 345
#
# _framework density 19.952815999999999
#
# number of rings (size 3 to 8) (size 9 to 14) (size 15 to 20)
#    0.000    1.000    5.000    4.000    0.000    0.000 
#    9.000    0.833    0.000    0.000    0.000    0.000 
#    0.000    0.000    0.000    0.000    0.000    0.000 
#
# Total GULP energy -134048.428892 kJ/mol
# GULP energy per Si atom -5585.351204 kJ/mol
# Density = 1.990740 g / cm^3
# Si number density = 19.952816 Si / 1000 Ang^3
#
#
#
# Elastic Constant Matrix: (Units=GPa)
#
#
# Indices 1 2 3 4 5 6 
#
# 1 26.8637 27.3349 -3.4812 0.0000 -1.3981 0.0000
# 2 27.3349 167.5904 31.7439 0.0000 2.6904 0.0000
# 3 -3.4812 31.7439 60.6214 0.0000 7.5115 0.0000
# 4 0.0000 0.0000 0.0000 13.9160 0.0000 -10.3453
# 5 -1.3981 2.6904 7.5115 0.0000 27.9082 0.0000
# 6 0.0000 0.0000 0.0000 -10.3453 0.0000 14.4859
#
#
#
# Elastic Compliance Matrix: (Units=1/GPa)
#
#
# Indices 1 2 3 4 5 6 
#
# 1 0.047590 -0.009181 0.007381 0.000000 0.001282 0.000000
# 2 -0.009181 0.008398 -0.004932 0.000000 0.000058 0.000000
# 3 0.007381 -0.004932 0.020067 0.000000 -0.004556 0.000000
# 4 0.000000 0.000000 0.000000 0.153191 0.000000 0.109403
# 5 0.001282 0.000058 -0.004556 0.000000 0.037117 0.000000
# 6 0.000000 0.000000 0.000000 0.109403 0.000000 0.147164
#
#
# Mechanical properties :
#
#
# Convention : Reuss Voigt Hill
#
# Bulk Modulus (GPa) = 15.97645 40.69674 28.33660
# Shear Modulus (GPa) = 11.16437 24.56052 17.86245
#
# Velocity S-wave (km/s) = 2.36802 3.51227 2.99529
# Velocity P-wave (km/s) = 3.93716 6.07362 5.11811
#
# Compressibility (1/GPa) = 0.06259211
#
# Stress axis : x y z
#
# Youngs Moduli (GPa) = 21.01271 119.08167 49.83390
#
# Poissons Ratio (x) = 1.09328 -0.36785
# Poissons Ratio (y) = 0.19292 0.24577
# Poissons Ratio (z) = -0.15510 0.58728
#
# Static dielectric constant tensor:
#      x y z
#    x 1.728530 0.000000 -0.046480 
#    y 0.000000 1.711030 0.000000 
#    z -0.046480 0.000000 1.701330 
# 
# From -- ./inp_files/43969.got.cif
#   From: 2010.05.17/outbox.cif.g08.bks.cpg/sg15_22_cif.got.tgz:43969.got - 2010.06.03 18:47:42.
