data_PCOD9272396
_publ_section_title
;
Structure prediction by ZEFSAII (Michael W. Deem and Ramdas Pophale) SiO2 
 PCOD9272396
Probable space group: C 2/C
;
_chemical_formula_sum "Si O2"
_cell_formula_units_Z 44
_cell_length_a 9.285068
_cell_length_b 10.584442
_cell_length_c 33.061479
_cell_angle_alpha 90.000000
_cell_angle_beta 49.672841
_cell_angle_gamma 90.000000
_cell_volume 2477.059160
_symmetry_space_group_name_H-M "C 2/C"
_symmetry_group_IT_number 15
_symmetry_cell_setting 'monoclinic'
loop_
_space_group_symop_operation_xyz
x,y,z
-x,y,1/2-z
-x,-y,-z
x,-y,1/2+z
1/2+x,1/2+y,z
1/2-x,1/2+y,1/2-z
1/2-x,1/2-y,-z
1/2+x,1/2-y,1/2+z
loop_
_atom_site_type_symbol
_atom_site_label
_atom_site_fract_x
_atom_site_fract_y
_atom_site_fract_z
Si Si1 0.063051 0.417066 0.928013
Si Si2 0.500000 0.627474 0.750000
Si Si3 0.439593 0.810954 0.482874
Si Si4 0.650608 0.791160 0.607486
Si Si5 0.475905 0.518153 0.839848
Si Si6 0.669249 0.125959 0.192432
O O1 0.276972 0.445764 0.875655
O O2 0.971210 0.551123 0.957267
O O3 0.945118 0.353580 0.913772
O O4 0.068695 0.332821 0.967457
O O5 0.539980 0.546793 0.782340
O O6 0.333936 0.726591 0.792386
O O7 0.250000 0.750000 0.500000
O O8 0.625702 0.729565 0.439118
O O9 0.561793 0.652732 0.631814
O O10 0.621127 0.870536 0.653901
O O11 0.635202 0.440281 0.833907
O O12 0.500000 0.067487 0.250000
#
# Coordination Sequence:
#
# PCOD9272396 Si02
#       6
#     8   4   8   8   8   8
#     4  10  22  36  58  85 112 147 187 226 281 335
#     4   8  20  34  54  74 108 142 182 234 274 322
#     4  10  21  38  59  84 114 150 183 230 280 333
#     4  10  21  38  55  84 115 144 186 236 276 331
#     4  10  20  37  55  77 113 144 183 232 279 329
#     4   9  20  38  53  79 111 143 189 232 275 333
#
# _framework density 17.762999000000001
#
# number of rings (size 3 to 8) (size 9 to 14) (size 15 to 20)
#    0.545    1.818    0.000    1.636    2.545    2.182 
#    3.273    0.000    0.000    0.000    0.000    0.000 
#    0.000    0.000    0.000    0.000    0.000    0.000 
#
# Total GULP energy -122677.291575 kJ/mol
# GULP energy per Si atom -5576.240526 kJ/mol
# Density = 1.772257 g / cm^3
# Si number density = 17.762999 Si / 1000 Ang^3
#
#
#
# Elastic Constant Matrix: (Units=GPa)
#
#
# Indices 1 2 3 4 5 6 
#
# 1 163.2046 68.1150 86.3862 0.0000 10.3919 0.0000
# 2 68.1150 42.0486 35.0589 0.0000 3.5504 0.0000
# 3 86.3862 35.0589 100.7582 0.0000 20.3539 0.0000
# 4 0.0000 0.0000 0.0000 7.8061 0.0000 -1.1285
# 5 10.3919 3.5504 20.3539 0.0000 30.0193 0.0000
# 6 0.0000 0.0000 0.0000 -1.1285 0.0000 32.2432
#
#
#
# Elastic Compliance Matrix: (Units=1/GPa)
#
#
# Indices 1 2 3 4 5 6 
#
# 1 0.024775 -0.031292 -0.010854 0.000000 0.002484 0.000000
# 2 -0.031292 0.073575 0.000925 0.000000 0.001504 0.000000
# 3 -0.010854 0.000925 0.021056 0.000000 -0.010628 0.000000
# 4 0.000000 0.000000 0.000000 0.128756 0.000000 0.004506
# 5 0.002484 0.001504 -0.010628 0.000000 0.039480 0.000000
# 6 0.000000 0.000000 0.000000 0.004506 0.000000 0.031172
#
#
# Mechanical properties :
#
#
# Convention : Reuss Voigt Hill
#
# Bulk Modulus (GPa) = 27.05528 76.12574 51.59051
# Shear Modulus (GPa) = 12.08958 21.77715 16.93336
#
# Velocity S-wave (km/s) = 2.61167 3.50520 3.09090
# Velocity P-wave (km/s) = 4.93546 7.70268 6.46877
#
# Compressibility (1/GPa) = 0.03696136
#
# Stress axis : x y z
#
# Youngs Moduli (GPa) = 40.36387 13.59158 47.49178
#
# Poissons Ratio (x) = 0.42531 0.51550
# Poissons Ratio (y) = 1.26308 -0.04391
# Poissons Ratio (z) = 0.43813 -0.01257
#
# Static dielectric constant tensor:
#      x y z
#    x 1.549120 0.000000 -0.000330 
#    y 0.000000 1.598670 0.000000 
#    z -0.000330 0.000000 1.627870 
# 
# From -- ./inp_files/263043.got.cif
#   From: 2010.05.17/outbox.cif.g08.bks.cpg/sg15_132_cif.got.tgz:263043.got - 2010.06.03 18:47:42.
