data_PCOD9272548
_publ_section_title
;
Structure prediction by ZEFSAII (Michael W. Deem and Ramdas Pophale) SiO2 
 PCOD9272548
Probable space group: C 2/C
;
_chemical_formula_sum "Si O2"
_cell_formula_units_Z 48
_cell_length_a 15.439897
_cell_length_b 9.382595
_cell_length_c 15.869388
_cell_angle_alpha 90.000000
_cell_angle_beta 92.560486
_cell_angle_gamma 90.000000
_cell_volume 2296.644306
_symmetry_space_group_name_H-M "C 2/C"
_symmetry_group_IT_number 15
_symmetry_cell_setting 'monoclinic'
loop_
_space_group_symop_operation_xyz
x,y,z
-x,y,1/2-z
-x,-y,-z
x,-y,1/2+z
1/2+x,1/2+y,z
1/2-x,1/2+y,1/2-z
1/2-x,1/2-y,-z
1/2+x,1/2-y,1/2+z
loop_
_atom_site_type_symbol
_atom_site_label
_atom_site_fract_x
_atom_site_fract_y
_atom_site_fract_z
Si Si1 0.278813 0.310948 0.591073
Si Si2 0.533731 0.417776 0.655075
Si Si3 0.870032 0.093847 0.611234
Si Si4 0.632445 0.328083 0.192976
Si Si5 0.456474 0.844897 0.092230
Si Si6 0.515918 0.834163 0.906982
O O1 0.250000 0.250000 0.500000
O O2 0.295381 0.480984 0.586201
O O3 0.209087 0.263228 0.656898
O O4 0.368983 0.232419 0.617692
O O5 0.500000 0.424313 0.750000
O O6 0.457441 0.498820 0.601290
O O7 0.618869 0.514392 0.651328
O O8 0.534583 0.254850 0.628011
O O9 0.858499 0.140729 0.708050
O O10 0.897593 0.242113 0.569793
O O11 0.543923 0.246229 0.163660
O O12 0.462229 0.007096 0.120789
O O13 0.461242 0.843542 0.990911
#
# Coordination Sequence:
#
# PCOD9272548 Si02
#       6
#     8   8   8   8   8   8
#     4  11  22  38  61  88 120 158 198 244 302 361
#     4   8  17  34  57  83 109 149 201 236 288 359
#     4   9  21  37  58  84 116 158 200 237 298 360
#     4  10  20  38  60  84 114 153 197 245 300 357
#     4  10  21  35  57  88 116 151 197 246 297 353
#     4  10  20  37  58  84 116 152 198 248 294 353
#
# _framework density 20.900058999999999
#
# number of rings (size 3 to 8) (size 9 to 14) (size 15 to 20)
#    0.000    2.333    1.667    1.500    2.333    4.667 
#    0.000    5.833    0.000    0.000    0.000    0.000 
#    0.000    0.000    0.000    0.000    0.000    0.000 
#
# Total GULP energy -133767.665533 kJ/mol
# GULP energy per Si atom -5573.652731 kJ/mol
# Density = 2.085249 g / cm^3
# Si number density = 20.900059 Si / 1000 Ang^3
#
#
#
# Elastic Constant Matrix: (Units=GPa)
#
#
# Indices 1 2 3 4 5 6 
#
# 1 58.1777 33.4805 10.0850 0.0000 -15.3311 0.0000
# 2 33.4805 168.0359 13.8226 0.0000 0.3272 0.0000
# 3 10.0850 13.8226 43.4577 0.0000 -0.9434 0.0000
# 4 0.0000 0.0000 0.0000 27.7213 0.0000 -2.1234
# 5 -15.3311 0.3272 -0.9434 0.0000 21.2935 0.0000
# 6 0.0000 0.0000 0.0000 -2.1234 0.0000 8.3488
#
#
#
# Elastic Compliance Matrix: (Units=1/GPa)
#
#
# Indices 1 2 3 4 5 6 
#
# 1 0.025423 -0.004773 -0.003986 0.000000 0.018201 0.000000
# 2 -0.004773 0.007008 -0.001199 0.000000 -0.003597 0.000000
# 3 -0.003986 -0.001199 0.024279 0.000000 -0.001776 0.000000
# 4 0.000000 0.000000 0.000000 0.036790 0.000000 0.009357
# 5 0.018201 -0.003597 -0.001776 0.000000 0.060044 0.000000
# 6 0.000000 0.000000 0.000000 0.009357 0.000000 0.122157
#
#
# Mechanical properties :
#
#
# Convention : Reuss Voigt Hill
#
# Bulk Modulus (GPa) = 27.17990 42.71639 34.94814
# Shear Modulus (GPa) = 16.23998 25.62492 20.93245
#
# Velocity S-wave (km/s) = 2.79055 3.50533 3.16816
# Velocity P-wave (km/s) = 4.83899 6.07173 5.49007
#
# Compressibility (1/GPa) = 0.03679190
#
# Stress axis : x y z
#
# Youngs Moduli (GPa) = 39.33467 142.69879 41.18790
#
# Poissons Ratio (x) = 0.68109 0.16420
# Poissons Ratio (y) = 0.18774 0.04940
# Poissons Ratio (z) = 0.15681 0.17116
#
# Static dielectric constant tensor:
#      x y z
#    x 1.786570 0.000000 0.025210 
#    y 0.000000 1.793820 0.000000 
#    z 0.025210 0.000000 1.775580 
# 
# From -- ./inp_files/208649.got.cif
#   From: 2010.05.17/outbox.cif.g08.bks.cpg/sg15_105_cif.got.tgz:208649.got - 2010.06.03 18:47:42.
