data_PCOD9272444
_publ_section_title
;
Structure prediction by ZEFSAII (Michael W. Deem and Ramdas Pophale) SiO2 
 PCOD9272444
Probable space group: C 2/C
;
_chemical_formula_sum "Si O2"
_cell_formula_units_Z 52
_cell_length_a 11.141824
_cell_length_b 24.274774
_cell_length_c 9.261107
_cell_angle_alpha 90.000000
_cell_angle_beta 79.540270
_cell_angle_gamma 90.000000
_cell_volume 2463.184687
_symmetry_space_group_name_H-M "C 2/C"
_symmetry_group_IT_number 15
_symmetry_cell_setting 'monoclinic'
loop_
_space_group_symop_operation_xyz
x,y,z
-x,y,1/2-z
-x,-y,-z
x,-y,1/2+z
1/2+x,1/2+y,z
1/2-x,1/2+y,1/2-z
1/2-x,1/2-y,-z
1/2+x,1/2-y,1/2+z
loop_
_atom_site_type_symbol
_atom_site_label
_atom_site_fract_x
_atom_site_fract_y
_atom_site_fract_z
Si Si1 0.705451 0.894838 0.420538
Si Si2 0.512441 0.345312 0.574794
Si Si3 0.500000 0.862231 0.250000
Si Si4 0.121905 0.208911 0.626703
Si Si5 0.435906 0.452587 0.419453
Si Si6 0.356248 0.170814 0.291991
Si Si7 0.219202 0.314771 0.011837
O O1 0.586822 0.895766 0.343413
O O2 0.787740 0.841391 0.356261
O O3 0.791557 0.948586 0.411192
O O4 0.672910 0.876915 0.589946
O O5 0.500000 0.345291 0.750000
O O6 0.432917 0.296409 0.522518
O O7 0.456268 0.399249 0.514632
O O8 0.650194 0.342160 0.485541
O O9 0.600811 0.827873 0.135324
O O10 0.178978 0.268373 0.643434
O O11 0.000000 0.203128 0.750000
O O12 0.500000 0.448999 0.250000
O O13 0.500000 0.500000 0.500000
O O14 0.500000 0.173703 0.250000
O O15 0.306782 0.164128 0.143620
O O16 0.250000 0.250000 0.000000
#
# Coordination Sequence:
#
# PCOD9272444 Si02
#       7
#     8   8   4   8   8   8   8
#     4  11  22  39  63  93 130 175 212 274 330 395
#     4  11  23  40  65  98 128 170 226 278 329 388
#     4  12  24  38  60  94 136 178 228 264 342 394
#     4  10  20  37  56  84 133 180 227 270 318 365
#     4  11  24  46  74 101 125 159 212 277 344 397
#     4  11  21  38  52  87 133 181 222 260 316 383
#     4  12  24  37  59  90 132 182 232 276 318 395
#
# _framework density 21.110880000000002
#
# number of rings (size 3 to 8) (size 9 to 14) (size 15 to 20)
#    0.000    0.923    1.538    9.231    1.077    0.000 
#    0.000    0.000    0.000    3.692    2.000    0.000 
#    0.000    0.000    0.000    0.000    0.000    0.000 
#
# Total GULP energy -145161.275962 kJ/mol
# GULP energy per Si atom -5583.125999 kJ/mol
# Density = 2.106283 g / cm^3
# Si number density = 21.110880 Si / 1000 Ang^3
#
#
#
# Elastic Constant Matrix: (Units=GPa)
#
#
# Indices 1 2 3 4 5 6 
#
# 1 171.7085 29.2297 51.8635 0.0000 6.8450 0.0000
# 2 29.2297 30.7045 16.3348 0.0000 1.5662 0.0000
# 3 51.8635 16.3348 164.2616 0.0000 9.2148 0.0000
# 4 0.0000 0.0000 0.0000 17.2422 0.0000 5.6640
# 5 6.8450 1.5662 9.2148 0.0000 47.7085 0.0000
# 6 0.0000 0.0000 0.0000 5.6640 0.0000 27.4324
#
#
#
# Elastic Compliance Matrix: (Units=1/GPa)
#
#
# Indices 1 2 3 4 5 6 
#
# 1 0.007399 -0.006113 -0.001698 0.000000 -0.000533 0.000000
# 2 -0.006113 0.039448 -0.001991 0.000000 -0.000033 0.000000
# 3 -0.001698 -0.001991 0.006879 0.000000 -0.001020 0.000000
# 4 0.000000 0.000000 0.000000 0.062217 0.000000 -0.012846
# 5 -0.000533 -0.000033 -0.001020 0.000000 0.021235 0.000000
# 6 0.000000 0.000000 0.000000 -0.012846 0.000000 0.039106
#
#
# Mechanical properties :
#
#
# Convention : Reuss Voigt Hill
#
# Bulk Modulus (GPa) = 29.30622 62.39229 45.84925
# Shear Modulus (GPa) = 24.12408 36.42640 30.27524
#
# Velocity S-wave (km/s) = 3.38410 4.15840 3.79107
# Velocity P-wave (km/s) = 5.40201 7.25776 6.39753
#
# Compressibility (1/GPa) = 0.03412245
#
# Stress axis : x y z
#
# Youngs Moduli (GPa) = 135.16194 25.34962 145.36466
#
# Poissons Ratio (x) = 0.15495 0.24687
# Poissons Ratio (y) = 0.82618 0.28943
# Poissons Ratio (z) = 0.22954 0.05047
#
# Static dielectric constant tensor:
#      x y z
#    x 1.748640 0.000000 -0.088600 
#    y 0.000000 1.769330 0.000000 
#    z -0.088600 0.000000 1.702440 
# 
# From -- ./inp_files/34786.got.cif
#   From: 2010.05.17/outbox.cif.g08.bks.cpg/sg15_18_cif.got.tgz:34786.got - 2010.06.03 18:47:42.
