data_PCOD9272024
_publ_section_title
;
Structure prediction by ZEFSAII (Michael W. Deem and Ramdas Pophale) SiO2 
 PCOD9272024
Probable space group: C 2/C
;
_chemical_formula_sum "Si O2"
_cell_formula_units_Z 48
_cell_length_a 21.817126
_cell_length_b 7.905459
_cell_length_c 30.312610
_cell_angle_alpha 90.000000
_cell_angle_beta 155.692218
_cell_angle_gamma 90.000000
_cell_volume 2152.105576
_symmetry_space_group_name_H-M "C 2/C"
_symmetry_group_IT_number 15
_symmetry_cell_setting 'monoclinic'
loop_
_space_group_symop_operation_xyz
x,y,z
-x,y,1/2-z
-x,-y,-z
x,-y,1/2+z
1/2+x,1/2+y,z
1/2-x,1/2+y,1/2-z
1/2-x,1/2-y,-z
1/2+x,1/2-y,1/2+z
loop_
_atom_site_type_symbol
_atom_site_label
_atom_site_fract_x
_atom_site_fract_y
_atom_site_fract_z
Si Si1 0.731597 0.642238 0.032088
Si Si2 0.095226 0.227609 0.442118
Si Si3 0.304326 0.441916 0.743693
Si Si4 0.485632 0.986074 0.303893
Si Si5 0.557532 0.204039 0.137378
Si Si6 0.842924 0.822431 0.671309
O O1 0.650322 0.463547 0.971268
O O2 0.615826 0.748700 0.985572
O O3 0.750000 0.750000 0.000000
O O4 0.902265 0.595106 0.152275
O O5 0.086369 0.336685 0.391964
O O6 0.201745 0.322563 0.546329
O O7 0.922121 0.196180 0.340705
O O8 0.356758 0.621979 0.796017
O O9 0.141682 0.392015 0.653780
O O10 0.320745 0.427912 0.701478
O O11 0.360186 0.874715 0.198112
O O12 0.434434 0.095244 0.312157
O O13 0.000000 0.865474 0.750000
#
# Coordination Sequence:
#
# PCOD9272024 Si02
#       6
#     8   8   8   8   8   8
#     4   9  18  33  59  89 118 158 203 248 301 359
#     4  10  20  36  63  90 121 169 204 257 314 369
#     4  10  22  40  60  89 125 163 212 256 314 377
#     4  10  20  38  63  90 125 162 212 258 311 373
#     4  10  21  41  64  87 122 168 208 263 317 372
#     4  11  22  36  64  93 127 161 206 253 315 373
#
# _framework density 22.303737000000002
#
# number of rings (size 3 to 8) (size 9 to 14) (size 15 to 20)
#    0.000    2.000    1.667    2.500    4.667    0.000 
#    0.000   16.667    0.000    0.000    0.000    0.000 
#    0.000    0.000    0.000    0.000    0.000    0.000 
#
# Total GULP energy -133862.484408 kJ/mol
# GULP energy per Si atom -5577.603517 kJ/mol
# Density = 2.225297 g / cm^3
# Si number density = 22.303737 Si / 1000 Ang^3
#
#
#
# Elastic Constant Matrix: (Units=GPa)
#
#
# Indices 1 2 3 4 5 6 
#
# 1 116.4229 22.1795 25.4978 -0.0003 23.4359 -0.0005
# 2 22.1795 59.3853 2.6954 0.0019 2.2008 -0.0015
# 3 25.4978 2.6954 85.0582 0.0052 -11.3621 -0.0002
# 4 -0.0003 0.0019 0.0052 19.3928 0.0000 1.3426
# 5 23.4359 2.2008 -11.3621 0.0000 39.0533 -0.0003
# 6 -0.0005 -0.0015 -0.0002 1.3426 -0.0003 37.9523
#
#
#
# Elastic Compliance Matrix: (Units=1/GPa)
#
#
# Indices 1 2 3 4 5 6 
#
# 1 0.012030 -0.003976 -0.004593 0.000002 -0.008331 0.000000
# 2 -0.003976 0.018227 0.000828 -0.000002 0.001600 0.000001
# 3 -0.004593 0.000828 0.014014 -0.000004 0.006787 0.000000
# 4 0.000002 -0.000002 -0.000004 0.051692 -0.000002 -0.001829
# 5 -0.008331 0.001600 0.006787 -0.000002 0.032490 0.000000
# 6 0.000000 0.000001 0.000000 -0.001829 0.000000 0.026414
#
#
# Mechanical properties :
#
#
# Convention : Reuss Voigt Hill
#
# Bulk Modulus (GPa) = 34.73547 40.17908 37.45728
# Shear Modulus (GPa) = 27.78628 33.31259 30.54944
#
# Velocity S-wave (km/s) = 3.53344 3.86889 3.70496
# Velocity P-wave (km/s) = 5.67931 6.16533 5.92731
#
# Compressibility (1/GPa) = 0.02878901
#
# Stress axis : x y z
#
# Youngs Moduli (GPa) = 83.12687 54.86302 71.35791
#
# Poissons Ratio (x) = 0.21812 0.32775
# Poissons Ratio (y) = 0.33049 -0.05907
# Poissons Ratio (z) = 0.38181 -0.04542
#
# Static dielectric constant tensor:
#      x y z
#    x 1.845230 0.000000 0.021600 
#    y 0.000000 1.849370 0.000000 
#    z 0.021600 0.000000 1.895480 
# 
# From -- ./inp_files/180722.got.cif
#   From: 2010.05.17/outbox.cif.g08.bks.cpg/sg15_91_cif.got.tgz:180722.got - 2010.06.03 18:47:42.
