data_PCOD9272922
_publ_section_title
;
Structure prediction by ZEFSAII (Michael W. Deem and Ramdas Pophale) SiO2 
 PCOD9272922
Probable space group: C 2/C
;
_chemical_formula_sum "Si O2"
_cell_formula_units_Z 40
_cell_length_a 12.533137
_cell_length_b 20.971114
_cell_length_c 11.453665
_cell_angle_alpha 90.000000
_cell_angle_beta 36.554629
_cell_angle_gamma 90.000000
_cell_volume 1792.967438
_symmetry_space_group_name_H-M "C 2/C"
_symmetry_group_IT_number 15
_symmetry_cell_setting 'monoclinic'
loop_
_space_group_symop_operation_xyz
x,y,z
-x,y,1/2-z
-x,-y,-z
x,-y,1/2+z
1/2+x,1/2+y,z
1/2-x,1/2+y,1/2-z
1/2-x,1/2-y,-z
1/2+x,1/2-y,1/2+z
loop_
_atom_site_type_symbol
_atom_site_label
_atom_site_fract_x
_atom_site_fract_y
_atom_site_fract_z
Si Si1 0.873063 0.286873 0.250613
Si Si2 0.154018 0.480214 0.703276
Si Si3 0.419001 0.909307 0.082844
Si Si4 0.491880 0.348410 0.627731
Si Si5 0.478793 0.582699 0.643925
O O1 0.930879 0.334077 0.094627
O O2 0.680507 0.312673 0.452955
O O3 0.858163 0.211703 0.239899
O O4 0.000000 0.295615 0.250000
O O5 0.113775 0.553685 0.767099
O O6 0.361668 0.469920 0.488336
O O7 0.000000 0.458169 0.750000
O O8 0.094254 0.439490 0.869995
O O9 0.234614 0.929085 0.178042
O O10 0.500000 0.379852 0.750000
O O11 0.477951 0.387065 0.520311
O O12 0.500000 0.618901 0.750000
#
# Coordination Sequence:
#
# PCOD9272922 Si02
#       5
#     8   8   8   8   8
#     4  10  20  37  61  89 124 155 210 262 301 365
#     4  11  22  40  65  86 126 167 204 254 313 365
#     4  10  23  40  60  94 118 166 209 254 307 371
#     4  10  22  38  62  92 121 164 206 255 312 362
#     4  11  23  43  62  92 133 163 203 256 307 372
#
# _framework density 22.309384999999999
#
# number of rings (size 3 to 8) (size 9 to 14) (size 15 to 20)
#    0.000    1.600    2.000    3.600    5.600    0.000 
#    3.600    6.000    0.000    0.000    0.000    0.000 
#    0.000    0.000    0.000    0.000    0.000    0.000 
#
# Total GULP energy -111389.068657 kJ/mol
# GULP energy per Si atom -5569.453433 kJ/mol
# Density = 2.225861 g / cm^3
# Si number density = 22.309385 Si / 1000 Ang^3
#
#
#
# Elastic Constant Matrix: (Units=GPa)
#
#
# Indices 1 2 3 4 5 6 
#
# 1 107.4680 18.8277 36.9365 0.0013 8.5600 -0.0003
# 2 18.8277 39.5469 16.6889 0.0009 14.7980 -0.0004
# 3 36.9365 16.6889 88.6318 0.0018 -12.1308 -0.0007
# 4 0.0013 0.0009 0.0018 22.6284 -0.0013 4.9282
# 5 8.5600 14.7980 -12.1308 -0.0013 50.6547 0.0004
# 6 -0.0003 -0.0004 -0.0007 4.9282 0.0004 13.2018
#
#
#
# Elastic Compliance Matrix: (Units=1/GPa)
#
#
# Indices 1 2 3 4 5 6 
#
# 1 0.011544 -0.002702 -0.004612 0.000000 -0.002266 0.000000
# 2 -0.002702 0.033474 -0.006672 -0.000002 -0.010920 0.000001
# 3 -0.004612 -0.006672 0.015337 0.000000 0.006401 0.000000
# 4 0.000000 -0.000002 0.000000 0.048103 0.000002 -0.017957
# 5 -0.002266 -0.010920 0.006401 0.000002 0.024848 -0.000001
# 6 0.000000 0.000001 0.000000 -0.017957 -0.000001 0.082450
#
#
# Mechanical properties :
#
#
# Convention : Reuss Voigt Hill
#
# Bulk Modulus (GPa) = 30.87930 42.28364 36.58147
# Shear Modulus (GPa) = 19.64460 28.17657 23.91059
#
# Velocity S-wave (km/s) = 2.97063 3.55772 3.27735
# Velocity P-wave (km/s) = 5.06336 5.98923 5.54565
#
# Compressibility (1/GPa) = 0.03238416
#
# Stress axis : x y z
#
# Youngs Moduli (GPa) = 86.62387 29.87364 65.20091
#
# Poissons Ratio (x) = 0.08071 0.30073
# Poissons Ratio (y) = 0.23402 0.43501
# Poissons Ratio (z) = 0.39954 0.19931
#
# Static dielectric constant tensor:
#      x y z
#    x 1.925150 0.000000 0.025320 
#    y 0.000000 1.904520 0.000000 
#    z 0.025320 0.000000 1.907460 
# 
# From -- ./inp_files/31485.got.cif
#   From: 2010.05.17/outbox.cif.g08.bks.cpg/sg15_16_cif.got.tgz:31485.got - 2010.06.03 18:47:42.
