data_PCOD9272746
_publ_section_title
;
Structure prediction by ZEFSAII (Michael W. Deem and Ramdas Pophale) SiO2 
 PCOD9272746
Probable space group: C 2/C
;
_chemical_formula_sum "Si O2"
_cell_formula_units_Z 44
_cell_length_a 8.193776
_cell_length_b 11.673776
_cell_length_c 27.425338
_cell_angle_alpha 90.000000
_cell_angle_beta 126.787332
_cell_angle_gamma 90.000000
_cell_volume 2100.903439
_symmetry_space_group_name_H-M "C 2/C"
_symmetry_group_IT_number 15
_symmetry_cell_setting 'monoclinic'
loop_
_space_group_symop_operation_xyz
x,y,z
-x,y,1/2-z
-x,-y,-z
x,-y,1/2+z
1/2+x,1/2+y,z
1/2-x,1/2+y,1/2-z
1/2-x,1/2-y,-z
1/2+x,1/2-y,1/2+z
loop_
_atom_site_type_symbol
_atom_site_label
_atom_site_fract_x
_atom_site_fract_y
_atom_site_fract_z
Si Si1 0.000000 0.954713 0.750000
Si Si2 0.797720 0.870394 0.481878
Si Si3 0.903470 0.384927 0.161202
Si Si4 0.825421 0.151223 0.780490
Si Si5 0.445977 0.129488 0.332211
Si Si6 0.746699 0.126789 0.472862
O O1 0.939998 0.038574 0.783394
O O2 0.795912 0.885360 0.703663
O O3 0.750000 0.750000 0.500000
O O4 0.690534 0.865492 0.409028
O O5 0.040924 0.876084 0.518606
O O6 0.736393 0.996248 0.493671
O O7 0.748798 0.359030 0.177014
O O8 0.122923 0.327454 0.211599
O O9 0.962255 0.518250 0.176456
O O10 0.976455 0.257695 0.806258
O O11 0.555283 0.135776 0.403191
O O12 0.750000 0.250000 0.500000
#
# Coordination Sequence:
#
# PCOD9272746 Si02
#       6
#     4   8   8   8   8   8
#     4  10  22  36  58  90 114 152 202 242 300 372
#     4  10  22  42  64  88 122 165 209 251 302 366
#     4   9  20  39  59  85 119 154 196 248 303 358
#     4  10  20  37  60  86 117 150 193 247 305 360
#     4  10  21  38  58  85 121 154 194 247 301 361
#     4  10  22  40  60  89 124 158 204 256 304 358
#
# _framework density 20.943370999999999
#
# number of rings (size 3 to 8) (size 9 to 14) (size 15 to 20)
#    0.000    2.182    0.000    2.182    0.000    8.000 
#    0.000   27.273    0.000    0.000    0.000    0.000 
#    0.000    0.000    0.000    0.000    0.000    0.000 
#
# Total GULP energy -122641.229195 kJ/mol
# GULP energy per Si atom -5574.601327 kJ/mol
# Density = 2.089570 g / cm^3
# Si number density = 20.943371 Si / 1000 Ang^3
#
#
#
# Elastic Constant Matrix: (Units=GPa)
#
#
# Indices 1 2 3 4 5 6 
#
# 1 40.5177 39.2661 11.2349 0.0000 -2.5727 0.0000
# 2 39.2661 179.4906 55.4161 0.0000 -3.7784 0.0000
# 3 11.2349 55.4161 83.2722 0.0000 8.3025 0.0000
# 4 0.0000 0.0000 0.0000 42.9099 0.0000 -1.0122
# 5 -2.5727 -3.7784 8.3025 0.0000 24.3659 0.0000
# 6 0.0000 0.0000 0.0000 -1.0122 0.0000 18.9240
#
#
#
# Elastic Compliance Matrix: (Units=1/GPa)
#
#
# Indices 1 2 3 4 5 6 
#
# 1 0.031445 -0.006865 0.000104 0.000000 0.002220 0.000000
# 2 -0.006865 0.008696 -0.005096 0.000000 0.002360 0.000000
# 3 0.000104 -0.005096 0.016008 0.000000 -0.006234 0.000000
# 4 0.000000 0.000000 0.000000 0.023334 0.000000 0.001248
# 5 0.002220 0.002360 -0.006234 0.000000 0.043766 0.000000
# 6 0.000000 0.000000 0.000000 0.001248 0.000000 0.052910
#
#
# Mechanical properties :
#
#
# Convention : Reuss Voigt Hill
#
# Bulk Modulus (GPa) = 30.82989 57.23497 44.03243
# Shear Modulus (GPa) = 23.73227 30.39750 27.06489
#
# Velocity S-wave (km/s) = 3.36990 3.81388 3.59874
# Velocity P-wave (km/s) = 5.46756 6.83973 6.19178
#
# Compressibility (1/GPa) = 0.03243606
#
# Stress axis : x y z
#
# Youngs Moduli (GPa) = 31.80146 114.99318 62.46962
#
# Poissons Ratio (x) = 0.78938 -0.00652
# Poissons Ratio (y) = 0.21830 0.31837
# Poissons Ratio (z) = -0.00332 0.58604
#
# Static dielectric constant tensor:
#      x y z
#    x 1.733380 0.000000 -0.016760 
#    y 0.000000 1.863330 0.000000 
#    z -0.016760 0.000000 1.756240 
# 
# From -- ./inp_files/230203.got.cif
#   From: 2010.05.17/outbox.cif.g08.bks.cpg/sg15_116_cif.got.tgz:230203.got - 2010.06.03 18:47:42.
