data_PCOD9272236
_publ_section_title
;
Structure prediction by ZEFSAII (Michael W. Deem and Ramdas Pophale) SiO2 
 PCOD9272236
Probable space group: C 2/C
;
_chemical_formula_sum "Si O2"
_cell_formula_units_Z 56
_cell_length_a 9.480208
_cell_length_b 28.004360
_cell_length_c 17.549673
_cell_angle_alpha 90.000000
_cell_angle_beta 38.767286
_cell_angle_gamma 90.000000
_cell_volume 2917.406786
_symmetry_space_group_name_H-M "C 2/C"
_symmetry_group_IT_number 15
_symmetry_cell_setting 'monoclinic'
loop_
_space_group_symop_operation_xyz
x,y,z
-x,y,1/2-z
-x,-y,-z
x,-y,1/2+z
1/2+x,1/2+y,z
1/2-x,1/2+y,1/2-z
1/2-x,1/2-y,-z
1/2+x,1/2-y,1/2+z
loop_
_atom_site_type_symbol
_atom_site_label
_atom_site_fract_x
_atom_site_fract_y
_atom_site_fract_z
Si Si1 0.540854 0.882869 0.072323
Si Si2 0.848970 0.356689 0.991636
Si Si3 0.870439 0.720985 0.224359
Si Si4 0.001984 0.154177 0.440449
Si Si5 0.315725 0.961806 0.385166
Si Si6 0.309615 0.570139 0.067236
Si Si7 0.865245 0.827043 0.174340
O O1 0.475080 0.874988 0.012956
O O2 0.605654 0.937235 0.069363
O O3 0.338530 0.859471 0.207937
O O4 0.774627 0.856557 0.991921
O O5 0.600434 0.337915 0.118107
O O6 0.794356 0.400423 0.958233
O O7 0.983031 0.314824 0.890572
O O8 0.637111 0.696613 0.345884
O O9 0.822971 0.771222 0.204569
O O10 0.000000 0.727955 0.250000
O O11 0.926163 0.163648 0.559832
O O12 0.179107 0.109185 0.369230
O O13 0.500000 0.943040 0.250000
O O14 0.074736 0.943708 0.456242
O O15 0.308395 0.018917 0.383824
#
# Coordination Sequence:
#
# PCOD9272236 Si02
#       7
#     8   8   8   8   8   8   8
#     4  11  23  41  60  92 130 160 197 269 304 370
#     4  11  23  39  63  89 128 161 207 254 316 357
#     4  12  23  39  66  88 120 169 213 256 300 373
#     4  10  23  42  62  88 126 160 211 248 311 362
#     4  10  20  36  66  90 119 160 210 247 318 366
#     4   9  20  38  62  90 116 162 209 253 295 379
#     4  11  23  40  65  89 122 165 213 251 305 369
#
# _framework density 19.195129000000001
#
# number of rings (size 3 to 8) (size 9 to 14) (size 15 to 20)
#    0.000    1.429    2.857    4.714    4.000    1.714 
#    2.571    0.000    0.000    0.000    0.000    0.000 
#    0.000    0.000    0.000    0.000    0.000    0.000 
#
# Total GULP energy -156097.419310 kJ/mol
# GULP energy per Si atom -5574.907832 kJ/mol
# Density = 1.915144 g / cm^3
# Si number density = 19.195129 Si / 1000 Ang^3
#
#
#
# Elastic Constant Matrix: (Units=GPa)
#
#
# Indices 1 2 3 4 5 6 
#
# 1 140.8383 54.1692 32.0688 0.0000 -8.8006 0.0000
# 2 54.1692 125.2658 39.8648 0.0000 -2.1783 0.0000
# 3 32.0688 39.8648 62.4528 0.0000 -10.4272 0.0000
# 4 0.0000 0.0000 0.0000 23.7120 0.0000 8.2099
# 5 -8.8006 -2.1783 -10.4272 0.0000 11.3635 0.0000
# 6 0.0000 0.0000 0.0000 8.2099 0.0000 22.8660
#
#
#
# Elastic Compliance Matrix: (Units=1/GPa)
#
#
# Indices 1 2 3 4 5 6 
#
# 1 0.009059 -0.003272 -0.001767 0.000000 0.004767 0.000000
# 2 -0.003272 0.011414 -0.006688 0.000000 -0.006483 0.000000
# 3 -0.001767 -0.006688 0.024499 0.000000 0.019830 0.000000
# 4 0.000000 0.000000 0.000000 0.048159 0.000000 -0.017291
# 5 0.004767 -0.006483 0.019830 0.000000 0.108647 0.000000
# 6 0.000000 0.000000 0.000000 -0.017291 0.000000 0.049941
#
#
# Mechanical properties :
#
#
# Convention : Reuss Voigt Hill
#
# Bulk Modulus (GPa) = 46.47285 64.52917 55.50101
# Shear Modulus (GPa) = 17.70876 25.08524 21.39700
#
# Velocity S-wave (km/s) = 3.04067 3.61897 3.34235
# Velocity P-wave (km/s) = 6.04904 7.15213 6.62359
#
# Compressibility (1/GPa) = 0.02151794
#
# Stress axis : x y z
#
# Youngs Moduli (GPa) = 110.38545 87.61480 40.81767
#
# Poissons Ratio (x) = 0.28669 0.07213
# Poissons Ratio (y) = 0.36120 0.27297
# Poissons Ratio (z) = 0.19507 0.58594
#
# Static dielectric constant tensor:
#      x y z
#    x 1.658990 0.000000 -0.004450 
#    y 0.000000 1.700560 0.000000 
#    z -0.004450 0.000000 1.682200 
# 
# From -- ./inp_files/193842.got.cif
#   From: 2010.05.17/outbox.cif.g08.bks.cpg/sg15_97_cif.got.tgz:193842.got - 2010.06.03 18:47:42.
