data_PCOD9272598
_publ_section_title
;
Structure prediction by ZEFSAII (Michael W. Deem and Ramdas Pophale) SiO2 
 PCOD9272598
Probable space group: C 2/C
;
_chemical_formula_sum "Si O2"
_cell_formula_units_Z 40
_cell_length_a 5.880568
_cell_length_b 27.920528
_cell_length_c 10.294151
_cell_angle_alpha 90.000000
_cell_angle_beta 96.259947
_cell_angle_gamma 90.000000
_cell_volume 1680.104026
_symmetry_space_group_name_H-M "C 2/C"
_symmetry_group_IT_number 15
_symmetry_cell_setting 'monoclinic'
loop_
_space_group_symop_operation_xyz
x,y,z
-x,y,1/2-z
-x,-y,-z
x,-y,1/2+z
1/2+x,1/2+y,z
1/2-x,1/2+y,1/2-z
1/2-x,1/2-y,-z
1/2+x,1/2-y,1/2+z
loop_
_atom_site_type_symbol
_atom_site_label
_atom_site_fract_x
_atom_site_fract_y
_atom_site_fract_z
Si Si1 0.447324 0.115448 0.117500
Si Si2 0.800406 0.071525 0.943022
Si Si3 0.000000 0.795731 0.750000
Si Si4 0.000000 0.755920 0.250000
Si Si5 0.832599 0.024282 0.358822
Si Si6 0.539256 0.335478 0.468231
O O1 0.500000 0.146031 0.250000
O O2 0.303417 0.072686 0.173807
O O3 0.297087 0.145705 0.006731
O O4 0.640144 0.089258 0.047581
O O5 0.691344 0.024856 0.868572
O O6 0.026980 0.044656 0.008492
O O7 0.892212 0.121544 0.892710
O O8 0.241599 0.767326 0.745083
O O9 0.964129 0.825805 0.613717
O O10 0.019114 0.788905 0.380183
O O11 0.000000 0.014897 0.250000
#
# Coordination Sequence:
#
# PCOD9272598 Si02
#       6
#     8   8   4   4   8   8
#     4  11  21  39  69 100 140 192 246 294 350 435
#     4  10  22  38  63  93 143 182 241 289 353 423
#     4  12  28  52  82 107 146 191 244 306 382 466
#     4  12  30  52  78 113 148 187 238 314 392 454
#     4  10  20  37  58  96 138 191 237 289 344 417
#     4  11  27  46  75 108 141 188 242 307 372 449
#
# _framework density 23.808050000000001
#
# number of rings (size 3 to 8) (size 9 to 14) (size 15 to 20)
#    0.000    1.200    2.000    3.000   11.200    0.000 
#    0.000    0.000    0.000    0.000    0.000    0.000 
#    0.000    0.000    0.000    0.000    0.000    0.000 
#
# Total GULP energy -111378.261332 kJ/mol
# GULP energy per Si atom -5568.913067 kJ/mol
# Density = 2.375386 g / cm^3
# Si number density = 23.808050 Si / 1000 Ang^3
#
#
#
# Elastic Constant Matrix: (Units=GPa)
#
#
# Indices 1 2 3 4 5 6 
#
# 1 73.8380 56.9796 15.3623 0.0000 -8.4483 0.0000
# 2 56.9796 118.2048 27.3239 0.0000 -7.8406 0.0000
# 3 15.3623 27.3239 65.6413 0.0000 -0.1737 0.0000
# 4 0.0000 0.0000 0.0000 2.9624 0.0000 -33.8831
# 5 -8.4483 -7.8406 -0.1737 0.0000 31.4155 0.0000
# 6 0.0000 0.0000 0.0000 -33.8831 0.0000 -6.0950
#
#
#
# Elastic Compliance Matrix: (Units=1/GPa)
#
#
# Indices 1 2 3 4 5 6 
#
# 1 0.021946 -0.010147 -0.000903 0.000000 0.003364 0.000000
# 2 -0.010147 0.014224 -0.003544 0.000000 0.000802 0.000000
# 3 -0.000903 -0.003544 0.016918 0.000000 -0.001034 0.000000
# 4 0.000000 0.000000 0.000000 0.005227 0.000000 -0.029056
# 5 0.003364 0.000802 -0.001034 0.000000 0.032930 0.000000
# 6 0.000000 0.000000 0.000000 -0.029056 0.000000 -0.002540
#
#
# Mechanical properties :
#
#
# Convention : Reuss Voigt Hill
#
# Bulk Modulus (GPa) = 41.84204 50.77951 46.31077
# Shear Modulus (GPa) = 39.72661 16.19113 27.95887
#
# Velocity S-wave (km/s) = 4.08931 2.61064 3.43059
# Velocity P-wave (km/s) = 6.31739 5.51927 5.93177
#
# Compressibility (1/GPa) = 0.02389941
#
# Stress axis : x y z
#
# Youngs Moduli (GPa) = 45.56550 70.30595 59.10801
#
# Poissons Ratio (x) = 0.71340 0.05340
# Poissons Ratio (y) = 0.46236 0.20947
# Poissons Ratio (z) = 0.04117 0.24915
#
# Static dielectric constant tensor:
#      x y z
#    x 2.200280 0.000000 0.394950 
#    y 0.000000 2.023280 0.000000 
#    z 0.394950 0.000000 2.368760 
# 
# From -- ./inp_files/73235.got.cif
#   From: 2010.05.17/outbox.cif.g08.bks.cpg/sg15_37_cif.got.tgz:73235.got - 2010.06.03 18:47:42.
