data_PCOD9272621
_publ_section_title
;
Structure prediction by ZEFSAII (Michael W. Deem and Ramdas Pophale) SiO2 
 PCOD9272621
Probable space group: C 2/C
;
_chemical_formula_sum "Si O2"
_cell_formula_units_Z 32
_cell_length_a 16.928504
_cell_length_b 9.597019
_cell_length_c 21.697469
_cell_angle_alpha 90.000000
_cell_angle_beta 19.934759
_cell_angle_gamma 90.000000
_cell_volume 1201.862008
_symmetry_space_group_name_H-M "C 2/C"
_symmetry_group_IT_number 15
_symmetry_cell_setting 'monoclinic'
loop_
_space_group_symop_operation_xyz
x,y,z
-x,y,1/2-z
-x,-y,-z
x,-y,1/2+z
1/2+x,1/2+y,z
1/2-x,1/2+y,1/2-z
1/2-x,1/2-y,-z
1/2+x,1/2-y,1/2+z
loop_
_atom_site_type_symbol
_atom_site_label
_atom_site_fract_x
_atom_site_fract_y
_atom_site_fract_z
Si Si1 0.279568 0.527877 0.376951
Si Si2 0.477683 0.276081 0.900923
Si Si3 0.311144 0.710022 0.770798
Si Si4 0.827690 0.965059 0.568506
O O1 0.500000 0.465833 0.250000
O O2 0.379358 0.641888 0.255396
O O3 0.175840 0.400015 0.414400
O O4 0.131363 0.624868 0.531412
O O5 0.028621 0.126561 0.585922
O O6 0.289826 0.388365 0.063449
O O7 0.359517 0.856215 0.768889
O O8 0.151110 0.742914 0.829861
O O9 0.000000 0.000000 0.500000
#
# Coordination Sequence:
#
# PCOD9272621 Si02
#       4
#     8   8   8   8
#     4  11  23  38  57  87 119 149 187 239 291 334
#     4  10  20  37  59  83 112 152 194 231 277 345
#     4  10  20  37  60  84 113 150 194 235 279 342
#     4   9  19  34  55  86 111 141 192 239 274 327
#
# _framework density 26.625354000000002
#
# number of rings (size 3 to 8) (size 9 to 14) (size 15 to 20)
#    0.000    2.000    0.000    4.500    0.000    6.000 
#    0.000    6.250    0.000    0.000    0.000    0.000 
#    0.000    0.000    0.000    0.000    0.000    0.000 
#
# Total GULP energy -89491.059433 kJ/mol
# GULP energy per Si atom -5593.191215 kJ/mol
# Density = 2.656475 g / cm^3
# Si number density = 26.625354 Si / 1000 Ang^3
#
#
#
# Elastic Constant Matrix: (Units=GPa)
#
#
# Indices 1 2 3 4 5 6 
#
# 1 68.1765 20.8079 9.9858 0.0286 3.4903 -0.0295
# 2 20.8079 168.7812 31.3195 -0.0406 19.9104 0.0409
# 3 9.9858 31.3195 47.1407 0.0583 21.0375 -0.0808
# 4 0.0286 -0.0406 0.0583 58.1136 0.0365 7.2753
# 5 3.4903 19.9104 21.0375 0.0365 30.0366 -0.0297
# 6 -0.0295 0.0409 -0.0808 7.2753 -0.0297 43.7798
#
#
#
# Elastic Compliance Matrix: (Units=1/GPa)
#
#
# Indices 1 2 3 4 5 6 
#
# 1 0.015483 -0.001530 -0.002783 -0.000008 0.001164 0.000009
# 2 -0.001530 0.006988 -0.003391 0.000013 -0.002080 -0.000017
# 3 -0.002783 -0.003391 0.033324 -0.000028 -0.020769 0.000053
# 4 -0.000008 0.000013 -0.000028 0.017573 -0.000012 -0.002920
# 5 0.001164 -0.002080 -0.020769 -0.000012 0.049082 0.000000
# 6 0.000009 -0.000017 0.000053 -0.002920 0.000000 0.023327
#
#
# Mechanical properties :
#
#
# Convention : Reuss Voigt Hill
#
# Bulk Modulus (GPa) = 24.75964 45.36943 35.06454
# Shear Modulus (GPa) = 28.62930 41.18504 34.90717
#
# Velocity S-wave (km/s) = 3.28268 3.93725 3.62477
# Velocity P-wave (km/s) = 4.86698 6.14379 5.54227
#
# Compressibility (1/GPa) = 0.04038831
#
# Stress axis : x y z
#
# Youngs Moduli (GPa) = 64.58827 143.10424 30.00849
#
# Poissons Ratio (x) = 0.21890 0.08351
# Poissons Ratio (y) = 0.09880 0.10175
# Poissons Ratio (z) = 0.17974 0.48521
#
# Static dielectric constant tensor:
#      x y z
#    x 2.076650 0.000000 0.022510 
#    y 0.000000 2.061000 0.000020 
#    z 0.022510 0.000020 2.228940 
# 
# From -- ./inp_files/276152.got.cif
#   From: 2010.05.17/outbox.cif.g08.bks.cpg/sg15_139_cif.got.tgz:276152.got - 2010.06.03 18:47:42.
