data_PCOD9272139
_publ_section_title
;
Structure prediction by ZEFSAII (Michael W. Deem and Ramdas Pophale) SiO2 
 PCOD9272139
Probable space group: C 2/C
;
_chemical_formula_sum "Si O2"
_cell_formula_units_Z 40
_cell_length_a 14.012097
_cell_length_b 14.849097
_cell_length_c 26.657579
_cell_angle_alpha 90.000000
_cell_angle_beta 20.583088
_cell_angle_gamma 90.000000
_cell_volume 1949.978990
_symmetry_space_group_name_H-M "C 2/C"
_symmetry_group_IT_number 15
_symmetry_cell_setting 'monoclinic'
loop_
_space_group_symop_operation_xyz
x,y,z
-x,y,1/2-z
-x,-y,-z
x,-y,1/2+z
1/2+x,1/2+y,z
1/2-x,1/2+y,1/2-z
1/2-x,1/2-y,-z
1/2+x,1/2-y,1/2+z
loop_
_atom_site_type_symbol
_atom_site_label
_atom_site_fract_x
_atom_site_fract_y
_atom_site_fract_z
Si Si1 0.054877 0.277904 0.363938
Si Si2 0.397870 0.579541 0.147070
Si Si3 0.988115 0.581440 0.696819
Si Si4 0.289657 0.419351 0.815233
Si Si5 0.700564 0.124562 0.891422
O O1 0.196450 0.183913 0.308946
O O2 0.060891 0.336745 0.410804
O O3 0.750000 0.250000 0.500000
O O4 0.141837 0.339035 0.273787
O O5 0.406528 0.567114 0.202813
O O6 0.189981 0.508157 0.225631
O O7 0.699995 0.568969 0.975497
O O8 0.000000 0.602810 0.750000
O O9 0.500000 0.373726 0.750000
O O10 0.241751 0.519264 0.859794
O O11 0.001936 0.368832 0.961829
O O12 0.000000 0.164755 0.750000
#
# Coordination Sequence:
#
# PCOD9272139 Si02
#       5
#     8   8   8   8   8
#     4  10  22  41  65  95 129 171 217 265 323 399
#     4  11  24  40  67  91 124 169 215 264 319 383
#     4  11  24  44  64  90 130 174 218 260 318 393
#     4  10  20  36  64  92 122 163 201 257 333 387
#     4  10  21  37  63  95 127 155 205 273 323 376
#
# _framework density 20.513041999999999
#
# number of rings (size 3 to 8) (size 9 to 14) (size 15 to 20)
#    0.000    1.600    2.000    3.000    5.600    4.800 
#    0.000    4.000    0.000    0.000    0.000    0.000 
#    0.000    0.000    0.000    0.000    0.000    0.000 
#
# Total GULP energy -111479.937178 kJ/mol
# GULP energy per Si atom -5573.996859 kJ/mol
# Density = 2.046635 g / cm^3
# Si number density = 20.513042 Si / 1000 Ang^3
#
#
#
# Elastic Constant Matrix: (Units=GPa)
#
#
# Indices 1 2 3 4 5 6 
#
# 1 81.1016 8.7719 51.3719 0.4623 8.0517 1.2997
# 2 8.7719 87.7698 31.0454 -1.6760 -13.8627 -4.0904
# 3 51.3719 31.0454 130.3749 -11.1355 17.9339 -27.5830
# 4 0.4623 -1.6760 -11.1355 -246.6579 2.7238 -671.1502
# 5 8.0517 -13.8627 17.9339 2.7238 31.7907 6.6941
# 6 1.2997 -4.0904 -27.5830 -671.1502 6.6941-1633.0941
#
#
#
# Elastic Compliance Matrix: (Units=1/GPa)
#
#
# Indices 1 2 3 4 5 6 
#
# 1 0.016448 0.000662 -0.006587 0.000085 -0.000186 0.000087
# 2 0.000662 0.014475 -0.004914 0.000041 0.008899 0.000067
# 3 -0.006587 -0.004914 0.012408 -0.000108 -0.007425 -0.000189
# 4 0.000085 0.000041 -0.000108 0.034290 0.000086 -0.014090
# 5 -0.000186 0.008899 -0.007425 0.000086 0.039517 0.000230
# 6 0.000087 0.000067 -0.000189 -0.014090 0.000230 0.005182
#
#
# Mechanical properties :
#
#
# Convention : Reuss Voigt Hill
#
# Bulk Modulus (GPa) = 46.18381 53.51384 49.84883
# Shear Modulus (GPa) = 33.06525 -355.72177 -161.32826
#
# Velocity S-wave (km/s) = 4.01922 -13.18290 -8.87792
# Velocity P-wave (km/s) = 6.64094 14.33786 8.98533
#
# Compressibility (1/GPa) = 0.02165261
#
# Stress axis : x y z
#
# Youngs Moduli (GPa) = 60.79823 69.08510 80.59086
#
# Poissons Ratio (x) = -0.04577 0.53089
# Poissons Ratio (y) = -0.04028 0.39605
# Poissons Ratio (z) = 0.40050 0.33950
#
# Static dielectric constant tensor:
#      x y z
#    x 1.717820 0.000090 0.003520 
#    y 0.000090 1.788260 -0.000080 
#    z 0.003520 -0.000080 1.788820 
# 
# From -- ./inp_files/296493.got.cif
#   From: 2010.05.17/outbox.cif.g08.bks.cpg/sg15_149_cif.got.tgz:296493.got - 2010.06.03 18:47:42.
