data_PCOD9272596
_publ_section_title
;
Structure prediction by ZEFSAII (Michael W. Deem and Ramdas Pophale) SiO2 
 PCOD9272596
Probable space group: C 2/C
;
_chemical_formula_sum "Si O2"
_cell_formula_units_Z 60
_cell_length_a 11.175098
_cell_length_b 28.865724
_cell_length_c 9.142114
_cell_angle_alpha 90.000000
_cell_angle_beta 69.519407
_cell_angle_gamma 90.000000
_cell_volume 2762.631914
_symmetry_space_group_name_H-M "C 2/C"
_symmetry_group_IT_number 15
_symmetry_cell_setting 'monoclinic'
loop_
_space_group_symop_operation_xyz
x,y,z
-x,y,1/2-z
-x,-y,-z
x,-y,1/2+z
1/2+x,1/2+y,z
1/2-x,1/2+y,1/2-z
1/2-x,1/2-y,-z
1/2+x,1/2-y,1/2+z
loop_
_atom_site_type_symbol
_atom_site_label
_atom_site_fract_x
_atom_site_fract_y
_atom_site_fract_z
Si Si1 0.815388 0.936954 0.630802
Si Si2 0.014796 0.200156 0.571635
Si Si3 0.709426 0.012004 0.452643
Si Si4 0.940103 0.100939 0.612127
Si Si5 0.840258 0.438133 0.252429
Si Si6 0.701974 0.836568 0.620567
Si Si7 0.500000 0.855531 0.250000
Si Si8 0.542023 0.802323 0.958465
O O1 0.788086 0.978301 0.527643
O O2 0.728320 0.891873 0.627741
O O3 0.960222 0.921690 0.541932
O O4 0.785532 0.955566 0.805911
O O5 0.161375 0.185577 0.478632
O O6 0.975366 0.247576 0.513288
O O7 0.000000 0.210020 0.750000
O O8 0.929398 0.154969 0.574493
O O9 0.636278 0.976525 0.378962
O O10 0.628697 0.042831 0.599234
O O11 0.810205 0.073104 0.677159
O O12 0.000000 0.100668 0.750000
O O13 0.907182 0.389619 0.202206
O O14 0.649408 0.815915 0.795054
O O15 0.591652 0.822288 0.552527
O O16 0.428999 0.825256 0.399412
#
# Coordination Sequence:
#
# PCOD9272596 Si02
#       8
#     8   8   8   8   8   8   4   8
#     4  10  20  37  58  93 118 162 198 262 320 367
#     4  10  21  38  68 100 121 162 212 265 312 372
#     4  10  22  38  64  86 125 156 212 257 312 382
#     4  10  21  37  65  92 125 157 202 262 323 372
#     4  11  24  43  59  92 121 168 207 260 313 376
#     4  10  21  40  67  91 127 158 225 261 308 373
#     4  12  28  42  62  86 138 170 210 258 326 370
#     4  11  23  40  64  94 122 175 211 264 303 380
#
# _framework density 21.718419000000001
#
# number of rings (size 3 to 8) (size 9 to 14) (size 15 to 20)
#    0.000    1.600    2.667    2.000    3.733    4.267 
#    0.000   10.667    0.000    0.000    0.000    0.000 
#    0.000    0.000    0.000    0.000    0.000    0.000 
#
# Total GULP energy -167676.678375 kJ/mol
# GULP energy per Si atom -5589.222613 kJ/mol
# Density = 2.166899 g / cm^3
# Si number density = 21.718419 Si / 1000 Ang^3
#
#
#
# Elastic Constant Matrix: (Units=GPa)
#
#
# Indices 1 2 3 4 5 6 
#
# 1 45.2170 23.1190 4.2044 0.0000 -9.4483 0.0000
# 2 23.1190 140.7756 45.0266 0.0000 -2.4567 0.0000
# 3 4.2044 45.0266 109.4455 0.0000 6.1478 0.0000
# 4 0.0000 0.0000 0.0000 58.6129 0.0000 -4.2002
# 5 -9.4483 -2.4567 6.1478 0.0000 17.2260 0.0000
# 6 0.0000 0.0000 0.0000 -4.2002 0.0000 11.2639
#
#
#
# Elastic Compliance Matrix: (Units=1/GPa)
#
#
# Indices 1 2 3 4 5 6 
#
# 1 0.027280 -0.004185 -0.000136 0.000000 0.014414 0.000000
# 2 -0.004185 0.008922 -0.003523 0.000000 0.000234 0.000000
# 3 -0.000136 -0.003523 0.010841 0.000000 -0.004446 0.000000
# 4 0.000000 0.000000 0.000000 0.017530 0.000000 0.006537
# 5 0.014414 0.000234 -0.004446 0.000000 0.067578 0.000000
# 6 0.000000 0.000000 0.000000 0.006537 0.000000 0.091217
#
#
# Mechanical properties :
#
#
# Convention : Reuss Voigt Hill
#
# Bulk Modulus (GPa) = 31.89253 48.90424 40.39839
# Shear Modulus (GPa) = 20.03956 32.29309 26.16633
#
# Velocity S-wave (km/s) = 3.04089 3.86022 3.47479
# Velocity P-wave (km/s) = 5.20056 6.51419 5.89408
#
# Compressibility (1/GPa) = 0.03135530
#
# Stress axis : x y z
#
# Youngs Moduli (GPa) = 36.65695 112.08698 92.24037
#
# Poissons Ratio (x) = 0.46909 0.01254
# Poissons Ratio (y) = 0.15341 0.32494
# Poissons Ratio (z) = 0.00498 0.39486
#
# Static dielectric constant tensor:
#      x y z
#    x 1.796070 0.000000 0.015920 
#    y 0.000000 1.794780 0.000000 
#    z 0.015920 0.000000 1.768190 
# 
# From -- ./inp_files/35637.got.cif
#   From: 2010.05.17/outbox.cif.g08.bks.cpg/sg15_18_cif.got.tgz:35637.got - 2010.06.03 18:47:42.
