data_PCOD9272359
_publ_section_title
;
Structure prediction by ZEFSAII (Michael W. Deem and Ramdas Pophale) SiO2 
 PCOD9272359
Probable space group: C 2/C
;
_chemical_formula_sum "Si O2"
_cell_formula_units_Z 64
_cell_length_a 11.501767
_cell_length_b 10.586895
_cell_length_c 18.605285
_cell_angle_alpha 90.000000
_cell_angle_beta 78.381470
_cell_angle_gamma 90.000000
_cell_volume 2219.108040
_symmetry_space_group_name_H-M "C 2/C"
_symmetry_group_IT_number 15
_symmetry_cell_setting 'monoclinic'
loop_
_space_group_symop_operation_xyz
x,y,z
-x,y,1/2-z
-x,-y,-z
x,-y,1/2+z
1/2+x,1/2+y,z
1/2-x,1/2+y,1/2-z
1/2-x,1/2-y,-z
1/2+x,1/2-y,1/2+z
loop_
_atom_site_type_symbol
_atom_site_label
_atom_site_fract_x
_atom_site_fract_y
_atom_site_fract_z
Si Si1 0.730310 0.033621 0.624884
Si Si2 0.092364 0.350975 0.358675
Si Si3 0.890355 0.805143 0.831984
Si Si4 0.612478 0.425832 0.516384
Si Si5 0.550479 0.614741 0.811631
Si Si6 0.166217 0.732354 0.109394
Si Si7 0.515716 0.164678 0.477898
Si Si8 0.347659 0.115097 0.188490
O O1 0.668690 0.166841 0.644927
O O2 0.771442 0.021234 0.536584
O O3 0.852970 0.043731 0.653859
O O4 0.659649 0.905264 0.649885
O O5 0.210089 0.290965 0.379612
O O6 0.011135 0.391440 0.439055
O O7 0.120570 0.468254 0.302081
O O8 0.026694 0.242537 0.320115
O O9 0.881942 0.901093 0.900648
O O10 0.793041 0.867859 0.792604
O O11 0.500000 0.500000 0.500000
O O12 0.590961 0.287032 0.488781
O O13 0.500000 0.539918 0.750000
O O14 0.431828 0.661494 0.864218
O O15 0.605682 0.752907 0.783255
O O16 0.115892 0.695987 0.036588
O O17 0.595567 0.121778 0.399837
#
# Coordination Sequence:
#
# PCOD9272359 Si02
#       8
#     8   8   8   8   8   8   8   8
#     4  11  21  40  65  88 119 167 204 250 308 364
#     4  11  23  33  57  96 133 163 195 247 302 363
#     4  10  21  34  55  87 128 162 203 237 288 374
#     4  11  21  32  55  91 128 167 197 241 302 364
#     4  10  23  48  70  84 116 158 216 265 316 366
#     4  11  23  39  62  92 127 157 209 254 305 371
#     4  10  20  37  52  89 132 173 203 232 297 375
#     4  10  21  38  62  88 118 168 209 248 304 366
#
# _framework density 28.840416999999999
#
# number of rings (size 3 to 8) (size 9 to 14) (size 15 to 20)
#    0.000    1.500    3.750    4.125    5.250    1.000 
#    2.250    0.000    0.000    0.000    0.000    0.000 
#    0.000    0.000    0.000    0.000    0.000    0.000 
#
# Total GULP energy -178899.028557 kJ/mol
# GULP energy per Si atom -5590.594642 kJ/mol
# Density = 2.877478 g / cm^3
# Si number density = 28.840417 Si / 1000 Ang^3
#
#
#
# Elastic Constant Matrix: (Units=GPa)
#
#
# Indices 1 2 3 4 5 6 
#
# 1 181.5139 28.8358 20.9041 0.0000 12.8216 0.0000
# 2 28.8358 108.1385 19.9562 0.0000 -10.8406 0.0000
# 3 20.9041 19.9562 58.3427 0.0000 5.1855 0.0000
# 4 0.0000 0.0000 0.0000 35.8370 0.0000 -1.5466
# 5 12.8216 -10.8406 5.1855 0.0000 46.5935 0.0000
# 6 0.0000 0.0000 0.0000 -1.5466 0.0000 43.8201
#
#
#
# Elastic Compliance Matrix: (Units=1/GPa)
#
#
# Indices 1 2 3 4 5 6 
#
# 1 0.006054 -0.001527 -0.001482 0.000000 -0.001856 0.000000
# 2 -0.001527 0.010603 -0.003370 0.000000 0.003262 0.000000
# 3 -0.001482 -0.003370 0.019045 0.000000 -0.002496 0.000000
# 4 0.000000 0.000000 0.000000 0.027947 0.000000 0.000986
# 5 -0.001856 0.003262 -0.002496 0.000000 0.023010 0.000000
# 6 0.000000 0.000000 0.000000 0.000986 0.000000 0.022855
#
#
# Mechanical properties :
#
#
# Convention : Reuss Voigt Hill
#
# Bulk Modulus (GPa) = 43.58116 54.15415 48.86765
# Shear Modulus (GPa) = 38.48533 43.80338 41.14436
#
# Velocity S-wave (km/s) = 3.65694 3.90143 3.78116
# Velocity P-wave (km/s) = 5.74238 6.25402 6.00365
#
# Compressibility (1/GPa) = 0.02294570
#
# Stress axis : x y z
#
# Youngs Moduli (GPa) = 165.19269 94.30894 52.50585
#
# Poissons Ratio (x) = 0.14399 0.07780
# Poissons Ratio (y) = 0.25222 0.17693
# Poissons Ratio (z) = 0.24477 0.31780
#
# Static dielectric constant tensor:
#      x y z
#    x 2.253280 0.000000 -0.182530 
#    y 0.000000 3.095450 0.000000 
#    z -0.182530 0.000000 2.678160 
# 
# From -- ./inp_files/268817.got.cif
#   From: 2010.05.17/outbox.cif.g08.bks.cpg/sg15_135_cif.got.tgz:268817.got - 2010.06.03 18:47:42.
