data_PCOD9272951
_publ_section_title
;
Structure prediction by ZEFSAII (Michael W. Deem and Ramdas Pophale) SiO2 
 PCOD9272951
Probable space group: C 2/C
;
_chemical_formula_sum "Si O2"
_cell_formula_units_Z 64
_cell_length_a 7.295092
_cell_length_b 22.909050
_cell_length_c 19.187035
_cell_angle_alpha 90.000000
_cell_angle_beta 101.907251
_cell_angle_gamma 90.000000
_cell_volume 3137.609947
_symmetry_space_group_name_H-M "C 2/C"
_symmetry_group_IT_number 15
_symmetry_cell_setting 'monoclinic'
loop_
_space_group_symop_operation_xyz
x,y,z
-x,y,1/2-z
-x,-y,-z
x,-y,1/2+z
1/2+x,1/2+y,z
1/2-x,1/2+y,1/2-z
1/2-x,1/2-y,-z
1/2+x,1/2-y,1/2+z
loop_
_atom_site_type_symbol
_atom_site_label
_atom_site_fract_x
_atom_site_fract_y
_atom_site_fract_z
Si Si1 0.882428 0.158269 0.170304
Si Si2 0.703313 0.458159 0.474004
Si Si3 0.137487 0.112808 0.616671
Si Si4 0.532394 0.882530 0.088354
Si Si5 0.797384 0.272898 0.079425
Si Si6 0.963315 0.942187 0.894754
Si Si7 0.293932 0.922102 0.269674
Si Si8 0.290616 0.051993 0.262843
O O1 0.815983 0.219203 0.133781
O O2 0.749171 0.106286 0.189547
O O3 0.000000 0.171059 0.250000
O O4 0.982839 0.125360 0.112999
O O5 0.532961 0.417194 0.434344
O O6 0.889619 0.424561 0.465191
O O7 0.682400 0.457438 0.555582
O O8 0.644070 0.519528 0.433195
O O9 0.335055 0.090503 0.599338
O O10 0.150107 0.181343 0.601169
O O11 0.150316 0.096882 0.699023
O O12 0.476972 0.814804 0.078024
O O13 0.688616 0.883573 0.160906
O O14 0.750000 0.250000 0.000000
O O15 0.859971 0.952914 0.812509
O O16 0.500000 0.918142 0.250000
O O17 0.271606 0.988082 0.294235
O O18 0.500000 0.057873 0.250000
#
# Coordination Sequence:
#
# PCOD9272951 Si02
#       8
#     8   8   8   8   8   8   8   8
#     4  10  22  39  61  82 125 167 202 252 317 375
#     4  11  20  40  60  93 130 155 214 259 317 382
#     4   9  20  36  62  86 122 156 210 260 306 361
#     4   9  22  35  62  91 113 168 204 257 314 359
#     4  10  22  40  61  86 121 166 214 250 312 371
#     4  10  22  37  57  92 128 164 202 260 319 383
#     4   9  16  34  60  87 121 149 206 258 310 368
#     4  10  20  37  61  92 120 166 206 260 320 386
#
# _framework density 20.397690999999998
#
# number of rings (size 3 to 8) (size 9 to 14) (size 15 to 20)
#    0.750    1.500    1.250    1.500    1.750    1.500 
#    0.000    6.250    0.000    0.000    0.000    0.000 
#    0.000    0.000    0.000    0.000    0.000    0.000 
#
# Total GULP energy -178149.272809 kJ/mol
# GULP energy per Si atom -5567.164775 kJ/mol
# Density = 2.035126 g / cm^3
# Si number density = 20.397691 Si / 1000 Ang^3
#
#
#
# Elastic Constant Matrix: (Units=GPa)
#
#
# Indices 1 2 3 4 5 6 
#
# 1 44.4083 3.1110 9.7643 0.0000 -4.1354 0.0000
# 2 3.1110 110.7188 39.5377 0.0000 7.7380 0.0000
# 3 9.7643 39.5377 69.4743 0.0000 -16.5810 0.0000
# 4 0.0000 0.0000 0.0000 23.6226 0.0000 1.0383
# 5 -4.1354 7.7380 -16.5810 0.0000 24.7749 0.0000
# 6 0.0000 0.0000 0.0000 1.0383 0.0000 32.0333
#
#
#
# Elastic Compliance Matrix: (Units=1/GPa)
#
#
# Indices 1 2 3 4 5 6 
#
# 1 0.023328 0.000301 -0.003027 0.000000 0.001774 0.000000
# 2 0.000301 0.013508 -0.010383 0.000000 -0.011118 0.000000
# 3 -0.003027 -0.010383 0.025446 0.000000 0.019768 0.000000
# 4 0.000000 0.000000 0.000000 0.042393 0.000000 -0.001374
# 5 0.001774 -0.011118 0.019768 0.000000 0.057362 0.000000
# 6 0.000000 0.000000 0.000000 -0.001374 0.000000 0.031262
#
#
# Mechanical properties :
#
#
# Convention : Reuss Voigt Hill
#
# Bulk Modulus (GPa) = 27.72765 36.60303 32.16534
# Shear Modulus (GPa) = 21.59465 27.56540 24.58002
#
# Velocity S-wave (km/s) = 3.25727 3.68012 3.47513
# Velocity P-wave (km/s) = 5.26967 6.00345 5.64849
#
# Compressibility (1/GPa) = 0.03606508
#
# Stress axis : x y z
#
# Youngs Moduli (GPa) = 42.86707 74.02817 39.29834
#
# Poissons Ratio (x) = -0.02231 0.11895
# Poissons Ratio (y) = -0.01292 0.40805
# Poissons Ratio (z) = 0.12975 0.76867
#
# Static dielectric constant tensor:
#      x y z
#    x 1.804430 0.000000 -0.030100 
#    y 0.000000 1.726670 0.000000 
#    z -0.030100 0.000000 1.773030 
# 
# From -- ./inp_files/193003.got.cif
#   From: 2010.05.17/outbox.cif.g08.bks.cpg/sg15_97_cif.got.tgz:193003.got - 2010.06.03 18:47:42.
