data_PCOD9272327
_publ_section_title
;
Structure prediction by ZEFSAII (Michael W. Deem and Ramdas Pophale) SiO2 
 PCOD9272327
Probable space group: C 2/C
;
_chemical_formula_sum "Si O2"
_cell_formula_units_Z 44
_cell_length_a 14.800681
_cell_length_b 28.095559
_cell_length_c 8.704843
_cell_angle_alpha 90.000000
_cell_angle_beta 39.753693
_cell_angle_gamma 90.000000
_cell_volume 2314.797985
_symmetry_space_group_name_H-M "C 2/C"
_symmetry_group_IT_number 15
_symmetry_cell_setting 'monoclinic'
loop_
_space_group_symop_operation_xyz
x,y,z
-x,y,1/2-z
-x,-y,-z
x,-y,1/2+z
1/2+x,1/2+y,z
1/2-x,1/2+y,1/2-z
1/2-x,1/2-y,-z
1/2+x,1/2-y,1/2+z
loop_
_atom_site_type_symbol
_atom_site_label
_atom_site_fract_x
_atom_site_fract_y
_atom_site_fract_z
Si Si1 0.630879 0.326613 0.281859
Si Si2 0.917990 0.274196 0.510291
Si Si3 0.612110 0.933324 0.873663
Si Si4 0.000000 0.509678 0.250000
Si Si5 0.078452 0.646160 0.982272
Si Si6 0.318275 0.347830 0.642894
O O1 0.631618 0.271857 0.332715
O O2 0.755385 0.353122 0.208749
O O3 0.473450 0.346549 0.511611
O O4 0.665621 0.331285 0.055720
O O5 0.787679 0.309553 0.643384
O O6 0.000000 0.259689 0.250000
O O7 0.023760 0.305507 0.475929
O O8 0.602802 0.957843 0.718762
O O9 0.744261 0.899305 0.733786
O O10 0.478321 0.897195 0.046342
O O11 0.589341 0.975322 0.023264
O O12 0.000000 0.643147 0.250000
#
# Coordination Sequence:
#
# PCOD9272327 Si02
#       6
#     8   8   8   4   8   8
#     4  11  21  37  59  84 121 165 197 241 289 345
#     4  11  24  38  56  86 122 162 210 246 276 334
#     4  10  20  39  61  95 109 151 193 241 296 355
#     4  10  20  36  70  86 116 142 198 242 292 368
#     4  11  21  37  62  85 117 157 205 236 287 352
#     4  10  22  36  61  86 121 157 200 242 293 346
#
# _framework density 19.008137999999999
#
# number of rings (size 3 to 8) (size 9 to 14) (size 15 to 20)
#    0.000    1.455    4.545    1.636    7.636    2.909 
#    0.000    0.000    0.000   19.636    0.000    0.000 
#    0.000    0.000    0.000    0.000    0.000    0.000 
#
# Total GULP energy -122888.621000 kJ/mol
# GULP energy per Si atom -5585.846409 kJ/mol
# Density = 1.896487 g / cm^3
# Si number density = 19.008138 Si / 1000 Ang^3
#
#
#
# Elastic Constant Matrix: (Units=GPa)
#
#
# Indices 1 2 3 4 5 6 
#
# 1 78.6106 34.6290 28.0920 0.0000 -41.6479 0.0000
# 2 34.6290 105.3901 20.8414 0.0000 -12.5580 0.0000
# 3 28.0920 20.8414 52.0913 0.0000 -23.6825 0.0000
# 4 0.0000 0.0000 0.0000 19.7287 0.0000 1.1296
# 5 -41.6479 -12.5580 -23.6825 0.0000 43.1710 0.0000
# 6 0.0000 0.0000 0.0000 1.1296 0.0000 5.5458
#
#
#
# Elastic Compliance Matrix: (Units=1/GPa)
#
#
# Indices 1 2 3 4 5 6 
#
# 1 0.030008 -0.006402 -0.001741 0.000000 0.026132 0.000000
# 2 -0.006402 0.011701 -0.003317 0.000000 -0.004592 0.000000
# 3 -0.001741 -0.003317 0.026993 0.000000 0.012163 0.000000
# 4 0.000000 0.000000 0.000000 0.051286 0.000000 -0.010446
# 5 0.026132 -0.004592 0.012163 0.000000 0.053710 0.000000
# 6 0.000000 0.000000 0.000000 -0.010446 0.000000 0.182443
#
#
# Mechanical properties :
#
#
# Convention : Reuss Voigt Hill
#
# Bulk Modulus (GPa) = 21.84244 44.80187 33.32215
# Shear Modulus (GPa) = 12.68007 23.85775 18.26891
#
# Velocity S-wave (km/s) = 2.58560 3.54663 3.10354
# Velocity P-wave (km/s) = 4.51994 6.35551 5.51463
#
# Compressibility (1/GPa) = 0.04578243
#
# Stress axis : x y z
#
# Youngs Moduli (GPa) = 33.32474 85.46425 37.04709
#
# Poissons Ratio (x) = 0.54713 0.06450
# Poissons Ratio (y) = 0.21334 0.12287
# Poissons Ratio (z) = 0.05802 0.28345
#
# Static dielectric constant tensor:
#      x y z
#    x 1.687100 0.000000 0.014260 
#    y 0.000000 1.644880 0.000000 
#    z 0.014260 0.000000 1.668060 
# 
# From -- ./inp_files/43345.got.cif
#   From: 2010.05.17/outbox.cif.g08.bks.cpg/sg15_22_cif.got.tgz:43345.got - 2010.06.03 18:47:42.
