data_PCOD9272687
_publ_section_title
;
Structure prediction by ZEFSAII (Michael W. Deem and Ramdas Pophale) SiO2 
 PCOD9272687
Probable space group: C 2/C
;
_chemical_formula_sum "Si O2"
_cell_formula_units_Z 60
_cell_length_a 19.042890
_cell_length_b 12.299826
_cell_length_c 14.539519
_cell_angle_alpha 90.000000
_cell_angle_beta 74.078323
_cell_angle_gamma 90.000000
_cell_volume 3274.864219
_symmetry_space_group_name_H-M "C 2/C"
_symmetry_group_IT_number 15
_symmetry_cell_setting 'monoclinic'
loop_
_space_group_symop_operation_xyz
x,y,z
-x,y,1/2-z
-x,-y,-z
x,-y,1/2+z
1/2+x,1/2+y,z
1/2-x,1/2+y,1/2-z
1/2-x,1/2-y,-z
1/2+x,1/2-y,1/2+z
loop_
_atom_site_type_symbol
_atom_site_label
_atom_site_fract_x
_atom_site_fract_y
_atom_site_fract_z
Si Si1 0.177181 0.177307 0.012415
Si Si2 0.281396 0.163950 0.696940
Si Si3 0.000000 0.715667 0.750000
Si Si4 0.640618 0.352846 0.731132
Si Si5 0.713379 0.497745 0.847222
Si Si6 0.300532 0.203197 0.401587
Si Si7 0.558883 0.136171 0.540494
Si Si8 0.594979 0.888654 0.498241
O O1 0.157052 0.122523 0.118331
O O2 0.113808 0.263252 0.008836
O O3 0.250000 0.250000 0.000000
O O4 0.187451 0.085781 0.931150
O O5 0.302996 0.258859 0.759115
O O6 0.207576 0.205044 0.673376
O O7 0.346992 0.146437 0.601100
O O8 0.268174 0.055990 0.757617
O O9 0.937234 0.794625 0.734969
O O10 0.967929 0.644211 0.844093
O O11 0.651681 0.445735 0.803290
O O12 0.757858 0.402446 0.880799
O O13 0.250000 0.250000 0.500000
O O14 0.376849 0.168920 0.418772
O O15 0.486491 0.142564 0.503611
O O16 0.595983 0.019348 0.509686
#
# Coordination Sequence:
#
# PCOD9272687 Si02
#       8
#     8   8   4   8   8   8   8   8
#     4  11  22  38  60  91 120 151 203 251 295 346
#     4  10  20  37  60  86 120 154 197 248 293 361
#     4  10  20  42  56  78 122 162 196 236 304 352
#     4  10  22  39  60  85 117 160 197 247 291 366
#     4  11  23  37  61  91 116 159 200 246 300 348
#     4   9  21  36  57  81 119 155 192 239 298 356
#     4  10  22  35  62  89 120 156 202 251 295 367
#     4  10  20  37  59  91 119 159 197 241 313 354
#
# _framework density 18.321370000000002
#
# number of rings (size 3 to 8) (size 9 to 14) (size 15 to 20)
#    0.000    1.867    2.667    0.800    7.467    0.000 
#    0.000    5.333    0.000    0.000    0.000    0.000 
#    0.000    0.000    0.000    0.000    0.000    0.000 
#
# Total GULP energy -167274.967443 kJ/mol
# GULP energy per Si atom -5575.832248 kJ/mol
# Density = 1.827967 g / cm^3
# Si number density = 18.321370 Si / 1000 Ang^3
#
#
#
# Elastic Constant Matrix: (Units=GPa)
#
#
# Indices 1 2 3 4 5 6 
#
# 1 87.9364 38.1010 29.6063 0.0000 24.3365 0.0000
# 2 38.1010 81.3812 38.6221 0.0000 15.0442 0.0000
# 3 29.6063 38.6221 65.4701 0.0000 11.5631 0.0000
# 4 0.0000 0.0000 0.0000 41.0537 0.0000 11.2772
# 5 24.3365 15.0442 11.5631 0.0000 19.7986 0.0000
# 6 0.0000 0.0000 0.0000 11.2772 0.0000 25.4032
#
#
#
# Elastic Compliance Matrix: (Units=1/GPa)
#
#
# Indices 1 2 3 4 5 6 
#
# 1 0.019436 -0.004181 -0.002971 0.000000 -0.018979 0.000000
# 2 -0.004181 0.019151 -0.008635 0.000000 -0.004369 0.000000
# 3 -0.002971 -0.008635 0.022197 0.000000 -0.002751 0.000000
# 4 0.000000 0.000000 0.000000 0.027741 0.000000 -0.012315
# 5 -0.018979 -0.004369 -0.002751 0.000000 0.078764 0.000000
# 6 0.000000 0.000000 0.000000 -0.012315 0.000000 0.044832
#
#
# Mechanical properties :
#
#
# Convention : Reuss Voigt Hill
#
# Bulk Modulus (GPa) = 34.23416 49.71627 41.97522
# Shear Modulus (GPa) = 19.72905 25.81500 22.77202
#
# Velocity S-wave (km/s) = 3.28507 3.75775 3.52933
# Velocity P-wave (km/s) = 5.75455 6.78396 6.29035
#
# Compressibility (1/GPa) = 0.02921059
#
# Stress axis : x y z
#
# Youngs Moduli (GPa) = 51.45078 52.21585 45.05029
#
# Poissons Ratio (x) = 0.21833 0.13382
# Poissons Ratio (y) = 0.21513 0.38902
# Poissons Ratio (z) = 0.15284 0.45089
#
# Static dielectric constant tensor:
#      x y z
#    x 1.651750 0.000000 0.035640 
#    y 0.000000 1.619220 0.000000 
#    z 0.035640 0.000000 1.645050 
# 
# From -- ./inp_files/160882.got.cif
#   From: 2010.05.17/outbox.cif.g08.bks.cpg/sg15_81_cif.got.tgz:160882.got - 2010.06.03 18:47:42.
