data_PCOD9272900
_publ_section_title
;
Structure prediction by ZEFSAII (Michael W. Deem and Ramdas Pophale) SiO2 
 PCOD9272900
Probable space group: C 2/C
;
_chemical_formula_sum "Si O2"
_cell_formula_units_Z 52
_cell_length_a 9.156133
_cell_length_b 22.301706
_cell_length_c 16.204664
_cell_angle_alpha 90.000000
_cell_angle_beta 52.424310
_cell_angle_gamma 90.000000
_cell_volume 2622.503221
_symmetry_space_group_name_H-M "C 2/C"
_symmetry_group_IT_number 15
_symmetry_cell_setting 'monoclinic'
loop_
_space_group_symop_operation_xyz
x,y,z
-x,y,1/2-z
-x,-y,-z
x,-y,1/2+z
1/2+x,1/2+y,z
1/2-x,1/2+y,1/2-z
1/2-x,1/2-y,-z
1/2+x,1/2-y,1/2+z
loop_
_atom_site_type_symbol
_atom_site_label
_atom_site_fract_x
_atom_site_fract_y
_atom_site_fract_z
Si Si1 0.175350 0.416289 0.146103
Si Si2 0.480709 0.395705 0.354878
Si Si3 0.390051 0.509425 0.451302
Si Si4 0.021127 0.702958 0.624819
Si Si5 0.000000 0.079457 0.250000
Si Si6 0.253931 0.188014 0.114689
Si Si7 0.399330 0.271301 0.204061
O O1 0.337447 0.415744 0.157511
O O2 0.122050 0.347821 0.143895
O O3 0.000000 0.445789 0.250000
O O4 0.231396 0.447412 0.040988
O O5 0.500000 0.401372 0.250000
O O6 0.332928 0.443463 0.438848
O O7 0.471811 0.324903 0.374911
O O8 0.500000 0.500000 0.500000
O O9 0.496743 0.539802 0.336063
O O10 0.093634 0.767759 0.632102
O O11 0.095835 0.687974 0.508951
O O12 0.800736 0.700641 0.703835
O O13 0.168563 0.125615 0.174827
O O14 0.350656 0.221212 0.156338
O O15 0.500000 0.247424 0.250000
#
# Coordination Sequence:
#
# PCOD9272900 Si02
#       7
#     8   8   8   8   4   8   8
#     4  11  19  36  62  89 125 160 219 271 311 389
#     4  10  20  37  61  87 124 165 213 256 316 392
#     4  10  23  38  64  96 124 170 217 273 327 384
#     4  11  20  36  61  98 124 166 220 264 329 381
#     4  12  20  40  68  98 134 170 220 280 326 392
#     4  11  22  36  65  98 127 166 216 278 322 390
#     4  11  22  38  62  89 129 174 210 264 327 397
#
# _framework density 19.828384
#
# number of rings (size 3 to 8) (size 9 to 14) (size 15 to 20)
#    0.000    1.231    6.923    0.000    0.000    0.615 
#    0.000    0.769   13.538    0.923    0.000    0.000 
#    0.000    0.000    0.000    0.000    0.000    0.000 
#
# Total GULP energy -144793.205950 kJ/mol
# GULP energy per Si atom -5568.969460 kJ/mol
# Density = 1.978325 g / cm^3
# Si number density = 19.828384 Si / 1000 Ang^3
#
#
#
# Elastic Constant Matrix: (Units=GPa)
#
#
# Indices 1 2 3 4 5 6 
#
# 1 71.0259 19.7684 33.0475 0.0000 28.0923 0.0000
# 2 19.7684 81.9526 36.6320 0.0000 14.8657 0.0000
# 3 33.0475 36.6320 129.9982 0.0000 22.2385 0.0000
# 4 0.0000 0.0000 0.0000 26.0912 0.0000 12.1423
# 5 28.0923 14.8657 22.2385 0.0000 25.8149 0.0000
# 6 0.0000 0.0000 0.0000 12.1423 0.0000 11.1561
#
#
#
# Elastic Compliance Matrix: (Units=1/GPa)
#
#
# Indices 1 2 3 4 5 6 
#
# 1 0.025184 -0.000623 -0.001876 0.000000 -0.025431 0.000000
# 2 -0.000623 0.014663 -0.003102 0.000000 -0.005093 0.000000
# 3 -0.001876 -0.003102 0.009839 0.000000 -0.004647 0.000000
# 4 0.000000 0.000000 0.000000 0.077666 0.000000 -0.084532
# 5 -0.025431 -0.005093 -0.004647 0.000000 0.073348 0.000000
# 6 0.000000 0.000000 0.000000 -0.084532 0.000000 0.181642
#
#
# Mechanical properties :
#
#
# Convention : Reuss Voigt Hill
#
# Bulk Modulus (GPa) = 25.98581 51.31917 38.65249
# Shear Modulus (GPa) = 12.30396 25.51437 18.90917
#
# Velocity S-wave (km/s) = 2.49373 3.59104 3.09146
# Velocity P-wave (km/s) = 4.62876 6.56749 5.68143
#
# Compressibility (1/GPa) = 0.03848254
#
# Stress axis : x y z
#
# Youngs Moduli (GPa) = 39.70742 68.19880 101.64098
#
# Poissons Ratio (x) = 0.04250 0.19070
# Poissons Ratio (y) = 0.02475 0.31531
# Poissons Ratio (z) = 0.07450 0.21156
#
# Static dielectric constant tensor:
#      x y z
#    x 1.711910 0.000000 -0.014940 
#    y 0.000000 1.772110 0.000000 
#    z -0.014940 0.000000 1.755650 
# 
# From -- ./inp_files/137213.got.cif
#   From: 2010.05.17/outbox.cif.g08.bks.cpg/sg15_69_cif.got.tgz:137213.got - 2010.06.03 18:47:42.
