data_PCOD9272776
_publ_section_title
;
Structure prediction by ZEFSAII (Michael W. Deem and Ramdas Pophale) SiO2 
 PCOD9272776
Probable space group: C 2/C
;
_chemical_formula_sum "Si O2"
_cell_formula_units_Z 60
_cell_length_a 27.611069
_cell_length_b 9.377270
_cell_length_c 26.497018
_cell_angle_alpha 90.000000
_cell_angle_beta 25.529583
_cell_angle_gamma 90.000000
_cell_volume 2956.724092
_symmetry_space_group_name_H-M "C 2/C"
_symmetry_group_IT_number 15
_symmetry_cell_setting 'monoclinic'
loop_
_space_group_symop_operation_xyz
x,y,z
-x,y,1/2-z
-x,-y,-z
x,-y,1/2+z
1/2+x,1/2+y,z
1/2-x,1/2+y,1/2-z
1/2-x,1/2-y,-z
1/2+x,1/2-y,1/2+z
loop_
_atom_site_type_symbol
_atom_site_label
_atom_site_fract_x
_atom_site_fract_y
_atom_site_fract_z
Si Si1 0.878031 0.920189 0.121953
Si Si2 0.235635 0.659206 0.851731
Si Si3 0.526722 0.164981 0.980528
Si Si4 0.355174 0.699141 0.474888
Si Si5 0.186529 0.938240 0.646627
Si Si6 0.564869 0.219809 0.834833
Si Si7 0.265017 0.014791 0.341344
Si Si8 0.500000 0.575857 0.250000
O O1 0.806735 0.923087 0.240919
O O2 0.802092 0.968249 0.146423
O O3 0.913115 0.754253 0.089206
O O4 0.000000 0.000000 0.000000
O O5 0.110603 0.683621 0.947969
O O6 0.241416 0.559423 0.894867
O O7 0.279967 0.816310 0.824429
O O8 0.586320 0.224307 0.874105
O O9 0.500000 0.000000 0.000000
O O10 0.261905 0.816380 0.550211
O O11 0.434239 0.765988 0.444366
O O12 0.304340 0.553974 0.546615
O O13 0.431940 0.668266 0.354739
O O14 0.123486 0.847844 0.749720
O O15 0.094298 0.000886 0.694978
O O16 0.618240 0.071064 0.767361
#
# Coordination Sequence:
#
# PCOD9272776 Si02
#       8
#     8   8   8   8   8   8   8   4
#     4  12  24  38  59  87 130 183 214 250 301 375
#     4  12  26  38  59  93 136 173 220 254 317 388
#     4  12  23  34  56  88 128 173 218 257 306 366
#     4  10  21  41  69  94 122 159 213 270 335 380
#     4  10  23  40  65  91 123 163 216 270 319 381
#     4  10  20  37  60  87 125 167 208 259 307 373
#     4  11  23  39  61  92 132 171 212 257 318 386
#     4  10  22  42  72  94 116 158 220 284 330 380
#
# _framework density 20.292729000000001
#
# number of rings (size 3 to 8) (size 9 to 14) (size 15 to 20)
#    0.000    1.067    4.000    2.800    3.733    0.000 
#    0.000    0.667    0.000    8.000    0.000    0.000 
#    0.000    0.000    0.000    0.000    0.000    0.000 
#
# Total GULP energy -167439.640291 kJ/mol
# GULP energy per Si atom -5581.321343 kJ/mol
# Density = 2.024654 g / cm^3
# Si number density = 20.292729 Si / 1000 Ang^3
#
#
#
# Elastic Constant Matrix: (Units=GPa)
#
#
# Indices 1 2 3 4 5 6 
#
# 1 78.3765 15.6801 8.3553 0.0004 9.4508 -0.0002
# 2 15.6801 81.0141 -2.0794 0.0014 7.8666 -0.0008
# 3 8.3553 -2.0794 61.8213 0.0006 16.2742 -0.0005
# 4 0.0004 0.0014 0.0006 16.9786 -0.0004 -6.6960
# 5 9.4508 7.8666 16.2742 -0.0004 26.8956 0.0002
# 6 -0.0002 -0.0008 -0.0005 -6.6960 0.0002 18.8828
#
#
#
# Elastic Compliance Matrix: (Units=1/GPa)
#
#
# Indices 1 2 3 4 5 6 
#
# 1 0.013762 -0.002346 -0.001007 0.000000 -0.003541 0.000000
# 2 -0.002346 0.013251 0.001863 -0.000001 -0.004179 0.000000
# 3 -0.001007 0.001863 0.019537 -0.000001 -0.012012 0.000000
# 4 0.000000 -0.000001 -0.000001 0.068474 0.000002 0.024281
# 5 -0.003541 -0.004179 -0.012012 0.000002 0.046916 0.000000
# 6 0.000000 0.000000 0.000000 0.024281 0.000000 0.061569
#
#
# Mechanical properties :
#
#
# Convention : Reuss Voigt Hill
#
# Bulk Modulus (GPa) = 22.95132 29.45823 26.20478
# Shear Modulus (GPa) = 20.74590 25.83511 23.29051
#
# Velocity S-wave (km/s) = 3.20086 3.57195 3.39149
# Velocity P-wave (km/s) = 4.99954 5.61783 5.31767
#
# Compressibility (1/GPa) = 0.04357047
#
# Stress axis : x y z
#
# Youngs Moduli (GPa) = 72.66128 75.46537 51.18593
#
# Poissons Ratio (x) = 0.17702 0.05154
# Poissons Ratio (y) = 0.17044 -0.09535
# Poissons Ratio (z) = 0.07316 -0.14057
#
# Static dielectric constant tensor:
#      x y z
#    x 1.731800 0.000000 -0.004800 
#    y 0.000000 1.732490 0.000000 
#    z -0.004800 0.000000 1.786620 
# 
# From -- ./inp_files/283388.got.cif
#   From: 2010.05.17/outbox.cif.g08.bks.cpg/sg15_142_cif.got.tgz:283388.got - 2010.06.03 18:47:42.
