data_PCOD9272451
_publ_section_title
;
Structure prediction by ZEFSAII (Michael W. Deem and Ramdas Pophale) SiO2 
 PCOD9272451
Probable space group: C 2/C
;
_chemical_formula_sum "Si O2"
_cell_formula_units_Z 48
_cell_length_a 30.856981
_cell_length_b 6.886832
_cell_length_c 20.149374
_cell_angle_alpha 90.000000
_cell_angle_beta 147.063460
_cell_angle_gamma 90.000000
_cell_volume 2328.100060
_symmetry_space_group_name_H-M "C 2/C"
_symmetry_group_IT_number 15
_symmetry_cell_setting 'monoclinic'
loop_
_space_group_symop_operation_xyz
x,y,z
-x,y,1/2-z
-x,-y,-z
x,-y,1/2+z
1/2+x,1/2+y,z
1/2-x,1/2+y,1/2-z
1/2-x,1/2-y,-z
1/2+x,1/2-y,1/2+z
loop_
_atom_site_type_symbol
_atom_site_label
_atom_site_fract_x
_atom_site_fract_y
_atom_site_fract_z
Si Si1 0.696461 0.750822 0.037643
Si Si2 0.664252 0.708455 0.687896
Si Si3 0.089689 0.953645 0.703825
Si Si4 0.085374 0.937432 0.489457
Si Si5 0.084471 0.392439 0.100297
Si Si6 0.744281 0.477675 0.987699
O O1 0.749206 0.817921 0.168318
O O2 0.617026 0.651078 0.961842
O O3 0.691654 0.928927 0.980240
O O4 0.745529 0.590596 0.058536
O O5 0.601997 0.603981 0.658590
O O6 0.647507 0.597797 0.597760
O O7 0.645765 0.935606 0.663555
O O8 0.101966 0.740348 0.687474
O O9 0.157848 0.011072 0.843070
O O10 0.002262 0.971144 0.621985
O O11 0.082958 0.759523 0.538225
O O12 0.000000 0.500000 0.000000
O O13 0.750000 0.250000 0.000000
#
# Coordination Sequence:
#
# PCOD9272451 Si02
#       6
#     8   8   8   8   8   8
#     4  10  24  39  60  89 118 160 203 252 303 356
#     4  10  20  37  56  87 126 156 190 241 303 368
#     4  10  20  37  61  85 119 159 199 250 294 358
#     4  11  22  35  57  95 124 148 197 254 304 355
#     4  11  18  34  59  88 121 158 191 233 310 366
#     4  10  22  45  64  79 117 168 213 246 298 368
#
# _framework density 20.617671000000001
#
# number of rings (size 3 to 8) (size 9 to 14) (size 15 to 20)
#    0.000    1.667    3.333    2.000    2.333    2.000 
#    0.000    0.000    0.000    0.000    0.000    0.000 
#    0.000    0.000    0.000    0.000    0.000    0.000 
#
# Total GULP energy -134019.099069 kJ/mol
# GULP energy per Si atom -5584.129128 kJ/mol
# Density = 2.057074 g / cm^3
# Si number density = 20.617671 Si / 1000 Ang^3
#
#
#
# Elastic Constant Matrix: (Units=GPa)
#
#
# Indices 1 2 3 4 5 6 
#
# 1 84.2555 31.0955 12.7501 0.0001 4.1625 0.0000
# 2 31.0955 132.8369 5.3248 -0.0005 -2.2589 -0.0002
# 3 12.7501 5.3248 33.9934 -0.0001 -6.7519 0.0000
# 4 0.0001 -0.0005 -0.0001 30.5996 0.0000 -0.8424
# 5 4.1625 -2.2589 -6.7519 0.0000 14.1233 0.0000
# 6 0.0000 -0.0002 0.0000 -0.8424 0.0000 23.4207
#
#
#
# Elastic Compliance Matrix: (Units=1/GPa)
#
#
# Indices 1 2 3 4 5 6 
#
# 1 0.014437 -0.003254 -0.006468 0.000000 -0.007868 0.000000
# 2 -0.003254 0.008316 0.000412 0.000000 0.002486 0.000000
# 3 -0.006468 0.000412 0.035546 0.000000 0.018966 0.000000
# 4 0.000000 0.000000 0.000000 0.032713 0.000000 0.001177
# 5 -0.007868 0.002486 0.018966 0.000000 0.082588 0.000000
# 6 0.000000 0.000000 0.000000 0.001177 0.000000 0.042740
#
#
# Mechanical properties :
#
#
# Convention : Reuss Voigt Hill
#
# Bulk Modulus (GPa) = 25.20291 38.82518 32.01404
# Shear Modulus (GPa) = 20.14621 27.08973 23.61797
#
# Velocity S-wave (km/s) = 3.12930 3.62872 3.38823
# Velocity P-wave (km/s) = 5.03063 6.03562 5.55589
#
# Compressibility (1/GPa) = 0.03967796
#
# Stress axis : x y z
#
# Youngs Moduli (GPa) = 69.26621 120.25691 28.13259
#
# Poissons Ratio (x) = 0.39132 0.18196
# Poissons Ratio (y) = 0.22540 -0.01158
# Poissons Ratio (z) = 0.44801 -0.04951
#
# Static dielectric constant tensor:
#      x y z
#    x 1.752650 0.000000 -0.008840 
#    y 0.000000 1.734340 0.000000 
#    z -0.008840 0.000000 1.766320 
# 
# From -- ./inp_files/254436.got.cif
#   From: 2010.05.17/outbox.cif.g08.bks.cpg/sg15_128_cif.got.tgz:254436.got - 2010.06.03 18:47:42.
