data_PCOD9272134
_publ_section_title
;
Structure prediction by ZEFSAII (Michael W. Deem and Ramdas Pophale) SiO2 
 PCOD9272134
Probable space group: C 2/C
;
_chemical_formula_sum "Si O2"
_cell_formula_units_Z 56
_cell_length_a 16.237759
_cell_length_b 17.955721
_cell_length_c 20.343012
_cell_angle_alpha 90.000000
_cell_angle_beta 152.806300
_cell_angle_gamma 90.000000
_cell_volume 2710.569310
_symmetry_space_group_name_H-M "C 2/C"
_symmetry_group_IT_number 15
_symmetry_cell_setting 'monoclinic'
loop_
_space_group_symop_operation_xyz
x,y,z
-x,y,1/2-z
-x,-y,-z
x,-y,1/2+z
1/2+x,1/2+y,z
1/2-x,1/2+y,1/2-z
1/2-x,1/2-y,-z
1/2+x,1/2-y,1/2+z
loop_
_atom_site_type_symbol
_atom_site_label
_atom_site_fract_x
_atom_site_fract_y
_atom_site_fract_z
Si Si1 0.815266 0.144180 0.375062
Si Si2 0.470932 0.535863 0.383384
Si Si3 0.518627 0.773103 0.082896
Si Si4 0.204332 0.557624 0.418669
Si Si5 0.461276 0.927520 0.565767
Si Si6 0.337623 0.075410 0.828775
Si Si7 0.619646 0.333413 0.770357
O O1 0.944951 0.084254 0.430638
O O2 0.892661 0.224929 0.412988
O O3 0.780720 0.122975 0.425946
O O4 0.623608 0.127376 0.202657
O O5 0.672719 0.513901 0.508690
O O6 0.357749 0.460550 0.308465
O O7 0.378236 0.584634 0.260222
O O8 0.639404 0.844536 0.186784
O O9 0.522517 0.717763 0.147197
O O10 0.319733 0.802835 0.925331
O O11 0.190236 0.575793 0.485643
O O12 0.000000 0.544120 0.250000
O O13 0.399095 0.912808 0.447851
O O14 0.541267 0.011738 0.619776
O O15 0.500000 0.334253 0.750000
#
# Coordination Sequence:
#
# PCOD9272134 Si02
#       7
#     8   8   8   8   8   8   8
#     4   9  20  40  60  88 126 166 205 248 313 385
#     4  10  22  38  65  90 123 161 211 265 304 375
#     4  11  23  42  66  89 130 176 203 257 319 385
#     4  10  21  38  64  91 124 157 210 264 315 364
#     4   9  19  39  62  91 117 161 207 266 307 363
#     4  10  20  36  64  91 120 162 215 249 319 371
#     4  11  25  43  62  93 131 166 213 261 316 377
#
# _framework density 20.659865
#
# number of rings (size 3 to 8) (size 9 to 14) (size 15 to 20)
#    0.000    2.000    0.000    4.286    6.000    0.000 
#    5.143    0.714    6.286    0.000    0.000    0.000 
#    0.000    0.000    0.000    0.000    0.000    0.000 
#
# Total GULP energy -156435.158483 kJ/mol
# GULP energy per Si atom -5586.969946 kJ/mol
# Density = 2.061284 g / cm^3
# Si number density = 20.659865 Si / 1000 Ang^3
#
#
#
# Elastic Constant Matrix: (Units=GPa)
#
#
# Indices 1 2 3 4 5 6 
#
# 1 134.0725 21.0770 28.9164 0.0096 13.3802 0.0028
# 2 21.0770 51.1245 48.9190 0.0464 13.7264 0.0146
# 3 28.9164 48.9190 66.9415 0.0021 12.5795 0.0045
# 4 0.0096 0.0464 0.0021 22.3662 0.0031 -4.0691
# 5 13.3802 13.7264 12.5795 0.0031 31.1563 0.0004
# 6 0.0028 0.0146 0.0045 -4.0691 0.0004 13.5083
#
#
#
# Elastic Compliance Matrix: (Units=1/GPa)
#
#
# Indices 1 2 3 4 5 6 
#
# 1 0.008384 0.000747 -0.003710 -0.000005 -0.002431 -0.000003
# 2 0.000747 0.068271 -0.048154 -0.000155 -0.010956 -0.000104
# 3 -0.003710 -0.048154 0.051340 0.000109 0.002080 0.000068
# 4 -0.000005 -0.000155 0.000109 0.047303 0.000022 0.014249
# 5 -0.002431 -0.010956 0.002080 0.000022 0.037128 0.000017
# 6 -0.000003 -0.000104 0.000068 0.014249 0.000017 0.078321
#
#
# Mechanical properties :
#
#
# Convention : Reuss Voigt Hill
#
# Bulk Modulus (GPa) = 38.82094 49.99594 44.40844
# Shear Modulus (GPa) = 12.45115 23.62122 18.03619
#
# Velocity S-wave (km/s) = 2.45760 3.38500 2.95787
# Velocity P-wave (km/s) = 5.18502 6.28726 5.76256
#
# Compressibility (1/GPa) = 0.02575929
#
# Stress axis : x y z
#
# Youngs Moduli (GPa) = 119.27228 14.64754 19.47792
#
# Poissons Ratio (x) = -0.01094 0.07227
# Poissons Ratio (y) = -0.08905 0.93794
# Poissons Ratio (z) = 0.44254 0.70534
#
# Static dielectric constant tensor:
#      x y z
#    x 1.746570 0.000000 -0.014010 
#    y 0.000000 1.729600 0.000000 
#    z -0.014010 0.000000 1.767130 
# 
# From -- ./inp_files/245160.got.cif
#   From: 2010.05.17/outbox.cif.g08.bks.cpg/sg15_123_cif.got.tgz:245160.got - 2010.06.03 18:47:42.
