data_PCOD9272232
_publ_section_title
;
Structure prediction by ZEFSAII (Michael W. Deem and Ramdas Pophale) SiO2 
 PCOD9272232
Probable space group: C 2/C
;
_chemical_formula_sum "Si O2"
_cell_formula_units_Z 52
_cell_length_a 5.189019
_cell_length_b 18.993086
_cell_length_c 22.344595
_cell_angle_alpha 90.000000
_cell_angle_beta 105.701680
_cell_angle_gamma 90.000000
_cell_volume 2120.005325
_symmetry_space_group_name_H-M "C 2/C"
_symmetry_group_IT_number 15
_symmetry_cell_setting 'monoclinic'
loop_
_space_group_symop_operation_xyz
x,y,z
-x,y,1/2-z
-x,-y,-z
x,-y,1/2+z
1/2+x,1/2+y,z
1/2-x,1/2+y,1/2-z
1/2-x,1/2-y,-z
1/2+x,1/2-y,1/2+z
loop_
_atom_site_type_symbol
_atom_site_label
_atom_site_fract_x
_atom_site_fract_y
_atom_site_fract_z
Si Si1 0.371283 0.428339 0.366215
Si Si2 0.465088 0.958440 0.838784
Si Si3 0.500000 0.500397 0.250000
Si Si4 0.264743 0.310247 0.549826
Si Si5 0.737879 0.533065 0.453302
Si Si6 0.690574 0.705965 0.707967
Si Si7 0.836768 0.682017 0.124761
O O1 0.080378 0.463416 0.349299
O O2 0.483693 0.456626 0.309682
O O3 0.526165 0.468996 0.429883
O O4 0.345652 0.345630 0.352279
O O5 0.306227 0.946144 0.889703
O O6 0.686284 0.898855 0.856007
O O7 0.262349 0.953090 0.772011
O O8 0.250000 0.250000 0.500000
O O9 0.319760 0.388547 0.525094
O O10 0.532858 0.291409 0.604668
O O11 0.987428 0.312431 0.569944
O O12 0.000000 0.500000 0.500000
O O13 0.500000 0.679622 0.750000
O O14 0.547194 0.778503 0.680468
O O15 0.000000 0.708658 0.750000
#
# Coordination Sequence:
#
# PCOD9272232 Si02
#       7
#     8   8   4   8   8   8   8
#     4  11  22  42  63  96 134 173 226 280 340 416
#     4  10  22  40  66  94 131 172 227 276 342 417
#     4  10  20  36  66  88 124 170 212 270 338 390
#     4  11  24  47  71  98 137 180 234 286 349 413
#     4  10  24  42  66  99 132 175 230 287 347 414
#     4  12  27  44  69 102 142 182 232 285 355 423
#     4  11  25  46  66 101 136 179 230 283 345 418
#
# _framework density 24.52824
#
# number of rings (size 3 to 8) (size 9 to 14) (size 15 to 20)
#    0.000    1.231    2.308    2.769    5.385    3.077 
#    0.000    0.000    0.000    0.000    0.000    0.000 
#    0.000    0.000    0.000    0.000    0.000    0.000 
#
# Total GULP energy -145094.334705 kJ/mol
# GULP energy per Si atom -5580.551335 kJ/mol
# Density = 2.447241 g / cm^3
# Si number density = 24.528240 Si / 1000 Ang^3
#
#
#
# Elastic Constant Matrix: (Units=GPa)
#
#
# Indices 1 2 3 4 5 6 
#
# 1 104.9589 5.2850 17.6659 0.0000 21.5723 0.0000
# 2 5.2850 88.8749 28.0674 0.0000 -1.8564 0.0000
# 3 17.6659 28.0674 70.7460 0.0000 33.0034 0.0000
# 4 0.0000 0.0000 0.0000 37.8717 0.0000 3.3307
# 5 21.5723 -1.8564 33.0034 0.0000 50.7593 0.0000
# 6 0.0000 0.0000 0.0000 3.3307 0.0000 34.9724
#
#
#
# Elastic Compliance Matrix: (Units=1/GPa)
#
#
# Indices 1 2 3 4 5 6 
#
# 1 0.010492 -0.000575 -0.000433 0.000000 -0.004198 0.000000
# 2 -0.000575 0.014033 -0.008293 0.000000 0.006149 0.000000
# 3 -0.000433 -0.008293 0.025247 0.000000 -0.016534 0.000000
# 4 0.000000 0.000000 0.000000 0.026628 0.000000 -0.002536
# 5 -0.004198 0.006149 -0.016534 0.000000 0.032461 0.000000
# 6 0.000000 0.000000 0.000000 -0.002536 0.000000 0.028836
#
#
# Mechanical properties :
#
#
# Convention : Reuss Voigt Hill
#
# Bulk Modulus (GPa) = 32.08157 40.73516 36.40836
# Shear Modulus (GPa) = 29.99611 38.95810 34.47710
#
# Velocity S-wave (km/s) = 3.50082 3.98967 3.75321
# Velocity P-wave (km/s) = 5.42668 6.15360 5.80153
#
# Compressibility (1/GPa) = 0.03117054
#
# Stress axis : x y z
#
# Youngs Moduli (GPa) = 95.30773 71.25913 39.60913
#
# Poissons Ratio (x) = 0.04095 0.01717
# Poissons Ratio (y) = 0.05478 0.32847
# Poissons Ratio (z) = 0.04131 0.59093
#
# Static dielectric constant tensor:
#      x y z
#    x 1.968170 0.000000 -0.055610 
#    y 0.000000 2.015520 0.000000 
#    z -0.055610 0.000000 1.987920 
# 
# From -- ./inp_files/286160.got.cif
#   From: 2010.05.17/outbox.cif.g08.bks.cpg/sg15_144_cif.got.tgz:286160.got - 2010.06.03 18:47:42.
