data_PCOD9272816
_publ_section_title
;
Structure prediction by ZEFSAII (Michael W. Deem and Ramdas Pophale) SiO2 
 PCOD9272816
Probable space group: C 2/C
;
_chemical_formula_sum "Si O2"
_cell_formula_units_Z 56
_cell_length_a 17.734047
_cell_length_b 25.779634
_cell_length_c 9.901133
_cell_angle_alpha 90.000000
_cell_angle_beta 36.785467
_cell_angle_gamma 90.000000
_cell_volume 2710.604394
_symmetry_space_group_name_H-M "C 2/C"
_symmetry_group_IT_number 15
_symmetry_cell_setting 'monoclinic'
loop_
_space_group_symop_operation_xyz
x,y,z
-x,y,1/2-z
-x,-y,-z
x,-y,1/2+z
1/2+x,1/2+y,z
1/2-x,1/2+y,1/2-z
1/2-x,1/2-y,-z
1/2+x,1/2-y,1/2+z
loop_
_atom_site_type_symbol
_atom_site_label
_atom_site_fract_x
_atom_site_fract_y
_atom_site_fract_z
Si Si1 0.510740 0.177766 0.886356
Si Si2 0.105155 0.963223 0.720088
Si Si3 0.113993 0.207349 0.251105
Si Si4 0.878963 0.074465 0.712013
Si Si5 0.239938 0.727390 0.201850
Si Si6 0.615010 0.318689 0.235044
Si Si7 0.240852 0.875139 0.383840
O O1 0.500000 0.155283 0.750000
O O2 0.558332 0.236761 0.798526
O O3 0.617122 0.145967 0.813817
O O4 0.378334 0.188573 0.152441
O O5 0.211572 0.922617 0.526855
O O6 0.000000 0.969012 0.750000
O O7 0.163423 0.018682 0.674090
O O8 0.021053 0.939232 0.960950
O O9 0.229134 0.219527 0.186405
O O10 0.011622 0.180798 0.495502
O O11 0.153269 0.171055 0.071005
O O12 0.866404 0.121662 0.832813
O O13 0.805996 0.100461 0.689727
O O14 0.205812 0.785888 0.206786
O O15 0.358937 0.712755 0.938905
#
# Coordination Sequence:
#
# PCOD9272816 Si02
#       7
#     8   8   8   8   8   8   8
#     4  11  23  35  58  88 124 160 203 241 290 358
#     4   9  20  37  60  91 121 146 194 251 307 351
#     4  11  21  34  59  90 120 158 197 245 305 354
#     4  10  20  37  60  90 117 154 188 251 307 351
#     4  10  22  38  52  90 123 161 199 238 286 367
#     4  10  21  36  59  82 123 156 195 244 299 356
#     4  11  21  37  60  89 119 156 195 250 301 351
#
# _framework density 20.659599
#
# number of rings (size 3 to 8) (size 9 to 14) (size 15 to 20)
#    0.000    1.714    2.857    1.714    4.000    1.143 
#    2.571    2.143    0.000    3.429    0.000    0.000 
#    0.000    0.000    0.000    0.000    0.000    0.000 
#
# Total GULP energy -156075.496042 kJ/mol
# GULP energy per Si atom -5574.124859 kJ/mol
# Density = 2.061258 g / cm^3
# Si number density = 20.659599 Si / 1000 Ang^3
#
#
#
# Elastic Constant Matrix: (Units=GPa)
#
#
# Indices 1 2 3 4 5 6 
#
# 1 57.1998 14.8721 0.8738 0.0000 -6.3411 0.0000
# 2 14.8721 131.0222 10.7012 0.0000 -8.0174 0.0000
# 3 0.8738 10.7012 73.2394 0.0000 -8.8273 0.0000
# 4 0.0000 0.0000 0.0000 28.9857 0.0000 4.6841
# 5 -6.3411 -8.0174 -8.8273 0.0000 26.5974 0.0000
# 6 0.0000 0.0000 0.0000 4.6841 0.0000 32.4321
#
#
#
# Elastic Compliance Matrix: (Units=1/GPa)
#
#
# Indices 1 2 3 4 5 6 
#
# 1 0.018409 -0.001889 0.000538 0.000000 0.003998 0.000000
# 2 -0.001889 0.008026 -0.000951 0.000000 0.001653 0.000000
# 3 0.000538 -0.000951 0.014341 0.000000 0.004601 0.000000
# 4 0.000000 0.000000 0.000000 0.035324 0.000000 -0.005102
# 5 0.003998 0.001653 0.004601 0.000000 0.040576 0.000000
# 6 0.000000 0.000000 0.000000 -0.005102 0.000000 0.031570
#
#
# Mechanical properties :
#
#
# Convention : Reuss Voigt Hill
#
# Bulk Modulus (GPa) = 27.64551 34.92840 31.28696
# Shear Modulus (GPa) = 30.32023 33.27067 31.79545
#
# Velocity S-wave (km/s) = 3.83510 4.01736 3.92729
# Velocity P-wave (km/s) = 5.74640 6.20179 5.97843
#
# Compressibility (1/GPa) = 0.03617224
#
# Stress axis : x y z
#
# Youngs Moduli (GPa) = 54.32217 124.60257 69.73044
#
# Poissons Ratio (x) = 0.23535 -0.03753
# Poissons Ratio (y) = 0.10261 0.06630
# Poissons Ratio (z) = -0.02924 0.11848
#
# Static dielectric constant tensor:
#      x y z
#    x 1.843460 0.000000 -0.006640 
#    y 0.000000 1.746560 0.000000 
#    z -0.006640 0.000000 1.765340 
# 
# From -- ./inp_files/114686.got.cif
#   From: 2010.05.17/outbox.cif.g08.bks.cpg/sg15_58_cif.got.tgz:114686.got - 2010.06.03 18:47:42.
