data_PCOD9272885
_publ_section_title
;
Structure prediction by ZEFSAII (Michael W. Deem and Ramdas Pophale) SiO2 
 PCOD9272885
Probable space group: C 2/C
;
_chemical_formula_sum "Si O2"
_cell_formula_units_Z 48
_cell_length_a 8.803036
_cell_length_b 11.463380
_cell_length_c 21.569822
_cell_angle_alpha 90.000000
_cell_angle_beta 102.692970
_cell_angle_gamma 90.000000
_cell_volume 2123.471252
_symmetry_space_group_name_H-M "C 2/C"
_symmetry_group_IT_number 15
_symmetry_cell_setting 'monoclinic'
loop_
_space_group_symop_operation_xyz
x,y,z
-x,y,1/2-z
-x,-y,-z
x,-y,1/2+z
1/2+x,1/2+y,z
1/2-x,1/2+y,1/2-z
1/2-x,1/2-y,-z
1/2+x,1/2-y,1/2+z
loop_
_atom_site_type_symbol
_atom_site_label
_atom_site_fract_x
_atom_site_fract_y
_atom_site_fract_z
Si Si1 0.911056 0.445955 0.883221
Si Si2 0.636366 0.995510 0.308180
Si Si3 0.132504 0.888429 0.582709
Si Si4 0.381215 0.281448 0.110403
Si Si5 0.670813 0.569158 0.779394
Si Si6 0.675174 0.513351 0.461829
O O1 0.761657 0.471046 0.826706
O O2 0.841505 0.469959 0.944622
O O3 0.037731 0.531606 0.861526
O O4 0.991113 0.319384 0.885955
O O5 0.500000 0.045463 0.250000
O O6 0.726320 0.904678 0.272325
O O7 0.777808 0.074883 0.346407
O O8 0.216940 0.769279 0.571943
O O9 0.179011 0.982665 0.534149
O O10 0.946788 0.884632 0.565361
O O11 0.356002 0.320279 0.178913
O O12 0.409004 0.400321 0.076538
O O13 0.500000 0.524549 0.750000
#
# Coordination Sequence:
#
# PCOD9272885 Si02
#       6
#     8   8   8   8   8   8
#     4   9  20  38  62  91 123 160 204 254 307 364
#     4   9  18  34  57  85 117 157 200 244 296 356
#     4  10  21  39  64  92 126 163 205 254 306 368
#     4  10  21  38  62  89 119 161 205 253 312 364
#     4  10  20  37  61  86 121 163 206 253 302 360
#     4  10  21  41  64  92 127 161 202 257 309 364
#
# _framework density 22.604496999999999
#
# number of rings (size 3 to 8) (size 9 to 14) (size 15 to 20)
#    0.000    2.333    0.000    2.500    0.000    8.000 
#    0.000   20.000    0.000   25.000    0.000    0.000 
#    0.000    0.000    0.000    0.000    0.000    0.000 
#
# Total GULP energy -133613.551319 kJ/mol
# GULP energy per Si atom -5567.231305 kJ/mol
# Density = 2.255305 g / cm^3
# Si number density = 22.604497 Si / 1000 Ang^3
#
#
#
# Elastic Constant Matrix: (Units=GPa)
#
#
# Indices 1 2 3 4 5 6 
#
# 1 132.9702 32.2369 45.6458 0.0000 -22.3043 0.0000
# 2 32.2369 53.5455 5.0703 0.0000 -9.9036 0.0000
# 3 45.6458 5.0703 66.0064 0.0000 -6.5796 0.0000
# 4 0.0000 0.0000 0.0000 19.9875 0.0000 4.0407
# 5 -22.3043 -9.9036 -6.5796 0.0000 47.0388 0.0000
# 6 0.0000 0.0000 0.0000 4.0407 0.0000 31.8437
#
#
#
# Elastic Compliance Matrix: (Units=1/GPa)
#
#
# Indices 1 2 3 4 5 6 
#
# 1 0.012153 -0.005960 -0.007603 0.000000 0.003444 0.000000
# 2 -0.005960 0.022434 0.002624 0.000000 0.002264 0.000000
# 3 -0.007603 0.002624 0.020183 0.000000 -0.000230 0.000000
# 4 0.000000 0.000000 0.000000 0.051349 0.000000 -0.006516
# 5 0.003444 0.002264 -0.000230 0.000000 0.023337 0.000000
# 6 0.000000 0.000000 0.000000 -0.006516 0.000000 0.032230
#
#
# Mechanical properties :
#
#
# Convention : Reuss Voigt Hill
#
# Bulk Modulus (GPa) = 30.40205 46.49198 38.44702
# Shear Modulus (GPa) = 25.70316 31.07860 28.39088
#
# Velocity S-wave (km/s) = 3.37572 3.71197 3.54783
# Velocity P-wave (km/s) = 5.35470 6.24370 5.81621
#
# Compressibility (1/GPa) = 0.03289251
#
# Stress axis : x y z
#
# Youngs Moduli (GPa) = 82.28365 44.57497 49.54554
#
# Poissons Ratio (x) = 0.26565 0.37670
# Poissons Ratio (y) = 0.49039 -0.13000
# Poissons Ratio (z) = 0.62562 -0.11696
#
# Static dielectric constant tensor:
#      x y z
#    x 1.890440 0.000000 -0.033670 
#    y 0.000000 1.850350 0.000000 
#    z -0.033670 0.000000 1.923730 
# 
# From -- ./inp_files/263082.got.cif
#   From: 2010.05.17/outbox.cif.g08.bks.cpg/sg15_132_cif.got.tgz:263082.got - 2010.06.03 18:47:42.
