data_PCOD9272047
_publ_section_title
;
Structure prediction by ZEFSAII (Michael W. Deem and Ramdas Pophale) SiO2 
 PCOD9272047
Probable space group: C 2/C
;
_chemical_formula_sum "Si O2"
_cell_formula_units_Z 52
_cell_length_a 14.934279
_cell_length_b 21.066952
_cell_length_c 13.483247
_cell_angle_alpha 90.000000
_cell_angle_beta 29.461447
_cell_angle_gamma 90.000000
_cell_volume 2086.423020
_symmetry_space_group_name_H-M "C 2/C"
_symmetry_group_IT_number 15
_symmetry_cell_setting 'monoclinic'
loop_
_space_group_symop_operation_xyz
x,y,z
-x,y,1/2-z
-x,-y,-z
x,-y,1/2+z
1/2+x,1/2+y,z
1/2-x,1/2+y,1/2-z
1/2-x,1/2-y,-z
1/2+x,1/2-y,1/2+z
loop_
_atom_site_type_symbol
_atom_site_label
_atom_site_fract_x
_atom_site_fract_y
_atom_site_fract_z
Si Si1 0.517787 0.571153 0.062590
Si Si2 0.615374 0.295974 0.486161
Si Si3 0.000000 0.135694 0.750000
Si Si4 0.336921 0.336690 0.603698
Si Si5 0.522431 0.166783 0.559347
Si Si6 0.598134 0.970745 0.277637
Si Si7 0.252848 0.025035 0.575646
O O1 0.545455 0.637148 0.097865
O O2 0.715989 0.544961 0.844019
O O3 0.411366 0.594382 0.067421
O O4 0.396237 0.522289 0.237582
O O5 0.475099 0.291308 0.529810
O O6 0.613436 0.225540 0.534197
O O7 0.812337 0.314601 0.257822
O O8 0.118004 0.172141 0.553928
O O9 0.847594 0.091241 0.844730
O O10 0.140016 0.333782 0.844724
O O11 0.514725 0.096218 0.613699
O O12 0.443986 0.022779 0.451795
O O13 0.684086 0.995914 0.091313
#
# Coordination Sequence:
#
# PCOD9272047 Si02
#       7
#     8   8   4   8   8   8   8
#     4   9  18  38  62  87 121 162 206 247 298 372
#     4   9  19  35  67  89 121 161 195 250 309 363
#     4  12  26  46  60  84 128 166 208 270 308 342
#     4  10  23  41  62  91 122 159 215 253 301 374
#     4  11  18  39  66  92 124 158 199 249 309 370
#     4  10  20  36  63  93 121 160 207 245 301 371
#     4  11  21  40  60  85 131 163 196 259 301 348
#
# _framework density 24.923037999999998
#
# number of rings (size 3 to 8) (size 9 to 14) (size 15 to 20)
#    0.923    0.923    4.615    0.000    0.000    0.615 
#    5.538    3.077    3.385    0.000    0.000    0.000 
#    0.000    0.000    0.000    0.000    0.000    0.000 
#
# Total GULP energy -144923.033918 kJ/mol
# GULP energy per Si atom -5573.962843 kJ/mol
# Density = 2.486631 g / cm^3
# Si number density = 24.923038 Si / 1000 Ang^3
#
#
#
# Elastic Constant Matrix: (Units=GPa)
#
#
# Indices 1 2 3 4 5 6 
#
# 1 23.8381 2.5234 32.6328 0.0013 -0.8626 0.0034
# 2 2.5234 60.9596 23.5846 0.0017 -4.0562 0.0002
# 3 32.6328 23.5846 162.3639 -0.0070 10.3178 -0.0028
# 4 0.0013 0.0017 -0.0070 20.5943 -0.0028 -9.2868
# 5 -0.8626 -4.0562 10.3178 -0.0028 47.4221 -0.0051
# 6 0.0034 0.0002 -0.0028 -9.2868 -0.0051 15.6439
#
#
#
# Elastic Compliance Matrix: (Units=1/GPa)
#
#
# Indices 1 2 3 4 5 6 
#
# 1 0.058895 0.002657 -0.012478 -0.000019 0.004013 -0.000025
# 2 0.002657 0.017703 -0.003250 -0.000004 0.002270 -0.000003
# 3 -0.012478 -0.003250 0.009300 0.000007 -0.002528 0.000008
# 4 -0.000019 -0.000004 0.000007 0.066307 0.000006 0.039362
# 5 0.004013 0.002270 -0.002528 0.000006 0.021904 0.000009
# 6 -0.000025 -0.000003 0.000008 0.039362 0.000009 0.087289
#
#
# Mechanical properties :
#
#
# Convention : Reuss Voigt Hill
#
# Bulk Modulus (GPa) = 16.73485 40.51591 28.62538
# Shear Modulus (GPa) = 16.26234 29.29344 22.77789
#
# Velocity S-wave (km/s) = 2.55718 3.43207 3.02641
# Velocity P-wave (km/s) = 3.93041 5.65660 4.87059
#
# Compressibility (1/GPa) = 0.05975555
#
# Stress axis : x y z
#
# Youngs Moduli (GPa) = 16.97928 56.48898 107.53137
#
# Poissons Ratio (x) = -0.15007 1.34178
# Poissons Ratio (y) = -0.04511 0.34944
# Poissons Ratio (z) = 0.21187 0.18357
#
# Static dielectric constant tensor:
#      x y z
#    x 2.139470 -0.000010 0.010940 
#    y -0.000010 2.061700 0.000010 
#    z 0.010940 0.000010 1.934150 
# 
# From -- ./inp_files/216803.got.cif
#   From: 2010.05.17/outbox.cif.g08.bks.cpg/sg15_109_cif.got.tgz:216803.got - 2010.06.03 18:47:42.
