data_PCOD9272435
_publ_section_title
;
Structure prediction by ZEFSAII (Michael W. Deem and Ramdas Pophale) SiO2 
 PCOD9272435
Probable space group: C 2/C
;
_chemical_formula_sum "Si O2"
_cell_formula_units_Z 48
_cell_length_a 13.542879
_cell_length_b 22.636312
_cell_length_c 9.500094
_cell_angle_alpha 90.000000
_cell_angle_beta 63.490717
_cell_angle_gamma 90.000000
_cell_volume 2606.157547
_symmetry_space_group_name_H-M "C 2/C"
_symmetry_group_IT_number 15
_symmetry_cell_setting 'monoclinic'
loop_
_space_group_symop_operation_xyz
x,y,z
-x,y,1/2-z
-x,-y,-z
x,-y,1/2+z
1/2+x,1/2+y,z
1/2-x,1/2+y,1/2-z
1/2-x,1/2-y,-z
1/2+x,1/2-y,1/2+z
loop_
_atom_site_type_symbol
_atom_site_label
_atom_site_fract_x
_atom_site_fract_y
_atom_site_fract_z
Si Si1 0.521215 0.692213 0.079782
Si Si2 0.533816 0.088050 0.378866
Si Si3 0.349053 0.191450 0.041529
Si Si4 0.703841 0.249844 0.872318
Si Si5 0.603725 0.036262 0.793908
Si Si6 0.265609 0.640595 0.653883
O O1 0.500000 0.666637 0.250000
O O2 0.411150 0.715004 0.071370
O O3 0.584628 0.754108 0.064800
O O4 0.602088 0.650961 0.934057
O O5 0.500000 0.113561 0.250000
O O6 0.576166 0.138334 0.453687
O O7 0.436086 0.056272 0.526031
O O8 0.618451 0.034387 0.291681
O O9 0.286395 0.215913 0.216468
O O10 0.268861 0.167468 0.974261
O O11 0.707467 0.182885 0.807667
O O12 0.750000 0.250000 0.000000
O O13 0.500000 0.046276 0.750000
O O14 0.709958 0.076098 0.693178
#
# Coordination Sequence:
#
# PCOD9272435 Si02
#       6
#     8   8   8   8   8   8
#     4  11  20  37  57  83 115 153 196 234 287 356
#     4  10  22  34  55  85 118 150 189 246 301 343
#     4  11  21  34  56  83 111 154 192 232 288 357
#     4  11  24  36  54  86 117 151 191 242 296 347
#     4  10  20  37  56  84 115 150 194 243 297 353
#     4  11  21  36  59  81 113 157 193 233 290 354
#
# _framework density 18.417918
#
# number of rings (size 3 to 8) (size 9 to 14) (size 15 to 20)
#    0.000    1.333    5.000    2.000    4.667    2.000 
#    0.000    0.000    0.000    1.000    0.000    0.000 
#    0.000    0.000    0.000    0.000    0.000    0.000 
#
# Total GULP energy -133806.814338 kJ/mol
# GULP energy per Si atom -5575.283931 kJ/mol
# Density = 1.837600 g / cm^3
# Si number density = 18.417918 Si / 1000 Ang^3
#
#
#
# Elastic Constant Matrix: (Units=GPa)
#
#
# Indices 1 2 3 4 5 6 
#
# 1 44.9664 -5.0795 15.8169 0.0000 -4.9608 0.0000
# 2 -5.0795 64.8704 -1.9642 0.0000 -13.5055 0.0000
# 3 15.8169 -1.9642 73.0214 0.0000 8.9349 0.0000
# 4 0.0000 0.0000 0.0000 -8.5060 0.0000 -2.9533
# 5 -4.9608 -13.5055 8.9349 0.0000 37.8939 0.0000
# 6 0.0000 0.0000 0.0000 -2.9533 0.0000 22.3447
#
#
#
# Elastic Compliance Matrix: (Units=1/GPa)
#
#
# Indices 1 2 3 4 5 6 
#
# 1 0.025381 0.003019 -0.006132 0.000000 0.005844 0.000000
# 2 0.003019 0.017016 -0.001016 0.000000 0.006699 0.000000
# 3 -0.006132 -0.001016 0.015588 0.000000 -0.004840 0.000000
# 4 0.000000 0.000000 0.000000 -0.112405 0.000000 -0.014857
# 5 0.005844 0.006699 -0.004840 0.000000 0.030683 0.000000
# 6 0.000000 0.000000 0.000000 -0.014857 0.000000 0.042790
#
#
# Mechanical properties :
#
#
# Convention : Reuss Voigt Hill
#
# Bulk Modulus (GPa) = 20.10991 22.26717 21.18854
# Shear Modulus (GPa) = 113.93127 21.95219 67.94173
#
# Velocity S-wave (km/s) = 7.87358 3.45613 6.08021
# Velocity P-wave (km/s) = 9.67471 5.29553 7.79880
#
# Compressibility (1/GPa) = 0.04972673
#
# Stress axis : x y z
#
# Youngs Moduli (GPa) = 39.39893 58.76942 64.15322
#
# Poissons Ratio (x) = -0.17740 0.39337
# Poissons Ratio (y) = -0.11893 0.06517
# Poissons Ratio (z) = 0.24158 0.05970
#
# Static dielectric constant tensor:
#      x y z
#    x 1.703930 0.000000 -0.039560 
#    y 0.000000 1.668530 0.000000 
#    z -0.039560 0.000000 1.660620 
# 
# From -- ./inp_files/32496.got.cif
#   From: 2010.05.17/outbox.cif.g08.bks.cpg/sg15_17_cif.got.tgz:32496.got - 2010.06.03 18:47:42.
