data_PCOD9272042
_publ_section_title
;
Structure prediction by ZEFSAII (Michael W. Deem and Ramdas Pophale) SiO2 
 PCOD9272042
Probable space group: C 2/C
;
_chemical_formula_sum "Si O2"
_cell_formula_units_Z 36
_cell_length_a 18.188171
_cell_length_b 8.107920
_cell_length_c 12.527976
_cell_angle_alpha 90.000000
_cell_angle_beta 131.592013
_cell_angle_gamma 90.000000
_cell_volume 1381.711877
_symmetry_space_group_name_H-M "C 2/C"
_symmetry_group_IT_number 15
_symmetry_cell_setting 'monoclinic'
loop_
_space_group_symop_operation_xyz
x,y,z
-x,y,1/2-z
-x,-y,-z
x,-y,1/2+z
1/2+x,1/2+y,z
1/2-x,1/2+y,1/2-z
1/2-x,1/2-y,-z
1/2+x,1/2-y,1/2+z
loop_
_atom_site_type_symbol
_atom_site_label
_atom_site_fract_x
_atom_site_fract_y
_atom_site_fract_z
Si Si1 0.355416 0.837254 0.462403
Si Si2 0.785615 0.075667 0.078500
Si Si3 0.279957 0.883240 0.762721
Si Si4 0.500000 0.362517 0.750000
Si Si5 0.025771 0.807867 0.011900
O O1 0.285690 0.676708 0.397260
O O2 0.465909 0.785397 0.547995
O O3 0.310609 0.955810 0.509790
O O4 0.332618 0.942959 0.330938
O O5 0.797848 0.105818 0.216646
O O6 0.896521 0.038037 0.147922
O O7 0.750000 0.250000 0.000000
O O8 0.361749 0.744595 0.862299
O O9 0.502897 0.264433 0.865380
O O10 0.000000 0.000000 0.000000
#
# Coordination Sequence:
#
# PCOD9272042 Si02
#       5
#     8   8   8   4   8
#     4  10  21  40  64  97 127 176 222 278 336 413
#     4  10  21  37  64  91 129 169 231 270 340 403
#     4  10  20  36  63  92 125 170 222 266 337 395
#     4  12  20  40  66  94 122 180 226 270 336 406
#     4  12  23  39  68  95 132 179 223 281 348 407
#
# _framework density 26.054637
#
# number of rings (size 3 to 8) (size 9 to 14) (size 15 to 20)
#    1.333    0.000    4.444    3.333    0.000    0.000 
#    0.000    1.111    4.889    2.667    0.000    0.000 
#    0.000    0.000    0.000    0.000    0.000    0.000 
#
# Total GULP energy -100276.777349 kJ/mol
# GULP energy per Si atom -5570.932075 kJ/mol
# Density = 2.599534 g / cm^3
# Si number density = 26.054637 Si / 1000 Ang^3
#
#
#
# Elastic Constant Matrix: (Units=GPa)
#
#
# Indices 1 2 3 4 5 6 
#
# 1 171.9523 41.5948 36.8909 0.0000 38.6712 0.0000
# 2 41.5948 60.0864 9.1065 0.0000 13.3373 0.0000
# 3 36.8909 9.1065 86.3047 0.0000 30.7879 0.0000
# 4 0.0000 0.0000 0.0000 41.7468 0.0000 -2.6028
# 5 38.6712 13.3373 30.7879 0.0000 47.9985 0.0000
# 6 0.0000 0.0000 0.0000 -2.6028 0.0000 44.2955
#
#
#
# Elastic Compliance Matrix: (Units=1/GPa)
#
#
# Indices 1 2 3 4 5 6 
#
# 1 0.008208 -0.004477 -0.001453 0.000000 -0.004437 0.000000
# 2 -0.004477 0.020180 0.000646 0.000000 -0.002415 0.000000
# 3 -0.001453 0.000646 0.015283 0.000000 -0.008812 0.000000
# 4 0.000000 0.000000 0.000000 0.024042 0.000000 0.001413
# 5 -0.004437 -0.002415 -0.008812 0.000000 0.030732 0.000000
# 6 0.000000 0.000000 0.000000 0.001413 0.000000 0.022659
#
#
# Mechanical properties :
#
#
# Convention : Reuss Voigt Hill
#
# Bulk Modulus (GPa) = 30.20937 54.83642 42.52290
# Shear Modulus (GPa) = 35.03670 42.19157 38.61413
#
# Velocity S-wave (km/s) = 3.67105 4.02848 3.85391
# Velocity P-wave (km/s) = 5.43954 6.53686 6.01328
#
# Compressibility (1/GPa) = 0.03310231
#
# Stress axis : x y z
#
# Youngs Moduli (GPa) = 121.82976 49.55403 65.43025
#
# Poissons Ratio (x) = 0.22185 0.09510
# Poissons Ratio (y) = 0.54543 -0.04225
# Poissons Ratio (z) = 0.17707 -0.03200
#
# Static dielectric constant tensor:
#      x y z
#    x 2.070840 0.000000 -0.076170 
#    y 0.000000 2.178660 0.000000 
#    z -0.076170 0.000000 2.054500 
# 
# From -- ./inp_files/158902.got.cif
#   From: 2010.05.17/outbox.cif.g08.bks.cpg/sg15_80_cif.got.tgz:158902.got - 2010.06.03 18:47:42.
