data_PCOD9272661
_publ_section_title
;
Structure prediction by ZEFSAII (Michael W. Deem and Ramdas Pophale) SiO2 
 PCOD9272661
Probable space group: C 2/C
;
_chemical_formula_sum "Si O2"
_cell_formula_units_Z 48
_cell_length_a 20.869681
_cell_length_b 8.574151
_cell_length_c 11.951917
_cell_angle_alpha 90.000000
_cell_angle_beta 104.939843
_cell_angle_gamma 90.000000
_cell_volume 2066.380090
_symmetry_space_group_name_H-M "C 2/C"
_symmetry_group_IT_number 15
_symmetry_cell_setting 'monoclinic'
loop_
_space_group_symop_operation_xyz
x,y,z
-x,y,1/2-z
-x,-y,-z
x,-y,1/2+z
1/2+x,1/2+y,z
1/2-x,1/2+y,1/2-z
1/2-x,1/2-y,-z
1/2+x,1/2-y,1/2+z
loop_
_atom_site_type_symbol
_atom_site_label
_atom_site_fract_x
_atom_site_fract_y
_atom_site_fract_z
Si Si1 0.737595 0.240494 0.344673
Si Si2 0.353829 0.979225 0.107625
Si Si3 0.551701 0.937296 0.179064
Si Si4 0.806297 0.765081 0.430391
Si Si5 0.967604 0.299402 0.570045
Si Si6 0.648495 0.600394 0.981188
O O1 0.722486 0.246847 0.206722
O O2 0.692497 0.371548 0.387494
O O3 0.814053 0.225754 0.418718
O O4 0.709310 0.078894 0.384669
O O5 0.377837 0.900379 0.233393
O O6 0.412897 0.097441 0.109352
O O7 0.350370 0.877479 0.994697
O O8 0.500000 0.885169 0.250000
O O9 0.535976 0.122621 0.145018
O O10 0.536043 0.843674 0.060916
O O11 0.750000 0.750000 0.500000
O O12 0.842390 0.929029 0.464657
O O13 0.930246 0.134487 0.568502
#
# Coordination Sequence:
#
# PCOD9272661 Si02
#       6
#     8   8   8   8   8   8
#     4  10  23  40  57  88 135 171 218 257 326 404
#     4  10  20  37  59  87 123 168 210 264 320 391
#     4   9  18  34  62  88 112 156 228 272 309 375
#     4  12  25  35  60  96 132 173 216 260 330 403
#     4   9  19  36  60  85 116 162 217 272 321 374
#     4  10  23  39  60  88 131 179 209 274 330 383
#
# _framework density 23.229028
#
# number of rings (size 3 to 8) (size 9 to 14) (size 15 to 20)
#    0.000    2.000    1.667    1.000    4.667    0.000 
#    0.000    0.000    0.000   31.000    0.000    0.000 
#    0.000    4.000    0.000    0.000    0.000    0.000 
#
# Total GULP energy -133698.549930 kJ/mol
# GULP energy per Si atom -5570.772914 kJ/mol
# Density = 2.317616 g / cm^3
# Si number density = 23.229028 Si / 1000 Ang^3
#
#
#
# Elastic Constant Matrix: (Units=GPa)
#
#
# Indices 1 2 3 4 5 6 
#
# 1 47.4254 1.9619 18.1066 0.0000 0.0445 0.0000
# 2 1.9619 64.5839 22.3757 0.0000 -2.1909 0.0000
# 3 18.1066 22.3757 199.6926 0.0000 -6.0488 0.0000
# 4 0.0000 0.0000 0.0000 20.5171 0.0000 2.6468
# 5 0.0445 -2.1909 -6.0488 0.0000 29.4051 0.0000
# 6 0.0000 0.0000 0.0000 2.6468 0.0000 13.4755
#
#
#
# Elastic Compliance Matrix: (Units=1/GPa)
#
#
# Indices 1 2 3 4 5 6 
#
# 1 0.021848 0.000013 -0.001996 0.000000 -0.000443 0.000000
# 2 0.000013 0.016129 -0.001783 0.000000 0.000835 0.000000
# 3 -0.001996 -0.001783 0.005418 0.000000 0.000985 0.000000
# 4 0.000000 0.000000 0.000000 0.050007 0.000000 -0.009822
# 5 -0.000443 0.000835 0.000985 0.000000 0.034273 0.000000
# 6 0.000000 0.000000 0.000000 -0.009822 0.000000 0.076138
#
#
# Mechanical properties :
#
#
# Convention : Reuss Voigt Hill
#
# Bulk Modulus (GPa) = 27.88393 44.06558 35.97476
# Shear Modulus (GPa) = 22.39140 30.63006 26.51073
#
# Velocity S-wave (km/s) = 3.10811 3.63521 3.38194
# Velocity P-wave (km/s) = 4.99103 6.05235 5.54713
#
# Compressibility (1/GPa) = 0.03586295
#
# Stress axis : x y z
#
# Youngs Moduli (GPa) = 45.77161 61.99826 184.55990
#
# Poissons Ratio (x) = -0.00079 0.36835
# Poissons Ratio (y) = -0.00058 0.32910
# Poissons Ratio (z) = 0.09135 0.11055
#
# Static dielectric constant tensor:
#      x y z
#    x 2.195160 0.000000 0.182420 
#    y 0.000000 0.435620 0.000000 
#    z 0.182420 0.000000 2.007330 
# 
# From -- ./inp_files/116431.got.cif
#   From: 2010.05.17/outbox.cif.g08.bks.cpg/sg15_59_cif.got.tgz:116431.got - 2010.06.03 18:47:42.
