data_PCOD9272716
_publ_section_title
;
Structure prediction by ZEFSAII (Michael W. Deem and Ramdas Pophale) SiO2 
 PCOD9272716
Probable space group: C 2/C
;
_chemical_formula_sum "Si O2"
_cell_formula_units_Z 56
_cell_length_a 31.178747
_cell_length_b 11.837248
_cell_length_c 14.711818
_cell_angle_alpha 90.000000
_cell_angle_beta 152.183999
_cell_angle_gamma 90.000000
_cell_volume 2533.680274
_symmetry_space_group_name_H-M "C 2/C"
_symmetry_group_IT_number 15
_symmetry_cell_setting 'monoclinic'
loop_
_space_group_symop_operation_xyz
x,y,z
-x,y,1/2-z
-x,-y,-z
x,-y,1/2+z
1/2+x,1/2+y,z
1/2-x,1/2+y,1/2-z
1/2-x,1/2-y,-z
1/2+x,1/2-y,1/2+z
loop_
_atom_site_type_symbol
_atom_site_label
_atom_site_fract_x
_atom_site_fract_y
_atom_site_fract_z
Si Si1 0.827712 0.793116 0.075399
Si Si2 0.862495 0.202636 0.110097
Si Si3 0.459125 0.620524 0.956438
Si Si4 0.760368 0.521369 0.559042
Si Si5 0.387592 0.965858 0.145936
Si Si6 0.185587 0.206499 0.687912
Si Si7 0.399002 0.960065 0.958025
O O1 0.926977 0.796915 0.311934
O O2 0.750000 0.750000 0.000000
O O3 0.791423 0.733819 0.914963
O O4 0.808283 0.927025 0.030761
O O5 0.857807 0.336564 0.103541
O O6 0.964924 0.171073 0.333475
O O7 0.797827 0.134220 0.057440
O O8 0.834088 0.173035 0.953020
O O9 0.366106 0.617038 0.843201
O O10 0.500000 0.500000 0.000000
O O11 0.817227 0.473227 0.580307
O O12 0.839114 0.536394 0.780738
O O13 0.494950 0.972553 0.369533
O O14 0.382089 0.994029 0.030110
O O15 0.134132 0.328527 0.609174
#
# Coordination Sequence:
#
# PCOD9272716 Si02
#       7
#     8   8   8   8   8   8   8
#     4   9  20  36  56  83 116 156 203 238 294 363
#     4  11  21  36  60  88 120 158 201 243 311 361
#     4  11  19  34  58  90 117 150 204 253 300 355
#     4  11  21  35  57  90 117 149 191 258 301 352
#     4  10  20  37  60  84 114 153 199 248 296 360
#     4   9  19  37  59  79 117 166 204 242 285 370
#     4   9  19  36  58  83 108 154 207 236 289 363
#
# _framework density 22.102236999999999
#
# number of rings (size 3 to 8) (size 9 to 14) (size 15 to 20)
#    0.000    2.000    2.857    1.286    0.000    2.286 
#    0.000    0.000    0.000    0.000    0.000    0.000 
#    0.000    0.000    0.000    0.000    0.000    0.000 
#
# Total GULP energy -156067.046748 kJ/mol
# GULP energy per Si atom -5573.823098 kJ/mol
# Density = 2.205193 g / cm^3
# Si number density = 22.102237 Si / 1000 Ang^3
#
#
#
# Elastic Constant Matrix: (Units=GPa)
#
#
# Indices 1 2 3 4 5 6 
#
# 1 41.2899 3.4469 48.3455 0.0000 9.9007 0.0000
# 2 3.4469 57.1341 20.2844 0.0000 7.2655 0.0000
# 3 48.3455 20.2844 146.2984 0.0000 -20.6848 0.0000
# 4 0.0000 0.0000 0.0000 33.9627 0.0000 4.1653
# 5 9.9007 7.2655 -20.6848 0.0000 27.3823 0.0000
# 6 0.0000 0.0000 0.0000 4.1653 0.0000 29.2370
#
#
#
# Elastic Compliance Matrix: (Units=1/GPa)
#
#
# Indices 1 2 3 4 5 6 
#
# 1 0.084821 0.017245 -0.039638 0.000000 -0.065188 0.000000
# 2 0.017245 0.023457 -0.011994 0.000000 -0.021519 0.000000
# 3 -0.039638 -0.011994 0.026952 0.000000 0.037874 0.000000
# 4 0.000000 0.000000 0.000000 0.029968 0.000000 -0.004269
# 5 -0.065188 -0.021519 0.037874 0.000000 0.094410 0.000000
# 6 0.000000 0.000000 0.000000 -0.004269 0.000000 0.034811
#
#
# Mechanical properties :
#
#
# Convention : Reuss Voigt Hill
#
# Bulk Modulus (GPa) = 15.04725 43.20845 29.12785
# Shear Modulus (GPa) = 12.97539 29.62610 21.30074
#
# Velocity S-wave (km/s) = 2.42557 3.66514 3.10778
# Velocity P-wave (km/s) = 3.82979 6.12395 5.10735
#
# Compressibility (1/GPa) = 0.06645735
#
# Stress axis : x y z
#
# Youngs Moduli (GPa) = 11.78948 42.63133 37.10329
#
# Poissons Ratio (x) = -0.73517 1.47069
# Poissons Ratio (y) = -0.20331 0.44500
# Poissons Ratio (z) = 0.46731 0.51130
#
# Static dielectric constant tensor:
#      x y z
#    x 1.871710 0.000000 -0.027570 
#    y 0.000000 1.865000 0.000000 
#    z -0.027570 0.000000 1.884860 
# 
# From -- ./inp_files/182174.got.cif
#   From: 2010.05.17/outbox.cif.g08.bks.cpg/sg15_92_cif.got.tgz:182174.got - 2010.06.03 18:47:42.
