data_PCOD9272587
_publ_section_title
;
Structure prediction by ZEFSAII (Michael W. Deem and Ramdas Pophale) SiO2 
 PCOD9272587
Probable space group: C 2/C
;
_chemical_formula_sum "Si O2"
_cell_formula_units_Z 60
_cell_length_a 20.307283
_cell_length_b 20.607363
_cell_length_c 8.522528
_cell_angle_alpha 90.000000
_cell_angle_beta 135.758456
_cell_angle_gamma 90.000000
_cell_volume 2488.295197
_symmetry_space_group_name_H-M "C 2/C"
_symmetry_group_IT_number 15
_symmetry_cell_setting 'monoclinic'
loop_
_space_group_symop_operation_xyz
x,y,z
-x,y,1/2-z
-x,-y,-z
x,-y,1/2+z
1/2+x,1/2+y,z
1/2-x,1/2+y,1/2-z
1/2-x,1/2-y,-z
1/2+x,1/2-y,1/2+z
loop_
_atom_site_type_symbol
_atom_site_label
_atom_site_fract_x
_atom_site_fract_y
_atom_site_fract_z
Si Si1 0.688684 0.236426 0.239656
Si Si2 0.361952 0.662420 0.414495
Si Si3 0.818241 0.028560 0.427349
Si Si4 0.551060 0.342011 0.080916
Si Si5 0.458186 0.846590 0.826597
Si Si6 0.194188 0.454418 0.000151
Si Si7 0.500000 0.451996 0.750000
Si Si8 0.554519 0.057739 0.684279
O O1 0.750000 0.250000 0.500000
O O2 0.766648 0.205985 0.256047
O O3 0.625078 0.300196 0.102568
O O4 0.607904 0.187213 0.160324
O O5 0.338275 0.586758 0.340027
O O6 0.403792 0.657477 0.665746
O O7 0.445264 0.684724 0.439480
O O8 0.757490 0.061776 0.459863
O O9 0.758823 0.968053 0.258381
O O10 0.914965 0.998985 0.652832
O O11 0.533273 0.407339 0.952273
O O12 0.500000 0.807834 0.750000
O O13 0.390647 0.903244 0.638532
O O14 0.545215 0.879225 0.064581
O O15 0.151565 0.525592 0.894842
O O16 0.500000 0.070854 0.750000
O O17 0.500000 0.000000 0.500000
#
# Coordination Sequence:
#
# PCOD9272587 Si02
#       8
#     8   8   8   8   8   8   4   8
#     4  10  23  41  67  92 122 167 227 272 315 395
#     4  10  21  42  68  95 119 170 221 264 326 389
#     4  12  23  37  64  92 132 164 211 265 321 388
#     4  10  23  44  65  88 131 168 218 273 322 382
#     4  11  22  39  65  94 124 166 213 268 333 388
#     4  11  21  37  59  95 125 165 201 258 320 393
#     4  12  26  42  58  98 136 174 210 270 330 378
#     4  10  20  37  58  89 133 166 202 258 326 396
#
# _framework density 24.112895999999999
#
# number of rings (size 3 to 8) (size 9 to 14) (size 15 to 20)
#    0.000    1.333    1.333    6.400    5.600    1.600 
#    1.200    0.667    0.000    0.000    0.000    0.000 
#    0.000    0.000    0.000    0.000    0.000    0.000 
#
# Total GULP energy -167511.929886 kJ/mol
# GULP energy per Si atom -5583.730996 kJ/mol
# Density = 2.405801 g / cm^3
# Si number density = 24.112896 Si / 1000 Ang^3
#
#
#
# Elastic Constant Matrix: (Units=GPa)
#
#
# Indices 1 2 3 4 5 6 
#
# 1 101.5251 4.0819 14.7921 0.0000 26.6555 0.0000
# 2 4.0819 61.1213 15.7017 0.0000 19.6453 0.0000
# 3 14.7921 15.7017 56.4223 0.0000 17.7463 0.0000
# 4 0.0000 0.0000 0.0000 29.1724 0.0000 21.3994
# 5 26.6555 19.6453 17.7463 0.0000 40.3317 0.0000
# 6 0.0000 0.0000 0.0000 21.3994 0.0000 22.1899
#
#
#
# Elastic Compliance Matrix: (Units=1/GPa)
#
#
# Indices 1 2 3 4 5 6 
#
# 1 0.012197 0.002256 -0.001096 0.000000 -0.008678 0.000000
# 2 0.002256 0.020209 -0.003076 0.000000 -0.009981 0.000000
# 3 -0.001096 -0.003076 0.021086 0.000000 -0.007055 0.000000
# 4 0.000000 0.000000 0.000000 0.117160 0.000000 -0.112986
# 5 -0.008678 -0.009981 -0.007055 0.000000 0.038496 0.000000
# 6 0.000000 0.000000 0.000000 -0.112986 0.000000 0.154027
#
#
# Mechanical properties :
#
#
# Convention : Reuss Voigt Hill
#
# Bulk Modulus (GPa) = 20.13703 32.02446 26.08074
# Shear Modulus (GPa) = 13.03581 30.63832 21.83706
#
# Velocity S-wave (km/s) = 2.32764 3.56844 3.01261
# Velocity P-wave (km/s) = 3.94881 5.50348 4.78964
#
# Compressibility (1/GPa) = 0.04965975
#
# Stress axis : x y z
#
# Youngs Moduli (GPa) = 81.98624 49.48405 47.42498
#
# Poissons Ratio (x) = -0.11165 0.05199
# Poissons Ratio (y) = -0.18498 0.14588
# Poissons Ratio (z) = 0.08987 0.15221
#
# Static dielectric constant tensor:
#      x y z
#    x 1.913070 0.000000 -0.021870 
#    y 0.000000 1.999620 0.000000 
#    z -0.021870 0.000000 1.882370 
# 
# From -- ./inp_files/58777.got.cif
#   From: 2010.05.17/outbox.cif.g08.bks.cpg/sg15_30_cif.got.tgz:58777.got - 2010.06.03 18:47:42.
