data_PCOD9272470
_publ_section_title
;
Structure prediction by ZEFSAII (Michael W. Deem and Ramdas Pophale) SiO2 
 PCOD9272470
Probable space group: C 2/C
;
_chemical_formula_sum "Si O2"
_cell_formula_units_Z 56
_cell_length_a 9.598637
_cell_length_b 16.728336
_cell_length_c 20.555305
_cell_angle_alpha 90.000000
_cell_angle_beta 68.195806
_cell_angle_gamma 90.000000
_cell_volume 3064.423601
_symmetry_space_group_name_H-M "C 2/C"
_symmetry_group_IT_number 15
_symmetry_cell_setting 'monoclinic'
loop_
_space_group_symop_operation_xyz
x,y,z
-x,y,1/2-z
-x,-y,-z
x,-y,1/2+z
1/2+x,1/2+y,z
1/2-x,1/2+y,1/2-z
1/2-x,1/2-y,-z
1/2+x,1/2-y,1/2+z
loop_
_atom_site_type_symbol
_atom_site_label
_atom_site_fract_x
_atom_site_fract_y
_atom_site_fract_z
Si Si1 0.928848 0.118663 0.333878
Si Si2 0.121844 0.397377 0.673460
Si Si3 0.374250 0.105482 0.559455
Si Si4 0.904880 0.424037 0.591402
Si Si5 0.612238 0.273812 0.895139
Si Si6 0.612305 0.500474 0.389179
Si Si7 0.414211 0.381135 0.483145
O O1 0.750116 0.117996 0.363575
O O2 0.000000 0.119389 0.250000
O O3 0.991208 0.191452 0.366237
O O4 0.989702 0.040859 0.362927
O O5 0.234852 0.322090 0.648119
O O6 0.226544 0.475601 0.667864
O O7 0.000000 0.386025 0.750000
O O8 0.031690 0.408894 0.622722
O O9 0.524021 0.104101 0.489090
O O10 0.375835 0.179314 0.608135
O O11 0.229335 0.118986 0.538552
O O12 0.369795 0.018318 0.592003
O O13 0.571395 0.301386 0.976326
O O14 0.558385 0.412266 0.417832
O O15 0.612547 0.551795 0.456267
#
# Coordination Sequence:
#
# PCOD9272470 Si02
#       7
#     8   8   8   8   8   8   8
#     4  10  20  37  57  80 113 153 192 225 278 347
#     4  10  20  37  60  81 110 150 195 226 273 340
#     4  11  21  35  57  87 118 139 187 243 291 330
#     4  11  21  34  59  85 112 146 186 241 284 326
#     4  10  22  37  59  83 114 150 183 234 290 339
#     4   9  17  32  56  87 106 147 185 229 278 333
#     4   9  16  32  57  81 112 137 183 232 281 332
#
# _framework density 18.274235000000001
#
# number of rings (size 3 to 8) (size 9 to 14) (size 15 to 20)
#    0.000    2.286    4.286    2.143    0.000    0.571 
#    0.000    1.429    0.000    0.000    0.000    0.000 
#    0.000    0.000    0.000    0.000    0.000    0.000 
#
# Total GULP energy -156049.807046 kJ/mol
# GULP energy per Si atom -5573.207394 kJ/mol
# Density = 1.823264 g / cm^3
# Si number density = 18.274235 Si / 1000 Ang^3
#
#
#
# Elastic Constant Matrix: (Units=GPa)
#
#
# Indices 1 2 3 4 5 6 
#
# 1 81.3908 20.8594 17.7160 0.0000 -23.9267 0.0000
# 2 20.8594 62.7269 40.6534 0.0000 -12.3674 0.0000
# 3 17.7160 40.6534 59.4300 0.0000 -19.8061 0.0000
# 4 0.0000 0.0000 0.0000 7.5242 0.0000 -3.5829
# 5 -23.9267 -12.3674 -19.8061 0.0000 28.5203 0.0000
# 6 0.0000 0.0000 0.0000 -3.5829 0.0000 0.5554
#
#
#
# Elastic Compliance Matrix: (Units=1/GPa)
#
#
# Indices 1 2 3 4 5 6 
#
# 1 0.017069 -0.004756 0.002928 0.000000 0.014291 0.000000
# 2 -0.004756 0.030016 -0.020957 0.000000 -0.005528 0.000000
# 3 0.002928 -0.020957 0.036535 0.000000 0.018741 0.000000
# 4 0.000000 0.000000 0.000000 -0.064146 0.000000 -0.413812
# 5 0.014291 -0.005528 0.018741 0.000000 0.057669 0.000000
# 6 0.000000 0.000000 0.000000 -0.413812 0.000000 -0.869023
#
#
# Mechanical properties :
#
#
# Convention : Reuss Voigt Hill
#
# Bulk Modulus (GPa) = 26.28151 40.22282 33.25216
# Shear Modulus (GPa) = -6.81548 15.60791 4.39621
#
# Velocity S-wave (km/s) = -1.93330 2.92566 1.55271
# Velocity P-wave (km/s) = 3.07074 5.78542 4.63144
#
# Compressibility (1/GPa) = 0.03804957
#
# Stress axis : x y z
#
# Youngs Moduli (GPa) = 58.58520 33.31530 27.37077
#
# Poissons Ratio (x) = 0.15845 -0.08014
# Poissons Ratio (y) = 0.27864 0.57362
# Poissons Ratio (z) = -0.17153 0.69820
#
# Static dielectric constant tensor:
#      x y z
#    x 1.624160 0.000000 -0.010920 
#    y 0.000000 1.627600 0.000000 
#    z -0.010920 0.000000 1.654190 
# 
# From -- ./inp_files/265170.got.cif
#   From: 2010.05.17/outbox.cif.g08.bks.cpg/sg15_133_cif.got.tgz:265170.got - 2010.06.03 18:47:42.
