data_PCOD9272281
_publ_section_title
;
Structure prediction by ZEFSAII (Michael W. Deem and Ramdas Pophale) SiO2 
 PCOD9272281
Probable space group: C 2/C
;
_chemical_formula_sum "Si O2"
_cell_formula_units_Z 64
_cell_length_a 30.586813
_cell_length_b 19.291263
_cell_length_c 13.868366
_cell_angle_alpha 90.000000
_cell_angle_beta 19.433306
_cell_angle_gamma 90.000000
_cell_volume 2722.608631
_symmetry_space_group_name_H-M "C 2/C"
_symmetry_group_IT_number 15
_symmetry_cell_setting 'monoclinic'
loop_
_space_group_symop_operation_xyz
x,y,z
-x,y,1/2-z
-x,-y,-z
x,-y,1/2+z
1/2+x,1/2+y,z
1/2-x,1/2+y,1/2-z
1/2-x,1/2-y,-z
1/2+x,1/2-y,1/2+z
loop_
_atom_site_type_symbol
_atom_site_label
_atom_site_fract_x
_atom_site_fract_y
_atom_site_fract_z
Si Si1 0.084577 0.208645 0.220498
Si Si2 0.797245 0.781438 0.235413
Si Si3 0.274629 0.091529 0.859267
Si Si4 0.277859 0.959984 0.630842
Si Si5 0.944056 0.360500 0.158238
Si Si6 0.230569 0.376948 0.649807
Si Si7 0.637909 0.524408 0.753510
Si Si8 0.120940 0.401083 0.559590
O O1 0.073550 0.278507 0.303559
O O2 0.936896 0.196005 0.490197
O O3 0.171610 0.224008 0.943723
O O4 0.160041 0.147302 0.117824
O O5 0.754418 0.705023 0.358447
O O6 0.688804 0.840651 0.478897
O O7 0.414526 0.114939 0.611652
O O8 0.274643 0.083155 0.745248
O O9 0.244836 0.021096 0.974333
O O10 0.330106 0.895442 0.459346
O O11 0.255136 0.924982 0.783193
O O12 0.160359 0.000855 0.817781
O O13 0.391923 0.019233 0.381231
O O14 0.081757 0.381638 0.918533
O O15 0.329167 0.401264 0.360675
O O16 0.500000 0.500000 0.000000
O O17 0.000000 0.373589 0.750000
#
# Coordination Sequence:
#
# PCOD9272281 Si02
#       8
#     8   8   8   8   8   8   8   8
#     4   9  17  36  63  91 130 162 213 253 314 387
#     4   9  20  37  63  92 124 174 212 258 316 388
#     4  10  22  38  62  94 128 165 206 266 318 376
#     4  11  23  40  69  91 127 162 213 270 324 379
#     4  10  20  36  66  99 122 161 211 265 320 377
#     4  11  21  44  66  94 128 169 215 267 324 380
#     4  11  27  44  61  96 127 170 220 262 322 393
#     4  11  23  40  62  95 128 166 213 264 322 375
#
# _framework density 23.506867
#
# number of rings (size 3 to 8) (size 9 to 14) (size 15 to 20)
#    0.000    1.750    2.500    1.500    3.500    1.500 
#    2.250    0.625    0.000    0.000    0.000    0.000 
#    0.000    0.000    0.000    0.000    0.000    0.000 
#
# Total GULP energy -178569.645792 kJ/mol
# GULP energy per Si atom -5580.301431 kJ/mol
# Density = 2.345336 g / cm^3
# Si number density = 23.506867 Si / 1000 Ang^3
#
#
#
# Elastic Constant Matrix: (Units=GPa)
#
#
# Indices 1 2 3 4 5 6 
#
# 1 121.9743 31.7776 4.4634 -0.0005 -8.1358 0.0000
# 2 31.7776 109.9092 17.1286 -0.0002 -3.2492 -0.0001
# 3 4.4634 17.1286 29.2901 -0.0009 -11.5824 -0.0004
# 4 -0.0005 -0.0002 -0.0009 34.1026 -0.0004 -0.3762
# 5 -8.1358 -3.2492 -11.5824 -0.0004 30.1969 -0.0002
# 6 0.0000 -0.0001 -0.0004 -0.3762 -0.0002 39.4000
#
#
#
# Elastic Compliance Matrix: (Units=1/GPa)
#
#
# Indices 1 2 3 4 5 6 
#
# 1 0.009039 -0.002732 0.001258 0.000000 0.002624 0.000000
# 2 -0.002732 0.010885 -0.006810 0.000000 -0.002177 0.000000
# 3 0.001258 -0.006810 0.044530 0.000001 0.016686 0.000001
# 4 0.000000 0.000000 0.000001 0.029326 0.000001 0.000280
# 5 0.002624 -0.002177 0.016686 0.000001 0.039989 0.000000
# 6 0.000000 0.000000 0.000001 0.000280 0.000000 0.025383
#
#
# Mechanical properties :
#
#
# Convention : Reuss Voigt Hill
#
# Bulk Modulus (GPa) = 20.88280 40.87920 30.88100
# Shear Modulus (GPa) = 26.08456 34.59350 30.33903
#
# Velocity S-wave (km/s) = 3.33477 3.84035 3.59645
# Velocity P-wave (km/s) = 4.87140 6.09036 5.51466
#
# Compressibility (1/GPa) = 0.04788631
#
# Stress axis : x y z
#
# Youngs Moduli (GPa) = 110.62953 91.86753 22.45652
#
# Poissons Ratio (x) = 0.25097 -0.02824
# Poissons Ratio (y) = 0.30223 0.15293
# Poissons Ratio (z) = -0.13914 0.62563
#
# Static dielectric constant tensor:
#      x y z
#    x 1.968820 0.000000 0.042640 
#    y 0.000000 1.944730 0.000000 
#    z 0.042640 0.000000 1.942410 
# 
# From -- ./inp_files/183112.got.cif
#   From: 2010.05.17/outbox.cif.g08.bks.cpg/sg15_92_cif.got.tgz:183112.got - 2010.06.03 18:47:42.
