data_PCOD9272983
_publ_section_title
;
Structure prediction by ZEFSAII (Michael W. Deem and Ramdas Pophale) SiO2 
 PCOD9272983
Probable space group: C 2/C
;
_chemical_formula_sum "Si O2"
_cell_formula_units_Z 48
_cell_length_a 19.434965
_cell_length_b 17.052525
_cell_length_c 8.160505
_cell_angle_alpha 90.000000
_cell_angle_beta 137.288676
_cell_angle_gamma 90.000000
_cell_volume 1834.486209
_symmetry_space_group_name_H-M "C 2/C"
_symmetry_group_IT_number 15
_symmetry_cell_setting 'monoclinic'
loop_
_space_group_symop_operation_xyz
x,y,z
-x,y,1/2-z
-x,-y,-z
x,-y,1/2+z
1/2+x,1/2+y,z
1/2-x,1/2+y,1/2-z
1/2-x,1/2-y,-z
1/2+x,1/2-y,1/2+z
loop_
_atom_site_type_symbol
_atom_site_label
_atom_site_fract_x
_atom_site_fract_y
_atom_site_fract_z
Si Si1 0.384672 0.406706 0.575642
Si Si2 0.660317 0.956262 0.782950
Si Si3 0.849794 0.214082 0.758661
Si Si4 0.000000 0.240866 0.750000
Si Si5 0.947017 0.387798 0.470138
Si Si6 0.697013 0.445293 0.731547
Si Si7 0.000000 0.316056 0.250000
O O1 0.321352 0.354413 0.336705
O O2 0.355142 0.395969 0.714746
O O3 0.374801 0.496735 0.498506
O O4 0.500000 0.383237 0.750000
O O5 0.566755 0.909560 0.696046
O O6 0.729911 0.908337 0.777566
O O7 0.612010 0.031859 0.605173
O O8 0.734227 0.996416 0.040059
O O9 0.750000 0.250000 0.500000
O O10 0.927655 0.193305 0.745651
O O11 0.921593 0.269030 0.998851
O O12 0.931154 0.304043 0.528211
O O13 0.935492 0.370111 0.258089
#
# Coordination Sequence:
#
# PCOD9272983 Si02
#       7
#     8   8   8   4   8   8   4
#     4  11  24  49  69  99 138 178 235 298 347 403
#     4  10  20  37  62 111 137 183 209 283 344 423
#     4  11  26  49  74  99 141 188 238 293 352 415
#     4  10  24  43  68 101 134 192 230 286 350 430
#     4  10  20  37  67  97 157 169 217 276 354 414
#     4  10  23  38  70 101 134 177 237 277 346 409
#     4  10  22  43  68 103 134 192 236 282 344 432
#
# _framework density 26.165365000000001
#
# number of rings (size 3 to 8) (size 9 to 14) (size 15 to 20)
#    0.000    1.667    0.833    2.500    9.333    2.667 
#    7.500    5.000    0.000    0.000    0.000    0.000 
#    0.000    0.000    0.000    0.000    0.000    0.000 
#
# Total GULP energy -134145.254908 kJ/mol
# GULP energy per Si atom -5589.385621 kJ/mol
# Density = 2.610581 g / cm^3
# Si number density = 26.165365 Si / 1000 Ang^3
#
#
#
# Elastic Constant Matrix: (Units=GPa)
#
#
# Indices 1 2 3 4 5 6 
#
# 1 137.7180 10.2321 3.8113 0.0000 -6.1860 0.0000
# 2 10.2321 66.7654 8.6729 0.0000 4.0573 0.0000
# 3 3.8113 8.6729 99.2348 0.0000 17.6420 0.0000
# 4 0.0000 0.0000 0.0000 45.7326 0.0000 -7.9973
# 5 -6.1860 4.0573 17.6420 0.0000 36.4442 0.0000
# 6 0.0000 0.0000 0.0000 -7.9973 0.0000 19.2768
#
#
#
# Elastic Compliance Matrix: (Units=1/GPa)
#
#
# Indices 1 2 3 4 5 6 
#
# 1 0.007434 -0.001177 -0.000471 0.000000 0.001621 0.000000
# 2 -0.001177 0.015380 -0.001049 0.000000 -0.001404 0.000000
# 3 -0.000471 -0.001049 0.011139 0.000000 -0.005355 0.000000
# 4 0.000000 0.000000 0.000000 0.023577 0.000000 0.009781
# 5 0.001621 -0.001404 -0.005355 0.000000 0.030463 0.000000
# 6 0.000000 0.000000 0.000000 0.009781 0.000000 0.055934
#
#
# Mechanical properties :
#
#
# Convention : Reuss Voigt Hill
#
# Bulk Modulus (GPa) = 35.01476 38.79455 36.90466
# Shear Modulus (GPa) = 31.47815 39.02417 35.25116
#
# Velocity S-wave (km/s) = 3.47226 3.86611 3.67447
# Velocity P-wave (km/s) = 5.43016 5.89813 5.66897
#
# Compressibility (1/GPa) = 0.02855938
#
# Stress axis : x y z
#
# Youngs Moduli (GPa) = 134.50842 65.02039 89.77500
#
# Poissons Ratio (x) = 0.07651 0.04227
# Poissons Ratio (y) = 0.15828 0.09421
# Poissons Ratio (z) = 0.06333 0.06823
#
# Static dielectric constant tensor:
#      x y z
#    x 2.116440 0.000000 -0.046640 
#    y 0.000000 2.146090 0.000000 
#    z -0.046640 0.000000 2.097780 
# 
# From -- ./inp_files/58027.got.cif
#   From: 2010.05.17/outbox.cif.g08.bks.cpg/sg15_30_cif.got.tgz:58027.got - 2010.06.03 18:47:42.
