data_PCOD9272037
_publ_section_title
;
Structure prediction by ZEFSAII (Michael W. Deem and Ramdas Pophale) SiO2 
 PCOD9272037
Probable space group: C 2/C
;
_chemical_formula_sum "Si O2"
_cell_formula_units_Z 56
_cell_length_a 10.814606
_cell_length_b 12.929596
_cell_length_c 24.080194
_cell_angle_alpha 90.000000
_cell_angle_beta 62.716887
_cell_angle_gamma 90.000000
_cell_volume 2992.515523
_symmetry_space_group_name_H-M "C 2/C"
_symmetry_group_IT_number 15
_symmetry_cell_setting 'monoclinic'
loop_
_space_group_symop_operation_xyz
x,y,z
-x,y,1/2-z
-x,-y,-z
x,-y,1/2+z
1/2+x,1/2+y,z
1/2-x,1/2+y,1/2-z
1/2-x,1/2-y,-z
1/2+x,1/2-y,1/2+z
loop_
_atom_site_type_symbol
_atom_site_label
_atom_site_fract_x
_atom_site_fract_y
_atom_site_fract_z
Si Si1 0.223155 0.877084 0.182630
Si Si2 0.637825 0.351931 0.856996
Si Si3 0.304622 0.120947 0.429555
Si Si4 0.067204 0.942709 0.317304
Si Si5 0.023097 0.532193 0.931241
Si Si6 0.412340 0.256140 0.974334
Si Si7 0.944297 0.827935 0.443187
O O1 0.289360 0.760611 0.168710
O O2 0.191826 0.900545 0.253507
O O3 0.326750 0.953546 0.127738
O O4 0.075391 0.902925 0.183123
O O5 0.740965 0.397472 0.882435
O O6 0.601710 0.435108 0.817059
O O7 0.491471 0.336316 0.918810
O O8 0.180406 0.109904 0.500480
O O9 0.364385 0.237429 0.425488
O O10 0.429535 0.044971 0.415706
O O11 0.043116 0.894815 0.383445
O O12 0.965729 0.646854 0.942660
O O13 0.000000 0.500000 0.000000
O O14 0.250000 0.250000 0.000000
O O15 0.466471 0.276789 0.025540
#
# Coordination Sequence:
#
# PCOD9272037 Si02
#       7
#     8   8   8   8   8   8   8
#     4  10  24  45  61  93 125 164 215 261 317 392
#     4  10  23  42  63  91 126 161 217 262 306 393
#     4  10  20  36  63  92 120 161 212 263 309 375
#     4  11  23  41  70  86 125 176 208 256 327 387
#     4  11  21  37  63  89 123 160 207 264 322 373
#     4  10  23  36  57  95 130 159 205 271 319 372
#     4  10  20  37  60  92 122 166 212 254 317 387
#
# _framework density 18.713353999999999
#
# number of rings (size 3 to 8) (size 9 to 14) (size 15 to 20)
#    0.000    1.714    2.857    0.857    6.000    2.286 
#    0.000    0.000    0.000    0.000    0.000    0.000 
#    0.000    0.000    0.000    0.000    0.000    0.000 
#
# Total GULP energy -155881.909870 kJ/mol
# GULP energy per Si atom -5567.211067 kJ/mol
# Density = 1.867076 g / cm^3
# Si number density = 18.713354 Si / 1000 Ang^3
#
#
#
# Elastic Constant Matrix: (Units=GPa)
#
#
# Indices 1 2 3 4 5 6 
#
# 1 72.2463 21.0563 29.6741 0.0000 -24.1408 0.0000
# 2 21.0563 67.9366 36.1734 0.0000 -4.6451 0.0000
# 3 29.6741 36.1734 91.7467 0.0000 -25.6992 0.0000
# 4 0.0000 0.0000 0.0000 24.7525 0.0000 1.6519
# 5 -24.1408 -4.6451 -25.6992 0.0000 19.7093 0.0000
# 6 0.0000 0.0000 0.0000 1.6519 0.0000 13.0646
#
#
#
# Elastic Compliance Matrix: (Units=1/GPa)
#
#
# Indices 1 2 3 4 5 6 
#
# 1 0.026710 -0.008492 0.005218 0.000000 0.037518 0.000000
# 2 -0.008492 0.022205 -0.011746 0.000000 -0.020484 0.000000
# 3 0.005218 -0.011746 0.023407 0.000000 0.034144 0.000000
# 4 0.000000 0.000000 0.000000 0.040744 0.000000 -0.005152
# 5 0.037518 -0.020484 0.034144 0.000000 0.136385 0.000000
# 6 0.000000 0.000000 0.000000 -0.005152 0.000000 0.077194
#
#
# Mechanical properties :
#
#
# Convention : Reuss Voigt Hill
#
# Bulk Modulus (GPa) = 23.65002 45.08193 34.36597
# Shear Modulus (GPa) = 13.48513 21.17365 17.32939
#
# Velocity S-wave (km/s) = 2.68734 3.36739 3.04640
# Velocity P-wave (km/s) = 4.72171 6.26595 5.54782
#
# Compressibility (1/GPa) = 0.04228327
#
# Stress axis : x y z
#
# Youngs Moduli (GPa) = 37.43963 45.03425 42.72212
#
# Poissons Ratio (x) = 0.38242 -0.22295
# Poissons Ratio (y) = 0.31793 0.50182
# Poissons Ratio (z) = -0.19538 0.52898
#
# Static dielectric constant tensor:
#      x y z
#    x 1.666620 0.000000 -0.001180 
#    y 0.000000 1.682880 0.000000 
#    z -0.001180 0.000000 1.695660 
# 
# From -- ./inp_files/268731.got.cif
#   From: 2010.05.17/outbox.cif.g08.bks.cpg/sg15_135_cif.got.tgz:268731.got - 2010.06.03 18:47:42.
