data_PCOD9272391
_publ_section_title
;
Structure prediction by ZEFSAII (Michael W. Deem and Ramdas Pophale) SiO2 
 PCOD9272391
Probable space group: C 2/C
;
_chemical_formula_sum "Si O2"
_cell_formula_units_Z 48
_cell_length_a 5.109083
_cell_length_b 23.804866
_cell_length_c 26.200247
_cell_angle_alpha 90.000000
_cell_angle_beta 57.517153
_cell_angle_gamma 90.000000
_cell_volume 2687.980288
_symmetry_space_group_name_H-M "C 2/C"
_symmetry_group_IT_number 15
_symmetry_cell_setting 'monoclinic'
loop_
_space_group_symop_operation_xyz
x,y,z
-x,y,1/2-z
-x,-y,-z
x,-y,1/2+z
1/2+x,1/2+y,z
1/2-x,1/2+y,1/2-z
1/2-x,1/2-y,-z
1/2+x,1/2-y,1/2+z
loop_
_atom_site_type_symbol
_atom_site_label
_atom_site_fract_x
_atom_site_fract_y
_atom_site_fract_z
Si Si1 0.630565 0.227084 0.292470
Si Si2 0.127662 0.146469 0.792977
Si Si3 0.071076 0.062955 0.381788
Si Si4 0.725306 0.110561 0.320649
Si Si5 0.143409 0.933327 0.092199
Si Si6 0.384436 0.564524 0.512685
O O1 0.500000 0.212990 0.250000
O O2 0.520517 0.289629 0.317811
O O3 0.582776 0.173548 0.333449
O O4 0.000000 0.232550 0.250000
O O5 0.500000 0.143967 0.750000
O O6 0.000000 0.133888 0.750000
O O7 0.999700 0.103826 0.848043
O O8 0.439685 0.070126 0.336634
O O9 0.878551 0.094509 0.358228
O O10 0.989038 0.086694 0.446613
O O11 0.974740 0.997533 0.390209
O O12 0.000000 0.107570 0.250000
O O13 0.514728 0.933882 0.055566
O O14 0.035304 0.910883 0.048047
O O15 0.500000 0.500000 0.500000
#
# Coordination Sequence:
#
# PCOD9272391 Si02
#       6
#     8   8   8   8   8   8
#     4   9  18  35  54  73 102 142 181 206 244 317
#     4  10  21  36  56  81 107 138 174 216 265 312
#     4  11  21  34  54  79 107 139 174 216 261 310
#     4  11  21  34  53  80 109 138 170 213 267 314
#     4  11  21  36  56  79 107 139 176 218 261 308
#     4  10  20  37  55  74 103 145 187 209 244 313
#
# _framework density 17.857272999999999
#
# number of rings (size 3 to 8) (size 9 to 14) (size 15 to 20)
#    0.000    1.667    0.000    8.500    0.000    2.000 
#    0.000    0.000    0.000    6.000    0.000    0.000 
#    0.000    0.000    0.000    0.000    0.000    0.000 
#
# Total GULP energy -133886.822468 kJ/mol
# GULP energy per Si atom -5578.617603 kJ/mol
# Density = 1.781663 g / cm^3
# Si number density = 17.857273 Si / 1000 Ang^3
#
#
#
# Elastic Constant Matrix: (Units=GPa)
#
#
# Indices 1 2 3 4 5 6 
#
# 1 159.3171 35.1986 50.4115 0.0000 16.3385 0.0000
# 2 35.1986 60.4865 53.4298 0.0000 18.5323 0.0000
# 3 50.4115 53.4298 82.7756 0.0000 15.8721 0.0000
# 4 0.0000 0.0000 0.0000 -15.4440 0.0000 -30.3856
# 5 16.3385 18.5323 15.8721 0.0000 45.7816 0.0000
# 6 0.0000 0.0000 0.0000 -30.3856 0.0000 -91.8951
#
#
#
# Elastic Compliance Matrix: (Units=1/GPa)
#
#
# Indices 1 2 3 4 5 6 
#
# 1 0.007843 -0.000439 -0.004275 0.000000 -0.001139 0.000000
# 2 -0.000439 0.041022 -0.024699 0.000000 -0.007886 0.000000
# 3 -0.004275 -0.024699 0.030441 0.000000 0.000970 0.000000
# 4 0.000000 0.000000 0.000000 -0.185294 0.000000 0.061269
# 5 -0.001139 -0.007886 0.000970 0.000000 0.025105 0.000000
# 6 0.000000 0.000000 0.000000 0.061269 0.000000 -0.031141
#
#
# Mechanical properties :
#
#
# Convention : Reuss Voigt Hill
#
# Bulk Modulus (GPa) = 48.82794 64.51766 56.67280
# Shear Modulus (GPa) = -107.82519 -1.40887 -54.61703
#
# Velocity S-wave (km/s) = -7.77899 -0.88920 -5.53640
# Velocity P-wave (km/s) = 7.29937 5.92907 3.01057
#
# Compressibility (1/GPa) = 0.02048008
#
# Stress axis : x y z
#
# Youngs Moduli (GPa) = 127.49773 24.37730 32.85046
#
# Poissons Ratio (x) = 0.01070 0.14043
# Poissons Ratio (y) = 0.05598 0.81138
# Poissons Ratio (z) = 0.54503 0.60210
#
# Static dielectric constant tensor:
#      x y z
#    x 1.646130 0.000000 0.015470 
#    y 0.000000 1.638700 0.000000 
#    z 0.015470 0.000000 1.601570 
# 
# From -- ./inp_files/286575.got.cif
#   From: 2010.05.17/outbox.cif.g08.bks.cpg/sg15_144_cif.got.tgz:286575.got - 2010.06.03 18:47:42.
