data_PCOD9272001
_publ_section_title
;
Structure prediction by ZEFSAII (Michael W. Deem and Ramdas Pophale) SiO2 
 PCOD9272001
Probable space group: C 2/C
;
_chemical_formula_sum "Si O2"
_cell_formula_units_Z 60
_cell_length_a 16.593220
_cell_length_b 8.803654
_cell_length_c 19.784361
_cell_angle_alpha 90.000000
_cell_angle_beta 72.817383
_cell_angle_gamma 90.000000
_cell_volume 2761.126921
_symmetry_space_group_name_H-M "C 2/C"
_symmetry_group_IT_number 15
_symmetry_cell_setting 'monoclinic'
loop_
_space_group_symop_operation_xyz
x,y,z
-x,y,1/2-z
-x,-y,-z
x,-y,1/2+z
1/2+x,1/2+y,z
1/2-x,1/2+y,1/2-z
1/2-x,1/2-y,-z
1/2+x,1/2-y,1/2+z
loop_
_atom_site_type_symbol
_atom_site_label
_atom_site_fract_x
_atom_site_fract_y
_atom_site_fract_z
Si Si1 0.921462 0.074930 0.427267
Si Si2 0.235662 0.570663 0.491356
Si Si3 0.049687 0.574420 0.552529
Si Si4 0.304974 0.115803 0.151755
Si Si5 0.083595 0.574574 0.796223
Si Si6 0.440479 0.629635 0.654260
Si Si7 0.500000 0.829911 0.750000
Si Si8 0.381549 0.618413 0.276450
O O1 0.831528 0.009586 0.477619
O O2 0.940292 0.241181 0.454266
O O3 0.906776 0.093593 0.348766
O O4 0.004062 0.968814 0.411200
O O5 0.250000 0.750000 0.500000
O O6 0.146064 0.519432 0.545413
O O7 0.209937 0.561224 0.419919
O O8 0.000000 0.500000 0.500000
O O9 0.989742 0.547376 0.631113
O O10 0.373291 0.251301 0.140479
O O11 0.215401 0.168085 0.200094
O O12 0.332366 0.966894 0.185573
O O13 0.076927 0.444415 0.741546
O O14 0.074463 0.738634 0.768582
O O15 0.505522 0.728005 0.682727
O O16 0.397762 0.522532 0.722226
#
# Coordination Sequence:
#
# PCOD9272001 Si02
#       8
#     8   8   8   8   8   8   4   8
#     4  10  20  36  63  86 116 160 204 245 304 373
#     4   9  20  38  58  84 110 162 205 244 286 355
#     4  11  20  36  59  85 117 160 214 244 283 359
#     4  10  22  36  57  92 125 152 197 259 306 351
#     4  11  21  35  59  88 121 156 206 242 307 357
#     4  11  20  37  60  93 125 152 193 252 318 364
#     4  10  22  34  56  92 122 152 186 260 310 356
#     4  11  20  37  62  91 117 163 202 244 310 379
#
# _framework density 21.730257000000002
#
# number of rings (size 3 to 8) (size 9 to 14) (size 15 to 20)
#    0.000    1.600    4.000    1.600    0.000    0.000 
#    0.000    2.667    0.000    3.200    0.000    0.000 
#    0.000    0.000    0.000    0.000    0.000    0.000 
#
# Total GULP energy -167179.433248 kJ/mol
# GULP energy per Si atom -5572.647775 kJ/mol
# Density = 2.168080 g / cm^3
# Si number density = 21.730257 Si / 1000 Ang^3
#
#
#
# Elastic Constant Matrix: (Units=GPa)
#
#
# Indices 1 2 3 4 5 6 
#
# 1 110.4941 15.6411 18.2666 0.0000 -23.9806 0.0000
# 2 15.6411 65.8262 5.1576 0.0000 -3.2232 0.0000
# 3 18.2666 5.1576 50.0578 0.0000 -18.1484 0.0000
# 4 0.0000 0.0000 0.0000 7.9413 0.0000 9.6756
# 5 -23.9806 -3.2232 -18.1484 0.0000 36.8625 0.0000
# 6 0.0000 0.0000 0.0000 9.6756 0.0000 8.5308
#
#
#
# Elastic Compliance Matrix: (Units=1/GPa)
#
#
# Indices 1 2 3 4 5 6 
#
# 1 0.010954 -0.002180 -0.001531 0.000000 0.006181 0.000000
# 2 -0.002180 0.015763 -0.001026 0.000000 -0.000545 0.000000
# 3 -0.001531 -0.001026 0.024647 0.000000 0.011048 0.000000
# 4 0.000000 0.000000 0.000000 -0.329727 0.000000 0.373976
# 5 0.006181 -0.000545 0.011048 0.000000 0.036541 0.000000
# 6 0.000000 0.000000 0.000000 0.373976 0.000000 -0.306941
#
#
# Mechanical properties :
#
#
# Convention : Reuss Voigt Hill
#
# Bulk Modulus (GPa) = 23.87301 33.83429 28.85365
# Shear Modulus (GPa) = -9.51792 23.15443 6.81826
#
# Velocity S-wave (km/s) = -2.09512 3.26780 1.77327
# Velocity P-wave (km/s) = 2.27095 5.46278 4.18325
#
# Compressibility (1/GPa) = 0.04188831
#
# Stress axis : x y z
#
# Youngs Moduli (GPa) = 91.29474 63.43874 40.57278
#
# Poissons Ratio (x) = 0.13830 0.06214
# Poissons Ratio (y) = 0.19903 0.04164
# Poissons Ratio (z) = 0.13982 0.06510
#
# Static dielectric constant tensor:
#      x y z
#    x 1.927400 0.000000 -0.034080 
#    y 0.000000 1.787550 0.000000 
#    z -0.034080 0.000000 1.858040 
# 
# From -- ./inp_files/247407.got.cif
#   From: 2010.05.17/outbox.cif.g08.bks.cpg/sg15_124_cif.got.tgz:247407.got - 2010.06.03 18:47:42.
