data_PCOD9272500
_publ_section_title
;
Structure prediction by ZEFSAII (Michael W. Deem and Ramdas Pophale) SiO2 
 PCOD9272500
Probable space group: C 2/C
;
_chemical_formula_sum "Si O2"
_cell_formula_units_Z 60
_cell_length_a 21.073373
_cell_length_b 13.290346
_cell_length_c 11.331310
_cell_angle_alpha 90.000000
_cell_angle_beta 121.332175
_cell_angle_gamma 90.000000
_cell_volume 2710.773482
_symmetry_space_group_name_H-M "C 2/C"
_symmetry_group_IT_number 15
_symmetry_cell_setting 'monoclinic'
loop_
_space_group_symop_operation_xyz
x,y,z
-x,y,1/2-z
-x,-y,-z
x,-y,1/2+z
1/2+x,1/2+y,z
1/2-x,1/2+y,1/2-z
1/2-x,1/2-y,-z
1/2+x,1/2-y,1/2+z
loop_
_atom_site_type_symbol
_atom_site_label
_atom_site_fract_x
_atom_site_fract_y
_atom_site_fract_z
Si Si1 0.612913 0.587500 0.609771
Si Si2 0.150192 0.817499 0.914811
Si Si3 0.559352 0.624278 0.124825
Si Si4 0.131392 0.291674 0.747634
Si Si5 0.000000 0.418540 0.250000
Si Si6 0.706984 0.868656 0.591071
Si Si7 0.371151 0.940772 0.551306
Si Si8 0.471938 0.168996 0.977214
O O1 0.661513 0.614985 0.542220
O O2 0.527229 0.605680 0.486648
O O3 0.609849 0.471589 0.642075
O O4 0.633371 0.670481 0.729215
O O5 0.077005 0.850702 0.776744
O O6 0.214319 0.831882 0.880595
O O7 0.151357 0.703441 0.961632
O O8 0.573160 0.726408 0.066454
O O9 0.186664 0.342069 0.705453
O O10 0.146170 0.341990 0.888353
O O11 0.047057 0.320029 0.626115
O O12 0.928175 0.490729 0.180511
O O13 0.995011 0.356994 0.366571
O O14 0.694880 0.985131 0.549443
O O15 0.418230 0.912853 0.481199
#
# Coordination Sequence:
#
# PCOD9272500 Si02
#       8
#     8   8   8   8   4   8   8   8
#     4   9  21  38  60  88 110 149 204 247 300 343
#     4  10  21  40  59  79 117 155 202 249 277 349
#     4  10  21  37  61  86 109 150 198 254 294 340
#     4  10  20  37  57  86 125 153 190 242 297 358
#     4  12  20  32  56  82 126 156 176 236 288 354
#     4  10  22  37  57  86 114 161 203 226 290 363
#     4  12  21  35  56  89 126 158 179 240 302 359
#     4  11  22  34  58  91 119 149 198 240 297 357
#
# _framework density 22.133904000000001
#
# number of rings (size 3 to 8) (size 9 to 14) (size 15 to 20)
#    0.000    1.600    2.667    2.400    3.733    2.133 
#    0.000    6.667    0.000    2.400    0.000    0.000 
#    0.000    0.000    0.000    0.000    0.000    0.000 
#
# Total GULP energy -167510.322470 kJ/mol
# GULP energy per Si atom -5583.677416 kJ/mol
# Density = 2.208353 g / cm^3
# Si number density = 22.133904 Si / 1000 Ang^3
#
#
#
# Elastic Constant Matrix: (Units=GPa)
#
#
# Indices 1 2 3 4 5 6 
#
# 1 78.5810 24.7057 11.6759 0.0000 -25.2633 0.0000
# 2 24.7057 108.4690 24.4130 0.0000 -14.1675 0.0000
# 3 11.6759 24.4130 39.9854 0.0000 -18.7678 0.0000
# 4 0.0000 0.0000 0.0000 21.7534 0.0000 3.3083
# 5 -25.2633 -14.1675 -18.7678 0.0000 19.7349 0.0000
# 6 0.0000 0.0000 0.0000 3.3083 0.0000 15.4438
#
#
#
# Elastic Compliance Matrix: (Units=1/GPa)
#
#
# Indices 1 2 3 4 5 6 
#
# 1 0.026580 -0.003626 0.016619 0.000000 0.047227 0.000000
# 2 -0.003626 0.011260 -0.007587 0.000000 -0.003774 0.000000
# 3 0.016619 -0.007587 0.058193 0.000000 0.071170 0.000000
# 4 0.000000 0.000000 0.000000 0.047518 0.000000 -0.010179
# 5 0.047227 -0.003774 0.071170 0.000000 0.176102 0.000000
# 6 0.000000 0.000000 0.000000 -0.010179 0.000000 0.066931
#
#
# Mechanical properties :
#
#
# Convention : Reuss Voigt Hill
#
# Bulk Modulus (GPa) = 9.35933 38.73606 24.04769
# Shear Modulus (GPa) = 12.15403 22.46914 17.31158
#
# Velocity S-wave (km/s) = 2.34586 3.18959 2.79969
# Velocity P-wave (km/s) = 3.40222 5.57705 4.61944
#
# Compressibility (1/GPa) = 0.10684523
#
# Stress axis : x y z
#
# Youngs Moduli (GPa) = 37.62282 88.81139 17.18416
#
# Poissons Ratio (x) = 0.32202 -0.28559
# Poissons Ratio (y) = 0.13642 0.13038
# Poissons Ratio (z) = -0.62527 0.67382
#
# Static dielectric constant tensor:
#      x y z
#    x 1.794250 0.000000 0.033960 
#    y 0.000000 1.847720 0.000000 
#    z 0.033960 0.000000 1.834490 
# 
# From -- ./inp_files/117632.got.cif
#   From: 2010.05.17/outbox.cif.g08.bks.cpg/sg15_59_cif.got.tgz:117632.got - 2010.06.03 18:47:42.
