data_PCOD9272371
_publ_section_title
;
Structure prediction by ZEFSAII (Michael W. Deem and Ramdas Pophale) SiO2 
 PCOD9272371
Probable space group: C 2/C
;
_chemical_formula_sum "Si O2"
_cell_formula_units_Z 52
_cell_length_a 27.684820
_cell_length_b 17.543683
_cell_length_c 24.427106
_cell_angle_alpha 90.000000
_cell_angle_beta 164.664093
_cell_angle_gamma 90.000000
_cell_volume 3137.785081
_symmetry_space_group_name_H-M "C 2/C"
_symmetry_group_IT_number 15
_symmetry_cell_setting 'monoclinic'
loop_
_space_group_symop_operation_xyz
x,y,z
-x,y,1/2-z
-x,-y,-z
x,-y,1/2+z
1/2+x,1/2+y,z
1/2-x,1/2+y,1/2-z
1/2-x,1/2-y,-z
1/2+x,1/2-y,1/2+z
loop_
_atom_site_type_symbol
_atom_site_label
_atom_site_fract_x
_atom_site_fract_y
_atom_site_fract_z
Si Si1 0.135914 0.985783 0.698650
Si Si2 0.706452 0.178853 0.113450
Si Si3 0.709732 0.171736 0.987625
Si Si4 0.511505 0.060802 0.463250
Si Si5 0.652334 0.506667 0.527915
Si Si6 0.847869 0.343333 0.289032
Si Si7 0.000000 0.941055 0.750000
O O1 0.178735 0.895663 0.744994
O O2 0.030625 0.010641 0.638140
O O3 0.000000 0.000000 0.500000
O O4 0.322821 0.032110 0.893473
O O5 0.758104 0.260626 0.194325
O O6 0.727988 0.185445 0.072004
O O7 0.504318 0.161127 0.913942
O O8 0.500000 0.147528 0.750000
O O9 0.750000 0.250000 0.000000
O O10 0.853651 0.111268 0.122044
O O11 0.566301 0.135048 0.558045
O O12 0.500000 0.000000 0.500000
O O13 0.316958 0.052022 0.220889
O O14 0.716935 0.588835 0.624063
O O15 0.606538 0.514015 0.414039
#
# Coordination Sequence:
#
# PCOD9272371 Si02
#       7
#     8   8   8   8   8   8   4
#     4  12  20  36  58  77 104 148 185 228 280 324
#     4  12  22  35  52  79 107 151 187 224 270 316
#     4  12  24  36  48  72 112 153 192 221 256 310
#     4  10  20  37  54  75 103 144 182 234 277 320
#     4  11  21  38  53  78 108 144 192 223 276 317
#     4  11  22  35  53  78 110 144 187 230 271 321
#     4  12  24  34  54  78 106 154 188 230 254 328
#
# _framework density 16.572199000000001
#
# number of rings (size 3 to 8) (size 9 to 14) (size 15 to 20)
#    0.000    0.615    8.462    3.692    0.000    0.000 
#    0.000    0.000    0.000    0.000    0.000    0.000 
#    0.000    4.923    0.000    0.154    0.000    0.000 
#
# Total GULP energy -145125.610142 kJ/mol
# GULP energy per Si atom -5581.754236 kJ/mol
# Density = 1.653448 g / cm^3
# Si number density = 16.572199 Si / 1000 Ang^3
#
#
#
# Elastic Constant Matrix: (Units=GPa)
#
#
# Indices 1 2 3 4 5 6 
#
# 1 106.1647 32.7803 44.0219 -0.0091 8.6239 0.0031
# 2 32.7803 30.9657 5.5438 0.0043 -3.0587 0.0049
# 3 44.0219 5.5438 64.9889 0.0014 11.1467 -0.0097
# 4 -0.0091 0.0043 0.0014 21.6501 -0.0232 -9.9817
# 5 8.6239 -3.0587 11.1467 -0.0232 41.8541 -0.0230
# 6 0.0031 0.0049 -0.0097 -9.9817 -0.0230 -0.1443
#
#
#
# Elastic Compliance Matrix: (Units=1/GPa)
#
#
# Indices 1 2 3 4 5 6 
#
# 1 0.020785 -0.020124 -0.011921 0.000014 -0.002579 0.000007
# 2 -0.020124 0.052717 0.008134 -0.000002 0.005833 0.000024
# 3 -0.011921 0.008134 0.023310 -0.000015 -0.003157 -0.000008
# 4 0.000014 -0.000002 -0.000015 0.001404 -0.000052 -0.097137
# 5 -0.002579 0.005833 -0.003157 -0.000052 0.025691 -0.000167
# 6 0.000007 0.000024 -0.000008 -0.097137 -0.000167 -0.210689
#
#
# Mechanical properties :
#
#
# Convention : Reuss Voigt Hill
#
# Bulk Modulus (GPa) = 20.41190 40.75682 30.58436
# Shear Modulus (GPa) = -220.94155 20.65688 -100.14233
#
# Velocity S-wave (km/s) = -11.55898 3.53438 -7.78197
# Velocity P-wave (km/s) = 12.87645 6.42672 7.88988
#
# Compressibility (1/GPa) = 0.04899102
#
# Stress axis : x y z
#
# Youngs Moduli (GPa) = 48.11075 18.96927 42.90079
#
# Poissons Ratio (x) = 0.38174 0.51140
# Poissons Ratio (y) = 0.96818 -0.34896
# Poissons Ratio (z) = 0.57351 -0.15430
#
# Static dielectric constant tensor:
#      x y z
#    x 1.572400 -0.000020 -0.004180 
#    y -0.000020 1.575480 -0.000010 
#    z -0.004180 -0.000010 1.621010 
# 
# From -- ./inp_files/255869.got.cif
#   From: 2010.05.17/outbox.cif.g08.bks.cpg/sg15_128_cif.got.tgz:255869.got - 2010.06.03 18:47:42.
