data_PCOD9272250
_publ_section_title
;
Structure prediction by ZEFSAII (Michael W. Deem and Ramdas Pophale) SiO2 
 PCOD9272250
Probable space group: C 2/C
;
_chemical_formula_sum "Si O2"
_cell_formula_units_Z 44
_cell_length_a 9.286023
_cell_length_b 8.369071
_cell_length_c 22.474931
_cell_angle_alpha 90.000000
_cell_angle_beta 105.978706
_cell_angle_gamma 90.000000
_cell_volume 1679.164567
_symmetry_space_group_name_H-M "C 2/C"
_symmetry_group_IT_number 15
_symmetry_cell_setting 'monoclinic'
loop_
_space_group_symop_operation_xyz
x,y,z
-x,y,1/2-z
-x,-y,-z
x,-y,1/2+z
1/2+x,1/2+y,z
1/2-x,1/2+y,1/2-z
1/2-x,1/2-y,-z
1/2+x,1/2-y,1/2+z
loop_
_atom_site_type_symbol
_atom_site_label
_atom_site_fract_x
_atom_site_fract_y
_atom_site_fract_z
Si Si1 0.500000 0.059287 0.750000
Si Si2 0.649247 0.022215 0.629436
Si Si3 0.423920 0.760740 0.960091
Si Si4 0.703514 0.775077 0.738039
Si Si5 0.544774 0.401468 0.357663
Si Si6 0.585658 0.243227 0.908015
O O1 0.366971 0.191103 0.755170
O O2 0.630587 0.911169 0.773619
O O3 0.496160 0.099265 0.634543
O O4 0.787413 0.142040 0.644713
O O5 0.610814 0.943955 0.561723
O O6 0.698214 0.881068 0.677156
O O7 0.518128 0.685157 0.917754
O O8 0.255934 0.690851 0.937076
O O9 0.481493 0.738426 0.033005
O O10 0.581090 0.640386 0.704405
O O11 0.556966 0.589387 0.373421
#
# Coordination Sequence:
#
# PCOD9272250 Si02
#       6
#     4   8   8   8   8   8
#     4  12  32  54  84 110 150 186 252 314 388 470
#     4  10  23  39  66  96 141 185 239 303 364 444
#     4   9  20  38  56 101 138 194 241 291 359 425
#     4  11  30  49  77 109 142 189 240 314 387 457
#     4  10  23  39  65 100 139 185 237 301 364 444
#     4  10  20  36  66  92 147 187 243 294 355 434
#
# _framework density 26.203505
#
# number of rings (size 3 to 8) (size 9 to 14) (size 15 to 20)
#    0.000    1.818    0.000    1.091   15.273    2.182 
#    0.000    0.000    0.000    0.000    0.000    0.000 
#    0.000    0.000    0.000    0.000    0.000    0.000 
#
# Total GULP energy -122483.947702 kJ/mol
# GULP energy per Si atom -5567.452168 kJ/mol
# Density = 2.614387 g / cm^3
# Si number density = 26.203505 Si / 1000 Ang^3
#
#
#
# Elastic Constant Matrix: (Units=GPa)
#
#
# Indices 1 2 3 4 5 6 
#
# 1 157.1888 63.6461 29.4387 0.0000 3.2990 0.0000
# 2 63.6461 115.8261 38.0135 0.0000 21.6631 0.0000
# 3 29.4387 38.0135 79.0934 0.0000 16.0891 0.0000
# 4 0.0000 0.0000 0.0000 -3.6923 0.0000 -8.3293
# 5 3.2990 21.6631 16.0891 0.0000 34.7738 0.0000
# 6 0.0000 0.0000 0.0000 -8.3293 0.0000 47.6752
#
#
#
# Elastic Compliance Matrix: (Units=1/GPa)
#
#
# Indices 1 2 3 4 5 6 
#
# 1 0.008482 -0.004704 -0.001467 0.000000 0.002804 0.000000
# 2 -0.004704 0.013550 -0.003461 0.000000 -0.006394 0.000000
# 3 -0.001467 -0.003461 0.015880 0.000000 -0.005052 0.000000
# 4 0.000000 0.000000 0.000000 -0.194269 0.000000 -0.033941
# 5 0.002804 -0.006394 -0.005052 0.000000 0.034812 0.000000
# 6 0.000000 0.000000 0.000000 -0.033941 0.000000 0.015045
#
#
# Mechanical properties :
#
#
# Convention : Reuss Voigt Hill
#
# Bulk Modulus (GPa) = 53.62147 68.25611 60.93879
# Shear Modulus (GPa) = -61.71413 30.48534 -15.61439
#
# Velocity S-wave (km/s) = -4.85829 3.41458 -2.44373
# Velocity P-wave (km/s) = 3.31101 6.45374 3.91714
#
# Compressibility (1/GPa) = 0.01864925
#
# Stress axis : x y z
#
# Youngs Moduli (GPa) = 117.89196 73.79929 62.97113
#
# Poissons Ratio (x) = 0.34716 0.09236
# Poissons Ratio (y) = 0.55458 0.21794
# Poissons Ratio (z) = 0.17292 0.25541
#
# Static dielectric constant tensor:
#      x y z
#    x 2.593650 0.000000 -0.759120 
#    y 0.000000 2.080540 0.000000 
#    z -0.759120 0.000000 3.221940 
# 
# From -- ./inp_files/306449.got.cif
#   From: 2010.05.17/outbox.cif.g08.bks.cpg/sg15_154_cif.got.tgz:306449.got - 2010.06.03 18:47:42.
