data_PCOD9272215
_publ_section_title
;
Structure prediction by ZEFSAII (Michael W. Deem and Ramdas Pophale) SiO2 
 PCOD9272215
Probable space group: C 2/C
;
_chemical_formula_sum "Si O2"
_cell_formula_units_Z 52
_cell_length_a 11.297479
_cell_length_b 27.277252
_cell_length_c 9.683651
_cell_angle_alpha 90.000000
_cell_angle_beta 57.836161
_cell_angle_gamma 90.000000
_cell_volume 2526.174156
_symmetry_space_group_name_H-M "C 2/C"
_symmetry_group_IT_number 15
_symmetry_cell_setting 'monoclinic'
loop_
_space_group_symop_operation_xyz
x,y,z
-x,y,1/2-z
-x,-y,-z
x,-y,1/2+z
1/2+x,1/2+y,z
1/2-x,1/2+y,1/2-z
1/2-x,1/2-y,-z
1/2+x,1/2-y,1/2+z
loop_
_atom_site_type_symbol
_atom_site_label
_atom_site_fract_x
_atom_site_fract_y
_atom_site_fract_z
Si Si1 0.000000 0.814244 0.250000
Si Si2 0.290436 0.147633 0.162382
Si Si3 0.737988 0.252371 0.174504
Si Si4 0.692076 0.397230 0.440400
Si Si5 0.101568 0.996011 0.567179
Si Si6 0.424183 0.840340 0.150547
Si Si7 0.882086 0.103233 0.999573
O O1 0.089334 0.779369 0.293875
O O2 0.891652 0.850333 0.392811
O O3 0.258543 0.201135 0.246979
O O4 0.232826 0.110148 0.311691
O O5 0.214208 0.135774 0.063839
O O6 0.455761 0.143854 0.030427
O O7 0.856818 0.289125 0.150401
O O8 0.750000 0.250000 0.000000
O O9 0.714437 0.454131 0.468869
O O10 0.800952 0.378886 0.258270
O O11 0.534993 0.395067 0.478297
O O12 0.143841 0.052357 0.564588
O O13 0.000000 0.977766 0.750000
O O14 0.000000 0.000000 0.500000
O O15 0.500000 0.834153 0.250000
#
# Coordination Sequence:
#
# PCOD9272215 Si02
#       7
#     4   8   8   8   8   8   8
#     4  12  22  40  62  94 126 170 216 276 318 386
#     4  11  24  40  63  94 130 173 220 270 333 394
#     4  12  24  42  64  90 130 173 225 270 330 395
#     4  10  21  41  64  92 130 170 217 277 324 395
#     4  10  20  36  65  99 127 167 221 278 332 386
#     4  10  24  42  63  92 133 176 214 272 337 399
#     4  11  21  39  65  96 129 168 220 271 330 384
#
# _framework density 20.584488
#
# number of rings (size 3 to 8) (size 9 to 14) (size 15 to 20)
#    0.000    1.231    3.846    3.231    0.000    3.692 
#    0.000    0.769    0.000    5.538    0.000    0.000 
#    0.000    0.000    0.000    0.000    0.000    0.000 
#
# Total GULP energy -145167.817736 kJ/mol
# GULP energy per Si atom -5583.377605 kJ/mol
# Density = 2.053764 g / cm^3
# Si number density = 20.584488 Si / 1000 Ang^3
#
#
#
# Elastic Constant Matrix: (Units=GPa)
#
#
# Indices 1 2 3 4 5 6 
#
# 1 55.8857 37.6466 24.3507 0.0000 -7.6507 0.0000
# 2 37.6466 135.2165 37.6397 0.0000 -11.6748 0.0000
# 3 24.3507 37.6397 120.9478 0.0000 -26.6953 0.0000
# 4 0.0000 0.0000 0.0000 29.1385 0.0000 7.8305
# 5 -7.6507 -11.6748 -26.6953 0.0000 30.5681 0.0000
# 6 0.0000 0.0000 0.0000 7.8305 0.0000 23.5428
#
#
#
# Elastic Compliance Matrix: (Units=1/GPa)
#
#
# Indices 1 2 3 4 5 6 
#
# 1 0.022948 -0.005550 -0.002593 0.000000 0.001359 0.000000
# 2 -0.005550 0.009469 -0.001657 0.000000 0.000780 0.000000
# 3 -0.002593 -0.001657 0.011177 0.000000 0.008479 0.000000
# 4 0.000000 0.000000 0.000000 0.037687 0.000000 -0.012535
# 5 0.001359 0.000780 0.008479 0.000000 0.040757 0.000000
# 6 0.000000 0.000000 0.000000 -0.012535 0.000000 0.046645
#
#
# Mechanical properties :
#
#
# Convention : Reuss Voigt Hill
#
# Bulk Modulus (GPa) = 41.67639 56.81379 49.24509
# Shear Modulus (GPa) = 25.47335 30.81074 28.14204
#
# Velocity S-wave (km/s) = 3.52163 3.87304 3.70151
# Velocity P-wave (km/s) = 6.06847 6.90368 6.49950
#
# Compressibility (1/GPa) = 0.02399440
#
# Stress axis : x y z
#
# Youngs Moduli (GPa) = 43.57619 105.60226 89.46623
#
# Poissons Ratio (x) = 0.58610 0.23199
# Poissons Ratio (y) = 0.24185 0.14828
# Poissons Ratio (z) = 0.11299 0.17502
#
# Static dielectric constant tensor:
#      x y z
#    x 1.744840 0.000000 0.004290 
#    y 0.000000 1.812130 0.000000 
#    z 0.004290 0.000000 1.766710 
# 
# From -- ./inp_files/34113.got.cif
#   From: 2010.05.17/outbox.cif.g08.bks.cpg/sg15_18_cif.got.tgz:34113.got - 2010.06.03 18:47:42.
