data_PCOD9272618
_publ_section_title
;
Structure prediction by ZEFSAII (Michael W. Deem and Ramdas Pophale) SiO2 
 PCOD9272618
Probable space group: C 2/C
;
_chemical_formula_sum "Si O2"
_cell_formula_units_Z 36
_cell_length_a 5.665994
_cell_length_b 13.607856
_cell_length_c 19.772886
_cell_angle_alpha 90.000000
_cell_angle_beta 102.629075
_cell_angle_gamma 90.000000
_cell_volume 1487.645094
_symmetry_space_group_name_H-M "C 2/C"
_symmetry_group_IT_number 15
_symmetry_cell_setting 'monoclinic'
loop_
_space_group_symop_operation_xyz
x,y,z
-x,y,1/2-z
-x,-y,-z
x,-y,1/2+z
1/2+x,1/2+y,z
1/2-x,1/2+y,1/2-z
1/2-x,1/2-y,-z
1/2+x,1/2-y,1/2+z
loop_
_atom_site_type_symbol
_atom_site_label
_atom_site_fract_x
_atom_site_fract_y
_atom_site_fract_z
Si Si1 0.654191 0.013148 0.617754
Si Si2 0.600730 0.295238 0.428017
Si Si3 0.793981 0.627661 0.150973
Si Si4 0.125425 0.097904 0.478914
Si Si5 0.000000 0.924437 0.750000
O O1 0.413999 0.978453 0.642226
O O2 0.654667 0.939480 0.552628
O O3 0.865883 0.986925 0.684168
O O4 0.733238 0.118750 0.594078
O O5 0.750000 0.250000 0.500000
O O6 0.542595 0.215957 0.366979
O O7 0.364172 0.335080 0.453904
O O8 0.557715 0.638668 0.088878
O O9 0.704568 0.634294 0.221845
O O10 0.000000 0.000000 0.500000
#
# Coordination Sequence:
#
# PCOD9272618 Si02
#       5
#     8   8   8   8   4
#     4  10  20  38  60  83 118 166 192 252 313 356
#     4   9  19  36  59  95 116 145 201 248 303 373
#     4  10  20  37  59  82 116 158 201 245 301 356
#     4   8  17  33  55  86 121 140 187 247 296 365
#     4  10  22  42  52  80 118 156 216 250 286 362
#
# _framework density 24.199318999999999
#
# number of rings (size 3 to 8) (size 9 to 14) (size 15 to 20)
#    0.000    2.667    0.000    0.667    0.000    8.889 
#    8.000   15.556    0.000    0.000    0.000    0.000 
#    0.000    0.000    0.000    0.000    0.000    0.000 
#
# Total GULP energy -100354.951322 kJ/mol
# GULP energy per Si atom -5575.275073 kJ/mol
# Density = 2.414424 g / cm^3
# Si number density = 24.199319 Si / 1000 Ang^3
#
#
#
# Elastic Constant Matrix: (Units=GPa)
#
#
# Indices 1 2 3 4 5 6 
#
# 1 63.1377 16.7204 45.6274 0.0000 -15.1926 0.0000
# 2 16.7204 97.5451 73.6151 0.0000 -20.8862 0.0000
# 3 45.6274 73.6151 156.1352 0.0000 -33.2009 0.0000
# 4 0.0000 0.0000 0.0000 38.5987 0.0000 -3.0089
# 5 -15.1926 -20.8862 -33.2009 0.0000 57.2968 0.0000
# 6 0.0000 0.0000 0.0000 -3.0089 0.0000 18.9499
#
#
#
# Elastic Compliance Matrix: (Units=1/GPa)
#
#
# Indices 1 2 3 4 5 6 
#
# 1 0.020516 0.001767 -0.006312 0.000000 0.002426 0.000000
# 2 0.001767 0.016206 -0.007757 0.000000 0.001881 0.000000
# 3 -0.006312 -0.007757 0.012488 0.000000 0.002735 0.000000
# 4 0.000000 0.000000 0.000000 0.026232 0.000000 0.004165
# 5 0.002426 0.001881 0.002735 0.000000 0.020367 0.000000
# 6 0.000000 0.000000 0.000000 0.004165 0.000000 0.053432
#
#
# Mechanical properties :
#
#
# Convention : Reuss Voigt Hill
#
# Bulk Modulus (GPa) = 40.64306 65.41595 53.02951
# Shear Modulus (GPa) = 27.46527 35.02609 31.24568
#
# Velocity S-wave (km/s) = 3.37257 3.80860 3.59720
# Velocity P-wave (km/s) = 5.65661 6.81406 6.26213
#
# Compressibility (1/GPa) = 0.02460444
#
# Stress axis : x y z
#
# Youngs Moduli (GPa) = 48.74206 61.70707 80.07528
#
# Poissons Ratio (x) = -0.10902 0.50547
# Poissons Ratio (y) = -0.08611 0.62114
# Poissons Ratio (z) = 0.30768 0.47866
#
# Static dielectric constant tensor:
#      x y z
#    x 2.060960 0.000000 -0.039360 
#    y 0.000000 2.042990 0.000000 
#    z -0.039360 0.000000 1.917110 
# 
# From -- ./inp_files/226454.got.cif
#   From: 2010.05.17/outbox.cif.g08.bks.cpg/sg15_114_cif.got.tgz:226454.got - 2010.06.03 18:47:42.
