data_PCOD9272036
_publ_section_title
;
Structure prediction by ZEFSAII (Michael W. Deem and Ramdas Pophale) SiO2 
 PCOD9272036
Probable space group: C 2/C
;
_chemical_formula_sum "Si O2"
_cell_formula_units_Z 52
_cell_length_a 7.342562
_cell_length_b 29.815674
_cell_length_c 9.833194
_cell_angle_alpha 90.000000
_cell_angle_beta 69.681033
_cell_angle_gamma 90.000000
_cell_volume 2018.761738
_symmetry_space_group_name_H-M "C 2/C"
_symmetry_group_IT_number 15
_symmetry_cell_setting 'monoclinic'
loop_
_space_group_symop_operation_xyz
x,y,z
-x,y,1/2-z
-x,-y,-z
x,-y,1/2+z
1/2+x,1/2+y,z
1/2-x,1/2+y,1/2-z
1/2-x,1/2-y,-z
1/2+x,1/2-y,1/2+z
loop_
_atom_site_type_symbol
_atom_site_label
_atom_site_fract_x
_atom_site_fract_y
_atom_site_fract_z
Si Si1 0.290567 0.698652 0.224102
Si Si2 0.916935 0.452051 0.569772
Si Si3 0.952614 0.753218 0.033105
Si Si4 0.836216 0.098142 0.171368
Si Si5 0.000000 0.827250 0.250000
Si Si6 0.593018 0.453354 0.429407
Si Si7 0.167094 0.399902 0.323729
O O1 0.500000 0.695027 0.250000
O O2 0.097278 0.711490 0.357564
O O3 0.261191 0.648487 0.179230
O O4 0.355807 0.740266 0.109241
O O5 0.813376 0.440715 0.739265
O O6 0.753892 0.445494 0.499837
O O7 0.000000 0.500000 0.500000
O O8 0.065849 0.413368 0.489960
O O9 0.969318 0.796423 0.125298
O O10 0.750000 0.750000 0.000000
O O11 0.000000 0.098350 0.250000
O O12 0.937577 0.084248 0.005533
O O13 0.808625 0.858158 0.299898
O O14 0.500000 0.500000 0.500000
O O15 0.702450 0.443044 0.260750
O O16 0.000000 0.392419 0.250000
#
# Coordination Sequence:
#
# PCOD9272036 Si02
#       7
#     8   8   8   8   4   8   8
#     4   9  19  39  66  95 134 175 230 292 364 432
#     4  10  21  37  60  95 135 178 235 298 359 425
#     4  10  23  43  70 104 138 183 241 308 375 455
#     4   9  18  35  60  89 122 173 221 274 349 428
#     4  12  26  44  76 104 148 200 248 312 392 456
#     4  10  20  36  63  91 132 183 233 295 364 432
#     4  10  24  42  64 100 139 186 248 305 366 441
#
# _framework density 25.758362999999999
#
# number of rings (size 3 to 8) (size 9 to 14) (size 15 to 20)
#    0.000    2.154    0.000    1.846    2.154    7.385 
#    0.000    0.000    0.000    0.000    0.000    0.000 
#    0.000    0.000    0.000    0.000    0.000    0.000 
#
# Total GULP energy -145168.945266 kJ/mol
# GULP energy per Si atom -5583.420972 kJ/mol
# Density = 2.569974 g / cm^3
# Si number density = 25.758363 Si / 1000 Ang^3
#
#
#
# Elastic Constant Matrix: (Units=GPa)
#
#
# Indices 1 2 3 4 5 6 
#
# 1 133.8071 27.2173 -7.0916 0.0000 -1.1947 0.0000
# 2 27.2173 140.7884 30.5229 0.0000 -28.5455 0.0000
# 3 -7.0916 30.5229 106.7898 0.0000 -27.9385 0.0000
# 4 0.0000 0.0000 0.0000 31.7592 0.0000 -8.5612
# 5 -1.1947 -28.5455 -27.9385 0.0000 37.4569 0.0000
# 6 0.0000 0.0000 0.0000 -8.5612 0.0000 35.1681
#
#
#
# Elastic Compliance Matrix: (Units=1/GPa)
#
#
# Indices 1 2 3 4 5 6 
#
# 1 0.007888 -0.001815 0.000928 0.000000 -0.000440 0.000000
# 2 -0.001815 0.008889 -0.001123 0.000000 0.005879 0.000000
# 3 0.000928 -0.001123 0.011841 0.000000 0.008006 0.000000
# 4 0.000000 0.000000 0.000000 0.033698 0.000000 0.008203
# 5 -0.000440 0.005879 0.008006 0.000000 0.037135 0.000000
# 6 0.000000 0.000000 0.000000 0.008203 0.000000 0.030432
#
#
# Mechanical properties :
#
#
# Convention : Reuss Voigt Hill
#
# Bulk Modulus (GPa) = 40.65605 53.63139 47.14372
# Shear Modulus (GPa) = 35.18546 42.92596 39.05571
#
# Velocity S-wave (km/s) = 3.69993 4.08669 3.89811
# Velocity P-wave (km/s) = 5.83700 6.56766 6.21308
#
# Compressibility (1/GPa) = 0.02459658
#
# Stress axis : x y z
#
# Youngs Moduli (GPa) = 126.77649 112.49574 84.44989
#
# Poissons Ratio (x) = 0.20420 -0.07833
# Poissons Ratio (y) = 0.23012 0.09486
# Poissons Ratio (z) = -0.11759 0.12637
#
# Static dielectric constant tensor:
#      x y z
#    x 2.167640 0.000000 -0.010260 
#    y 0.000000 0.118330 0.000000 
#    z -0.010260 0.000000 2.100450 
# 
# From -- ./inp_files/81191.got.cif
#   From: 2010.05.17/outbox.cif.g08.bks.cpg/sg15_41_cif.got.tgz:81191.got - 2010.06.03 18:47:42.
