data_PCOD9272997
_publ_section_title
;
Structure prediction by ZEFSAII (Michael W. Deem and Ramdas Pophale) SiO2 
 PCOD9272997
Probable space group: C 2/C
;
_chemical_formula_sum "Si O2"
_cell_formula_units_Z 56
_cell_length_a 25.651839
_cell_length_b 15.078713
_cell_length_c 9.101109
_cell_angle_alpha 90.000000
_cell_angle_beta 53.689449
_cell_angle_gamma 90.000000
_cell_volume 2836.708657
_symmetry_space_group_name_H-M "C 2/C"
_symmetry_group_IT_number 15
_symmetry_cell_setting 'monoclinic'
loop_
_space_group_symop_operation_xyz
x,y,z
-x,y,1/2-z
-x,-y,-z
x,-y,1/2+z
1/2+x,1/2+y,z
1/2-x,1/2+y,1/2-z
1/2-x,1/2-y,-z
1/2+x,1/2-y,1/2+z
loop_
_atom_site_type_symbol
_atom_site_label
_atom_site_fract_x
_atom_site_fract_y
_atom_site_fract_z
Si Si1 0.391999 0.110698 0.045733
Si Si2 0.431875 0.305943 0.933147
Si Si3 0.547327 0.969772 0.787289
Si Si4 0.070478 0.963558 0.346102
Si Si5 0.750126 0.321347 0.708451
Si Si6 0.703569 0.641998 0.956710
Si Si7 0.154485 0.958672 0.939258
O O1 0.399113 0.077293 0.201850
O O2 0.318067 0.134171 0.135422
O O3 0.431413 0.202470 0.969965
O O4 0.420487 0.044824 0.871680
O O5 0.500000 0.331648 0.750000
O O6 0.371200 0.325166 0.927625
O O7 0.421798 0.367975 0.090888
O O8 0.500000 0.919509 0.750000
O O9 0.500000 0.000000 0.000000
O O10 0.090105 0.960653 0.145007
O O11 0.126325 0.024378 0.325120
O O12 0.000000 0.000000 0.500000
O O13 0.733547 0.346825 0.567464
O O14 0.758285 0.215281 0.704641
O O15 0.693053 0.367960 0.893483
O O16 0.700699 0.541857 0.902354
#
# Coordination Sequence:
#
# PCOD9272997 Si02
#       7
#     8   8   8   8   8   8   8
#     4  10  21  36  61  88 119 163 201 250 310 367
#     4  10  20  37  62  85 120 161 205 249 315 369
#     4   9  18  35  57  82 115 151 202 252 297 357
#     4  11  22  38  60  88 119 158 204 254 310 371
#     4  10  21  37  62  87 124 159 212 240 303 380
#     4   9  20  39  57  89 121 161 202 252 300 367
#     4  11  21  38  62  88 122 162 199 257 312 360
#
# _framework density 19.741188999999999
#
# number of rings (size 3 to 8) (size 9 to 14) (size 15 to 20)
#    0.000    2.000    1.429    3.429    2.000    0.000 
#    0.000    9.286    6.286    0.000    0.000    0.000 
#    0.000    0.000    0.000    0.000    0.000    0.000 
#
# Total GULP energy -156014.087438 kJ/mol
# GULP energy per Si atom -5571.931694 kJ/mol
# Density = 1.969626 g / cm^3
# Si number density = 19.741189 Si / 1000 Ang^3
#
#
#
# Elastic Constant Matrix: (Units=GPa)
#
#
# Indices 1 2 3 4 5 6 
#
# 1 96.5754 30.6606 16.9430 0.0000 16.6929 0.0000
# 2 30.6606 94.3383 29.2167 0.0000 0.4475 0.0000
# 3 16.9430 29.2167 58.5805 0.0000 2.9386 0.0000
# 4 0.0000 0.0000 0.0000 22.8436 0.0000 -4.0612
# 5 16.6929 0.4475 2.9386 0.0000 37.6596 0.0000
# 6 0.0000 0.0000 0.0000 -4.0612 0.0000 20.5545
#
#
#
# Elastic Compliance Matrix: (Units=1/GPa)
#
#
# Indices 1 2 3 4 5 6 
#
# 1 0.012730 -0.003614 -0.001605 0.000000 -0.005474 0.000000
# 2 -0.003614 0.013567 -0.005816 0.000000 0.001895 0.000000
# 3 -0.001605 -0.005816 0.020476 0.000000 -0.000817 0.000000
# 4 0.000000 0.000000 0.000000 0.045370 0.000000 0.008964
# 5 -0.005474 0.001895 -0.000817 0.000000 0.029022 0.000000
# 6 0.000000 0.000000 0.000000 0.008964 0.000000 0.050422
#
#
# Mechanical properties :
#
#
# Convention : Reuss Voigt Hill
#
# Bulk Modulus (GPa) = 40.48068 44.79276 42.63672
# Shear Modulus (GPa) = 24.76576 27.72311 26.24443
#
# Velocity S-wave (km/s) = 3.54577 3.75150 3.65008
# Velocity P-wave (km/s) = 6.10848 6.44238 6.27765
#
# Compressibility (1/GPa) = 0.02470314
#
# Stress axis : x y z
#
# Youngs Moduli (GPa) = 78.55557 73.70741 48.83668
#
# Poissons Ratio (x) = 0.26641 0.07836
# Poissons Ratio (y) = 0.28393 0.28404
# Poissons Ratio (z) = 0.12604 0.42870
#
# Static dielectric constant tensor:
#      x y z
#    x 1.715900 0.000000 0.002770 
#    y 0.000000 1.732620 0.000000 
#    z 0.002770 0.000000 1.718210 
# 
# From -- ./inp_files/66154.got.cif
#   From: 2010.05.17/outbox.cif.g08.bks.cpg/sg15_34_cif.got.tgz:66154.got - 2010.06.03 18:47:42.
