data_PCOD9272182
_publ_section_title
;
Structure prediction by ZEFSAII (Michael W. Deem and Ramdas Pophale) SiO2 
 PCOD9272182
Probable space group: C 2/C
;
_chemical_formula_sum "Si O2"
_cell_formula_units_Z 40
_cell_length_a 19.132983
_cell_length_b 13.913626
_cell_length_c 25.904611
_cell_angle_alpha 90.000000
_cell_angle_beta 165.509946
_cell_angle_gamma 90.000000
_cell_volume 1725.472788
_symmetry_space_group_name_H-M "C 2/C"
_symmetry_group_IT_number 15
_symmetry_cell_setting 'monoclinic'
loop_
_space_group_symop_operation_xyz
x,y,z
-x,y,1/2-z
-x,-y,-z
x,-y,1/2+z
1/2+x,1/2+y,z
1/2-x,1/2+y,1/2-z
1/2-x,1/2-y,-z
1/2+x,1/2-y,1/2+z
loop_
_atom_site_type_symbol
_atom_site_label
_atom_site_fract_x
_atom_site_fract_y
_atom_site_fract_z
Si Si1 0.126253 0.373588 0.911393
Si Si2 0.198557 0.453233 0.287266
Si Si3 0.360826 0.748604 0.269732
Si Si4 0.876839 0.232718 0.504580
Si Si5 0.240286 0.380215 0.593090
O O1 0.009032 0.480453 0.828471
O O2 0.862901 0.307181 0.704568
O O3 0.191027 0.331026 0.013799
O O4 0.367203 0.348959 0.042723
O O5 0.500000 0.500000 0.500000
O O6 0.231229 0.343740 0.328511
O O7 0.039170 0.441386 0.117844
O O8 0.316578 0.654354 0.204445
O O9 0.664610 0.783568 0.505490
O O10 0.158275 0.751094 0.174467
O O11 0.500000 0.427872 0.750000
#
# Coordination Sequence:
#
# PCOD9272182 Si02
#       5
#     8   8   8   8   8
#     4  10  20  40  58  95 123 172 216 267 327 387
#     4  10  22  39  66  90 136 168 223 271 324 398
#     4  10  21  39  67  93 133 172 224 269 342 390
#     4  10  20  36  65  85 128 168 214 265 331 388
#     4  10  22  42  66  94 132 177 218 276 337 398
#
# _framework density 23.182051999999999
#
# number of rings (size 3 to 8) (size 9 to 14) (size 15 to 20)
#    1.200    0.800    2.000    1.800    0.000    0.000 
#   10.800    3.000    0.000    0.000    0.000    0.000 
#    0.000    0.000    0.000    0.000    0.000    0.000 
#
# Total GULP energy -111337.527952 kJ/mol
# GULP energy per Si atom -5566.876398 kJ/mol
# Density = 2.312929 g / cm^3
# Si number density = 23.182052 Si / 1000 Ang^3
#
#
#
# Elastic Constant Matrix: (Units=GPa)
#
#
# Indices 1 2 3 4 5 6 
#
# 1 81.1595 33.2446 18.2331 -0.0546 18.8881 0.0280
# 2 33.2446 56.1914 -0.8261 -0.0030 5.8356 0.0308
# 3 18.2331 -0.8261 78.1479 0.0669 3.9135 -0.0214
# 4 -0.0546 -0.0030 0.0669 38.0752 -0.0421 -2.9423
# 5 18.8881 5.8356 3.9135 -0.0421 28.4635 -0.0031
# 6 0.0280 0.0308 -0.0214 -2.9423 -0.0031 20.8670
#
#
#
# Elastic Compliance Matrix: (Units=1/GPa)
#
#
# Indices 1 2 3 4 5 6 
#
# 1 0.020232 -0.010933 -0.004306 0.000023 -0.010592 -0.000014
# 2 -0.010933 0.024103 0.002708 -0.000018 0.001941 -0.000020
# 3 -0.004306 0.002708 0.013809 -0.000029 0.000403 0.000012
# 4 0.000023 -0.000018 -0.000029 0.026553 0.000032 0.003744
# 5 -0.010592 0.001941 0.000403 0.000032 0.041708 0.000023
# 6 -0.000014 -0.000020 0.000012 0.003744 0.000023 0.048451
#
#
# Mechanical properties :
#
#
# Convention : Reuss Voigt Hill
#
# Bulk Modulus (GPa) = 30.22635 35.20022 32.71329
# Shear Modulus (GPa) = 23.70276 28.47096 26.08686
#
# Velocity S-wave (km/s) = 3.20106 3.50829 3.35819
# Velocity P-wave (km/s) = 5.17005 5.62388 5.40173
#
# Compressibility (1/GPa) = 0.03308372
#
# Stress axis : x y z
#
# Youngs Moduli (GPa) = 49.42567 41.48849 72.41497
#
# Poissons Ratio (x) = 0.45361 0.31180
# Poissons Ratio (y) = 0.54039 -0.19614
# Poissons Ratio (z) = 0.21281 -0.11237
#
# Static dielectric constant tensor:
#      x y z
#    x 1.905850 -0.000070 -0.024650 
#    y -0.000070 1.927760 -0.000360 
#    z -0.024650 -0.000360 1.948850 
# 
# From -- ./inp_files/277589.got.cif
#   From: 2010.05.17/outbox.cif.g08.bks.cpg/sg15_139_cif.got.tgz:277589.got - 2010.06.03 18:47:42.
