data_PCOD9272436
_publ_section_title
;
Structure prediction by ZEFSAII (Michael W. Deem and Ramdas Pophale) SiO2 
 PCOD9272436
Probable space group: C 2/C
;
_chemical_formula_sum "Si O2"
_cell_formula_units_Z 44
_cell_length_a 7.527185
_cell_length_b 29.725743
_cell_length_c 8.789020
_cell_angle_alpha 90.000000
_cell_angle_beta 70.164543
_cell_angle_gamma 90.000000
_cell_volume 1849.879758
_symmetry_space_group_name_H-M "C 2/C"
_symmetry_group_IT_number 15
_symmetry_cell_setting 'monoclinic'
loop_
_space_group_symop_operation_xyz
x,y,z
-x,y,1/2-z
-x,-y,-z
x,-y,1/2+z
1/2+x,1/2+y,z
1/2-x,1/2+y,1/2-z
1/2-x,1/2-y,-z
1/2+x,1/2-y,1/2+z
loop_
_atom_site_type_symbol
_atom_site_label
_atom_site_fract_x
_atom_site_fract_y
_atom_site_fract_z
Si Si1 0.721254 0.125060 0.707686
Si Si2 0.221689 0.782133 0.190513
Si Si3 0.810902 0.900550 0.855388
Si Si4 0.000000 0.507286 0.250000
Si Si5 0.384854 0.937831 0.028180
Si Si6 0.723686 0.815387 0.669415
O O1 0.500000 0.114300 0.750000
O O2 0.735292 0.178614 0.705713
O O3 0.835542 0.109662 0.528452
O O4 0.751688 0.100031 0.860818
O O5 0.302275 0.733085 0.204429
O O6 0.000000 0.773888 0.250000
O O7 0.261775 0.805204 0.015857
O O8 0.596680 0.920008 0.923396
O O9 0.804444 0.857081 0.743040
O O10 0.000000 0.926587 0.750000
O O11 0.841675 0.536366 0.384930
O O12 0.095508 0.475285 0.346838
O O13 0.500000 0.821623 0.750000
#
# Coordination Sequence:
#
# PCOD9272436 Si02
#       6
#     8   8   8   4   8   8
#     4  10  20  37  56  84 115 151 195 235 282 349
#     4  10  21  36  54  82 117 152 198 245 279 332
#     4  11  22  36  56  87 122 150 189 241 295 335
#     4  10  20  40  68  86 110 146 200 232 294 352
#     4  10  21  39  64  88 112 151 193 239 283 363
#     4  10  21  36  56  81 113 158 204 233 276 344
#
# _framework density 23.785329000000001
#
# number of rings (size 3 to 8) (size 9 to 14) (size 15 to 20)
#    0.000    1.818    2.727    3.273    3.818    1.455 
#    0.000    0.909    0.000    0.000    0.000    0.000 
#    0.000    0.000    0.000    0.000    0.000    0.000 
#
# Total GULP energy -122485.583489 kJ/mol
# GULP energy per Si atom -5567.526522 kJ/mol
# Density = 2.373119 g / cm^3
# Si number density = 23.785329 Si / 1000 Ang^3
#
#
#
# Elastic Constant Matrix: (Units=GPa)
#
#
# Indices 1 2 3 4 5 6 
#
# 1 45.0235 1.7764 26.9325 0.0000 -9.3751 0.0000
# 2 1.7764 85.8737 18.8895 0.0000 7.7372 0.0000
# 3 26.9325 18.8895 113.8351 0.0000 -12.3273 0.0000
# 4 0.0000 0.0000 0.0000 48.7722 0.0000 5.6943
# 5 -9.3751 7.7372 -12.3273 0.0000 25.5488 0.0000
# 6 0.0000 0.0000 0.0000 5.6943 0.0000 28.9698
#
#
#
# Elastic Compliance Matrix: (Units=1/GPa)
#
#
# Indices 1 2 3 4 5 6 
#
# 1 0.027079 0.000029 -0.005631 0.000000 0.007211 0.000000
# 2 0.000029 0.012693 -0.002667 0.000000 -0.005120 0.000000
# 3 -0.005631 -0.002667 0.010998 0.000000 0.004048 0.000000
# 4 0.000000 0.000000 0.000000 0.020985 0.000000 -0.004125
# 5 0.007211 -0.005120 0.004048 0.000000 0.045291 0.000000
# 6 0.000000 0.000000 0.000000 -0.004125 0.000000 0.035329
#
#
# Mechanical properties :
#
#
# Convention : Reuss Voigt Hill
#
# Bulk Modulus (GPa) = 29.21346 37.76989 33.49167
# Shear Modulus (GPa) = 27.72790 33.80043 30.76417
#
# Velocity S-wave (km/s) = 3.41802 3.77379 3.60030
# Velocity P-wave (km/s) = 5.28072 5.90784 5.60306
#
# Compressibility (1/GPa) = 0.03423080
#
# Stress axis : x y z
#
# Youngs Moduli (GPa) = 36.92875 78.78663 90.92740
#
# Poissons Ratio (x) = -0.00226 0.51197
# Poissons Ratio (y) = -0.00106 0.24254
# Poissons Ratio (z) = 0.20793 0.21016
#
# Static dielectric constant tensor:
#      x y z
#    x 1.922170 0.000000 0.112730 
#    y 0.000000 2.086090 0.000000 
#    z 0.112730 0.000000 1.851860 
# 
# From -- ./inp_files/26006.got.cif
#   From: 2010.05.17/outbox.cif.g08.bks.cpg/sg15_14_cif.got.tgz:26006.got - 2010.06.03 18:47:42.
