data_PCOD9272595
_publ_section_title
;
Structure prediction by ZEFSAII (Michael W. Deem and Ramdas Pophale) SiO2 
 PCOD9272595
Probable space group: C 2/C
;
_chemical_formula_sum "Si O2"
_cell_formula_units_Z 52
_cell_length_a 26.522014
_cell_length_b 14.833305
_cell_length_c 20.525942
_cell_angle_alpha 90.000000
_cell_angle_beta 160.928812
_cell_angle_gamma 90.000000
_cell_volume 2638.477448
_symmetry_space_group_name_H-M "C 2/C"
_symmetry_group_IT_number 15
_symmetry_cell_setting 'monoclinic'
loop_
_space_group_symop_operation_xyz
x,y,z
-x,y,1/2-z
-x,-y,-z
x,-y,1/2+z
1/2+x,1/2+y,z
1/2-x,1/2+y,1/2-z
1/2-x,1/2-y,-z
1/2+x,1/2-y,1/2+z
loop_
_atom_site_type_symbol
_atom_site_label
_atom_site_fract_x
_atom_site_fract_y
_atom_site_fract_z
Si Si1 0.432254 0.836676 0.095530
Si Si2 0.427142 0.402189 0.413125
Si Si3 0.159427 0.208499 0.812653
Si Si4 0.361208 0.990835 0.917292
Si Si5 0.589689 0.121761 0.141578
Si Si6 0.000000 0.732217 0.250000
Si Si7 0.889070 0.742170 0.803628
O O1 0.500000 0.840632 0.250000
O O2 0.562478 0.804164 0.204309
O O3 0.371253 0.932978 0.994910
O O4 0.289033 0.768177 0.913407
O O5 0.500000 0.500000 0.500000
O O6 0.426075 0.356911 0.341197
O O7 0.252738 0.425118 0.218979
O O8 0.513930 0.334060 0.566715
O O9 0.163242 0.306701 0.781109
O O10 0.064555 0.215356 0.764477
O O11 0.340067 0.180414 0.038576
O O12 0.316413 0.920087 0.804907
O O13 0.525158 0.035053 0.100336
O O14 0.451852 0.176249 0.936900
#
# Coordination Sequence:
#
# PCOD9272595 Si02
#       7
#     8   8   8   8   8   4   8
#     4  11  22  38  58  86 122 155 189 231 291 364
#     4  11  21  36  62  87 115 145 203 256 286 330
#     4  10  22  39  62  86 120 160 200 242 298 359
#     4  10  20  37  58  93 115 149 195 249 300 336
#     4   9  20  37  64  85 116 149 198 254 290 343
#     4  10  22  40  58  88 116 164 196 230 298 376
#     4  10  21  39  63  85 111 155 199 239 290 339
#
# _framework density 19.708337
#
# number of rings (size 3 to 8) (size 9 to 14) (size 15 to 20)
#    0.000    1.846    1.538    2.308    2.154    2.462 
#    8.308    0.000    1.692    0.000    0.000    0.000 
#    0.000    0.000    0.000    0.000    0.000    0.000 
#
# Total GULP energy -144947.583417 kJ/mol
# GULP energy per Si atom -5574.907055 kJ/mol
# Density = 1.966348 g / cm^3
# Si number density = 19.708337 Si / 1000 Ang^3
#
#
#
# Elastic Constant Matrix: (Units=GPa)
#
#
# Indices 1 2 3 4 5 6 
#
# 1 89.7264 20.3015 29.4409 -0.0004 -8.4862 -0.0002
# 2 20.3015 70.4695 -2.1172 -0.0004 -6.5900 -0.0003
# 3 29.4409 -2.1172 52.8743 -0.0005 0.9527 -0.0005
# 4 -0.0004 -0.0004 -0.0005 21.4589 -0.0002 8.3583
# 5 -8.4862 -6.5900 0.9527 -0.0002 25.7049 -0.0001
# 6 -0.0002 -0.0003 -0.0005 8.3583 -0.0001 16.9544
#
#
#
# Elastic Compliance Matrix: (Units=1/GPa)
#
#
# Indices 1 2 3 4 5 6 
#
# 1 0.015429 -0.004307 -0.008841 0.000000 0.004317 0.000000
# 2 -0.004307 0.015755 0.002984 0.000000 0.002507 0.000000
# 3 -0.008841 0.002984 0.024010 0.000000 -0.003044 0.000000
# 4 0.000000 0.000000 0.000000 0.057675 0.000000 -0.028433
# 5 0.004317 0.002507 -0.003044 0.000000 0.041084 0.000000
# 6 0.000000 0.000000 0.000000 -0.028433 0.000000 0.072999
#
#
# Mechanical properties :
#
#
# Convention : Reuss Voigt Hill
#
# Bulk Modulus (GPa) = 28.68143 34.25786 31.46964
# Shear Modulus (GPa) = 19.31230 23.85329 21.58280
#
# Velocity S-wave (km/s) = 3.13374 3.48273 3.31283
# Velocity P-wave (km/s) = 5.26102 5.79592 5.53494
#
# Compressibility (1/GPa) = 0.03486577
#
# Stress axis : x y z
#
# Youngs Moduli (GPa) = 64.81439 63.47054 41.64951
#
# Poissons Ratio (x) = 0.27335 0.36823
# Poissons Ratio (y) = 0.27914 -0.12427
# Poissons Ratio (z) = 0.57303 -0.18938
#
# Static dielectric constant tensor:
#      x y z
#    x 1.732310 0.000000 0.037420 
#    y 0.000000 1.684340 0.000000 
#    z 0.037420 0.000000 1.774310 
# 
# From -- ./inp_files/257829.got.cif
#   From: 2010.05.17/outbox.cif.g08.bks.cpg/sg15_129_cif.got.tgz:257829.got - 2010.06.03 18:47:42.
