data_PCOD9272353
_publ_section_title
;
Structure prediction by ZEFSAII (Michael W. Deem and Ramdas Pophale) SiO2 
 PCOD9272353
Probable space group: C 2/C
;
_chemical_formula_sum "Si O2"
_cell_formula_units_Z 60
_cell_length_a 19.667772
_cell_length_b 15.174339
_cell_length_c 20.589273
_cell_angle_alpha 90.000000
_cell_angle_beta 22.944446
_cell_angle_gamma 90.000000
_cell_volume 2395.469254
_symmetry_space_group_name_H-M "C 2/C"
_symmetry_group_IT_number 15
_symmetry_cell_setting 'monoclinic'
loop_
_space_group_symop_operation_xyz
x,y,z
-x,y,1/2-z
-x,-y,-z
x,-y,1/2+z
1/2+x,1/2+y,z
1/2-x,1/2+y,1/2-z
1/2-x,1/2-y,-z
1/2+x,1/2-y,1/2+z
loop_
_atom_site_type_symbol
_atom_site_label
_atom_site_fract_x
_atom_site_fract_y
_atom_site_fract_z
Si Si1 0.888803 0.544296 0.711938
Si Si2 0.000000 0.007242 0.750000
Si Si3 0.317189 0.818042 0.690712
Si Si4 0.653360 0.004637 0.072859
Si Si5 0.707630 0.127385 0.830396
Si Si6 0.121248 0.151561 0.231592
Si Si7 0.273357 0.172572 0.909258
Si Si8 0.069635 0.936698 0.996103
O O1 0.854400 0.554184 0.667047
O O2 0.880432 0.639757 0.752214
O O3 0.724918 0.494852 0.889863
O O4 0.068025 0.502265 0.576871
O O5 0.169042 0.057732 0.579089
O O6 0.083536 0.940607 0.729378
O O7 0.520531 0.843105 0.525663
O O8 0.280049 0.714417 0.729749
O O9 0.259029 0.847910 0.669163
O O10 0.182618 0.861568 0.860418
O O11 0.500000 0.044898 0.250000
O O12 0.684639 0.905187 0.075586
O O13 0.897774 0.091246 0.688159
O O14 0.169362 0.226100 0.135622
O O15 0.930581 0.174095 0.427072
O O16 0.000000 0.000000 0.000000
#
# Coordination Sequence:
#
# PCOD9272353 Si02
#       8
#     8   4   8   8   8   8   8   8
#     4  10  20  37  52  71 109 147 178 229 273 317
#     4  10  22  30  44  76 104 138 178 224 246 304
#     4  12  21  35  56  81 105 148 191 228 277 322
#     4   9  20  34  47  69 102 139 176 212 258 314
#     4  11  21  34  57  77 103 141 188 232 275 327
#     4  11  21  29  47  74 105 140 181 219 256 303
#     4  10  21  31  50  74 104 143 180 216 261 320
#     4  10  23  39  53  76 108 142 190 239 279 321
#
# _framework density 25.047284000000001
#
# number of rings (size 3 to 8) (size 9 to 14) (size 15 to 20)
#    0.000    1.600    2.667    3.200    6.533    3.200 
#    0.000    4.000    0.000    0.000    0.000    0.000 
#    0.000    9.600    0.000    0.000    0.000    0.000 
#
# Total GULP energy -167422.132629 kJ/mol
# GULP energy per Si atom -5580.737754 kJ/mol
# Density = 2.499028 g / cm^3
# Si number density = 25.047284 Si / 1000 Ang^3
#
#
#
# Elastic Constant Matrix: (Units=GPa)
#
#
# Indices 1 2 3 4 5 6 
#
# 1 47.7835 27.2840 20.5187 -0.0017 -15.8034 0.0014
# 2 27.2840 52.4478 20.6162 -0.0073 -9.3476 0.0074
# 3 20.5187 20.6162 234.9909 0.0113 -36.2304 0.0032
# 4 -0.0017 -0.0073 0.0113 38.7514 0.0001 0.6211
# 5 -15.8034 -9.3476 -36.2304 0.0001 37.5467 -0.0002
# 6 0.0014 0.0074 0.0032 0.6211 -0.0002 20.7641
#
#
#
# Elastic Compliance Matrix: (Units=1/GPa)
#
#
# Indices 1 2 3 4 5 6 
#
# 1 0.033054 -0.015404 0.000022 -0.000002 0.010099 0.000003
# 2 -0.015404 0.027402 -0.001183 0.000005 -0.000803 -0.000009
# 3 0.000022 -0.001183 0.005067 -0.000002 0.004604 0.000000
# 4 -0.000002 0.000005 -0.000002 0.025818 -0.000001 -0.000772
# 5 0.010099 -0.000803 0.004604 -0.000001 0.035127 -0.000001
# 6 0.000003 -0.000009 0.000000 -0.000772 -0.000001 0.048183
#
#
# Mechanical properties :
#
#
# Convention : Reuss Voigt Hill
#
# Bulk Modulus (GPa) = 30.86998 52.45110 41.66054
# Shear Modulus (GPa) = 22.87522 37.19933 30.03728
#
# Velocity S-wave (km/s) = 3.02533 3.85796 3.46674
# Velocity P-wave (km/s) = 4.95530 6.38995 5.71780
#
# Compressibility (1/GPa) = 0.03239393
#
# Stress axis : x y z
#
# Youngs Moduli (GPa) = 30.25393 36.49416 197.34697
#
# Poissons Ratio (x) = 0.56215 -0.00439
# Poissons Ratio (y) = 0.46602 0.23342
# Poissons Ratio (z) = -0.00067 0.04316
#
# Static dielectric constant tensor:
#      x y z
#    x 2.054840 -0.000010 0.080000 
#    y -0.000010 2.020490 -0.000020 
#    z 0.080000 -0.000020 2.208550 
# 
# From -- ./inp_files/302346.got.cif
#   From: 2010.05.17/outbox.cif.g08.bks.cpg/sg15_152_cif.got.tgz:302346.got - 2010.06.03 18:47:42.
