data_PCOD9272460
_publ_section_title
;
Structure prediction by ZEFSAII (Michael W. Deem and Ramdas Pophale) SiO2 
 PCOD9272460
Probable space group: C 2/C
;
_chemical_formula_sum "Si O2"
_cell_formula_units_Z 64
_cell_length_a 16.493575
_cell_length_b 8.601143
_cell_length_c 31.497048
_cell_angle_alpha 90.000000
_cell_angle_beta 134.143913
_cell_angle_gamma 90.000000
_cell_volume 3206.408453
_symmetry_space_group_name_H-M "C 2/C"
_symmetry_group_IT_number 15
_symmetry_cell_setting 'monoclinic'
loop_
_space_group_symop_operation_xyz
x,y,z
-x,y,1/2-z
-x,-y,-z
x,-y,1/2+z
1/2+x,1/2+y,z
1/2-x,1/2+y,1/2-z
1/2-x,1/2-y,-z
1/2+x,1/2-y,1/2+z
loop_
_atom_site_type_symbol
_atom_site_label
_atom_site_fract_x
_atom_site_fract_y
_atom_site_fract_z
Si Si1 0.213452 0.913897 0.603380
Si Si2 0.149491 0.274063 0.995554
Si Si3 0.701718 0.326698 0.790490
Si Si4 0.700179 0.134222 0.653255
Si Si5 0.815064 0.279647 0.121233
Si Si6 0.369980 0.954473 0.956717
Si Si7 0.534020 0.694057 0.152590
Si Si8 0.922910 0.882833 0.381592
O O1 0.166578 0.823072 0.545488
O O2 0.255118 0.790873 0.654185
O O3 0.307088 0.035639 0.622712
O O4 0.119394 0.017689 0.593043
O O5 0.029389 0.223691 0.932537
O O6 0.250000 0.250000 0.000000
O O7 0.161847 0.453041 0.013025
O O8 0.728674 0.510319 0.794044
O O9 0.657012 0.289613 0.821772
O O10 0.613300 0.280643 0.722441
O O11 0.817600 0.226031 0.829560
O O12 0.587948 0.193451 0.636306
O O13 0.676655 0.032704 0.602986
O O14 0.690134 0.211941 0.064159
O O15 0.907060 0.229425 0.120554
O O16 0.500000 0.000000 0.000000
O O17 0.544783 0.516476 0.140228
#
# Coordination Sequence:
#
# PCOD9272460 Si02
#       8
#     8   8   8   8   8   8   8   8
#     4   9  20  37  56  79 112 147 181 223 279 340
#     4  11  21  35  55  82 113 143 180 232 278 327
#     4  10  20  38  59  79 110 151 187 228 284 340
#     4   9  20  36  57  82 108 146 188 225 274 342
#     4  10  21  36  57  84 112 146 187 235 284 332
#     4  10  20  37  57  78 110 150 186 223 279 342
#     4  11  21  36  57  84 112 141 187 241 279 326
#     4  10  21  37  57  80 108 148 188 221 275 343
#
# _framework density 19.960027
#
# number of rings (size 3 to 8) (size 9 to 14) (size 15 to 20)
#    0.000    2.000    0.000    4.500    0.000    4.000 
#    0.000    1.875    0.000   15.000    0.000    0.000 
#    0.000    0.000    0.000    0.000    0.000    0.000 
#
# Total GULP energy -178348.944525 kJ/mol
# GULP energy per Si atom -5573.404516 kJ/mol
# Density = 1.991460 g / cm^3
# Si number density = 19.960027 Si / 1000 Ang^3
#
#
#
# Elastic Constant Matrix: (Units=GPa)
#
#
# Indices 1 2 3 4 5 6 
#
# 1 68.1936 12.0306 -4.5928 0.0000 9.9825 0.0000
# 2 12.0306 78.7031 -5.6004 0.0000 11.8093 0.0000
# 3 -4.5928 -5.6004 34.0841 0.0000 12.3899 0.0000
# 4 0.0000 0.0000 0.0000 1.3896 0.0000 4.9652
# 5 9.9825 11.8093 12.3899 0.0000 14.9023 0.0000
# 6 0.0000 0.0000 0.0000 4.9652 0.0000 23.8026
#
#
#
# Elastic Compliance Matrix: (Units=1/GPa)
#
#
# Indices 1 2 3 4 5 6 
#
# 1 0.018445 0.001317 0.010853 0.000000 -0.022422 0.000000
# 2 0.001317 0.016944 0.011699 0.000000 -0.024036 0.000000
# 3 0.010853 0.011699 0.055514 0.000000 -0.062695 0.000000
# 4 0.000000 0.000000 0.000000 2.825727 0.000000 -0.589449
# 5 -0.022422 -0.024036 -0.062695 0.000000 0.153297 0.000000
# 6 0.000000 0.000000 0.000000 -0.589449 0.000000 0.164972
#
#
# Mechanical properties :
#
#
# Convention : Reuss Voigt Hill
#
# Bulk Modulus (GPa) = 7.21291 20.51727 13.86509
# Shear Modulus (GPa) = 1.54637 19.96180 10.75409
#
# Velocity S-wave (km/s) = 0.88114 3.16585 2.32368
# Velocity P-wave (km/s) = 2.15795 4.86466 3.76309
#
# Compressibility (1/GPa) = 0.13864024
#
# Stress axis : x y z
#
# Youngs Moduli (GPa) = 54.21523 59.01910 18.01342
#
# Poissons Ratio (x) = -0.07774 -0.19549
# Poissons Ratio (y) = -0.07141 -0.21074
# Poissons Ratio (z) = -0.58838 -0.69045
#
# Static dielectric constant tensor:
#      x y z
#    x 1.695930 0.000000 0.015590 
#    y 0.000000 1.734440 0.000000 
#    z 0.015590 0.000000 1.731830 
# 
# From -- ./inp_files/313190.got.cif
#   From: 2010.05.17/outbox.cif.g08.bks.cpg/sg15_157_cif.got.tgz:313190.got - 2010.06.03 18:47:42.
