data_PCOD9272448
_publ_section_title
;
Structure prediction by ZEFSAII (Michael W. Deem and Ramdas Pophale) SiO2 
 PCOD9272448
Probable space group: C 2/C
;
_chemical_formula_sum "Si O2"
_cell_formula_units_Z 56
_cell_length_a 27.764790
_cell_length_b 14.093809
_cell_length_c 22.957155
_cell_angle_alpha 90.000000
_cell_angle_beta 158.798068
_cell_angle_gamma 90.000000
_cell_volume 3248.901352
_symmetry_space_group_name_H-M "C 2/C"
_symmetry_group_IT_number 15
_symmetry_cell_setting 'monoclinic'
loop_
_space_group_symop_operation_xyz
x,y,z
-x,y,1/2-z
-x,-y,-z
x,-y,1/2+z
1/2+x,1/2+y,z
1/2-x,1/2+y,1/2-z
1/2-x,1/2-y,-z
1/2+x,1/2-y,1/2+z
loop_
_atom_site_type_symbol
_atom_site_label
_atom_site_fract_x
_atom_site_fract_y
_atom_site_fract_z
Si Si1 0.648806 0.753571 0.440235
Si Si2 0.514958 0.597550 0.552694
Si Si3 0.760001 0.436944 0.710340
Si Si4 0.514578 0.806883 0.009312
Si Si5 0.187234 0.425816 0.118591
Si Si6 0.677488 0.108076 0.800170
Si Si7 0.957966 0.449892 0.140294
O O1 0.500000 0.730196 0.250000
O O2 0.750000 0.750000 0.500000
O O3 0.703615 0.679246 0.549541
O O4 0.637068 0.859349 0.454011
O O5 0.500000 0.500000 0.500000
O O6 0.392429 0.596500 0.459245
O O7 0.494540 0.694367 0.494177
O O8 0.668703 0.600892 0.744559
O O9 0.789786 0.498682 0.802634
O O10 0.777918 0.508398 0.676874
O O11 0.870917 0.354936 0.836345
O O12 0.608442 0.840564 0.061435
O O13 0.581261 0.847723 0.142678
O O14 0.104396 0.476486 0.974863
O O15 0.589489 0.090925 0.757846
O O16 0.000000 0.491145 0.250000
#
# Coordination Sequence:
#
# PCOD9272448 Si02
#       7
#     8   8   8   8   8   8   8
#     4  11  23  38  55  87 122 158 200 237 293 360
#     4  10  23  34  52  92 123 141 194 246 307 351
#     4  10  20  37  56  86 117 153 197 238 289 361
#     4  11  20  37  64  83 119 162 191 242 304 354
#     4  10  20  38  57  85 116 153 198 243 289 357
#     4  11  21  37  61  86 118 163 194 237 292 362
#     4  11  21  37  60  82 117 160 207 237 293 361
#
# _framework density 17.236595999999999
#
# number of rings (size 3 to 8) (size 9 to 14) (size 15 to 20)
#    0.000    1.429    5.714    1.714    4.000    4.571 
#    0.000    0.000    0.000    0.857    0.000    0.000 
#    0.000    0.000    0.000    0.000    0.000    0.000 
#
# Total GULP energy -156111.847477 kJ/mol
# GULP energy per Si atom -5575.423124 kJ/mol
# Density = 1.719736 g / cm^3
# Si number density = 17.236596 Si / 1000 Ang^3
#
#
#
# Elastic Constant Matrix: (Units=GPa)
#
#
# Indices 1 2 3 4 5 6 
#
# 1 79.1773 21.0168 31.8219 -0.0001 0.2253 -0.0001
# 2 21.0168 67.9007 21.8524 -0.0001 8.9916 -0.0001
# 3 31.8219 21.8524 96.7061 -0.0002 17.5428 -0.0002
# 4 -0.0001 -0.0001 -0.0002 28.4350 -0.0002 -1.3785
# 5 0.2253 8.9916 17.5428 -0.0002 30.2871 -0.0001
# 6 -0.0001 -0.0001 -0.0002 -1.3785 -0.0001 15.7965
#
#
#
# Elastic Compliance Matrix: (Units=1/GPa)
#
#
# Indices 1 2 3 4 5 6 
#
# 1 0.015622 -0.003741 -0.005001 0.000000 0.003891 0.000000
# 2 -0.003741 0.017017 -0.001903 0.000000 -0.003922 0.000000
# 3 -0.005001 -0.001903 0.013752 0.000000 -0.007363 0.000000
# 4 0.000000 0.000000 0.000000 0.035317 0.000000 0.003082
# 5 0.003891 -0.003922 -0.007363 0.000000 0.038418 0.000000
# 6 0.000000 0.000000 0.000000 0.003082 0.000000 0.063574
#
#
# Mechanical properties :
#
#
# Convention : Reuss Voigt Hill
#
# Bulk Modulus (GPa) = 39.83895 43.68514 41.76204
# Shear Modulus (GPa) = 23.43495 26.17659 24.80577
#
# Velocity S-wave (km/s) = 3.69128 3.90123 3.79771
# Velocity P-wave (km/s) = 6.42889 6.75960 6.59632
#
# Compressibility (1/GPa) = 0.02510106
#
# Stress axis : x y z
#
# Youngs Moduli (GPa) = 64.01322 58.76448 72.71725
#
# Poissons Ratio (x) = 0.21984 0.36366
# Poissons Ratio (y) = 0.23948 0.13836
# Poissons Ratio (z) = 0.32013 0.11182
#
# Static dielectric constant tensor:
#      x y z
#    x 1.576330 0.000000 0.034120 
#    y 0.000000 1.603520 0.000000 
#    z 0.034120 0.000000 1.604390 
# 
# From -- ./inp_files/283631.got.cif
#   From: 2010.05.17/outbox.cif.g08.bks.cpg/sg15_142_cif.got.tgz:283631.got - 2010.06.03 18:47:42.
