data_PCOD9272432
_publ_section_title
;
Structure prediction by ZEFSAII (Michael W. Deem and Ramdas Pophale) SiO2 
 PCOD9272432
Probable space group: C 2/C
;
_chemical_formula_sum "Si O2"
_cell_formula_units_Z 56
_cell_length_a 19.088668
_cell_length_b 16.020877
_cell_length_c 15.187196
_cell_angle_alpha 90.000000
_cell_angle_beta 149.722907
_cell_angle_gamma 90.000000
_cell_volume 2341.678056
_symmetry_space_group_name_H-M "C 2/C"
_symmetry_group_IT_number 15
_symmetry_cell_setting 'monoclinic'
loop_
_space_group_symop_operation_xyz
x,y,z
-x,y,1/2-z
-x,-y,-z
x,-y,1/2+z
1/2+x,1/2+y,z
1/2-x,1/2+y,1/2-z
1/2-x,1/2-y,-z
1/2+x,1/2-y,1/2+z
loop_
_atom_site_type_symbol
_atom_site_label
_atom_site_fract_x
_atom_site_fract_y
_atom_site_fract_z
Si Si1 0.072223 0.992747 0.410429
Si Si2 0.712510 0.565903 0.410838
Si Si3 0.227156 0.301430 0.643498
Si Si4 0.506214 0.814542 0.653503
Si Si5 0.454497 0.317221 0.452635
Si Si6 0.777777 0.572352 0.846193
Si Si7 0.822402 0.435212 0.768287
O O1 0.192958 0.045367 0.491479
O O2 0.000000 0.943189 0.250000
O O3 0.947717 0.055168 0.299216
O O4 0.157028 0.936359 0.567977
O O5 0.774630 0.654832 0.453708
O O6 0.785805 0.491546 0.436718
O O7 0.145544 0.218478 0.578253
O O8 0.155201 0.369628 0.629332
O O9 0.388450 0.301270 0.846108
O O10 0.500000 0.797560 0.750000
O O11 0.558274 0.738240 0.650728
O O12 0.355588 0.843586 0.456079
O O13 0.599051 0.896403 0.729564
O O14 0.381358 0.405060 0.348996
O O15 0.847064 0.525674 0.838177
#
# Coordination Sequence:
#
# PCOD9272432 Si02
#       7
#     8   8   8   8   8   8   8
#     4   8  17  32  53  90 105 137 186 243 291 315
#     4   8  18  33  59  81 110 142 194 243 275 328
#     4  10  20  37  56  84 113 154 193 235 276 348
#     4  11  24  39  54  88 125 157 181 234 298 357
#     4  11  22  37  56  83 118 155 193 223 292 341
#     4  11  20  37  59  84 110 154 201 233 281 334
#     4  10  20  37  62  83 113 148 200 243 276 337
#
# _framework density 23.914474999999999
#
# number of rings (size 3 to 8) (size 9 to 14) (size 15 to 20)
#    0.857    1.143    1.429    3.000    0.000    2.857 
#    5.143    0.000    0.000    7.714    0.000    0.000 
#    0.000    0.000    0.000    0.000    0.000    0.000 
#
# Total GULP energy -156067.537333 kJ/mol
# GULP energy per Si atom -5573.840619 kJ/mol
# Density = 2.386004 g / cm^3
# Si number density = 23.914475 Si / 1000 Ang^3
#
#
#
# Elastic Constant Matrix: (Units=GPa)
#
#
# Indices 1 2 3 4 5 6 
#
# 1 86.3834 25.1826 -5.8954 0.0000 18.0844 0.0000
# 2 25.1826 55.3231 -5.9772 0.0000 -0.7290 0.0000
# 3 -5.8954 -5.9772 30.2669 0.0000 15.3226 0.0000
# 4 0.0000 0.0000 0.0000 21.5559 0.0000 5.1634
# 5 18.0844 -0.7290 15.3226 0.0000 28.8746 0.0000
# 6 0.0000 0.0000 0.0000 5.1634 0.0000 30.0995
#
#
#
# Elastic Compliance Matrix: (Units=1/GPa)
#
#
# Indices 1 2 3 4 5 6 
#
# 1 0.018032 -0.007270 0.010784 0.000000 -0.017200 0.000000
# 2 -0.007270 0.021486 0.000338 0.000000 0.004916 0.000000
# 3 0.010784 0.000338 0.052809 0.000000 -0.034769 0.000000
# 4 0.000000 0.000000 0.000000 0.048379 0.000000 -0.008299
# 5 -0.017200 0.004916 -0.034769 0.000000 0.063980 0.000000
# 6 0.000000 0.000000 0.000000 -0.008299 0.000000 0.034647
#
#
# Mechanical properties :
#
#
# Convention : Reuss Voigt Hill
#
# Bulk Modulus (GPa) = 9.99664 22.06593 16.03129
# Shear Modulus (GPa) = 18.86995 26.68357 22.77676
#
# Velocity S-wave (km/s) = 2.81207 3.34397 3.08949
# Velocity P-wave (km/s) = 3.83834 4.91493 4.40962
#
# Compressibility (1/GPa) = 0.10003360
#
# Stress axis : x y z
#
# Youngs Moduli (GPa) = 55.45545 46.54170 18.93621
#
# Poissons Ratio (x) = 0.33835 -0.20422
# Poissons Ratio (y) = 0.40315 -0.00641
# Poissons Ratio (z) = -0.59805 -0.01575
#
# Static dielectric constant tensor:
#      x y z
#    x 1.996670 0.000000 -0.002230 
#    y 0.000000 1.985860 0.000000 
#    z -0.002230 0.000000 1.997860 
# 
# From -- ./inp_files/163089.got.cif
#   From: 2010.05.17/outbox.cif.g08.bks.cpg/sg15_82_cif.got.tgz:163089.got - 2010.06.03 18:47:42.
