data_PCOD9272937
_publ_section_title
;
Structure prediction by ZEFSAII (Michael W. Deem and Ramdas Pophale) SiO2 
 PCOD9272937
Probable space group: C 2/C
;
_chemical_formula_sum "Si O2"
_cell_formula_units_Z 56
_cell_length_a 14.984802
_cell_length_b 9.335327
_cell_length_c 18.302632
_cell_angle_alpha 90.000000
_cell_angle_beta 60.744102
_cell_angle_gamma 90.000000
_cell_volume 2233.739377
_symmetry_space_group_name_H-M "C 2/C"
_symmetry_group_IT_number 15
_symmetry_cell_setting 'monoclinic'
loop_
_space_group_symop_operation_xyz
x,y,z
-x,y,1/2-z
-x,-y,-z
x,-y,1/2+z
1/2+x,1/2+y,z
1/2-x,1/2+y,1/2-z
1/2-x,1/2-y,-z
1/2+x,1/2-y,1/2+z
loop_
_atom_site_type_symbol
_atom_site_label
_atom_site_fract_x
_atom_site_fract_y
_atom_site_fract_z
Si Si1 0.614819 0.473516 0.427229
Si Si2 0.404994 0.676250 0.341700
Si Si3 0.628946 0.361443 0.114136
Si Si4 0.360291 0.773867 0.033908
Si Si5 0.079688 0.690789 0.515845
Si Si6 0.298294 0.067416 0.155252
Si Si7 0.834551 0.171196 0.739626
O O1 0.500000 0.500000 0.500000
O O2 0.676578 0.615217 0.423238
O O3 0.641364 0.328234 0.458966
O O4 0.622316 0.434812 0.339395
O O5 0.500000 0.697636 0.250000
O O6 0.411174 0.522595 0.380946
O O7 0.401302 0.798946 0.405235
O O8 0.305796 0.642757 0.332262
O O9 0.591437 0.255841 0.066187
O O10 0.608437 0.325039 0.206349
O O11 0.753561 0.355618 0.060729
O O12 0.459113 0.799966 0.046110
O O13 0.124313 0.569238 0.444535
O O14 0.333060 0.172928 0.205246
O O15 0.272273 0.909790 0.196943
#
# Coordination Sequence:
#
# PCOD9272937 Si02
#       7
#     8   8   8   8   8   8   8
#     4   9  18  32  58  88 120 164 211 266 321 387
#     4  11  24  38  66  96 126 169 230 277 325 404
#     4  10  22  35  58  95 127 163 223 269 326 397
#     4  10  20  37  61  90 132 171 211 274 345 390
#     4  10  21  39  65  92 128 172 224 267 339 400
#     4  10  23  41  65  97 131 170 219 283 326 401
#     4  10  21  38  63  91 131 170 211 273 334 389
#
# _framework density 25.070067999999999
#
# number of rings (size 3 to 8) (size 9 to 14) (size 15 to 20)
#    0.000    2.000    1.429    1.286   10.000    2.286 
#    0.000    2.857    3.143    0.000    0.000    0.000 
#    0.000    0.000    0.000    0.000    0.000    0.000 
#
# Total GULP energy -156296.018931 kJ/mol
# GULP energy per Si atom -5582.000676 kJ/mol
# Density = 2.501301 g / cm^3
# Si number density = 25.070068 Si / 1000 Ang^3
#
#
#
# Elastic Constant Matrix: (Units=GPa)
#
#
# Indices 1 2 3 4 5 6 
#
# 1 68.2566 4.7757 24.6730 0.0000 -0.9457 0.0000
# 2 4.7757 46.5299 -7.7403 0.0000 -9.1707 0.0000
# 3 24.6730 -7.7403 143.8720 0.0000 8.3705 0.0000
# 4 0.0000 0.0000 0.0000 26.7117 0.0000 -0.0127
# 5 -0.9457 -9.1707 8.3705 0.0000 50.4518 0.0000
# 6 0.0000 0.0000 0.0000 -0.0127 0.0000 21.9785
#
#
#
# Elastic Compliance Matrix: (Units=1/GPa)
#
#
# Indices 1 2 3 4 5 6 
#
# 1 0.015826 -0.002019 -0.002846 0.000000 0.000402 0.000000
# 2 -0.002019 0.022683 0.001342 0.000000 0.003863 0.000000
# 3 -0.002846 0.001342 0.007573 0.000000 -0.001066 0.000000
# 4 0.000000 0.000000 0.000000 0.037437 0.000000 0.000022
# 5 0.000402 0.003863 -0.001066 0.000000 0.020707 0.000000
# 6 0.000000 0.000000 0.000000 0.000022 0.000000 0.045499
#
#
# Mechanical properties :
#
#
# Convention : Reuss Voigt Hill
#
# Bulk Modulus (GPa) = 25.61695 33.56392 29.59044
# Shear Modulus (GPa) = 29.44929 35.62508 32.53719
#
# Velocity S-wave (km/s) = 3.43108 3.77373 3.60648
# Velocity P-wave (km/s) = 5.09281 5.69255 5.40101
#
# Compressibility (1/GPa) = 0.03903665
#
# Stress axis : x y z
#
# Youngs Moduli (GPa) = 63.18649 44.08538 132.04974
#
# Poissons Ratio (x) = 0.08899 0.37582
# Poissons Ratio (y) = 0.12755 -0.17718
# Poissons Ratio (z) = 0.17983 -0.05915
#
# Static dielectric constant tensor:
#      x y z
#    x 1.958050 0.000000 -0.005120 
#    y 0.000000 2.178630 0.000000 
#    z -0.005120 0.000000 2.051990 
# 
# From -- ./inp_files/210233.got.cif
#   From: 2010.05.17/outbox.cif.g08.bks.cpg/sg15_106_cif.got.tgz:210233.got - 2010.06.03 18:47:42.
