data_PCOD9272351
_publ_section_title
;
Structure prediction by ZEFSAII (Michael W. Deem and Ramdas Pophale) SiO2 
 PCOD9272351
Probable space group: C 2/C
;
_chemical_formula_sum "Si O2"
_cell_formula_units_Z 32
_cell_length_a 14.953348
_cell_length_b 18.728261
_cell_length_c 5.710809
_cell_angle_alpha 90.000000
_cell_angle_beta 50.621795
_cell_angle_gamma 90.000000
_cell_volume 1236.229086
_symmetry_space_group_name_H-M "C 2/C"
_symmetry_group_IT_number 15
_symmetry_cell_setting 'monoclinic'
loop_
_space_group_symop_operation_xyz
x,y,z
-x,y,1/2-z
-x,-y,-z
x,-y,1/2+z
1/2+x,1/2+y,z
1/2-x,1/2+y,1/2-z
1/2-x,1/2-y,-z
1/2+x,1/2-y,1/2+z
loop_
_atom_site_type_symbol
_atom_site_label
_atom_site_fract_x
_atom_site_fract_y
_atom_site_fract_z
Si Si1 0.000000 0.207950 0.250000
Si Si2 0.128456 0.739972 0.928600
Si Si3 0.000000 0.456246 0.250000
Si Si4 0.309101 0.614848 0.713119
Si Si5 0.247034 0.894648 0.710476
O O1 0.904181 0.255729 0.289676
O O2 0.930538 0.156027 0.536510
O O3 0.204111 0.672573 0.872364
O O4 0.198280 0.814115 0.840013
O O5 0.000000 0.734872 0.250000
O O6 0.000000 0.500000 0.500000
O O7 0.882567 0.410411 0.454605
O O8 0.309128 0.585486 0.447178
O O9 0.286993 0.569822 0.983027
#
# Coordination Sequence:
#
# PCOD9272351 Si02
#       5
#     4   8   4   8   8
#     4  10  20  37  50  86 136 188 220 249 286 362
#     4  11  23  35  59  95 143 178 218 242 315 403
#     4  12  28  51  76  96 120 164 230 299 340 372
#     4  11  24  36  62  98 139 184 210 250 308 410
#     4  11  24  43  64  95 127 170 215 275 329 378
#
# _framework density 25.885166999999999
#
# number of rings (size 3 to 8) (size 9 to 14) (size 15 to 20)
#    0.000    1.000    2.500    5.250    7.000    1.000 
#    0.000    0.000    0.000    1.500    0.000    0.000 
#    0.000    0.000    0.000    0.000    0.000    0.000 
#
# Total GULP energy -89299.353440 kJ/mol
# GULP energy per Si atom -5581.209590 kJ/mol
# Density = 2.582625 g / cm^3
# Si number density = 25.885167 Si / 1000 Ang^3
#
#
#
# Elastic Constant Matrix: (Units=GPa)
#
#
# Indices 1 2 3 4 5 6 
#
# 1 134.5412 28.9085 48.7686 0.0000 22.3885 0.0000
# 2 28.9085 121.6647 46.1872 0.0000 -10.3855 0.0000
# 3 48.7686 46.1872 225.3138 0.0000 10.0945 0.0000
# 4 0.0000 0.0000 0.0000 2.1225 0.0000 -13.8007
# 5 22.3885 -10.3855 10.0945 0.0000 77.6519 0.0000
# 6 0.0000 0.0000 0.0000 -13.8007 0.0000 8.0578
#
#
#
# Elastic Compliance Matrix: (Units=1/GPa)
#
#
# Indices 1 2 3 4 5 6 
#
# 1 0.008754 -0.001761 -0.001418 0.000000 -0.002575 0.000000
# 2 -0.001761 0.009430 -0.001641 0.000000 0.001982 0.000000
# 3 -0.001418 -0.001641 0.005103 0.000000 -0.000474 0.000000
# 4 0.000000 0.000000 0.000000 -0.046481 0.000000 -0.079608
# 5 -0.002575 0.001982 -0.000474 0.000000 0.013947 0.000000
# 6 0.000000 0.000000 0.000000 -0.079608 0.000000 -0.012243
#
#
# Mechanical properties :
#
#
# Convention : Reuss Voigt Hill
#
# Bulk Modulus (GPa) = 73.28224 81.02760 77.15492
# Shear Modulus (GPa) = -684.80032 41.41011 -321.69511
#
# Velocity S-wave (km/s) = -16.28274 4.00404 -11.16009
# Velocity P-wave (km/s) = 18.03140 7.26272 11.67014
#
# Compressibility (1/GPa) = 0.01364587
#
# Stress axis : x y z
#
# Youngs Moduli (GPa) = 114.23695 106.04619 195.97161
#
# Poissons Ratio (x) = 0.18678 0.27795
# Poissons Ratio (y) = 0.20121 0.32151
# Poissons Ratio (z) = 0.16202 0.17398
#
# Static dielectric constant tensor:
#      x y z
#    x 2.038750 0.000000 0.130030 
#    y 0.000000 2.068460 0.000000 
#    z 0.130030 0.000000 2.174090 
# 
# From -- ./inp_files/7194.got.cif
#   From: 2010.05.17/outbox.cif.g08.bks.cpg/sg15_4_cif.got.tgz:7194.got - 2010.06.03 18:47:42.
