data_PCOD9272928
_publ_section_title
;
Structure prediction by ZEFSAII (Michael W. Deem and Ramdas Pophale) SiO2 
 PCOD9272928
Probable space group: C 2/C
;
_chemical_formula_sum "Si O2"
_cell_formula_units_Z 48
_cell_length_a 12.382080
_cell_length_b 13.381060
_cell_length_c 15.865935
_cell_angle_alpha 90.000000
_cell_angle_beta 57.591403
_cell_angle_gamma 90.000000
_cell_volume 2219.318261
_symmetry_space_group_name_H-M "C 2/C"
_symmetry_group_IT_number 15
_symmetry_cell_setting 'monoclinic'
loop_
_space_group_symop_operation_xyz
x,y,z
-x,y,1/2-z
-x,-y,-z
x,-y,1/2+z
1/2+x,1/2+y,z
1/2-x,1/2+y,1/2-z
1/2-x,1/2-y,-z
1/2+x,1/2-y,1/2+z
loop_
_atom_site_type_symbol
_atom_site_label
_atom_site_fract_x
_atom_site_fract_y
_atom_site_fract_z
Si Si1 0.874346 0.706069 0.998177
Si Si2 0.767105 0.496411 0.515496
Si Si3 0.844586 0.101796 0.081965
Si Si4 0.801861 0.189187 0.856845
Si Si5 0.454680 0.316336 0.126501
Si Si6 0.508054 0.371493 0.650532
O O1 0.871827 0.587609 0.989059
O O2 0.887359 0.738643 0.090273
O O3 0.750000 0.750000 0.000000
O O4 0.981686 0.767889 0.904391
O O5 0.752093 0.528107 0.424518
O O6 0.771376 0.596589 0.569039
O O7 0.632401 0.441090 0.591142
O O8 0.779394 0.210246 0.110569
O O9 0.887944 0.074690 0.157630
O O10 0.974376 0.108628 0.969642
O O11 0.853886 0.158443 0.742554
O O12 0.922430 0.213607 0.868038
O O13 0.500000 0.346988 0.750000
#
# Coordination Sequence:
#
# PCOD9272928 Si02
#       6
#     8   8   8   8   8   8
#     4   9  20  38  56  82 123 157 183 245 297 347
#     4  10  20  37  61  90 112 153 202 236 292 349
#     4  10  21  39  60  87 120 153 193 249 289 346
#     4  10  21  37  64  87 118 156 196 245 289 348
#     4   9  19  37  57  83 118 151 196 236 294 334
#     4  10  22  37  59  85 120 154 195 242 301 342
#
# _framework density 21.628264000000001
#
# number of rings (size 3 to 8) (size 9 to 14) (size 15 to 20)
#    0.000    2.333    0.000    2.500    9.333    1.333 
#    0.000    7.500    7.333    0.000    0.000    0.000 
#    0.000    0.000    0.000    0.000    0.000    0.000 
#
# Total GULP energy -133743.788485 kJ/mol
# GULP energy per Si atom -5572.657854 kJ/mol
# Density = 2.157904 g / cm^3
# Si number density = 21.628264 Si / 1000 Ang^3
#
#
#
# Elastic Constant Matrix: (Units=GPa)
#
#
# Indices 1 2 3 4 5 6 
#
# 1 50.9319 22.4361 30.6976 0.0000 27.9069 0.0000
# 2 22.4361 90.2583 21.6388 0.0000 9.9737 0.0000
# 3 30.6976 21.6388 111.7683 0.0000 41.1223 0.0000
# 4 0.0000 0.0000 0.0000 14.5867 0.0000 7.4857
# 5 27.9069 9.9737 41.1223 0.0000 36.6656 0.0000
# 6 0.0000 0.0000 0.0000 7.4857 0.0000 19.2120
#
#
#
# Elastic Compliance Matrix: (Units=1/GPa)
#
#
# Indices 1 2 3 4 5 6 
#
# 1 0.036918 -0.006423 0.001361 0.000000 -0.027878 0.000000
# 2 -0.006423 0.012761 -0.002091 0.000000 0.003762 0.000000
# 3 0.001361 -0.002091 0.015578 0.000000 -0.017939 0.000000
# 4 0.000000 0.000000 0.000000 0.085690 0.000000 -0.033388
# 5 -0.027878 0.003762 -0.017939 0.000000 0.067588 0.000000
# 6 0.000000 0.000000 0.000000 -0.033388 0.000000 0.065060
#
#
# Mechanical properties :
#
#
# Convention : Reuss Voigt Hill
#
# Bulk Modulus (GPa) = 19.62602 44.72261 32.17431
# Shear Modulus (GPa) = 15.87878 25.97192 20.92535
#
# Velocity S-wave (km/s) = 2.71249 3.46906 3.11384
# Velocity P-wave (km/s) = 4.34789 6.06371 5.27602
#
# Compressibility (1/GPa) = 0.05095277
#
# Stress axis : x y z
#
# Youngs Moduli (GPa) = 27.08676 78.36148 64.19221
#
# Poissons Ratio (x) = 0.50329 -0.08735
# Poissons Ratio (y) = 0.17397 0.13421
# Poissons Ratio (z) = -0.03686 0.16384
#
# Static dielectric constant tensor:
#      x y z
#    x 1.866120 0.000000 0.016460 
#    y 0.000000 1.855340 0.000000 
#    z 0.016460 0.000000 1.826750 
# 
# From -- ./inp_files/151830.got.cif
#   From: 2010.05.17/outbox.cif.g08.bks.cpg/sg15_76_cif.got.tgz:151830.got - 2010.06.03 18:47:42.
