data_PCOD9272292
_publ_section_title
;
Structure prediction by ZEFSAII (Michael W. Deem and Ramdas Pophale) SiO2 
 PCOD9272292
Probable space group: C 2/C
;
_chemical_formula_sum "Si O2"
_cell_formula_units_Z 52
_cell_length_a 8.694602
_cell_length_b 16.788415
_cell_length_c 17.872154
_cell_angle_alpha 90.000000
_cell_angle_beta 116.012041
_cell_angle_gamma 90.000000
_cell_volume 2344.509307
_symmetry_space_group_name_H-M "C 2/C"
_symmetry_group_IT_number 15
_symmetry_cell_setting 'monoclinic'
loop_
_space_group_symop_operation_xyz
x,y,z
-x,y,1/2-z
-x,-y,-z
x,-y,1/2+z
1/2+x,1/2+y,z
1/2-x,1/2+y,1/2-z
1/2-x,1/2-y,-z
1/2+x,1/2-y,1/2+z
loop_
_atom_site_type_symbol
_atom_site_label
_atom_site_fract_x
_atom_site_fract_y
_atom_site_fract_z
Si Si1 0.533684 0.138909 0.495484
Si Si2 0.940251 0.354374 0.657735
Si Si3 0.500000 0.138129 0.750000
Si Si4 0.074427 0.904995 0.625237
Si Si5 0.199483 0.500139 0.712415
Si Si6 0.589265 0.241354 0.908145
Si Si7 0.757028 0.006814 0.051782
O O1 0.502159 0.182546 0.409330
O O2 0.550584 0.199281 0.567242
O O3 0.383926 0.076921 0.488486
O O4 0.687728 0.078156 0.511450
O O5 0.738441 0.368808 0.618921
O O6 0.000000 0.316892 0.750000
O O7 0.036994 0.440017 0.676180
O O8 0.633154 0.081224 0.734753
O O9 0.597401 0.189073 0.834675
O O10 0.966914 0.828851 0.629019
O O11 0.933290 0.960880 0.556782
O O12 0.159644 0.957369 0.707707
O O13 0.267305 0.505530 0.643199
O O14 0.750000 0.250000 0.000000
#
# Coordination Sequence:
#
# PCOD9272292 Si02
#       7
#     8   8   4   8   8   8   8
#     4  10  21  40  63  93 139 181 222 290 349 406
#     4   9  20  38  67  93 130 177 231 280 351 405
#     4  12  24  46  74  96 146 182 228 290 346 422
#     4  11  22  39  69  98 134 174 241 282 343 421
#     4  10  20  42  69  98 129 186 231 282 347 414
#     4  12  27  44  68 109 141 187 234 293 357 424
#     4  10  20  36  67  95 135 174 231 282 338 415
#
# _framework density 22.179480000000002
#
# number of rings (size 3 to 8) (size 9 to 14) (size 15 to 20)
#    0.000    1.538    5.385    0.462    2.154    2.462 
#    2.769    0.000   10.154    0.000    0.000    0.000 
#    0.000    0.000    0.000    0.000    0.000    0.000 
#
# Total GULP energy -145026.777913 kJ/mol
# GULP energy per Si atom -5577.952997 kJ/mol
# Density = 2.212900 g / cm^3
# Si number density = 22.179480 Si / 1000 Ang^3
#
#
#
# Elastic Constant Matrix: (Units=GPa)
#
#
# Indices 1 2 3 4 5 6 
#
# 1 51.4192 15.4356 14.8377 0.0000 17.8188 0.0000
# 2 15.4356 83.1436 36.7111 0.0000 10.4503 0.0000
# 3 14.8377 36.7111 76.7193 0.0000 -7.1845 0.0000
# 4 0.0000 0.0000 0.0000 30.7653 0.0000 0.8502
# 5 17.8188 10.4503 -7.1845 0.0000 45.0188 0.0000
# 6 0.0000 0.0000 0.0000 0.8502 0.0000 7.7033
#
#
#
# Elastic Compliance Matrix: (Units=1/GPa)
#
#
# Indices 1 2 3 4 5 6 
#
# 1 0.024912 -0.000944 -0.005349 0.000000 -0.010495 0.000000
# 2 -0.000944 0.016368 -0.008092 0.000000 -0.004717 0.000000
# 3 -0.005349 -0.008092 0.018593 0.000000 0.006963 0.000000
# 4 0.000000 0.000000 0.000000 0.032604 0.000000 -0.003599
# 5 -0.010495 -0.004717 0.006963 0.000000 0.028573 0.000000
# 6 0.000000 0.000000 0.000000 -0.003599 0.000000 0.130212
#
#
# Mechanical properties :
#
#
# Convention : Reuss Voigt Hill
#
# Bulk Modulus (GPa) = 32.15044 38.36122 35.25583
# Shear Modulus (GPa) = 17.21768 26.31731 21.76749
#
# Velocity S-wave (km/s) = 2.78922 3.44839 3.13617
# Velocity P-wave (km/s) = 4.98999 5.76095 5.38927
#
# Compressibility (1/GPa) = 0.03110377
#
# Stress axis : x y z
#
# Youngs Moduli (GPa) = 40.14163 61.09364 53.78355
#
# Poissons Ratio (x) = 0.05767 0.28769
# Poissons Ratio (y) = 0.03789 0.43520
# Poissons Ratio (z) = 0.21472 0.49435
#
# Static dielectric constant tensor:
#      x y z
#    x 1.858880 0.000000 -0.000340 
#    y 0.000000 1.817190 0.000000 
#    z -0.000340 0.000000 1.914330 
# 
# From -- ./inp_files/191119.got.cif
#   From: 2010.05.17/outbox.cif.g08.bks.cpg/sg15_96_cif.got.tgz:191119.got - 2010.06.03 18:47:42.
