data_PCOD9272549
_publ_section_title
;
Structure prediction by ZEFSAII (Michael W. Deem and Ramdas Pophale) SiO2 
 PCOD9272549
Probable space group: C 2/C
;
_chemical_formula_sum "Si O2"
_cell_formula_units_Z 40
_cell_length_a 17.822916
_cell_length_b 13.137552
_cell_length_c 15.761246
_cell_angle_alpha 90.000000
_cell_angle_beta 149.287759
_cell_angle_gamma 90.000000
_cell_volume 1884.830245
_symmetry_space_group_name_H-M "C 2/C"
_symmetry_group_IT_number 15
_symmetry_cell_setting 'monoclinic'
loop_
_space_group_symop_operation_xyz
x,y,z
-x,y,1/2-z
-x,-y,-z
x,-y,1/2+z
1/2+x,1/2+y,z
1/2-x,1/2+y,1/2-z
1/2-x,1/2-y,-z
1/2+x,1/2-y,1/2+z
loop_
_atom_site_type_symbol
_atom_site_label
_atom_site_fract_x
_atom_site_fract_y
_atom_site_fract_z
Si Si1 0.500785 0.893382 0.647826
Si Si2 0.004644 0.376063 0.152952
Si Si3 0.761997 0.753023 0.320550
Si Si4 0.703113 0.717364 0.049708
Si Si5 0.517284 0.616676 0.987835
O O1 0.500000 0.896710 0.750000
O O2 0.368823 0.822728 0.487552
O O3 0.652414 0.837366 0.774203
O O4 0.493391 0.008022 0.609886
O O5 0.156829 0.327812 0.270626
O O6 0.000000 0.375913 0.250000
O O7 0.871187 0.311272 0.985785
O O8 0.649328 0.674098 0.166431
O O9 0.869970 0.822879 0.368736
O O10 0.570488 0.637290 0.941885
O O11 0.750000 0.750000 0.000000
O O12 0.500000 0.500000 0.000000
#
# Coordination Sequence:
#
# PCOD9272549 Si02
#       5
#     8   8   8   8   8
#     4   9  19  34  57  84 114 150 198 255 308 360
#     4  10  20  39  61  85 117 159 207 260 316 382
#     4  10  23  38  59  89 120 160 207 260 322 386
#     4  10  20  37  58  84 116 157 203 250 302 372
#     4  11  23  40  61  90 128 166 207 263 325 386
#
# _framework density 21.222069999999999
#
# number of rings (size 3 to 8) (size 9 to 14) (size 15 to 20)
#    0.000    2.000    0.000    3.000    0.000    3.200 
#    0.000    7.000    0.000    2.400    0.000    0.000 
#    0.000    0.000    0.000    0.000    0.000    0.000 
#
# Total GULP energy -111567.600935 kJ/mol
# GULP energy per Si atom -5578.380047 kJ/mol
# Density = 2.117377 g / cm^3
# Si number density = 21.222070 Si / 1000 Ang^3
#
#
#
# Elastic Constant Matrix: (Units=GPa)
#
#
# Indices 1 2 3 4 5 6 
#
# 1 132.0833 71.8845 51.9332 0.0000 38.6780 0.0000
# 2 71.8845 213.0424 73.9150 0.0000 30.8766 0.0000
# 3 51.9332 73.9150 129.0638 0.0000 35.5804 0.0000
# 4 0.0000 0.0000 0.0000 28.8468 0.0000 -2.7846
# 5 38.6780 30.8766 35.5804 0.0000 40.0949 0.0000
# 6 0.0000 0.0000 0.0000 -2.7846 0.0000 21.8764
#
#
#
# Elastic Compliance Matrix: (Units=1/GPa)
#
#
# Indices 1 2 3 4 5 6 
#
# 1 0.011793 -0.002379 -0.000995 0.000000 -0.008661 0.000000
# 2 -0.002379 0.006465 -0.002655 0.000000 -0.000328 0.000000
# 3 -0.000995 -0.002655 0.011704 0.000000 -0.007381 0.000000
# 4 0.000000 0.000000 0.000000 0.035097 0.000000 0.004467
# 5 -0.008661 -0.000328 -0.007381 0.000000 0.040099 0.000000
# 6 0.000000 0.000000 0.000000 0.004467 0.000000 0.046280
#
#
# Mechanical properties :
#
#
# Convention : Reuss Voigt Hill
#
# Bulk Modulus (GPa) = 55.85205 96.62830 76.24017
# Shear Modulus (GPa) = 29.50461 36.59407 33.04934
#
# Velocity S-wave (km/s) = 3.73269 4.15702 3.95056
# Velocity P-wave (km/s) = 6.70465 8.28685 7.53738
#
# Compressibility (1/GPa) = 0.01790445
#
# Stress axis : x y z
#
# Youngs Moduli (GPa) = 84.79473 154.67392 85.43993
#
# Poissons Ratio (x) = 0.36790 0.08505
# Poissons Ratio (y) = 0.20169 0.22685
# Poissons Ratio (z) = 0.08440 0.41067
#
# Static dielectric constant tensor:
#      x y z
#    x 1.889160 0.000000 -0.046000 
#    y 0.000000 1.737030 0.000000 
#    z -0.046000 0.000000 1.761790 
# 
# From -- ./inp_files/46055.got.cif
#   From: 2010.05.17/outbox.cif.g08.bks.cpg/sg15_24_cif.got.tgz:46055.got - 2010.06.03 18:47:42.
