data_PCOD9272799
_publ_section_title
;
Structure prediction by ZEFSAII (Michael W. Deem and Ramdas Pophale) SiO2 
 PCOD9272799
Probable space group: C 2/C
;
_chemical_formula_sum "Si O2"
_cell_formula_units_Z 60
_cell_length_a 25.472005
_cell_length_b 8.080919
_cell_length_c 29.330585
_cell_angle_alpha 90.000000
_cell_angle_beta 151.742029
_cell_angle_gamma 90.000000
_cell_volume 2858.324864
_symmetry_space_group_name_H-M "C 2/C"
_symmetry_group_IT_number 15
_symmetry_cell_setting 'monoclinic'
loop_
_space_group_symop_operation_xyz
x,y,z
-x,y,1/2-z
-x,-y,-z
x,-y,1/2+z
1/2+x,1/2+y,z
1/2-x,1/2+y,1/2-z
1/2-x,1/2-y,-z
1/2+x,1/2-y,1/2+z
loop_
_atom_site_type_symbol
_atom_site_label
_atom_site_fract_x
_atom_site_fract_y
_atom_site_fract_z
Si Si1 0.358048 0.434256 0.760092
Si Si2 0.456583 0.642809 0.165049
Si Si3 0.052421 0.506619 0.381740
Si Si4 0.106336 0.057396 0.609477
Si Si5 0.124143 0.452484 0.606691
Si Si6 0.000000 0.705487 0.250000
Si Si7 0.285535 0.386273 0.064022
Si Si8 0.161739 0.552622 0.733355
O O1 0.452727 0.461016 0.794866
O O2 0.394272 0.498919 0.838109
O O3 0.229432 0.485957 0.654250
O O4 0.347515 0.235000 0.753490
O O5 0.500000 0.673672 0.250000
O O6 0.437939 0.813979 0.124403
O O7 0.343490 0.540570 0.083196
O O8 0.167110 0.559801 0.493240
O O9 0.028149 0.598263 0.315672
O O10 0.944391 0.542702 0.329295
O O11 0.121802 0.256849 0.618158
O O12 0.214968 0.983050 0.666813
O O13 0.000000 0.000000 0.500000
O O14 0.151176 0.561899 0.671302
O O15 0.000000 0.500000 0.500000
O O16 0.887161 0.810947 0.170601
O O17 0.250000 0.250000 0.000000
#
# Coordination Sequence:
#
# PCOD9272799 Si02
#       8
#     8   8   8   8   8   4   8   8
#     4   9  21  39  61  85 121 156 200 257 293 356
#     4  11  21  40  64  89 120 167 216 253 308 374
#     4  10  21  40  62  88 119 165 209 256 308 368
#     4  10  20  38  59  89 121 158 199 246 307 363
#     4  10  20  37  60  89 119 155 197 246 306 365
#     4  10  20  40  58  86 126 160 202 260 306 370
#     4  10  22  39  59  85 125 156 201 258 311 363
#     4   9  20  39  59  84 119 153 202 252 293 358
#
# _framework density 20.991316999999999
#
# number of rings (size 3 to 8) (size 9 to 14) (size 15 to 20)
#    0.000    2.133    1.333    1.200    0.000    4.267 
#    7.200    2.667    0.000    0.000    0.000    0.000 
#    0.000    0.000    0.000    0.000    0.000    0.000 
#
# Total GULP energy -167160.647198 kJ/mol
# GULP energy per Si atom -5572.021573 kJ/mol
# Density = 2.094354 g / cm^3
# Si number density = 20.991317 Si / 1000 Ang^3
#
#
#
# Elastic Constant Matrix: (Units=GPa)
#
#
# Indices 1 2 3 4 5 6 
#
# 1 92.1605 -1.5493 44.4273 0.0001 35.1777 0.0001
# 2 -1.5493 27.9214 11.6692 0.0009 7.8148 0.0003
# 3 44.4273 11.6692 153.3729 -0.0001 44.8323 0.0001
# 4 0.0001 0.0009 -0.0001 23.3596 0.0000 1.7179
# 5 35.1777 7.8148 44.8323 0.0000 40.5456 -0.0001
# 6 0.0001 0.0003 0.0001 1.7179 -0.0001 17.6562
#
#
#
# Elastic Compliance Matrix: (Units=1/GPa)
#
#
# Indices 1 2 3 4 5 6 
#
# 1 0.017063 0.005503 -0.001070 0.000000 -0.014682 0.000000
# 2 0.005503 0.039759 -0.001453 -0.000001 -0.010831 -0.000001
# 3 -0.001070 -0.001453 0.009733 0.000000 -0.009554 0.000000
# 4 0.000000 -0.000001 0.000000 0.043117 0.000000 -0.004195
# 5 -0.014682 -0.010831 -0.009554 0.000000 0.050054 0.000000
# 6 0.000000 -0.000001 0.000000 -0.004195 0.000000 0.057045
#
#
# Mechanical properties :
#
#
# Convention : Reuss Voigt Hill
#
# Bulk Modulus (GPa) = 13.79015 42.50546 28.14781
# Shear Modulus (GPa) = 21.27818 30.90613 26.09216
#
# Velocity S-wave (km/s) = 3.18727 3.84126 3.52944
# Velocity P-wave (km/s) = 4.48649 6.32192 5.48157
#
# Compressibility (1/GPa) = 0.07251551
#
# Stress axis : x y z
#
# Youngs Moduli (GPa) = 58.60701 25.15162 102.74074
#
# Poissons Ratio (x) = -0.13841 0.10989
# Poissons Ratio (y) = -0.32251 0.14929
# Poissons Ratio (z) = 0.06269 0.03655
#
# Static dielectric constant tensor:
#      x y z
#    x 1.799760 0.000010 0.035020 
#    y 0.000010 1.874430 -0.000010 
#    z 0.035020 -0.000010 1.815470 
# 
# From -- ./inp_files/302091.got.cif
#   From: 2010.05.17/outbox.cif.g08.bks.cpg/sg15_152_cif.got.tgz:302091.got - 2010.06.03 18:47:42.
