data_PCOD9272959
_publ_section_title
;
Structure prediction by ZEFSAII (Michael W. Deem and Ramdas Pophale) SiO2 
 PCOD9272959
Probable space group: C 2/C
;
_chemical_formula_sum "Si O2"
_cell_formula_units_Z 48
_cell_length_a 12.071110
_cell_length_b 30.132519
_cell_length_c 8.363354
_cell_angle_alpha 90.000000
_cell_angle_beta 142.371734
_cell_angle_gamma 90.000000
_cell_volume 1857.267121
_symmetry_space_group_name_H-M "C 2/C"
_symmetry_group_IT_number 15
_symmetry_cell_setting 'monoclinic'
loop_
_space_group_symop_operation_xyz
x,y,z
-x,y,1/2-z
-x,-y,-z
x,-y,1/2+z
1/2+x,1/2+y,z
1/2-x,1/2+y,1/2-z
1/2-x,1/2-y,-z
1/2+x,1/2-y,1/2+z
loop_
_atom_site_type_symbol
_atom_site_label
_atom_site_fract_x
_atom_site_fract_y
_atom_site_fract_z
Si Si1 0.866617 0.137759 0.245248
Si Si2 0.216952 0.513039 0.967738
Si Si3 0.607895 0.190192 0.537285
Si Si4 0.734105 0.433253 0.669644
Si Si5 0.280543 0.228403 0.360230
Si Si6 0.640217 0.900786 0.217260
O O1 0.890137 0.107980 0.428364
O O2 0.859444 0.187975 0.292720
O O3 0.000000 0.131788 0.250000
O O4 0.683085 0.120527 0.943586
O O5 0.284754 0.464441 0.003109
O O6 0.236353 0.551172 0.852834
O O7 0.000000 0.510236 0.750000
O O8 0.298210 0.533480 0.219213
O O9 0.500000 0.188348 0.250000
O O10 0.463892 0.203686 0.513132
O O11 0.745159 0.231285 0.699259
O O12 0.690954 0.141805 0.667364
O O13 0.942417 0.415321 0.922334
O O14 0.250000 0.250000 0.500000
#
# Coordination Sequence:
#
# PCOD9272959 Si02
#       6
#     8   8   8   8   8   8
#     4  11  22  39  61  91 119 165 218 263 295 373
#     4   9  18  32  60  93 122 150 201 265 307 364
#     4  12  26  42  63  98 134 161 201 270 325 373
#     4  10  20  37  61  92 125 154 213 260 316 370
#     4  12  24  42  69  92 122 169 221 251 311 378
#     4  10  20  37  62  91 122 158 209 257 308 372
#
# _framework density 25.844424
#
# number of rings (size 3 to 8) (size 9 to 14) (size 15 to 20)
#    0.000    1.333    3.333    5.500    0.000    2.000 
#    0.000    3.333    0.000    0.000    0.000    0.000 
#    0.000    0.000    0.000    0.000    0.000    0.000 
#
# Total GULP energy -133976.370737 kJ/mol
# GULP energy per Si atom -5582.348781 kJ/mol
# Density = 2.578560 g / cm^3
# Si number density = 25.844424 Si / 1000 Ang^3
#
#
#
# Elastic Constant Matrix: (Units=GPa)
#
#
# Indices 1 2 3 4 5 6 
#
# 1 63.7747 29.8185 7.2105 0.0000 11.9021 0.0000
# 2 29.8185 199.3487 16.4146 0.0000 -12.5628 0.0000
# 3 7.2105 16.4146 50.8208 0.0000 -9.9469 0.0000
# 4 0.0000 0.0000 0.0000 20.3664 0.0000 -5.4050
# 5 11.9021 -12.5628 -9.9469 0.0000 33.7729 0.0000
# 6 0.0000 0.0000 0.0000 -5.4050 0.0000 37.3915
#
#
#
# Elastic Compliance Matrix: (Units=1/GPa)
#
#
# Indices 1 2 3 4 5 6 
#
# 1 0.019220 -0.003155 -0.003463 0.000000 -0.008967 0.000000
# 2 -0.003155 0.005745 -0.000819 0.000000 0.003008 0.000000
# 3 -0.003463 -0.000819 0.021873 0.000000 0.007358 0.000000
# 4 0.000000 0.000000 0.000000 0.051059 0.000000 0.007381
# 5 -0.008967 0.003008 0.007358 0.000000 0.036055 0.000000
# 6 0.000000 0.000000 0.000000 0.007381 0.000000 0.027811
#
#
# Mechanical properties :
#
#
# Convention : Reuss Voigt Hill
#
# Bulk Modulus (GPa) = 31.28524 46.75905 39.02214
# Shear Modulus (GPa) = 26.69606 35.67289 31.18447
#
# Velocity S-wave (km/s) = 3.21744 3.71926 3.47742
# Velocity P-wave (km/s) = 5.09255 6.04778 5.59061
#
# Compressibility (1/GPa) = 0.03196395
#
# Stress axis : x y z
#
# Youngs Moduli (GPa) = 52.02815 174.05674 45.71837
#
# Poissons Ratio (x) = 0.54914 0.15833
# Poissons Ratio (y) = 0.16414 0.03746
# Poissons Ratio (z) = 0.18018 0.14262
#
# Static dielectric constant tensor:
#      x y z
#    x 2.174780 0.000000 0.109630 
#    y 0.000000 2.041150 0.000000 
#    z 0.109630 0.000000 2.150110 
# 
# From -- ./inp_files/44650.got.cif
#   From: 2010.05.17/outbox.cif.g08.bks.cpg/sg15_23_cif.got.tgz:44650.got - 2010.06.03 18:47:42.
