data_PCOD9272672
_publ_section_title
;
Structure prediction by ZEFSAII (Michael W. Deem and Ramdas Pophale) SiO2 
 PCOD9272672
Probable space group: C 2/C
;
_chemical_formula_sum "Si O2"
_cell_formula_units_Z 64
_cell_length_a 25.674839
_cell_length_b 11.788244
_cell_length_c 13.778602
_cell_angle_alpha 90.000000
_cell_angle_beta 134.808419
_cell_angle_gamma 90.000000
_cell_volume 2958.654938
_symmetry_space_group_name_H-M "C 2/C"
_symmetry_group_IT_number 15
_symmetry_cell_setting 'monoclinic'
loop_
_space_group_symop_operation_xyz
x,y,z
-x,y,1/2-z
-x,-y,-z
x,-y,1/2+z
1/2+x,1/2+y,z
1/2-x,1/2+y,1/2-z
1/2-x,1/2-y,-z
1/2+x,1/2-y,1/2+z
loop_
_atom_site_type_symbol
_atom_site_label
_atom_site_fract_x
_atom_site_fract_y
_atom_site_fract_z
Si Si1 0.820155 0.807715 0.967340
Si Si2 0.833640 0.545664 0.636791
Si Si3 0.149664 0.297154 0.789263
Si Si4 0.131726 0.264720 0.158425
Si Si5 0.279008 0.210646 0.431526
Si Si6 0.031801 0.013575 0.196238
Si Si7 0.969473 0.167022 0.973764
Si Si8 0.830100 0.054327 0.007280
O O1 0.731919 0.795460 0.853341
O O2 0.855557 0.718614 0.939341
O O3 0.847601 0.784120 0.112760
O O4 0.843506 0.936307 0.968878
O O5 0.868277 0.422672 0.694130
O O6 0.860516 0.628256 0.759048
O O7 0.834503 0.610770 0.534205
O O8 0.746820 0.524913 0.540693
O O9 0.090890 0.259394 0.632212
O O10 0.203349 0.186257 0.277192
O O11 0.052219 0.211771 0.068536
O O12 0.250000 0.250000 0.500000
O O13 0.314866 0.325377 0.435916
O O14 0.106992 0.069894 0.330247
O O15 0.000000 0.953657 0.250000
O O16 0.044093 0.930726 0.123581
O O17 0.973141 0.107335 0.083374
#
# Coordination Sequence:
#
# PCOD9272672 Si02
#       8
#     8   8   8   8   8   8   8   8
#     4  10  20  37  60  84 117 157 198 252 296 354
#     4   9  19  37  59  81 113 155 194 243 288 353
#     4  10  22  39  56  86 122 157 197 245 307 351
#     4  10  20  37  59  89 114 154 205 241 297 363
#     4   8  16  33  57  81 109 146 191 238 285 341
#     4  11  22  36  57  89 123 159 194 248 311 360
#     4  11  23  36  60  89 123 158 197 248 309 361
#     4   9  16  34  58  79 113 145 193 241 288 343
#
# _framework density 21.631451999999999
#
# number of rings (size 3 to 8) (size 9 to 14) (size 15 to 20)
#    0.000    2.500    1.250    3.000    0.000    2.500 
#    6.750    0.000    0.000    0.000    0.000    0.000 
#    0.000    0.000    0.000    0.000    0.000    0.000 
#
# Total GULP energy -178302.547302 kJ/mol
# GULP energy per Si atom -5571.954603 kJ/mol
# Density = 2.158222 g / cm^3
# Si number density = 21.631452 Si / 1000 Ang^3
#
#
#
# Elastic Constant Matrix: (Units=GPa)
#
#
# Indices 1 2 3 4 5 6 
#
# 1 40.8446 6.4578 21.5178 0.0000 -1.4072 0.0000
# 2 6.4578 105.0100 44.4611 0.0000 7.2361 0.0000
# 3 21.5178 44.4611 143.3818 0.0000 15.1102 0.0000
# 4 0.0000 0.0000 0.0000 39.0408 0.0000 3.9325
# 5 -1.4072 7.2361 15.1102 0.0000 22.7866 0.0000
# 6 0.0000 0.0000 0.0000 3.9325 0.0000 12.0557
#
#
#
# Elastic Compliance Matrix: (Units=1/GPa)
#
#
# Indices 1 2 3 4 5 6 
#
# 1 0.027043 -0.000068 -0.004533 0.000000 0.004697 0.000000
# 2 -0.000068 0.010999 -0.003260 0.000000 -0.001335 0.000000
# 3 -0.004533 -0.003260 0.009231 0.000000 -0.005366 0.000000
# 4 0.000000 0.000000 0.000000 0.026484 0.000000 -0.008639
# 5 0.004697 -0.001335 -0.005366 0.000000 0.048158 0.000000
# 6 0.000000 0.000000 0.000000 -0.008639 0.000000 0.085766
#
#
# Mechanical properties :
#
#
# Convention : Reuss Voigt Hill
#
# Bulk Modulus (GPa) = 31.69223 48.23443 39.96333
# Shear Modulus (GPa) = 21.37480 29.22993 25.30237
#
# Velocity S-wave (km/s) = 3.14687 3.67995 3.42380
# Velocity P-wave (km/s) = 5.28077 6.35631 5.84334
#
# Compressibility (1/GPa) = 0.03155347
#
# Stress axis : x y z
#
# Youngs Moduli (GPa) = 36.97757 90.91473 108.33139
#
# Poissons Ratio (x) = 0.00615 0.49101
# Poissons Ratio (y) = 0.00250 0.35315
# Poissons Ratio (z) = 0.16760 0.29637
#
# Static dielectric constant tensor:
#      x y z
#    x 1.855650 0.000000 -0.009260 
#    y 0.000000 1.909390 0.000000 
#    z -0.009260 0.000000 1.814680 
# 
# From -- ./inp_files/181772.got.cif
#   From: 2010.05.17/outbox.cif.g08.bks.cpg/sg15_91_cif.got.tgz:181772.got - 2010.06.03 18:47:42.
