data_PCOD9272079
_publ_section_title
;
Structure prediction by ZEFSAII (Michael W. Deem and Ramdas Pophale) SiO2 
 PCOD9272079
Probable space group: C 2/C
;
_chemical_formula_sum "Si O2"
_cell_formula_units_Z 52
_cell_length_a 11.823421
_cell_length_b 20.380023
_cell_length_c 11.610262
_cell_angle_alpha 90.000000
_cell_angle_beta 65.750294
_cell_angle_gamma 90.000000
_cell_volume 2550.776202
_symmetry_space_group_name_H-M "C 2/C"
_symmetry_group_IT_number 15
_symmetry_cell_setting 'monoclinic'
loop_
_space_group_symop_operation_xyz
x,y,z
-x,y,1/2-z
-x,-y,-z
x,-y,1/2+z
1/2+x,1/2+y,z
1/2-x,1/2+y,1/2-z
1/2-x,1/2-y,-z
1/2+x,1/2-y,1/2+z
loop_
_atom_site_type_symbol
_atom_site_label
_atom_site_fract_x
_atom_site_fract_y
_atom_site_fract_z
Si Si1 0.095141 0.387874 0.621292
Si Si2 0.225721 0.283811 0.729469
Si Si3 0.356592 0.608286 0.340980
Si Si4 0.000000 0.400268 0.250000
Si Si5 0.576596 0.191419 0.910404
Si Si6 0.138014 0.213915 0.984473
Si Si7 0.865304 0.483981 0.495616
O O1 0.154680 0.332048 0.674372
O O2 0.034859 0.351312 0.537027
O O3 0.178866 0.445094 0.532669
O O4 0.000000 0.421317 0.750000
O O5 0.308757 0.333538 0.774582
O O6 0.299910 0.231698 0.621450
O O7 0.149453 0.236063 0.847346
O O8 0.500000 0.589210 0.250000
O O9 0.361997 0.640596 0.467051
O O10 0.245338 0.553687 0.390467
O O11 0.916832 0.355729 0.201268
O O12 0.908082 0.439915 0.370460
O O13 0.480747 0.247961 0.920173
O O14 0.250000 0.250000 0.000000
O O15 0.000000 0.500000 0.500000
#
# Coordination Sequence:
#
# PCOD9272079 Si02
#       7
#     8   8   8   4   8   8   8
#     4  12  24  42  63  93 135 179 218 273 335 406
#     4  11  22  39  66  94 133 170 216 275 344 405
#     4  11  22  42  68  98 136 175 228 287 341 402
#     4  12  22  38  70 100 130 166 230 288 318 390
#     4  12  22  39  65 100 129 166 219 273 344 395
#     4  10  20  36  63  98 129 163 215 276 336 393
#     4  12  25  43  68  98 131 180 233 278 330 401
#
# _framework density 20.385952
#
# number of rings (size 3 to 8) (size 9 to 14) (size 15 to 20)
#    0.000    0.615    5.385    6.000    0.000    0.000 
#    0.000    0.769    3.385    0.000    0.000    0.000 
#    0.000    0.000    0.000    0.000    0.000    0.000 
#
# Total GULP energy -144873.986919 kJ/mol
# GULP energy per Si atom -5572.076420 kJ/mol
# Density = 2.033955 g / cm^3
# Si number density = 20.385952 Si / 1000 Ang^3
#
#
#
# Elastic Constant Matrix: (Units=GPa)
#
#
# Indices 1 2 3 4 5 6 
#
# 1 64.2480 32.5138 39.0545 0.0000 -3.3042 0.0000
# 2 32.5138 83.7576 36.3984 0.0000 -4.5883 0.0000
# 3 39.0545 36.3984 86.3028 0.0000 -0.4201 0.0000
# 4 0.0000 0.0000 0.0000 43.0599 0.0000 -11.1125
# 5 -3.3042 -4.5883 -0.4201 0.0000 35.6634 0.0000
# 6 0.0000 0.0000 0.0000 -11.1125 0.0000 45.0313
#
#
#
# Elastic Compliance Matrix: (Units=1/GPa)
#
#
# Indices 1 2 3 4 5 6 
#
# 1 0.023425 -0.005405 -0.008314 0.000000 0.001377 0.000000
# 2 -0.005405 0.015983 -0.004288 0.000000 0.001505 0.000000
# 3 -0.008314 -0.004288 0.017152 0.000000 -0.001120 0.000000
# 4 0.000000 0.000000 0.000000 0.024803 0.000000 0.006121
# 5 0.001377 0.001505 -0.001120 0.000000 0.028348 0.000000
# 6 0.000000 0.000000 0.000000 0.006121 0.000000 0.023717
#
#
# Mechanical properties :
#
#
# Convention : Reuss Voigt Hill
#
# Bulk Modulus (GPa) = 48.66934 50.02687 49.34811
# Shear Modulus (GPa) = 28.36229 33.17371 30.76800
#
# Velocity S-wave (km/s) = 3.73402 4.03834 3.88915
# Velocity P-wave (km/s) = 6.52045 6.80716 6.66534
#
# Compressibility (1/GPa) = 0.02054681
#
# Stress axis : x y z
#
# Youngs Moduli (GPa) = 42.69021 62.56636 58.30071
#
# Poissons Ratio (x) = 0.33815 0.48472
# Poissons Ratio (y) = 0.23073 0.24998
# Poissons Ratio (z) = 0.35493 0.26827
#
# Static dielectric constant tensor:
#      x y z
#    x 1.709770 0.000000 0.023730 
#    y 0.000000 1.737380 0.000000 
#    z 0.023730 0.000000 1.749380 
# 
# From -- ./inp_files/88824.got.cif
#   From: 2010.05.17/outbox.cif.g08.bks.cpg/sg15_45_cif.got.tgz:88824.got - 2010.06.03 18:47:42.
