data_PCOD9272848
_publ_section_title
;
Structure prediction by ZEFSAII (Michael W. Deem and Ramdas Pophale) SiO2 
 PCOD9272848
Probable space group: C 2/C
;
_chemical_formula_sum "Si O2"
_cell_formula_units_Z 60
_cell_length_a 11.147036
_cell_length_b 16.533373
_cell_length_c 16.162631
_cell_angle_alpha 90.000000
_cell_angle_beta 80.775281
_cell_angle_gamma 90.000000
_cell_volume 2940.218760
_symmetry_space_group_name_H-M "C 2/C"
_symmetry_group_IT_number 15
_symmetry_cell_setting 'monoclinic'
loop_
_space_group_symop_operation_xyz
x,y,z
-x,y,1/2-z
-x,-y,-z
x,-y,1/2+z
1/2+x,1/2+y,z
1/2-x,1/2+y,1/2-z
1/2-x,1/2-y,-z
1/2+x,1/2-y,1/2+z
loop_
_atom_site_type_symbol
_atom_site_label
_atom_site_fract_x
_atom_site_fract_y
_atom_site_fract_z
Si Si1 0.255905 0.980143 0.729567
Si Si2 0.631609 0.271424 0.843147
Si Si3 0.873779 0.374526 0.272465
Si Si4 0.358025 0.994778 0.541776
Si Si5 0.602505 0.173406 0.997129
Si Si6 0.875726 0.345273 0.811500
Si Si7 0.174995 0.668737 0.535077
Si Si8 0.000000 0.104153 0.250000
O O1 0.338151 0.969992 0.638919
O O2 0.318906 0.933236 0.798856
O O3 0.121900 0.947536 0.724713
O O4 0.261237 0.072801 0.754427
O O5 0.595752 0.191006 0.800111
O O6 0.645697 0.250098 0.938002
O O7 0.763601 0.291892 0.792019
O O8 0.535376 0.338945 0.824660
O O9 0.840485 0.337522 0.364463
O O10 0.000000 0.425891 0.250000
O O11 0.289080 0.923320 0.498701
O O12 0.500000 0.000000 0.500000
O O13 0.326279 0.090374 0.536155
O O14 0.460024 0.173265 0.988271
O O15 0.606905 0.173836 0.094855
O O16 0.000000 0.334234 0.750000
O O17 0.250000 0.750000 0.500000
#
# Coordination Sequence:
#
# PCOD9272848 Si02
#       8
#     8   8   8   8   8   8   8   4
#     4  11  23  42  68  93 130 172 212 271 323 391
#     4  11  22  41  65  91 127 176 212 261 326 396
#     4  12  21  41  67  95 126 170 224 263 325 391
#     4  10  20  37  60  93 125 161 212 266 322 376
#     4  11  21  42  59  91 128 169 216 261 326 388
#     4  11  24  39  64  93 128 165 216 271 320 378
#     4  11  24  35  63  97 132 164 217 278 323 379
#     4  10  24  42  66  96 132 170 222 258 332 390
#
# _framework density 20.406645000000001
#
# number of rings (size 3 to 8) (size 9 to 14) (size 15 to 20)
#    0.000    1.067    3.333    4.000    7.467    0.000 
#    1.200    0.000    0.000    2.400    0.000    0.000 
#    0.000    0.000    0.000    0.000    0.000    0.000 
#
# Total GULP energy -167087.017698 kJ/mol
# GULP energy per Si atom -5569.567257 kJ/mol
# Density = 2.036020 g / cm^3
# Si number density = 20.406645 Si / 1000 Ang^3
#
#
#
# Elastic Constant Matrix: (Units=GPa)
#
#
# Indices 1 2 3 4 5 6 
#
# 1 105.6457 49.3738 37.6180 0.0000 -2.7661 0.0000
# 2 49.3738 95.3267 31.5885 0.0000 -8.5731 0.0000
# 3 37.6180 31.5885 126.7203 0.0000 6.9533 0.0000
# 4 0.0000 0.0000 0.0000 29.0240 0.0000 -1.9051
# 5 -2.7661 -8.5731 6.9533 0.0000 21.3941 0.0000
# 6 0.0000 0.0000 0.0000 -1.9051 0.0000 33.3710
#
#
#
# Elastic Compliance Matrix: (Units=1/GPa)
#
#
# Indices 1 2 3 4 5 6 
#
# 1 0.013126 -0.005994 -0.002407 0.000000 0.000077 0.000000
# 2 -0.005994 0.014874 -0.002253 0.000000 0.005917 0.000000
# 3 -0.002407 -0.002253 0.009402 0.000000 -0.004270 0.000000
# 4 0.000000 0.000000 0.000000 0.034584 0.000000 0.001974
# 5 0.000077 0.005917 -0.004270 0.000000 0.050511 0.000000
# 6 0.000000 0.000000 0.000000 0.001974 0.000000 0.030079
#
#
# Mechanical properties :
#
#
# Convention : Reuss Voigt Hill
#
# Bulk Modulus (GPa) = 62.13507 62.76147 62.44827
# Shear Modulus (GPa) = 27.89459 30.69867 29.29663
#
# Velocity S-wave (km/s) = 3.70122 3.88280 3.79310
# Velocity P-wave (km/s) = 6.98426 7.13608 7.06058
#
# Compressibility (1/GPa) = 0.01609397
#
# Stress axis : x y z
#
# Youngs Moduli (GPa) = 76.18534 67.23355 106.36368
#
# Poissons Ratio (x) = 0.40300 0.25598
# Poissons Ratio (y) = 0.45666 0.23963
# Poissons Ratio (z) = 0.18335 0.15147
#
# Static dielectric constant tensor:
#      x y z
#    x 1.766820 0.000000 -0.001550 
#    y 0.000000 1.878500 0.000000 
#    z -0.001550 0.000000 1.747010 
# 
# From -- ./inp_files/145635.got.cif
#   From: 2010.05.17/outbox.cif.g08.bks.cpg/sg15_73_cif.got.tgz:145635.got - 2010.06.03 18:47:42.
