data_PCOD9272029
_publ_section_title
;
Structure prediction by ZEFSAII (Michael W. Deem and Ramdas Pophale) SiO2 
 PCOD9272029
Probable space group: C 2/C
;
_chemical_formula_sum "Si O2"
_cell_formula_units_Z 52
_cell_length_a 11.334709
_cell_length_b 15.343094
_cell_length_c 15.499026
_cell_angle_alpha 90.000000
_cell_angle_beta 72.342493
_cell_angle_gamma 90.000000
_cell_volume 2568.437453
_symmetry_space_group_name_H-M "C 2/C"
_symmetry_group_IT_number 15
_symmetry_cell_setting 'monoclinic'
loop_
_space_group_symop_operation_xyz
x,y,z
-x,y,1/2-z
-x,-y,-z
x,-y,1/2+z
1/2+x,1/2+y,z
1/2-x,1/2+y,1/2-z
1/2-x,1/2-y,-z
1/2+x,1/2-y,1/2+z
loop_
_atom_site_type_symbol
_atom_site_label
_atom_site_fract_x
_atom_site_fract_y
_atom_site_fract_z
Si Si1 0.807358 0.685300 0.417269
Si Si2 0.000000 0.387225 0.250000
Si Si3 0.412661 0.426865 0.700533
Si Si4 0.535057 0.707840 0.839583
Si Si5 0.053568 0.904264 0.500926
Si Si6 0.693775 0.253669 0.761925
Si Si7 0.221658 0.511925 0.614198
O O1 0.750000 0.750000 0.500000
O O2 0.739125 0.717266 0.346051
O O3 0.789915 0.581744 0.430558
O O4 0.952215 0.706106 0.371439
O O5 0.908790 0.321597 0.218372
O O6 0.907880 0.447597 0.326607
O O7 0.500000 0.474594 0.750000
O O8 0.495425 0.382387 0.606045
O O9 0.353511 0.345499 0.764316
O O10 0.308981 0.487507 0.678352
O O11 0.500000 0.676925 0.750000
O O12 0.505724 0.649321 0.929384
O O13 0.681347 0.722034 0.810936
O O14 0.200599 0.919042 0.459852
O O15 0.000000 0.000000 0.500000
#
# Coordination Sequence:
#
# PCOD9272029 Si02
#       7
#     8   4   8   8   8   8   8
#     4  10  21  41  65  89 122 162 213 261 309 384
#     4  12  22  42  58  90 134 156 212 256 322 372
#     4  10  21  40  64  86 119 164 218 247 301 388
#     4  10  20  36  63  91 118 159 216 249 306 380
#     4  10  20  38  58  92 121 157 202 256 317 349
#     4  10  21  38  62  88 120 170 203 250 313 372
#     4  10  23  38  63  89 124 165 194 273 321 354
#
# _framework density 20.245771999999999
#
# number of rings (size 3 to 8) (size 9 to 14) (size 15 to 20)
#    0.000    1.846    2.308    2.769    5.385    2.462 
#    2.769    5.385    0.000    0.000    0.000    0.000 
#    0.000    0.000    0.000    0.000    0.000    0.000 
#
# Total GULP energy -144837.816439 kJ/mol
# GULP energy per Si atom -5570.685248 kJ/mol
# Density = 2.019969 g / cm^3
# Si number density = 20.245772 Si / 1000 Ang^3
#
#
#
# Elastic Constant Matrix: (Units=GPa)
#
#
# Indices 1 2 3 4 5 6 
#
# 1 121.5670 31.5576 23.6256 0.0000 -26.7859 0.0000
# 2 31.5576 68.9748 -1.1020 0.0000 -5.7519 0.0000
# 3 23.6256 -1.1020 42.1388 0.0000 -8.8521 0.0000
# 4 0.0000 0.0000 0.0000 19.2432 0.0000 -10.5573
# 5 -26.7859 -5.7519 -8.8521 0.0000 34.0769 0.0000
# 6 0.0000 0.0000 0.0000 -10.5573 0.0000 35.5631
#
#
#
# Elastic Compliance Matrix: (Units=1/GPa)
#
#
# Indices 1 2 3 4 5 6 
#
# 1 0.012213 -0.005063 -0.005439 0.000000 0.007332 0.000000
# 2 -0.005063 0.016841 0.003216 0.000000 -0.000302 0.000000
# 3 -0.005439 0.003216 0.027586 0.000000 0.003433 0.000000
# 4 0.000000 0.000000 0.000000 0.062077 0.000000 0.018428
# 5 0.007332 -0.000302 0.003433 0.000000 0.035950 0.000000
# 6 0.000000 0.000000 0.000000 0.018428 0.000000 0.033590
#
#
# Mechanical properties :
#
#
# Convention : Reuss Voigt Hill
#
# Bulk Modulus (GPa) = 23.77217 37.87145 30.82181
# Shear Modulus (GPa) = 23.05724 29.68325 26.37025
#
# Velocity S-wave (km/s) = 3.37837 3.83318 3.61294
# Velocity P-wave (km/s) = 5.19472 6.19173 5.71501
#
# Compressibility (1/GPa) = 0.04206599
#
# Stress axis : x y z
#
# Youngs Moduli (GPa) = 81.88012 59.37967 36.25012
#
# Poissons Ratio (x) = 0.30065 0.19718
# Poissons Ratio (y) = 0.41457 -0.11657
# Poissons Ratio (z) = 0.44538 -0.19095
#
# Static dielectric constant tensor:
#      x y z
#    x 1.814140 0.000000 0.000670 
#    y 0.000000 1.747670 0.000000 
#    z 0.000670 0.000000 1.855100 
# 
# From -- ./inp_files/197282.got.cif
#   From: 2010.05.17/outbox.cif.g08.bks.cpg/sg15_99_cif.got.tgz:197282.got - 2010.06.03 18:47:42.
