data_PCOD9272124
_publ_section_title
;
Structure prediction by ZEFSAII (Michael W. Deem and Ramdas Pophale) SiO2 
 PCOD9272124
Probable space group: C 2/C
;
_chemical_formula_sum "Si O2"
_cell_formula_units_Z 40
_cell_length_a 5.631220
_cell_length_b 19.856220
_cell_length_c 17.107796
_cell_angle_alpha 90.000000
_cell_angle_beta 122.674975
_cell_angle_gamma 90.000000
_cell_volume 1610.180401
_symmetry_space_group_name_H-M "C 2/C"
_symmetry_group_IT_number 15
_symmetry_cell_setting 'monoclinic'
loop_
_space_group_symop_operation_xyz
x,y,z
-x,y,1/2-z
-x,-y,-z
x,-y,1/2+z
1/2+x,1/2+y,z
1/2-x,1/2+y,1/2-z
1/2-x,1/2-y,-z
1/2+x,1/2-y,1/2+z
loop_
_atom_site_type_symbol
_atom_site_label
_atom_site_fract_x
_atom_site_fract_y
_atom_site_fract_z
Si Si1 0.329939 0.665898 0.833193
Si Si2 0.711532 0.061436 0.606091
Si Si3 0.352099 0.056588 0.083024
Si Si4 0.729839 0.188268 0.153563
Si Si5 0.853814 0.857441 0.516529
O O1 0.509428 0.605068 0.829515
O O2 0.389922 0.744539 0.827192
O O3 0.000000 0.656975 0.750000
O O4 0.422954 0.664717 0.941169
O O5 0.747012 0.037192 0.522306
O O6 0.457725 0.114170 0.552984
O O7 0.579933 0.003287 0.638810
O O8 0.522138 0.126041 0.114341
O O9 0.071705 0.082123 0.078227
O O10 0.837548 0.196362 0.083085
O O11 0.000000 0.167456 0.250000
#
# Coordination Sequence:
#
# PCOD9272124 Si02
#       5
#     8   8   8   8   8
#     4  10  22  39  59  92 129 165 209 264 321 386
#     4   9  19  37  62  87 122 161 207 265 314 382
#     4   9  19  37  61  87 120 160 210 261 319 377
#     4  10  22  39  59  89 128 165 214 266 315 384
#     4  10  20  36  64  90 120 168 213 262 322 380
#
# _framework density 24.841939
#
# number of rings (size 3 to 8) (size 9 to 14) (size 15 to 20)
#    0.000    2.400    0.000    1.200    0.000   12.000 
#    3.600    4.000    0.000    0.000    0.000    0.000 
#    0.000    0.000    0.000    0.000    0.000    0.000 
#
# Total GULP energy -111394.876757 kJ/mol
# GULP energy per Si atom -5569.743838 kJ/mol
# Density = 2.478540 g / cm^3
# Si number density = 24.841939 Si / 1000 Ang^3
#
#
#
# Elastic Constant Matrix: (Units=GPa)
#
#
# Indices 1 2 3 4 5 6 
#
# 1 40.8621 44.0901 25.7825 0.0000 9.4957 0.0000
# 2 44.0901 143.6001 60.0973 0.0000 39.2595 0.0000
# 3 25.7825 60.0973 92.4008 0.0000 7.4056 0.0000
# 4 0.0000 0.0000 0.0000 30.9827 0.0000 22.9926
# 5 9.4957 39.2595 7.4056 0.0000 39.4556 0.0000
# 6 0.0000 0.0000 0.0000 22.9926 0.0000 -44.5363
#
#
#
# Elastic Compliance Matrix: (Units=1/GPa)
#
#
# Indices 1 2 3 4 5 6 
#
# 1 0.037828 -0.010602 -0.003833 0.000000 0.002165 0.000000
# 2 -0.010602 0.016487 -0.006756 0.000000 -0.012586 0.000000
# 3 -0.003833 -0.006756 0.015913 0.000000 0.004659 0.000000
# 4 0.000000 0.000000 0.000000 0.023336 0.000000 0.012047
# 5 0.002165 -0.012586 0.004659 0.000000 0.036473 0.000000
# 6 0.000000 0.000000 0.000000 0.012047 0.000000 -0.016234
#
#
# Mechanical properties :
#
#
# Convention : Reuss Voigt Hill
#
# Bulk Modulus (GPa) = 35.91306 59.64478 47.77892
# Shear Modulus (GPa) = 30.21754 14.97330 22.59542
#
# Velocity S-wave (km/s) = 3.49147 2.45775 3.01918
# Velocity P-wave (km/s) = 5.54453 5.66708 5.60614
#
# Compressibility (1/GPa) = 0.02784502
#
# Stress axis : x y z
#
# Youngs Moduli (GPa) = 26.43577 60.65210 62.84210
#
# Poissons Ratio (x) = 0.64304 0.24087
# Poissons Ratio (y) = 0.28028 0.42459
# Poissons Ratio (z) = 0.10133 0.40979
#
# Static dielectric constant tensor:
#      x y z
#    x 2.217410 0.000000 -0.018060 
#    y 0.000000 1.997860 0.000000 
#    z -0.018060 0.000000 1.958510 
# 
# From -- ./inp_files/227629.got.cif
#   From: 2010.05.17/outbox.cif.g08.bks.cpg/sg15_114_cif.got.tgz:227629.got - 2010.06.03 18:47:42.
