data_PCOD9272871
_publ_section_title
;
Structure prediction by ZEFSAII (Michael W. Deem and Ramdas Pophale) SiO2 
 PCOD9272871
Probable space group: C 2/C
;
_chemical_formula_sum "Si O2"
_cell_formula_units_Z 64
_cell_length_a 29.181865
_cell_length_b 14.246962
_cell_length_c 8.744894
_cell_angle_alpha 90.000000
_cell_angle_beta 126.137901
_cell_angle_gamma 90.000000
_cell_volume 2936.203458
_symmetry_space_group_name_H-M "C 2/C"
_symmetry_group_IT_number 15
_symmetry_cell_setting 'monoclinic'
loop_
_space_group_symop_operation_xyz
x,y,z
-x,y,1/2-z
-x,-y,-z
x,-y,1/2+z
1/2+x,1/2+y,z
1/2-x,1/2+y,1/2-z
1/2-x,1/2-y,-z
1/2+x,1/2-y,1/2+z
loop_
_atom_site_type_symbol
_atom_site_label
_atom_site_fract_x
_atom_site_fract_y
_atom_site_fract_z
Si Si1 0.562930 0.607305 0.808126
Si Si2 0.687782 0.380687 0.119052
Si Si3 0.856534 0.672027 0.486030
Si Si4 0.040879 0.641623 0.613647
Si Si5 0.373122 0.519841 0.283738
Si Si6 0.096743 0.702128 0.440313
Si Si7 0.791778 0.671007 0.651484
Si Si8 0.583027 0.931904 0.647249
O O1 0.500000 0.602320 0.750000
O O2 0.576026 0.538206 0.694783
O O3 0.603620 0.579183 0.029416
O O4 0.583035 0.711422 0.803626
O O5 0.653142 0.417088 0.902029
O O6 0.670592 0.271908 0.114188
O O7 0.671109 0.445769 0.229124
O O8 0.752695 0.387037 0.190349
O O9 0.918749 0.689849 0.683079
O O10 0.818951 0.628886 0.550274
O O11 0.868047 0.601176 0.370759
O O12 0.047845 0.699841 0.472323
O O13 0.070188 0.541369 0.633047
O O14 0.976406 0.616435 0.522198
O O15 0.155639 0.710538 0.647388
O O16 0.095610 0.608146 0.339452
O O17 0.750000 0.750000 0.500000
#
# Coordination Sequence:
#
# PCOD9272871 Si02
#       8
#     8   8   8   8   8   8   8   8
#     4  11  21  37  60  89 122 154 190 237 297 358
#     4  10  21  42  61  83 115 156 198 250 298 348
#     4  10  20  37  61  84 116 159 201 237 298 368
#     4  10  21  37  57  83 129 165 185 239 307 349
#     4  10  22  39  61  88 118 152 198 247 294 351
#     4  11  22  37  60  87 117 156 204 242 293 362
#     4   9  20  41  60  78 113 155 193 248 313 347
#     4  11  21  36  57  91 123 153 200 246 287 357
#
# _framework density 21.796855000000001
#
# number of rings (size 3 to 8) (size 9 to 14) (size 15 to 20)
#    0.000    1.750    0.000    5.625    0.000    2.000 
#    9.000   13.125    0.000    0.000    0.000    0.000 
#    0.000    0.000    0.000    0.000    0.000    0.000 
#
# Total GULP energy -178712.294908 kJ/mol
# GULP energy per Si atom -5584.759216 kJ/mol
# Density = 2.174724 g / cm^3
# Si number density = 21.796855 Si / 1000 Ang^3
#
#
#
# Elastic Constant Matrix: (Units=GPa)
#
#
# Indices 1 2 3 4 5 6 
#
# 1 129.7590 24.8628 -3.8236 0.0000 -4.9561 0.0000
# 2 24.8628 59.7810 -3.0609 0.0000 0.0312 0.0000
# 3 -3.8236 -3.0609 24.7552 0.0000 -5.5133 0.0000
# 4 0.0000 0.0000 0.0000 5.1271 0.0000 -6.0656
# 5 -4.9561 0.0312 -5.5133 0.0000 30.4154 0.0000
# 6 0.0000 0.0000 0.0000 -6.0656 0.0000 29.3016
#
#
#
# Elastic Compliance Matrix: (Units=1/GPa)
#
#
# Indices 1 2 3 4 5 6 
#
# 1 0.008467 -0.003459 0.001238 0.000000 0.001608 0.000000
# 2 -0.003459 0.018251 0.001660 0.000000 -0.000282 0.000000
# 3 0.001238 0.001660 0.042555 0.000000 0.007914 0.000000
# 4 0.000000 0.000000 0.000000 0.258299 0.000000 0.053470
# 5 0.001608 -0.000282 0.007914 0.000000 0.034575 0.000000
# 6 0.000000 0.000000 0.000000 0.053470 0.000000 0.045196
#
#
# Mechanical properties :
#
#
# Convention : Reuss Voigt Hill
#
# Bulk Modulus (GPa) = 14.67324 27.80575 21.23950
# Shear Modulus (GPa) = 11.59603 26.05662 18.82632
#
# Velocity S-wave (km/s) = 2.30902 3.46125 2.94210
# Velocity P-wave (km/s) = 3.72226 5.36266 4.61592
#
# Compressibility (1/GPa) = 0.06815126
#
# Stress axis : x y z
#
# Youngs Moduli (GPa) = 118.10208 54.79022 23.49927
#
# Poissons Ratio (x) = 0.18952 -0.02910
# Poissons Ratio (y) = 0.40851 -0.03900
# Poissons Ratio (z) = -0.14623 -0.09094
#
# Static dielectric constant tensor:
#      x y z
#    x 1.811140 0.000000 -0.002630 
#    y 0.000000 1.783940 0.000000 
#    z -0.002630 0.000000 1.781870 
# 
# From -- ./inp_files/69964.got.cif
#   From: 2010.05.17/outbox.cif.g08.bks.cpg/sg15_35_cif.got.tgz:69964.got - 2010.06.03 18:47:42.
