data_PCOD9272668
_publ_section_title
;
Structure prediction by ZEFSAII (Michael W. Deem and Ramdas Pophale) SiO2 
 PCOD9272668
Probable space group: C 2/C
;
_chemical_formula_sum "Si O2"
_cell_formula_units_Z 48
_cell_length_a 19.984941
_cell_length_b 19.233870
_cell_length_c 10.147487
_cell_angle_alpha 90.000000
_cell_angle_beta 145.045841
_cell_angle_gamma 90.000000
_cell_volume 2234.717820
_symmetry_space_group_name_H-M "C 2/C"
_symmetry_group_IT_number 15
_symmetry_cell_setting 'monoclinic'
loop_
_space_group_symop_operation_xyz
x,y,z
-x,y,1/2-z
-x,-y,-z
x,-y,1/2+z
1/2+x,1/2+y,z
1/2-x,1/2+y,1/2-z
1/2-x,1/2-y,-z
1/2+x,1/2-y,1/2+z
loop_
_atom_site_type_symbol
_atom_site_label
_atom_site_fract_x
_atom_site_fract_y
_atom_site_fract_z
Si Si1 0.923884 0.220131 0.995029
Si Si2 0.080428 0.130681 0.087736
Si Si3 0.500000 0.464894 0.250000
Si Si4 0.500000 0.065138 0.750000
Si Si5 0.827790 0.084317 0.978625
Si Si6 0.310432 0.860214 0.776174
Si Si7 0.868009 0.494939 0.735740
O O1 0.853630 0.150789 0.929854
O O2 0.000000 0.238642 0.250000
O O3 0.015244 0.200457 0.027751
O O4 0.837766 0.279084 0.801593
O O5 0.119301 0.099270 0.290464
O O6 0.194997 0.136480 0.180958
O O7 0.988449 0.084362 0.857876
O O8 0.396516 0.516430 0.042331
O O9 0.430719 0.115119 0.540247
O O10 0.392605 0.017310 0.626304
O O11 0.699282 0.057064 0.799638
O O12 0.306363 0.920644 0.657957
O O13 0.000000 0.500000 0.000000
#
# Coordination Sequence:
#
# PCOD9272668 Si02
#       7
#     8   8   4   4   8   8   8
#     4  10  23  39  62  98 123 161 207 259 315 371
#     4  11  23  39  64  90 124 161 207 264 311 371
#     4  12  22  39  65  94 116 162 210 262 316 365
#     4  10  20  37  59  88 126 160 210 244 296 377
#     4  11  21  39  65  96 125 157 212 260 310 366
#     4  11  21  38  63  90 125 162 199 259 312 366
#     4  10  22  37  59  95 124 164 204 249 306 373
#
# _framework density 21.479223000000001
#
# number of rings (size 3 to 8) (size 9 to 14) (size 15 to 20)
#    0.000    1.333    6.667    0.500    0.000    5.333 
#    0.000    1.667    0.000    0.000    0.000    0.000 
#    0.000    0.000    0.000    0.000    0.000    0.000 
#
# Total GULP energy -133636.629828 kJ/mol
# GULP energy per Si atom -5568.192909 kJ/mol
# Density = 2.143034 g / cm^3
# Si number density = 21.479223 Si / 1000 Ang^3
#
#
#
# Elastic Constant Matrix: (Units=GPa)
#
#
# Indices 1 2 3 4 5 6 
#
# 1 95.1865 50.1530 3.9254 0.0000 31.5380 0.0000
# 2 50.1530 121.7489 17.4970 0.0000 10.7140 0.0000
# 3 3.9254 17.4970 36.0226 0.0000 15.5431 0.0000
# 4 0.0000 0.0000 0.0000 19.4032 0.0000 5.2655
# 5 31.5380 10.7140 15.5431 0.0000 32.5744 0.0000
# 6 0.0000 0.0000 0.0000 5.2655 0.0000 6.0239
#
#
#
# Elastic Compliance Matrix: (Units=1/GPa)
#
#
# Indices 1 2 3 4 5 6 
#
# 1 0.023416 -0.009252 0.013111 0.000000 -0.025884 0.000000
# 2 -0.009252 0.012516 -0.009016 0.000000 0.009144 0.000000
# 3 0.013111 -0.009016 0.043959 0.000000 -0.030704 0.000000
# 4 0.000000 0.000000 0.000000 0.067565 0.000000 -0.059058
# 5 -0.025884 0.009144 -0.030704 0.000000 0.067402 0.000000
# 6 0.000000 0.000000 0.000000 -0.059058 0.000000 0.217628
#
#
# Mechanical properties :
#
#
# Convention : Reuss Voigt Hill
#
# Bulk Modulus (GPa) = 14.37289 44.01208 29.19249
# Shear Modulus (GPa) = 10.72976 23.69248 17.21112
#
# Velocity S-wave (km/s) = 2.23747 3.32481 2.83378
# Velocity P-wave (km/s) = 3.65801 5.93921 4.93230
#
# Compressibility (1/GPa) = 0.06957541
#
# Stress axis : x y z
#
# Youngs Moduli (GPa) = 42.70578 79.89672 22.74840
#
# Poissons Ratio (x) = 0.73923 -0.29825
# Poissons Ratio (y) = 0.39513 0.20511
# Poissons Ratio (z) = -0.55991 0.72038
#
# Static dielectric constant tensor:
#      x y z
#    x 2.134270 0.000000 -0.155690 
#    y 0.000000 1.907380 0.000000 
#    z -0.155690 0.000000 1.870600 
# 
# From -- ./inp_files/113019.got.cif
#   From: 2010.05.17/outbox.cif.g08.bks.cpg/sg15_57_cif.got.tgz:113019.got - 2010.06.03 18:47:42.
