data_PCOD9272819
_publ_section_title
;
Structure prediction by ZEFSAII (Michael W. Deem and Ramdas Pophale) SiO2 
 PCOD9272819
Probable space group: C 2/C
;
_chemical_formula_sum "Si O2"
_cell_formula_units_Z 56
_cell_length_a 8.792550
_cell_length_b 19.432310
_cell_length_c 17.736277
_cell_angle_alpha 90.000000
_cell_angle_beta 64.024108
_cell_angle_gamma 90.000000
_cell_volume 2724.275376
_symmetry_space_group_name_H-M "C 2/C"
_symmetry_group_IT_number 15
_symmetry_cell_setting 'monoclinic'
loop_
_space_group_symop_operation_xyz
x,y,z
-x,y,1/2-z
-x,-y,-z
x,-y,1/2+z
1/2+x,1/2+y,z
1/2-x,1/2+y,1/2-z
1/2-x,1/2-y,-z
1/2+x,1/2-y,1/2+z
loop_
_atom_site_type_symbol
_atom_site_label
_atom_site_fract_x
_atom_site_fract_y
_atom_site_fract_z
Si Si1 0.015700 0.939552 0.437263
Si Si2 0.254858 0.328746 0.474187
Si Si3 0.170889 0.637581 0.583638
Si Si4 0.302321 0.745739 0.313019
Si Si5 0.652093 0.499029 0.176822
Si Si6 0.724960 0.856988 0.306527
Si Si7 0.880105 0.618856 0.081092
O O1 0.907887 0.870748 0.478206
O O2 0.209176 0.914980 0.397821
O O3 0.925839 0.969884 0.383164
O O4 0.000000 0.000000 0.500000
O O5 0.250000 0.250000 0.500000
O O6 0.272305 0.330456 0.379671
O O7 0.080390 0.368002 0.532360
O O8 0.213270 0.713600 0.604532
O O9 0.186942 0.628002 0.490462
O O10 0.975771 0.629539 0.648977
O O11 0.500000 0.733479 0.250000
O O12 0.235269 0.799442 0.264341
O O13 0.200176 0.676061 0.346561
O O14 0.500000 0.540068 0.250000
O O15 0.692668 0.431980 0.218236
O O16 0.814873 0.545067 0.123969
#
# Coordination Sequence:
#
# PCOD9272819 Si02
#       7
#     8   8   8   8   8   8   8
#     4  11  22  38  64  91 123 158 207 256 304 371
#     4  10  23  41  63  90 120 164 211 258 310 371
#     4  10  20  37  64  90 116 160 206 252 296 365
#     4  10  20  37  60  90 118 161 204 250 302 368
#     4  11  23  40  60  91 125 167 200 252 312 368
#     4   9  22  40  66  85 122 167 208 246 310 372
#     4  11  22  38  62  89 126 157 202 257 308 361
#
# _framework density 20.555924999999998
#
# number of rings (size 3 to 8) (size 9 to 14) (size 15 to 20)
#    0.000    1.714    1.429    2.571    2.000    5.143 
#    2.571    0.000    0.000    0.000    0.000    0.000 
#    0.000    0.000    0.000    0.000    0.000    0.000 
#
# Total GULP energy -156347.248621 kJ/mol
# GULP energy per Si atom -5583.830308 kJ/mol
# Density = 2.050914 g / cm^3
# Si number density = 20.555925 Si / 1000 Ang^3
#
#
#
# Elastic Constant Matrix: (Units=GPa)
#
#
# Indices 1 2 3 4 5 6 
#
# 1 73.8197 33.3210 14.8453 0.0000 8.3649 0.0000
# 2 33.3210 87.0032 35.4049 0.0000 4.9644 0.0000
# 3 14.8453 35.4049 70.8654 0.0000 1.3068 0.0000
# 4 0.0000 0.0000 0.0000 30.9264 0.0000 -1.9693
# 5 8.3649 4.9644 1.3068 0.0000 16.3679 0.0000
# 6 0.0000 0.0000 0.0000 -1.9693 0.0000 33.2182
#
#
#
# Elastic Compliance Matrix: (Units=1/GPa)
#
#
# Indices 1 2 3 4 5 6 
#
# 1 0.017118 -0.005968 -0.000477 0.000000 -0.006900 0.000000
# 2 -0.005968 0.016748 -0.007090 0.000000 -0.001464 0.000000
# 3 -0.000477 -0.007090 0.017736 0.000000 0.000978 0.000000
# 4 0.000000 0.000000 0.000000 0.032457 0.000000 0.001924
# 5 -0.006900 -0.001464 0.000978 0.000000 0.064987 0.000000
# 6 0.000000 0.000000 0.000000 0.001924 0.000000 0.030218
#
#
# Mechanical properties :
#
#
# Convention : Reuss Voigt Hill
#
# Bulk Modulus (GPa) = 40.76474 44.31451 42.53963
# Shear Modulus (GPa) = 23.30858 25.97697 24.64277
#
# Velocity S-wave (km/s) = 3.37101 3.55874 3.46615
# Velocity P-wave (km/s) = 5.91826 6.20411 6.06287
#
# Compressibility (1/GPa) = 0.02453100
#
# Stress axis : x y z
#
# Youngs Moduli (GPa) = 58.41702 59.70703 56.38390
#
# Poissons Ratio (x) = 0.35634 0.02690
# Poissons Ratio (y) = 0.34865 0.39978
# Poissons Ratio (z) = 0.02787 0.42335
#
# Static dielectric constant tensor:
#      x y z
#    x 1.747690 0.000000 -0.015030 
#    y 0.000000 1.747880 0.000000 
#    z -0.015030 0.000000 1.749470 
# 
# From -- ./inp_files/190935.got.cif
#   From: 2010.05.17/outbox.cif.g08.bks.cpg/sg15_96_cif.got.tgz:190935.got - 2010.06.03 18:47:42.
