data_PCOD9272965
_publ_section_title
;
Structure prediction by ZEFSAII (Michael W. Deem and Ramdas Pophale) SiO2 
 PCOD9272965
Probable space group: C 2/C
;
_chemical_formula_sum "Si O2"
_cell_formula_units_Z 48
_cell_length_a 15.755350
_cell_length_b 9.106062
_cell_length_c 16.226357
_cell_angle_alpha 90.000000
_cell_angle_beta 99.790990
_cell_angle_gamma 90.000000
_cell_volume 2294.074487
_symmetry_space_group_name_H-M "C 2/C"
_symmetry_group_IT_number 15
_symmetry_cell_setting 'monoclinic'
loop_
_space_group_symop_operation_xyz
x,y,z
-x,y,1/2-z
-x,-y,-z
x,-y,1/2+z
1/2+x,1/2+y,z
1/2-x,1/2+y,1/2-z
1/2-x,1/2-y,-z
1/2+x,1/2-y,1/2+z
loop_
_atom_site_type_symbol
_atom_site_label
_atom_site_fract_x
_atom_site_fract_y
_atom_site_fract_z
Si Si1 0.197989 0.720821 0.653620
Si Si2 0.556526 0.653378 0.000363
Si Si3 0.863599 0.347955 0.625329
Si Si4 0.621674 0.275454 0.976083
Si Si5 0.738723 0.978497 0.533131
Si Si6 0.091349 0.355305 0.295477
O O1 0.128702 0.807084 0.582661
O O2 0.288090 0.805964 0.676406
O O3 0.229937 0.576186 0.611200
O O4 0.155810 0.673743 0.731611
O O5 0.589693 0.714621 0.916345
O O6 0.500000 0.500000 0.000000
O O7 0.473627 0.756138 0.008061
O O8 0.810398 0.429369 0.544287
O O9 0.918831 0.475198 0.677217
O O10 0.665742 0.436984 0.982798
O O11 0.622463 0.230867 0.880807
O O12 0.686931 0.171817 0.035965
O O13 0.000000 0.297722 0.250000
#
# Coordination Sequence:
#
# PCOD9272965 Si02
#       6
#     8   8   8   8   8   8
#     4  11  22  39  61  87 126 162 197 255 310 364
#     4  11  21  38  67  89 120 155 215 263 298 351
#     4  10  23  40  61  92 118 162 207 252 313 364
#     4  10  20  37  61  94 115 162 204 251 304 364
#     4   9  20  37  65  87 121 154 211 253 302 359
#     4  11  24  40  58  87 128 165 200 246 315 379
#
# _framework density 20.923469000000001
#
# number of rings (size 3 to 8) (size 9 to 14) (size 15 to 20)
#    0.000    1.667    1.667    4.000    4.667    2.000 
#    0.000    1.667    0.000    0.000    0.000    0.000 
#    0.000    0.000    0.000    0.000    0.000    0.000 
#
# Total GULP energy -133650.888337 kJ/mol
# GULP energy per Si atom -5568.787014 kJ/mol
# Density = 2.087585 g / cm^3
# Si number density = 20.923469 Si / 1000 Ang^3
#
#
#
# Elastic Constant Matrix: (Units=GPa)
#
#
# Indices 1 2 3 4 5 6 
#
# 1 110.4522 5.2709 18.2196 0.0000 -16.8190 0.0000
# 2 5.2709 73.6024 7.2971 0.0000 0.4027 0.0000
# 3 18.2196 7.2971 54.0334 0.0000 -14.8712 0.0000
# 4 0.0000 0.0000 0.0000 11.9354 0.0000 -5.8685
# 5 -16.8190 0.4027 -14.8712 0.0000 38.4330 0.0000
# 6 0.0000 0.0000 0.0000 -5.8685 0.0000 22.0561
#
#
#
# Elastic Compliance Matrix: (Units=1/GPa)
#
#
# Indices 1 2 3 4 5 6 
#
# 1 0.009993 -0.000502 -0.002347 0.000000 0.003470 0.000000
# 2 -0.000502 0.013828 -0.002013 0.000000 -0.001143 0.000000
# 3 -0.002347 -0.002013 0.021593 0.000000 0.007349 0.000000
# 4 0.000000 0.000000 0.000000 0.096395 0.000000 0.025648
# 5 0.003470 -0.001143 0.007349 0.000000 0.030394 0.000000
# 6 0.000000 0.000000 0.000000 0.025648 0.000000 0.052163
#
#
# Mechanical properties :
#
#
# Convention : Reuss Voigt Hill
#
# Bulk Modulus (GPa) = 28.01812 33.29590 30.65701
# Shear Modulus (GPa) = 20.32633 28.30493 24.31563
#
# Velocity S-wave (km/s) = 3.12021 3.68201 3.41269
# Velocity P-wave (km/s) = 5.13817 5.83301 5.49658
#
# Compressibility (1/GPa) = 0.03569118
#
# Stress axis : x y z
#
# Youngs Moduli (GPa) = 100.06798 72.31552 46.31157
#
# Poissons Ratio (x) = 0.03630 0.10868
# Poissons Ratio (y) = 0.05023 0.09322
# Poissons Ratio (z) = 0.23483 0.14557
#
# Static dielectric constant tensor:
#      x y z
#    x 1.816800 0.000000 -0.035620 
#    y 0.000000 1.899730 0.000000 
#    z -0.035620 0.000000 1.699480 
# 
# From -- ./inp_files/203009.got.cif
#   From: 2010.05.17/outbox.cif.g08.bks.cpg/sg15_102_cif.got.tgz:203009.got - 2010.06.03 18:47:42.
