data_PCOD9272059
_publ_section_title
;
Structure prediction by ZEFSAII (Michael W. Deem and Ramdas Pophale) SiO2 
 PCOD9272059
Probable space group: C 2/C
;
_chemical_formula_sum "Si O2"
_cell_formula_units_Z 32
_cell_length_a 15.839599
_cell_length_b 16.655289
_cell_length_c 5.017728
_cell_angle_alpha 90.000000
_cell_angle_beta 97.008496
_cell_angle_gamma 90.000000
_cell_volume 1313.851463
_symmetry_space_group_name_H-M "C 2/C"
_symmetry_group_IT_number 15
_symmetry_cell_setting 'monoclinic'
loop_
_space_group_symop_operation_xyz
x,y,z
-x,y,1/2-z
-x,-y,-z
x,-y,1/2+z
1/2+x,1/2+y,z
1/2-x,1/2+y,1/2-z
1/2-x,1/2-y,-z
1/2+x,1/2-y,1/2+z
loop_
_atom_site_type_symbol
_atom_site_label
_atom_site_fract_x
_atom_site_fract_y
_atom_site_fract_z
Si Si1 0.000000 0.443639 0.750000
Si Si2 0.808362 0.295175 0.240787
Si Si3 0.091457 0.288282 0.722895
Si Si4 0.000000 0.940770 0.250000
Si Si5 0.190679 0.056362 0.826539
O O1 0.921383 0.382254 0.705518
O O2 0.000000 0.500000 0.500000
O O3 0.837783 0.259782 0.537523
O O4 0.762254 0.379549 0.277416
O O5 0.750000 0.250000 0.000000
O O6 0.892274 0.293269 0.085669
O O7 0.000000 0.249961 0.750000
O O8 0.904499 0.904353 0.230164
O O9 0.000000 0.000000 0.500000
O O10 0.197407 0.982174 0.621839
#
# Coordination Sequence:
#
# PCOD9272059 Si02
#       5
#     4   8   8   4   8
#     4  10  20  36  63  94 127 174 218 258 318 384
#     4  12  24  42  65  99 133 170 222 275 327 396
#     4  10  24  42  63  87 136 173 216 268 317 396
#     4   8  16  34  57  84 121 158 206 258 320 390
#     4  10  21  38  64  93 127 168 210 269 329 385
#
# _framework density 24.355872000000002
#
# number of rings (size 3 to 8) (size 9 to 14) (size 15 to 20)
#    0.750    1.000    0.000    4.500    0.000    6.000 
#    2.250    0.000   16.500    0.000    0.000    0.000 
#    0.000    0.000    0.000    0.000    0.000    0.000 
#
# Total GULP energy -89250.582398 kJ/mol
# GULP energy per Si atom -5578.161400 kJ/mol
# Density = 2.430044 g / cm^3
# Si number density = 24.355872 Si / 1000 Ang^3
#
#
#
# Elastic Constant Matrix: (Units=GPa)
#
#
# Indices 1 2 3 4 5 6 
#
# 1 113.0380 10.5373 19.2436 0.0000 8.2028 0.0000
# 2 10.5373 40.4855 7.7563 0.0000 9.6511 0.0000
# 3 19.2436 7.7563 159.4954 0.0000 -3.8325 0.0000
# 4 0.0000 0.0000 0.0000 23.1916 0.0000 2.1622
# 5 8.2028 9.6511 -3.8325 0.0000 49.6156 0.0000
# 6 0.0000 0.0000 0.0000 2.1622 0.0000 46.7038
#
#
#
# Elastic Compliance Matrix: (Units=1/GPa)
#
#
# Indices 1 2 3 4 5 6 
#
# 1 0.009296 -0.001920 -0.001058 0.000000 -0.001245 0.000000
# 2 -0.001920 0.026606 -0.001181 0.000000 -0.004949 0.000000
# 3 -0.001058 -0.001181 0.006477 0.000000 0.000905 0.000000
# 4 0.000000 0.000000 0.000000 0.043306 0.000000 -0.002005
# 5 -0.001245 -0.004949 0.000905 0.000000 0.021393 0.000000
# 6 0.000000 0.000000 0.000000 -0.002005 0.000000 0.021504
#
#
# Mechanical properties :
#
#
# Convention : Reuss Voigt Hill
#
# Bulk Modulus (GPa) = 29.35978 43.12149 36.24063
# Shear Modulus (GPa) = 33.72582 42.26764 37.99673
#
# Velocity S-wave (km/s) = 3.72521 4.17036 3.95405
# Velocity P-wave (km/s) = 5.53024 6.39784 5.97979
#
# Compressibility (1/GPa) = 0.03406020
#
# Stress axis : x y z
#
# Youngs Moduli (GPa) = 107.57250 37.58547 154.40139
#
# Poissons Ratio (x) = 0.07216 0.16338
# Poissons Ratio (y) = 0.20654 0.18237
# Poissons Ratio (z) = 0.11383 0.04439
#
# Static dielectric constant tensor:
#      x y z
#    x 2.177810 0.000000 -0.045380 
#    y 0.000000 1.916820 0.000000 
#    z -0.045380 0.000000 1.881700 
# 
# From -- ./inp_files/6727.got.cif
#   From: 2010.05.17/outbox.cif.g08.bks.cpg/sg15_4_cif.got.tgz:6727.got - 2010.06.03 18:47:42.
