data_PCOD9272352
_publ_section_title
;
Structure prediction by ZEFSAII (Michael W. Deem and Ramdas Pophale) SiO2 
 PCOD9272352
Probable space group: C 2/C
;
_chemical_formula_sum "Si O2"
_cell_formula_units_Z 60
_cell_length_a 16.953816
_cell_length_b 30.563356
_cell_length_c 5.734362
_cell_angle_alpha 90.000000
_cell_angle_beta 123.694736
_cell_angle_gamma 90.000000
_cell_volume 2472.177200
_symmetry_space_group_name_H-M "C 2/C"
_symmetry_group_IT_number 15
_symmetry_cell_setting 'monoclinic'
loop_
_space_group_symop_operation_xyz
x,y,z
-x,y,1/2-z
-x,-y,-z
x,-y,1/2+z
1/2+x,1/2+y,z
1/2-x,1/2+y,1/2-z
1/2-x,1/2-y,-z
1/2+x,1/2-y,1/2+z
loop_
_atom_site_type_symbol
_atom_site_label
_atom_site_fract_x
_atom_site_fract_y
_atom_site_fract_z
Si Si1 0.610774 0.983470 0.419514
Si Si2 0.511137 0.645564 0.520527
Si Si3 0.203935 0.605522 0.047734
Si Si4 0.354454 0.275932 0.798923
Si Si5 0.790677 0.803981 0.188779
Si Si6 0.288908 0.107701 0.940970
Si Si7 0.500000 0.887226 0.750000
Si Si8 0.922248 0.315987 0.290740
O O1 0.500000 0.995208 0.250000
O O2 0.622847 0.931314 0.421117
O O3 0.651424 0.998534 0.738813
O O4 0.500000 0.621285 0.750000
O O5 0.435800 0.686241 0.418529
O O6 0.615189 0.665899 0.673659
O O7 0.500000 0.623023 0.250000
O O8 0.255026 0.597157 0.883554
O O9 0.161724 0.654769 0.964494
O O10 0.255157 0.598576 0.378970
O O11 0.305107 0.280700 0.463212
O O12 0.394179 0.227043 0.885658
O O13 0.296034 0.281897 0.943615
O O14 0.705941 0.839339 0.058618
O O15 0.398034 0.089992 0.116800
O O16 0.481486 0.854435 0.509061
O O17 0.000000 0.295233 0.250000
#
# Coordination Sequence:
#
# PCOD9272352 Si02
#       8
#     8   8   8   8   8   8   4   8
#     4  10  21  37  59  84 107 132 171 226 275 325
#     4   8  15  28  48  70  92 128 171 218 270 319
#     4  11  23  39  55  81 103 144 175 222 280 326
#     4  10  21  33  57  73 102 136 187 229 286 324
#     4  10  20  37  51  77 102 137 180 238 278 320
#     4  11  23  39  57  75 109 142 186 226 286 318
#     4  10  24  36  50  72  94 142 180 228 280 326
#     4  11  21  35  56  74 100 139 184 234 278 339
#
# _framework density 24.270102999999999
#
# number of rings (size 3 to 8) (size 9 to 14) (size 15 to 20)
#    0.000    1.867    1.333    3.200    6.533    0.000 
#    1.200    9.333    0.000    0.000    0.000    0.000 
#    0.000    0.000    0.000    0.000    0.000  420.000 
#
# Total GULP energy -167237.304180 kJ/mol
# GULP energy per Si atom -5574.576806 kJ/mol
# Density = 2.421486 g / cm^3
# Si number density = 24.270103 Si / 1000 Ang^3
#
#
#
# Elastic Constant Matrix: (Units=GPa)
#
#
# Indices 1 2 3 4 5 6 
#
# 1 76.0354 14.6494 48.9371 0.0000 -30.9091 0.0000
# 2 14.6494 75.7258 16.4569 0.0000 -17.2122 0.0000
# 3 48.9371 16.4569 183.0166 0.0000 -65.5654 0.0000
# 4 0.0000 0.0000 0.0000 22.9056 0.0000 -7.9767
# 5 -30.9091 -17.2122 -65.5654 0.0000 56.4754 0.0000
# 6 0.0000 0.0000 0.0000 -7.9767 0.0000 29.5898
#
#
#
# Elastic Compliance Matrix: (Units=1/GPa)
#
#
# Indices 1 2 3 4 5 6 
#
# 1 0.017522 -0.001409 -0.002186 0.000000 0.006623 0.000000
# 2 -0.001409 0.014325 0.000645 0.000000 0.004343 0.000000
# 3 -0.002186 0.000645 0.009643 0.000000 0.010195 0.000000
# 4 0.000000 0.000000 0.000000 0.048181 0.000000 0.012988
# 5 0.006623 0.004343 0.010195 0.000000 0.034491 0.000000
# 6 0.000000 0.000000 0.000000 0.012988 0.000000 0.037297
#
#
# Mechanical properties :
#
#
# Convention : Reuss Voigt Hill
#
# Bulk Modulus (GPa) = 28.09879 54.98495 41.54187
# Shear Modulus (GPa) = 27.89812 38.77645 33.33729
#
# Velocity S-wave (km/s) = 3.39408 4.00147 3.71022
# Velocity P-wave (km/s) = 5.19253 6.63729 5.95886
#
# Compressibility (1/GPa) = 0.03558872
#
# Stress axis : x y z
#
# Youngs Moduli (GPa) = 57.06969 69.80683 103.70322
#
# Poissons Ratio (x) = 0.09839 0.22670
# Poissons Ratio (y) = 0.08043 -0.06684
# Poissons Ratio (z) = 0.12476 -0.04500
#
# Static dielectric constant tensor:
#      x y z
#    x 2.044170 0.000000 -0.057850 
#    y 0.000000 2.015840 0.000000 
#    z -0.057850 0.000000 2.092700 
# 
# From -- ./inp_files/14675.got.cif
#   From: 2010.05.17/outbox.cif.g08.bks.cpg/sg15_8_cif.got.tgz:14675.got - 2010.06.03 18:47:42.
