data_PCOD9272441
_publ_section_title
;
Structure prediction by ZEFSAII (Michael W. Deem and Ramdas Pophale) SiO2 
 PCOD9272441
Probable space group: C 2/C
;
_chemical_formula_sum "Si O2"
_cell_formula_units_Z 56
_cell_length_a 8.644340
_cell_length_b 11.687280
_cell_length_c 29.523951
_cell_angle_alpha 90.000000
_cell_angle_beta 60.986853
_cell_angle_gamma 90.000000
_cell_volume 2608.457532
_symmetry_space_group_name_H-M "C 2/C"
_symmetry_group_IT_number 15
_symmetry_cell_setting 'monoclinic'
loop_
_space_group_symop_operation_xyz
x,y,z
-x,y,1/2-z
-x,-y,-z
x,-y,1/2+z
1/2+x,1/2+y,z
1/2-x,1/2+y,1/2-z
1/2-x,1/2-y,-z
1/2+x,1/2-y,1/2+z
loop_
_atom_site_type_symbol
_atom_site_label
_atom_site_fract_x
_atom_site_fract_y
_atom_site_fract_z
Si Si1 0.429142 0.538364 0.127889
Si Si2 0.775879 0.054126 0.480308
Si Si3 0.953818 0.441161 0.129159
Si Si4 0.951617 0.120368 0.809316
Si Si5 0.949781 0.623335 0.309203
Si Si6 0.173293 0.152302 0.930436
Si Si7 0.025425 0.619019 0.037471
O O1 0.609254 0.582676 0.080105
O O2 0.463305 0.472648 0.169668
O O3 0.263052 0.620719 0.156323
O O4 0.376871 0.448240 0.096447
O O5 0.853522 0.112042 0.513812
O O6 0.585554 0.104222 0.493135
O O7 0.726656 0.920264 0.497010
O O8 0.759398 0.389662 0.155432
O O9 0.978848 0.528683 0.083637
O O10 0.976188 0.522316 0.170006
O O11 0.111854 0.347478 0.105256
O O12 0.011880 0.249149 0.813317
O O13 0.000000 0.101002 0.750000
O O14 0.000000 0.603359 0.250000
O O15 0.047762 0.258662 0.936679
#
# Coordination Sequence:
#
# PCOD9272441 Si02
#       7
#     8   8   8   8   8   8   8
#     4  11  22  39  60  88 117 152 201 241 291 354
#     4  10  21  35  56  87 121 153 195 239 285 348
#     4  10  21  39  59  84 117 153 195 243 292 350
#     4  11  23  39  62  87 113 153 198 245 302 350
#     4  10  23  41  60  86 118 150 194 251 298 346
#     4  10  22  36  59  85 118 160 192 235 293 350
#     4  10  20  37  56  84 122 153 194 239 284 348
#
# _framework density 21.468626
#
# number of rings (size 3 to 8) (size 9 to 14) (size 15 to 20)
#    0.000    1.714    1.429    2.571    2.000    1.714 
#    0.000    0.000    0.000    6.000    0.000    0.000 
#    0.000    0.000    0.000    0.000    0.000    0.000 
#
# Total GULP energy -156199.244287 kJ/mol
# GULP energy per Si atom -5578.544439 kJ/mol
# Density = 2.141976 g / cm^3
# Si number density = 21.468626 Si / 1000 Ang^3
#
#
#
# Elastic Constant Matrix: (Units=GPa)
#
#
# Indices 1 2 3 4 5 6 
#
# 1 34.1834 6.5259 -0.8776 0.0000 1.2957 0.0000
# 2 6.5259 56.9395 19.5585 0.0000 4.0029 0.0000
# 3 -0.8776 19.5585 90.1949 0.0000 10.5876 0.0000
# 4 0.0000 0.0000 0.0000 -4.2730 0.0000 -16.5893
# 5 1.2957 4.0029 10.5876 0.0000 32.2687 0.0000
# 6 0.0000 0.0000 0.0000 -16.5893 0.0000 10.4779
#
#
#
# Elastic Compliance Matrix: (Units=1/GPa)
#
#
# Indices 1 2 3 4 5 6 
#
# 1 0.030054 -0.003793 0.001249 0.000000 -0.001146 0.000000
# 2 -0.003793 0.019489 -0.004157 0.000000 -0.000901 0.000000
# 3 0.001249 -0.004157 0.012425 0.000000 -0.003611 0.000000
# 4 0.000000 0.000000 0.000000 -0.032746 0.000000 -0.051845
# 5 -0.001146 -0.000901 -0.003611 0.000000 0.032332 0.000000
# 6 0.000000 0.000000 0.000000 -0.051845 0.000000 0.013354
#
#
# Mechanical properties :
#
#
# Convention : Reuss Voigt Hill
#
# Bulk Modulus (GPa) = 20.59086 25.74793 23.16940
# Shear Modulus (GPa) = 47.84807 18.10213 32.97510
#
# Velocity S-wave (km/s) = 4.72608 2.90692 3.92339
# Velocity P-wave (km/s) = 6.27639 4.82558 5.59818
#
# Compressibility (1/GPa) = 0.04856523
#
# Stress axis : x y z
#
# Youngs Moduli (GPa) = 33.27390 51.31221 80.48538
#
# Poissons Ratio (x) = 0.19463 -0.10057
# Poissons Ratio (y) = 0.12621 0.33459
# Poissons Ratio (z) = -0.04158 0.21331
#
# Static dielectric constant tensor:
#      x y z
#    x 1.808210 0.000000 -0.077810 
#    y 0.000000 1.843680 0.000000 
#    z -0.077810 0.000000 1.812490 
# 
# From -- ./inp_files/287930.got.cif
#   From: 2010.05.17/outbox.cif.g08.bks.cpg/sg15_144_cif.got.tgz:287930.got - 2010.06.03 18:47:42.
