data_PCOD9272280
_publ_section_title
;
Structure prediction by ZEFSAII (Michael W. Deem and Ramdas Pophale) SiO2 
 PCOD9272280
Probable space group: C 2/C
;
_chemical_formula_sum "Si O2"
_cell_formula_units_Z 52
_cell_length_a 24.100346
_cell_length_b 11.818892
_cell_length_c 8.939477
_cell_angle_alpha 90.000000
_cell_angle_beta 60.969270
_cell_angle_gamma 90.000000
_cell_volume 2226.394986
_symmetry_space_group_name_H-M "C 2/C"
_symmetry_group_IT_number 15
_symmetry_cell_setting 'monoclinic'
loop_
_space_group_symop_operation_xyz
x,y,z
-x,y,1/2-z
-x,-y,-z
x,-y,1/2+z
1/2+x,1/2+y,z
1/2-x,1/2+y,1/2-z
1/2-x,1/2-y,-z
1/2+x,1/2-y,1/2+z
loop_
_atom_site_type_symbol
_atom_site_label
_atom_site_fract_x
_atom_site_fract_y
_atom_site_fract_z
Si Si1 0.232070 0.875288 0.963398
Si Si2 0.591953 0.119537 0.034872
Si Si3 0.124186 0.702168 0.668841
Si Si4 0.058849 0.082177 0.280861
Si Si5 0.588324 0.360741 0.080499
Si Si6 0.210157 0.537819 0.407617
Si Si7 0.500000 0.056097 0.750000
O O1 0.164332 0.868115 0.972296
O O2 0.279133 0.927771 0.777363
O O3 0.250000 0.750000 0.000000
O O4 0.232717 0.965965 0.097558
O O5 0.620102 0.172640 0.847924
O O6 0.573688 0.232152 0.148967
O O7 0.650053 0.044898 0.017162
O O8 0.532693 0.035450 0.094307
O O9 0.115187 0.834573 0.654109
O O10 0.187943 0.651865 0.517729
O O11 0.059755 0.637508 0.700820
O O12 0.056176 0.106414 0.462867
O O13 0.000000 0.114188 0.250000
O O14 0.070526 0.952170 0.228104
#
# Coordination Sequence:
#
# PCOD9272280 Si02
#       7
#     8   8   8   8   8   8   4
#     4  12  25  46  70 106 140 187 232 295 351 419
#     4  10  21  40  63 100 132 175 222 284 339 411
#     4  10  21  41  65  99 132 178 224 280 352 410
#     4  11  24  46  65  97 134 183 225 285 345 417
#     4  11  25  44  67  97 138 176 239 275 346 423
#     4  11  23  43  71  97 141 175 229 288 345 408
#     4  10  20  36  66  98 134 172 226 284 342 414
#
# _framework density 23.356141999999998
#
# number of rings (size 3 to 8) (size 9 to 14) (size 15 to 20)
#    0.000    1.231    3.846    1.846    1.077    2.462 
#    0.000    3.077    0.000    0.000    0.000    0.000 
#    0.000    0.000    0.000    0.000    0.000    0.000 
#
# Total GULP energy -145039.084126 kJ/mol
# GULP energy per Si atom -5578.426313 kJ/mol
# Density = 2.330298 g / cm^3
# Si number density = 23.356142 Si / 1000 Ang^3
#
#
#
# Elastic Constant Matrix: (Units=GPa)
#
#
# Indices 1 2 3 4 5 6 
#
# 1 105.6996 32.6382 21.4049 0.0000 8.6998 0.0000
# 2 32.6382 143.0314 33.4082 0.0000 1.3716 0.0000
# 3 21.4049 33.4082 54.0309 0.0000 9.3672 0.0000
# 4 0.0000 0.0000 0.0000 32.2726 0.0000 4.0996
# 5 8.6998 1.3716 9.3672 0.0000 18.3055 0.0000
# 6 0.0000 0.0000 0.0000 4.0996 0.0000 34.6490
#
#
#
# Elastic Compliance Matrix: (Units=1/GPa)
#
#
# Indices 1 2 3 4 5 6 
#
# 1 0.010848 -0.001855 -0.002503 0.000000 -0.003736 0.000000
# 2 -0.001855 0.008568 -0.005053 0.000000 0.002825 0.000000
# 3 -0.002503 -0.005053 0.024528 0.000000 -0.010983 0.000000
# 4 0.000000 0.000000 0.000000 0.031459 0.000000 -0.003722
# 5 -0.003736 0.002825 -0.010983 0.000000 0.061812 0.000000
# 6 0.000000 0.000000 0.000000 -0.003722 0.000000 0.029301
#
#
# Mechanical properties :
#
#
# Convention : Reuss Voigt Hill
#
# Bulk Modulus (GPa) = 39.80481 53.07381 46.43931
# Shear Modulus (GPa) = 25.81169 31.39946 28.60557
#
# Velocity S-wave (km/s) = 3.32796 3.67055 3.50345
# Velocity P-wave (km/s) = 5.64328 6.38255 6.02427
#
# Compressibility (1/GPa) = 0.02512259
#
# Stress axis : x y z
#
# Youngs Moduli (GPa) = 92.18397 116.71633 40.77035
#
# Poissons Ratio (x) = 0.21650 0.10204
# Poissons Ratio (y) = 0.17099 0.20599
# Poissons Ratio (z) = 0.23073 0.58971
#
# Static dielectric constant tensor:
#      x y z
#    x 1.934360 0.000000 -0.009910 
#    y 0.000000 1.935410 0.000000 
#    z -0.009910 0.000000 1.882060 
# 
# From -- ./inp_files/65096.got.cif
#   From: 2010.05.17/outbox.cif.g08.bks.cpg/sg15_33_cif.got.tgz:65096.got - 2010.06.03 18:47:42.
