data_PCOD9272425
_publ_section_title
;
Structure prediction by ZEFSAII (Michael W. Deem and Ramdas Pophale) SiO2 
 PCOD9272425
Probable space group: C 2/C
;
_chemical_formula_sum "Si O2"
_cell_formula_units_Z 60
_cell_length_a 14.499520
_cell_length_b 28.593687
_cell_length_c 12.864138
_cell_angle_alpha 90.000000
_cell_angle_beta 34.099214
_cell_angle_gamma 90.000000
_cell_volume 2990.053617
_symmetry_space_group_name_H-M "C 2/C"
_symmetry_group_IT_number 15
_symmetry_cell_setting 'monoclinic'
loop_
_space_group_symop_operation_xyz
x,y,z
-x,y,1/2-z
-x,-y,-z
x,-y,1/2+z
1/2+x,1/2+y,z
1/2-x,1/2+y,1/2-z
1/2-x,1/2-y,-z
1/2+x,1/2-y,1/2+z
loop_
_atom_site_type_symbol
_atom_site_label
_atom_site_fract_x
_atom_site_fract_y
_atom_site_fract_z
Si Si1 0.123536 0.458352 0.409213
Si Si2 0.000000 0.395944 0.250000
Si Si3 0.316109 0.558573 0.518154
Si Si4 0.445488 0.390247 0.577415
Si Si5 0.556254 0.208692 0.078752
Si Si6 0.060846 0.813503 0.306192
Si Si7 0.971987 0.035491 0.670423
Si Si8 0.933770 0.631550 0.041558
O O1 0.215493 0.448109 0.217062
O O2 0.275340 0.471173 0.342328
O O3 0.000000 0.500000 0.500000
O O4 0.024660 0.410416 0.520861
O O5 0.167033 0.427060 0.081938
O O6 0.003020 0.368174 0.357597
O O7 0.445973 0.599486 0.421842
O O8 0.421594 0.511358 0.412308
O O9 0.522069 0.350034 0.433264
O O10 0.458647 0.437054 0.493769
O O11 0.259146 0.379524 0.779065
O O12 0.500000 0.197862 0.250000
O O13 0.527111 0.263860 0.090921
O O14 0.461169 0.178465 0.081536
O O15 0.746322 0.196307 0.885666
O O16 0.000000 0.829850 0.250000
O O17 0.000000 0.063900 0.750000
#
# Coordination Sequence:
#
# PCOD9272425 Si02
#       8
#     8   4   8   8   8   8   8   8
#     4  10  20  37  56  79 115 157 203 260 306 360
#     4  10  24  40  62  90 116 172 210 266 308 370
#     4  10  22  37  56  81 116 159 216 252 307 365
#     4  11  22  40  60  87 123 166 204 265 316 374
#     4  11  22  39  65  99 127 165 201 254 317 375
#     4  11  21  38  64  94 131 158 203 253 318 382
#     4  11  23  35  55  87 120 160 209 259 315 374
#     4  11  23  40  64  87 126 162 216 257 313 377
#
# _framework density 20.066528999999999
#
# number of rings (size 3 to 8) (size 9 to 14) (size 15 to 20)
#    0.000    1.333    0.000    9.200    5.600    1.067 
#    0.000    0.000    0.000    7.200    0.000    0.000 
#    0.000    0.000    0.000    0.000    0.000    0.000 
#
# Total GULP energy -167407.727560 kJ/mol
# GULP energy per Si atom -5580.257585 kJ/mol
# Density = 2.002086 g / cm^3
# Si number density = 20.066529 Si / 1000 Ang^3
#
#
#
# Elastic Constant Matrix: (Units=GPa)
#
#
# Indices 1 2 3 4 5 6 
#
# 1 95.2594 38.2168 25.4293 0.0000 -10.0966 0.0000
# 2 38.2168 107.7196 32.4422 0.0000 1.9092 0.0000
# 3 25.4293 32.4422 116.3491 -0.0001 -17.7384 0.0001
# 4 0.0000 0.0000 -0.0001 35.5730 0.0000 -12.8403
# 5 -10.0966 1.9092 -17.7384 0.0000 38.3550 0.0000
# 6 0.0000 0.0000 0.0001 -12.8403 0.0000 36.8065
#
#
#
# Elastic Compliance Matrix: (Units=1/GPa)
#
#
# Indices 1 2 3 4 5 6 
#
# 1 0.012839 -0.004263 -0.001151 0.000000 0.003060 0.000000
# 2 -0.004263 0.011687 -0.002783 0.000000 -0.002991 0.000000
# 3 -0.001151 -0.002783 0.010325 0.000000 0.004611 0.000000
# 4 0.000000 0.000000 0.000000 0.032161 0.000000 0.011220
# 5 0.003060 -0.002991 0.004611 0.000000 0.029159 0.000000
# 6 0.000000 0.000000 0.000000 0.011220 0.000000 0.031083
#
#
# Mechanical properties :
#
#
# Convention : Reuss Voigt Hill
#
# Bulk Modulus (GPa) = 54.17739 56.83387 55.50563
# Shear Modulus (GPa) = 33.37760 37.02956 35.20358
#
# Velocity S-wave (km/s) = 4.08284 4.30040 4.19303
# Velocity P-wave (km/s) = 7.02023 7.28300 7.15282
#
# Compressibility (1/GPa) = 0.01845788
#
# Stress axis : x y z
#
# Youngs Moduli (GPa) = 77.88540 85.56610 96.84876
#
# Poissons Ratio (x) = 0.36474 0.11148
# Poissons Ratio (y) = 0.33200 0.26953
# Poissons Ratio (z) = 0.08966 0.23813
#
# Static dielectric constant tensor:
#      x y z
#    x 2.821910 0.000000 -0.297840 
#    y 0.000000 1.742550 0.000000 
#    z -0.297840 0.000000 1.793450 
# 
# From -- ./inp_files/157337.got.cif
#   From: 2010.05.17/outbox.cif.g08.bks.cpg/sg15_79_cif.got.tgz:157337.got - 2010.06.03 18:47:42.
