data_PCOD9272984
_publ_section_title
;
Structure prediction by ZEFSAII (Michael W. Deem and Ramdas Pophale) SiO2 
 PCOD9272984
Probable space group: C 2/C
;
_chemical_formula_sum "Si O2"
_cell_formula_units_Z 48
_cell_length_a 31.109235
_cell_length_b 15.337610
_cell_length_c 15.878849
_cell_angle_alpha 90.000000
_cell_angle_beta 162.405942
_cell_angle_gamma 90.000000
_cell_volume 2290.142865
_symmetry_space_group_name_H-M "C 2/C"
_symmetry_group_IT_number 15
_symmetry_cell_setting 'monoclinic'
loop_
_space_group_symop_operation_xyz
x,y,z
-x,y,1/2-z
-x,-y,-z
x,-y,1/2+z
1/2+x,1/2+y,z
1/2-x,1/2+y,1/2-z
1/2-x,1/2-y,-z
1/2+x,1/2-y,1/2+z
loop_
_atom_site_type_symbol
_atom_site_label
_atom_site_fract_x
_atom_site_fract_y
_atom_site_fract_z
Si Si1 0.489019 0.119064 0.063119
Si Si2 0.833513 0.872488 0.594665
Si Si3 0.807773 0.036084 0.293676
Si Si4 0.000000 0.499881 0.250000
Si Si5 0.016672 0.183767 0.957841
Si Si6 0.000000 0.901918 0.750000
Si Si7 0.779839 0.052931 0.558894
O O1 0.484221 0.061256 0.138339
O O2 0.613934 0.076986 0.239210
O O3 0.335306 0.127953 0.733267
O O4 0.519813 0.219978 0.140852
O O5 0.885409 0.822775 0.774771
O O6 0.926246 0.847075 0.686805
O O7 0.853587 0.976996 0.642285
O O8 0.878592 0.966054 0.487500
O O9 0.900609 0.122812 0.454458
O O10 0.645119 0.054427 0.014715
O O11 0.798040 0.985674 0.186284
O O12 0.871723 0.137599 0.714578
#
# Coordination Sequence:
#
# PCOD9272984 Si02
#       7
#     8   8   8   4   8   4   8
#     4  11  23  36  59  87 123 146 184 246 291 327
#     4  11  21  38  61  85 111 156 197 229 281 347
#     4  10  20  37  62  80 112 152 197 232 274 347
#     4  10  22  39  57  84 116 154 192 230 290 339
#     4  11  21  39  59  87 114 151 193 239 284 336
#     4  12  18  35  65  82 108 150 202 234 272 335
#     4  10  20  39  59  84 110 156 195 225 276 355
#
# _framework density 20.959392000000001
#
# number of rings (size 3 to 8) (size 9 to 14) (size 15 to 20)
#    0.000    1.333    5.000    2.500    0.000    0.667 
#    0.000    0.833    0.000    0.000    0.000    0.000 
#    0.000    0.000    0.000    0.000    0.000    0.000 
#
# Total GULP energy -133968.757692 kJ/mol
# GULP energy per Si atom -5582.031570 kJ/mol
# Density = 2.091169 g / cm^3
# Si number density = 20.959392 Si / 1000 Ang^3
#
#
#
# Elastic Constant Matrix: (Units=GPa)
#
#
# Indices 1 2 3 4 5 6 
#
# 1 56.4678 -0.6700 13.6661 0.0000 16.5475 0.0000
# 2 -0.6700 43.7969 -17.6132 0.0000 6.9018 0.0000
# 3 13.6661 -17.6132 89.6171 0.0000 25.9187 0.0000
# 4 0.0000 0.0000 0.0000 16.6958 0.0000 -3.5389
# 5 16.5475 6.9018 25.9187 0.0000 32.7219 0.0000
# 6 0.0000 0.0000 0.0000 -3.5389 0.0000 -0.0543
#
#
#
# Elastic Compliance Matrix: (Units=1/GPa)
#
#
# Indices 1 2 3 4 5 6 
#
# 1 0.020991 0.002408 0.000635 0.000000 -0.011626 0.000000
# 2 0.002408 0.029152 0.009720 0.000000 -0.015066 0.000000
# 3 0.000635 0.009720 0.017716 0.000000 -0.016404 0.000000
# 4 0.000000 0.000000 0.000000 0.004040 0.000000 -0.263514
# 5 -0.011626 -0.015066 -0.016404 0.000000 0.052611 0.000000
# 6 0.000000 0.000000 0.000000 -0.263514 0.000000 -1.243209
#
#
# Mechanical properties :
#
#
# Convention : Reuss Voigt Hill
#
# Bulk Modulus (GPa) = 10.70830 20.07196 15.39013
# Shear Modulus (GPa) = -4.49198 22.83928 9.17365
#
# Velocity S-wave (km/s) = -1.46555 3.30463 2.09437
# Velocity P-wave (km/s) = 1.50213 4.91509 3.63418
#
# Compressibility (1/GPa) = 0.09338551
#
# Stress axis : x y z
#
# Youngs Moduli (GPa) = 47.63918 34.30251 56.44489
#
# Poissons Ratio (x) = -0.08262 -0.03583
# Poissons Ratio (y) = -0.11474 -0.54862
# Poissons Ratio (z) = -0.03024 -0.33340
#
# Static dielectric constant tensor:
#      x y z
#    x 1.794900 0.000000 0.000260 
#    y 0.000000 1.759300 0.000000 
#    z 0.000260 0.000000 1.805970 
# 
# From -- ./inp_files/182475.got.cif
#   From: 2010.05.17/outbox.cif.g08.bks.cpg/sg15_92_cif.got.tgz:182475.got - 2010.06.03 18:47:42.
