data_PCOD9272768
_publ_section_title
;
Structure prediction by ZEFSAII (Michael W. Deem and Ramdas Pophale) SiO2 
 PCOD9272768
Probable space group: C 2/C
;
_chemical_formula_sum "Si O2"
_cell_formula_units_Z 56
_cell_length_a 13.309998
_cell_length_b 16.336181
_cell_length_c 17.583352
_cell_angle_alpha 90.000000
_cell_angle_beta 131.120434
_cell_angle_gamma 90.000000
_cell_volume 2880.148128
_symmetry_space_group_name_H-M "C 2/C"
_symmetry_group_IT_number 15
_symmetry_cell_setting 'monoclinic'
loop_
_space_group_symop_operation_xyz
x,y,z
-x,y,1/2-z
-x,-y,-z
x,-y,1/2+z
1/2+x,1/2+y,z
1/2-x,1/2+y,1/2-z
1/2-x,1/2-y,-z
1/2+x,1/2-y,1/2+z
loop_
_atom_site_type_symbol
_atom_site_label
_atom_site_fract_x
_atom_site_fract_y
_atom_site_fract_z
Si Si1 0.958070 0.273746 0.643892
Si Si2 0.274094 0.360811 0.054807
Si Si3 0.855435 0.322543 0.345915
Si Si4 0.825968 0.677053 0.497287
Si Si5 0.278491 0.167141 0.300798
Si Si6 0.654407 0.000996 0.737161
Si Si7 0.837819 0.493446 0.079673
O O1 0.822290 0.319762 0.556116
O O2 0.919909 0.178166 0.619801
O O3 0.000000 0.294023 0.750000
O O4 0.071851 0.302442 0.644359
O O5 0.216497 0.335827 0.108486
O O6 0.254082 0.454275 0.022857
O O7 0.807323 0.238718 0.281902
O O8 0.823608 0.406386 0.282908
O O9 0.014511 0.313842 0.434386
O O10 0.750000 0.750000 0.500000
O O11 0.762265 0.664667 0.382799
O O12 0.814166 0.599477 0.545878
O O13 0.269239 0.074458 0.264487
O O14 0.684124 0.995184 0.841626
O O15 0.495006 0.986659 0.644479
#
# Coordination Sequence:
#
# PCOD9272768 Si02
#       7
#     8   8   8   8   8   8   8
#     4  11  21  35  57  96 125 151 187 246 307 364
#     4  11  21  34  63  91 123 151 194 245 312 357
#     4  11  23  39  61  92 119 156 206 245 298 361
#     4  11  24  42  61  84 120 167 207 247 286 349
#     4  12  22  38  65  90 124 158 197 247 306 356
#     4  10  21  36  60  89 120 155 199 253 294 350
#     4  10  20  37  60  87 120 155 203 245 296 355
#
# _framework density 19.443444
#
# number of rings (size 3 to 8) (size 9 to 14) (size 15 to 20)
#    0.000    1.143    4.286    2.571    2.000    4.000 
#    0.000    1.429    0.000    3.429    0.000    0.000 
#    0.000    0.000    0.000    0.000    0.000    0.000 
#
# Total GULP energy -156264.163822 kJ/mol
# GULP energy per Si atom -5580.862994 kJ/mol
# Density = 1.939919 g / cm^3
# Si number density = 19.443444 Si / 1000 Ang^3
#
#
#
# Elastic Constant Matrix: (Units=GPa)
#
#
# Indices 1 2 3 4 5 6 
#
# 1 37.0264 27.1985 14.8970 0.0000 -20.9010 0.0000
# 2 27.1985 131.4734 39.9903 0.0000 -10.0407 0.0000
# 3 14.8970 39.9903 77.0550 0.0000 -28.8685 0.0000
# 4 0.0000 0.0000 0.0000 41.8539 0.0000 1.7749
# 5 -20.9010 -10.0407 -28.8685 0.0000 28.8537 0.0000
# 6 0.0000 0.0000 0.0000 1.7749 0.0000 35.4254
#
#
#
# Elastic Compliance Matrix: (Units=1/GPa)
#
#
# Indices 1 2 3 4 5 6 
#
# 1 0.062442 -0.013511 0.016195 0.000000 0.056733 0.000000
# 2 -0.013511 0.012067 -0.009188 0.000000 -0.014781 0.000000
# 3 0.016195 -0.009188 0.028493 0.000000 0.037041 0.000000
# 4 0.000000 0.000000 0.000000 0.023944 0.000000 -0.001200
# 5 0.056733 -0.014781 0.037041 0.000000 0.107670 0.000000
# 6 0.000000 0.000000 0.000000 -0.001200 0.000000 0.028288
#
#
# Mechanical properties :
#
#
# Convention : Reuss Voigt Hill
#
# Bulk Modulus (GPa) = 11.11192 45.52518 28.31855
# Shear Modulus (GPa) = 16.34470 32.12454 24.23462
#
# Velocity S-wave (km/s) = 2.90250 4.06914 3.53429
# Velocity P-wave (km/s) = 4.11826 6.74850 5.59027
#
# Compressibility (1/GPa) = 0.08999343
#
# Stress axis : x y z
#
# Youngs Moduli (GPa) = 16.01491 82.86981 35.09679
#
# Poissons Ratio (x) = 1.11965 -0.56839
# Poissons Ratio (y) = 0.21638 0.32247
# Poissons Ratio (z) = -0.25936 0.76142
#
# Static dielectric constant tensor:
#      x y z
#    x 1.672980 0.000000 0.017350 
#    y 0.000000 1.766660 0.000000 
#    z 0.017350 0.000000 1.687540 
# 
# From -- ./inp_files/153415.got.cif
#   From: 2010.05.17/outbox.cif.g08.bks.cpg/sg15_77_cif.got.tgz:153415.got - 2010.06.03 18:47:42.
