data_PCOD9272722
_publ_section_title
;
Structure prediction by ZEFSAII (Michael W. Deem and Ramdas Pophale) SiO2 
 PCOD9272722
Probable space group: C 2/C
;
_chemical_formula_sum "Si O2"
_cell_formula_units_Z 40
_cell_length_a 12.980304
_cell_length_b 8.754409
_cell_length_c 14.678009
_cell_angle_alpha 90.000000
_cell_angle_beta 118.142153
_cell_angle_gamma 90.000000
_cell_volume 1470.750957
_symmetry_space_group_name_H-M "C 2/C"
_symmetry_group_IT_number 15
_symmetry_cell_setting 'monoclinic'
loop_
_space_group_symop_operation_xyz
x,y,z
-x,y,1/2-z
-x,-y,-z
x,-y,1/2+z
1/2+x,1/2+y,z
1/2-x,1/2+y,1/2-z
1/2-x,1/2-y,-z
1/2+x,1/2-y,1/2+z
loop_
_atom_site_type_symbol
_atom_site_label
_atom_site_fract_x
_atom_site_fract_y
_atom_site_fract_z
Si Si1 0.637596 0.730333 0.887575
Si Si2 0.814521 0.215790 0.195141
Si Si3 0.541211 0.840838 0.555135
Si Si4 0.758885 0.965084 0.825703
Si Si5 0.589618 0.592442 0.441631
O O1 0.530197 0.823992 0.882511
O O2 0.590127 0.558790 0.877681
O O3 0.685752 0.813268 0.818275
O O4 0.750000 0.750000 0.000000
O O5 0.680576 0.164501 0.120451
O O6 0.816213 0.387453 0.235061
O O7 0.876335 0.212844 0.123199
O O8 0.849515 0.088934 0.285268
O O9 0.510466 0.694062 0.478197
O O10 0.500000 0.000000 0.500000
O O11 0.818549 0.031167 0.942394
#
# Coordination Sequence:
#
# PCOD9272722 Si02
#       5
#     8   8   8   8   8
#     4  10  20  37  60  84 118 159 202 254 307 365
#     4  11  22  39  63  89 125 164 206 260 315 383
#     4  11  21  36  61  91 120 159 205 255 313 375
#     4  10  21  38  61  90 121 163 208 254 318 378
#     4  10  21  40  63  89 122 163 207 258 315 380
#
# _framework density 27.196991000000001
#
# number of rings (size 3 to 8) (size 9 to 14) (size 15 to 20)
#    0.000    1.600    0.000    7.800    0.000    2.400 
#    0.000    0.000    0.000   26.400    0.000    0.000 
#    0.000    0.000    0.000    0.000    0.000    0.000 
#
# Total GULP energy -111661.576673 kJ/mol
# GULP energy per Si atom -5583.078834 kJ/mol
# Density = 2.713509 g / cm^3
# Si number density = 27.196991 Si / 1000 Ang^3
#
#
#
# Elastic Constant Matrix: (Units=GPa)
#
#
# Indices 1 2 3 4 5 6 
#
# 1 51.5464 1.3802 6.3444 0.0000 -17.0661 0.0000
# 2 1.3802 165.6612 18.8690 0.0000 -6.8287 0.0000
# 3 6.3444 18.8690 116.6147 0.0000 -20.6019 0.0000
# 4 0.0000 0.0000 0.0000 40.8623 0.0000 -17.6350
# 5 -17.0661 -6.8287 -20.6019 0.0000 64.5562 0.0000
# 6 0.0000 0.0000 0.0000 -17.6350 0.0000 49.3181
#
#
#
# Elastic Compliance Matrix: (Units=1/GPa)
#
#
# Indices 1 2 3 4 5 6 
#
# 1 0.021265 0.000073 -0.000185 0.000000 0.005570 0.000000
# 2 0.000073 0.006158 -0.000935 0.000000 0.000373 0.000000
# 3 -0.000185 -0.000935 0.009231 0.000000 0.002798 0.000000
# 4 0.000000 0.000000 0.000000 0.028938 0.000000 0.010348
# 5 0.005570 0.000373 0.002798 0.000000 0.017895 0.000000
# 6 0.000000 0.000000 0.000000 0.010348 0.000000 0.023977
#
#
# Mechanical properties :
#
#
# Convention : Reuss Voigt Hill
#
# Bulk Modulus (GPa) = 28.93348 43.00106 35.96727
# Shear Modulus (GPa) = 41.29644 51.42923 46.36283
#
# Velocity S-wave (km/s) = 3.90092 4.35327 4.13329
# Velocity P-wave (km/s) = 5.56337 6.41196 6.00268
#
# Compressibility (1/GPa) = 0.03456203
#
# Stress axis : x y z
#
# Youngs Moduli (GPa) = 47.02555 162.40087 108.33235
#
# Poissons Ratio (x) = -0.01194 0.02001
# Poissons Ratio (y) = -0.00346 0.10124
# Poissons Ratio (z) = 0.00869 0.15177
#
# Static dielectric constant tensor:
#      x y z
#    x 2.288090 0.000000 0.211850 
#    y 0.000000 2.024400 0.000000 
#    z 0.211850 0.000000 2.342680 
# 
# From -- ./inp_files/150674.got.cif
#   From: 2010.05.17/outbox.cif.g08.bks.cpg/sg15_76_cif.got.tgz:150674.got - 2010.06.03 18:47:42.
