data_PCOD9272601
_publ_section_title
;
Structure prediction by ZEFSAII (Michael W. Deem and Ramdas Pophale) SiO2 
 PCOD9272601
Probable space group: C 2/C
;
_chemical_formula_sum "Si O2"
_cell_formula_units_Z 48
_cell_length_a 28.794013
_cell_length_b 8.005209
_cell_length_c 19.012325
_cell_angle_alpha 90.000000
_cell_angle_beta 22.618477
_cell_angle_gamma 90.000000
_cell_volume 1685.433039
_symmetry_space_group_name_H-M "C 2/C"
_symmetry_group_IT_number 15
_symmetry_cell_setting 'monoclinic'
loop_
_space_group_symop_operation_xyz
x,y,z
-x,y,1/2-z
-x,-y,-z
x,-y,1/2+z
1/2+x,1/2+y,z
1/2-x,1/2+y,1/2-z
1/2-x,1/2-y,-z
1/2+x,1/2-y,1/2+z
loop_
_atom_site_type_symbol
_atom_site_label
_atom_site_fract_x
_atom_site_fract_y
_atom_site_fract_z
Si Si1 0.884501 0.563596 0.954284
Si Si2 0.641374 0.475144 0.036284
Si Si3 0.199317 0.846153 0.166291
Si Si4 0.092139 0.851476 0.472521
Si Si5 0.368142 0.174106 0.737700
Si Si6 0.484101 0.837158 0.926590
O O1 0.000000 0.622634 0.750000
O O2 0.920922 0.392071 0.943652
O O3 0.778199 0.512180 0.050417
O O4 0.861083 0.690644 0.049729
O O5 0.500000 0.486383 0.250000
O O6 0.711029 0.311250 0.964158
O O7 0.638667 0.496335 0.954879
O O8 0.727648 0.626800 0.943445
O O9 0.145080 0.854243 0.320913
O O10 0.083355 0.807497 0.281425
O O11 0.948509 0.814963 0.664291
O O12 0.396795 0.197642 0.614358
O O13 0.438408 0.001958 0.659716
#
# Coordination Sequence:
#
# PCOD9272601 Si02
#       6
#     8   8   8   8   8   8
#     4  11  21  34  54  82 111 136 173 225 272 310
#     4  11  21  34  54  82 111 136 173 225 272 310
#     4  10  20  37  59  78 103 144 185 216 255 317
#     4  10  20  37  59  78 103 144 185 216 255 317
#     4   8  16  33  55  75 102 145 182 205 253 330
#     4   8  16  33  55  75 102 145 182 205 253 330
#
# _framework density 28.479326
#
# number of rings (size 3 to 8) (size 9 to 14) (size 15 to 20)
#    0.000    2.333    0.000    6.000    0.000    1.333 
#    0.000    5.000    0.000    6.000    0.000    0.000 
#    0.000    0.000    0.000    0.000    0.000    0.000 
#
# Total GULP energy -134572.123494 kJ/mol
# GULP energy per Si atom -5607.171812 kJ/mol
# Density = 2.841451 g / cm^3
# Si number density = 28.479326 Si / 1000 Ang^3
#
#
#
# Elastic Constant Matrix: (Units=GPa)
#
#
# Indices 1 2 3 4 5 6 
#
# 1 79.6060 9.0111 24.5772 0.0007 -7.4650 0.0000
# 2 9.0111 101.5376 24.5417 0.0017 -18.8879 -0.0007
# 3 24.5772 24.5417 179.4683 0.0023 -36.9461 -0.0001
# 4 0.0007 0.0017 0.0023 30.7224 -0.0004 -20.0004
# 5 -7.4650 -18.8879 -36.9461 -0.0004 60.5683 0.0000
# 6 0.0000 -0.0007 -0.0001 -20.0004 0.0000 32.2965
#
#
#
# Elastic Compliance Matrix: (Units=1/GPa)
#
#
# Indices 1 2 3 4 5 6 
#
# 1 0.013181 -0.000700 -0.001624 0.000000 0.000416 0.000000
# 2 -0.000700 0.010612 -0.000791 -0.000001 0.002740 0.000000
# 3 -0.001624 -0.000791 0.006645 -0.000001 0.003607 0.000000
# 4 0.000000 -0.000001 -0.000001 0.054536 0.000000 0.033772
# 5 0.000416 0.002740 0.003607 0.000000 0.019616 0.000000
# 6 0.000000 0.000000 0.000000 0.033772 0.000000 0.051878
#
#
# Mechanical properties :
#
#
# Convention : Reuss Voigt Hill
#
# Bulk Modulus (GPa) = 41.30812 52.98577 47.14694
# Shear Modulus (GPa) = 29.27975 44.88288 37.08132
#
# Velocity S-wave (km/s) = 3.20989 3.97417 3.61230
# Velocity P-wave (km/s) = 5.31732 6.30112 5.83001
#
# Compressibility (1/GPa) = 0.02420831
#
# Stress axis : x y z
#
# Youngs Moduli (GPa) = 75.86434 94.23600 150.48838
#
# Poissons Ratio (x) = 0.06596 0.24436
# Poissons Ratio (y) = 0.05310 0.11905
# Poissons Ratio (z) = 0.12319 0.07455
#
# Static dielectric constant tensor:
#      x y z
#    x 2.139330 0.000000 -0.053710 
#    y 0.000000 2.264720 0.000000 
#    z -0.053710 0.000000 2.210990 
# 
# From -- ./inp_files/259219.got.cif
#   From: 2010.05.17/outbox.cif.g08.bks.cpg/sg15_130_cif.got.tgz:259219.got - 2010.06.03 18:47:42.
