data_PCOD9272648
_publ_section_title
;
Structure prediction by ZEFSAII (Michael W. Deem and Ramdas Pophale) SiO2 
 PCOD9272648
Probable space group: C 2/C
;
_chemical_formula_sum "Si O2"
_cell_formula_units_Z 44
_cell_length_a 8.809018
_cell_length_b 28.807450
_cell_length_c 10.476546
_cell_angle_alpha 90.000000
_cell_angle_beta 45.215680
_cell_angle_gamma 90.000000
_cell_volume 1886.966230
_symmetry_space_group_name_H-M "C 2/C"
_symmetry_group_IT_number 15
_symmetry_cell_setting 'monoclinic'
loop_
_space_group_symop_operation_xyz
x,y,z
-x,y,1/2-z
-x,-y,-z
x,-y,1/2+z
1/2+x,1/2+y,z
1/2-x,1/2+y,1/2-z
1/2-x,1/2-y,-z
1/2+x,1/2-y,1/2+z
loop_
_atom_site_type_symbol
_atom_site_label
_atom_site_fract_x
_atom_site_fract_y
_atom_site_fract_z
Si Si1 0.147218 0.501186 0.536922
Si Si2 0.500000 0.256195 0.250000
Si Si3 0.315021 0.313750 0.569161
Si Si4 0.092226 0.092002 0.560976
Si Si5 0.260737 0.902633 0.450007
Si Si6 0.261823 0.197190 0.946857
O O1 0.297631 0.456714 0.470422
O O2 0.264186 0.550697 0.455124
O O3 0.000000 0.502129 0.750000
O O4 0.000000 0.500000 0.500000
O O5 0.336613 0.289939 0.417948
O O6 0.352437 0.219348 0.258874
O O7 0.259600 0.367417 0.585693
O O8 0.555214 0.308085 0.478366
O O9 0.000000 0.109772 0.750000
O O10 0.900788 0.089620 0.572488
O O11 0.500000 0.902188 0.250000
O O12 0.236792 0.852764 0.535130
O O13 0.500000 0.194216 0.750000
O O14 0.250000 0.250000 0.000000
#
# Coordination Sequence:
#
# PCOD9272648 Si02
#       6
#     8   4   8   8   8   8
#     4  11  24  44  66  97 129 171 219 274 338 397
#     4  10  20  38  54  86 126 162 214 258 316 390
#     4  10  21  36  59  88 123 168 212 264 327 384
#     4  11  21  38  65  92 127 167 219 270 336 397
#     4   9  20  39  61  89 122 165 210 262 324 391
#     4  10  20  37  59  86 120 161 206 256 314 385
#
# _framework density 23.317852999999999
#
# number of rings (size 3 to 8) (size 9 to 14) (size 15 to 20)
#    0.000    1.818    0.909    3.818    1.273    0.000 
#    6.545    4.545    0.000    0.000    0.000    0.000 
#    0.000    0.000    0.000    0.000    0.000    0.000 
#
# Total GULP energy -122533.945326 kJ/mol
# GULP energy per Si atom -5569.724788 kJ/mol
# Density = 2.326478 g / cm^3
# Si number density = 23.317853 Si / 1000 Ang^3
#
#
#
# Elastic Constant Matrix: (Units=GPa)
#
#
# Indices 1 2 3 4 5 6 
#
# 1 127.7938 74.4545 16.6055 0.0000 -11.1527 0.0000
# 2 74.4545 275.9134 21.4522 0.0000 -11.4804 0.0000
# 3 16.6055 21.4522 58.8121 0.0000 -20.6736 0.0000
# 4 0.0000 0.0000 0.0000 17.6545 0.0000 -7.7953
# 5 -11.1527 -11.4804 -20.6736 0.0000 35.0946 0.0000
# 6 0.0000 0.0000 0.0000 -7.7953 0.0000 53.4591
#
#
#
# Elastic Compliance Matrix: (Units=1/GPa)
#
#
# Indices 1 2 3 4 5 6 
#
# 1 0.009525 -0.002408 -0.001291 0.000000 0.001479 0.000000
# 2 -0.002408 0.004347 -0.000851 0.000000 0.000155 0.000000
# 3 -0.001291 -0.000851 0.021990 0.000000 0.012265 0.000000
# 4 0.000000 0.000000 0.000000 0.060541 0.000000 0.008828
# 5 0.001479 0.000155 0.012265 0.000000 0.036240 0.000000
# 6 0.000000 0.000000 0.000000 0.008828 0.000000 0.019993
#
#
# Mechanical properties :
#
#
# Convention : Reuss Voigt Hill
#
# Bulk Modulus (GPa) = 37.36844 76.39374 56.88109
# Shear Modulus (GPa) = 29.29856 44.57546 36.93701
#
# Velocity S-wave (km/s) = 3.54854 4.37698 3.98435
# Velocity P-wave (km/s) = 5.73149 7.64048 6.75378
#
# Compressibility (1/GPa) = 0.02676055
#
# Stress axis : x y z
#
# Youngs Moduli (GPa) = 104.98586 230.05147 45.47594
#
# Poissons Ratio (x) = 0.55406 0.05872
# Poissons Ratio (y) = 0.25285 0.03870
# Poissons Ratio (z) = 0.13555 0.19576
#
# Static dielectric constant tensor:
#      x y z
#    x 1.919730 0.000000 -0.019320 
#    y 0.000000 1.990800 0.000000 
#    z -0.019320 0.000000 2.001780 
# 
# From -- ./inp_files/81107.got.cif
#   From: 2010.05.17/outbox.cif.g08.bks.cpg/sg15_41_cif.got.tgz:81107.got - 2010.06.03 18:47:42.
