data_PCOD9272010
_publ_section_title
;
Structure prediction by ZEFSAII (Michael W. Deem and Ramdas Pophale) SiO2 
 PCOD9272010
Probable space group: C 2/C
;
_chemical_formula_sum "Si O2"
_cell_formula_units_Z 60
_cell_length_a 21.374535
_cell_length_b 9.063111
_cell_length_c 17.343808
_cell_angle_alpha 90.000000
_cell_angle_beta 116.936242
_cell_angle_gamma 90.000000
_cell_volume 2995.333745
_symmetry_space_group_name_H-M "C 2/C"
_symmetry_group_IT_number 15
_symmetry_cell_setting 'monoclinic'
loop_
_space_group_symop_operation_xyz
x,y,z
-x,y,1/2-z
-x,-y,-z
x,-y,1/2+z
1/2+x,1/2+y,z
1/2-x,1/2+y,1/2-z
1/2-x,1/2-y,-z
1/2+x,1/2-y,1/2+z
loop_
_atom_site_type_symbol
_atom_site_label
_atom_site_fract_x
_atom_site_fract_y
_atom_site_fract_z
Si Si1 0.184208 0.933098 0.650323
Si Si2 0.829667 0.878832 0.635689
Si Si3 0.809504 0.645673 0.742458
Si Si4 0.463137 0.245237 0.648004
Si Si5 0.399561 0.975145 0.677143
Si Si6 0.939551 0.018096 0.328702
Si Si7 0.748878 0.418264 0.522274
Si Si8 0.000000 0.792547 0.250000
O O1 0.181040 0.765584 0.683852
O O2 0.199156 0.932486 0.568650
O O3 0.250017 0.023725 0.723891
O O4 0.111882 0.015761 0.629780
O O5 0.789014 0.750459 0.658482
O O6 0.884727 0.808930 0.606084
O O7 0.880716 0.951354 0.728659
O O8 0.778884 0.987044 0.564000
O O9 0.878798 0.563843 0.744956
O O10 0.500000 0.286933 0.750000
O O11 0.514732 0.337232 0.622961
O O12 0.451681 0.071090 0.652022
O O13 0.326241 0.961505 0.592824
O O14 0.433529 0.816629 0.709828
O O15 0.990157 0.896494 0.319364
O O16 0.750000 0.250000 0.500000
#
# Coordination Sequence:
#
# PCOD9272010 Si02
#       8
#     8   8   8   8   8   8   8   4
#     4  10  23  37  59  91 125 159 206 254 315 352
#     4   9  18  37  62  82 119 155 202 241 307 365
#     4   9  21  37  60  90 121 158 206 257 304 355
#     4   9  16  35  59  85 113 157 207 245 291 352
#     4  10  22  35  60  93 116 160 206 253 299 361
#     4  10  20  36  63  88 115 161 203 257 296 354
#     4  11  24  39  61  94 128 160 200 255 321 377
#     4  12  20  32  64  90 120 150 222 254 292 362
#
# _framework density 20.031158000000001
#
# number of rings (size 3 to 8) (size 9 to 14) (size 15 to 20)
#    0.000    2.133    2.667    1.600    7.467    4.800 
#    0.000    0.667    0.000    0.800    0.000    0.000 
#    0.000    0.000    0.000    0.000    0.000    0.000 
#
# Total GULP energy -167045.057644 kJ/mol
# GULP energy per Si atom -5568.168588 kJ/mol
# Density = 1.998557 g / cm^3
# Si number density = 20.031158 Si / 1000 Ang^3
#
#
#
# Elastic Constant Matrix: (Units=GPa)
#
#
# Indices 1 2 3 4 5 6 
#
# 1 106.9996 34.7866 9.3311 0.0000 -11.0420 0.0000
# 2 34.7866 98.6924 12.5478 0.0000 -3.8339 0.0000
# 3 9.3311 12.5478 29.5629 0.0000 -1.9744 0.0000
# 4 0.0000 0.0000 0.0000 25.7652 0.0000 2.3294
# 5 -11.0420 -3.8339 -1.9744 0.0000 17.0945 0.0000
# 6 0.0000 0.0000 0.0000 2.3294 0.0000 42.8750
#
#
#
# Elastic Compliance Matrix: (Units=1/GPa)
#
#
# Indices 1 2 3 4 5 6 
#
# 1 0.011286 -0.003524 -0.001645 0.000000 0.006310 0.000000
# 2 -0.003524 0.011872 -0.003931 0.000000 -0.000068 0.000000
# 3 -0.001645 -0.003931 0.036163 0.000000 0.002232 0.000000
# 4 0.000000 0.000000 0.000000 0.039004 0.000000 -0.002119
# 5 0.006310 -0.000068 0.002232 0.000000 0.062817 0.000000
# 6 0.000000 0.000000 0.000000 -0.002119 0.000000 0.023439
#
#
# Mechanical properties :
#
#
# Convention : Reuss Voigt Hill
#
# Bulk Modulus (GPa) = 24.31873 38.73177 31.52525
# Shear Modulus (GPa) = 23.09606 29.05290 26.07448
#
# Velocity S-wave (km/s) = 3.39928 3.81252 3.61182
# Velocity P-wave (km/s) = 5.25106 6.22561 5.75898
#
# Compressibility (1/GPa) = 0.04112057
#
# Stress axis : x y z
#
# Youngs Moduli (GPa) = 88.60478 84.23381 27.65247
#
# Poissons Ratio (x) = 0.29682 0.04549
# Poissons Ratio (y) = 0.31222 0.10871
# Poissons Ratio (z) = 0.14578 0.33114
#
# Static dielectric constant tensor:
#      x y z
#    x 1.773030 0.000000 -0.017950 
#    y 0.000000 1.754130 0.000000 
#    z -0.017950 0.000000 1.723830 
# 
# From -- ./inp_files/213973.got.cif
#   From: 2010.05.17/outbox.cif.g08.bks.cpg/sg15_107_cif.got.tgz:213973.got - 2010.06.03 18:47:42.
