data_PCOD9272076
_publ_section_title
;
Structure prediction by ZEFSAII (Michael W. Deem and Ramdas Pophale) SiO2 
 PCOD9272076
Probable space group: C 2/C
;
_chemical_formula_sum "Si O2"
_cell_formula_units_Z 48
_cell_length_a 12.019567
_cell_length_b 17.503476
_cell_length_c 12.256308
_cell_angle_alpha 90.000000
_cell_angle_beta 134.801655
_cell_angle_gamma 90.000000
_cell_volume 1829.599492
_symmetry_space_group_name_H-M "C 2/C"
_symmetry_group_IT_number 15
_symmetry_cell_setting 'monoclinic'
loop_
_space_group_symop_operation_xyz
x,y,z
-x,y,1/2-z
-x,-y,-z
x,-y,1/2+z
1/2+x,1/2+y,z
1/2-x,1/2+y,1/2-z
1/2-x,1/2-y,-z
1/2+x,1/2-y,1/2+z
loop_
_atom_site_type_symbol
_atom_site_label
_atom_site_fract_x
_atom_site_fract_y
_atom_site_fract_z
Si Si1 0.405330 0.596184 0.519950
Si Si2 0.335315 0.870610 0.096262
Si Si3 0.156411 0.463740 0.979574
Si Si4 0.043273 0.344482 0.552246
Si Si5 0.909793 0.051610 0.289187
Si Si6 0.801595 0.805486 0.283729
O O1 0.248304 0.603369 0.480322
O O2 0.628082 0.778769 0.677513
O O3 0.375330 0.601784 0.370440
O O4 0.553551 0.644623 0.658983
O O5 0.500000 0.837702 0.250000
O O6 0.339204 0.853224 0.970384
O O7 0.216502 0.835474 0.101729
O O8 0.351470 0.962931 0.106033
O O9 0.000967 0.424249 0.919398
O O10 0.266194 0.498107 0.151360
O O11 0.869513 0.317853 0.388232
O O12 0.040188 0.990399 0.417273
O O13 0.000000 0.091214 0.250000
#
# Coordination Sequence:
#
# PCOD9272076 Si02
#       6
#     8   8   8   8   8   8
#     4  10  20  36  63  97 132 172 224 277 340 417
#     4  10  23  43  69  97 135 178 235 300 348 402
#     4  11  22  40  68 100 137 178 228 294 354 409
#     4  11  25  43  67  97 140 185 231 284 353 422
#     4   9  17  32  61  96 127 169 221 282 337 403
#     4  11  23  45  67  98 140 188 230 282 349 429
#
# _framework density 26.235247999999999
#
# number of rings (size 3 to 8) (size 9 to 14) (size 15 to 20)
#    0.000    1.667    1.667    4.000    2.333    2.000 
#    3.000    4.167    0.000    0.000    0.000    0.000 
#    0.000    0.000    0.000    0.000    0.000    0.000 
#
# Total GULP energy -134085.209139 kJ/mol
# GULP energy per Si atom -5586.883714 kJ/mol
# Density = 2.617554 g / cm^3
# Si number density = 26.235248 Si / 1000 Ang^3
#
#
#
# Elastic Constant Matrix: (Units=GPa)
#
#
# Indices 1 2 3 4 5 6 
#
# 1 158.3439 34.7065 31.9234 0.0000 3.7617 0.0000
# 2 34.7065 84.7672 21.6740 0.0000 13.6649 0.0000
# 3 31.9234 21.6740 70.7293 0.0000 2.6594 0.0000
# 4 0.0000 0.0000 0.0000 32.3912 0.0000 9.7670
# 5 3.7617 13.6649 2.6594 0.0000 28.6219 0.0000
# 6 0.0000 0.0000 0.0000 9.7670 0.0000 32.6072
#
#
#
# Elastic Compliance Matrix: (Units=1/GPa)
#
#
# Indices 1 2 3 4 5 6 
#
# 1 0.007359 -0.002418 -0.002596 0.000000 0.000429 0.000000
# 2 -0.002418 0.014619 -0.003149 0.000000 -0.006369 0.000000
# 3 -0.002596 -0.003149 0.016263 0.000000 0.000334 0.000000
# 4 0.000000 0.000000 0.000000 0.033938 0.000000 -0.010166
# 5 0.000429 -0.006369 0.000334 0.000000 0.037892 0.000000
# 6 0.000000 0.000000 0.000000 -0.010166 0.000000 0.033713
#
#
# Mechanical properties :
#
#
# Convention : Reuss Voigt Hill
#
# Bulk Modulus (GPa) = 45.63406 54.49427 50.06416
# Shear Modulus (GPa) = 29.86604 33.75982 31.81293
#
# Velocity S-wave (km/s) = 3.37767 3.59111 3.48602
# Velocity P-wave (km/s) = 5.71345 6.16532 5.94368
#
# Compressibility (1/GPa) = 0.02191345
#
# Stress axis : x y z
#
# Youngs Moduli (GPa) = 135.89437 68.40447 61.49048
#
# Poissons Ratio (x) = 0.16541 0.15966
# Poissons Ratio (y) = 0.32861 0.19363
# Poissons Ratio (z) = 0.35284 0.21540
#
# Static dielectric constant tensor:
#      x y z
#    x 2.113080 0.000000 -0.047830 
#    y 0.000000 2.082120 0.000000 
#    z -0.047830 0.000000 2.142560 
# 
# From -- ./inp_files/89156.got.cif
#   From: 2010.05.17/outbox.cif.g08.bks.cpg/sg15_45_cif.got.tgz:89156.got - 2010.06.03 18:47:42.
