data_PCOD9272326
_publ_section_title
;
Structure prediction by ZEFSAII (Michael W. Deem and Ramdas Pophale) SiO2 
 PCOD9272326
Probable space group: C 2/C
;
_chemical_formula_sum "Si O2"
_cell_formula_units_Z 60
_cell_length_a 18.188222
_cell_length_b 7.169736
_cell_length_c 18.293230
_cell_angle_alpha 90.000000
_cell_angle_beta 109.165815
_cell_angle_gamma 90.000000
_cell_volume 2253.300252
_symmetry_space_group_name_H-M "C 2/C"
_symmetry_group_IT_number 15
_symmetry_cell_setting 'monoclinic'
loop_
_space_group_symop_operation_xyz
x,y,z
-x,y,1/2-z
-x,-y,-z
x,-y,1/2+z
1/2+x,1/2+y,z
1/2-x,1/2+y,1/2-z
1/2-x,1/2-y,-z
1/2+x,1/2-y,1/2+z
loop_
_atom_site_type_symbol
_atom_site_label
_atom_site_fract_x
_atom_site_fract_y
_atom_site_fract_z
Si Si1 0.386517 0.282046 0.947921
Si Si2 0.620518 0.411251 0.345800
Si Si3 0.902512 0.310233 0.089885
Si Si4 0.149516 0.645408 0.091020
Si Si5 0.996677 0.331630 0.614798
Si Si6 0.654560 0.400830 0.708415
Si Si7 0.290766 0.900280 0.175987
Si Si8 0.250000 0.250000 0.000000
O O1 0.402490 0.394144 0.879968
O O2 0.356251 0.075538 0.918914
O O3 0.455569 0.249688 0.027415
O O4 0.311797 0.358984 0.966477
O O5 0.593801 0.609796 0.371812
O O6 0.549410 0.270806 0.336504
O O7 0.637397 0.455368 0.267171
O O8 0.696099 0.329662 0.412201
O O9 0.976086 0.448063 0.111335
O O10 0.839474 0.428246 0.117504
O O11 0.874126 0.287034 0.997787
O O12 0.231231 0.733433 0.136368
O O13 0.086874 0.695450 0.131785
O O14 0.653934 0.198081 0.746385
O O15 0.738684 0.446192 0.699493
#
# Coordination Sequence:
#
# PCOD9272326 Si02
#       8
#     8   8   8   8   8   8   8   4
#     4  10  21  38  68 100 135 184 229 296 364 419
#     4  10  23  42  67 101 140 183 239 294 359 430
#     4  10  22  41  69 104 132 176 234 300 347 427
#     4  11  23  43  67 104 138 178 238 299 369 430
#     4  10  24  45  73  98 142 187 239 302 365 430
#     4  11  24  42  65 101 143 182 233 298 363 437
#     4  11  24  38  68  99 136 178 234 290 367 429
#     4  10  20  36  70 108 136 178 236 304 358 412
#
# _framework density 26.627607999999999
#
# number of rings (size 3 to 8) (size 9 to 14) (size 15 to 20)
#    0.000    1.600    0.000    5.200   11.200    0.533 
#    2.400    0.667    5.867    0.000    0.000    0.000 
#    0.000    0.000    0.000    0.000    0.000    0.000 
#
# Total GULP energy -167586.350448 kJ/mol
# GULP energy per Si atom -5586.211682 kJ/mol
# Density = 2.656700 g / cm^3
# Si number density = 26.627608 Si / 1000 Ang^3
#
#
#
# Elastic Constant Matrix: (Units=GPa)
#
#
# Indices 1 2 3 4 5 6 
#
# 1 85.2989 2.3720 52.9300 0.0000 -23.7568 0.0000
# 2 2.3720 92.8593 18.7103 0.0000 7.2990 0.0000
# 3 52.9300 18.7103 131.7593 0.0000 -9.2605 0.0000
# 4 0.0000 0.0000 0.0000 -0.9235 0.0000 -13.1272
# 5 -23.7568 7.2990 -9.2605 0.0000 30.5314 0.0000
# 6 0.0000 0.0000 0.0000 -13.1272 0.0000 23.5837
#
#
#
# Elastic Compliance Matrix: (Units=1/GPa)
#
#
# Indices 1 2 3 4 5 6 
#
# 1 0.019765 -0.000142 -0.006985 0.000000 0.013294 0.000000
# 2 -0.000142 0.011401 -0.001800 0.000000 -0.003382 0.000000
# 3 -0.006985 -0.001800 0.010524 0.000000 -0.001813 0.000000
# 4 0.000000 0.000000 0.000000 -0.121501 0.000000 -0.067630
# 5 0.013294 -0.003382 -0.001813 0.000000 0.043356 0.000000
# 6 0.000000 0.000000 0.000000 -0.067630 0.000000 0.004758
#
#
# Mechanical properties :
#
#
# Convention : Reuss Voigt Hill
#
# Bulk Modulus (GPa) = 41.95466 50.88244 46.41855
# Shear Modulus (GPa) = -847.66909 26.36534 -410.65188
#
# Velocity S-wave (km/s) = -17.86150 3.15008 -12.43202
# Velocity P-wave (km/s) = 20.23827 5.69044 13.73329
#
# Compressibility (1/GPa) = 0.02383526
#
# Stress axis : x y z
#
# Youngs Moduli (GPa) = 50.59556 87.71116 95.02296
#
# Poissons Ratio (x) = 0.01249 0.66375
# Poissons Ratio (y) = 0.00720 0.17099
# Poissons Ratio (z) = 0.35342 0.15784
#
# Static dielectric constant tensor:
#      x y z
#    x 2.065390 0.000000 -0.001030 
#    y 0.000000 2.150340 0.000000 
#    z -0.001030 0.000000 2.091580 
# 
# From -- ./inp_files/209586.got.cif
#   From: 2010.05.17/outbox.cif.g08.bks.cpg/sg15_105_cif.got.tgz:209586.got - 2010.06.03 18:47:42.
