data_PCOD9272230
_publ_section_title
;
Structure prediction by ZEFSAII (Michael W. Deem and Ramdas Pophale) SiO2 
 PCOD9272230
Probable space group: C 2/C
;
_chemical_formula_sum "Si O2"
_cell_formula_units_Z 44
_cell_length_a 19.114676
_cell_length_b 9.374684
_cell_length_c 14.164252
_cell_angle_alpha 90.000000
_cell_angle_beta 134.962447
_cell_angle_gamma 90.000000
_cell_volume 1795.918755
_symmetry_space_group_name_H-M "C 2/C"
_symmetry_group_IT_number 15
_symmetry_cell_setting 'monoclinic'
loop_
_space_group_symop_operation_xyz
x,y,z
-x,y,1/2-z
-x,-y,-z
x,-y,1/2+z
1/2+x,1/2+y,z
1/2-x,1/2+y,1/2-z
1/2-x,1/2-y,-z
1/2+x,1/2-y,1/2+z
loop_
_atom_site_type_symbol
_atom_site_label
_atom_site_fract_x
_atom_site_fract_y
_atom_site_fract_z
Si Si1 0.510545 0.332346 0.930492
Si Si2 0.000000 0.620369 0.750000
Si Si3 0.384977 0.142988 0.135215
Si Si4 0.111860 0.045547 0.900183
Si Si5 0.304058 0.529138 0.214390
Si Si6 0.665138 0.783624 0.705572
O O1 0.480242 0.220079 0.820550
O O2 0.596951 0.435554 0.971021
O O3 0.588132 0.578404 0.145676
O O4 0.555088 0.251772 0.062661
O O5 0.094344 0.522127 0.871590
O O6 0.500000 0.181722 0.250000
O O7 0.352242 0.290042 0.051263
O O8 0.343604 0.140544 0.201917
O O9 0.182454 0.982967 0.885836
O O10 0.000000 0.041419 0.750000
O O11 0.284382 0.368328 0.228023
O O12 0.223281 0.630147 0.182361
#
# Coordination Sequence:
#
# PCOD9272230 Si02
#       6
#     8   4   8   8   8   8
#     4  11  21  40  67  91 117 168 206 246 307 367
#     4  10  20  36  66  88 122 158 204 262 298 352
#     4   8  19  37  58  82 125 162 190 255 306 349
#     4   8  15  36  59  79 119 163 193 238 305 358
#     4  10  22  40  58  90 128 154 202 257 297 363
#     4  11  24  39  65  92 122 164 205 251 307 362
#
# _framework density 24.499993
#
# number of rings (size 3 to 8) (size 9 to 14) (size 15 to 20)
#    0.545    1.818    2.727    1.636    2.545    1.455 
#    0.000    0.000    0.000    5.455    0.000    0.000 
#    0.000    0.000    0.000    0.000    0.000    0.000 
#
# Total GULP energy -122691.593639 kJ/mol
# GULP energy per Si atom -5576.890620 kJ/mol
# Density = 2.444423 g / cm^3
# Si number density = 24.499993 Si / 1000 Ang^3
#
#
#
# Elastic Constant Matrix: (Units=GPa)
#
#
# Indices 1 2 3 4 5 6 
#
# 1 93.1042 56.3535 26.5008 0.0000 -5.8477 0.0000
# 2 56.3535 127.3374 7.6891 0.0000 -16.0957 0.0000
# 3 26.5008 7.6891 49.6607 0.0000 3.7958 0.0000
# 4 0.0000 0.0000 0.0000 26.4698 0.0000 -20.0775
# 5 -5.8477 -16.0957 3.7958 0.0000 24.5404 0.0000
# 6 0.0000 0.0000 0.0000 -20.0775 0.0000 52.7314
#
#
#
# Elastic Compliance Matrix: (Units=1/GPa)
#
#
# Indices 1 2 3 4 5 6 
#
# 1 0.017459 -0.007131 -0.008271 0.000000 0.000763 0.000000
# 2 -0.007131 0.011633 0.001569 0.000000 0.005688 0.000000
# 3 -0.008271 0.001569 0.024671 0.000000 -0.004758 0.000000
# 4 0.000000 0.000000 0.000000 0.053120 0.000000 0.020225
# 5 0.000763 0.005688 -0.004758 0.000000 0.045397 0.000000
# 6 0.000000 0.000000 0.000000 0.020225 0.000000 0.026665
#
#
# Mechanical properties :
#
#
# Convention : Reuss Voigt Hill
#
# Bulk Modulus (GPa) = 38.31673 50.13210 44.22441
# Shear Modulus (GPa) = 23.22246 32.71892 27.97069
#
# Velocity S-wave (km/s) = 3.08207 3.65837 3.38251
# Velocity P-wave (km/s) = 5.32343 6.19285 5.77453
#
# Compressibility (1/GPa) = 0.02609826
#
# Stress axis : x y z
#
# Youngs Moduli (GPa) = 57.27815 85.96219 40.53346
#
# Poissons Ratio (x) = 0.61296 0.33525
# Poissons Ratio (y) = 0.40842 -0.06360
# Poissons Ratio (z) = 0.47374 -0.13489
#
# Static dielectric constant tensor:
#      x y z
#    x 1.828950 0.000000 0.011130 
#    y 0.000000 2.004470 0.000000 
#    z 0.011130 0.000000 1.996830 
# 
# From -- ./inp_files/110727.got.cif
#   From: 2010.05.17/outbox.cif.g08.bks.cpg/sg15_56_cif.got.tgz:110727.got - 2010.06.03 18:47:42.
