data_PCOD9272760
_publ_section_title
;
Structure prediction by ZEFSAII (Michael W. Deem and Ramdas Pophale) SiO2 
 PCOD9272760
Probable space group: C 2/C
;
_chemical_formula_sum "Si O2"
_cell_formula_units_Z 52
_cell_length_a 5.557180
_cell_length_b 26.124772
_cell_length_c 15.685125
_cell_angle_alpha 90.000000
_cell_angle_beta 110.597962
_cell_angle_gamma 90.000000
_cell_volume 2131.592753
_symmetry_space_group_name_H-M "C 2/C"
_symmetry_group_IT_number 15
_symmetry_cell_setting 'monoclinic'
loop_
_space_group_symop_operation_xyz
x,y,z
-x,y,1/2-z
-x,-y,-z
x,-y,1/2+z
1/2+x,1/2+y,z
1/2-x,1/2+y,1/2-z
1/2-x,1/2-y,-z
1/2+x,1/2-y,1/2+z
loop_
_atom_site_type_symbol
_atom_site_label
_atom_site_fract_x
_atom_site_fract_y
_atom_site_fract_z
Si Si1 0.198196 0.104729 0.694199
Si Si2 0.659256 0.464716 0.437418
Si Si3 0.500000 0.366132 0.750000
Si Si4 0.983631 0.685439 0.351019
Si Si5 0.476146 0.571570 0.087884
Si Si6 0.990152 0.369862 0.480382
Si Si7 0.410440 0.700788 0.641039
O O1 0.500000 0.106654 0.750000
O O2 0.000000 0.103384 0.750000
O O3 0.115491 0.054992 0.631620
O O4 0.107048 0.156756 0.634810
O O5 0.703257 0.522101 0.411882
O O6 0.650153 0.455140 0.537911
O O7 0.856959 0.421734 0.431306
O O8 0.315187 0.327415 0.677622
O O9 0.400734 0.404107 0.812208
O O10 0.000000 0.678971 0.250000
O O11 0.101118 0.645803 0.434115
O O12 0.063687 0.741879 0.389582
O O13 0.286592 0.614238 0.024514
O O14 0.870484 0.323841 0.409353
O O15 0.500000 0.707697 0.750000
#
# Coordination Sequence:
#
# PCOD9272760 Si02
#       7
#     8   8   4   8   8   8   8
#     4  10  23  40  64  96 133 173 222 279 333 403
#     4  10  22  38  61  87 123 165 219 267 340 392
#     4  10  22  38  60  88 126 164 218 270 330 402
#     4  10  20  37  60  86 125 162 214 264 330 396
#     4  10  22  39  59  88 123 165 215 270 335 399
#     4  10  20  38  60  86 121 162 212 273 322 398
#     4   9  20  36  60  89 123 165 215 267 331 392
#
# _framework density 24.394905999999999
#
# number of rings (size 3 to 8) (size 9 to 14) (size 15 to 20)
#    0.000    2.154    0.000    1.846    8.615    0.000 
#    0.000    0.769    0.000    9.231    0.000    0.000 
#    0.000    0.000    0.000    0.000    0.000    0.000 
#
# Total GULP energy -144764.093559 kJ/mol
# GULP energy per Si atom -5567.849752 kJ/mol
# Density = 2.433938 g / cm^3
# Si number density = 24.394906 Si / 1000 Ang^3
#
#
#
# Elastic Constant Matrix: (Units=GPa)
#
#
# Indices 1 2 3 4 5 6 
#
# 1 64.3389 22.9218 26.3509 0.0000 8.5227 0.0000
# 2 22.9218 150.7911 34.5217 0.0000 8.8834 0.0000
# 3 26.3509 34.5217 72.2252 0.0000 1.3488 0.0000
# 4 0.0000 0.0000 0.0000 44.0699 0.0000 9.8229
# 5 8.5227 8.8834 1.3488 0.0000 42.3356 0.0000
# 6 0.0000 0.0000 0.0000 9.8229 0.0000 15.7137
#
#
#
# Elastic Compliance Matrix: (Units=1/GPa)
#
#
# Indices 1 2 3 4 5 6 
#
# 1 0.019003 -0.001255 -0.006271 0.000000 -0.003362 0.000000
# 2 -0.001255 0.007619 -0.003161 0.000000 -0.001245 0.000000
# 3 -0.006271 -0.003161 0.017619 0.000000 0.001364 0.000000
# 4 0.000000 0.000000 0.000000 0.026365 0.000000 -0.016481
# 5 -0.003362 -0.001245 0.001364 0.000000 0.024516 0.000000
# 6 0.000000 0.000000 0.000000 -0.016481 0.000000 0.073941
#
#
# Mechanical properties :
#
#
# Convention : Reuss Voigt Hill
#
# Bulk Modulus (GPa) = 43.72778 50.54932 47.13855
# Shear Modulus (GPa) = 25.24504 33.99458 29.61981
#
# Velocity S-wave (km/s) = 3.22040 3.73703 3.48829
# Velocity P-wave (km/s) = 5.63842 6.27588 5.96567
#
# Compressibility (1/GPa) = 0.02286876
#
# Stress axis : x y z
#
# Youngs Moduli (GPa) = 52.62199 131.24300 56.75808
#
# Poissons Ratio (x) = 0.16472 0.35591
# Poissons Ratio (y) = 0.06604 0.17940
# Poissons Ratio (z) = 0.32997 0.41482
#
# Static dielectric constant tensor:
#      x y z
#    x 2.080700 0.000000 -0.074400 
#    y 0.000000 1.964580 0.000000 
#    z -0.074400 0.000000 2.043640 
# 
# From -- ./inp_files/185933.got.cif
#   From: 2010.05.17/outbox.cif.g08.bks.cpg/sg15_93_cif.got.tgz:185933.got - 2010.06.03 18:47:42.
