data_PCOD9272011
_publ_section_title
;
Structure prediction by ZEFSAII (Michael W. Deem and Ramdas Pophale) SiO2 
 PCOD9272011
Probable space group: C 2/C
;
_chemical_formula_sum "Si O2"
_cell_formula_units_Z 48
_cell_length_a 8.888917
_cell_length_b 16.169578
_cell_length_c 24.849174
_cell_angle_alpha 90.000000
_cell_angle_beta 131.335986
_cell_angle_gamma 90.000000
_cell_volume 2681.713411
_symmetry_space_group_name_H-M "C 2/C"
_symmetry_group_IT_number 15
_symmetry_cell_setting 'monoclinic'
loop_
_space_group_symop_operation_xyz
x,y,z
-x,y,1/2-z
-x,-y,-z
x,-y,1/2+z
1/2+x,1/2+y,z
1/2-x,1/2+y,1/2-z
1/2-x,1/2-y,-z
1/2+x,1/2-y,1/2+z
loop_
_atom_site_type_symbol
_atom_site_label
_atom_site_fract_x
_atom_site_fract_y
_atom_site_fract_z
Si Si1 0.926540 0.341410 0.172091
Si Si2 0.565156 0.768571 0.553990
Si Si3 0.509953 0.921476 0.464912
Si Si4 0.230851 0.009969 0.572189
Si Si5 0.211244 0.827549 0.327354
Si Si6 0.712981 0.180428 0.411854
O O1 0.774468 0.269716 0.119412
O O2 0.797649 0.426138 0.134321
O O3 0.000000 0.334080 0.250000
O O4 0.116846 0.332356 0.177458
O O5 0.586903 0.844420 0.517992
O O6 0.448564 0.795403 0.580532
O O7 0.426143 0.701894 0.490228
O O8 0.293937 0.892992 0.390896
O O9 0.500000 0.000000 0.500000
O O10 0.653832 0.948614 0.450784
O O11 0.302604 0.916999 0.602327
O O12 0.000000 0.000000 0.500000
O O13 0.196424 0.740303 0.356088
O O14 0.000000 0.846513 0.250000
#
# Coordination Sequence:
#
# PCOD9272011 Si02
#       6
#     8   8   8   8   8   8
#     4  11  24  40  59  85 121 160 197 247 300 355
#     4  10  20  37  61  87 118 154 197 237 293 358
#     4  10  21  38  62  90 118 156 197 243 297 355
#     4  11  22  36  61  93 122 150 199 249 296 348
#     4  10  23  39  62  84 119 158 201 244 300 357
#     4  10  20  36  63  88 116 155 193 243 293 354
#
# _framework density 17.899003
#
# number of rings (size 3 to 8) (size 9 to 14) (size 15 to 20)
#    0.000    1.667    3.333    1.000    2.333    4.000 
#    0.000    0.833    3.667    0.000    0.000    0.000 
#    0.000    0.000    0.000    0.000    0.000    0.000 
#
# Total GULP energy -133871.024604 kJ/mol
# GULP energy per Si atom -5577.959358 kJ/mol
# Density = 1.785826 g / cm^3
# Si number density = 17.899003 Si / 1000 Ang^3
#
#
#
# Elastic Constant Matrix: (Units=GPa)
#
#
# Indices 1 2 3 4 5 6 
#
# 1 49.4231 34.4608 48.4619 0.0000 5.8881 0.0000
# 2 34.4608 137.9878 76.9035 0.0000 0.2133 0.0000
# 3 48.4619 76.9035 165.4430 0.0000 11.1890 0.0000
# 4 0.0000 0.0000 0.0000 17.6384 0.0000 1.1264
# 5 5.8881 0.2133 11.1890 0.0000 31.8674 0.0000
# 6 0.0000 0.0000 0.0000 1.1264 0.0000 26.4530
#
#
#
# Elastic Compliance Matrix: (Units=1/GPa)
#
#
# Indices 1 2 3 4 5 6 
#
# 1 0.029847 -0.003634 -0.006845 0.000000 -0.003087 0.000000
# 2 -0.003634 0.010301 -0.003856 0.000000 0.001956 0.000000
# 3 -0.006845 -0.003856 0.009992 0.000000 -0.002218 0.000000
# 4 0.000000 0.000000 0.000000 0.056849 0.000000 -0.002421
# 5 -0.003087 0.001956 -0.002218 0.000000 0.032716 0.000000
# 6 0.000000 0.000000 0.000000 -0.002421 0.000000 0.037906
#
#
# Mechanical properties :
#
#
# Convention : Reuss Voigt Hill
#
# Bulk Modulus (GPa) = 46.57788 74.72291 60.65039
# Shear Modulus (GPa) = 23.42619 28.06026 25.74322
#
# Velocity S-wave (km/s) = 3.62166 3.96371 3.79654
# Velocity P-wave (km/s) = 6.60058 7.92374 7.29223
#
# Compressibility (1/GPa) = 0.02146942
#
# Stress axis : x y z
#
# Youngs Moduli (GPa) = 33.50425 97.08223 100.08440
#
# Poissons Ratio (x) = 0.35285 0.68504
# Poissons Ratio (y) = 0.12177 0.38590
# Poissons Ratio (z) = 0.22932 0.37432
#
# Static dielectric constant tensor:
#      x y z
#    x 1.339220 0.000000 0.093900 
#    y 0.000000 1.650090 0.000000 
#    z 0.093900 0.000000 1.558010 
# 
# From -- ./inp_files/189847.got.cif
#   From: 2010.05.17/outbox.cif.g08.bks.cpg/sg15_95_cif.got.tgz:189847.got - 2010.06.03 18:47:42.
