data_PCOD9272530
_publ_section_title
;
Structure prediction by ZEFSAII (Michael W. Deem and Ramdas Pophale) SiO2 
 PCOD9272530
Probable space group: C 2/C
;
_chemical_formula_sum "Si O2"
_cell_formula_units_Z 64
_cell_length_a 25.279119
_cell_length_b 25.089574
_cell_length_c 5.218321
_cell_angle_alpha 90.000000
_cell_angle_beta 99.261315
_cell_angle_gamma 90.000000
_cell_volume 3266.537060
_symmetry_space_group_name_H-M "C 2/C"
_symmetry_group_IT_number 15
_symmetry_cell_setting 'monoclinic'
loop_
_space_group_symop_operation_xyz
x,y,z
-x,y,1/2-z
-x,-y,-z
x,-y,1/2+z
1/2+x,1/2+y,z
1/2-x,1/2+y,1/2-z
1/2-x,1/2-y,-z
1/2+x,1/2-y,1/2+z
loop_
_atom_site_type_symbol
_atom_site_label
_atom_site_fract_x
_atom_site_fract_y
_atom_site_fract_z
Si Si1 0.715822 0.862753 0.663396
Si Si2 0.296235 0.280835 0.884500
Si Si3 0.378194 0.647554 0.757582
Si Si4 0.056717 0.174060 0.183869
Si Si5 0.965388 0.298177 0.465532
Si Si6 0.845580 0.672065 0.868612
Si Si7 0.661092 0.529354 0.657159
Si Si8 0.779814 0.516105 0.253515
O O1 0.766444 0.823020 0.679230
O O2 0.681015 0.843303 0.880378
O O3 0.735005 0.922290 0.737964
O O4 0.680927 0.861724 0.379179
O O5 0.250000 0.250000 0.000000
O O6 0.332944 0.313200 0.110761
O O7 0.330080 0.233463 0.786553
O O8 0.420879 0.645860 0.554980
O O9 0.353776 0.589528 0.792612
O O10 0.403247 0.668782 0.042867
O O11 0.047777 0.235562 0.095073
O O12 0.000000 0.153564 0.250000
O O13 0.909320 0.328980 0.438450
O O14 0.000000 0.316451 0.250000
O O15 0.000000 0.302049 0.750000
O O16 0.640825 0.509107 0.367779
O O17 0.725573 0.519756 0.702720
O O18 0.811102 0.503569 0.022818
#
# Coordination Sequence:
#
# PCOD9272530 Si02
#       8
#     8   8   8   8   8   8   8   8
#     4  11  23  38  57  85 125 165 194 243 293 351
#     4  10  23  35  54  82 126 162 196 228 289 361
#     4  12  23  39  62  87 117 156 204 255 302 358
#     4  11  24  39  63  86 115 151 209 258 306 352
#     4  11  22  39  63  86 120 160 202 249 294 348
#     4  11  23  38  57  87 127 158 197 235 298 363
#     4  10  21  37  58  83 110 146 205 250 295 346
#     4  10  20  37  58  81 115 153 205 244 283 339
#
# _framework density 19.592613
#
# number of rings (size 3 to 8) (size 9 to 14) (size 15 to 20)
#    0.000    1.250    1.250    6.000    3.500    6.000 
#    0.000    0.000    0.000    7.500    0.000    0.000 
#    0.000   35.000    0.000    0.000    0.000    0.000 
#
# Total GULP energy -178776.291324 kJ/mol
# GULP energy per Si atom -5586.759104 kJ/mol
# Density = 1.954802 g / cm^3
# Si number density = 19.592613 Si / 1000 Ang^3
#
#
#
# Elastic Constant Matrix: (Units=GPa)
#
#
# Indices 1 2 3 4 5 6 
#
# 1 83.0703 10.6554 28.9016 0.0000 2.7461 0.0000
# 2 10.6554 41.5866 -13.0511 0.0000 4.0770 0.0000
# 3 28.9016 -13.0511 113.9853 0.0000 -2.3730 0.0000
# 4 0.0000 0.0000 0.0000 14.9466 0.0000 -7.5613
# 5 2.7461 4.0770 -2.3730 0.0000 33.6570 0.0000
# 6 0.0000 0.0000 0.0000 -7.5613 0.0000 16.0622
#
#
#
# Elastic Compliance Matrix: (Units=1/GPa)
#
#
# Indices 1 2 3 4 5 6 
#
# 1 0.014133 -0.004841 -0.004156 0.000000 -0.000860 0.000000
# 2 -0.004841 0.026872 0.004251 0.000000 -0.002560 0.000000
# 3 -0.004156 0.004251 0.010325 0.000000 0.000552 0.000000
# 4 0.000000 0.000000 0.000000 0.087818 0.000000 0.041340
# 5 -0.000860 -0.002560 0.000552 0.000000 0.030131 0.000000
# 6 0.000000 0.000000 0.000000 0.041340 0.000000 0.081719
#
#
# Mechanical properties :
#
#
# Convention : Reuss Voigt Hill
#
# Bulk Modulus (GPa) = 23.90171 32.40599 28.15385
# Shear Modulus (GPa) = 18.21922 27.07559 22.64741
#
# Velocity S-wave (km/s) = 3.05274 3.72146 3.40356
# Velocity P-wave (km/s) = 4.96502 5.91959 5.46319
#
# Compressibility (1/GPa) = 0.04183802
#
# Stress axis : x y z
#
# Youngs Moduli (GPa) = 70.75519 37.21389 96.85229
#
# Poissons Ratio (x) = 0.18016 0.40249
# Poissons Ratio (y) = 0.34254 -0.41171
# Poissons Ratio (z) = 0.29404 -0.15819
#
# Static dielectric constant tensor:
#      x y z
#    x 1.717510 0.000000 -0.023630 
#    y 0.000000 1.681600 0.000000 
#    z -0.023630 0.000000 1.766870 
# 
# From -- ./inp_files/16235.got.cif
#   From: 2010.05.17/outbox.cif.g08.bks.cpg/sg15_9_cif.got.tgz:16235.got - 2010.06.03 18:47:42.
