data_PCOD9272650
_publ_section_title
;
Structure prediction by ZEFSAII (Michael W. Deem and Ramdas Pophale) SiO2 
 PCOD9272650
Probable space group: C 2/C
;
_chemical_formula_sum "Si O2"
_cell_formula_units_Z 48
_cell_length_a 18.646040
_cell_length_b 16.038137
_cell_length_c 15.962827
_cell_angle_alpha 90.000000
_cell_angle_beta 151.023168
_cell_angle_gamma 90.000000
_cell_volume 2312.621750
_symmetry_space_group_name_H-M "C 2/C"
_symmetry_group_IT_number 15
_symmetry_cell_setting 'monoclinic'
loop_
_space_group_symop_operation_xyz
x,y,z
-x,y,1/2-z
-x,-y,-z
x,-y,1/2+z
1/2+x,1/2+y,z
1/2-x,1/2+y,1/2-z
1/2-x,1/2-y,-z
1/2+x,1/2-y,1/2+z
loop_
_atom_site_type_symbol
_atom_site_label
_atom_site_fract_x
_atom_site_fract_y
_atom_site_fract_z
Si Si1 0.923556 0.526927 0.789234
Si Si2 0.923449 0.605121 0.410512
Si Si3 0.020242 0.226687 0.964479
Si Si4 0.742515 0.685467 0.915029
Si Si5 0.236771 0.489269 0.529301
Si Si6 0.106941 0.066447 0.154158
O O1 0.936126 0.430752 0.830330
O O2 0.779939 0.536625 0.585062
O O3 0.938952 0.578040 0.890934
O O4 0.079742 0.545089 0.904114
O O5 0.774157 0.562106 0.289904
O O6 0.920331 0.703248 0.406352
O O7 0.148531 0.277537 0.045918
O O8 0.061108 0.158016 0.075278
O O9 0.921171 0.184625 0.791696
O O10 0.770894 0.589859 0.971119
O O11 0.750000 0.750000 0.000000
O O12 0.367713 0.453708 0.721420
O O13 0.000000 0.000000 0.000000
#
# Coordination Sequence:
#
# PCOD9272650 Si02
#       6
#     8   8   8   8   8   8
#     4   9  19  35  62  86 115 156 204 250 306 360
#     4  10  20  38  62  89 116 159 209 250 304 378
#     4  12  23  39  61  91 123 165 208 250 310 373
#     4  12  24  37  59  91 130 161 201 259 314 375
#     4  10  20  37  59  86 122 159 200 252 309 367
#     4  11  23  40  57  87 124 165 202 253 315 369
#
# _framework density 20.755662999999998
#
# number of rings (size 3 to 8) (size 9 to 14) (size 15 to 20)
#    0.000    1.333    5.000    1.500    2.333    0.000 
#    0.000    1.667    0.000    0.000    0.000    0.000 
#    0.000    0.000    0.000    0.000    0.000    0.000 
#
# Total GULP energy -133659.944576 kJ/mol
# GULP energy per Si atom -5569.164357 kJ/mol
# Density = 2.070842 g / cm^3
# Si number density = 20.755663 Si / 1000 Ang^3
#
#
#
# Elastic Constant Matrix: (Units=GPa)
#
#
# Indices 1 2 3 4 5 6 
#
# 1 28.6014 15.9092 29.5481 0.0001 -13.9243 0.0000
# 2 15.9092 56.1306 25.5954 0.0002 -15.1570 0.0002
# 3 29.5481 25.5954 147.5247 0.0002 -44.9147 0.0001
# 4 0.0001 0.0002 0.0002 27.3604 0.0000 -7.2899
# 5 -13.9243 -15.1570 -44.9147 0.0000 37.9112 0.0000
# 6 0.0000 0.0002 0.0001 -7.2899 0.0000 17.1297
#
#
#
# Elastic Compliance Matrix: (Units=1/GPa)
#
#
# Indices 1 2 3 4 5 6 
#
# 1 0.050156 -0.009417 -0.006178 0.000000 0.007337 0.000000
# 2 -0.009417 0.021990 -0.000478 0.000000 0.004767 0.000000
# 3 -0.006178 -0.000478 0.011497 0.000000 0.011160 0.000000
# 4 0.000000 0.000000 0.000000 0.041223 0.000000 0.017543
# 5 0.007337 0.004767 0.011160 0.000000 0.044200 0.000000
# 6 0.000000 0.000000 0.000000 0.017543 0.000000 0.065844
#
#
# Mechanical properties :
#
#
# Convention : Reuss Voigt Hill
#
# Bulk Modulus (GPa) = 19.41891 41.59577 30.50734
# Shear Modulus (GPa) = 17.59186 27.22719 22.40952
#
# Velocity S-wave (km/s) = 2.91446 3.62580 3.28942
# Velocity P-wave (km/s) = 4.54991 6.13293 5.39975
#
# Compressibility (1/GPa) = 0.05149619
#
# Stress axis : x y z
#
# Youngs Moduli (GPa) = 19.93768 45.47564 86.98158
#
# Poissons Ratio (x) = 0.42826 0.53739
# Poissons Ratio (y) = 0.18776 0.04155
# Poissons Ratio (z) = 0.12318 0.02172
#
# Static dielectric constant tensor:
#      x y z
#    x 1.873650 0.000000 -0.006500 
#    y 0.000000 1.761000 0.000000 
#    z -0.006500 0.000000 1.813170 
# 
# From -- ./inp_files/56772.got.cif
#   From: 2010.05.17/outbox.cif.g08.bks.cpg/sg15_29_cif.got.tgz:56772.got - 2010.06.03 18:47:42.
