data_PCOD9272884
_publ_section_title
;
Structure prediction by ZEFSAII (Michael W. Deem and Ramdas Pophale) SiO2 
 PCOD9272884
Probable space group: C 2/C
;
_chemical_formula_sum "Si O2"
_cell_formula_units_Z 48
_cell_length_a 9.923961
_cell_length_b 15.499743
_cell_length_c 16.535345
_cell_angle_alpha 90.000000
_cell_angle_beta 132.161370
_cell_angle_gamma 90.000000
_cell_volume 1885.349193
_symmetry_space_group_name_H-M "C 2/C"
_symmetry_group_IT_number 15
_symmetry_cell_setting 'monoclinic'
loop_
_space_group_symop_operation_xyz
x,y,z
-x,y,1/2-z
-x,-y,-z
x,-y,1/2+z
1/2+x,1/2+y,z
1/2-x,1/2+y,1/2-z
1/2-x,1/2-y,-z
1/2+x,1/2-y,1/2+z
loop_
_atom_site_type_symbol
_atom_site_label
_atom_site_fract_x
_atom_site_fract_y
_atom_site_fract_z
Si Si1 0.780292 0.596463 0.954805
Si Si2 0.200809 0.432686 0.622209
Si Si3 0.277916 0.752200 0.816812
Si Si4 0.567071 0.361240 0.503833
Si Si5 0.194993 0.999500 0.665714
Si Si6 0.500000 0.888729 0.250000
Si Si7 0.000000 0.217683 0.750000
O O1 0.726841 0.496142 0.917295
O O2 0.755920 0.642231 0.032230
O O3 0.657108 0.656922 0.849753
O O4 0.992824 0.592028 0.020772
O O5 0.294022 0.341862 0.677857
O O6 0.216339 0.487878 0.711494
O O7 0.428673 0.716756 0.942454
O O8 0.391297 0.763965 0.779260
O O9 0.120340 0.679052 0.745586
O O10 0.612036 0.409089 0.603902
O O11 0.462835 0.430379 0.404404
O O12 0.342660 0.042081 0.663251
#
# Coordination Sequence:
#
# PCOD9272884 Si02
#       7
#     8   8   8   8   8   4   4
#     4  10  21  38  60  85 120 164 207 246 304 381
#     4  11  23  37  61  93 123 159 207 257 311 370
#     4  10  23  39  61  94 127 157 202 264 314 360
#     4   9  20  38  59  85 121 164 208 255 305 364
#     4  10  20  37  61  86 119 165 209 248 305 377
#     4  10  20  38  62  88 120 156 202 252 304 360
#     4  10  22  42  62  84 124 168 204 252 310 368
#
# _framework density 25.459472999999999
#
# number of rings (size 3 to 8) (size 9 to 14) (size 15 to 20)
#    0.000    2.000    0.000    4.000    0.000    9.333 
#    0.000    0.000    0.000   19.000    0.000    0.000 
#    0.000    0.000    0.000    0.000    0.000    0.000 
#
# Total GULP energy -133874.258201 kJ/mol
# GULP energy per Si atom -5578.094092 kJ/mol
# Density = 2.540153 g / cm^3
# Si number density = 25.459473 Si / 1000 Ang^3
#
#
#
# Elastic Constant Matrix: (Units=GPa)
#
#
# Indices 1 2 3 4 5 6 
#
# 1 89.5997 21.2679 25.7031 0.0000 24.9973 0.0000
# 2 21.2679 124.0202 25.4671 0.0000 4.5967 0.0000
# 3 25.7031 25.4671 82.3174 0.0000 6.4726 0.0000
# 4 0.0000 0.0000 0.0000 35.5850 0.0000 16.5006
# 5 24.9973 4.5967 6.4726 0.0000 24.5627 0.0000
# 6 0.0000 0.0000 0.0000 16.5006 0.0000 1.1389
#
#
#
# Elastic Compliance Matrix: (Units=1/GPa)
#
#
# Indices 1 2 3 4 5 6 
#
# 1 0.017061 -0.001596 -0.003566 0.000000 -0.016125 0.000000
# 2 -0.001596 0.008780 -0.002264 0.000000 0.000577 0.000000
# 3 -0.003566 -0.002264 0.013932 0.000000 0.000381 0.000000
# 4 0.000000 0.000000 0.000000 -0.004915 0.000000 0.071203
# 5 -0.016125 0.000577 0.000381 0.000000 0.056914 0.000000
# 6 0.000000 0.000000 0.000000 0.071203 0.000000 -0.153554
#
#
# Mechanical properties :
#
#
# Convention : Reuss Voigt Hill
#
# Bulk Modulus (GPa) = 40.12354 48.97929 44.55142
# Shear Modulus (GPa) = -129.45072 27.15727 -51.14672
#
# Velocity S-wave (km/s) = -7.13836 3.26956 -4.48699
# Velocity P-wave (km/s) = 7.22133 5.79079 3.05076
#
# Compressibility (1/GPa) = 0.02492302
#
# Stress axis : x y z
#
# Youngs Moduli (GPa) = 58.61316 113.89158 71.77854
#
# Poissons Ratio (x) = 0.18176 0.25593
# Poissons Ratio (y) = 0.09354 0.16247
# Poissons Ratio (z) = 0.20899 0.25779
#
# Static dielectric constant tensor:
#      x y z
#    x 2.139360 0.000000 0.012810 
#    y 0.000000 2.034700 0.000000 
#    z 0.012810 0.000000 1.995390 
# 
# From -- ./inp_files/239052.got.cif
#   From: 2010.05.17/outbox.cif.g08.bks.cpg/sg15_120_cif.got.tgz:239052.got - 2010.06.03 18:47:42.
