data_PCOD9272524
_publ_section_title
;
Structure prediction by ZEFSAII (Michael W. Deem and Ramdas Pophale) SiO2 
 PCOD9272524
Probable space group: C 2/C
;
_chemical_formula_sum "Si O2"
_cell_formula_units_Z 36
_cell_length_a 19.459418
_cell_length_b 8.200959
_cell_length_c 12.687728
_cell_angle_alpha 90.000000
_cell_angle_beta 125.261296
_cell_angle_gamma 90.000000
_cell_volume 1653.290988
_symmetry_space_group_name_H-M "C 2/C"
_symmetry_group_IT_number 15
_symmetry_cell_setting 'monoclinic'
loop_
_space_group_symop_operation_xyz
x,y,z
-x,y,1/2-z
-x,-y,-z
x,-y,1/2+z
1/2+x,1/2+y,z
1/2-x,1/2+y,1/2-z
1/2-x,1/2-y,-z
1/2+x,1/2-y,1/2+z
loop_
_atom_site_type_symbol
_atom_site_label
_atom_site_fract_x
_atom_site_fract_y
_atom_site_fract_z
Si Si1 0.683590 0.899127 0.565081
Si Si2 0.000000 0.982361 0.250000
Si Si3 0.598653 0.191410 0.422288
Si Si4 0.633372 0.267294 0.798537
Si Si5 0.579169 0.928429 0.671476
O O1 0.648277 0.809085 0.428972
O O2 0.778912 0.841710 0.661812
O O3 0.627029 0.853622 0.615198
O O4 0.677434 0.096320 0.542185
O O5 0.937722 0.096510 0.259843
O O6 0.939504 0.873241 0.119896
O O7 0.520919 0.094097 0.407864
O O8 0.608287 0.152268 0.306876
O O9 0.602911 0.117393 0.701545
#
# Coordination Sequence:
#
# PCOD9272524 Si02
#       5
#     8   4   8   8   8
#     4  10  20  37  58  81 109 147 184 224 276 325
#     4  10  20  38  54  78 116 142 180 234 268 316
#     4   9  20  36  57  81 113 148 179 227 277 322
#     4  10  21  36  59  83 108 145 188 225 265 331
#     4   9  18  36  57  79 111 147 180 222 278 324
#
# _framework density 21.774753
#
# number of rings (size 3 to 8) (size 9 to 14) (size 15 to 20)
#    0.000    2.667    0.000    3.333    0.000    4.444 
#    0.000   14.444    0.000    0.000    0.000    0.000 
#    0.000    0.000    0.000    0.000    0.000    0.000 
#
# Total GULP energy -100342.441648 kJ/mol
# GULP energy per Si atom -5574.580092 kJ/mol
# Density = 2.172519 g / cm^3
# Si number density = 21.774753 Si / 1000 Ang^3
#
#
#
# Elastic Constant Matrix: (Units=GPa)
#
#
# Indices 1 2 3 4 5 6 
#
# 1 115.7736 24.0759 33.2515 0.0000 -35.3713 0.0000
# 2 24.0759 88.0541 12.6349 0.0000 6.3636 0.0000
# 3 33.2515 12.6349 41.3063 0.0000 -14.8447 0.0000
# 4 0.0000 0.0000 0.0000 13.0087 0.0000 6.8383
# 5 -35.3713 6.3636 -14.8447 0.0000 20.3748 0.0000
# 6 0.0000 0.0000 0.0000 6.8383 0.0000 31.3146
#
#
#
# Elastic Compliance Matrix: (Units=1/GPa)
#
#
# Indices 1 2 3 4 5 6 
#
# 1 0.024983 -0.010115 -0.000400 0.000000 0.046239 0.000000
# 2 -0.010115 0.017204 -0.007264 0.000000 -0.028226 0.000000
# 3 -0.000400 -0.007264 0.037009 0.000000 0.028539 0.000000
# 4 0.000000 0.000000 0.000000 0.086840 0.000000 -0.018964
# 5 0.046239 -0.028226 0.028539 0.000000 0.158961 0.000000
# 6 0.000000 0.000000 0.000000 -0.018964 0.000000 0.036075
#
#
# Mechanical properties :
#
#
# Convention : Reuss Voigt Hill
#
# Bulk Modulus (GPa) = 22.91498 42.78431 32.84964
# Shear Modulus (GPa) = 12.16022 24.61774 18.38898
#
# Velocity S-wave (km/s) = 2.36573 3.36603 2.90920
# Velocity P-wave (km/s) = 4.24367 5.89899 5.13843
#
# Compressibility (1/GPa) = 0.04363958
#
# Stress axis : x y z
#
# Youngs Moduli (GPa) = 40.02744 58.12447 27.02022
#
# Poissons Ratio (x) = 0.58794 0.01080
# Poissons Ratio (y) = 0.40488 0.19627
# Poissons Ratio (z) = 0.01600 0.42220
#
# Static dielectric constant tensor:
#      x y z
#    x 1.747780 0.000000 0.005320 
#    y 0.000000 1.829040 0.000000 
#    z 0.005320 0.000000 1.928160 
# 
# From -- ./inp_files/165500.got.cif
#   From: 2010.05.17/outbox.cif.g08.bks.cpg/sg15_83_cif.got.tgz:165500.got - 2010.06.03 18:47:42.
