data_PCOD9272991
_publ_section_title
;
Structure prediction by ZEFSAII (Michael W. Deem and Ramdas Pophale) SiO2 
 PCOD9272991
Probable space group: C 2/C
;
_chemical_formula_sum "Si O2"
_cell_formula_units_Z 40
_cell_length_a 7.563941
_cell_length_b 26.803039
_cell_length_c 9.174877
_cell_angle_alpha 90.000000
_cell_angle_beta 68.049038
_cell_angle_gamma 90.000000
_cell_volume 1725.235056
_symmetry_space_group_name_H-M "C 2/C"
_symmetry_group_IT_number 15
_symmetry_cell_setting 'monoclinic'
loop_
_space_group_symop_operation_xyz
x,y,z
-x,y,1/2-z
-x,-y,-z
x,-y,1/2+z
1/2+x,1/2+y,z
1/2-x,1/2+y,1/2-z
1/2-x,1/2-y,-z
1/2+x,1/2-y,1/2+z
loop_
_atom_site_type_symbol
_atom_site_label
_atom_site_fract_x
_atom_site_fract_y
_atom_site_fract_z
Si Si1 0.225864 0.333138 0.569721
Si Si2 0.218787 0.884295 0.641371
Si Si3 0.661654 0.297148 0.442287
Si Si4 0.000000 0.495272 0.250000
Si Si5 0.000000 0.248643 0.750000
Si Si6 0.903103 0.566284 0.520469
O O1 0.204767 0.357564 0.736779
O O2 0.435716 0.309510 0.512450
O O3 0.192512 0.379657 0.471933
O O4 0.082502 0.286910 0.604796
O O5 0.236766 0.846051 0.500314
O O6 0.366955 0.927156 0.560175
O O7 0.000000 0.896860 0.750000
O O8 0.750000 0.250000 0.500000
O O9 0.672287 0.282989 0.267970
O O10 0.868667 0.530412 0.393039
O O11 0.126660 0.460732 0.317411
#
# Coordination Sequence:
#
# PCOD9272991 Si02
#       6
#     8   8   8   4   4   8
#     4  11  20  38  63  83 127 172 212 268 336 382
#     4  10  20  37  62  84 129 175 211 273 335 390
#     4  11  23  36  57  89 124 166 225 263 310 390
#     4  10  23  36  74  96 128 156 230 282 325 424
#     4  12  21  36  56  90 122 172 224 264 315 382
#     4  11  20  43  65  98 124 173 217 273 347 399
#
# _framework density 23.185244999999998
#
# number of rings (size 3 to 8) (size 9 to 14) (size 15 to 20)
#    0.000    1.200    6.000    0.600    0.000    1.600 
#    0.000    1.000    0.000    0.000    0.000    0.000 
#    0.000    0.000    0.000    0.000    0.000    0.000 
#
# Total GULP energy -111489.556139 kJ/mol
# GULP energy per Si atom -5574.477807 kJ/mol
# Density = 2.313247 g / cm^3
# Si number density = 23.185245 Si / 1000 Ang^3
#
#
#
# Elastic Constant Matrix: (Units=GPa)
#
#
# Indices 1 2 3 4 5 6 
#
# 1 90.3682 41.2111 21.2744 0.0000 10.7802 0.0000
# 2 41.2111 138.0380 54.1587 0.0000 10.4896 0.0000
# 3 21.2744 54.1587 84.2747 0.0000 27.3795 0.0000
# 4 0.0000 0.0000 0.0000 43.3284 0.0000 17.9680
# 5 10.7802 10.4896 27.3795 0.0000 37.2646 0.0000
# 6 0.0000 0.0000 0.0000 17.9680 0.0000 36.3657
#
#
#
# Elastic Compliance Matrix: (Units=1/GPa)
#
#
# Indices 1 2 3 4 5 6 
#
# 1 0.013079 -0.003675 -0.000061 0.000000 -0.002704 0.000000
# 2 -0.003675 0.010889 -0.007119 0.000000 0.003229 0.000000
# 3 -0.000061 -0.007119 0.020754 0.000000 -0.013227 0.000000
# 4 0.000000 0.000000 0.000000 0.029027 0.000000 -0.014342
# 5 -0.002704 0.003229 -0.013227 0.000000 0.036427 0.000000
# 6 0.000000 0.000000 0.000000 -0.014342 0.000000 0.034585
#
#
# Mechanical properties :
#
#
# Convention : Reuss Voigt Hill
#
# Bulk Modulus (GPa) = 43.45826 60.66327 52.06077
# Shear Modulus (GPa) = 28.71219 36.46084 32.58652
#
# Velocity S-wave (km/s) = 3.52288 3.96989 3.75305
# Velocity P-wave (km/s) = 5.94409 6.87276 6.42522
#
# Compressibility (1/GPa) = 0.02301058
#
# Stress axis : x y z
#
# Youngs Moduli (GPa) = 76.45943 91.83203 48.18410
#
# Poissons Ratio (x) = 0.33749 0.00296
# Poissons Ratio (y) = 0.28100 0.34303
# Poissons Ratio (z) = 0.00469 0.65377
#
# Static dielectric constant tensor:
#      x y z
#    x 1.873500 0.000000 -0.024870 
#    y 0.000000 1.937870 0.000000 
#    z -0.024870 0.000000 2.191840 
# 
# From -- ./inp_files/24459.got.cif
#   From: 2010.05.17/outbox.cif.g08.bks.cpg/sg15_13_cif.got.tgz:24459.got - 2010.06.03 18:47:42.
