data_PCOD9272050
_publ_section_title
;
Structure prediction by ZEFSAII (Michael W. Deem and Ramdas Pophale) SiO2 
 PCOD9272050
Probable space group: C 2/C
;
_chemical_formula_sum "Si O2"
_cell_formula_units_Z 60
_cell_length_a 11.493390
_cell_length_b 26.582649
_cell_length_c 16.573580
_cell_angle_alpha 90.000000
_cell_angle_beta 147.258897
_cell_angle_gamma 90.000000
_cell_volume 2738.638054
_symmetry_space_group_name_H-M "C 2/C"
_symmetry_group_IT_number 15
_symmetry_cell_setting 'monoclinic'
loop_
_space_group_symop_operation_xyz
x,y,z
-x,y,1/2-z
-x,-y,-z
x,-y,1/2+z
1/2+x,1/2+y,z
1/2-x,1/2+y,1/2-z
1/2-x,1/2-y,-z
1/2+x,1/2-y,1/2+z
loop_
_atom_site_type_symbol
_atom_site_label
_atom_site_fract_x
_atom_site_fract_y
_atom_site_fract_z
Si Si1 0.137427 0.848004 0.999514
Si Si2 0.306754 0.968922 0.851473
Si Si3 0.748459 0.621146 0.001980
Si Si4 0.823131 0.174726 0.793504
Si Si5 0.882185 0.362638 0.981492
Si Si6 0.206484 0.400884 0.785606
Si Si7 0.873892 0.771046 0.752685
Si Si8 0.500000 0.542653 0.750000
O O1 0.307871 0.863209 0.031707
O O2 0.928059 0.883389 0.875167
O O3 0.045028 0.794230 0.915336
O O4 0.198273 0.847748 0.128498
O O5 0.313922 0.915633 0.903034
O O6 0.342295 0.955045 0.779387
O O7 0.103893 0.004567 0.746560
O O8 0.500000 0.000000 0.000000
O O9 0.758882 0.599900 0.099288
O O10 0.001802 0.633726 0.139346
O O11 0.560067 0.662978 0.896750
O O12 0.668673 0.579063 0.893124
O O13 0.636293 0.149969 0.630192
O O14 0.770650 0.232806 0.780860
O O15 0.755310 0.316710 0.864745
O O16 0.000000 0.746059 0.750000
#
# Coordination Sequence:
#
# PCOD9272050 Si02
#       8
#     8   8   8   8   8   8   8   4
#     4  10  20  37  62  88 128 163 204 261 322 376
#     4  12  23  39  66  92 124 164 212 261 324 370
#     4  10  24  42  64  89 129 170 214 260 308 376
#     4  11  22  37  60  94 127 166 204 259 322 382
#     4  11  22  38  62  97 129 161 208 271 319 386
#     4  10  21  44  63  86 123 173 209 258 313 375
#     4  10  20  36  63  93 128 166 207 260 331 385
#     4  12  24  42  68  98 122 166 216 264 322 378
#
# _framework density 21.908701000000001
#
# number of rings (size 3 to 8) (size 9 to 14) (size 15 to 20)
#    0.000    1.333    2.667    3.600    0.933    2.667 
#    0.000    3.333    0.000    3.200    0.000    0.000 
#    0.000    0.000    0.000    0.000    0.000    0.000 
#
# Total GULP energy -167506.758765 kJ/mol
# GULP energy per Si atom -5583.558626 kJ/mol
# Density = 2.185884 g / cm^3
# Si number density = 21.908701 Si / 1000 Ang^3
#
#
#
# Elastic Constant Matrix: (Units=GPa)
#
#
# Indices 1 2 3 4 5 6 
#
# 1 43.5247 14.8334 6.0119 0.0001 13.7585 0.0001
# 2 14.8334 87.4149 20.3344 0.0001 3.3798 0.0000
# 3 6.0119 20.3344 108.9712 -0.0001 1.4253 -0.0001
# 4 0.0001 0.0001 -0.0001 25.2530 -0.0001 8.9518
# 5 13.7585 3.3798 1.4253 -0.0001 35.6005 0.0000
# 6 0.0001 0.0000 -0.0001 8.9518 0.0000 26.4669
#
#
#
# Elastic Compliance Matrix: (Units=1/GPa)
#
#
# Indices 1 2 3 4 5 6 
#
# 1 0.027736 -0.004164 -0.000618 0.000000 -0.010299 0.000000
# 2 -0.004164 0.012623 -0.002132 0.000000 0.000496 0.000000
# 3 -0.000618 -0.002132 0.009608 0.000000 0.000057 0.000000
# 4 0.000000 0.000000 0.000000 0.044994 0.000000 -0.015218
# 5 -0.010299 0.000496 0.000057 0.000000 0.032020 0.000000
# 6 0.000000 0.000000 0.000000 -0.015218 0.000000 0.042930
#
#
# Mechanical properties :
#
#
# Convention : Reuss Voigt Hill
#
# Bulk Modulus (GPa) = 27.67270 35.80780 31.74025
# Shear Modulus (GPa) = 25.53796 30.71281 28.12539
#
# Velocity S-wave (km/s) = 3.41787 3.74820 3.58684
# Velocity P-wave (km/s) = 5.31358 5.92550 5.62786
#
# Compressibility (1/GPa) = 0.03613670
#
# Stress axis : x y z
#
# Youngs Moduli (GPa) = 36.05469 79.21937 104.07997
#
# Poissons Ratio (x) = 0.32990 0.06436
# Poissons Ratio (y) = 0.15015 0.22193
# Poissons Ratio (z) = 0.02229 0.16892
#
# Static dielectric constant tensor:
#      x y z
#    x 1.873750 0.000000 0.031050 
#    y 0.000000 1.809610 0.000000 
#    z 0.031050 0.000000 1.840330 
# 
# From -- ./inp_files/201266.got.cif
#   From: 2010.05.17/outbox.cif.g08.bks.cpg/sg15_101_cif.got.tgz:201266.got - 2010.06.03 18:47:42.
