data_PCOD9272619
_publ_section_title
;
Structure prediction by ZEFSAII (Michael W. Deem and Ramdas Pophale) SiO2 
 PCOD9272619
Probable space group: C 2/C
;
_chemical_formula_sum "Si O2"
_cell_formula_units_Z 40
_cell_length_a 10.080171
_cell_length_b 14.279900
_cell_length_c 15.435925
_cell_angle_alpha 90.000000
_cell_angle_beta 119.581747
_cell_angle_gamma 90.000000
_cell_volume 1932.285731
_symmetry_space_group_name_H-M "C 2/C"
_symmetry_group_IT_number 15
_symmetry_cell_setting 'monoclinic'
loop_
_space_group_symop_operation_xyz
x,y,z
-x,y,1/2-z
-x,-y,-z
x,-y,1/2+z
1/2+x,1/2+y,z
1/2-x,1/2+y,1/2-z
1/2-x,1/2-y,-z
1/2+x,1/2-y,1/2+z
loop_
_atom_site_type_symbol
_atom_site_label
_atom_site_fract_x
_atom_site_fract_y
_atom_site_fract_z
Si Si1 0.653954 0.681510 0.357937
Si Si2 0.522252 0.397868 0.546623
Si Si3 0.998518 0.692508 0.469720
Si Si4 0.432955 0.118379 0.630546
Si Si5 0.639341 0.089634 0.361433
O O1 0.500000 0.681498 0.250000
O O2 0.599003 0.614460 0.416432
O O3 0.826751 0.659523 0.386157
O O4 0.668303 0.788555 0.395695
O O5 0.500000 0.500000 0.500000
O O6 0.504568 0.304912 0.481982
O O7 0.699241 0.393920 0.632817
O O8 0.028504 0.644711 0.574337
O O9 0.113347 0.658259 0.433601
O O10 0.500000 0.114471 0.750000
O O11 0.364715 0.015433 0.600874
O O12 0.500000 0.100508 0.250000
#
# Coordination Sequence:
#
# PCOD9272619 Si02
#       5
#     8   8   8   8   8
#     4  10  20  37  59  83 109 148 195 234 273 332
#     4  11  22  38  57  81 113 151 188 231 282 333
#     4  11  21  37  59  84 114 150 188 234 281 332
#     4   9  19  35  58  82 108 145 190 230 274 331
#     4  11  22  37  57  86 118 148 182 231 288 340
#
# _framework density 20.700870999999999
#
# number of rings (size 3 to 8) (size 9 to 14) (size 15 to 20)
#    0.000    1.600    0.000    7.200    0.000    0.000 
#    0.000    1.000    0.000    0.000    0.000    0.000 
#    0.000    0.000    0.000    0.000    0.000    0.000 
#
# Total GULP energy -111351.649601 kJ/mol
# GULP energy per Si atom -5567.582480 kJ/mol
# Density = 2.065376 g / cm^3
# Si number density = 20.700871 Si / 1000 Ang^3
#
#
#
# Elastic Constant Matrix: (Units=GPa)
#
#
# Indices 1 2 3 4 5 6 
#
# 1 78.2453 9.9262 20.5563 0.0000 23.7201 0.0000
# 2 9.9262 120.0754 34.8485 0.0000 -5.6377 0.0000
# 3 20.5563 34.8485 100.0423 0.0000 16.2646 0.0000
# 4 0.0000 0.0000 0.0000 27.5253 0.0000 -2.3370
# 5 23.7201 -5.6377 16.2646 0.0000 34.5170 0.0000
# 6 0.0000 0.0000 0.0000 -2.3370 0.0000 18.9258
#
#
#
# Elastic Compliance Matrix: (Units=1/GPa)
#
#
# Indices 1 2 3 4 5 6 
#
# 1 0.016658 -0.001602 -0.001041 0.000000 -0.011218 0.000000
# 2 -0.001602 0.009776 -0.003806 0.000000 0.004491 0.000000
# 3 -0.001041 -0.003806 0.012476 0.000000 -0.005785 0.000000
# 4 0.000000 0.000000 0.000000 0.036715 0.000000 0.004534
# 5 -0.011218 0.004491 -0.005785 0.000000 0.040140 0.000000
# 6 0.000000 0.000000 0.000000 0.004534 0.000000 0.053398
#
#
# Mechanical properties :
#
#
# Convention : Reuss Voigt Hill
#
# Bulk Modulus (GPa) = 38.44392 47.66945 43.05669
# Shear Modulus (GPa) = 26.21483 31.72908 28.97195
#
# Velocity S-wave (km/s) = 3.56246 3.91927 3.74512
# Velocity P-wave (km/s) = 5.96095 6.59990 6.28855
#
# Compressibility (1/GPa) = 0.02601191
#
# Stress axis : x y z
#
# Youngs Moduli (GPa) = 60.03170 102.29073 80.15311
#
# Poissons Ratio (x) = 0.16383 0.08344
# Poissons Ratio (y) = 0.09615 0.30509
# Poissons Ratio (z) = 0.06250 0.38936
#
# Static dielectric constant tensor:
#      x y z
#    x 1.784810 0.000000 -0.023380 
#    y 0.000000 1.719250 0.000000 
#    z -0.023380 0.000000 1.940070 
# 
# From -- ./inp_files/133105.got.cif
#   From: 2010.05.17/outbox.cif.g08.bks.cpg/sg15_67_cif.got.tgz:133105.got - 2010.06.03 18:47:42.
