data_PCOD9272032
_publ_section_title
;
Structure prediction by ZEFSAII (Michael W. Deem and Ramdas Pophale) SiO2 
 PCOD9272032
Probable space group: C 2/C
;
_chemical_formula_sum "Si O2"
_cell_formula_units_Z 56
_cell_length_a 12.302053
_cell_length_b 10.670592
_cell_length_c 23.273132
_cell_angle_alpha 90.000000
_cell_angle_beta 107.569048
_cell_angle_gamma 90.000000
_cell_volume 2912.561312
_symmetry_space_group_name_H-M "C 2/C"
_symmetry_group_IT_number 15
_symmetry_cell_setting 'monoclinic'
loop_
_space_group_symop_operation_xyz
x,y,z
-x,y,1/2-z
-x,-y,-z
x,-y,1/2+z
1/2+x,1/2+y,z
1/2-x,1/2+y,1/2-z
1/2-x,1/2-y,-z
1/2+x,1/2-y,1/2+z
loop_
_atom_site_type_symbol
_atom_site_label
_atom_site_fract_x
_atom_site_fract_y
_atom_site_fract_z
Si Si1 0.185193 0.239713 0.134929
Si Si2 0.659491 0.695102 0.440631
Si Si3 0.951772 0.864506 0.981196
Si Si4 0.681257 0.984397 0.056517
Si Si5 0.968860 0.691850 0.681728
Si Si6 0.087037 0.603753 0.313013
Si Si7 0.966119 0.356632 0.564056
O O1 0.153967 0.141254 0.078546
O O2 0.203330 0.368033 0.102053
O O3 0.292349 0.170903 0.181013
O O4 0.084244 0.278565 0.163204
O O5 0.750000 0.750000 0.500000
O O6 0.543836 0.708767 0.457253
O O7 0.701844 0.554509 0.437794
O O8 0.632893 0.751924 0.373932
O O9 0.944856 0.782474 0.036793
O O10 0.000000 0.000000 0.000000
O O11 0.589913 0.082301 0.069576
O O12 0.622666 0.938785 0.987910
O O13 0.928290 0.547896 0.685426
O O14 0.000000 0.743125 0.750000
O O15 0.000000 0.645490 0.250000
O O16 0.054033 0.643529 0.371976
#
# Coordination Sequence:
#
# PCOD9272032 Si02
#       7
#     8   8   8   8   8   8   8
#     4  10  23  42  62  90 127 162 208 261 313 383
#     4  11  21  36  63  92 121 159 211 261 315 379
#     4  10  23  36  58  97 125 155 207 263 323 380
#     4  10  20  36  63  91 123 161 202 266 321 371
#     4  10  23  45  64  89 127 170 211 259 324 384
#     4  11  24  41  67  89 122 175 220 252 314 393
#     4  10  20  38  61  87 126 166 205 257 323 378
#
# _framework density 19.227063000000001
#
# number of rings (size 3 to 8) (size 9 to 14) (size 15 to 20)
#    0.000    1.714    2.857    0.857    6.000    2.286 
#    0.000    0.714    0.000    0.000    0.000    0.000 
#    0.000    0.000    0.000    0.000    0.000    0.000 
#
# Total GULP energy -155943.391796 kJ/mol
# GULP energy per Si atom -5569.406850 kJ/mol
# Density = 1.918330 g / cm^3
# Si number density = 19.227063 Si / 1000 Ang^3
#
#
#
# Elastic Constant Matrix: (Units=GPa)
#
#
# Indices 1 2 3 4 5 6 
#
# 1 49.9697 19.2434 25.1236 0.0000 9.1845 0.0000
# 2 19.2434 66.4843 52.2748 0.0000 14.8701 0.0000
# 3 25.1236 52.2748 127.2575 0.0000 8.1334 0.0000
# 4 0.0000 0.0000 0.0000 5.7631 0.0000 0.6321
# 5 9.1845 14.8701 8.1334 0.0000 38.7224 0.0000
# 6 0.0000 0.0000 0.0000 0.6321 0.0000 29.7016
#
#
#
# Elastic Compliance Matrix: (Units=1/GPa)
#
#
# Indices 1 2 3 4 5 6 
#
# 1 0.023559 -0.003764 -0.002879 0.000000 -0.003538 0.000000
# 2 -0.003764 0.024680 -0.008966 0.000000 -0.006701 0.000000
# 3 -0.002879 -0.008966 0.012007 0.000000 0.001604 0.000000
# 4 0.000000 0.000000 0.000000 0.173923 0.000000 -0.003701
# 5 -0.003538 -0.006701 0.001604 0.000000 0.028900 0.000000
# 6 0.000000 0.000000 0.000000 -0.003701 0.000000 0.033747
#
#
# Mechanical properties :
#
#
# Convention : Reuss Voigt Hill
#
# Bulk Modulus (GPa) = 34.45059 48.55500 41.50279
# Shear Modulus (GPa) = 14.80556 24.64208 19.72382
#
# Velocity S-wave (km/s) = 2.77797 3.58388 3.20634
# Velocity P-wave (km/s) = 5.31471 6.51413 5.94474
#
# Compressibility (1/GPa) = 0.02902708
#
# Stress axis : x y z
#
# Youngs Moduli (GPa) = 42.44594 40.51940 83.28407
#
# Poissons Ratio (x) = 0.15253 0.23975
# Poissons Ratio (y) = 0.15978 0.74676
# Poissons Ratio (z) = 0.12219 0.36331
#
# Static dielectric constant tensor:
#      x y z
#    x 1.763690 0.000000 0.040180 
#    y 0.000000 1.706340 0.000000 
#    z 0.040180 0.000000 1.734620 
# 
# From -- ./inp_files/237626.got.cif
#   From: 2010.05.17/outbox.cif.g08.bks.cpg/sg15_119_cif.got.tgz:237626.got - 2010.06.03 18:47:42.
