data_PCOD9272385
_publ_section_title
;
Structure prediction by ZEFSAII (Michael W. Deem and Ramdas Pophale) SiO2 
 PCOD9272385
Probable space group: C 2/C
;
_chemical_formula_sum "Si O2"
_cell_formula_units_Z 36
_cell_length_a 18.161435
_cell_length_b 6.942917
_cell_length_c 11.804655
_cell_angle_alpha 90.000000
_cell_angle_beta 101.712897
_cell_angle_gamma 90.000000
_cell_volume 1457.493742
_symmetry_space_group_name_H-M "C 2/C"
_symmetry_group_IT_number 15
_symmetry_cell_setting 'monoclinic'
loop_
_space_group_symop_operation_xyz
x,y,z
-x,y,1/2-z
-x,-y,-z
x,-y,1/2+z
1/2+x,1/2+y,z
1/2-x,1/2+y,1/2-z
1/2-x,1/2-y,-z
1/2+x,1/2-y,1/2+z
loop_
_atom_site_type_symbol
_atom_site_label
_atom_site_fract_x
_atom_site_fract_y
_atom_site_fract_z
Si Si1 0.000000 0.650998 0.250000
Si Si2 0.323515 0.327944 0.590058
Si Si3 0.310945 0.316425 0.846290
Si Si4 0.431188 0.633160 0.941414
Si Si5 0.153874 0.300417 0.907118
O O1 0.962678 0.748166 0.348169
O O2 0.920015 0.599919 0.165140
O O3 0.250000 0.250000 0.500000
O O4 0.316632 0.261862 0.717458
O O5 0.395462 0.263475 0.538726
O O6 0.338979 0.562988 0.600154
O O7 0.363939 0.501337 0.874190
O O8 0.226702 0.362463 0.859438
O O9 0.338374 0.170656 0.954251
O O10 0.500000 0.500000 0.000000
#
# Coordination Sequence:
#
# PCOD9272385 Si02
#       5
#     4   8   8   8   8
#     4  12  18  36  58  90 120 142 200 250 294 348
#     4  11  22  34  57  87 118 155 201 241 292 356
#     4  10  20  37  54  86 124 153 189 250 294 351
#     4  11  19  35  60  91 114 151 195 246 288 341
#     4  10  22  35  59  88 118 156 193 244 303 346
#
# _framework density 24.699936000000001
#
# number of rings (size 3 to 8) (size 9 to 14) (size 15 to 20)
#    0.000    1.333    6.667    1.333    3.111    0.000 
#    0.000    0.000    0.000    1.333    5.778    3.111 
#    0.000    0.000    0.000    0.000    0.000    0.000 
#
# Total GULP energy -100369.793978 kJ/mol
# GULP energy per Si atom -5576.099665 kJ/mol
# Density = 2.464372 g / cm^3
# Si number density = 24.699936 Si / 1000 Ang^3
#
#
#
# Elastic Constant Matrix: (Units=GPa)
#
#
# Indices 1 2 3 4 5 6 
#
# 1 219.8012 27.7624 100.6509 0.0000 -9.9403 0.0000
# 2 27.7624 94.2533 36.2194 0.0000 6.2710 0.0000
# 3 100.6509 36.2194 270.6119 0.0000 -29.7906 0.0000
# 4 0.0000 0.0000 0.0000 12.8493 0.0000 10.5181
# 5 -9.9403 6.2710 -29.7906 0.0000 64.1719 0.0000
# 6 0.0000 0.0000 0.0000 10.5181 0.0000 25.7343
#
#
#
# Elastic Compliance Matrix: (Units=1/GPa)
#
#
# Indices 1 2 3 4 5 6 
#
# 1 0.005553 -0.000893 -0.001941 0.000000 0.000046 0.000000
# 2 -0.000893 0.011549 -0.001426 0.000000 -0.001929 0.000000
# 3 -0.001941 -0.001426 0.004838 0.000000 0.002084 0.000000
# 4 0.000000 0.000000 0.000000 0.116954 0.000000 -0.047801
# 5 0.000046 -0.001929 0.002084 0.000000 0.016746 0.000000
# 6 0.000000 0.000000 0.000000 -0.047801 0.000000 0.058396
#
#
# Mechanical properties :
#
#
# Convention : Reuss Voigt Hill
#
# Bulk Modulus (GPa) = 74.51436 101.54797 88.03117
# Shear Modulus (GPa) = 22.02366 48.55335 35.28851
#
# Velocity S-wave (km/s) = 2.98929 4.43846 3.78390
# Velocity P-wave (km/s) = 6.49213 8.21392 7.40325
#
# Compressibility (1/GPa) = 0.01342023
#
# Stress axis : x y z
#
# Youngs Moduli (GPa) = 180.07669 86.58733 206.71783
#
# Poissons Ratio (x) = 0.07732 0.40120
# Poissons Ratio (y) = 0.16080 0.29477
# Poissons Ratio (z) = 0.34949 0.12347
#
# Static dielectric constant tensor:
#      x y z
#    x 2.688140 0.000000 0.535520 
#    y 0.000000 2.163110 0.000000 
#    z 0.535520 0.000000 2.351990 
# 
# From -- ./inp_files/102528.got.cif
#   From: 2010.05.17/outbox.cif.g08.bks.cpg/sg15_52_cif.got.tgz:102528.got - 2010.06.03 18:47:42.
