data_PCOD9272566
_publ_section_title
;
Structure prediction by ZEFSAII (Michael W. Deem and Ramdas Pophale) SiO2 
 PCOD9272566
Probable space group: C 2/C
;
_chemical_formula_sum "Si O2"
_cell_formula_units_Z 60
_cell_length_a 6.645787
_cell_length_b 28.229030
_cell_length_c 19.832745
_cell_angle_alpha 90.000000
_cell_angle_beta 60.639832
_cell_angle_gamma 90.000000
_cell_volume 3242.798312
_symmetry_space_group_name_H-M "C 2/C"
_symmetry_group_IT_number 15
_symmetry_cell_setting 'monoclinic'
loop_
_space_group_symop_operation_xyz
x,y,z
-x,y,1/2-z
-x,-y,-z
x,-y,1/2+z
1/2+x,1/2+y,z
1/2-x,1/2+y,1/2-z
1/2-x,1/2-y,-z
1/2+x,1/2-y,1/2+z
loop_
_atom_site_type_symbol
_atom_site_label
_atom_site_fract_x
_atom_site_fract_y
_atom_site_fract_z
Si Si1 0.905012 0.164912 0.448786
Si Si2 0.500000 0.967858 0.250000
Si Si3 0.977764 0.027574 0.610392
Si Si4 0.289769 0.234219 0.416694
Si Si5 0.192759 0.061497 0.006222
Si Si6 0.834056 0.417091 0.140936
Si Si7 0.680719 0.728549 0.167180
Si Si8 0.992209 0.311883 0.118726
O O1 0.900695 0.108704 0.442820
O O2 0.828067 0.195244 0.396982
O O3 0.717193 0.176562 0.537030
O O4 0.152705 0.185466 0.428557
O O5 0.267409 0.991084 0.319343
O O6 0.399780 0.939043 0.202493
O O7 0.923038 0.054970 0.549080
O O8 0.104943 0.061343 0.643960
O O9 0.136116 0.983772 0.561156
O O10 0.250000 0.250000 0.500000
O O11 0.555780 0.230348 0.353871
O O12 0.168464 0.274322 0.392481
O O13 0.461727 0.068751 0.944932
O O14 0.852417 0.360597 0.149226
O O15 0.500000 0.708581 0.250000
O O16 0.593924 0.781605 0.163634
#
# Coordination Sequence:
#
# PCOD9272566 Si02
#       8
#     8   4   8   8   8   8   8   8
#     4  10  20  37  58  87 109 146 200 237 282 350
#     4  10  22  38  54  84 124 150 180 240 284 358
#     4  10  20  39  58  85 115 154 189 240 300 341
#     4  11  19  35  62  79 110 157 190 228 287 341
#     4   9  21  37  62  86 112 143 199 250 279 347
#     4  10  21  36  60  86 116 148 192 236 296 347
#     4  11  23  38  53  82 123 151 189 246 288 340
#     4  10  21  35  57  86 110 149 197 232 283 352
#
# _framework density 18.502537
#
# number of rings (size 3 to 8) (size 9 to 14) (size 15 to 20)
#    0.000    1.867    2.667    1.600    2.800    3.200 
#    2.400    2.667    0.000    0.000    0.000    0.000 
#    0.000    0.000    0.000    0.000    0.000    0.000 
#
# Total GULP energy -167229.986872 kJ/mol
# GULP energy per Si atom -5574.332896 kJ/mol
# Density = 1.846042 g / cm^3
# Si number density = 18.502537 Si / 1000 Ang^3
#
#
#
# Elastic Constant Matrix: (Units=GPa)
#
#
# Indices 1 2 3 4 5 6 
#
# 1 86.7464 17.0667 6.9226 0.0000 -21.2872 0.0000
# 2 17.0667 74.8190 8.9766 0.0000 -7.5343 0.0000
# 3 6.9226 8.9766 48.9366 0.0000 -10.5807 0.0000
# 4 0.0000 0.0000 0.0000 8.3901 0.0000 -7.5038
# 5 -21.2872 -7.5343 -10.5807 0.0000 26.9614 0.0000
# 6 0.0000 0.0000 0.0000 -7.5038 0.0000 13.1365
#
#
#
# Elastic Compliance Matrix: (Units=1/GPa)
#
#
# Indices 1 2 3 4 5 6 
#
# 1 0.014681 -0.002309 0.000780 0.000000 0.011252 0.000000
# 2 -0.002309 0.014271 -0.001992 0.000000 0.001383 0.000000
# 3 0.000780 -0.001992 0.022622 0.000000 0.008937 0.000000
# 4 0.000000 0.000000 0.000000 0.243678 0.000000 0.139194
# 5 0.011252 0.001383 0.008937 0.000000 0.049868 0.000000
# 6 0.000000 0.000000 0.000000 0.139194 0.000000 0.155635
#
#
# Mechanical properties :
#
#
# Convention : Reuss Voigt Hill
#
# Bulk Modulus (GPa) = 22.45667 30.71488 26.58577
# Shear Modulus (GPa) = 9.56681 21.53333 15.55007
#
# Velocity S-wave (km/s) = 2.27635 3.41516 2.90216
# Velocity P-wave (km/s) = 4.36720 5.67340 5.06260
#
# Compressibility (1/GPa) = 0.04453021
#
# Stress axis : x y z
#
# Youngs Moduli (GPa) = 68.11428 70.07413 44.20489
#
# Poissons Ratio (x) = 0.16182 -0.03446
# Poissons Ratio (y) = 0.15730 0.08806
# Poissons Ratio (z) = -0.05310 0.13959
#
# Static dielectric constant tensor:
#      x y z
#    x 1.650350 0.000000 -0.002500 
#    y 0.000000 1.617990 0.000000 
#    z -0.002500 0.000000 1.653460 
# 
# From -- ./inp_files/228595.got.cif
#   From: 2010.05.17/outbox.cif.g08.bks.cpg/sg15_115_cif.got.tgz:228595.got - 2010.06.03 18:47:42.
