data_PCOD9272953
_publ_section_title
;
Structure prediction by ZEFSAII (Michael W. Deem and Ramdas Pophale) SiO2 
 PCOD9272953
Probable space group: C 2/C
;
_chemical_formula_sum "Si O2"
_cell_formula_units_Z 64
_cell_length_a 10.885240
_cell_length_b 9.837859
_cell_length_c 21.514297
_cell_angle_alpha 90.000000
_cell_angle_beta 74.225093
_cell_angle_gamma 90.000000
_cell_volume 2217.139468
_symmetry_space_group_name_H-M "C 2/C"
_symmetry_group_IT_number 15
_symmetry_cell_setting 'monoclinic'
loop_
_space_group_symop_operation_xyz
x,y,z
-x,y,1/2-z
-x,-y,-z
x,-y,1/2+z
1/2+x,1/2+y,z
1/2-x,1/2+y,1/2-z
1/2-x,1/2-y,-z
1/2+x,1/2-y,1/2+z
loop_
_atom_site_type_symbol
_atom_site_label
_atom_site_fract_x
_atom_site_fract_y
_atom_site_fract_z
Si Si1 0.882805 0.706372 0.872807
Si Si2 0.267682 0.069598 0.041786
Si Si3 0.215298 0.336034 0.733130
Si Si4 0.027234 0.721847 0.017657
Si Si5 0.151350 0.970478 0.431382
Si Si6 0.350682 0.864890 0.121712
Si Si7 0.018106 0.274836 0.660502
Si Si8 0.465123 0.458338 0.676828
O O1 0.821127 0.799773 0.935597
O O2 0.761187 0.611318 0.876898
O O3 0.003986 0.615016 0.875173
O O4 0.945629 0.827006 0.822690
O O5 0.413791 0.116169 0.017956
O O6 0.267291 0.986845 0.106044
O O7 0.221218 0.992712 0.986414
O O8 0.285887 0.209984 0.688799
O O9 0.128763 0.313968 0.805558
O O10 0.328021 0.442196 0.728732
O O11 0.108565 0.358116 0.694373
O O12 0.958097 0.866512 0.031835
O O13 0.063927 0.701107 0.084421
O O14 0.128390 0.710524 0.948606
O O15 0.079868 0.058060 0.389132
O O16 0.016780 0.111771 0.675662
#
# Coordination Sequence:
#
# PCOD9272953 Si02
#       8
#     8   8   8   8   8   8   8   8
#     4  10  20  39  56  89 134 158 201 265 303 367
#     4  11  20  34  58  93 131 169 198 257 327 361
#     4  10  24  44  62  91 128 165 208 266 307 376
#     4  10  20  37  61  92 123 164 209 259 306 377
#     4  10  20  38  60  91 134 166 198 259 321 370
#     4  11  21  35  60  94 120 162 214 251 312 369
#     4  10  23  45  64  86 131 166 207 259 320 371
#     4  10  23  41  65  92 118 169 215 251 314 375
#
# _framework density 28.866023999999999
#
# number of rings (size 3 to 8) (size 9 to 14) (size 15 to 20)
#    0.000    1.750    2.500    1.875    1.750    2.000 
#    4.500    7.500    0.000   18.000    0.000    0.000 
#    0.000    0.000    0.000    0.000    0.000    0.000 
#
# Total GULP energy -178959.800141 kJ/mol
# GULP energy per Si atom -5592.493754 kJ/mol
# Density = 2.880032 g / cm^3
# Si number density = 28.866024 Si / 1000 Ang^3
#
#
#
# Elastic Constant Matrix: (Units=GPa)
#
#
# Indices 1 2 3 4 5 6 
#
# 1 102.6537 34.9357 48.3263 0.0000 -7.6728 0.0000
# 2 34.9357 78.8209 28.5176 0.0000 -5.8932 0.0000
# 3 48.3263 28.5176 121.4149 0.0000 6.2629 0.0000
# 4 0.0000 0.0000 0.0000 38.3391 0.0000 -16.4992
# 5 -7.6728 -5.8932 6.2629 0.0000 70.2475 0.0000
# 6 0.0000 0.0000 0.0000 -16.4992 0.0000 44.9758
#
#
#
# Elastic Compliance Matrix: (Units=1/GPa)
#
#
# Indices 1 2 3 4 5 6 
#
# 1 0.013363 -0.004217 -0.004406 0.000000 0.001499 0.000000
# 2 -0.004217 0.015347 -0.001978 0.000000 0.001003 0.000000
# 3 -0.004406 -0.001978 0.010536 0.000000 -0.001586 0.000000
# 4 0.000000 0.000000 0.000000 0.030973 0.000000 0.011362
# 5 0.001499 0.001003 -0.001586 0.000000 0.014625 0.000000
# 6 0.000000 0.000000 0.000000 0.011362 0.000000 0.026402
#
#
# Mechanical properties :
#
#
# Convention : Reuss Voigt Hill
#
# Bulk Modulus (GPa) = 55.41730 58.49431 56.95581
# Shear Modulus (GPa) = 36.11139 43.45314 39.78226
#
# Velocity S-wave (km/s) = 3.54078 3.88408 3.71640
# Velocity P-wave (km/s) = 5.99633 6.35789 6.17976
#
# Compressibility (1/GPa) = 0.01804491
#
# Stress axis : x y z
#
# Youngs Moduli (GPa) = 74.83610 65.16106 94.91136
#
# Poissons Ratio (x) = 0.27476 0.41813
# Poissons Ratio (y) = 0.31556 0.18773
# Poissons Ratio (z) = 0.32969 0.12889
#
# Static dielectric constant tensor:
#      x y z
#    x 2.214890 0.000000 -0.047290 
#    y 0.000000 2.367850 0.000000 
#    z -0.047290 0.000000 2.269370 
# 
# From -- ./inp_files/269239.got.cif
#   From: 2010.05.17/outbox.cif.g08.bks.cpg/sg15_135_cif.got.tgz:269239.got - 2010.06.03 18:47:42.
