data_PCOD9272655
_publ_section_title
;
Structure prediction by ZEFSAII (Michael W. Deem and Ramdas Pophale) SiO2 
 PCOD9272655
Probable space group: C 2/C
;
_chemical_formula_sum "Si O2"
_cell_formula_units_Z 64
_cell_length_a 6.981054
_cell_length_b 13.151837
_cell_length_c 28.313260
_cell_angle_alpha 90.000000
_cell_angle_beta 99.594233
_cell_angle_gamma 90.000000
_cell_volume 2563.184410
_symmetry_space_group_name_H-M "C 2/C"
_symmetry_group_IT_number 15
_symmetry_cell_setting 'monoclinic'
loop_
_space_group_symop_operation_xyz
x,y,z
-x,y,1/2-z
-x,-y,-z
x,-y,1/2+z
1/2+x,1/2+y,z
1/2-x,1/2+y,1/2-z
1/2-x,1/2-y,-z
1/2+x,1/2-y,1/2+z
loop_
_atom_site_type_symbol
_atom_site_label
_atom_site_fract_x
_atom_site_fract_y
_atom_site_fract_z
Si Si1 0.281923 0.585021 0.011806
Si Si2 0.296094 0.665575 0.106899
Si Si3 0.512796 0.349196 0.071911
Si Si4 0.344491 0.729313 0.204940
Si Si5 0.888011 0.630196 0.959385
Si Si6 0.843915 0.063974 0.833275
Si Si7 0.712796 0.983432 0.736501
Si Si8 0.566040 0.972307 0.136256
O O1 0.403310 0.589864 0.969183
O O2 0.086264 0.652425 0.994559
O O3 0.389908 0.629570 0.061954
O O4 0.199470 0.473838 0.021205
O O5 0.166085 0.763159 0.090707
O O6 0.427168 0.693477 0.157300
O O7 0.148972 0.576503 0.117575
O O8 0.303633 0.301860 0.051063
O O9 0.500575 0.420649 0.118434
O O10 0.500000 0.760026 0.250000
O O11 0.208360 0.824344 0.188647
O O12 0.233943 0.632339 0.220964
O O13 0.941139 0.606004 0.907198
O O14 0.864837 0.002417 0.785302
O O15 0.652555 0.021218 0.852427
O O16 0.500000 0.997971 0.750000
O O17 0.701447 0.049706 0.687760
#
# Coordination Sequence:
#
# PCOD9272655 Si02
#       8
#     8   8   8   8   8   8   8   8
#     4  10  20  39  59  83 128 159 195 254 310 347
#     4   9  21  36  59  83 121 159 193 256 300 359
#     4  11  21  37  61  92 119 153 214 246 298 364
#     4  10  20  37  59  87 116 152 200 246 301 366
#     4  10  21  35  61  88 114 160 204 247 296 364
#     4  10  20  37  61  84 117 165 195 247 309 364
#     4   9  19  35  58  81 116 156 194 245 305 362
#     4   9  17  38  57  79 117 160 196 241 313 354
#
# _framework density 24.968941000000001
#
# number of rings (size 3 to 8) (size 9 to 14) (size 15 to 20)
#    0.000    2.250    1.250    1.875    0.000    3.500 
#    0.000   10.625    2.750    0.000    0.000    0.000 
#    0.000    0.000    0.000    0.000    0.000    0.000 
#
# Total GULP energy -178893.523867 kJ/mol
# GULP energy per Si atom -5590.422621 kJ/mol
# Density = 2.491211 g / cm^3
# Si number density = 24.968941 Si / 1000 Ang^3
#
#
#
# Elastic Constant Matrix: (Units=GPa)
#
#
# Indices 1 2 3 4 5 6 
#
# 1 70.5496 -2.0290 42.4759 0.0000 5.8977 0.0000
# 2 -2.0290 61.2545 43.0886 0.0000 -4.5229 0.0000
# 3 42.4759 43.0886 201.9145 0.0000 -5.1120 0.0000
# 4 0.0000 0.0000 0.0000 43.1493 0.0000 4.5829
# 5 5.8977 -4.5229 -5.1120 0.0000 45.4597 0.0000
# 6 0.0000 0.0000 0.0000 4.5829 0.0000 20.5650
#
#
#
# Elastic Compliance Matrix: (Units=1/GPa)
#
#
# Indices 1 2 3 4 5 6 
#
# 1 0.017127 0.003493 -0.004408 0.000000 -0.002370 0.000000
# 2 0.003493 0.020018 -0.004982 0.000000 0.000978 0.000000
# 3 -0.004408 -0.004982 0.006965 0.000000 0.000859 0.000000
# 4 0.000000 0.000000 0.000000 0.023737 0.000000 -0.005290
# 5 -0.002370 0.000978 0.000859 0.000000 0.022499 0.000000
# 6 0.000000 0.000000 0.000000 -0.005290 0.000000 0.049805
#
#
# Mechanical properties :
#
#
# Convention : Reuss Voigt Hill
#
# Bulk Modulus (GPa) = 30.94456 55.64329 43.29393
# Shear Modulus (GPa) = 30.72820 38.51369 34.62094
#
# Velocity S-wave (km/s) = 3.51188 3.93168 3.72769
# Velocity P-wave (km/s) = 5.37257 6.55318 5.99202
#
# Compressibility (1/GPa) = 0.03231586
#
# Stress axis : x y z
#
# Youngs Moduli (GPa) = 58.38653 49.95573 143.57744
#
# Poissons Ratio (x) = -0.17452 0.63296
# Poissons Ratio (y) = -0.20397 0.71529
# Poissons Ratio (z) = 0.25740 0.24887
#
# Static dielectric constant tensor:
#      x y z
#    x 1.990910 0.000000 0.037880 
#    y 0.000000 2.003370 0.000000 
#    z 0.037880 0.000000 2.032910 
# 
# From -- ./inp_files/288791.got.cif
#   From: 2010.05.17/outbox.cif.g08.bks.cpg/sg15_145_cif.got.tgz:288791.got - 2010.06.03 18:47:42.
