data_PCOD9272508
_publ_section_title
;
Structure prediction by ZEFSAII (Michael W. Deem and Ramdas Pophale) SiO2 
 PCOD9272508
Probable space group: C 2/C
;
_chemical_formula_sum "Si O2"
_cell_formula_units_Z 56
_cell_length_a 28.614828
_cell_length_b 20.589568
_cell_length_c 9.049243
_cell_angle_alpha 90.000000
_cell_angle_beta 34.393437
_cell_angle_gamma 90.000000
_cell_volume 3011.626060
_symmetry_space_group_name_H-M "C 2/C"
_symmetry_group_IT_number 15
_symmetry_cell_setting 'monoclinic'
loop_
_space_group_symop_operation_xyz
x,y,z
-x,y,1/2-z
-x,-y,-z
x,-y,1/2+z
1/2+x,1/2+y,z
1/2-x,1/2+y,1/2-z
1/2-x,1/2-y,-z
1/2+x,1/2-y,1/2+z
loop_
_atom_site_type_symbol
_atom_site_label
_atom_site_fract_x
_atom_site_fract_y
_atom_site_fract_z
Si Si1 0.670894 0.552292 0.214414
Si Si2 0.404289 0.081622 0.037619
Si Si3 0.921471 0.045199 0.738745
Si Si4 0.676556 0.789982 0.613028
Si Si5 0.713924 0.625474 0.837804
Si Si6 0.177455 0.502488 0.515943
Si Si7 0.079407 0.170526 0.944574
O O1 0.607214 0.550373 0.517271
O O2 0.650797 0.489259 0.167411
O O3 0.667438 0.613610 0.113319
O O4 0.762583 0.546944 0.041258
O O5 0.500000 0.094095 0.750000
O O6 0.358929 0.045000 0.021101
O O7 0.356665 0.148125 0.207052
O O8 0.393780 0.031761 0.201800
O O9 0.937938 0.114904 0.628045
O O10 0.000000 0.000000 0.500000
O O11 0.750000 0.750000 0.500000
O O12 0.716367 0.819089 0.360073
O O13 0.606728 0.735630 0.789932
O O14 0.762958 0.557939 0.683946
O O15 0.649185 0.641900 0.875923
O O16 0.000000 0.183997 0.250000
#
# Coordination Sequence:
#
# PCOD9272508 Si02
#       7
#     8   8   8   8   8   8   8
#     4  12  20  35  57  85 125 156 190 251 305 357
#     4  11  22  38  60  91 116 149 193 252 308 356
#     4  12  23  34  56  94 126 156 199 250 309 357
#     4   9  22  38  62  82 114 158 211 241 285 367
#     4  10  20  37  57  89 115 155 202 242 290 362
#     4  11  20  35  59  86 121 146 192 245 307 359
#     4  11  21  39  60  85 120 162 200 246 299 358
#
# _framework density 18.594605999999999
#
# number of rings (size 3 to 8) (size 9 to 14) (size 15 to 20)
#    0.000    1.143    4.286    3.000    4.000    0.000 
#    0.000    0.714    0.000    0.000    3.714    0.000 
#    0.000    0.000    0.000    0.000    0.000    0.000 
#
# Total GULP energy -156162.401969 kJ/mol
# GULP energy per Si atom -5577.228642 kJ/mol
# Density = 1.855228 g / cm^3
# Si number density = 18.594606 Si / 1000 Ang^3
#
#
#
# Elastic Constant Matrix: (Units=GPa)
#
#
# Indices 1 2 3 4 5 6 
#
# 1 56.3910 31.0866 21.1987 0.0000 6.7217 0.0000
# 2 31.0866 119.7058 46.0898 0.0000 9.0127 0.0000
# 3 21.1987 46.0898 122.4303 0.0000 13.6316 0.0000
# 4 0.0000 0.0000 0.0000 41.2048 0.0000 -0.3156
# 5 6.7217 9.0127 13.6316 0.0000 34.7906 0.0000
# 6 0.0000 0.0000 0.0000 -0.3156 0.0000 21.6233
#
#
#
# Elastic Compliance Matrix: (Units=1/GPa)
#
#
# Indices 1 2 3 4 5 6 
#
# 1 0.021214 -0.004704 -0.001654 0.000000 -0.002232 0.000000
# 2 -0.004704 0.010857 -0.003200 0.000000 -0.000650 0.000000
# 3 -0.001654 -0.003200 0.009966 0.000000 -0.002756 0.000000
# 4 0.000000 0.000000 0.000000 0.024272 0.000000 0.000354
# 5 -0.002232 -0.000650 -0.002756 0.000000 0.030423 0.000000
# 6 0.000000 0.000000 0.000000 0.000354 0.000000 0.046252
#
#
# Mechanical properties :
#
#
# Convention : Reuss Voigt Hill
#
# Bulk Modulus (GPa) = 43.62943 55.03080 49.33011
# Shear Modulus (GPa) = 29.45686 32.86722 31.16204
#
# Velocity S-wave (km/s) = 3.98447 4.20881 4.09817
# Velocity P-wave (km/s) = 6.68449 7.29918 6.99859
#
# Compressibility (1/GPa) = 0.02292031
#
# Stress axis : x y z
#
# Youngs Moduli (GPa) = 47.13762 92.11018 100.34259
#
# Poissons Ratio (x) = 0.43333 0.16594
# Poissons Ratio (y) = 0.22176 0.32111
# Poissons Ratio (z) = 0.07795 0.29476
#
# Static dielectric constant tensor:
#      x y z
#    x 1.667180 0.000000 -0.014310 
#    y 0.000000 1.634340 0.000000 
#    z -0.014310 0.000000 1.713280 
# 
# From -- ./inp_files/49703.got.cif
#   From: 2010.05.17/outbox.cif.g08.bks.cpg/sg15_25_cif.got.tgz:49703.got - 2010.06.03 18:47:42.
