data_PCOD9272867
_publ_section_title
;
Structure prediction by ZEFSAII (Michael W. Deem and Ramdas Pophale) SiO2 
 PCOD9272867
Probable space group: C 2/C
;
_chemical_formula_sum "Si O2"
_cell_formula_units_Z 48
_cell_length_a 15.841438
_cell_length_b 8.585766
_cell_length_c 28.964950
_cell_angle_alpha 90.000000
_cell_angle_beta 147.700335
_cell_angle_gamma 90.000000
_cell_volume 2105.087437
_symmetry_space_group_name_H-M "C 2/C"
_symmetry_group_IT_number 15
_symmetry_cell_setting 'monoclinic'
loop_
_space_group_symop_operation_xyz
x,y,z
-x,y,1/2-z
-x,-y,-z
x,-y,1/2+z
1/2+x,1/2+y,z
1/2-x,1/2+y,1/2-z
1/2-x,1/2-y,-z
1/2+x,1/2-y,1/2+z
loop_
_atom_site_type_symbol
_atom_site_label
_atom_site_fract_x
_atom_site_fract_y
_atom_site_fract_z
Si Si1 0.707127 0.419821 0.064111
Si Si2 0.794196 0.210221 0.838100
Si Si3 0.282803 0.095970 0.251748
Si Si4 0.387638 0.991143 0.065612
Si Si5 0.659681 0.781177 0.027357
Si Si6 0.590820 0.782373 0.092278
O O1 0.766837 0.346970 0.139967
O O2 0.802883 0.376633 0.062352
O O3 0.723145 0.607429 0.066934
O O4 0.526223 0.362061 0.975068
O O5 0.722846 0.351432 0.774826
O O6 0.782550 0.065602 0.797825
O O7 0.976089 0.254409 0.930014
O O8 0.471570 0.078722 0.342023
O O9 0.226020 0.220290 0.188004
O O10 0.479654 0.896457 0.069035
O O11 0.278257 0.110222 0.985443
O O12 0.658783 0.858771 0.077396
#
# Coordination Sequence:
#
# PCOD9272867 Si02
#       6
#     8   8   8   8   8   8
#     4  11  21  39  61  87 117 153 191 241 295 338
#     4  10  20  37  61  84 110 156 196 233 286 352
#     4  11  20  37  58  85 113 156 195 237 283 347
#     4  11  24  35  60  92 119 146 193 247 290 333
#     4  10  20  38  62  84 111 157 197 227 285 353
#     4  11  20  39  60  82 118 158 197 233 281 352
#
# _framework density 22.801901999999998
#
# number of rings (size 3 to 8) (size 9 to 14) (size 15 to 20)
#    0.000    1.333    5.000    2.500    0.000    0.667 
#    0.000    0.000    0.000    0.000    4.333    0.000 
#    0.000    0.000    0.000    0.000    0.000    0.000 
#
# Total GULP energy -133868.737217 kJ/mol
# GULP energy per Si atom -5577.864051 kJ/mol
# Density = 2.275000 g / cm^3
# Si number density = 22.801902 Si / 1000 Ang^3
#
#
#
# Elastic Constant Matrix: (Units=GPa)
#
#
# Indices 1 2 3 4 5 6 
#
# 1 101.7996 36.1494 42.3698 0.0000 -43.9551 0.0000
# 2 36.1494 58.3360 15.9322 0.0000 -18.1112 0.0000
# 3 42.3698 15.9322 83.7744 0.0000 -38.7360 0.0000
# 4 0.0000 0.0000 0.0000 32.6658 0.0000 -8.2880
# 5 -43.9551 -18.1112 -38.7360 0.0000 33.0981 0.0000
# 6 0.0000 0.0000 0.0000 -8.2880 0.0000 41.1242
#
#
#
# Elastic Compliance Matrix: (Units=1/GPa)
#
#
# Indices 1 2 3 4 5 6 
#
# 1 0.025763 -0.005862 0.005278 0.000000 0.037183 0.000000
# 2 -0.005862 0.022296 0.001670 0.000000 0.006369 0.000000
# 3 0.005278 0.001670 0.027489 0.000000 0.040094 0.000000
# 4 0.000000 0.000000 0.000000 0.032263 0.000000 0.006502
# 5 0.037183 0.006369 0.040094 0.000000 0.130003 0.000000
# 6 0.000000 0.000000 0.000000 0.006502 0.000000 0.025627
#
#
# Mechanical properties :
#
#
# Convention : Reuss Voigt Hill
#
# Bulk Modulus (GPa) = 12.86687 48.09032 30.47859
# Shear Modulus (GPa) = 17.41089 31.34153 24.37621
#
# Velocity S-wave (km/s) = 2.76628 3.71147 3.27317
# Velocity P-wave (km/s) = 3.98224 6.28513 5.26123
#
# Compressibility (1/GPa) = 0.07771900
#
# Stress axis : x y z
#
# Youngs Moduli (GPa) = 38.81489 44.85074 36.37840
#
# Poissons Ratio (x) = 0.26292 -0.19200
# Poissons Ratio (y) = 0.22754 -0.06074
# Poissons Ratio (z) = -0.20486 -0.07489
#
# Static dielectric constant tensor:
#      x y z
#    x 1.970980 0.000000 -0.041400 
#    y 0.000000 1.986820 0.000000 
#    z -0.041400 0.000000 1.823140 
# 
# From -- ./inp_files/208680.got.cif
#   From: 2010.05.17/outbox.cif.g08.bks.cpg/sg15_105_cif.got.tgz:208680.got - 2010.06.03 18:47:42.
