data_PCOD9272018
_publ_section_title
;
Structure prediction by ZEFSAII (Michael W. Deem and Ramdas Pophale) SiO2 
 PCOD9272018
Probable space group: C 2/C
;
_chemical_formula_sum "Si O2"
_cell_formula_units_Z 40
_cell_length_a 10.171675
_cell_length_b 17.574256
_cell_length_c 13.565835
_cell_angle_alpha 90.000000
_cell_angle_beta 136.465398
_cell_angle_gamma 90.000000
_cell_volume 1670.338052
_symmetry_space_group_name_H-M "C 2/C"
_symmetry_group_IT_number 15
_symmetry_cell_setting 'monoclinic'
loop_
_space_group_symop_operation_xyz
x,y,z
-x,y,1/2-z
-x,-y,-z
x,-y,1/2+z
1/2+x,1/2+y,z
1/2-x,1/2+y,1/2-z
1/2-x,1/2-y,-z
1/2+x,1/2-y,1/2+z
loop_
_atom_site_type_symbol
_atom_site_label
_atom_site_fract_x
_atom_site_fract_y
_atom_site_fract_z
Si Si1 0.093005 0.374684 0.197155
Si Si2 0.475933 0.340275 0.081638
Si Si3 0.991791 0.003278 0.612604
Si Si4 0.233416 0.780878 0.721987
Si Si5 0.275247 0.080078 0.390575
O O1 0.319711 0.378004 0.334706
O O2 0.078264 0.284160 0.164179
O O3 0.000000 0.394854 0.250000
O O4 0.985497 0.416833 0.050282
O O5 0.397847 0.415134 0.094506
O O6 0.562013 0.263397 0.176223
O O7 0.338112 0.319054 0.917605
O O8 0.859496 0.937281 0.588488
O O9 0.000000 0.000000 0.500000
O O10 0.196488 0.981512 0.770064
O O11 0.246779 0.840810 0.817283
#
# Coordination Sequence:
#
# PCOD9272018 Si02
#       5
#     8   8   8   8   8
#     4  10  21  33  58  91 122 152 208 260 300 367
#     4  10  21  39  59  93 128 161 206 260 312 369
#     4  11  23  36  59  90 134 165 198 254 325 376
#     4  10  20  36  63  89 119 161 208 254 301 368
#     4  11  23  38  62  91 124 170 203 254 321 367
#
# _framework density 23.947248999999999
#
# number of rings (size 3 to 8) (size 9 to 14) (size 15 to 20)
#    1.200    0.400    4.000    1.200    5.600    2.400 
#    0.000    0.000    0.000    4.800    0.000    0.000 
#    0.000    0.000    0.000    0.000    0.000    0.000 
#
# Total GULP energy -111363.377697 kJ/mol
# GULP energy per Si atom -5568.168885 kJ/mol
# Density = 2.389274 g / cm^3
# Si number density = 23.947249 Si / 1000 Ang^3
#
#
#
# Elastic Constant Matrix: (Units=GPa)
#
#
# Indices 1 2 3 4 5 6 
#
# 1 50.8897 18.0394 39.7918 0.0000 -19.0224 0.0000
# 2 18.0394 143.0338 71.7664 0.0000 -11.2432 0.0000
# 3 39.7918 71.7664 178.0563 -0.0001 -27.8084 0.0000
# 4 0.0000 0.0000 -0.0001 65.1623 -0.0001 -7.3276
# 5 -19.0224 -11.2432 -27.8084 -0.0001 37.2565 -0.0001
# 6 0.0000 0.0000 0.0000 -7.3276 -0.0001 18.7466
#
#
#
# Elastic Compliance Matrix: (Units=1/GPa)
#
#
# Indices 1 2 3 4 5 6 
#
# 1 0.027043 -0.000471 -0.004210 0.000000 0.010523 0.000000
# 2 -0.000471 0.008772 -0.003457 0.000000 -0.000174 0.000000
# 3 -0.004210 -0.003457 0.008435 0.000000 0.003103 0.000000
# 4 0.000000 0.000000 0.000000 0.016052 0.000000 0.006274
# 5 0.010523 -0.000174 0.003103 0.000000 0.034477 0.000000
# 6 0.000000 0.000000 0.000000 0.006274 0.000000 0.055795
#
#
# Mechanical properties :
#
#
# Convention : Reuss Voigt Hill
#
# Bulk Modulus (GPa) = 35.74941 70.13055 52.93998
# Shear Modulus (GPa) = 28.38073 40.39191 34.38632
#
# Velocity S-wave (km/s) = 3.44631 4.11140 3.79346
# Velocity P-wave (km/s) = 5.54950 7.20328 6.42978
#
# Compressibility (1/GPa) = 0.02797249
#
# Stress axis : x y z
#
# Youngs Moduli (GPa) = 36.97849 114.00129 118.55003
#
# Poissons Ratio (x) = 0.05370 0.49912
# Poissons Ratio (y) = 0.01742 0.40988
# Poissons Ratio (z) = 0.15569 0.39415
#
# Static dielectric constant tensor:
#      x y z
#    x 1.984790 0.000000 0.061180 
#    y 0.000000 2.124120 0.000000 
#    z 0.061180 0.000000 1.912550 
# 
# From -- ./inp_files/145869.got.cif
#   From: 2010.05.17/outbox.cif.g08.bks.cpg/sg15_73_cif.got.tgz:145869.got - 2010.06.03 18:47:42.
