data_PCOD9272775
_publ_section_title
;
Structure prediction by ZEFSAII (Michael W. Deem and Ramdas Pophale) SiO2 
 PCOD9272775
Probable space group: C 2/C
;
_chemical_formula_sum "Si O2"
_cell_formula_units_Z 64
_cell_length_a 25.327349
_cell_length_b 14.640658
_cell_length_c 10.136808
_cell_angle_alpha 90.000000
_cell_angle_beta 47.148985
_cell_angle_gamma 90.000000
_cell_volume 2755.683599
_symmetry_space_group_name_H-M "C 2/C"
_symmetry_group_IT_number 15
_symmetry_cell_setting 'monoclinic'
loop_
_space_group_symop_operation_xyz
x,y,z
-x,y,1/2-z
-x,-y,-z
x,-y,1/2+z
1/2+x,1/2+y,z
1/2-x,1/2+y,1/2-z
1/2-x,1/2-y,-z
1/2+x,1/2-y,1/2+z
loop_
_atom_site_type_symbol
_atom_site_label
_atom_site_fract_x
_atom_site_fract_y
_atom_site_fract_z
Si Si1 0.430798 0.244192 0.145024
Si Si2 0.423843 0.452461 0.142138
Si Si3 0.910793 0.710522 0.614448
Si Si4 0.079751 0.352740 0.104662
Si Si5 0.194325 0.291571 0.449399
Si Si6 0.234570 0.603083 0.264129
Si Si7 0.696462 0.415613 0.348304
Si Si8 0.835312 0.119524 0.337699
O O1 0.431334 0.350631 0.182760
O O2 0.360201 0.205305 0.335673
O O3 0.505680 0.199576 0.064906
O O4 0.431191 0.229583 0.984836
O O5 0.380744 0.441407 0.078353
O O6 0.372896 0.523297 0.303820
O O7 0.500000 0.500000 0.000000
O O8 0.900419 0.668550 0.777571
O O9 0.854873 0.685154 0.595589
O O10 0.894280 0.817379 0.668740
O O11 0.000000 0.397188 0.250000
O O12 0.148712 0.400615 0.923486
O O13 0.231199 0.191590 0.367267
O O14 0.257478 0.366088 0.343373
O O15 0.261937 0.504606 0.171650
O O16 0.269437 0.610523 0.351089
O O17 0.689868 0.343840 0.478692
#
# Coordination Sequence:
#
# PCOD9272775 Si02
#       8
#     8   8   8   8   8   8   8   8
#     4  11  22  38  62  94 130 167 213 262 329 386
#     4  11  22  37  56  92 129 165 204 267 329 396
#     4  10  20  39  61  89 122 165 215 260 315 379
#     4  10  22  39  63  86 115 163 216 269 314 380
#     4  11  23  40  64  91 130 171 213 266 322 386
#     4  10  22  40  61  90 124 163 214 267 320 384
#     4  11  24  39  62  93 124 170 219 265 324 390
#     4  10  20  37  60  87 122 166 212 255 317 387
#
# _framework density 23.224727999999999
#
# number of rings (size 3 to 8) (size 9 to 14) (size 15 to 20)
#    0.000    1.500    1.250    4.125    0.000    6.500 
#    2.250    1.250    0.000    3.750    0.000    0.000 
#    0.000    0.000    0.000    0.000    0.000    0.000 
#
# Total GULP energy -178703.671978 kJ/mol
# GULP energy per Si atom -5584.489749 kJ/mol
# Density = 2.317187 g / cm^3
# Si number density = 23.224728 Si / 1000 Ang^3
#
#
#
# Elastic Constant Matrix: (Units=GPa)
#
#
# Indices 1 2 3 4 5 6 
#
# 1 108.8000 5.3760 52.5501 0.0000 -12.6719 0.0000
# 2 5.3760 34.7486 10.9898 0.0000 -16.1826 0.0000
# 3 52.5501 10.9898 137.3467 0.0000 -22.8197 0.0000
# 4 0.0000 0.0000 0.0000 23.2033 0.0000 -6.2358
# 5 -12.6719 -16.1826 -22.8197 0.0000 42.8783 0.0000
# 6 0.0000 0.0000 0.0000 -6.2358 0.0000 18.6718
#
#
#
# Elastic Compliance Matrix: (Units=1/GPa)
#
#
# Indices 1 2 3 4 5 6 
#
# 1 0.011326 0.000109 -0.004146 0.000000 0.001182 0.000000
# 2 0.000109 0.034971 -0.000704 0.000000 0.012856 0.000000
# 3 -0.004146 -0.000704 0.009517 0.000000 0.003574 0.000000
# 4 0.000000 0.000000 0.000000 0.047347 0.000000 0.015813
# 5 0.001182 0.012856 0.003574 0.000000 0.030425 0.000000
# 6 0.000000 0.000000 0.000000 0.015813 0.000000 0.058838
#
#
# Mechanical properties :
#
#
# Convention : Reuss Voigt Hill
#
# Bulk Modulus (GPa) = 21.58278 46.52523 34.05401
# Shear Modulus (GPa) = 23.00448 31.08264 27.04356
#
# Velocity S-wave (km/s) = 3.15066 3.66231 3.41608
# Velocity P-wave (km/s) = 4.74855 6.16112 5.50037
#
# Compressibility (1/GPa) = 0.04633323
#
# Stress axis : x y z
#
# Youngs Moduli (GPa) = 88.29381 28.59516 105.07290
#
# Poissons Ratio (x) = -0.00313 0.43560
# Poissons Ratio (y) = -0.00966 0.07398
# Poissons Ratio (z) = 0.36604 0.02013
#
# Static dielectric constant tensor:
#      x y z
#    x 1.893640 0.000000 0.006580 
#    y 0.000000 1.889790 0.000000 
#    z 0.006580 0.000000 1.894020 
# 
# From -- ./inp_files/123495.got.cif
#   From: 2010.05.17/outbox.cif.g08.bks.cpg/sg15_62_cif.got.tgz:123495.got - 2010.06.03 18:47:42.
