data_PCOD9272605
_publ_section_title
;
Structure prediction by ZEFSAII (Michael W. Deem and Ramdas Pophale) SiO2 
 PCOD9272605
Probable space group: C 2/C
;
_chemical_formula_sum "Si O2"
_cell_formula_units_Z 48
_cell_length_a 18.173734
_cell_length_b 12.983968
_cell_length_c 11.668743
_cell_angle_alpha 90.000000
_cell_angle_beta 112.789792
_cell_angle_gamma 90.000000
_cell_volume 2538.485294
_symmetry_space_group_name_H-M "C 2/C"
_symmetry_group_IT_number 15
_symmetry_cell_setting 'monoclinic'
loop_
_space_group_symop_operation_xyz
x,y,z
-x,y,1/2-z
-x,-y,-z
x,-y,1/2+z
1/2+x,1/2+y,z
1/2-x,1/2+y,1/2-z
1/2-x,1/2-y,-z
1/2+x,1/2-y,1/2+z
loop_
_atom_site_type_symbol
_atom_site_label
_atom_site_fract_x
_atom_site_fract_y
_atom_site_fract_z
Si Si1 0.000000 0.811000 0.750000
Si Si2 0.201704 0.870955 0.389011
Si Si3 0.238276 0.313227 0.323787
Si Si4 0.825638 0.889777 0.602941
Si Si5 0.373079 0.178422 0.075154
Si Si6 0.433554 0.134566 0.857729
Si Si7 0.000000 0.461227 0.750000
O O1 0.079932 0.871198 0.828805
O O2 0.020300 0.735190 0.657426
O O3 0.220808 0.826372 0.274493
O O4 0.281181 0.856204 0.513313
O O5 0.132281 0.799957 0.400968
O O6 0.188396 0.992195 0.374161
O O7 0.218881 0.194167 0.342965
O O8 0.291095 0.362732 0.456230
O O9 0.151127 0.367030 0.261504
O O10 0.423944 0.112499 0.194144
O O11 0.411568 0.150355 0.976026
O O12 0.485092 0.037082 0.848653
#
# Coordination Sequence:
#
# PCOD9272605 Si02
#       7
#     4   8   8   8   8   8   4
#     4   9  20  35  54  80 110 143 180 219 270 326
#     4  10  22  38  56  80 113 144 177 227 273 318
#     4   9  20  37  59  82 105 144 191 220 261 331
#     4  10  20  37  59  81 108 145 183 222 270 323
#     4  10  22  36  53  81 110 140 182 227 274 323
#     4   9  19  37  55  78 111 143 179 229 272 311
#     4  11  20  33  58  82 108 145 182 225 274 320
#
# _framework density 18.908913999999999
#
# number of rings (size 3 to 8) (size 9 to 14) (size 15 to 20)
#    0.000    2.333    0.000    1.500    0.000   11.333 
#    0.000    1.667    0.000    0.000    0.000    0.000 
#    0.000    0.000    0.000    0.000    0.000    0.000 
#
# Total GULP energy -133847.980824 kJ/mol
# GULP energy per Si atom -5576.999201 kJ/mol
# Density = 1.886588 g / cm^3
# Si number density = 18.908914 Si / 1000 Ang^3
#
#
#
# Elastic Constant Matrix: (Units=GPa)
#
#
# Indices 1 2 3 4 5 6 
#
# 1 68.4387 51.7167 25.7861 0.0000 -0.3024 0.0000
# 2 51.7167 127.9201 44.2423 0.0000 6.2118 0.0000
# 3 25.7861 44.2423 64.4476 0.0000 5.2127 0.0000
# 4 0.0000 0.0000 0.0000 15.1381 0.0000 5.9841
# 5 -0.3024 6.2118 5.2127 0.0000 15.9841 0.0000
# 6 0.0000 0.0000 0.0000 5.9841 0.0000 23.1305
#
#
#
# Elastic Compliance Matrix: (Units=1/GPa)
#
#
# Indices 1 2 3 4 5 6 
#
# 1 0.021952 -0.007781 -0.003821 0.000000 0.004685 0.000000
# 2 -0.007781 0.013056 -0.005575 0.000000 -0.003403 0.000000
# 3 -0.003821 -0.005575 0.021263 0.000000 -0.004840 0.000000
# 4 0.000000 0.000000 0.000000 0.073584 0.000000 -0.019037
# 5 0.004685 -0.003403 -0.004840 0.000000 0.065552 0.000000
# 6 0.000000 0.000000 0.000000 -0.019037 0.000000 0.048158
#
#
# Mechanical properties :
#
#
# Convention : Reuss Voigt Hill
#
# Bulk Modulus (GPa) = 45.62152 56.03297 50.82724
# Shear Modulus (GPa) = 17.53010 20.12127 18.82569
#
# Velocity S-wave (km/s) = 3.04810 3.26562 3.15873
# Velocity P-wave (km/s) = 6.04709 6.62695 6.34365
#
# Compressibility (1/GPa) = 0.02191948
#
# Stress axis : x y z
#
# Youngs Moduli (GPa) = 45.55475 76.59079 47.02915
#
# Poissons Ratio (x) = 0.59595 0.17968
# Poissons Ratio (y) = 0.35446 0.26216
# Poissons Ratio (z) = 0.17404 0.42696
#
# Static dielectric constant tensor:
#      x y z
#    x 1.650350 0.000000 0.001130 
#    y 0.000000 1.643180 0.000000 
#    z 0.001130 0.000000 1.667660 
# 
# From -- ./inp_files/104210.got.cif
#   From: 2010.05.17/outbox.cif.g08.bks.cpg/sg15_53_cif.got.tgz:104210.got - 2010.06.03 18:47:42.
