data_PCOD9272304
_publ_section_title
;
Structure prediction by ZEFSAII (Michael W. Deem and Ramdas Pophale) SiO2 
 PCOD9272304
Probable space group: C 2/C
;
_chemical_formula_sum "Si O2"
_cell_formula_units_Z 48
_cell_length_a 15.607467
_cell_length_b 30.368628
_cell_length_c 8.746193
_cell_angle_alpha 90.000000
_cell_angle_beta 36.830937
_cell_angle_gamma 90.000000
_cell_volume 2485.042780
_symmetry_space_group_name_H-M "C 2/C"
_symmetry_group_IT_number 15
_symmetry_cell_setting 'monoclinic'
loop_
_space_group_symop_operation_xyz
x,y,z
-x,y,1/2-z
-x,-y,-z
x,-y,1/2+z
1/2+x,1/2+y,z
1/2-x,1/2+y,1/2-z
1/2-x,1/2-y,-z
1/2+x,1/2-y,1/2+z
loop_
_atom_site_type_symbol
_atom_site_label
_atom_site_fract_x
_atom_site_fract_y
_atom_site_fract_z
Si Si1 0.830727 0.124651 0.995560
Si Si2 0.855219 0.370440 0.033534
Si Si3 0.577807 0.216693 0.877377
Si Si4 0.184637 0.458922 0.836367
Si Si5 0.219240 0.294460 0.843492
Si Si6 0.654710 0.051944 0.731849
O O1 0.781768 0.075399 0.107291
O O2 0.765298 0.158335 0.213422
O O3 0.760991 0.135681 0.931857
O O4 0.000000 0.128796 0.750000
O O5 0.899471 0.324348 0.044345
O O6 0.804639 0.404042 0.236305
O O7 0.000000 0.389661 0.750000
O O8 0.650458 0.260259 0.840612
O O9 0.657846 0.204563 0.603672
O O10 0.411885 0.222496 0.073339
O O11 0.202396 0.509261 0.759347
O O12 0.209705 0.452320 0.980655
O O13 0.018261 0.448213 0.037380
#
# Coordination Sequence:
#
# PCOD9272304 Si02
#       6
#     8   8   8   8   8   8
#     4  12  26  41  59  91 131 164 201 255 312 367
#     4  12  22  39  61  92 123 161 211 251 301 362
#     4  10  22  40  66  91 123 161 210 258 302 368
#     4  10  20  38  62  95 121 157 204 250 306 357
#     4  10  22  42  63  91 124 164 207 254 310 360
#     4  10  20  36  68  91 119 156 206 257 295 363
#
# _framework density 19.315562
#
# number of rings (size 3 to 8) (size 9 to 14) (size 15 to 20)
#    0.000    1.333    3.333    2.000    4.667    4.000 
#    0.000    5.833    0.000    0.000    0.000    0.000 
#    0.000    0.000    0.000    0.000    0.000    0.000 
#
# Total GULP energy -134149.278410 kJ/mol
# GULP energy per Si atom -5589.553267 kJ/mol
# Density = 1.927160 g / cm^3
# Si number density = 19.315562 Si / 1000 Ang^3
#
#
#
# Elastic Constant Matrix: (Units=GPa)
#
#
# Indices 1 2 3 4 5 6 
#
# 1 116.3564 25.1654 29.0563 0.0000 0.4349 0.0000
# 2 25.1654 57.3902 4.3040 0.0000 2.3681 0.0000
# 3 29.0563 4.3040 36.0183 0.0000 -13.7366 0.0000
# 4 0.0000 0.0000 0.0000 22.1514 0.0000 6.0795
# 5 0.4349 2.3681 -13.7366 0.0000 32.4180 0.0000
# 6 0.0000 0.0000 0.0000 6.0795 0.0000 36.2532
#
#
#
# Elastic Compliance Matrix: (Units=1/GPa)
#
#
# Indices 1 2 3 4 5 6 
#
# 1 0.012356 -0.004389 -0.011193 0.000000 -0.004588 0.000000
# 2 -0.004389 0.019326 0.000853 0.000000 -0.000991 0.000000
# 3 -0.011193 0.000853 0.043803 0.000000 0.018649 0.000000
# 4 0.000000 0.000000 0.000000 0.047322 0.000000 -0.007936
# 5 -0.004588 -0.000991 0.018649 0.000000 0.038883 0.000000
# 6 0.000000 0.000000 0.000000 -0.007936 0.000000 0.028915
#
#
# Mechanical properties :
#
#
# Convention : Reuss Voigt Hill
#
# Bulk Modulus (GPa) = 21.72585 36.31292 29.01939
# Shear Modulus (GPa) = 21.24002 28.24712 24.74357
#
# Velocity S-wave (km/s) = 3.31967 3.82829 3.58301
# Velocity P-wave (km/s) = 5.09567 6.19529 5.67219
#
# Compressibility (1/GPa) = 0.04602811
#
# Stress axis : x y z
#
# Youngs Moduli (GPa) = 80.93378 51.74338 22.82932
#
# Poissons Ratio (x) = 0.22711 0.25552
# Poissons Ratio (y) = 0.35524 -0.01948
# Poissons Ratio (z) = 0.90587 -0.04416
#
# Static dielectric constant tensor:
#      x y z
#    x 1.655690 0.000000 0.016540 
#    y 0.000000 1.643700 0.000000 
#    z 0.016540 0.000000 1.674620 
# 
# From -- ./inp_files/44440.got.cif
#   From: 2010.05.17/outbox.cif.g08.bks.cpg/sg15_23_cif.got.tgz:44440.got - 2010.06.03 18:47:42.
