data_PCOD9272654
_publ_section_title
;
Structure prediction by ZEFSAII (Michael W. Deem and Ramdas Pophale) SiO2 
 PCOD9272654
Probable space group: C 2/C
;
_chemical_formula_sum "Si O2"
_cell_formula_units_Z 56
_cell_length_a 15.472026
_cell_length_b 20.381289
_cell_length_c 14.569101
_cell_angle_alpha 90.000000
_cell_angle_beta 140.228379
_cell_angle_gamma 90.000000
_cell_volume 2939.054800
_symmetry_space_group_name_H-M "C 2/C"
_symmetry_group_IT_number 15
_symmetry_cell_setting 'monoclinic'
loop_
_space_group_symop_operation_xyz
x,y,z
-x,y,1/2-z
-x,-y,-z
x,-y,1/2+z
1/2+x,1/2+y,z
1/2-x,1/2+y,1/2-z
1/2-x,1/2-y,-z
1/2+x,1/2-y,1/2+z
loop_
_atom_site_type_symbol
_atom_site_label
_atom_site_fract_x
_atom_site_fract_y
_atom_site_fract_z
Si Si1 0.383502 0.103079 0.926187
Si Si2 0.241039 0.307682 0.869280
Si Si3 0.863403 0.426271 0.196509
Si Si4 0.084429 0.431141 0.733754
Si Si5 0.149534 0.830902 0.340182
Si Si6 0.247372 0.210992 0.593106
Si Si7 0.040815 0.256561 0.072729
O O1 0.377707 0.079176 0.817765
O O2 0.235874 0.119537 0.847684
O O3 0.456381 0.173873 0.977131
O O4 0.472082 0.057073 0.064033
O O5 0.181377 0.374030 0.780106
O O6 0.151356 0.241120 0.793437
O O7 0.376831 0.291382 0.925927
O O8 0.268377 0.321886 0.998388
O O9 0.840426 0.504246 0.167133
O O10 0.762321 0.367340 0.088411
O O11 0.000000 0.412799 0.250000
O O12 0.000000 0.402561 0.750000
O O13 0.000000 0.850287 0.250000
O O14 0.250000 0.250000 0.500000
O O15 0.370643 0.231445 0.761805
O O16 0.106795 0.230174 0.525874
#
# Coordination Sequence:
#
# PCOD9272654 Si02
#       7
#     8   8   8   8   8   8   8
#     4  10  20  37  59  87 115 154 191 245 295 348
#     4  10  21  33  54  86 118 149 184 236 289 354
#     4  10  23  38  59  86 113 158 200 245 291 353
#     4  11  20  37  57  85 120 155 198 234 293 362
#     4  10  21  32  56  85 119 150 185 235 291 353
#     4  11  21  40  61  86 116 153 203 259 297 340
#     4  10  22  34  61  90 116 149 197 248 307 349
#
# _framework density 19.053743999999998
#
# number of rings (size 3 to 8) (size 9 to 14) (size 15 to 20)
#    0.000    1.714    1.429    3.857   10.000    0.000 
#    0.000    0.714    0.000    0.000    0.000    0.000 
#    0.000    0.000    0.000    0.000    0.000    0.000 
#
# Total GULP energy -156145.163479 kJ/mol
# GULP energy per Si atom -5576.612981 kJ/mol
# Density = 1.901038 g / cm^3
# Si number density = 19.053744 Si / 1000 Ang^3
#
#
#
# Elastic Constant Matrix: (Units=GPa)
#
#
# Indices 1 2 3 4 5 6 
#
# 1 112.4516 26.7847 17.3334 0.0000 6.2832 0.0000
# 2 26.7847 78.7641 21.1560 0.0000 25.5709 0.0000
# 3 17.3334 21.1560 58.9431 0.0000 0.5551 0.0000
# 4 0.0000 0.0000 0.0000 22.2740 0.0000 -3.7642
# 5 6.2832 25.5709 0.5551 0.0000 34.8840 0.0000
# 6 0.0000 0.0000 0.0000 -3.7642 0.0000 17.2415
#
#
#
# Elastic Compliance Matrix: (Units=1/GPa)
#
#
# Indices 1 2 3 4 5 6 
#
# 1 0.009866 -0.003015 -0.001823 0.000000 0.000462 0.000000
# 2 -0.003015 0.019892 -0.006122 0.000000 -0.013941 0.000000
# 3 -0.001823 -0.006122 0.019656 0.000000 0.004503 0.000000
# 4 0.000000 0.000000 0.000000 0.046615 0.000000 0.010177
# 5 0.000462 -0.013941 0.004503 0.000000 0.038730 0.000000
# 6 0.000000 0.000000 0.000000 0.010177 0.000000 0.060221
#
#
# Mechanical properties :
#
#
# Convention : Reuss Voigt Hill
#
# Bulk Modulus (GPa) = 36.37217 42.30079 39.33648
# Shear Modulus (GPa) = 22.11739 27.20555 24.66147
#
# Velocity S-wave (km/s) = 3.41073 3.78277 3.60156
# Velocity P-wave (km/s) = 5.88570 6.42869 6.16318
#
# Compressibility (1/GPa) = 0.02749355
#
# Stress axis : x y z
#
# Youngs Moduli (GPa) = 101.35625 50.27244 50.87387
#
# Poissons Ratio (x) = 0.15159 0.09276
# Poissons Ratio (y) = 0.30564 0.31142
# Poissons Ratio (z) = 0.18481 0.30774
#
# Static dielectric constant tensor:
#      x y z
#    x 1.659370 0.000000 -0.019470 
#    y 0.000000 1.697440 0.000000 
#    z -0.019470 0.000000 1.705970 
# 
# From -- ./inp_files/156221.got.cif
#   From: 2010.05.17/outbox.cif.g08.bks.cpg/sg15_79_cif.got.tgz:156221.got - 2010.06.03 18:47:42.
