data_PCOD9272608
_publ_section_title
;
Structure prediction by ZEFSAII (Michael W. Deem and Ramdas Pophale) SiO2 
 PCOD9272608
Probable space group: C 2/C
;
_chemical_formula_sum "Si O2"
_cell_formula_units_Z 56
_cell_length_a 20.915820
_cell_length_b 31.443986
_cell_length_c 9.164421
_cell_angle_alpha 90.000000
_cell_angle_beta 30.456065
_cell_angle_gamma 90.000000
_cell_volume 3055.065612
_symmetry_space_group_name_H-M "C 2/C"
_symmetry_group_IT_number 15
_symmetry_cell_setting 'monoclinic'
loop_
_space_group_symop_operation_xyz
x,y,z
-x,y,1/2-z
-x,-y,-z
x,-y,1/2+z
1/2+x,1/2+y,z
1/2-x,1/2+y,1/2-z
1/2-x,1/2-y,-z
1/2+x,1/2-y,1/2+z
loop_
_atom_site_type_symbol
_atom_site_label
_atom_site_fract_x
_atom_site_fract_y
_atom_site_fract_z
Si Si1 0.494498 0.644756 0.934216
Si Si2 0.162953 0.522912 0.821792
Si Si3 0.140976 0.729381 0.118012
Si Si4 0.621566 0.416447 0.609259
Si Si5 0.878923 0.762787 0.667170
Si Si6 0.744422 0.863677 0.406501
Si Si7 0.905222 0.445911 0.725551
O O1 0.500000 0.639148 0.750000
O O2 0.634189 0.645431 0.730382
O O3 0.422252 0.607296 0.159712
O O4 0.421990 0.688862 0.109403
O O5 0.297597 0.541922 0.517510
O O6 0.139055 0.474713 0.821507
O O7 0.144163 0.530394 0.030643
O O8 0.055569 0.550765 0.950140
O O9 0.003103 0.734958 0.461293
O O10 0.250000 0.750000 0.000000
O O11 0.139471 0.754919 0.968953
O O12 0.172550 0.680409 0.024862
O O13 0.500000 0.426624 0.750000
O O14 0.704468 0.384396 0.344772
O O15 0.750000 0.750000 0.000000
O O16 0.653368 0.899221 0.656059
#
# Coordination Sequence:
#
# PCOD9272608 Si02
#       7
#     8   8   8   8   8   8   8
#     4  11  20  38  54  80 117 147 187 241 289 333
#     4   9  18  36  55  84 115 142 188 234 285 342
#     4  11  21  39  58  81 116 153 192 244 283 347
#     4   9  20  35  58  83 110 152 188 230 280 351
#     4  11  23  36  57  85 111 150 195 240 295 341
#     4  10  20  37  59  81 110 153 196 226 284 346
#     4   9  19  34  59  82 112 148 185 235 285 338
#
# _framework density 18.330212
#
# number of rings (size 3 to 8) (size 9 to 14) (size 15 to 20)
#    0.000    2.000    2.857    0.857    0.000    7.429 
#    0.000    7.143    0.000    5.143    0.000    0.000 
#    0.000    0.000    0.000    0.000    0.000    0.000 
#
# Total GULP energy -156229.874065 kJ/mol
# GULP energy per Si atom -5579.638359 kJ/mol
# Density = 1.828849 g / cm^3
# Si number density = 18.330212 Si / 1000 Ang^3
#
#
#
# Elastic Constant Matrix: (Units=GPa)
#
#
# Indices 1 2 3 4 5 6 
#
# 1 51.8327 11.8365 13.8327 0.0000 -4.1439 0.0000
# 2 11.8365 47.3127 8.9532 0.0000 -11.0631 0.0000
# 3 13.8327 8.9532 89.5478 0.0001 -17.7906 -0.0001
# 4 0.0000 0.0000 0.0001 32.2740 0.0000 -7.3456
# 5 -4.1439 -11.0631 -17.7906 0.0000 21.6609 0.0000
# 6 0.0000 0.0000 -0.0001 -7.3456 0.0000 23.1152
#
#
#
# Elastic Compliance Matrix: (Units=1/GPa)
#
#
# Indices 1 2 3 4 5 6 
#
# 1 0.021136 -0.004941 -0.002950 0.000000 -0.000903 0.000000
# 2 -0.004941 0.025158 0.000732 0.000000 0.012505 0.000000
# 3 -0.002950 0.000732 0.013757 0.000000 0.011108 0.000000
# 4 0.000000 0.000000 0.000000 0.033401 0.000000 0.010614
# 5 -0.000903 0.012505 0.011108 0.000000 0.061504 0.000000
# 6 0.000000 0.000000 0.000000 0.010614 0.000000 0.046635
#
#
# Mechanical properties :
#
#
# Convention : Reuss Voigt Hill
#
# Bulk Modulus (GPa) = 21.86608 28.65977 25.26292
# Shear Modulus (GPa) = 21.63087 25.68139 23.65613
#
# Velocity S-wave (km/s) = 3.43894 3.74711 3.59633
# Velocity P-wave (km/s) = 5.26529 5.86433 5.57286
#
# Compressibility (1/GPa) = 0.04573293
#
# Stress axis : x y z
#
# Youngs Moduli (GPa) = 47.31199 39.74956 72.69215
#
# Poissons Ratio (x) = 0.19639 0.21447
# Poissons Ratio (y) = 0.23375 -0.05323
# Poissons Ratio (z) = 0.13959 -0.02911
#
# Static dielectric constant tensor:
#      x y z
#    x 1.627620 0.000000 -0.001180 
#    y 0.000000 1.616610 0.000000 
#    z -0.001180 0.000000 1.657200 
# 
# From -- ./inp_files/59354.got.cif
#   From: 2010.05.17/outbox.cif.g08.bks.cpg/sg15_30_cif.got.tgz:59354.got - 2010.06.03 18:47:42.
