data_PCOD9272392
_publ_section_title
;
Structure prediction by ZEFSAII (Michael W. Deem and Ramdas Pophale) SiO2 
 PCOD9272392
Probable space group: C 2/C
;
_chemical_formula_sum "Si O2"
_cell_formula_units_Z 64
_cell_length_a 22.092805
_cell_length_b 27.970987
_cell_length_c 18.089250
_cell_angle_alpha 90.000000
_cell_angle_beta 161.894461
_cell_angle_gamma 90.000000
_cell_volume 3473.889093
_symmetry_space_group_name_H-M "C 2/C"
_symmetry_group_IT_number 15
_symmetry_cell_setting 'monoclinic'
loop_
_space_group_symop_operation_xyz
x,y,z
-x,y,1/2-z
-x,-y,-z
x,-y,1/2+z
1/2+x,1/2+y,z
1/2-x,1/2+y,1/2-z
1/2-x,1/2-y,-z
1/2+x,1/2-y,1/2+z
loop_
_atom_site_type_symbol
_atom_site_label
_atom_site_fract_x
_atom_site_fract_y
_atom_site_fract_z
Si Si1 0.772452 0.014376 0.998610
Si Si2 0.300898 0.525251 0.198888
Si Si3 0.800984 0.678908 0.178827
Si Si4 0.969362 0.858312 0.375217
Si Si5 0.131799 0.717127 0.474661
Si Si6 0.210960 0.404857 0.954962
Si Si7 0.687920 0.431377 0.197985
Si Si8 0.514228 0.048550 0.564609
O O1 0.726410 0.029952 0.029281
O O2 0.000000 0.022718 0.250000
O O3 0.649863 0.039999 0.793122
O O4 0.733505 0.957623 0.948437
O O5 0.265342 0.470367 0.183615
O O6 0.527655 0.539250 0.464653
O O7 0.193674 0.556125 0.138172
O O8 0.782658 0.636509 0.098392
O O9 0.016816 0.699494 0.414400
O O10 0.694035 0.656190 0.125848
O O11 0.675546 0.726855 0.019211
O O12 0.910758 0.885370 0.381461
O O13 0.831170 0.812270 0.204656
O O14 0.888501 0.893503 0.216840
O O15 0.000000 0.705322 0.250000
O O16 0.000000 0.402819 0.750000
O O17 0.874813 0.418238 0.365353
O O18 0.500000 0.000000 0.500000
#
# Coordination Sequence:
#
# PCOD9272392 Si02
#       8
#     8   8   8   8   8   8   8   8
#     4  12  22  37  57  80 107 147 192 230 269 324
#     4  10  20  37  55  74 107 139 184 228 274 322
#     4  12  23  35  53  70 101 141 182 233 281 317
#     4  12  22  35  52  74 102 137 182 234 268 329
#     4  12  22  35  51  72 101 139 185 231 285 326
#     4  12  23  33  48  77 101 134 191 234 260 312
#     4  10  22  36  50  78 104 140 181 231 279 315
#     4  10  22  36  56  75 107 143 177 229 280 321
#
# _framework density 18.423155000000001
#
# number of rings (size 3 to 8) (size 9 to 14) (size 15 to 20)
#    0.000    0.750    6.250    3.375    1.750    1.000 
#    0.000    0.000    0.000    0.000    0.000    0.000 
#    0.000    0.000    0.000    4.500    1.000    0.250 
#
# Total GULP energy -178558.222638 kJ/mol
# GULP energy per Si atom -5579.944457 kJ/mol
# Density = 1.838122 g / cm^3
# Si number density = 18.423155 Si / 1000 Ang^3
#
#
#
# Elastic Constant Matrix: (Units=GPa)
#
#
# Indices 1 2 3 4 5 6 
#
# 1 91.3356 10.1055 14.2243 0.0000 21.9454 0.0000
# 2 10.1055 36.4719 -12.1518 -0.0001 9.3932 -0.0001
# 3 14.2243 -12.1518 47.3176 0.0006 17.2774 0.0003
# 4 0.0000 -0.0001 0.0006 11.1552 0.0002 10.8407
# 5 21.9454 9.3932 17.2774 0.0002 40.6991 0.0001
# 6 0.0000 -0.0001 0.0003 10.8407 0.0001 19.1852
#
#
#
# Elastic Compliance Matrix: (Units=1/GPa)
#
#
# Indices 1 2 3 4 5 6 
#
# 1 0.012966 -0.003276 -0.002914 0.000000 -0.004998 0.000000
# 2 -0.003276 0.036813 0.015262 -0.000001 -0.013209 0.000000
# 3 -0.002914 0.015262 0.031529 -0.000002 -0.015336 0.000001
# 4 0.000000 -0.000001 -0.000002 0.198821 0.000000 -0.112345
# 5 -0.004998 -0.013209 -0.015336 0.000000 0.036824 0.000000
# 6 0.000000 0.000000 0.000001 -0.112345 0.000000 0.115604
#
#
# Mechanical properties :
#
#
# Convention : Reuss Voigt Hill
#
# Bulk Modulus (GPa) = 10.05521 22.16458 16.10989
# Shear Modulus (GPa) = 11.17158 25.07105 18.12131
#
# Velocity S-wave (km/s) = 2.46517 3.69296 3.13967
# Velocity P-wave (km/s) = 3.68409 5.49918 4.68046
#
# Compressibility (1/GPa) = 0.09945094
#
# Stress axis : x y z
#
# Youngs Moduli (GPa) = 77.12562 27.16432 31.71694
#
# Poissons Ratio (x) = 0.08900 0.09243
# Poissons Ratio (y) = 0.25268 -0.48406
# Poissons Ratio (z) = 0.22475 -0.41458
#
# Static dielectric constant tensor:
#      x y z
#    x 1.704190 0.000000 0.067820 
#    y 0.000000 1.636960 0.000000 
#    z 0.067820 0.000000 1.695650 
# 
# From -- ./inp_files/217201.got.cif
#   From: 2010.05.17/outbox.cif.g08.bks.cpg/sg15_109_cif.got.tgz:217201.got - 2010.06.03 18:47:42.
