data_PCOD9272960
_publ_section_title
;
Structure prediction by ZEFSAII (Michael W. Deem and Ramdas Pophale) SiO2 
 PCOD9272960
Probable space group: C 2/C
;
_chemical_formula_sum "Si O2"
_cell_formula_units_Z 48
_cell_length_a 18.918059
_cell_length_b 19.865988
_cell_length_c 8.759214
_cell_angle_alpha 90.000000
_cell_angle_beta 137.104672
_cell_angle_gamma 90.000000
_cell_volume 2240.695460
_symmetry_space_group_name_H-M "C 2/C"
_symmetry_group_IT_number 15
_symmetry_cell_setting 'monoclinic'
loop_
_space_group_symop_operation_xyz
x,y,z
-x,y,1/2-z
-x,-y,-z
x,-y,1/2+z
1/2+x,1/2+y,z
1/2-x,1/2+y,1/2-z
1/2-x,1/2-y,-z
1/2+x,1/2-y,1/2+z
loop_
_atom_site_type_symbol
_atom_site_label
_atom_site_fract_x
_atom_site_fract_y
_atom_site_fract_z
Si Si1 0.298828 0.196288 0.692742
Si Si2 0.776849 0.412117 0.630432
Si Si3 0.530056 0.823946 0.621877
Si Si4 0.341552 0.305257 0.263033
Si Si5 0.316126 0.474934 0.728254
Si Si6 0.868929 0.908300 0.538327
O O1 0.250000 0.250000 0.500000
O O2 0.244734 0.122973 0.601054
O O3 0.420365 0.186517 0.864777
O O4 0.259065 0.219221 0.798297
O O5 0.893239 0.383684 0.806378
O O6 0.701797 0.357202 0.430269
O O7 0.756835 0.479548 0.498080
O O8 0.743888 0.425815 0.751708
O O9 0.500000 0.834751 0.750000
O O10 0.593641 0.755433 0.698722
O O11 0.408079 0.346394 0.496655
O O12 0.398291 0.436275 0.750294
O O13 0.366736 0.528721 0.922814
#
# Coordination Sequence:
#
# PCOD9272960 Si02
#       6
#     8   8   8   8   8   8
#     4  10  23  40  58  88 129 156 207 258 306 364
#     4  10  20  37  61  92 126 163 203 251 304 375
#     4  12  22  37  62  89 126 166 201 255 310 365
#     4   9  21  38  59  87 126 156 205 249 304 363
#     4   9  17  35  61  85 123 167 193 245 311 367
#     4   8  18  36  55  87 119 156 197 249 295 370
#
# _framework density 21.421921999999999
#
# number of rings (size 3 to 8) (size 9 to 14) (size 15 to 20)
#    1.000    1.333    1.667    0.500    2.333    0.667 
#    0.000    9.167    0.000    0.000    0.000   67.667 
#    0.000    0.000    0.000    0.000    0.000    0.000 
#
# Total GULP energy -133662.046104 kJ/mol
# GULP energy per Si atom -5569.251921 kJ/mol
# Density = 2.137316 g / cm^3
# Si number density = 21.421922 Si / 1000 Ang^3
#
#
#
# Elastic Constant Matrix: (Units=GPa)
#
#
# Indices 1 2 3 4 5 6 
#
# 1 -32.5384 17.2556 71.7663 0.0000 25.3592 0.0000
# 2 17.2556 69.6472 41.8827 0.0000 9.7494 0.0000
# 3 71.7663 41.8827 94.4228 0.0000 -1.0321 0.0000
# 4 0.0000 0.0000 0.0000 30.0724 0.0000 -16.3575
# 5 25.3592 9.7494 -1.0321 0.0000 42.7000 0.0000
# 6 0.0000 0.0000 0.0000 -16.3575 0.0000 48.9698
#
#
#
# Elastic Compliance Matrix: (Units=1/GPa)
#
#
# Indices 1 2 3 4 5 6 
#
# 1 -0.008927 -0.003824 0.008551 0.000000 0.006382 0.000000
# 2 -0.003824 0.018926 -0.005513 0.000000 -0.002184 0.000000
# 3 0.008551 -0.005513 0.006497 0.000000 -0.003663 0.000000
# 4 0.000000 0.000000 0.000000 0.040636 0.000000 0.013574
# 5 0.006382 -0.002184 -0.003663 0.000000 0.020039 0.000000
# 6 0.000000 0.000000 0.000000 0.013574 0.000000 0.024955
#
#
# Mechanical properties :
#
#
# Convention : Reuss Voigt Hill
#
# Bulk Modulus (GPa) = 67.00228 43.70452 55.35340
# Shear Modulus (GPa) = 46.01005 24.39024 35.20014
#
# Velocity S-wave (km/s) = 4.63947 3.37792 4.05802
# Velocity P-wave (km/s) = 7.74886 5.97159 6.91754
#
# Compressibility (1/GPa) = 0.01492487
#
# Stress axis : x y z
#
# Youngs Moduli (GPa) = -112.01680 52.83688 153.92508
#
# Poissons Ratio (x) = 0.20203 -1.31621
# Poissons Ratio (y) = -0.42832 0.84854
# Poissons Ratio (z) = 0.95785 0.29127
#
# Static dielectric constant tensor:
#      x y z
#    x 1.790030 0.000000 0.018740 
#    y 0.000000 1.807580 0.000000 
#    z 0.018740 0.000000 1.911910 
# 
# From -- ./inp_files/56771.got.cif
#   From: 2010.05.17/outbox.cif.g08.bks.cpg/sg15_29_cif.got.tgz:56771.got - 2010.06.03 18:47:42.
