data_PCOD9272211
_publ_section_title
;
Structure prediction by ZEFSAII (Michael W. Deem and Ramdas Pophale) SiO2 
 PCOD9272211
Probable space group: C 2/C
;
_chemical_formula_sum "Si O2"
_cell_formula_units_Z 56
_cell_length_a 7.416001
_cell_length_b 23.708981
_cell_length_c 14.823690
_cell_angle_alpha 90.000000
_cell_angle_beta 66.987770
_cell_angle_gamma 90.000000
_cell_volume 2398.974955
_symmetry_space_group_name_H-M "C 2/C"
_symmetry_group_IT_number 15
_symmetry_cell_setting 'monoclinic'
loop_
_space_group_symop_operation_xyz
x,y,z
-x,y,1/2-z
-x,-y,-z
x,-y,1/2+z
1/2+x,1/2+y,z
1/2-x,1/2+y,1/2-z
1/2-x,1/2-y,-z
1/2+x,1/2-y,1/2+z
loop_
_atom_site_type_symbol
_atom_site_label
_atom_site_fract_x
_atom_site_fract_y
_atom_site_fract_z
Si Si1 0.505535 0.301292 0.013357
Si Si2 0.393379 0.079380 0.862480
Si Si3 0.685739 0.107215 0.359392
Si Si4 0.097408 0.096538 0.361748
Si Si5 0.468592 0.393944 0.362433
Si Si6 0.307038 0.967514 0.964723
Si Si7 0.570244 0.812729 0.039017
O O1 0.570441 0.349842 0.931385
O O2 0.562301 0.240623 0.961158
O O3 0.572828 0.329960 0.093863
O O4 0.267944 0.295725 0.055037
O O5 0.500000 0.060457 0.750000
O O6 0.172902 0.093139 0.874039
O O7 0.498470 0.134194 0.886341
O O8 0.374293 0.031811 0.942796
O O9 0.746837 0.114272 0.244112
O O10 0.637453 0.161578 0.429543
O O11 0.886719 0.082994 0.361398
O O12 0.498026 0.068633 0.404134
O O13 0.165919 0.043901 0.406792
O O14 0.500000 0.397447 0.250000
O O15 0.308477 0.439121 0.429655
#
# Coordination Sequence:
#
# PCOD9272211 Si02
#       7
#     8   8   8   8   8   8   8
#     4   8  17  40  66  88 136 170 216 284 331 401
#     4  11  24  43  66  97 137 176 227 278 337 412
#     4  10  20  36  65  96 129 171 230 274 334 415
#     4   9  19  39  63  99 131 170 226 278 344 397
#     4  10  23  44  67 101 134 176 227 279 347 405
#     4  11  23  44  66  93 143 176 219 285 332 404
#     4   9  19  38  61  96 128 173 222 271 337 399
#
# _framework density 23.343302000000001
#
# number of rings (size 3 to 8) (size 9 to 14) (size 15 to 20)
#    0.000    2.286    0.000    2.571    2.000    0.571 
#   18.000    4.286    0.000    0.000    0.000    0.000 
#    0.000    0.000    0.000    0.000    0.000    0.000 
#
# Total GULP energy -156407.694785 kJ/mol
# GULP energy per Si atom -5585.989099 kJ/mol
# Density = 2.329017 g / cm^3
# Si number density = 23.343302 Si / 1000 Ang^3
#
#
#
# Elastic Constant Matrix: (Units=GPa)
#
#
# Indices 1 2 3 4 5 6 
#
# 1 61.6012 32.9135 22.2311 0.0000 -13.8303 0.0000
# 2 32.9135 119.7967 34.3124 0.0000 -0.1505 0.0000
# 3 22.2311 34.3124 162.1261 0.0000 -5.6899 0.0000
# 4 0.0000 0.0000 0.0000 14.5960 0.0000 6.5387
# 5 -13.8303 -0.1505 -5.6899 0.0000 26.8841 0.0000
# 6 0.0000 0.0000 0.0000 6.5387 0.0000 36.7577
#
#
#
# Elastic Compliance Matrix: (Units=1/GPa)
#
#
# Indices 1 2 3 4 5 6 
#
# 1 0.022303 -0.005695 -0.001462 0.000000 0.011132 0.000000
# 2 -0.005695 0.010344 -0.001520 0.000000 -0.003194 0.000000
# 3 -0.001462 -0.001520 0.006713 0.000000 0.000660 0.000000
# 4 0.000000 0.000000 0.000000 0.074445 0.000000 -0.013243
# 5 0.011132 -0.003194 0.000660 0.000000 0.043046 0.000000
# 6 0.000000 0.000000 0.000000 -0.013243 0.000000 0.029561
#
#
# Mechanical properties :
#
#
# Convention : Reuss Voigt Hill
#
# Bulk Modulus (GPa) = 45.44350 58.04868 51.74609
# Shear Modulus (GPa) = 23.68530 32.58536 28.13533
#
# Velocity S-wave (km/s) = 3.18881 3.74025 3.47549
# Velocity P-wave (km/s) = 5.75046 6.60106 6.19039
#
# Compressibility (1/GPa) = 0.02200535
#
# Stress axis : x y z
#
# Youngs Moduli (GPa) = 44.83640 96.67868 148.95414
#
# Poissons Ratio (x) = 0.55057 0.21782
# Poissons Ratio (y) = 0.25534 0.22645
# Poissons Ratio (z) = 0.06556 0.14698
#
# Static dielectric constant tensor:
#      x y z
#    x 1.940030 0.000000 0.022170 
#    y 0.000000 1.937850 0.000000 
#    z 0.022170 0.000000 1.874260 
# 
# From -- ./inp_files/137277.got.cif
#   From: 2010.05.17/outbox.cif.g08.bks.cpg/sg15_69_cif.got.tgz:137277.got - 2010.06.03 18:47:42.
