data_PCOD9272822
_publ_section_title
;
Structure prediction by ZEFSAII (Michael W. Deem and Ramdas Pophale) SiO2 
 PCOD9272822
Probable space group: C 2/C
;
_chemical_formula_sum "Si O2"
_cell_formula_units_Z 56
_cell_length_a 22.682864
_cell_length_b 5.308031
_cell_length_c 19.617536
_cell_angle_alpha 90.000000
_cell_angle_beta 66.362852
_cell_angle_gamma 90.000000
_cell_volume 2163.814806
_symmetry_space_group_name_H-M "C 2/C"
_symmetry_group_IT_number 15
_symmetry_cell_setting 'monoclinic'
loop_
_space_group_symop_operation_xyz
x,y,z
-x,y,1/2-z
-x,-y,-z
x,-y,1/2+z
1/2+x,1/2+y,z
1/2-x,1/2+y,1/2-z
1/2-x,1/2-y,-z
1/2+x,1/2-y,1/2+z
loop_
_atom_site_type_symbol
_atom_site_label
_atom_site_fract_x
_atom_site_fract_y
_atom_site_fract_z
Si Si1 0.564627 0.278077 0.959574
Si Si2 0.141890 0.925032 0.807646
Si Si3 0.543849 0.353700 0.578100
Si Si4 0.733450 0.910556 0.327378
Si Si5 0.311608 0.089931 0.388100
Si Si6 0.169154 0.405392 0.974887
Si Si7 0.894269 0.092644 0.319591
O O1 0.604192 0.480516 0.894255
O O2 0.510056 0.178053 0.932315
O O3 0.618274 0.097277 0.964994
O O4 0.531572 0.394285 0.041354
O O5 0.171450 0.648703 0.810524
O O6 0.095220 0.944166 0.765337
O O7 0.206270 0.059856 0.750702
O O8 0.546515 0.364674 0.657473
O O9 0.619195 0.300180 0.525373
O O10 0.752258 0.677648 0.368615
O O11 0.718905 0.127664 0.389754
O O12 0.296758 0.018886 0.473655
O O13 0.357151 0.340136 0.362887
O O14 0.350925 0.846935 0.343524
#
# Coordination Sequence:
#
# PCOD9272822 Si02
#       7
#     8   8   8   8   8   8   8
#     4  10  21  39  60  89 120 158 216 258 319 371
#     4  10  22  37  59  89 124 164 202 260 312 386
#     4  10  21  38  64  86 118 162 211 267 310 371
#     4  10  21  36  58  89 128 162 211 247 328 373
#     4  10  20  39  61  93 124 168 206 260 306 380
#     4  10  20  37  60  90 120 162 210 261 314 375
#     4  10  21  40  64  88 129 160 216 254 319 369
#
# _framework density 25.880219
#
# number of rings (size 3 to 8) (size 9 to 14) (size 15 to 20)
#    0.000    2.000    1.429    1.714    2.000    0.571 
#    5.143    6.429    0.000    3.429    0.000    0.000 
#    0.000    0.000    0.000    0.000    0.000    0.000 
#
# Total GULP energy -156207.034165 kJ/mol
# GULP energy per Si atom -5578.822649 kJ/mol
# Density = 2.582131 g / cm^3
# Si number density = 25.880219 Si / 1000 Ang^3
#
#
#
# Elastic Constant Matrix: (Units=GPa)
#
#
# Indices 1 2 3 4 5 6 
#
# 1 107.6705 -2.7237 23.8498 0.0038 10.0336 -0.0142
# 2 -2.7237 75.5362 5.6679 -0.0018 -10.7773 -0.0380
# 3 23.8498 5.6679 113.4249 -0.0019 22.8545 -0.0296
# 4 0.0038 -0.0018 -0.0019 17.0300 0.0035 1.7126
# 5 10.0336 -10.7773 22.8545 0.0035 59.9797 -0.0078
# 6 -0.0142 -0.0380 -0.0296 1.7126 -0.0078 27.0806
#
#
#
# Elastic Compliance Matrix: (Units=1/GPa)
#
#
# Indices 1 2 3 4 5 6 
#
# 1 0.009799 0.000376 -0.001909 -0.000003 -0.000844 0.000004
# 2 0.000376 0.013772 -0.001357 -0.000001 0.002929 0.000019
# 3 -0.001909 -0.001357 0.010041 0.000001 -0.003751 0.000007
# 4 -0.000003 -0.000001 0.000001 0.059096 -0.000004 -0.003737
# 5 -0.000844 0.002929 -0.003751 -0.000004 0.018769 0.000005
# 6 0.000004 0.000019 0.000007 -0.003737 0.000005 0.037163
#
#
# Mechanical properties :
#
#
# Convention : Reuss Voigt Hill
#
# Bulk Modulus (GPa) = 35.93074 38.91329 37.42201
# Shear Modulus (GPa) = 30.54408 38.80722 34.67565
#
# Velocity S-wave (km/s) = 3.43914 3.87653 3.66437
# Velocity P-wave (km/s) = 5.44829 5.92497 5.69162
#
# Compressibility (1/GPa) = 0.02783132
#
# Stress axis : x y z
#
# Youngs Moduli (GPa) = 102.05487 72.61104 99.58771
#
# Poissons Ratio (x) = -0.02731 0.19012
# Poissons Ratio (y) = -0.03839 0.13518
# Poissons Ratio (z) = 0.19483 0.09857
#
# Static dielectric constant tensor:
#      x y z
#    x 2.106850 0.000000 -0.042620 
#    y 0.000000 2.099120 -0.000010 
#    z -0.042620 -0.000010 2.084530 
# 
# From -- ./inp_files/254318.got.cif
#   From: 2010.05.17/outbox.cif.g08.bks.cpg/sg15_128_cif.got.tgz:254318.got - 2010.06.03 18:47:42.
