data_PCOD9272597
_publ_section_title
;
Structure prediction by ZEFSAII (Michael W. Deem and Ramdas Pophale) SiO2 
 PCOD9272597
Probable space group: C 2/C
;
_chemical_formula_sum "Si O2"
_cell_formula_units_Z 32
_cell_length_a 14.436613
_cell_length_b 6.390811
_cell_length_c 27.504575
_cell_angle_alpha 90.000000
_cell_angle_beta 27.987249
_cell_angle_gamma 90.000000
_cell_volume 1190.840772
_symmetry_space_group_name_H-M "C 2/C"
_symmetry_group_IT_number 15
_symmetry_cell_setting 'monoclinic'
loop_
_space_group_symop_operation_xyz
x,y,z
-x,y,1/2-z
-x,-y,-z
x,-y,1/2+z
1/2+x,1/2+y,z
1/2-x,1/2+y,1/2-z
1/2-x,1/2-y,-z
1/2+x,1/2-y,1/2+z
loop_
_atom_site_type_symbol
_atom_site_label
_atom_site_fract_x
_atom_site_fract_y
_atom_site_fract_z
Si Si1 0.379643 0.630335 0.999109
Si Si2 0.680779 0.832359 0.200283
Si Si3 0.970496 0.533401 0.891356
Si Si4 0.674354 0.109242 0.889004
O O1 0.241611 0.455707 0.037781
O O2 0.251265 0.743235 0.101691
O O3 0.601828 0.590434 0.915830
O O4 0.442363 0.804408 0.928997
O O5 0.500000 0.889954 0.250000
O O6 0.687002 0.577759 0.194730
O O7 0.628678 0.932544 0.275889
O O8 0.058727 0.675886 0.893796
O O9 0.500000 0.000000 0.000000
#
# Coordination Sequence:
#
# PCOD9272597 Si02
#       4
#     8   8   8   8
#     4   9  20  43  63  88 134 174 208 270 336 380
#     4  10  20  37  58  95 125 159 222 265 313 395
#     4   9  18  39  64  90 126 170 215 262 329 387
#     4   8  18  41  61  88 126 169 213 263 330 387
#
# _framework density 26.871770999999999
#
# number of rings (size 3 to 8) (size 9 to 14) (size 15 to 20)
#    0.000    3.500    0.000    0.000    0.000    1.000 
#   54.000   11.250    0.000    0.000    0.000    0.000 
#    0.000    0.000    0.000    0.000    0.000    0.000 
#
# Total GULP energy -89075.285277 kJ/mol
# GULP energy per Si atom -5567.205330 kJ/mol
# Density = 2.681061 g / cm^3
# Si number density = 26.871771 Si / 1000 Ang^3
#
#
#
# Elastic Constant Matrix: (Units=GPa)
#
#
# Indices 1 2 3 4 5 6 
#
# 1 174.2191 40.9885 75.0308 0.0820 4.0977 0.0301
# 2 40.9885 96.9088 57.2668 0.2926 5.9508 0.3043
# 3 75.0308 57.2668 142.3283 0.0092 9.7101 -0.0002
# 4 0.0820 0.2926 0.0092 41.4524 0.0067 -11.1926
# 5 4.0977 5.9508 9.7101 0.0067 49.6430 0.0100
# 6 0.0301 0.3043 -0.0002 -11.1926 0.0100 43.5222
#
#
#
# Elastic Compliance Matrix: (Units=1/GPa)
#
#
# Indices 1 2 3 4 5 6 
#
# 1 0.007516 -0.001104 -0.003532 -0.000006 0.000203 0.000001
# 2 -0.001104 0.013717 -0.004896 -0.000128 -0.000595 -0.000128
# 3 -0.003532 -0.004896 0.010944 0.000053 -0.001262 0.000051
# 4 -0.000006 -0.000128 0.000053 0.025925 0.000001 0.006668
# 5 0.000203 -0.000595 -0.001262 0.000001 0.020445 -0.000001
# 6 0.000001 -0.000128 0.000051 0.006668 -0.000001 0.024692
#
#
# Mechanical properties :
#
#
# Convention : Reuss Voigt Hill
#
# Bulk Modulus (GPa) = 76.26523 84.44758 80.35641
# Shear Modulus (GPa) = 39.47107 42.93486 41.20297
#
# Velocity S-wave (km/s) = 3.83674 4.00155 3.92001
# Velocity P-wave (km/s) = 6.93327 7.26940 7.10332
#
# Compressibility (1/GPa) = 0.01311214
#
# Stress axis : x y z
#
# Youngs Moduli (GPa) = 133.05086 72.90330 91.37518
#
# Poissons Ratio (x) = 0.08052 0.32270
# Poissons Ratio (y) = 0.14694 0.44739
# Poissons Ratio (z) = 0.46988 0.35695
#
# Static dielectric constant tensor:
#      x y z
#    x 2.244700 0.000070 -0.003940 
#    y 0.000070 2.257510 0.000030 
#    z -0.003940 0.000030 2.103840 
# 
# From -- ./inp_files/272473.got.cif
#   From: 2010.05.17/outbox.cif.g08.bks.cpg/sg15_137_cif.got.tgz:272473.got - 2010.06.03 18:47:42.
