data_PCOD9272739
_publ_section_title
;
Structure prediction by ZEFSAII (Michael W. Deem and Ramdas Pophale) SiO2 
 PCOD9272739
Probable space group: C 2/C
;
_chemical_formula_sum "Si O2"
_cell_formula_units_Z 44
_cell_length_a 20.276411
_cell_length_b 9.945711
_cell_length_c 13.567220
_cell_angle_alpha 90.000000
_cell_angle_beta 132.207368
_cell_angle_gamma 90.000000
_cell_volume 2026.612934
_symmetry_space_group_name_H-M "C 2/C"
_symmetry_group_IT_number 15
_symmetry_cell_setting 'monoclinic'
loop_
_space_group_symop_operation_xyz
x,y,z
-x,y,1/2-z
-x,-y,-z
x,-y,1/2+z
1/2+x,1/2+y,z
1/2-x,1/2+y,1/2-z
1/2-x,1/2-y,-z
1/2+x,1/2-y,1/2+z
loop_
_atom_site_type_symbol
_atom_site_label
_atom_site_fract_x
_atom_site_fract_y
_atom_site_fract_z
Si Si1 0.848007 0.980623 0.302050
Si Si2 0.576516 0.765244 0.141733
Si Si3 0.718773 0.949077 0.331867
Si Si4 0.177874 0.563473 0.011095
Si Si5 0.600907 0.815386 0.626183
Si Si6 0.500000 0.922334 0.250000
O O1 0.812309 0.988408 0.378748
O O2 0.886498 0.834394 0.322916
O O3 0.913422 0.105316 0.348817
O O4 0.758075 0.991738 0.147455
O O5 0.674651 0.826196 0.226917
O O6 0.544829 0.824550 0.214581
O O7 0.504969 0.827674 0.995179
O O8 0.720506 0.905927 0.447135
O O9 0.650101 0.072610 0.241130
O O10 0.082005 0.499806 0.883271
O O11 0.144619 0.670834 0.059922
#
# Coordination Sequence:
#
# PCOD9272739 Si02
#       6
#     8   8   8   8   8   4
#     4  11  22  35  58  90 121 149 184 241 295 338
#     4  10  20  37  60  85 117 154 193 233 282 343
#     4  10  20  37  61  82 111 158 197 234 277 340
#     4   9  20  37  57  82 112 149 196 231 277 340
#     4  10  21  37  57  85 117 150 192 238 287 338
#     4   8  18  36  62  84 108 156 200 232 270 340
#
# _framework density 21.711100999999999
#
# number of rings (size 3 to 8) (size 9 to 14) (size 15 to 20)
#    0.000    2.182    0.000    3.273    0.000   10.182 
#    0.000    0.000    0.000   10.909    0.000    0.000 
#    0.000    0.000    0.000    0.000    0.000    0.000 
#
# Total GULP energy -122552.714115 kJ/mol
# GULP energy per Si atom -5570.577914 kJ/mol
# Density = 2.166169 g / cm^3
# Si number density = 21.711101 Si / 1000 Ang^3
#
#
#
# Elastic Constant Matrix: (Units=GPa)
#
#
# Indices 1 2 3 4 5 6 
#
# 1 59.7659 -0.9485 24.0655 0.0000 -10.1194 0.0000
# 2 -0.9485 98.7534 15.2406 0.0000 -15.8321 0.0000
# 3 24.0655 15.2406 58.6295 0.0000 -4.6658 0.0000
# 4 0.0000 0.0000 0.0000 6.8884 0.0000 8.0684
# 5 -10.1194 -15.8321 -4.6658 0.0000 22.6808 0.0000
# 6 0.0000 0.0000 0.0000 8.0684 0.0000 25.2307
#
#
#
# Elastic Compliance Matrix: (Units=1/GPa)
#
#
# Indices 1 2 3 4 5 6 
#
# 1 0.022216 0.003280 -0.009150 0.000000 0.010319 0.000000
# 2 0.003280 0.012220 -0.003790 0.000000 0.009214 0.000000
# 3 -0.009150 -0.003790 0.021616 0.000000 -0.002281 0.000000
# 4 0.000000 0.000000 0.000000 0.232116 0.000000 -0.074228
# 5 0.010319 0.009214 -0.002281 0.000000 0.054656 0.000000
# 6 0.000000 0.000000 0.000000 -0.074228 0.000000 0.063371
#
#
# Mechanical properties :
#
#
# Convention : Reuss Voigt Hill
#
# Bulk Modulus (GPa) = 27.22476 32.65156 29.93816
# Shear Modulus (GPa) = 11.42182 22.87938 17.15060
#
# Velocity S-wave (km/s) = 2.29614 3.24977 2.81365
# Velocity P-wave (km/s) = 4.42679 5.39936 4.93708
#
# Compressibility (1/GPa) = 0.03673128
#
# Stress axis : x y z
#
# Youngs Moduli (GPa) = 45.01335 81.83507 46.26276
#
# Poissons Ratio (x) = -0.26841 0.42331
# Poissons Ratio (y) = -0.14764 0.17531
# Poissons Ratio (z) = 0.41188 0.31012
#
# Static dielectric constant tensor:
#      x y z
#    x 1.861520 0.000000 0.010930 
#    y 0.000000 1.778000 0.000000 
#    z 0.010930 0.000000 1.841960 
# 
# From -- ./inp_files/172103.got.cif
#   From: 2010.05.17/outbox.cif.g08.bks.cpg/sg15_87_cif.got.tgz:172103.got - 2010.06.03 18:47:42.
