data_PCOD9272810
_publ_section_title
;
Structure prediction by ZEFSAII (Michael W. Deem and Ramdas Pophale) SiO2 
 PCOD9272810
Probable space group: C 2/C
;
_chemical_formula_sum "Si O2"
_cell_formula_units_Z 56
_cell_length_a 23.865085
_cell_length_b 14.048148
_cell_length_c 14.850163
_cell_angle_alpha 90.000000
_cell_angle_beta 150.199221
_cell_angle_gamma 90.000000
_cell_volume 2474.327743
_symmetry_space_group_name_H-M "C 2/C"
_symmetry_group_IT_number 15
_symmetry_cell_setting 'monoclinic'
loop_
_space_group_symop_operation_xyz
x,y,z
-x,y,1/2-z
-x,-y,-z
x,-y,1/2+z
1/2+x,1/2+y,z
1/2-x,1/2+y,1/2-z
1/2-x,1/2-y,-z
1/2+x,1/2-y,1/2+z
loop_
_atom_site_type_symbol
_atom_site_label
_atom_site_fract_x
_atom_site_fract_y
_atom_site_fract_z
Si Si1 0.192076 0.889142 0.076811
Si Si2 0.642993 0.579000 0.255523
Si Si3 0.000000 0.637614 0.250000
Si Si4 0.905247 0.711046 0.800515
Si Si5 0.442003 0.542270 0.552743
Si Si6 0.500000 0.759212 0.250000
Si Si7 0.074249 0.773048 0.199353
Si Si8 0.761009 0.601120 0.881062
O O1 0.312162 0.864255 0.201674
O O2 0.210526 0.892510 0.209857
O O3 0.131765 0.991203 0.973718
O O4 0.102741 0.808537 0.924971
O O5 0.657838 0.686970 0.305039
O O6 0.636944 0.578333 0.138749
O O7 0.727162 0.492966 0.390217
O O8 0.523489 0.540686 0.126583
O O9 0.934288 0.694313 0.236534
O O10 0.105927 0.591589 0.445842
O O11 0.962999 0.684035 0.787042
O O12 0.997513 0.738231 0.006769
O O13 0.517616 0.635002 0.668960
O O14 0.195936 0.809525 0.336027
#
# Coordination Sequence:
#
# PCOD9272810 Si02
#       8
#     8   8   4   8   8   4   8   8
#     4  11  20  35  59  88 123 161 209 263 301 360
#     4   8  15  33  57  80 114 162 196 246 314 352
#     4  12  22  35  63 100 118 162 208 250 329 379
#     4  11  20  36  59  90 125 167 208 261 305 364
#     4   8  15  32  57  83 115 154 202 255 302 353
#     4  12  22  35  57  88 120 164 214 254 309 351
#     4  10  20  37  60  89 127 161 206 261 314 365
#     4  10  20  38  60  87 129 165 203 260 312 373
#
# _framework density 22.632411000000001
#
# number of rings (size 3 to 8) (size 9 to 14) (size 15 to 20)
#    0.000    2.000    4.286    2.571    0.000    0.571 
#    0.000    0.714    0.000    0.000    0.000    6.000 
#    0.000    0.000    0.000    0.000    0.000    0.000 
#
# Total GULP energy -156089.752304 kJ/mol
# GULP energy per Si atom -5574.634011 kJ/mol
# Density = 2.258090 g / cm^3
# Si number density = 22.632411 Si / 1000 Ang^3
#
#
#
# Elastic Constant Matrix: (Units=GPa)
#
#
# Indices 1 2 3 4 5 6 
#
# 1 122.3905 15.2818 29.2109 0.0000 3.3502 0.0000
# 2 15.2818 14.4793 3.2460 0.0000 6.5404 0.0000
# 3 29.2109 3.2460 116.4093 0.0000 18.4809 0.0000
# 4 0.0000 0.0000 0.0000 -5.6839 0.0000 -0.6270
# 5 3.3502 6.5404 18.4809 0.0000 33.2397 0.0000
# 6 0.0000 0.0000 0.0000 -0.6270 0.0000 14.5154
#
#
#
# Elastic Compliance Matrix: (Units=1/GPa)
#
#
# Indices 1 2 3 4 5 6 
#
# 1 0.010145 -0.011323 -0.002656 0.000000 0.002682 0.000000
# 2 -0.011323 0.088448 0.003243 0.000000 -0.018065 0.000000
# 3 -0.002656 0.003243 0.010118 0.000000 -0.005996 0.000000
# 4 0.000000 0.000000 0.000000 -0.175103 0.000000 -0.007564
# 5 0.002682 -0.018065 -0.005996 0.000000 0.036703 0.000000
# 6 0.000000 0.000000 0.000000 -0.007564 0.000000 0.068566
#
#
# Mechanical properties :
#
#
# Convention : Reuss Voigt Hill
#
# Bulk Modulus (GPa) = 11.46273 38.75072 25.10673
# Shear Modulus (GPa) = 55.91070 22.11693 39.01382
#
# Velocity S-wave (km/s) = 4.97569 3.12945 4.15637
# Velocity P-wave (km/s) = 6.17136 5.49699 5.84391
#
# Compressibility (1/GPa) = 0.08723924
#
# Stress axis : x y z
#
# Youngs Moduli (GPa) = 98.57234 11.30609 98.83093
#
# Poissons Ratio (x) = 0.12802 0.26247
# Poissons Ratio (y) = 1.11616 -0.32052
# Poissons Ratio (z) = 0.26178 -0.03667
#
# Static dielectric constant tensor:
#      x y z
#    x 1.870930 0.000000 -0.026780 
#    y 0.000000 1.868980 0.000000 
#    z -0.026780 0.000000 1.905030 
# 
# From -- ./inp_files/169208.got.cif
#   From: 2010.05.17/outbox.cif.g08.bks.cpg/sg15_85_cif.got.tgz:169208.got - 2010.06.03 18:47:42.
