data_PCOD9272382
_publ_section_title
;
Structure prediction by ZEFSAII (Michael W. Deem and Ramdas Pophale) SiO2 
 PCOD9272382
Probable space group: C 2/C
;
_chemical_formula_sum "Si O2"
_cell_formula_units_Z 64
_cell_length_a 14.056918
_cell_length_b 25.374263
_cell_length_c 14.548172
_cell_angle_alpha 90.000000
_cell_angle_beta 140.987329
_cell_angle_gamma 90.000000
_cell_volume 3266.497706
_symmetry_space_group_name_H-M "C 2/C"
_symmetry_group_IT_number 15
_symmetry_cell_setting 'monoclinic'
loop_
_space_group_symop_operation_xyz
x,y,z
-x,y,1/2-z
-x,-y,-z
x,-y,1/2+z
1/2+x,1/2+y,z
1/2-x,1/2+y,1/2-z
1/2-x,1/2-y,-z
1/2+x,1/2-y,1/2+z
loop_
_atom_site_type_symbol
_atom_site_label
_atom_site_fract_x
_atom_site_fract_y
_atom_site_fract_z
Si Si1 0.871273 0.446223 0.518734
Si Si2 0.083362 0.702088 0.909710
Si Si3 0.416721 0.586552 0.592599
Si Si4 0.439315 0.956730 0.301896
Si Si5 0.671949 0.488348 0.205296
Si Si6 0.952539 0.625741 0.468410
Si Si7 0.396431 0.322700 0.582696
Si Si8 0.373064 0.612549 0.362469
O O1 0.743892 0.436750 0.498164
O O2 0.790360 0.478849 0.376584
O O3 0.008923 0.482609 0.652046
O O4 0.934685 0.391188 0.528107
O O5 0.118327 0.762365 0.963986
O O6 0.000000 0.704235 0.750000
O O7 0.002036 0.674962 0.934339
O O8 0.229841 0.666482 0.996237
O O9 0.500000 0.605527 0.750000
O O10 0.525518 0.541645 0.632356
O O11 0.387441 0.623388 0.482436
O O12 0.500000 0.936858 0.250000
O O13 0.524144 0.922869 0.443277
O O14 0.259729 0.959139 0.187211
O O15 0.637533 0.549260 0.161445
O O16 0.784278 0.632454 0.301233
O O17 0.500000 0.321799 0.750000
O O18 0.481721 0.361290 0.577381
#
# Coordination Sequence:
#
# PCOD9272382 Si02
#       8
#     8   8   8   8   8   8   8   8
#     4  10  20  37  54  81 120 162 195 250 289 352
#     4  10  22  41  60  90 124 159 191 251 310 378
#     4  10  24  37  54  81 119 161 199 240 302 348
#     4  11  20  33  55  83 123 160 195 243 294 356
#     4  10  20  38  53  82 121 155 204 246 288 354
#     4  11  21  35  59  86 115 155 206 240 295 361
#     4  10  22  39  63  92 125 150 198 251 316 361
#     4  12  21  37  62  87 113 156 202 252 290 360
#
# _framework density 19.592849999999999
#
# number of rings (size 3 to 8) (size 9 to 14) (size 15 to 20)
#    0.000    1.500    3.750    2.250    0.000    6.500 
#    0.000    0.000    0.000    0.750    0.000    0.000 
#    0.000    0.000    0.000    0.000    0.000    0.000 
#
# Total GULP energy -178386.524867 kJ/mol
# GULP energy per Si atom -5574.578902 kJ/mol
# Density = 1.954826 g / cm^3
# Si number density = 19.592850 Si / 1000 Ang^3
#
#
#
# Elastic Constant Matrix: (Units=GPa)
#
#
# Indices 1 2 3 4 5 6 
#
# 1 131.1533 28.7995 27.6126 0.0000 5.5709 0.0000
# 2 28.7995 50.3355 11.6712 0.0000 -0.7862 0.0000
# 3 27.6126 11.6712 67.8001 0.0000 -5.5862 0.0000
# 4 0.0000 0.0000 0.0000 338.7208 0.0000 -299.4181
# 5 5.5709 -0.7862 -5.5862 0.0000 32.2127 0.0000
# 6 0.0000 0.0000 0.0000 -299.4181 0.0000 308.5073
#
#
#
# Elastic Compliance Matrix: (Units=1/GPa)
#
#
# Indices 1 2 3 4 5 6 
#
# 1 0.009430 -0.004684 -0.003224 0.000000 -0.002304 0.000000
# 2 -0.004684 0.023019 -0.001970 0.000000 0.001030 0.000000
# 3 -0.003224 -0.001970 0.016682 0.000000 0.003402 0.000000
# 4 0.000000 0.000000 0.000000 0.020780 0.000000 0.020167
# 5 -0.002304 0.001030 0.003402 0.000000 0.032057 0.000000
# 6 0.000000 0.000000 0.000000 0.020167 0.000000 0.022815
#
#
# Mechanical properties :
#
#
# Convention : Reuss Voigt Hill
#
# Bulk Modulus (GPa) = 34.04246 42.82841 38.43544
# Shear Modulus (GPa) = 32.39810 147.96854 90.18332
#
# Velocity S-wave (km/s) = 4.07082 8.69975 6.79180
# Velocity P-wave (km/s) = 6.28555 11.08246 9.00913
#
# Compressibility (1/GPa) = 0.02937508
#
# Stress axis : x y z
#
# Youngs Moduli (GPa) = 106.04693 43.44166 59.94571
#
# Poissons Ratio (x) = 0.20347 0.19327
# Poissons Ratio (y) = 0.49669 0.11811
# Poissons Ratio (z) = 0.34190 0.08559
#
# Static dielectric constant tensor:
#      x y z
#    x 1.732810 0.000000 -0.010040 
#    y 0.000000 1.679060 0.000000 
#    z -0.010040 0.000000 1.757330 
# 
# From -- ./inp_files/157102.got.cif
#   From: 2010.05.17/outbox.cif.g08.bks.cpg/sg15_79_cif.got.tgz:157102.got - 2010.06.03 18:47:42.
