data_PCOD9272691
_publ_section_title
;
Structure prediction by ZEFSAII (Michael W. Deem and Ramdas Pophale) SiO2 
 PCOD9272691
Probable space group: C 2/C
;
_chemical_formula_sum "Si O2"
_cell_formula_units_Z 40
_cell_length_a 22.309581
_cell_length_b 8.181593
_cell_length_c 9.515689
_cell_angle_alpha 90.000000
_cell_angle_beta 95.716842
_cell_angle_gamma 90.000000
_cell_volume 1728.240183
_symmetry_space_group_name_H-M "C 2/C"
_symmetry_group_IT_number 15
_symmetry_cell_setting 'monoclinic'
loop_
_space_group_symop_operation_xyz
x,y,z
-x,y,1/2-z
-x,-y,-z
x,-y,1/2+z
1/2+x,1/2+y,z
1/2-x,1/2+y,1/2-z
1/2-x,1/2-y,-z
1/2+x,1/2-y,1/2+z
loop_
_atom_site_type_symbol
_atom_site_label
_atom_site_fract_x
_atom_site_fract_y
_atom_site_fract_z
Si Si1 0.221812 0.931364 0.268948
Si Si2 0.147951 0.493296 0.102743
Si Si3 0.670132 0.325041 0.964298
Si Si4 0.458457 0.468196 0.622654
Si Si5 0.884866 0.713048 0.156598
O O1 0.181704 0.792814 0.337282
O O2 0.292301 0.918457 0.313852
O O3 0.200895 0.102063 0.333515
O O4 0.200603 0.917664 0.103471
O O5 0.110168 0.582091 0.216619
O O6 0.171993 0.635496 0.003453
O O7 0.113050 0.367217 0.996230
O O8 0.599970 0.368104 0.935926
O O9 0.500000 0.386863 0.750000
O O10 0.500000 0.500000 0.500000
O O11 0.431483 0.638216 0.677514
#
# Coordination Sequence:
#
# PCOD9272691 Si02
#       5
#     8   8   8   8   8
#     4  10  20  37  59  91 133 169 196 237 304 379
#     4  11  21  38  60  94 133 160 197 255 301 364
#     4  10  22  37  60  93 119 162 214 247 300 374
#     4  11  23  45  67  86 119 164 213 265 311 363
#     4  10  24  39  60  94 126 165 210 246 303 372
#
# _framework density 23.144931
#
# number of rings (size 3 to 8) (size 9 to 14) (size 15 to 20)
#    0.000    1.600    0.000    6.000    0.000   11.200 
#    0.000    5.000    0.000    0.000    0.000    0.000 
#    0.000    0.000    0.000    0.000    0.000    0.000 
#
# Total GULP energy -111981.602433 kJ/mol
# GULP energy per Si atom -5599.080122 kJ/mol
# Density = 2.309225 g / cm^3
# Si number density = 23.144931 Si / 1000 Ang^3
#
#
#
# Elastic Constant Matrix: (Units=GPa)
#
#
# Indices 1 2 3 4 5 6 
#
# 1 66.2058 2.6484 21.3862 0.0000 8.5048 0.0000
# 2 2.6484 65.9794 29.9608 0.0000 12.6544 0.0000
# 3 21.3862 29.9608 94.9861 0.0000 16.3581 0.0000
# 4 0.0000 0.0000 0.0000 45.2778 0.0000 -2.2142
# 5 8.5048 12.6544 16.3581 0.0000 36.7929 0.0000
# 6 0.0000 0.0000 0.0000 -2.2142 0.0000 11.7375
#
#
#
# Elastic Compliance Matrix: (Units=1/GPa)
#
#
# Indices 1 2 3 4 5 6 
#
# 1 0.016606 0.001562 -0.003766 0.000000 -0.002701 0.000000
# 2 0.001562 0.018370 -0.005410 0.000000 -0.004274 0.000000
# 3 -0.003766 -0.005410 0.013658 0.000000 -0.003341 0.000000
# 4 0.000000 0.000000 0.000000 0.022292 0.000000 0.004205
# 5 -0.002701 -0.004274 -0.003341 0.000000 0.030759 0.000000
# 6 0.000000 0.000000 0.000000 0.004205 0.000000 0.085990
#
#
# Mechanical properties :
#
#
# Convention : Reuss Voigt Hill
#
# Bulk Modulus (GPa) = 29.93630 37.24025 33.58828
# Shear Modulus (GPa) = 23.36043 30.30669 26.83356
#
# Velocity S-wave (km/s) = 3.18041 3.62253 3.40865
# Velocity P-wave (km/s) = 5.14286 5.79844 5.48046
#
# Compressibility (1/GPa) = 0.03340426
#
# Stress axis : x y z
#
# Youngs Moduli (GPa) = 60.22097 54.43704 73.21945
#
# Poissons Ratio (x) = -0.08501 0.27576
# Poissons Ratio (y) = -0.09405 0.39611
# Poissons Ratio (z) = 0.22680 0.29450
#
# Static dielectric constant tensor:
#      x y z
#    x 1.875860 0.000000 0.071820 
#    y 0.000000 1.888750 0.000000 
#    z 0.071820 0.000000 2.048830 
# 
# From -- ./inp_files/59940.got.cif
#   From: 2010.05.17/outbox.cif.g08.bks.cpg/sg15_30_cif.got.tgz:59940.got - 2010.06.03 18:47:42.
