data_PCOD9272156
_publ_section_title
;
Structure prediction by ZEFSAII (Michael W. Deem and Ramdas Pophale) SiO2 
 PCOD9272156
Probable space group: C 2/C
;
_chemical_formula_sum "Si O2"
_cell_formula_units_Z 64
_cell_length_a 28.810891
_cell_length_b 9.915585
_cell_length_c 9.585998
_cell_angle_alpha 90.000000
_cell_angle_beta 86.911536
_cell_angle_gamma 90.000000
_cell_volume 2734.520041
_symmetry_space_group_name_H-M "C 2/C"
_symmetry_group_IT_number 15
_symmetry_cell_setting 'monoclinic'
loop_
_space_group_symop_operation_xyz
x,y,z
-x,y,1/2-z
-x,-y,-z
x,-y,1/2+z
1/2+x,1/2+y,z
1/2-x,1/2+y,1/2-z
1/2-x,1/2-y,-z
1/2+x,1/2-y,1/2+z
loop_
_atom_site_type_symbol
_atom_site_label
_atom_site_fract_x
_atom_site_fract_y
_atom_site_fract_z
Si Si1 0.826707 0.586866 0.437810
Si Si2 0.870661 0.171122 0.059465
Si Si3 0.051597 0.826153 0.753919
Si Si4 0.624422 0.634769 0.007976
Si Si5 0.453888 0.014257 0.828623
Si Si6 0.232010 0.542985 0.789677
Si Si7 0.903110 0.414873 0.589687
Si Si8 0.798562 0.198724 0.311959
O O1 0.851668 0.733737 0.439164
O O2 0.782372 0.583700 0.550807
O O3 0.807745 0.536196 0.292755
O O4 0.860694 0.483193 0.513450
O O5 0.924391 0.183779 0.098172
O O6 0.839034 0.225054 0.191892
O O7 0.863972 0.011872 0.050698
O O8 0.089009 0.892712 0.643592
O O9 0.047405 0.673037 0.703304
O O10 0.000000 0.886989 0.750000
O O11 0.600121 0.753467 0.924248
O O12 0.673026 0.697148 0.050968
O O13 0.500000 0.954907 0.750000
O O14 0.445349 0.014180 0.994868
O O15 0.411221 0.953440 0.747601
O O16 0.237774 0.681415 0.702970
O O17 0.275237 0.444089 0.789764
#
# Coordination Sequence:
#
# PCOD9272156 Si02
#       8
#     8   8   8   8   8   8   8   8
#     4  11  23  42  65  90 126 169 208 253 317 373
#     4  10  22  41  62  88 124 169 208 251 315 380
#     4   9  19  39  62  87 124 167 205 258 320 369
#     4  10  22  40  61  88 128 163 207 262 313 368
#     4  10  20  36  64  95 124 164 211 263 313 372
#     4  11  25  41  65  93 125 168 209 263 310 376
#     4  11  20  40  63  88 129 162 208 259 314 372
#     4  10  24  42  61  91 128 159 207 264 318 366
#
# _framework density 23.404471999999998
#
# number of rings (size 3 to 8) (size 9 to 14) (size 15 to 20)
#    0.000    1.750    2.500    1.125    3.500    3.000 
#    6.750    0.625    0.000    0.000    0.000    0.000 
#    0.000    0.000    0.000    0.000    0.000    0.000 
#
# Total GULP energy -178582.710248 kJ/mol
# GULP energy per Si atom -5580.709695 kJ/mol
# Density = 2.335120 g / cm^3
# Si number density = 23.404472 Si / 1000 Ang^3
#
#
#
# Elastic Constant Matrix: (Units=GPa)
#
#
# Indices 1 2 3 4 5 6 
#
# 1 69.5803 8.1133 10.3899 0.0000 1.7276 0.0000
# 2 8.1133 78.4392 8.4005 0.0000 -0.3068 0.0000
# 3 10.3899 8.4005 79.1536 0.0000 4.9271 0.0000
# 4 0.0000 0.0000 0.0000 23.4602 0.0000 -1.3363
# 5 1.7276 -0.3068 4.9271 0.0000 13.8486 0.0000
# 6 0.0000 0.0000 0.0000 -1.3363 0.0000 25.5415
#
#
#
# Elastic Compliance Matrix: (Units=1/GPa)
#
#
# Indices 1 2 3 4 5 6 
#
# 1 0.014818 -0.001353 -0.001723 0.000000 -0.001266 0.000000
# 2 -0.001353 0.013027 -0.001261 0.000000 0.000906 0.000000
# 3 -0.001723 -0.001261 0.013276 0.000000 -0.004536 0.000000
# 4 0.000000 0.000000 0.000000 0.042753 0.000000 0.002237
# 5 -0.001266 0.000906 -0.004536 0.000000 0.074001 0.000000
# 6 0.000000 0.000000 0.000000 0.002237 0.000000 0.039269
#
#
# Mechanical properties :
#
#
# Convention : Reuss Voigt Hill
#
# Bulk Modulus (GPa) = 30.81929 31.22007 31.01968
# Shear Modulus (GPa) = 23.08028 25.92136 24.50082
#
# Velocity S-wave (km/s) = 3.14371 3.33158 3.23901
# Velocity P-wave (km/s) = 5.13555 5.30731 5.22214
#
# Compressibility (1/GPa) = 0.03244721
#
# Stress axis : x y z
#
# Youngs Moduli (GPa) = 67.48396 76.76175 75.32371
#
# Poissons Ratio (x) = 0.10387 0.12976
# Poissons Ratio (y) = 0.09132 0.09501
# Poissons Ratio (z) = 0.11625 0.09682
#
# Static dielectric constant tensor:
#      x y z
#    x 2.002650 0.000000 -0.080680 
#    y 0.000000 1.851630 0.000000 
#    z -0.080680 0.000000 1.942460 
# 
# From -- ./inp_files/125926.got.cif
#   From: 2010.05.17/outbox.cif.g08.bks.cpg/sg15_63_cif.got.tgz:125926.got - 2010.06.03 18:47:42.
