data_PCOD9272888
_publ_section_title
;
Structure prediction by ZEFSAII (Michael W. Deem and Ramdas Pophale) SiO2 
 PCOD9272888
Probable space group: C 2/C
;
_chemical_formula_sum "Si O2"
_cell_formula_units_Z 24
_cell_length_a 8.551964
_cell_length_b 14.701019
_cell_length_c 7.754622
_cell_angle_alpha 90.000000
_cell_angle_beta 65.136397
_cell_angle_gamma 90.000000
_cell_volume 884.566020
_symmetry_space_group_name_H-M "C 2/C"
_symmetry_group_IT_number 15
_symmetry_cell_setting 'monoclinic'
loop_
_space_group_symop_operation_xyz
x,y,z
-x,y,1/2-z
-x,-y,-z
x,-y,1/2+z
1/2+x,1/2+y,z
1/2-x,1/2+y,1/2-z
1/2-x,1/2-y,-z
1/2+x,1/2-y,1/2+z
loop_
_atom_site_type_symbol
_atom_site_label
_atom_site_fract_x
_atom_site_fract_y
_atom_site_fract_z
Si Si1 0.376470 0.802528 0.637686
Si Si2 0.818005 0.050777 0.078198
Si Si3 0.684323 0.876217 0.279439
O O1 0.500000 0.798027 0.750000
O O2 0.224851 0.872793 0.759343
O O3 0.502142 0.837878 0.430525
O O4 0.297567 0.703702 0.644128
O O5 0.685497 0.969107 0.173408
O O6 0.783951 0.096037 0.910366
O O7 0.000000 0.000000 0.000000
#
# Coordination Sequence:
#
# PCOD9272888 Si02
#       3
#     8   8   8
#     4  10  20  37  61  87 115 158 200 235 286 360
#     4  11  21  36  59  90 120 155 196 244 292 347
#     4  11  22  39  63  89 118 155 199 243 291 349
#
# _framework density 27.131951999999998
#
# number of rings (size 3 to 8) (size 9 to 14) (size 15 to 20)
#    0.000    1.333    0.000   10.000    0.000    0.000 
#    0.000    1.667    0.000   20.000    0.000    0.000 
#    0.000    0.000    0.000    0.000    0.000    0.000 
#
# Total GULP energy -67443.141300 kJ/mol
# GULP energy per Si atom -5620.261775 kJ/mol
# Density = 2.707020 g / cm^3
# Si number density = 27.131952 Si / 1000 Ang^3
#
#
#
# Elastic Constant Matrix: (Units=GPa)
#
#
# Indices 1 2 3 4 5 6 
#
# 1 149.4970 39.0995 20.3480 0.0000 -24.3206 0.0000
# 2 39.0995 199.1680 45.2082 0.0000 -21.0090 0.0000
# 3 20.3480 45.2082 121.0380 0.0000 -14.2872 0.0000
# 4 0.0000 0.0000 0.0000 68.0626 0.0000 -16.8296
# 5 -24.3206 -21.0090 -14.2872 0.0000 34.4869 0.0000
# 6 0.0000 0.0000 0.0000 -16.8296 0.0000 64.3647
#
#
#
# Elastic Compliance Matrix: (Units=1/GPa)
#
#
# Indices 1 2 3 4 5 6 
#
# 1 0.007758 -0.000933 -0.000396 0.000000 0.004738 0.000000
# 2 -0.000933 0.005833 -0.001766 0.000000 0.002164 0.000000
# 3 -0.000396 -0.001766 0.009282 0.000000 0.002490 0.000000
# 4 0.000000 0.000000 0.000000 0.015708 0.000000 0.004107
# 5 0.004738 0.002164 0.002490 0.000000 0.034688 0.000000
# 6 0.000000 0.000000 0.000000 0.004107 0.000000 0.016610
#
#
# Mechanical properties :
#
#
# Convention : Reuss Voigt Hill
#
# Bulk Modulus (GPa) = 59.94723 75.44606 67.69664
# Shear Modulus (GPa) = 49.19720 57.71933 53.45827
#
# Velocity S-wave (km/s) = 4.26286 4.61733 4.44363
# Velocity P-wave (km/s) = 6.80969 7.50292 7.16469
#
# Compressibility (1/GPa) = 0.01668134
#
# Stress axis : x y z
#
# Youngs Moduli (GPa) = 128.89986 171.43010 107.73335
#
# Poissons Ratio (x) = 0.15998 0.04270
# Poissons Ratio (y) = 0.12029 0.19031
# Poissons Ratio (z) = 0.05109 0.30283
#
# Static dielectric constant tensor:
#      x y z
#    x 2.193830 0.000000 0.075950 
#    y 0.000000 1.998620 0.000000 
#    z 0.075950 0.000000 2.128740 
# 
# From -- ./inp_files/21100.got.cif
#   From: 2010.05.17/outbox.cif.g08.bks.cpg/sg15_11_cif.got.tgz:21100.got - 2010.06.03 18:47:42.
