data_PCOD9272025
_publ_section_title
;
Structure prediction by ZEFSAII (Michael W. Deem and Ramdas Pophale) SiO2 
 PCOD9272025
Probable space group: C 2/C
;
_chemical_formula_sum "Si O2"
_cell_formula_units_Z 60
_cell_length_a 13.391218
_cell_length_b 23.024030
_cell_length_c 16.490492
_cell_angle_alpha 90.000000
_cell_angle_beta 147.975744
_cell_angle_gamma 90.000000
_cell_volume 2696.117642
_symmetry_space_group_name_H-M "C 2/C"
_symmetry_group_IT_number 15
_symmetry_cell_setting 'monoclinic'
loop_
_space_group_symop_operation_xyz
x,y,z
-x,y,1/2-z
-x,-y,-z
x,-y,1/2+z
1/2+x,1/2+y,z
1/2-x,1/2+y,1/2-z
1/2-x,1/2-y,-z
1/2+x,1/2-y,1/2+z
loop_
_atom_site_type_symbol
_atom_site_label
_atom_site_fract_x
_atom_site_fract_y
_atom_site_fract_z
Si Si1 0.790137 0.546845 0.148866
Si Si2 0.829699 0.998644 0.591368
Si Si3 0.000000 0.785748 0.750000
Si Si4 0.776864 0.385125 0.386643
Si Si5 0.587092 0.835415 0.722516
Si Si6 0.714654 0.713060 0.741483
Si Si7 0.405849 0.724536 0.013975
Si Si8 0.552213 0.036213 0.616241
O O1 0.763773 0.612625 0.159553
O O2 0.807342 0.502233 0.234126
O O3 0.000000 0.548489 0.250000
O O4 0.650102 0.522420 0.985211
O O5 0.806119 0.057019 0.630159
O O6 0.000000 0.965566 0.750000
O O7 0.641286 0.960638 0.467400
O O8 0.806637 0.748829 0.621903
O O9 0.972209 0.811768 0.639504
O O10 0.658616 0.330240 0.275657
O O11 0.866444 0.405122 0.362646
O O12 0.930201 0.363867 0.556498
O O13 0.500000 0.820474 0.750000
O O14 0.656040 0.778032 0.726379
O O15 0.611766 0.696250 0.587059
O O16 0.941116 0.722890 0.887272
O O17 0.500000 0.000000 0.500000
#
# Coordination Sequence:
#
# PCOD9272025 Si02
#       8
#     8   8   4   8   8   8   8   8
#     4   9  16  35  62  85 116 160 201 237 312 372
#     4  10  20  36  63  90 122 149 200 259 309 367
#     4   8  16  34  64  72  98 144 212 244 326 338
#     4  11  21  38  59  89 120 173 199 249 311 371
#     4  11  20  37  59  87 124 180 206 242 303 372
#     4  11  22  34  57  88 130 160 215 250 288 375
#     4   9  18  35  57  83 104 156 199 259 293 357
#     4   9  17  35  65  81 107 160 204 244 309 371
#
# _framework density 22.254221000000001
#
# number of rings (size 3 to 8) (size 9 to 14) (size 15 to 20)
#    0.000    2.133    6.667    0.000    0.000    2.133 
#    0.000    2.667   30.800    0.000    0.000    0.000 
#    0.000    0.000    0.000    0.000    0.000    0.000 
#
# Total GULP energy -167134.672088 kJ/mol
# GULP energy per Si atom -5571.155736 kJ/mol
# Density = 2.220357 g / cm^3
# Si number density = 22.254221 Si / 1000 Ang^3
#
#
#
# Elastic Constant Matrix: (Units=GPa)
#
#
# Indices 1 2 3 4 5 6 
#
# 1 71.2208 26.0511 42.4606 0.0001 -26.9032 0.0000
# 2 26.0511 35.0182 11.3114 0.0000 -2.5207 0.0000
# 3 42.4606 11.3114 114.5763 0.0009 -33.1606 0.0003
# 4 0.0001 0.0000 0.0009 2.3991 0.0005 -10.3575
# 5 -26.9032 -2.5207 -33.1606 0.0005 47.9917 0.0002
# 6 0.0000 0.0000 0.0003 -10.3575 0.0002 7.5446
#
#
#
# Elastic Compliance Matrix: (Units=1/GPa)
#
#
# Indices 1 2 3 4 5 6 
#
# 1 0.028209 -0.018435 -0.005422 0.000001 0.011099 0.000001
# 2 -0.018435 0.041558 0.000462 -0.000001 -0.007832 -0.000001
# 3 -0.005422 0.000462 0.012273 0.000002 0.005465 0.000002
# 4 0.000001 -0.000001 0.000002 -0.084601 0.000003 -0.116145
# 5 0.011099 -0.007832 0.005465 0.000003 0.030424 0.000003
# 6 0.000001 -0.000001 0.000002 -0.116145 0.000003 -0.026902
#
#
# Mechanical properties :
#
#
# Convention : Reuss Voigt Hill
#
# Bulk Modulus (GPa) = 28.36808 42.27352 35.32080
# Shear Modulus (GPa) = 84.03440 20.98655 52.51048
#
# Velocity S-wave (km/s) = 6.15167 3.07422 4.86281
# Velocity P-wave (km/s) = 7.95188 5.62477 6.88732
#
# Compressibility (1/GPa) = 0.03525089
#
# Stress axis : x y z
#
# Youngs Moduli (GPa) = 35.44975 24.06272 81.47887
#
# Poissons Ratio (x) = 0.44360 0.44175
# Poissons Ratio (y) = 0.65353 -0.03767
# Poissons Ratio (z) = 0.19220 -0.01112
#
# Static dielectric constant tensor:
#      x y z
#    x 1.886400 0.000000 0.113420 
#    y 0.000000 1.800160 0.000000 
#    z 0.113420 0.000000 1.793150 
# 
# From -- ./inp_files/207241.got.cif
#   From: 2010.05.17/outbox.cif.g08.bks.cpg/sg15_104_cif.got.tgz:207241.got - 2010.06.03 18:47:42.
