data_PCOD9272577
_publ_section_title
;
Structure prediction by ZEFSAII (Michael W. Deem and Ramdas Pophale) SiO2 
 PCOD9272577
Probable space group: C 2/C
;
_chemical_formula_sum "Si O2"
_cell_formula_units_Z 52
_cell_length_a 19.298695
_cell_length_b 15.372964
_cell_length_c 10.195675
_cell_angle_alpha 90.000000
_cell_angle_beta 133.393412
_cell_angle_gamma 90.000000
_cell_volume 2198.006674
_symmetry_space_group_name_H-M "C 2/C"
_symmetry_group_IT_number 15
_symmetry_cell_setting 'monoclinic'
loop_
_space_group_symop_operation_xyz
x,y,z
-x,y,1/2-z
-x,-y,-z
x,-y,1/2+z
1/2+x,1/2+y,z
1/2-x,1/2+y,1/2-z
1/2-x,1/2-y,-z
1/2+x,1/2-y,1/2+z
loop_
_atom_site_type_symbol
_atom_site_label
_atom_site_fract_x
_atom_site_fract_y
_atom_site_fract_z
Si Si1 0.500000 0.522164 0.750000
Si Si2 0.041217 0.834149 0.091448
Si Si3 0.500000 0.293787 0.750000
Si Si4 0.864472 0.355998 0.120658
Si Si5 0.788860 0.961565 0.471886
Si Si6 0.000000 0.502959 0.250000
Si Si7 0.751904 0.601913 0.866454
Si Si8 0.052016 0.654442 0.480028
O O1 0.495826 0.585476 0.870592
O O2 0.402037 0.469438 0.619136
O O3 0.155860 0.840856 0.239132
O O4 0.005279 0.743393 0.103984
O O5 0.998242 0.838203 0.889379
O O6 0.593986 0.231113 0.887441
O O7 0.914297 0.355796 0.327634
O O8 0.911378 0.439250 0.111481
O O9 0.754972 0.377862 0.008399
O O10 0.756251 0.955753 0.278213
O O11 0.752517 0.044199 0.507958
O O12 0.992588 0.570000 0.360214
O O13 0.850765 0.652989 0.978968
#
# Coordination Sequence:
#
# PCOD9272577 Si02
#       8
#     4   8   4   8   8   4   8   8
#     4  10  23  41  61  87 124 158 202 240 292 359
#     4  10  22  42  59  87 124 162 195 239 297 363
#     4   9  20  39  65  88 119 154 200 246 299 352
#     4   9  19  36  59  91 120 146 201 250 297 347
#     4  10  21  41  61  90 119 155 202 252 292 344
#     4  11  17  32  62  87 115 158 188 254 299 345
#     4  10  22  41  63  88 122 153 202 248 295 352
#     4  10  20  37  58  88 122 155 197 239 302 359
#
# _framework density 23.657800999999999
#
# number of rings (size 3 to 8) (size 9 to 14) (size 15 to 20)
#    0.000    2.154    1.538    0.923    0.000    4.308 
#    2.769   10.769    0.000    0.000    0.000    0.000 
#    0.000    0.000    0.000    0.000    0.000    0.000 
#
# Total GULP energy -145349.698726 kJ/mol
# GULP energy per Si atom -5590.373028 kJ/mol
# Density = 2.360395 g / cm^3
# Si number density = 23.657801 Si / 1000 Ang^3
#
#
#
# Elastic Constant Matrix: (Units=GPa)
#
#
# Indices 1 2 3 4 5 6 
#
# 1 154.5959 61.0447 52.8469 0.0000 9.6653 0.0000
# 2 61.0447 91.8148 52.9327 0.0000 3.3434 0.0000
# 3 52.8469 52.9327 93.0381 0.0000 -5.4613 0.0000
# 4 0.0000 0.0000 0.0000 31.6522 0.0000 0.2451
# 5 9.6653 3.3434 -5.4613 0.0000 36.1380 0.0000
# 6 0.0000 0.0000 0.0000 0.2451 0.0000 33.9356
#
#
#
# Elastic Compliance Matrix: (Units=1/GPa)
#
#
# Indices 1 2 3 4 5 6 
#
# 1 0.009395 -0.004451 -0.002954 0.000000 -0.002547 0.000000
# 2 -0.004451 0.018627 -0.008173 0.000000 -0.001768 0.000000
# 3 -0.002954 -0.008173 0.017321 0.000000 0.004164 0.000000
# 4 0.000000 0.000000 0.000000 0.031595 0.000000 -0.000228
# 5 -0.002547 -0.001768 0.004164 0.000000 0.029146 0.000000
# 6 0.000000 0.000000 0.000000 -0.000228 0.000000 0.029469
#
#
# Mechanical properties :
#
#
# Convention : Reuss Voigt Hill
#
# Bulk Modulus (GPa) = 70.48757 74.78859 72.63808
# Shear Modulus (GPa) = 29.16519 31.85348 30.50933
#
# Velocity S-wave (km/s) = 3.51493 3.67335 3.59501
# Velocity P-wave (km/s) = 6.80678 7.04788 6.92838
#
# Compressibility (1/GPa) = 0.01418690
#
# Stress axis : x y z
#
# Youngs Moduli (GPa) = 106.44095 53.68538 57.73475
#
# Poissons Ratio (x) = 0.23894 0.17054
# Poissons Ratio (y) = 0.47374 0.47189
# Poissons Ratio (z) = 0.31440 0.43879
#
# Static dielectric constant tensor:
#      x y z
#    x 1.961650 0.000000 0.006540 
#    y 0.000000 1.945470 0.000000 
#    z 0.006540 0.000000 1.868420 
# 
# From -- ./inp_files/57106.got.cif
#   From: 2010.05.17/outbox.cif.g08.bks.cpg/sg15_29_cif.got.tgz:57106.got - 2010.06.03 18:47:42.
