data_PCOD9272939
_publ_section_title
;
Structure prediction by ZEFSAII (Michael W. Deem and Ramdas Pophale) SiO2 
 PCOD9272939
Probable space group: C 2/C
;
_chemical_formula_sum "Si O2"
_cell_formula_units_Z 48
_cell_length_a 11.073869
_cell_length_b 22.553496
_cell_length_c 14.967111
_cell_angle_alpha 90.000000
_cell_angle_beta 136.790529
_cell_angle_gamma 90.000000
_cell_volume 2559.357806
_symmetry_space_group_name_H-M "C 2/C"
_symmetry_group_IT_number 15
_symmetry_cell_setting 'monoclinic'
loop_
_space_group_symop_operation_xyz
x,y,z
-x,y,1/2-z
-x,-y,-z
x,-y,1/2+z
1/2+x,1/2+y,z
1/2-x,1/2+y,1/2-z
1/2-x,1/2-y,-z
1/2+x,1/2-y,1/2+z
loop_
_atom_site_type_symbol
_atom_site_label
_atom_site_fract_x
_atom_site_fract_y
_atom_site_fract_z
Si Si1 0.041224 0.747638 0.876439
Si Si2 0.686812 0.934820 0.821480
Si Si3 0.849892 0.017319 0.053547
Si Si4 0.249705 0.487892 0.196324
Si Si5 0.377465 0.874964 0.270222
Si Si6 0.528785 0.635202 0.470994
O O1 0.975804 0.803651 0.896493
O O2 0.000000 0.755055 0.750000
O O3 0.964751 0.683352 0.860476
O O4 0.250000 0.750000 0.000000
O O5 0.500000 0.909879 0.750000
O O6 0.853599 0.892303 0.918652
O O7 0.673577 0.958395 0.713571
O O8 0.739432 0.991017 0.911901
O O9 0.896086 0.086063 0.059193
O O10 0.751901 0.003327 0.093138
O O11 0.042320 0.985872 0.163207
O O12 0.152932 0.428687 0.177688
O O13 0.500000 0.890734 0.250000
O O14 0.187273 0.857588 0.126582
#
# Coordination Sequence:
#
# PCOD9272939 Si02
#       6
#     8   8   8   8   8   8
#     4  11  23  39  63  94 119 164 216 263 316 366
#     4  11  22  38  58  88 128 164 199 257 319 377
#     4  10  21  37  62  93 121 163 203 257 322 376
#     4  10  20  37  61  91 120 163 207 250 318 377
#     4  11  20  39  65  86 122 165 199 261 315 373
#     4  11  21  41  61  87 132 160 206 267 318 372
#
# _framework density 18.754705000000001
#
# number of rings (size 3 to 8) (size 9 to 14) (size 15 to 20)
#    0.000    1.333    6.667    1.500    4.667    0.667 
#    3.000    0.000    3.667    2.000    0.000    0.000 
#    0.000    0.000    0.000    0.000    0.000    0.000 
#
# Total GULP energy -134025.031419 kJ/mol
# GULP energy per Si atom -5584.376309 kJ/mol
# Density = 1.871202 g / cm^3
# Si number density = 18.754705 Si / 1000 Ang^3
#
#
#
# Elastic Constant Matrix: (Units=GPa)
#
#
# Indices 1 2 3 4 5 6 
#
# 1 112.4871 39.1085 30.9415 0.0000 8.7036 0.0000
# 2 39.1085 98.3709 24.2686 0.0000 14.1546 0.0000
# 3 30.9415 24.2686 68.8656 0.0000 16.5476 0.0000
# 4 0.0000 0.0000 0.0000 34.4796 0.0000 4.4565
# 5 8.7036 14.1546 16.5476 0.0000 27.7339 0.0000
# 6 0.0000 0.0000 0.0000 4.4565 0.0000 21.6584
#
#
#
# Elastic Compliance Matrix: (Units=1/GPa)
#
#
# Indices 1 2 3 4 5 6 
#
# 1 0.011155 -0.003563 -0.003913 0.000000 0.000653 0.000000
# 2 -0.003563 0.012645 -0.001837 0.000000 -0.004240 0.000000
# 3 -0.003913 -0.001837 0.019152 0.000000 -0.009262 0.000000
# 4 0.000000 0.000000 0.000000 0.029795 0.000000 -0.006131
# 5 0.000653 -0.004240 -0.009262 0.000000 0.043542 0.000000
# 6 0.000000 0.000000 0.000000 -0.006131 0.000000 0.047433
#
#
# Mechanical properties :
#
#
# Convention : Reuss Voigt Hill
#
# Bulk Modulus (GPa) = 41.10757 52.04008 46.57382
# Shear Modulus (GPa) = 26.25280 29.13472 27.69376
#
# Velocity S-wave (km/s) = 3.74545 3.94567 3.84686
# Velocity P-wave (km/s) = 6.37735 6.96892 6.67969
#
# Compressibility (1/GPa) = 0.02432642
#
# Stress axis : x y z
#
# Youngs Moduli (GPa) = 89.64968 79.08046 52.21436
#
# Poissons Ratio (x) = 0.28178 0.20431
# Poissons Ratio (y) = 0.31944 0.09590
# Poissons Ratio (z) = 0.35079 0.14524
#
# Static dielectric constant tensor:
#      x y z
#    x 1.666560 0.000000 0.022250 
#    y 0.000000 1.676760 0.000000 
#    z 0.022250 0.000000 1.662980 
# 
# From -- ./inp_files/147466.got.cif
#   From: 2010.05.17/outbox.cif.g08.bks.cpg/sg15_74_cif.got.tgz:147466.got - 2010.06.03 18:47:42.
