data_PCOD9272198
_publ_section_title
;
Structure prediction by ZEFSAII (Michael W. Deem and Ramdas Pophale) SiO2 
 PCOD9272198
Probable space group: C 2/C
;
_chemical_formula_sum "Si O2"
_cell_formula_units_Z 48
_cell_length_a 15.479855
_cell_length_b 16.505916
_cell_length_c 8.756791
_cell_angle_alpha 90.000000
_cell_angle_beta 81.115229
_cell_angle_gamma 90.000000
_cell_volume 2210.593387
_symmetry_space_group_name_H-M "C 2/C"
_symmetry_group_IT_number 15
_symmetry_cell_setting 'monoclinic'
loop_
_space_group_symop_operation_xyz
x,y,z
-x,y,1/2-z
-x,-y,-z
x,-y,1/2+z
1/2+x,1/2+y,z
1/2-x,1/2+y,1/2-z
1/2-x,1/2-y,-z
1/2+x,1/2-y,1/2+z
loop_
_atom_site_type_symbol
_atom_site_label
_atom_site_fract_x
_atom_site_fract_y
_atom_site_fract_z
Si Si1 0.976611 0.362454 0.431754
Si Si2 0.918360 0.459443 0.884166
Si Si3 0.633902 0.493099 0.541754
Si Si4 0.317084 0.762216 0.619561
Si Si5 0.921528 0.881541 0.190993
Si Si6 0.255598 0.417586 0.733804
O O1 0.927828 0.449854 0.445548
O O2 0.909036 0.300399 0.530137
O O3 0.000000 0.340388 0.250000
O O4 0.066062 0.387858 0.496558
O O5 0.831539 0.457090 0.809212
O O6 0.000000 0.447758 0.750000
O O7 0.573333 0.426512 0.474492
O O8 0.591343 0.547754 0.682406
O O9 0.712887 0.447975 0.608800
O O10 0.670365 0.554294 0.404252
O O11 0.250000 0.750000 0.500000
O O12 0.340436 0.678098 0.693374
O O13 0.269510 0.824217 0.745450
O O14 0.000000 0.832981 0.250000
#
# Coordination Sequence:
#
# PCOD9272198 Si02
#       6
#     8   8   8   8   8   8
#     4  10  23  39  60  96 128 175 214 253 314 383
#     4  10  20  36  65  92 131 170 212 256 302 392
#     4  10  24  45  70  95 120 175 225 269 311 389
#     4  12  25  43  62  97 139 166 202 275 332 377
#     4  11  25  46  71  93 126 170 223 276 327 377
#     4  11  22  40  66  97 132 165 214 259 327 384
#
# _framework density 21.713626000000001
#
# number of rings (size 3 to 8) (size 9 to 14) (size 15 to 20)
#    0.000    1.333    3.333    1.500    9.333    0.667 
#    3.000    0.833    0.000    0.000    0.000    0.000 
#    0.000    0.000    0.000    0.000    0.000    0.000 
#
# Total GULP energy -133898.254528 kJ/mol
# GULP energy per Si atom -5579.093939 kJ/mol
# Density = 2.166421 g / cm^3
# Si number density = 21.713626 Si / 1000 Ang^3
#
#
#
# Elastic Constant Matrix: (Units=GPa)
#
#
# Indices 1 2 3 4 5 6 
#
# 1 80.4774 11.2382 26.2721 0.0000 33.2458 0.0000
# 2 11.2382 62.2188 19.9928 0.0000 13.5388 0.0000
# 3 26.2721 19.9928 98.8864 0.0000 20.7106 0.0000
# 4 0.0000 0.0000 0.0000 8.1441 0.0000 8.9648
# 5 33.2458 13.5388 20.7106 0.0000 45.5436 0.0000
# 6 0.0000 0.0000 0.0000 8.9648 0.0000 29.9127
#
#
#
# Elastic Compliance Matrix: (Units=1/GPa)
#
#
# Indices 1 2 3 4 5 6 
#
# 1 0.018243 0.000120 -0.002293 0.000000 -0.012310 0.000000
# 2 0.000120 0.017841 -0.002774 0.000000 -0.004130 0.000000
# 3 -0.002293 -0.002774 0.011892 0.000000 -0.002909 0.000000
# 4 0.000000 0.000000 0.000000 0.183240 0.000000 -0.054917
# 5 -0.012310 -0.004130 -0.002909 0.000000 0.033494 0.000000
# 6 0.000000 0.000000 0.000000 -0.054917 0.000000 0.049889
#
#
# Mechanical properties :
#
#
# Convention : Reuss Voigt Hill
#
# Bulk Modulus (GPa) = 26.25892 39.62096 32.93994
# Shear Modulus (GPa) = 14.82863 28.99205 21.91034
#
# Velocity S-wave (km/s) = 2.61611 3.65800 3.18002
# Velocity P-wave (km/s) = 4.60922 6.01066 5.35597
#
# Compressibility (1/GPa) = 0.03808230
#
# Stress axis : x y z
#
# Youngs Moduli (GPa) = 54.81582 56.05186 84.09027
#
# Poissons Ratio (x) = -0.00674 0.19281
# Poissons Ratio (y) = -0.00660 0.23327
# Poissons Ratio (z) = 0.12569 0.15549
#
# Static dielectric constant tensor:
#      x y z
#    x 1.876580 0.000000 0.045080 
#    y 0.000000 1.813090 0.000000 
#    z 0.045080 0.000000 1.851110 
# 
# From -- ./inp_files/39630.got.cif
#   From: 2010.05.17/outbox.cif.g08.bks.cpg/sg15_20_cif.got.tgz:39630.got - 2010.06.03 18:47:42.
