data_PCOD9272622
_publ_section_title
;
Structure prediction by ZEFSAII (Michael W. Deem and Ramdas Pophale) SiO2 
 PCOD9272622
Probable space group: C 2/C
;
_chemical_formula_sum "Si O2"
_cell_formula_units_Z 56
_cell_length_a 8.337731
_cell_length_b 28.989778
_cell_length_c 16.851686
_cell_angle_alpha 90.000000
_cell_angle_beta 44.778040
_cell_angle_gamma 90.000000
_cell_volume 2869.010695
_symmetry_space_group_name_H-M "C 2/C"
_symmetry_group_IT_number 15
_symmetry_cell_setting 'monoclinic'
loop_
_space_group_symop_operation_xyz
x,y,z
-x,y,1/2-z
-x,-y,-z
x,-y,1/2+z
1/2+x,1/2+y,z
1/2-x,1/2+y,1/2-z
1/2-x,1/2-y,-z
1/2+x,1/2-y,1/2+z
loop_
_atom_site_type_symbol
_atom_site_label
_atom_site_fract_x
_atom_site_fract_y
_atom_site_fract_z
Si Si1 0.248095 0.746101 0.864429
Si Si2 0.263203 0.526176 0.286332
Si Si3 0.343781 0.316584 0.482928
Si Si4 0.582167 0.898064 0.629008
Si Si5 0.991303 0.431480 0.156639
Si Si6 0.324822 0.832396 0.239644
Si Si7 0.993911 0.049448 0.041141
O O1 0.500000 0.762297 0.750000
O O2 0.113532 0.789841 0.948105
O O3 0.167364 0.711267 0.823248
O O4 0.276476 0.715635 0.933121
O O5 0.500000 0.526079 0.250000
O O6 0.143751 0.476026 0.328758
O O7 0.349522 0.539917 0.169538
O O8 0.075244 0.566456 0.365412
O O9 0.126775 0.349230 0.573637
O O10 0.578551 0.337474 0.367521
O O11 0.500000 0.893347 0.750000
O O12 0.838547 0.917861 0.542814
O O13 0.882912 0.381477 0.178171
O O14 0.000000 0.436669 0.250000
O O15 0.251548 0.432924 0.035658
O O16 0.500000 0.825282 0.250000
O O17 0.000000 0.000000 0.000000
#
# Coordination Sequence:
#
# PCOD9272622 Si02
#       7
#     8   8   8   8   8   8   8
#     4   9  20  39  59  87 116 147 196 243 293 357
#     4  11  24  36  53  87 121 151 197 252 293 340
#     4  10  20  37  64  83 113 157 193 242 294 351
#     4  10  20  37  59  83 112 156 202 237 286 359
#     4  11  20  37  59  81 117 162 202 237 288 354
#     4  10  22  36  58  91 120 150 194 244 296 355
#     4  11  20  38  59  76 111 161 199 235 281 349
#
# _framework density 19.518923999999998
#
# number of rings (size 3 to 8) (size 9 to 14) (size 15 to 20)
#    0.000    1.714    2.857    2.571    0.000    4.000 
#    0.000    0.000    0.000   11.143    0.000    0.000 
#    0.000    0.000    0.000    0.000    0.000    0.000 
#
# Total GULP energy -155932.750626 kJ/mol
# GULP energy per Si atom -5569.026808 kJ/mol
# Density = 1.947450 g / cm^3
# Si number density = 19.518924 Si / 1000 Ang^3
#
#
#
# Elastic Constant Matrix: (Units=GPa)
#
#
# Indices 1 2 3 4 5 6 
#
# 1 58.8998 16.5634 16.5460 0.0000 -15.8778 0.0000
# 2 16.5634 71.7428 53.8150 0.0000 -14.0152 0.0000
# 3 16.5460 53.8150 82.6118 0.0000 -19.6341 0.0000
# 4 0.0000 0.0000 0.0000 -49.6433 0.0000 -22.5488
# 5 -15.8778 -14.0152 -19.6341 0.0000 30.2419 0.0000
# 6 0.0000 0.0000 0.0000 -22.5488 0.0000 4.8675
#
#
#
# Elastic Compliance Matrix: (Units=1/GPa)
#
#
# Indices 1 2 3 4 5 6 
#
# 1 0.020299 -0.002889 0.000037 0.000000 0.009342 0.000000
# 2 -0.002889 0.027713 -0.017479 0.000000 -0.000022 0.000000
# 3 0.000037 -0.017479 0.025497 0.000000 0.008473 0.000000
# 4 0.000000 0.000000 0.000000 -0.006489 0.000000 -0.030062
# 5 0.009342 -0.000022 0.008473 0.000000 0.043462 0.000000
# 6 0.000000 0.000000 0.000000 -0.030062 0.000000 0.066183
#
#
# Mechanical properties :
#
#
# Convention : Reuss Voigt Hill
#
# Bulk Modulus (GPa) = 30.44517 43.01147 36.72832
# Shear Modulus (GPa) = 21.90330 5.51523 13.70927
#
# Velocity S-wave (km/s) = 3.35350 1.68277 2.65308
# Velocity P-wave (km/s) = 5.53410 5.08520 5.31439
#
# Compressibility (1/GPa) = 0.03284593
#
# Stress axis : x y z
#
# Youngs Moduli (GPa) = 49.26469 36.08458 39.21969
#
# Poissons Ratio (x) = 0.10424 -0.00144
# Poissons Ratio (y) = 0.14232 0.68553
# Poissons Ratio (z) = -0.00181 0.63073
#
# Static dielectric constant tensor:
#      x y z
#    x 1.714030 0.000000 -0.024930 
#    y 0.000000 1.815950 0.000000 
#    z -0.024930 0.000000 1.705530 
# 
# From -- ./inp_files/138708.got.cif
#   From: 2010.05.17/outbox.cif.g08.bks.cpg/sg15_70_cif.got.tgz:138708.got - 2010.06.03 18:47:42.
