data_PCOD9272438
_publ_section_title
;
Structure prediction by ZEFSAII (Michael W. Deem and Ramdas Pophale) SiO2 
 PCOD9272438
Probable space group: C 2/C
;
_chemical_formula_sum "Si O2"
_cell_formula_units_Z 56
_cell_length_a 11.793462
_cell_length_b 8.652157
_cell_length_c 28.024184
_cell_angle_alpha 90.000000
_cell_angle_beta 112.855856
_cell_angle_gamma 90.000000
_cell_volume 2635.038222
_symmetry_space_group_name_H-M "C 2/C"
_symmetry_group_IT_number 15
_symmetry_cell_setting 'monoclinic'
loop_
_space_group_symop_operation_xyz
x,y,z
-x,y,1/2-z
-x,-y,-z
x,-y,1/2+z
1/2+x,1/2+y,z
1/2-x,1/2+y,1/2-z
1/2-x,1/2-y,-z
1/2+x,1/2-y,1/2+z
loop_
_atom_site_type_symbol
_atom_site_label
_atom_site_fract_x
_atom_site_fract_y
_atom_site_fract_z
Si Si1 0.785427 0.055516 0.436750
Si Si2 0.421781 0.907992 0.039357
Si Si3 0.310387 0.172375 0.872830
Si Si4 0.535229 0.758516 0.977713
Si Si5 0.098267 0.856474 0.126664
Si Si6 0.915994 0.874256 0.805852
Si Si7 0.820367 0.132307 0.184216
O O1 0.748806 0.210441 0.400963
O O2 0.871573 0.124598 0.492529
O O3 0.683147 0.935224 0.438311
O O4 0.869326 0.969507 0.411892
O O5 0.554593 0.879993 0.085809
O O6 0.406063 0.071068 0.009031
O O7 0.424387 0.774929 0.998704
O O8 0.338656 0.267341 0.828981
O O9 0.228472 0.023856 0.848307
O O10 0.497738 0.750829 0.916428
O O11 0.215701 0.758769 0.160719
O O12 0.061184 0.962372 0.164436
O O13 0.848115 0.895763 0.744528
O O14 0.051866 0.809968 0.817606
#
# Coordination Sequence:
#
# PCOD9272438 Si02
#       7
#     8   8   8   8   8   8   8
#     4  10  22  36  58  86 120 156 191 240 287 343
#     4  10  20  37  56  84 118 156 195 232 288 350
#     4  10  21  39  59  84 117 152 196 242 289 352
#     4  10  21  35  56  86 121 152 194 239 283 348
#     4  11  22  39  60  88 116 153 199 239 293 350
#     4  10  24  40  59  89 116 146 199 251 292 349
#     4  11  22  40  63  84 115 156 192 244 305 344
#
# _framework density 21.252063
#
# number of rings (size 3 to 8) (size 9 to 14) (size 15 to 20)
#    0.000    1.714    1.429    2.571    2.000    1.714 
#    0.000    0.000    0.000    6.857    0.000    0.000 
#    0.000    0.000    0.000    0.000    0.000    0.000 
#
# Total GULP energy -156176.336615 kJ/mol
# GULP energy per Si atom -5577.726308 kJ/mol
# Density = 2.120369 g / cm^3
# Si number density = 21.252063 Si / 1000 Ang^3
#
#
#
# Elastic Constant Matrix: (Units=GPa)
#
#
# Indices 1 2 3 4 5 6 
#
# 1 75.7864 5.0112 25.8176 0.0000 1.7377 0.0000
# 2 5.0112 43.2424 5.6757 0.0000 8.7482 0.0000
# 3 25.8176 5.6757 98.8070 0.0000 16.9646 0.0000
# 4 0.0000 0.0000 0.0000 34.8174 0.0000 -3.3428
# 5 1.7377 8.7482 16.9646 0.0000 15.2329 0.0000
# 6 0.0000 0.0000 0.0000 -3.3428 0.0000 22.5901
#
#
#
# Elastic Compliance Matrix: (Units=1/GPa)
#
#
# Indices 1 2 3 4 5 6 
#
# 1 0.014764 -0.002031 -0.004516 0.000000 0.004511 0.000000
# 2 -0.002031 0.026587 0.001960 0.000000 -0.017220 0.000000
# 3 -0.004516 0.001960 0.013963 0.000000 -0.016161 0.000000
# 4 0.000000 0.000000 0.000000 0.029135 0.000000 0.004311
# 5 0.004511 -0.017220 -0.016161 0.000000 0.093020 0.000000
# 6 0.000000 0.000000 0.000000 0.004311 0.000000 0.044905
#
#
# Mechanical properties :
#
#
# Convention : Reuss Voigt Hill
#
# Bulk Modulus (GPa) = 21.67260 32.31610 26.99435
# Shear Modulus (GPa) = 20.24884 26.61685 23.43284
#
# Velocity S-wave (km/s) = 3.09008 3.54282 3.32417
# Velocity P-wave (km/s) = 4.79077 5.65460 5.24052
#
# Compressibility (1/GPa) = 0.04614121
#
# Stress axis : x y z
#
# Youngs Moduli (GPa) = 67.73171 37.61192 71.61929
#
# Poissons Ratio (x) = 0.07639 0.32341
# Poissons Ratio (y) = 0.13756 -0.14038
# Poissons Ratio (z) = 0.30585 -0.07372
#
# Static dielectric constant tensor:
#      x y z
#    x 1.846850 0.000000 -0.033450 
#    y 0.000000 1.802170 0.000000 
#    z -0.033450 0.000000 1.805170 
# 
# From -- ./inp_files/291496.got.cif
#   From: 2010.05.17/outbox.cif.g08.bks.cpg/sg15_146_cif.got.tgz:291496.got - 2010.06.03 18:47:42.
