data_PCOD9272096
_publ_section_title
;
Structure prediction by ZEFSAII (Michael W. Deem and Ramdas Pophale) SiO2 
 PCOD9272096
Probable space group: C 2/C
;
_chemical_formula_sum "Si O2"
_cell_formula_units_Z 52
_cell_length_a 17.502220
_cell_length_b 18.812277
_cell_length_c 9.552521
_cell_angle_alpha 90.000000
_cell_angle_beta 59.923366
_cell_angle_gamma 90.000000
_cell_volume 2721.743844
_symmetry_space_group_name_H-M "C 2/C"
_symmetry_group_IT_number 15
_symmetry_cell_setting 'monoclinic'
loop_
_space_group_symop_operation_xyz
x,y,z
-x,y,1/2-z
-x,-y,-z
x,-y,1/2+z
1/2+x,1/2+y,z
1/2-x,1/2+y,1/2-z
1/2-x,1/2-y,-z
1/2+x,1/2-y,1/2+z
loop_
_atom_site_type_symbol
_atom_site_label
_atom_site_fract_x
_atom_site_fract_y
_atom_site_fract_z
Si Si1 0.693158 0.803421 0.862981
Si Si2 0.000000 0.791526 0.750000
Si Si3 0.356653 0.199648 0.772471
Si Si4 0.403985 0.664666 0.586148
Si Si5 0.750363 0.436158 0.873698
Si Si6 0.226158 0.421370 0.319353
Si Si7 0.961755 0.940741 0.432457
O O1 0.782342 0.757960 0.804239
O O2 0.625921 0.745352 0.859857
O O3 0.711875 0.868968 0.745581
O O4 0.661114 0.823805 0.049388
O O5 0.050823 0.740370 0.810579
O O6 0.072710 0.836703 0.600933
O O7 0.343753 0.135035 0.678236
O O8 0.322110 0.614465 0.700291
O O9 0.490992 0.634134 0.577864
O O10 0.778903 0.506876 0.765384
O O11 0.779141 0.434629 0.009830
O O12 0.643264 0.434638 0.968317
O O13 0.000000 0.963939 0.250000
O O14 0.000000 0.000000 0.500000
#
# Coordination Sequence:
#
# PCOD9272096 Si02
#       7
#     8   4   8   8   8   8   8
#     4   9  20  37  60  80 117 156 198 231 289 346
#     4  10  20  36  64  84 114 158 186 244 302 334
#     4   9  19  38  58  87 111 150 196 240 283 355
#     4  10  21  37  56  89 118 151 197 235 282 351
#     4  12  22  39  59  85 117 163 186 245 289 347
#     4  11  23  37  59  86 117 151 205 235 289 350
#     4  12  23  37  54  87 122 155 190 235 286 340
#
# _framework density 19.105398000000001
#
# number of rings (size 3 to 8) (size 9 to 14) (size 15 to 20)
#    0.000    1.538    3.077    2.769    1.077    3.692 
#    2.769    0.000    0.000    8.308    0.000    0.000 
#    0.000    0.000    0.000    0.000    0.000    0.000 
#
# Total GULP energy -145110.405301 kJ/mol
# GULP energy per Si atom -5581.169435 kJ/mol
# Density = 1.906191 g / cm^3
# Si number density = 19.105398 Si / 1000 Ang^3
#
#
#
# Elastic Constant Matrix: (Units=GPa)
#
#
# Indices 1 2 3 4 5 6 
#
# 1 62.9856 23.6200 20.7118 0.0000 22.3519 0.0000
# 2 23.6200 92.4846 67.4442 0.0000 31.1152 0.0000
# 3 20.7118 67.4442 114.2648 0.0000 31.7022 0.0000
# 4 0.0000 0.0000 0.0000 29.3080 0.0000 10.8027
# 5 22.3519 31.1152 31.7022 0.0000 32.4820 0.0000
# 6 0.0000 0.0000 0.0000 10.8027 0.0000 31.5734
#
#
#
# Elastic Compliance Matrix: (Units=1/GPa)
#
#
# Indices 1 2 3 4 5 6 
#
# 1 0.021083 -0.001232 0.000828 0.000000 -0.014135 0.000000
# 2 -0.001232 0.021726 -0.009684 0.000000 -0.010512 0.000000
# 3 0.000828 -0.009684 0.016321 0.000000 -0.007223 0.000000
# 4 0.000000 0.000000 0.000000 0.039044 0.000000 -0.013359
# 5 -0.014135 -0.010512 -0.007223 0.000000 0.057632 0.000000
# 6 0.000000 0.000000 0.000000 -0.013359 0.000000 0.036243
#
#
# Mechanical properties :
#
#
# Convention : Reuss Voigt Hill
#
# Bulk Modulus (GPa) = 25.67198 54.80968 40.24083
# Shear Modulus (GPa) = 22.20145 29.20329 25.70237
#
# Velocity S-wave (km/s) = 3.41259 3.91389 3.67180
# Velocity P-wave (km/s) = 5.38459 7.01249 6.25176
#
# Compressibility (1/GPa) = 0.03895298
#
# Stress axis : x y z
#
# Youngs Moduli (GPa) = 47.43212 46.02812 61.27011
#
# Poissons Ratio (x) = 0.05673 -0.05071
# Poissons Ratio (y) = 0.05846 0.59331
# Poissons Ratio (z) = -0.03926 0.44572
#
# Static dielectric constant tensor:
#      x y z
#    x 1.763710 0.000000 0.172400 
#    y 0.000000 1.679330 0.000000 
#    z 0.172400 0.000000 1.964210 
# 
# From -- ./inp_files/48449.got.cif
#   From: 2010.05.17/outbox.cif.g08.bks.cpg/sg15_25_cif.got.tgz:48449.got - 2010.06.03 18:47:42.
