data_PCOD9272397
_publ_section_title
;
Structure prediction by ZEFSAII (Michael W. Deem and Ramdas Pophale) SiO2 
 PCOD9272397
Probable space group: C 2/C
;
_chemical_formula_sum "Si O2"
_cell_formula_units_Z 44
_cell_length_a 17.967590
_cell_length_b 22.677333
_cell_length_c 5.527877
_cell_angle_alpha 90.000000
_cell_angle_beta 63.377480
_cell_angle_gamma 90.000000
_cell_volume 2013.571681
_symmetry_space_group_name_H-M "C 2/C"
_symmetry_group_IT_number 15
_symmetry_cell_setting 'monoclinic'
loop_
_space_group_symop_operation_xyz
x,y,z
-x,y,1/2-z
-x,-y,-z
x,-y,1/2+z
1/2+x,1/2+y,z
1/2-x,1/2+y,1/2-z
1/2-x,1/2-y,-z
1/2+x,1/2-y,1/2+z
loop_
_atom_site_type_symbol
_atom_site_label
_atom_site_fract_x
_atom_site_fract_y
_atom_site_fract_z
Si Si1 0.889921 0.188018 0.542223
Si Si2 0.749929 0.481221 0.002315
Si Si3 0.773061 0.656546 0.490657
Si Si4 0.500000 0.371658 0.250000
Si Si5 0.591307 0.566640 0.241390
Si Si6 0.671237 0.793904 0.096227
O O1 0.812329 0.193826 0.842327
O O2 0.968644 0.169308 0.582963
O O3 0.872902 0.128103 0.416722
O O4 0.898723 0.245957 0.368830
O O5 0.792059 0.504172 0.185859
O O6 0.745942 0.411398 0.031581
O O7 0.661766 0.517377 0.121616
O O8 0.813580 0.668802 0.170423
O O9 0.828849 0.671973 0.647891
O O10 0.430310 0.414986 0.454520
O O11 0.500000 0.553438 0.250000
O O12 0.750000 0.750000 0.000000
#
# Coordination Sequence:
#
# PCOD9272397 Si02
#       6
#     8   8   8   4   8   8
#     4  10  20  37  55  79 110 145 197 248 293 335
#     4  12  24  38  56  75 115 153 195 242 278 331
#     4  11  22  38  55  84 104 149 204 237 290 343
#     4  10  22  36  58  80 116 152 212 240 282 340
#     4  10  23  38  51  82 112 162 206 235 276 331
#     4  10  22  36  61  78 103 142 198 250 295 341
#
# _framework density 21.851718999999999
#
# number of rings (size 3 to 8) (size 9 to 14) (size 15 to 20)
#    0.000    1.455    1.818    4.364   12.727    0.727 
#    1.636    0.000    0.000    0.000    0.000    0.000 
#    0.000    0.000    0.000   16.364    3.636    0.182 
#
# Total GULP energy -122807.339966 kJ/mol
# GULP energy per Si atom -5582.151817 kJ/mol
# Density = 2.180198 g / cm^3
# Si number density = 21.851719 Si / 1000 Ang^3
#
#
#
# Elastic Constant Matrix: (Units=GPa)
#
#
# Indices 1 2 3 4 5 6 
#
# 1 50.4277 48.9624 30.3592 0.0000 22.6285 0.0000
# 2 48.9624 133.7795 47.3387 0.0000 17.2210 0.0000
# 3 30.3592 47.3387 118.4164 0.0000 41.0391 0.0000
# 4 0.0000 0.0000 0.0000 39.7053 0.0000 3.4790
# 5 22.6285 17.2210 41.0391 0.0000 34.0929 0.0000
# 6 0.0000 0.0000 0.0000 3.4790 0.0000 38.2903
#
#
#
# Elastic Compliance Matrix: (Units=1/GPa)
#
#
# Indices 1 2 3 4 5 6 
#
# 1 0.042065 -0.013309 0.003230 0.000000 -0.025084 0.000000
# 2 -0.013309 0.012920 -0.004380 0.000000 0.007579 0.000000
# 3 0.003230 -0.004380 0.016032 0.000000 -0.019230 0.000000
# 4 0.000000 0.000000 0.000000 0.025388 0.000000 -0.002307
# 5 -0.025084 0.007579 -0.019230 0.000000 0.065300 0.000000
# 6 0.000000 0.000000 0.000000 -0.002307 0.000000 0.026326
#
#
# Mechanical properties :
#
#
# Convention : Reuss Voigt Hill
#
# Bulk Modulus (GPa) = 23.75389 61.77156 42.76273
# Shear Modulus (GPa) = 21.64674 34.14859 27.89767
#
# Velocity S-wave (km/s) = 3.15083 3.95744 3.57694
# Velocity P-wave (km/s) = 4.91233 7.01510 6.05569
#
# Compressibility (1/GPa) = 0.04209837
#
# Stress axis : x y z
#
# Youngs Moduli (GPa) = 23.77294 77.39863 62.37522
#
# Poissons Ratio (x) = 1.03011 -0.20144
# Poissons Ratio (y) = 0.31640 0.27318
# Poissons Ratio (z) = -0.07678 0.33898
#
# Static dielectric constant tensor:
#      x y z
#    x 1.934760 0.000000 0.044640 
#    y 0.000000 1.840240 0.000000 
#    z 0.044640 0.000000 1.962230 
# 
# From -- ./inp_files/13151.got.cif
#   From: 2010.05.17/outbox.cif.g08.bks.cpg/sg15_7_cif.got.tgz:13151.got - 2010.06.03 18:47:42.
