data_PCOD9272831
_publ_section_title
;
Structure prediction by ZEFSAII (Michael W. Deem and Ramdas Pophale) SiO2 
 PCOD9272831
Probable space group: C 2/C
;
_chemical_formula_sum "Si O2"
_cell_formula_units_Z 56
_cell_length_a 14.879117
_cell_length_b 15.892357
_cell_length_c 9.788956
_cell_angle_alpha 90.000000
_cell_angle_beta 77.096194
_cell_angle_gamma 90.000000
_cell_volume 2256.282477
_symmetry_space_group_name_H-M "C 2/C"
_symmetry_group_IT_number 15
_symmetry_cell_setting 'monoclinic'
loop_
_space_group_symop_operation_xyz
x,y,z
-x,y,1/2-z
-x,-y,-z
x,-y,1/2+z
1/2+x,1/2+y,z
1/2-x,1/2+y,1/2-z
1/2-x,1/2-y,-z
1/2+x,1/2-y,1/2+z
loop_
_atom_site_type_symbol
_atom_site_label
_atom_site_fract_x
_atom_site_fract_y
_atom_site_fract_z
Si Si1 0.180123 0.660142 0.323117
Si Si2 0.136984 0.978459 0.067293
Si Si3 0.500000 0.171609 0.250000
Si Si4 0.312564 0.935936 0.413833
Si Si5 0.083537 0.280498 0.438213
Si Si6 0.280231 0.660285 0.800206
Si Si7 0.500000 0.911733 0.250000
Si Si8 0.885394 0.898019 0.694906
O O1 0.177848 0.641790 0.484422
O O2 0.181460 0.758808 0.291003
O O3 0.274776 0.620320 0.235955
O O4 0.089293 0.625112 0.281396
O O5 0.142117 0.889903 0.143903
O O6 0.096036 0.055401 0.168120
O O7 0.096140 0.963012 0.932984
O O8 0.245919 0.999086 0.010227
O O9 0.462243 0.219711 0.397538
O O10 0.260494 0.903961 0.297491
O O11 0.415369 0.961803 0.343005
O O12 0.191946 0.305163 0.414653
O O13 0.040157 0.351899 0.355743
O O14 0.073976 0.192253 0.360446
#
# Coordination Sequence:
#
# PCOD9272831 Si02
#       8
#     8   8   4   8   8   8   4   8
#     4  10  21  36  62  90 117 153 208 250 295 355
#     4  11  20  38  60  91 121 153 199 250 304 356
#     4  12  20  36  59  95 118 148 190 264 302 340
#     4  10  20  37  60  91 120 156 197 249 304 365
#     4  10  22  39  63  89 120 159 207 251 290 360
#     4  10  20  38  63  87 116 159 204 251 293 352
#     4  10  20  42  61  89 124 158 202 246 306 358
#     4  10  22  40  61  90 120 161 206 246 297 359
#
# _framework density 24.819588
#
# number of rings (size 3 to 8) (size 9 to 14) (size 15 to 20)
#    0.000    1.714    2.857    2.143    0.000    3.429 
#    0.000    5.714    0.000    7.714    0.000    0.000 
#    0.000    0.000    0.000    0.000    0.000    0.000 
#
# Total GULP energy -156699.693507 kJ/mol
# GULP energy per Si atom -5596.417625 kJ/mol
# Density = 2.476310 g / cm^3
# Si number density = 24.819588 Si / 1000 Ang^3
#
#
#
# Elastic Constant Matrix: (Units=GPa)
#
#
# Indices 1 2 3 4 5 6 
#
# 1 61.5653 -15.0850 9.2918 0.0000 0.3186 0.0000
# 2 -15.0850 79.8513 21.6610 0.0000 -11.2653 0.0000
# 3 9.2918 21.6610 120.9263 0.0000 -3.0719 0.0000
# 4 0.0000 0.0000 0.0000 2.5273 0.0000 5.6268
# 5 0.3186 -11.2653 -3.0719 0.0000 38.3040 0.0000
# 6 0.0000 0.0000 0.0000 5.6268 0.0000 8.2521
#
#
#
# Elastic Compliance Matrix: (Units=1/GPa)
#
#
# Indices 1 2 3 4 5 6 
#
# 1 0.017522 0.003985 -0.002038 0.000000 0.000863 0.000000
# 2 0.003985 0.014611 -0.002821 0.000000 0.004038 0.000000
# 3 -0.002038 -0.002821 0.008929 0.000000 -0.000097 0.000000
# 4 0.000000 0.000000 0.000000 -0.763767 0.000000 0.520778
# 5 0.000863 0.004038 -0.000097 0.000000 0.027279 0.000000
# 6 0.000000 0.000000 0.000000 0.520778 0.000000 -0.233914
#
#
# Mechanical properties :
#
#
# Convention : Reuss Voigt Hill
#
# Bulk Modulus (GPa) = 25.43632 32.67540 29.05586
# Shear Modulus (GPa) = -5.46755 26.24838 10.39041
#
# Velocity S-wave (km/s) = -1.48583 3.25555 2.04828
# Velocity P-wave (km/s) = 2.70687 5.22736 4.16247
#
# Compressibility (1/GPa) = 0.03931386
#
# Stress axis : x y z
#
# Youngs Moduli (GPa) = 57.06960 68.44209 111.99536
#
# Poissons Ratio (x) = -0.27273 0.22828
# Poissons Ratio (y) = -0.22741 0.31592
# Poissons Ratio (z) = 0.11632 0.19306
#
# Static dielectric constant tensor:
#      x y z
#    x 2.005270 0.000000 -0.018040 
#    y 0.000000 1.946480 0.000000 
#    z -0.018040 0.000000 1.941800 
# 
# From -- ./inp_files/49054.got.cif
#   From: 2010.05.17/outbox.cif.g08.bks.cpg/sg15_25_cif.got.tgz:49054.got - 2010.06.03 18:47:42.
