data_PCOD9272555
_publ_section_title
;
Structure prediction by ZEFSAII (Michael W. Deem and Ramdas Pophale) SiO2 
 PCOD9272555
Probable space group: C 2/C
;
_chemical_formula_sum "Si O2"
_cell_formula_units_Z 56
_cell_length_a 12.136878
_cell_length_b 29.769264
_cell_length_c 7.338952
_cell_angle_alpha 90.000000
_cell_angle_beta 66.682547
_cell_angle_gamma 90.000000
_cell_volume 2435.039110
_symmetry_space_group_name_H-M "C 2/C"
_symmetry_group_IT_number 15
_symmetry_cell_setting 'monoclinic'
loop_
_space_group_symop_operation_xyz
x,y,z
-x,y,1/2-z
-x,-y,-z
x,-y,1/2+z
1/2+x,1/2+y,z
1/2-x,1/2+y,1/2-z
1/2-x,1/2-y,-z
1/2+x,1/2-y,1/2+z
loop_
_atom_site_type_symbol
_atom_site_label
_atom_site_fract_x
_atom_site_fract_y
_atom_site_fract_z
Si Si1 0.119742 0.652599 0.557345
Si Si2 0.600547 0.555723 0.520840
Si Si3 0.738553 0.483185 0.236540
Si Si4 0.406092 0.346028 0.551042
Si Si5 0.176612 0.823722 0.282335
Si Si6 0.268851 0.772536 0.684385
Si Si7 0.118963 0.553907 0.547331
O O1 0.227430 0.658083 0.634978
O O2 0.122338 0.692908 0.411624
O O3 0.124369 0.603795 0.464204
O O4 0.000000 0.655671 0.750000
O O5 0.500000 0.558275 0.750000
O O6 0.623897 0.514216 0.365584
O O7 0.715826 0.546888 0.574694
O O8 0.592361 0.600944 0.406338
O O9 0.770914 0.452175 0.384174
O O10 0.850691 0.515978 0.119331
O O11 0.542645 0.329390 0.447945
O O12 0.336350 0.347651 0.402846
O O13 0.337831 0.307111 0.704335
O O14 0.206756 0.771658 0.215359
O O15 0.250000 0.750000 0.500000
O O16 0.000000 0.550074 0.750000
#
# Coordination Sequence:
#
# PCOD9272555 Si02
#       7
#     8   8   8   8   8   8   8
#     4  10  22  39  59  86 121 159 204 255 302 370
#     4  11  21  39  60  91 126 160 206 253 314 368
#     4  10  22  36  61  87 124 160 206 256 307 370
#     4  11  22  41  64  93 124 163 205 258 316 375
#     4  10  22  39  64  86 122 161 204 255 313 367
#     4  10  23  38  62  88 121 159 207 251 311 368
#     4  10  20  37  58  85 118 160 204 250 308 365
#
# _framework density 22.997578000000001
#
# number of rings (size 3 to 8) (size 9 to 14) (size 15 to 20)
#    0.000    1.714    1.429    3.000    4.000    1.714 
#    0.000    0.000    0.000    5.143    0.000    0.000 
#    0.000    0.000    0.000    0.000    0.000    0.000 
#
# Total GULP energy -156046.966558 kJ/mol
# GULP energy per Si atom -5573.105948 kJ/mol
# Density = 2.294523 g / cm^3
# Si number density = 22.997578 Si / 1000 Ang^3
#
#
#
# Elastic Constant Matrix: (Units=GPa)
#
#
# Indices 1 2 3 4 5 6 
#
# 1 48.4358 17.7442 8.5999 0.0000 -4.8887 0.0000
# 2 17.7442 142.0043 20.9718 0.0000 -24.8864 0.0000
# 3 8.5999 20.9718 61.7469 0.0000 -26.6735 0.0000
# 4 0.0000 0.0000 0.0000 -6.3096 0.0000 -19.6151
# 5 -4.8887 -24.8864 -26.6735 0.0000 31.7544 0.0000
# 6 0.0000 0.0000 0.0000 -19.6151 0.0000 -0.5502
#
#
#
# Elastic Compliance Matrix: (Units=1/GPa)
#
#
# Indices 1 2 3 4 5 6 
#
# 1 0.021934 -0.002490 -0.002501 0.000000 -0.000675 0.000000
# 2 -0.002490 0.008446 0.000270 0.000000 0.006463 0.000000
# 3 -0.002501 0.000270 0.025704 0.000000 0.021418 0.000000
# 4 0.000000 0.000000 0.000000 0.001443 0.000000 -0.051445
# 5 -0.000675 0.006463 0.021418 0.000000 0.054443 0.000000
# 6 0.000000 0.000000 0.000000 -0.051445 0.000000 0.016548
#
#
# Mechanical properties :
#
#
# Convention : Reuss Voigt Hill
#
# Bulk Modulus (GPa) = 21.43996 38.53544 29.98770
# Shear Modulus (GPa) = 32.57180 18.63700 25.60440
#
# Velocity S-wave (km/s) = 3.76748 2.84982 3.34031
# Velocity P-wave (km/s) = 5.31678 5.25560 5.28628
#
# Compressibility (1/GPa) = 0.04664188
#
# Stress axis : x y z
#
# Youngs Moduli (GPa) = 45.59159 118.40131 38.90478
#
# Poissons Ratio (x) = 0.29479 0.09730
# Poissons Ratio (y) = 0.11351 -0.01050
# Poissons Ratio (z) = 0.11402 -0.03196
#
# Static dielectric constant tensor:
#      x y z
#    x 1.868230 0.000000 0.029150 
#    y 0.000000 1.908910 0.000000 
#    z 0.029150 0.000000 2.033090 
# 
# From -- ./inp_files/35546.got.cif
#   From: 2010.05.17/outbox.cif.g08.bks.cpg/sg15_18_cif.got.tgz:35546.got - 2010.06.03 18:47:42.
