data_PCOD9272102
_publ_section_title
;
Structure prediction by ZEFSAII (Michael W. Deem and Ramdas Pophale) SiO2 
 PCOD9272102
Probable space group: C 2/C
;
_chemical_formula_sum "Si O2"
_cell_formula_units_Z 44
_cell_length_a 11.687952
_cell_length_b 7.543705
_cell_length_c 20.116276
_cell_angle_alpha 90.000000
_cell_angle_beta 106.706812
_cell_angle_gamma 90.000000
_cell_volume 1698.792128
_symmetry_space_group_name_H-M "C 2/C"
_symmetry_group_IT_number 15
_symmetry_cell_setting 'monoclinic'
loop_
_space_group_symop_operation_xyz
x,y,z
-x,y,1/2-z
-x,-y,-z
x,-y,1/2+z
1/2+x,1/2+y,z
1/2-x,1/2+y,1/2-z
1/2-x,1/2-y,-z
1/2+x,1/2-y,1/2+z
loop_
_atom_site_type_symbol
_atom_site_label
_atom_site_fract_x
_atom_site_fract_y
_atom_site_fract_z
Si Si1 0.246457 0.423895 0.785422
Si Si2 0.000000 0.786418 0.250000
Si Si3 0.364895 0.905163 0.354040
Si Si4 0.749062 0.331183 0.091859
Si Si5 0.775621 0.964346 0.042022
Si Si6 0.998794 0.253263 0.894013
O O1 0.123842 0.318319 0.779247
O O2 0.354336 0.290717 0.821480
O O3 0.232959 0.487961 0.707489
O O4 0.232506 0.588730 0.832656
O O5 0.982547 0.857533 0.321960
O O6 0.322328 0.894430 0.422532
O O7 0.478295 0.037987 0.371392
O O8 0.816252 0.152525 0.082132
O O9 0.607935 0.282145 0.072235
O O10 0.765827 0.474504 0.037178
O O11 0.880143 0.822167 0.056702
#
# Coordination Sequence:
#
# PCOD9272102 Si02
#       6
#     8   4   8   8   8   8
#     4  11  21  42  61  96 126 169 222 286 338 413
#     4  10  20  36  64  84 126 160 218 280 336 406
#     4  10  21  37  67  88 129 168 220 283 345 402
#     4  10  23  38  64  91 131 170 225 274 339 415
#     4  10  20  41  63  90 127 178 218 274 341 413
#     4  10  20  39  62  90 119 173 215 275 338 407
#
# _framework density 25.900756999999999
#
# number of rings (size 3 to 8) (size 9 to 14) (size 15 to 20)
#    0.000    1.818    1.818    3.818    0.000    0.727 
#    6.545    0.909    0.000    0.000    0.000    0.000 
#    0.000    0.000    0.000    0.000    0.000    0.000 
#
# Total GULP energy -122883.923658 kJ/mol
# GULP energy per Si atom -5585.632894 kJ/mol
# Density = 2.584181 g / cm^3
# Si number density = 25.900757 Si / 1000 Ang^3
#
#
#
# Elastic Constant Matrix: (Units=GPa)
#
#
# Indices 1 2 3 4 5 6 
#
# 1 87.9702 44.0630 25.2433 0.0000 -6.7075 0.0000
# 2 44.0630 164.6012 35.5632 0.0000 10.4354 0.0000
# 3 25.2433 35.5632 126.9147 0.0000 -24.9887 0.0000
# 4 0.0000 0.0000 0.0000 49.4882 0.0000 -4.1635
# 5 -6.7075 10.4354 -24.9887 0.0000 35.4733 0.0000
# 6 0.0000 0.0000 0.0000 -4.1635 0.0000 20.0984
#
#
#
# Elastic Compliance Matrix: (Units=1/GPa)
#
#
# Indices 1 2 3 4 5 6 
#
# 1 0.013721 -0.003602 -0.001161 0.000000 0.002836 0.000000
# 2 -0.003602 0.007857 -0.002409 0.000000 -0.004689 0.000000
# 3 -0.001161 -0.002409 0.010312 0.000000 0.007753 0.000000
# 4 0.000000 0.000000 0.000000 0.020565 0.000000 0.004260
# 5 0.002836 -0.004689 0.007753 0.000000 0.035567 0.000000
# 6 0.000000 0.000000 0.000000 0.004260 0.000000 0.050638
#
#
# Mechanical properties :
#
#
# Convention : Reuss Voigt Hill
#
# Bulk Modulus (GPa) = 56.99236 65.46946 61.23091
# Shear Modulus (GPa) = 31.47569 39.31976 35.39773
#
# Velocity S-wave (km/s) = 3.48981 3.90050 3.70086
# Velocity P-wave (km/s) = 6.18792 6.75404 6.47717
#
# Compressibility (1/GPa) = 0.01754621
#
# Stress axis : x y z
#
# Youngs Moduli (GPa) = 72.88020 127.27233 96.97718
#
# Poissons Ratio (x) = 0.45843 0.11263
# Poissons Ratio (y) = 0.26251 0.23357
# Poissons Ratio (z) = 0.08465 0.30654
#
# Static dielectric constant tensor:
#      x y z
#    x 1.999300 0.000000 0.051250 
#    y 0.000000 2.115130 0.000000 
#    z 0.051250 0.000000 1.991760 
# 
# From -- ./inp_files/242068.got.cif
#   From: 2010.05.17/outbox.cif.g08.bks.cpg/sg15_122_cif.got.tgz:242068.got - 2010.06.03 18:47:42.
