data_PCOD9272171
_publ_section_title
;
Structure prediction by ZEFSAII (Michael W. Deem and Ramdas Pophale) SiO2 
 PCOD9272171
Probable space group: C 2/C
;
_chemical_formula_sum "Si O2"
_cell_formula_units_Z 36
_cell_length_a 11.221617
_cell_length_b 14.805186
_cell_length_c 9.674439
_cell_angle_alpha 90.000000
_cell_angle_beta 121.924909
_cell_angle_gamma 90.000000
_cell_volume 1364.177018
_symmetry_space_group_name_H-M "C 2/C"
_symmetry_group_IT_number 15
_symmetry_cell_setting 'monoclinic'
loop_
_space_group_symop_operation_xyz
x,y,z
-x,y,1/2-z
-x,-y,-z
x,-y,1/2+z
1/2+x,1/2+y,z
1/2-x,1/2+y,1/2-z
1/2-x,1/2-y,-z
1/2+x,1/2-y,1/2+z
loop_
_atom_site_type_symbol
_atom_site_label
_atom_site_fract_x
_atom_site_fract_y
_atom_site_fract_z
Si Si1 0.229127 0.473027 0.703111
Si Si2 0.277303 0.829383 0.391600
Si Si3 0.145870 0.165117 0.429331
Si Si4 0.000000 0.381818 0.750000
Si Si5 0.587856 0.650357 0.020205
O O1 0.201172 0.578560 0.675376
O O2 0.268547 0.420197 0.583731
O O3 0.094118 0.435613 0.699343
O O4 0.357780 0.442450 0.879146
O O5 0.395096 0.829428 0.586388
O O6 0.316467 0.732197 0.352401
O O7 0.136735 0.848099 0.392590
O O8 0.250000 0.250000 0.500000
O O9 0.000000 0.174099 0.250000
O O10 0.073531 0.160970 0.537404
#
# Coordination Sequence:
#
# PCOD9272171 Si02
#       5
#     8   8   8   4   8
#     4  10  21  39  62  98 133 171 228 282 340 397
#     4  10  20  40  66  95 134 178 228 278 338 413
#     4  10  21  41  65  96 137 176 227 282 341 407
#     4  10  20  36  64  98 132 176 226 276 338 406
#     4   9  21  41  66  90 135 180 225 278 343 406
#
# _framework density 26.389537000000001
#
# number of rings (size 3 to 8) (size 9 to 14) (size 15 to 20)
#    0.000    2.222    0.000    2.000    0.000    0.889 
#   24.000    0.000   66.000    0.000    0.000    0.000 
#    0.000    0.000    0.000    0.000    0.000    0.000 
#
# Total GULP energy -100548.188728 kJ/mol
# GULP energy per Si atom -5586.010485 kJ/mol
# Density = 2.632947 g / cm^3
# Si number density = 26.389537 Si / 1000 Ang^3
#
#
#
# Elastic Constant Matrix: (Units=GPa)
#
#
# Indices 1 2 3 4 5 6 
#
# 1 171.4575 -18.0777 -2.2925 0.0000 -11.4843 0.0000
# 2 -18.0777 101.4369 7.8371 0.0000 -0.1247 0.0000
# 3 -2.2925 7.8371 60.7490 0.0000 12.0353 0.0000
# 4 0.0000 0.0000 0.0000 32.6980 0.0000 -2.5691
# 5 -11.4843 -0.1247 12.0353 0.0000 43.1273 0.0000
# 6 0.0000 0.0000 0.0000 -2.5691 0.0000 6.0474
#
#
#
# Elastic Compliance Matrix: (Units=1/GPa)
#
#
# Indices 1 2 3 4 5 6 
#
# 1 0.006058 0.001101 -0.000247 0.000000 0.001685 0.000000
# 2 0.001101 0.010164 -0.001412 0.000000 0.000716 0.000000
# 3 -0.000247 -0.001412 0.017622 0.000000 -0.004988 0.000000
# 4 0.000000 0.000000 0.000000 0.031639 0.000000 0.013441
# 5 0.001685 0.000716 -0.004988 0.000000 0.025030 0.000000
# 6 0.000000 0.000000 0.000000 0.013441 0.000000 0.171070
#
#
# Mechanical properties :
#
#
# Convention : Reuss Voigt Hill
#
# Bulk Modulus (GPa) = 30.55471 34.28636 32.42053
# Shear Modulus (GPa) = 18.27422 39.45296 28.86359
#
# Velocity S-wave (km/s) = 2.63436 3.87075 3.31078
# Velocity P-wave (km/s) = 4.56690 5.74435 5.18913
#
# Compressibility (1/GPa) = 0.03272818
#
# Stress axis : x y z
#
# Youngs Moduli (GPa) = 165.07114 98.38180 56.74693
#
# Poissons Ratio (x) = -0.10830 0.01403
# Poissons Ratio (y) = -0.18171 0.08011
# Poissons Ratio (z) = 0.04082 0.13889
#
# Static dielectric constant tensor:
#      x y z
#    x 2.093920 0.000000 -0.063100 
#    y 0.000000 2.063490 0.000000 
#    z -0.063100 0.000000 2.251720 
# 
# From -- ./inp_files/85864.got.cif
#   From: 2010.05.17/outbox.cif.g08.bks.cpg/sg15_43_cif.got.tgz:85864.got - 2010.06.03 18:47:42.
