data_PCOD9272148
_publ_section_title
;
Structure prediction by ZEFSAII (Michael W. Deem and Ramdas Pophale) SiO2 
 PCOD9272148
Probable space group: C 2/C
;
_chemical_formula_sum "Si O2"
_cell_formula_units_Z 52
_cell_length_a 11.735914
_cell_length_b 14.831997
_cell_length_c 13.749861
_cell_angle_alpha 90.000000
_cell_angle_beta 58.838904
_cell_angle_gamma 90.000000
_cell_volume 2048.068172
_symmetry_space_group_name_H-M "C 2/C"
_symmetry_group_IT_number 15
_symmetry_cell_setting 'monoclinic'
loop_
_space_group_symop_operation_xyz
x,y,z
-x,y,1/2-z
-x,-y,-z
x,-y,1/2+z
1/2+x,1/2+y,z
1/2-x,1/2+y,1/2-z
1/2-x,1/2-y,-z
1/2+x,1/2-y,1/2+z
loop_
_atom_site_type_symbol
_atom_site_label
_atom_site_fract_x
_atom_site_fract_y
_atom_site_fract_z
Si Si1 0.426005 0.178545 0.877446
Si Si2 0.181222 0.902598 0.404195
Si Si3 0.860306 0.344517 0.823254
Si Si4 0.618387 0.981726 0.325973
Si Si5 0.563150 0.337612 0.902882
Si Si6 0.748184 0.955025 0.463468
Si Si7 0.000000 0.974145 0.750000
O O1 0.500000 0.216447 0.750000
O O2 0.271648 0.171722 0.920232
O O3 0.489985 0.080053 0.863515
O O4 0.480524 0.245289 0.932644
O O5 0.258478 0.922716 0.271513
O O6 0.024618 0.885978 0.474262
O O7 0.213036 0.987165 0.458994
O O8 0.887426 0.428493 0.736116
O O9 0.715956 0.311648 0.851035
O O10 0.000000 0.291330 0.750000
O O11 0.826631 0.372136 0.950288
O O12 0.650077 0.995123 0.424557
O O13 0.549100 0.406197 0.816072
O O14 0.886018 0.962175 0.343784
#
# Coordination Sequence:
#
# PCOD9272148 Si02
#       7
#     8   8   8   8   8   8   4
#     4  10  20  38  61  89 127 157 208 260 318 372
#     4   9  21  35  61  95 121 156 207 267 315 366
#     4  11  24  40  61  90 128 168 214 255 309 374
#     4  10  20  39  61  90 124 166 207 258 310 367
#     4  11  21  39  61  92 124 162 207 264 313 366
#     4  10  21  37  62  90 124 167 209 257 311 372
#     4  10  20  36  64  94 118 154 214 260 318 366
#
# _framework density 25.389779999999998
#
# number of rings (size 3 to 8) (size 9 to 14) (size 15 to 20)
#    0.000    1.846    2.308    2.769    2.154    4.308 
#    0.000    0.769    1.692    0.000    0.000    0.000 
#    0.000    0.000    0.000    0.000    0.000    0.000 
#
# Total GULP energy -144995.145503 kJ/mol
# GULP energy per Si atom -5576.736365 kJ/mol
# Density = 2.533199 g / cm^3
# Si number density = 25.389780 Si / 1000 Ang^3
#
#
#
# Elastic Constant Matrix: (Units=GPa)
#
#
# Indices 1 2 3 4 5 6 
#
# 1 143.1531 16.1412 48.4033 0.0000 -39.0386 0.0000
# 2 16.1412 35.2855 9.8928 0.0000 -8.7989 0.0000
# 3 48.4033 9.8928 116.1892 0.0000 -30.1946 0.0000
# 4 0.0000 0.0000 0.0000 12.8309 0.0000 7.0776
# 5 -39.0386 -8.7989 -30.1946 0.0000 64.9044 0.0000
# 6 0.0000 0.0000 0.0000 7.0776 0.0000 13.8562
#
#
#
# Elastic Compliance Matrix: (Units=1/GPa)
#
#
# Indices 1 2 3 4 5 6 
#
# 1 0.009238 -0.002499 -0.002593 0.000000 0.004011 0.000000
# 2 -0.002499 0.030294 -0.000980 0.000000 0.002148 0.000000
# 3 -0.002593 -0.000980 0.010614 0.000000 0.003245 0.000000
# 4 0.000000 0.000000 0.000000 0.108510 0.000000 -0.055426
# 5 0.004011 0.002148 0.003245 0.000000 0.019621 0.000000
# 6 0.000000 0.000000 0.000000 -0.055426 0.000000 0.100481
#
#
# Mechanical properties :
#
#
# Convention : Reuss Voigt Hill
#
# Bulk Modulus (GPa) = 26.31494 49.27805 37.79649
# Shear Modulus (GPa) = 16.47074 32.99765 24.73420
#
# Velocity S-wave (km/s) = 2.54975 3.60897 3.12457
# Velocity P-wave (km/s) = 4.36523 6.06770 5.28546
#
# Compressibility (1/GPa) = 0.03800123
#
# Stress axis : x y z
#
# Youngs Moduli (GPa) = 108.24844 33.01022 94.21746
#
# Poissons Ratio (x) = 0.08248 0.24433
# Poissons Ratio (y) = 0.27047 0.09235
# Poissons Ratio (z) = 0.28072 0.03236
#
# Static dielectric constant tensor:
#      x y z
#    x 2.109200 0.000000 0.035150 
#    y 0.000000 2.120670 0.000000 
#    z 0.035150 0.000000 2.010860 
# 
# From -- ./inp_files/145498.got.cif
#   From: 2010.05.17/outbox.cif.g08.bks.cpg/sg15_73_cif.got.tgz:145498.got - 2010.06.03 18:47:42.
