data_PCOD9272038
_publ_section_title
;
Structure prediction by ZEFSAII (Michael W. Deem and Ramdas Pophale) SiO2 
 PCOD9272038
Probable space group: C 2/C
;
_chemical_formula_sum "Si O2"
_cell_formula_units_Z 60
_cell_length_a 19.199282
_cell_length_b 8.772068
_cell_length_c 20.502601
_cell_angle_alpha 90.000000
_cell_angle_beta 125.972513
_cell_angle_gamma 90.000000
_cell_volume 2794.504923
_symmetry_space_group_name_H-M "C 2/C"
_symmetry_group_IT_number 15
_symmetry_cell_setting 'monoclinic'
loop_
_space_group_symop_operation_xyz
x,y,z
-x,y,1/2-z
-x,-y,-z
x,-y,1/2+z
1/2+x,1/2+y,z
1/2-x,1/2+y,1/2-z
1/2-x,1/2-y,-z
1/2+x,1/2-y,1/2+z
loop_
_atom_site_type_symbol
_atom_site_label
_atom_site_fract_x
_atom_site_fract_y
_atom_site_fract_z
Si Si1 0.793958 0.156445 0.927355
Si Si2 0.386608 0.784827 0.104494
Si Si3 0.061369 0.163781 0.674621
Si Si4 0.785361 0.360165 0.791805
Si Si5 0.000000 0.051318 0.250000
Si Si6 0.955831 0.568100 0.079919
Si Si7 0.377981 0.579827 0.386072
Si Si8 0.606814 0.085096 0.584927
O O1 0.698994 0.158711 0.905686
O O2 0.788226 0.263654 0.860217
O O3 0.829660 0.995268 0.920908
O O4 0.856953 0.219621 0.017984
O O5 0.438298 0.658281 0.172894
O O6 0.445089 0.932366 0.124256
O O7 0.144588 0.274559 0.715529
O O8 0.056115 0.056843 0.734200
O O9 0.978201 0.272436 0.624592
O O10 0.063638 0.050510 0.613711
O O11 0.694999 0.377809 0.707021
O O12 0.812286 0.531498 0.828143
O O13 0.036317 0.527814 0.077209
O O14 0.879371 0.566030 0.984825
O O15 0.422416 0.740780 0.423565
#
# Coordination Sequence:
#
# PCOD9272038 Si02
#       8
#     8   8   8   8   4   8   8   8
#     4  10  23  42  64  92 128 166 217 258 314 381
#     4  11  24  44  64  89 128 177 209 260 317 380
#     4  10  24  40  61  96 124 160 209 262 306 379
#     4  10  20  42  64  93 128 161 206 259 315 383
#     4  12  26  42  66  94 128 166 214 266 316 374
#     4  10  22  40  62  86 124 163 204 251 314 377
#     4  11  22  37  66  96 123 162 207 265 314 368
#     4  10  20  36  63  92 121 158 203 254 313 371
#
# _framework density 21.470707000000001
#
# number of rings (size 3 to 8) (size 9 to 14) (size 15 to 20)
#    0.000    1.600    1.333    3.200    3.733    4.267 
#    0.000    0.667    0.000    0.000    0.000    0.000 
#    0.000    0.000    0.000    0.000    0.000    0.000 
#
# Total GULP energy -167545.924335 kJ/mol
# GULP energy per Si atom -5584.864144 kJ/mol
# Density = 2.142184 g / cm^3
# Si number density = 21.470707 Si / 1000 Ang^3
#
#
#
# Elastic Constant Matrix: (Units=GPa)
#
#
# Indices 1 2 3 4 5 6 
#
# 1 42.8337 11.6487 22.7178 0.0000 -19.0532 0.0000
# 2 11.6487 123.1150 34.0998 0.0000 -14.0479 0.0000
# 3 22.7178 34.0998 79.3369 0.0000 -9.4833 0.0000
# 4 0.0000 0.0000 0.0000 29.8085 0.0000 -13.3679
# 5 -19.0532 -14.0479 -9.4833 0.0000 20.3779 0.0000
# 6 0.0000 0.0000 0.0000 -13.3679 0.0000 37.2536
#
#
#
# Elastic Compliance Matrix: (Units=1/GPa)
#
#
# Indices 1 2 3 4 5 6 
#
# 1 0.045374 0.002891 -0.009452 0.000000 0.040019 0.000000
# 2 0.002891 0.009866 -0.004164 0.000000 0.007566 0.000000
# 3 -0.009452 -0.004164 0.016626 0.000000 -0.003970 0.000000
# 4 0.000000 0.000000 0.000000 0.039981 0.000000 0.014347
# 5 0.040019 0.007566 -0.003970 0.000000 0.089858 0.000000
# 6 0.000000 0.000000 0.000000 0.014347 0.000000 0.031991
#
#
# Mechanical properties :
#
#
# Convention : Reuss Voigt Hill
#
# Bulk Modulus (GPa) = 19.83479 42.46872 31.15175
# Shear Modulus (GPa) = 18.38571 29.27594 23.83083
#
# Velocity S-wave (km/s) = 2.92946 3.69661 3.33516
# Velocity P-wave (km/s) = 4.54978 6.16787 5.41955
#
# Compressibility (1/GPa) = 0.05041648
#
# Stress axis : x y z
#
# Youngs Moduli (GPa) = 22.03917 101.36285 60.14692
#
# Poissons Ratio (x) = -0.29304 0.56849
# Poissons Ratio (y) = -0.06372 0.25044
# Poissons Ratio (z) = 0.20831 0.42205
#
# Static dielectric constant tensor:
#      x y z
#    x 1.787170 0.000000 0.032810 
#    y 0.000000 1.786630 0.000000 
#    z 0.032810 0.000000 1.858170 
# 
# From -- ./inp_files/252135.got.cif
#   From: 2010.05.17/outbox.cif.g08.bks.cpg/sg15_127_cif.got.tgz:252135.got - 2010.06.03 18:47:42.
