data_PCOD9272214
_publ_section_title
;
Structure prediction by ZEFSAII (Michael W. Deem and Ramdas Pophale) SiO2 
 PCOD9272214
Probable space group: C 2/C
;
_chemical_formula_sum "Si O2"
_cell_formula_units_Z 56
_cell_length_a 16.076340
_cell_length_b 7.258984
_cell_length_c 27.215800
_cell_angle_alpha 90.000000
_cell_angle_beta 53.865639
_cell_angle_gamma 90.000000
_cell_volume 2565.074631
_symmetry_space_group_name_H-M "C 2/C"
_symmetry_group_IT_number 15
_symmetry_cell_setting 'monoclinic'
loop_
_space_group_symop_operation_xyz
x,y,z
-x,y,1/2-z
-x,-y,-z
x,-y,1/2+z
1/2+x,1/2+y,z
1/2-x,1/2+y,1/2-z
1/2-x,1/2-y,-z
1/2+x,1/2-y,1/2+z
loop_
_atom_site_type_symbol
_atom_site_label
_atom_site_fract_x
_atom_site_fract_y
_atom_site_fract_z
Si Si1 0.274980 0.934871 0.109008
Si Si2 0.257124 0.195870 0.940909
Si Si3 0.037031 0.094699 0.683588
Si Si4 0.025451 0.350512 0.185603
Si Si5 0.828336 0.367429 0.198847
Si Si6 0.112994 0.941139 0.946202
Si Si7 0.363953 0.563454 0.668684
O O1 0.287162 0.963910 0.163734
O O2 0.358678 0.774102 0.069500
O O3 0.281448 0.123971 0.076274
O O4 0.158584 0.863120 0.138195
O O5 0.364521 0.127319 0.879085
O O6 0.184998 0.020232 0.962677
O O7 0.250000 0.250000 0.000000
O O8 0.023489 0.872638 0.689482
O O9 0.000000 0.163097 0.750000
O O10 0.962874 0.141905 0.663473
O O11 0.000000 0.413034 0.250000
O O12 0.934871 0.437598 0.184350
O O13 0.738658 0.362564 0.270254
O O14 0.855827 0.156673 0.178408
O O15 0.136272 0.065260 0.889712
O O16 0.000000 0.000000 0.000000
#
# Coordination Sequence:
#
# PCOD9272214 Si02
#       7
#     8   8   8   8   8   8   8
#     4  10  23  43  67  95 136 171 226 272 339 398
#     4  11  26  46  70  95 132 178 226 277 342 404
#     4   9  16  34  63  94 125 170 208 266 332 392
#     4   9  19  37  65  92 132 170 218 273 333 393
#     4  10  20  36  65  98 129 169 219 274 332 397
#     4  11  27  46  64  95 135 176 226 279 331 403
#     4  10  21  37  63  96 134 167 217 275 337 392
#
# _framework density 21.831724000000001
#
# number of rings (size 3 to 8) (size 9 to 14) (size 15 to 20)
#    0.000    2.000    1.429    0.857   12.000    1.143 
#    2.571    0.714    0.000    0.000    0.000    0.000 
#    0.000    0.000    0.000    0.000    0.000    0.000 
#
# Total GULP energy -156091.003859 kJ/mol
# GULP energy per Si atom -5574.678709 kJ/mol
# Density = 2.178203 g / cm^3
# Si number density = 21.831724 Si / 1000 Ang^3
#
#
#
# Elastic Constant Matrix: (Units=GPa)
#
#
# Indices 1 2 3 4 5 6 
#
# 1 99.6713 27.7224 25.8175 0.0000 -2.7868 0.0010
# 2 27.7224 69.1764 27.6488 0.0001 3.8255 0.0019
# 3 25.8175 27.6488 82.9194 0.0001 3.0081 -0.0003
# 4 0.0000 0.0001 0.0001 23.7760 0.0000 13.5809
# 5 -2.7868 3.8255 3.0081 0.0000 38.2039 0.0001
# 6 0.0010 0.0019 -0.0003 13.5809 0.0001 27.2088
#
#
#
# Elastic Compliance Matrix: (Units=1/GPa)
#
#
# Indices 1 2 3 4 5 6 
#
# 1 0.011768 -0.003819 -0.002443 0.000000 0.001433 0.000000
# 2 -0.003819 0.017976 -0.004743 0.000001 -0.001705 -0.000002
# 3 -0.002443 -0.004743 0.014432 0.000000 -0.000840 0.000001
# 4 0.000000 0.000001 0.000000 0.058833 0.000000 -0.029366
# 5 0.001433 -0.001705 -0.000840 0.000000 0.026517 0.000000
# 6 0.000000 -0.000002 0.000001 -0.029366 0.000000 0.051411
#
#
# Mechanical properties :
#
#
# Convention : Reuss Voigt Hill
#
# Bulk Modulus (GPa) = 45.11156 46.01604 45.56380
# Shear Modulus (GPa) = 23.77152 29.20962 26.49057
#
# Velocity S-wave (km/s) = 3.30336 3.66176 3.48717
# Velocity P-wave (km/s) = 5.93782 6.24511 6.09340
#
# Compressibility (1/GPa) = 0.02216727
#
# Stress axis : x y z
#
# Youngs Moduli (GPa) = 84.97655 55.62877 69.28829
#
# Poissons Ratio (x) = 0.21244 0.16924
# Poissons Ratio (y) = 0.32452 0.32864
# Poissons Ratio (z) = 0.20757 0.26385
#
# Static dielectric constant tensor:
#      x y z
#    x 1.829640 0.000000 -0.042030 
#    y 0.000000 1.820070 0.000000 
#    z -0.042030 0.000000 1.682250 
# 
# From -- ./inp_files/312855.got.cif
#   From: 2010.05.17/outbox.cif.g08.bks.cpg/sg15_157_cif.got.tgz:312855.got - 2010.06.03 18:47:42.
