data_PCOD9272345
_publ_section_title
;
Structure prediction by ZEFSAII (Michael W. Deem and Ramdas Pophale) SiO2 
 PCOD9272345
Probable space group: C 2/C
;
_chemical_formula_sum "Si O2"
_cell_formula_units_Z 48
_cell_length_a 22.072759
_cell_length_b 11.350058
_cell_length_c 15.524003
_cell_angle_alpha 90.000000
_cell_angle_beta 149.767199
_cell_angle_gamma 90.000000
_cell_volume 1958.260800
_symmetry_space_group_name_H-M "C 2/C"
_symmetry_group_IT_number 15
_symmetry_cell_setting 'monoclinic'
loop_
_space_group_symop_operation_xyz
x,y,z
-x,y,1/2-z
-x,-y,-z
x,-y,1/2+z
1/2+x,1/2+y,z
1/2-x,1/2+y,1/2-z
1/2-x,1/2-y,-z
1/2+x,1/2-y,1/2+z
loop_
_atom_site_type_symbol
_atom_site_label
_atom_site_fract_x
_atom_site_fract_y
_atom_site_fract_z
Si Si1 0.000000 0.143604 0.750000
Si Si2 0.650693 0.802660 0.316093
Si Si3 0.078812 0.881029 0.601720
Si Si4 0.771475 0.981241 0.940427
Si Si5 0.000000 0.473355 0.250000
Si Si6 0.606426 0.759036 0.724654
Si Si7 0.238663 0.458767 0.106074
O O1 0.905739 0.061435 0.581167
O O2 0.912003 0.224776 0.698179
O O3 0.750000 0.750000 0.500000
O O4 0.577159 0.695718 0.186473
O O5 0.564850 0.888363 0.262847
O O6 0.727013 0.893292 0.349888
O O7 0.023088 0.781261 0.471123
O O8 0.213024 0.937863 0.771726
O O9 0.000000 0.000000 0.500000
O O10 0.668930 0.884698 0.793226
O O11 0.777948 0.987326 0.054255
O O12 0.096241 0.545707 0.423083
O O13 0.698798 0.664478 0.797177
#
# Coordination Sequence:
#
# PCOD9272345 Si02
#       7
#     4   8   8   8   4   8   8
#     4  10  20  40  66  94 128 173 215 254 324 392
#     4  11  22  42  64  93 129 167 216 259 314 387
#     4  10  21  43  62  87 132 167 201 268 323 371
#     4  10  21  37  65  94 123 169 214 266 313 377
#     4  10  20  36  72  92 118 173 217 256 310 388
#     4  10  22  38  65  94 133 164 211 267 319 380
#     4   9  18  38  62  92 120 161 207 252 314 380
#
# _framework density 24.511545000000002
#
# number of rings (size 3 to 8) (size 9 to 14) (size 15 to 20)
#    0.000    2.000    3.333    2.000    0.000    7.333 
#    3.000    0.000    7.333    0.000    0.000    0.000 
#    0.000    0.000    0.000    0.000    0.000    0.000 
#
# Total GULP energy -133831.545176 kJ/mol
# GULP energy per Si atom -5576.314382 kJ/mol
# Density = 2.445576 g / cm^3
# Si number density = 24.511545 Si / 1000 Ang^3
#
#
#
# Elastic Constant Matrix: (Units=GPa)
#
#
# Indices 1 2 3 4 5 6 
#
# 1 22.9831 14.0761 10.9162 0.0000 11.0502 0.0000
# 2 14.0761 150.6780 54.2234 0.0000 -1.1874 0.0000
# 3 10.9162 54.2234 127.6285 0.0000 4.7855 0.0000
# 4 0.0000 0.0000 0.0000 34.1169 0.0000 -13.6123
# 5 11.0502 -1.1874 4.7855 0.0000 32.7944 0.0000
# 6 0.0000 0.0000 0.0000 -13.6123 0.0000 27.5991
#
#
#
# Elastic Compliance Matrix: (Units=1/GPa)
#
#
# Indices 1 2 3 4 5 6 
#
# 1 0.056454 -0.004651 -0.002145 0.000000 -0.018878 0.000000
# 2 -0.004651 0.008237 -0.003189 0.000000 0.002331 0.000000
# 3 -0.002145 -0.003189 0.009402 0.000000 -0.000765 0.000000
# 4 0.000000 0.000000 0.000000 0.036492 0.000000 0.017999
# 5 -0.018878 0.002331 -0.000765 0.000000 0.037050 0.000000
# 6 0.000000 0.000000 0.000000 0.017999 0.000000 0.045110
#
#
# Mechanical properties :
#
#
# Convention : Reuss Voigt Hill
#
# Bulk Modulus (GPa) = 18.47623 51.08011 34.77817
# Shear Modulus (GPa) = 21.66790 33.70701 27.68745
#
# Velocity S-wave (km/s) = 2.97642 3.71232 3.36455
# Velocity P-wave (km/s) = 4.40071 6.26575 5.41414
#
# Compressibility (1/GPa) = 0.05412360
#
# Stress axis : x y z
#
# Youngs Moduli (GPa) = 17.71364 121.40085 106.35681
#
# Poissons Ratio (x) = 0.56460 0.22812
# Poissons Ratio (y) = 0.08238 0.33919
# Poissons Ratio (z) = 0.03799 0.38717
#
# Static dielectric constant tensor:
#      x y z
#    x 2.089600 0.000000 -0.013710 
#    y 0.000000 1.984540 0.000000 
#    z -0.013710 0.000000 2.060320 
# 
# From -- ./inp_files/259257.got.cif
#   From: 2010.05.17/outbox.cif.g08.bks.cpg/sg15_130_cif.got.tgz:259257.got - 2010.06.03 18:47:42.
