data_PCOD9272717
_publ_section_title
;
Structure prediction by ZEFSAII (Michael W. Deem and Ramdas Pophale) SiO2 
 PCOD9272717
Probable space group: C 2/C
;
_chemical_formula_sum "Si O2"
_cell_formula_units_Z 48
_cell_length_a 21.012745
_cell_length_b 9.652825
_cell_length_c 9.264717
_cell_angle_alpha 90.000000
_cell_angle_beta 102.998467
_cell_angle_gamma 90.000000
_cell_volume 1831.032261
_symmetry_space_group_name_H-M "C 2/C"
_symmetry_group_IT_number 15
_symmetry_cell_setting 'monoclinic'
loop_
_space_group_symop_operation_xyz
x,y,z
-x,y,1/2-z
-x,-y,-z
x,-y,1/2+z
1/2+x,1/2+y,z
1/2-x,1/2+y,1/2-z
1/2-x,1/2-y,-z
1/2+x,1/2-y,1/2+z
loop_
_atom_site_type_symbol
_atom_site_label
_atom_site_fract_x
_atom_site_fract_y
_atom_site_fract_z
Si Si1 0.626816 0.250144 0.138133
Si Si2 0.072654 0.516445 0.475700
Si Si3 0.563344 0.604316 0.381545
Si Si4 0.232464 0.969117 0.188667
Si Si5 0.666813 0.375750 0.433532
Si Si6 0.877351 0.360564 0.251058
O O1 0.620669 0.099645 0.070565
O O2 0.684209 0.347898 0.106289
O O3 0.644986 0.251502 0.316300
O O4 0.561810 0.328201 0.042513
O O5 0.077149 0.472485 0.312213
O O6 0.101313 0.650572 0.570577
O O7 0.000000 0.500000 0.500000
O O8 0.500000 0.592471 0.250000
O O9 0.600082 0.460428 0.416692
O O10 0.606884 0.715646 0.315551
O O11 0.214322 0.964103 0.348310
O O12 0.304762 0.917544 0.198874
O O13 0.208684 0.112496 0.101582
#
# Coordination Sequence:
#
# PCOD9272717 Si02
#       6
#     8   8   8   8   8   8
#     4   8  20  38  58  84 119 150 190 247 291 340
#     4  11  22  40  59  83 123 158 201 235 291 356
#     4  10  20  37  60  84 114 158 200 233 289 359
#     4   9  19  37  61  89 116 149 194 243 302 345
#     4   9  19  39  57  89 114 150 194 241 301 346
#     4  11  22  37  62  88 115 157 196 247 288 348
#
# _framework density 26.214721999999998
#
# number of rings (size 3 to 8) (size 9 to 14) (size 15 to 20)
#    1.000    1.333    0.000    3.500    0.000    8.000 
#    3.000    2.500    0.000    0.000    0.000    0.000 
#    0.000    0.000    0.000    0.000    0.000    0.000 
#
# Total GULP energy -133829.838104 kJ/mol
# GULP energy per Si atom -5576.243254 kJ/mol
# Density = 2.615506 g / cm^3
# Si number density = 26.214722 Si / 1000 Ang^3
#
#
#
# Elastic Constant Matrix: (Units=GPa)
#
#
# Indices 1 2 3 4 5 6 
#
# 1 83.1275 -4.6215 25.1953 0.0000 19.0687 0.0000
# 2 -4.6215 55.9701 0.8751 0.0000 11.6981 0.0000
# 3 25.1953 0.8751 115.0333 0.0000 -0.9645 0.0000
# 4 0.0000 0.0000 0.0000 46.7731 0.0000 -0.5292
# 5 19.0687 11.6981 -0.9645 0.0000 52.6257 0.0000
# 6 0.0000 0.0000 0.0000 -0.5292 0.0000 20.9655
#
#
#
# Elastic Compliance Matrix: (Units=1/GPa)
#
#
# Indices 1 2 3 4 5 6 
#
# 1 0.014494 0.002473 -0.003243 0.000000 -0.005861 0.000000
# 2 0.002473 0.019163 -0.000731 0.000000 -0.005169 0.000000
# 3 -0.003243 -0.000731 0.009422 0.000000 0.001510 0.000000
# 4 0.000000 0.000000 0.000000 0.021386 0.000000 0.000540
# 5 -0.005861 -0.005169 0.001510 0.000000 0.022302 0.000000
# 6 0.000000 0.000000 0.000000 0.000540 0.000000 0.047711
#
#
# Mechanical properties :
#
#
# Convention : Reuss Voigt Hill
#
# Bulk Modulus (GPa) = 24.95191 33.00319 28.97755
# Shear Modulus (GPa) = 33.14800 39.58500 36.36650
#
# Velocity S-wave (km/s) = 3.55981 3.89013 3.72863
# Velocity P-wave (km/s) = 5.14153 5.72663 5.44195
#
# Compressibility (1/GPa) = 0.04007710
#
# Stress axis : x y z
#
# Youngs Moduli (GPa) = 68.99194 52.18499 106.13940
#
# Poissons Ratio (x) = -0.12903 0.34417
# Poissons Ratio (y) = -0.17058 0.07755
# Poissons Ratio (z) = 0.22371 0.03813
#
# Static dielectric constant tensor:
#      x y z
#    x 2.044160 0.000000 -0.067120 
#    y 0.000000 2.136610 0.000000 
#    z -0.067120 0.000000 2.213070 
# 
# From -- ./inp_files/117234.got.cif
#   From: 2010.05.17/outbox.cif.g08.bks.cpg/sg15_59_cif.got.tgz:117234.got - 2010.06.03 18:47:42.
