data_PCOD9272463
_publ_section_title
;
Structure prediction by ZEFSAII (Michael W. Deem and Ramdas Pophale) SiO2 
 PCOD9272463
Probable space group: C 2/C
;
_chemical_formula_sum "Si O2"
_cell_formula_units_Z 48
_cell_length_a 14.060179
_cell_length_b 10.238398
_cell_length_c 26.604065
_cell_angle_alpha 90.000000
_cell_angle_beta 141.756446
_cell_angle_gamma 90.000000
_cell_volume 2370.639038
_symmetry_space_group_name_H-M "C 2/C"
_symmetry_group_IT_number 15
_symmetry_cell_setting 'monoclinic'
loop_
_space_group_symop_operation_xyz
x,y,z
-x,y,1/2-z
-x,-y,-z
x,-y,1/2+z
1/2+x,1/2+y,z
1/2-x,1/2+y,1/2-z
1/2-x,1/2-y,-z
1/2+x,1/2-y,1/2+z
loop_
_atom_site_type_symbol
_atom_site_label
_atom_site_fract_x
_atom_site_fract_y
_atom_site_fract_z
Si Si1 0.657604 0.103815 0.164179
Si Si2 0.755932 0.877834 0.819531
Si Si3 0.968409 0.146535 0.005412
Si Si4 0.182129 0.335356 0.330011
Si Si5 0.170092 0.105073 0.829467
Si Si6 0.158114 0.325967 0.004793
O O1 0.704905 0.107680 0.241408
O O2 0.731450 0.234941 0.171105
O O3 0.475332 0.098761 0.079778
O O4 0.722409 0.980741 0.161147
O O5 0.675647 0.754754 0.812915
O O6 0.709093 0.014387 0.825542
O O7 0.938140 0.848743 0.903620
O O8 0.787467 0.178295 0.924577
O O9 0.063659 0.236370 0.005563
O O10 0.000000 0.000000 0.000000
O O11 0.000000 0.309273 0.250000
O O12 0.000000 0.053812 0.750000
O O13 0.226555 0.097455 0.910476
O O14 0.250000 0.250000 0.000000
#
# Coordination Sequence:
#
# PCOD9272463 Si02
#       6
#     8   8   8   8   8   8
#     4  11  22  37  56  85 117 145 182 239 291 329
#     4  10  20  37  58  80 109 151 193 230 274 341
#     4   8  18  35  55  78 107 140 182 230 272 322
#     4  10  20  37  57  79 110 149 185 228 284 339
#     4  11  22  37  57  85 116 149 188 234 282 337
#     4  10  21  37  59  83 111 150 192 231 279 338
#
# _framework density 20.247706000000001
#
# number of rings (size 3 to 8) (size 9 to 14) (size 15 to 20)
#    0.000    2.000    0.000    3.500    0.000    5.333 
#    0.000    0.833    0.000    0.000    0.000    0.000 
#    0.000    0.000    0.000    0.000    0.000    0.000 
#
# Total GULP energy -133745.206130 kJ/mol
# GULP energy per Si atom -5572.716922 kJ/mol
# Density = 2.020162 g / cm^3
# Si number density = 20.247706 Si / 1000 Ang^3
#
#
#
# Elastic Constant Matrix: (Units=GPa)
#
#
# Indices 1 2 3 4 5 6 
#
# 1 35.5422 8.7076 68.8247 0.0000 -1.8705 0.0000
# 2 8.7076 51.1660 -0.3526 0.0000 3.9076 0.0000
# 3 68.8247 -0.3526 249.0381 0.0000 -1.8477 0.0000
# 4 0.0000 0.0000 0.0000 2.2714 0.0000 1.2795
# 5 -1.8705 3.9076 -1.8477 0.0000 44.3412 0.0000
# 6 0.0000 0.0000 0.0000 1.2795 0.0000 22.5311
#
#
#
# Elastic Compliance Matrix: (Units=1/GPa)
#
#
# Indices 1 2 3 4 5 6 
#
# 1 0.067057 -0.011776 -0.018526 0.000000 0.003095 0.000000
# 2 -0.011776 0.021745 0.003268 0.000000 -0.002277 0.000000
# 3 -0.018526 0.003268 0.009135 0.000000 -0.000689 0.000000
# 4 0.000000 0.000000 0.000000 0.454809 0.000000 -0.025827
# 5 0.003095 -0.002277 -0.000689 0.000000 0.022855 0.000000
# 6 0.000000 0.000000 0.000000 -0.025827 0.000000 0.045850
#
#
# Mechanical properties :
#
#
# Convention : Reuss Voigt Hill
#
# Bulk Modulus (GPa) = 22.79471 54.45618 38.62544
# Shear Modulus (GPa) = 7.24490 31.06651 19.15571
#
# Velocity S-wave (km/s) = 1.89365 3.92129 3.07916
# Velocity P-wave (km/s) = 4.00794 6.88879 5.63556
#
# Compressibility (1/GPa) = 0.04386982
#
# Stress axis : x y z
#
# Youngs Moduli (GPa) = 14.91264 45.98817 109.47157
#
# Poissons Ratio (x) = 0.54156 2.02805
# Poissons Ratio (y) = 0.17561 -0.35779
# Poissons Ratio (z) = 0.27627 -0.15030
#
# Static dielectric constant tensor:
#      x y z
#    x 1.684510 0.000000 0.019920 
#    y 0.000000 1.711970 0.000000 
#    z 0.019920 0.000000 1.805890 
# 
# From -- ./inp_files/296212.got.cif
#   From: 2010.05.17/outbox.cif.g08.bks.cpg/sg15_149_cif.got.tgz:296212.got - 2010.06.03 18:47:42.
