data_PCOD9272158
_publ_section_title
;
Structure prediction by ZEFSAII (Michael W. Deem and Ramdas Pophale) SiO2 
 PCOD9272158
Probable space group: C 2/C
;
_chemical_formula_sum "Si O2"
_cell_formula_units_Z 44
_cell_length_a 16.897107
_cell_length_b 8.149780
_cell_length_c 26.965174
_cell_angle_alpha 90.000000
_cell_angle_beta 31.754158
_cell_angle_gamma 90.000000
_cell_volume 1954.225738
_symmetry_space_group_name_H-M "C 2/C"
_symmetry_group_IT_number 15
_symmetry_cell_setting 'monoclinic'
loop_
_space_group_symop_operation_xyz
x,y,z
-x,y,1/2-z
-x,-y,-z
x,-y,1/2+z
1/2+x,1/2+y,z
1/2-x,1/2+y,1/2-z
1/2-x,1/2-y,-z
1/2+x,1/2-y,1/2+z
loop_
_atom_site_type_symbol
_atom_site_label
_atom_site_fract_x
_atom_site_fract_y
_atom_site_fract_z
Si Si1 0.500000 0.630824 0.250000
Si Si2 0.177315 0.903364 0.511403
Si Si3 0.316195 0.058548 0.348082
Si Si4 0.105086 0.743069 0.798211
Si Si5 0.625564 0.127294 0.288260
Si Si6 0.353865 0.647350 0.893137
O O1 0.424753 0.730666 0.244681
O O2 0.607339 0.506525 0.162888
O O3 0.250000 0.750000 0.500000
O O4 0.238252 0.921296 0.423423
O O5 0.002201 0.867993 0.614316
O O6 0.222013 0.065494 0.518786
O O7 0.500000 0.046372 0.250000
O O8 0.274475 0.081281 0.313480
O O9 0.274354 0.225127 0.399379
O O10 0.273388 0.790209 0.723748
O O11 0.067656 0.555010 0.832908
O O12 0.501834 0.256859 0.334770
#
# Coordination Sequence:
#
# PCOD9272158 Si02
#       6
#     4   8   8   8   8   8
#     4  10  20  36  64  96 122 168 218 258 324 396
#     4  11  23  38  63  99 134 167 222 270 318 393
#     4  10  21  38  65  92 127 177 218 269 332 384
#     4  11  25  39  66  96 132 173 220 268 330 382
#     4  11  23  43  68  96 133 176 217 271 326 394
#     4  10  20  39  68  93 129 169 216 263 326 387
#
# _framework density 22.515309999999999
#
# number of rings (size 3 to 8) (size 9 to 14) (size 15 to 20)
#    0.000    1.455    2.727    4.909    8.909    0.727 
#    0.000    0.000    0.000    3.273    0.000    0.000 
#    0.000    0.000    0.000    0.000    0.000    0.000 
#
# Total GULP energy -122817.738913 kJ/mol
# GULP energy per Si atom -5582.624496 kJ/mol
# Density = 2.246406 g / cm^3
# Si number density = 22.515310 Si / 1000 Ang^3
#
#
#
# Elastic Constant Matrix: (Units=GPa)
#
#
# Indices 1 2 3 4 5 6 
#
# 1 121.8036 33.5640 25.9298 0.0001 2.0090 -0.0001
# 2 33.5640 122.9565 12.3937 0.0001 -2.2864 -0.0002
# 3 25.9298 12.3937 69.6574 -0.0001 25.3192 -0.0001
# 4 0.0001 0.0001 -0.0001 37.5960 0.0000 7.2415
# 5 2.0090 -2.2864 25.3192 0.0000 35.3176 -0.0001
# 6 -0.0001 -0.0002 -0.0001 7.2415 -0.0001 33.8934
#
#
#
# Elastic Compliance Matrix: (Units=1/GPa)
#
#
# Indices 1 2 3 4 5 6 
#
# 1 0.009624 -0.002186 -0.003980 0.000000 0.002165 0.000000
# 2 -0.002186 0.008901 -0.001386 0.000000 0.001694 0.000000
# 3 -0.003980 -0.001386 0.021685 0.000000 -0.015410 0.000000
# 4 0.000000 0.000000 0.000000 0.027740 0.000000 -0.005927
# 5 0.002165 0.001694 -0.015410 0.000000 0.039348 0.000000
# 6 0.000000 0.000000 0.000000 -0.005927 0.000000 0.030771
#
#
# Mechanical properties :
#
#
# Convention : Reuss Voigt Hill
#
# Bulk Modulus (GPa) = 39.83060 50.91027 45.37044
# Shear Modulus (GPa) = 30.95184 37.53006 34.24095
#
# Velocity S-wave (km/s) = 3.71172 4.08716 3.90396
# Velocity P-wave (km/s) = 6.00816 6.70326 6.36520
#
# Compressibility (1/GPa) = 0.02510633
#
# Stress axis : x y z
#
# Youngs Moduli (GPa) = 103.90849 112.34993 46.11407
#
# Poissons Ratio (x) = 0.24555 0.18355
# Poissons Ratio (y) = 0.22710 0.06391
# Poissons Ratio (z) = 0.41360 0.15570
#
# Static dielectric constant tensor:
#      x y z
#    x 1.828070 0.000000 0.002340 
#    y 0.000000 1.907930 0.000000 
#    z 0.002340 0.000000 1.924360 
# 
# From -- ./inp_files/315476.got.cif
#   From: 2010.05.17/outbox.cif.g08.bks.cpg/sg15_158_cif.got.tgz:315476.got - 2010.06.03 18:47:42.
