data_PCOD9272962
_publ_section_title
;
Structure prediction by ZEFSAII (Michael W. Deem and Ramdas Pophale) SiO2 
 PCOD9272962
Probable space group: C 2/C
;
_chemical_formula_sum "Si O2"
_cell_formula_units_Z 60
_cell_length_a 6.171935
_cell_length_b 23.536206
_cell_length_c 18.563393
_cell_angle_alpha 90.000000
_cell_angle_beta 90.935225
_cell_angle_gamma 90.000000
_cell_volume 2696.232266
_symmetry_space_group_name_H-M "C 2/C"
_symmetry_group_IT_number 15
_symmetry_cell_setting 'monoclinic'
loop_
_space_group_symop_operation_xyz
x,y,z
-x,y,1/2-z
-x,-y,-z
x,-y,1/2+z
1/2+x,1/2+y,z
1/2-x,1/2+y,1/2-z
1/2-x,1/2-y,-z
1/2+x,1/2-y,1/2+z
loop_
_atom_site_type_symbol
_atom_site_label
_atom_site_fract_x
_atom_site_fract_y
_atom_site_fract_z
Si Si1 0.318659 0.492924 0.418060
Si Si2 0.251136 0.300891 0.884782
Si Si3 0.685356 0.431530 0.852768
Si Si4 0.500000 0.664320 0.250000
Si Si5 0.071655 0.546542 0.673615
Si Si6 0.126077 0.104869 0.929611
Si Si7 0.048971 0.596812 0.452452
Si Si8 0.041534 0.781334 0.028775
O O1 0.464129 0.535107 0.369807
O O2 0.489488 0.450177 0.454999
O O3 0.154781 0.534780 0.457571
O O4 0.146510 0.454220 0.374677
O O5 0.363988 0.298841 0.807460
O O6 0.154684 0.364380 0.891084
O O7 0.063971 0.258124 0.909601
O O8 0.414373 0.291354 0.952498
O O9 0.643828 0.379006 0.799628
O O10 0.843299 0.480951 0.823679
O O11 0.801891 0.409410 0.926872
O O12 0.268347 0.583426 0.643480
O O13 0.000000 0.566961 0.750000
O O14 0.962158 0.156892 0.934650
O O15 0.344184 0.122995 0.975349
O O16 0.250000 0.750000 0.000000
#
# Coordination Sequence:
#
# PCOD9272962 Si02
#       8
#     8   8   8   4   8   8   8   8
#     4  10  20  37  61  93 134 179 215 275 334 414
#     4  10  24  42  69 100 134 168 227 276 351 410
#     4  10  22  35  62  96 143 171 211 262 344 414
#     4  12  22  42  68 108 138 172 218 288 344 428
#     4  10  22  39  60  91 136 183 215 273 332 411
#     4  10  23  40  66  94 126 175 238 269 336 411
#     4  10  21  38  60  98 133 173 214 277 332 411
#     4  10  24  49  70  92 126 181 228 290 342 404
#
# _framework density 22.253276
#
# number of rings (size 3 to 8) (size 9 to 14) (size 15 to 20)
#    0.000    1.867    1.333    1.200    3.733   10.667 
#    1.200    0.000    2.933    0.000    0.000    0.000 
#    0.000    0.000    0.000    0.000    0.000    0.000 
#
# Total GULP energy -167181.203156 kJ/mol
# GULP energy per Si atom -5572.706772 kJ/mol
# Density = 2.220263 g / cm^3
# Si number density = 22.253276 Si / 1000 Ang^3
#
#
#
# Elastic Constant Matrix: (Units=GPa)
#
#
# Indices 1 2 3 4 5 6 
#
# 1 94.7322 53.7728 40.5477 0.0000 -14.8772 0.0000
# 2 53.7728 117.6014 45.3815 0.0000 -19.5660 0.0000
# 3 40.5477 45.3815 83.9803 0.0000 -35.5975 0.0000
# 4 0.0000 0.0000 0.0000 31.8218 0.0000 -10.2711
# 5 -14.8772 -19.5660 -35.5975 0.0000 46.9716 0.0000
# 6 0.0000 0.0000 0.0000 -10.2711 0.0000 17.1144
#
#
#
# Elastic Compliance Matrix: (Units=1/GPa)
#
#
# Indices 1 2 3 4 5 6 
#
# 1 0.015609 -0.005347 -0.005150 0.000000 -0.001186 0.000000
# 2 -0.005347 0.012576 -0.003995 0.000000 0.000518 0.000000
# 3 -0.005150 -0.003995 0.022329 0.000000 0.013627 0.000000
# 4 0.000000 0.000000 0.000000 0.038975 0.000000 0.023390
# 5 -0.001186 0.000518 0.013627 0.000000 0.031456 0.000000
# 6 0.000000 0.000000 0.000000 0.023390 0.000000 0.072468
#
#
# Mechanical properties :
#
#
# Convention : Reuss Voigt Hill
#
# Bulk Modulus (GPa) = 46.44586 63.96866 55.20726
# Shear Modulus (GPa) = 21.77951 29.62234 25.70093
#
# Velocity S-wave (km/s) = 3.13183 3.65244 3.40211
# Velocity P-wave (km/s) = 5.83049 6.82607 6.34783
#
# Compressibility (1/GPa) = 0.02153044
#
# Stress axis : x y z
#
# Youngs Moduli (GPa) = 64.06415 79.51663 44.78529
#
# Poissons Ratio (x) = 0.42521 0.23063
# Poissons Ratio (y) = 0.34258 0.17890
# Poissons Ratio (z) = 0.32992 0.31764
#
# Static dielectric constant tensor:
#      x y z
#    x 1.939770 0.000000 0.042960 
#    y 0.000000 1.870120 0.000000 
#    z 0.042960 0.000000 1.871440 
# 
# From -- ./inp_files/228137.got.cif
#   From: 2010.05.17/outbox.cif.g08.bks.cpg/sg15_115_cif.got.tgz:228137.got - 2010.06.03 18:47:42.
