data_PCOD9272231
_publ_section_title
;
Structure prediction by ZEFSAII (Michael W. Deem and Ramdas Pophale) SiO2 
 PCOD9272231
Probable space group: C 2/C
;
_chemical_formula_sum "Si O2"
_cell_formula_units_Z 44
_cell_length_a 4.964688
_cell_length_b 31.154177
_cell_length_c 13.125596
_cell_angle_alpha 90.000000
_cell_angle_beta 96.831651
_cell_angle_gamma 90.000000
_cell_volume 2015.731882
_symmetry_space_group_name_H-M "C 2/C"
_symmetry_group_IT_number 15
_symmetry_cell_setting 'monoclinic'
loop_
_space_group_symop_operation_xyz
x,y,z
-x,y,1/2-z
-x,-y,-z
x,-y,1/2+z
1/2+x,1/2+y,z
1/2-x,1/2+y,1/2-z
1/2-x,1/2-y,-z
1/2+x,1/2-y,1/2+z
loop_
_atom_site_type_symbol
_atom_site_label
_atom_site_fract_x
_atom_site_fract_y
_atom_site_fract_z
Si Si1 0.000000 0.917178 0.250000
Si Si2 0.006934 0.682178 0.134393
Si Si3 0.569084 0.548135 0.974127
Si Si4 0.457940 0.709877 0.015170
Si Si5 0.935357 0.601415 0.471646
Si Si6 0.332439 0.844223 0.157374
O O1 0.780004 0.883876 0.282960
O O2 0.063817 0.945145 0.351747
O O3 0.774326 0.708435 0.060630
O O4 0.000000 0.696257 0.250000
O O5 0.308401 0.686222 0.101871
O O6 0.974159 0.631065 0.118332
O O7 0.362704 0.582409 0.018077
O O8 0.869694 0.561008 0.018981
O O9 0.500000 0.500000 0.000000
O O10 0.250000 0.750000 0.000000
O O11 0.399384 0.683748 0.908338
O O12 0.990517 0.634115 0.569706
O O13 0.500000 0.818076 0.250000
#
# Coordination Sequence:
#
# PCOD9272231 Si02
#       6
#     4   8   8   8   8   8
#     4  10  20  38  60  90 120 164 220 246 320 406
#     4  11  23  44  68  88 127 179 216 256 324 398
#     4  11  22  38  60  90 132 161 205 277 329 365
#     4  11  25  42  62 100 133 160 216 281 326 378
#     4  10  21  40  60  92 121 165 220 261 310 395
#     4  10  20  36  66  88 123 166 215 261 319 387
#
# _framework density 21.828301
#
# number of rings (size 3 to 8) (size 9 to 14) (size 15 to 20)
#    0.000    1.455    1.818    4.909    2.545    1.455 
#    4.909    0.000    0.000    0.000    0.000    0.000 
#    0.000    0.000    0.000    0.000    0.000    0.000 
#
# Total GULP energy -122551.985236 kJ/mol
# GULP energy per Si atom -5570.544783 kJ/mol
# Density = 2.177862 g / cm^3
# Si number density = 21.828301 Si / 1000 Ang^3
#
#
#
# Elastic Constant Matrix: (Units=GPa)
#
#
# Indices 1 2 3 4 5 6 
#
# 1 100.3013 1.3046 20.0936 0.0000 -3.2463 0.0000
# 2 1.3046 67.7882 11.6177 0.0000 0.0972 0.0000
# 3 20.0936 11.6177 91.5888 0.0000 8.0695 0.0000
# 4 0.0000 0.0000 0.0000 -27.7670 0.0000 50.2923
# 5 -3.2463 0.0972 8.0695 0.0000 18.0634 0.0000
# 6 0.0000 0.0000 0.0000 50.2923 0.0000 -39.2855
#
#
#
# Elastic Compliance Matrix: (Units=1/GPa)
#
#
# Indices 1 2 3 4 5 6 
#
# 1 0.010592 0.000242 -0.002625 0.000000 0.003075 0.000000
# 2 0.000242 0.015096 -0.002045 0.000000 0.000876 0.000000
# 3 -0.002625 -0.002045 0.012278 0.000000 -0.005946 0.000000
# 4 0.000000 0.000000 0.000000 0.027310 0.000000 0.034962
# 5 0.003075 0.000876 -0.005946 0.000000 0.058565 0.000000
# 6 0.000000 0.000000 0.000000 0.034962 0.000000 0.019303
#
#
# Mechanical properties :
#
#
# Convention : Reuss Voigt Hill
#
# Bulk Modulus (GPa) = 34.35407 36.19000 35.27203
# Shear Modulus (GPa) = 30.92051 5.31301 18.11676
#
# Velocity S-wave (km/s) = 3.76777 1.56182 2.88404
# Velocity P-wave (km/s) = 5.89072 4.45733 5.22343
#
# Compressibility (1/GPa) = 0.02910864
#
# Stress axis : x y z
#
# Youngs Moduli (GPa) = 94.40824 66.24083 81.44904
#
# Poissons Ratio (x) = -0.01601 0.21384
# Poissons Ratio (y) = -0.02282 0.16657
# Poissons Ratio (z) = 0.24786 0.13547
#
# Static dielectric constant tensor:
#      x y z
#    x 1.846400 0.000000 0.063670 
#    y 0.000000 1.857540 0.000000 
#    z 0.063670 0.000000 1.816630 
# 
# From -- ./inp_files/73966.got.cif
#   From: 2010.05.17/outbox.cif.g08.bks.cpg/sg15_37_cif.got.tgz:73966.got - 2010.06.03 18:47:42.
