data_PCOD9272851
_publ_section_title
;
Structure prediction by ZEFSAII (Michael W. Deem and Ramdas Pophale) SiO2 
 PCOD9272851
Probable space group: C 2/C
;
_chemical_formula_sum "Si O2"
_cell_formula_units_Z 56
_cell_length_a 8.837201
_cell_length_b 13.671936
_cell_length_c 21.138660
_cell_angle_alpha 90.000000
_cell_angle_beta 80.396302
_cell_angle_gamma 90.000000
_cell_volume 2518.213981
_symmetry_space_group_name_H-M "C 2/C"
_symmetry_group_IT_number 15
_symmetry_cell_setting 'monoclinic'
loop_
_space_group_symop_operation_xyz
x,y,z
-x,y,1/2-z
-x,-y,-z
x,-y,1/2+z
1/2+x,1/2+y,z
1/2-x,1/2+y,1/2-z
1/2-x,1/2-y,-z
1/2+x,1/2-y,1/2+z
loop_
_atom_site_type_symbol
_atom_site_label
_atom_site_fract_x
_atom_site_fract_y
_atom_site_fract_z
Si Si1 0.040380 0.228403 0.185081
Si Si2 0.265302 0.365271 0.098743
Si Si3 0.190334 0.745778 0.902476
Si Si4 0.967227 0.154874 0.823091
Si Si5 0.478807 0.964785 0.072762
Si Si6 0.472313 0.605318 0.471391
Si Si7 0.809047 0.952156 0.850320
O O1 0.155777 0.279039 0.128853
O O2 0.133027 0.132362 0.199977
O O3 0.000000 0.289907 0.250000
O O4 0.883160 0.217938 0.158456
O O5 0.384265 0.377856 0.147480
O O6 0.145407 0.451807 0.092643
O O7 0.355181 0.343514 0.027865
O O8 0.367917 0.726054 0.875659
O O9 0.109687 0.640745 0.923042
O O10 0.124414 0.827763 0.954538
O O11 0.000000 0.192991 0.750000
O O12 0.866220 0.056837 0.822657
O O13 0.368521 0.036607 0.119767
O O14 0.500000 0.000000 0.000000
O O15 0.500000 0.500000 0.500000
O O16 0.395924 0.579035 0.409432
#
# Coordination Sequence:
#
# PCOD9272851 Si02
#       7
#     8   8   8   8   8   8   8
#     4  10  21  40  62  89 125 169 217 261 320 387
#     4  11  23  37  65  93 122 168 208 268 322 383
#     4   9  23  38  62  88 125 170 207 263 322 383
#     4  11  22  42  63  90 126 172 219 257 319 385
#     4  10  20  37  60  93 128 157 204 260 319 390
#     4  11  21  40  62  93 130 158 214 268 331 383
#     4  10  21  38  62  91 124 170 204 261 327 382
#
# _framework density 22.237984000000001
#
# number of rings (size 3 to 8) (size 9 to 14) (size 15 to 20)
#    0.000    1.714    2.857    1.286    2.000    2.286 
#    2.571    0.000    0.000    0.000    0.000    0.000 
#    0.000    0.000    0.000    0.000    0.000    0.000 
#
# Total GULP energy -156243.496400 kJ/mol
# GULP energy per Si atom -5580.124871 kJ/mol
# Density = 2.218737 g / cm^3
# Si number density = 22.237984 Si / 1000 Ang^3
#
#
#
# Elastic Constant Matrix: (Units=GPa)
#
#
# Indices 1 2 3 4 5 6 
#
# 1 118.5609 16.3603 33.3647 0.0000 -13.0903 0.0000
# 2 16.3603 64.4570 28.8248 0.0000 -15.5383 0.0000
# 3 33.3647 28.8248 102.1787 0.0000 -17.4018 0.0000
# 4 0.0000 0.0000 0.0000 18.7407 0.0000 -6.6887
# 5 -13.0903 -15.5383 -17.4018 0.0000 29.0050 0.0000
# 6 0.0000 0.0000 0.0000 -6.6887 0.0000 27.9406
#
#
#
# Elastic Compliance Matrix: (Units=1/GPa)
#
#
# Indices 1 2 3 4 5 6 
#
# 1 0.009500 -0.000717 -0.002489 0.000000 0.002410 0.000000
# 2 -0.000717 0.019290 -0.003901 0.000000 0.007669 0.000000
# 3 -0.002489 -0.003901 0.012422 0.000000 0.004239 0.000000
# 4 0.000000 0.000000 0.000000 0.058345 0.000000 0.013967
# 5 0.002410 0.007669 0.004239 0.000000 0.042216 0.000000
# 6 0.000000 0.000000 0.000000 0.013967 0.000000 0.039134
#
#
# Mechanical properties :
#
#
# Convention : Reuss Voigt Hill
#
# Bulk Modulus (GPa) = 37.04215 49.14404 43.09309
# Shear Modulus (GPa) = 24.49521 28.91371 26.70446
#
# Velocity S-wave (km/s) = 3.32249 3.60973 3.46909
# Velocity P-wave (km/s) = 5.60463 6.28655 5.95536
#
# Compressibility (1/GPa) = 0.02699628
#
# Stress axis : x y z
#
# Youngs Moduli (GPa) = 105.26260 51.84109 80.50099
#
# Poissons Ratio (x) = 0.03718 0.20040
# Poissons Ratio (y) = 0.07549 0.31406
# Poissons Ratio (z) = 0.26204 0.20225
#
# Static dielectric constant tensor:
#      x y z
#    x 1.856240 0.000000 -0.044200 
#    y 0.000000 1.898020 0.000000 
#    z -0.044200 0.000000 1.907430 
# 
# From -- ./inp_files/268715.got.cif
#   From: 2010.05.17/outbox.cif.g08.bks.cpg/sg15_135_cif.got.tgz:268715.got - 2010.06.03 18:47:42.
