data_PCOD9272929
_publ_section_title
;
Structure prediction by ZEFSAII (Michael W. Deem and Ramdas Pophale) SiO2 
 PCOD9272929
Probable space group: C 2/C
;
_chemical_formula_sum "Si O2"
_cell_formula_units_Z 40
_cell_length_a 14.143182
_cell_length_b 12.176938
_cell_length_c 15.270796
_cell_angle_alpha 90.000000
_cell_angle_beta 141.164365
_cell_angle_gamma 90.000000
_cell_volume 1649.208886
_symmetry_space_group_name_H-M "C 2/C"
_symmetry_group_IT_number 15
_symmetry_cell_setting 'monoclinic'
loop_
_space_group_symop_operation_xyz
x,y,z
-x,y,1/2-z
-x,-y,-z
x,-y,1/2+z
1/2+x,1/2+y,z
1/2-x,1/2+y,1/2-z
1/2-x,1/2-y,-z
1/2+x,1/2-y,1/2+z
loop_
_atom_site_type_symbol
_atom_site_label
_atom_site_fract_x
_atom_site_fract_y
_atom_site_fract_z
Si Si1 0.905782 0.456706 0.271424
Si Si2 0.106694 0.302599 0.497907
Si Si3 0.840114 0.084298 0.032576
Si Si4 0.120990 0.171459 0.949704
Si Si5 0.170858 0.301562 0.743148
O O1 0.740890 0.426755 0.120314
O O2 0.000000 0.436764 0.250000
O O3 0.964670 0.383552 0.392336
O O4 0.913598 0.583402 0.298937
O O5 0.056848 0.190156 0.412677
O O6 0.230971 0.367074 0.528725
O O7 0.176744 0.290358 0.643597
O O8 0.875007 0.956785 0.075815
O O9 0.174918 0.186708 0.090452
O O10 0.250000 0.250000 0.000000
O O11 0.950773 0.211856 0.813132
#
# Coordination Sequence:
#
# PCOD9272929 Si02
#       5
#     8   8   8   8   8
#     4   9  18  37  61  83 119 166 207 250 312 381
#     4  10  20  37  61  90 121 166 210 260 312 377
#     4   9  21  40  60  88 130 163 207 264 325 367
#     4  11  23  44  65  92 129 169 208 261 321 381
#     4  11  23  38  68  94 124 163 221 260 307 382
#
# _framework density 24.254052000000001
#
# number of rings (size 3 to 8) (size 9 to 14) (size 15 to 20)
#    0.000    2.000    0.000    4.800    2.800    0.800 
#    3.600   12.000    0.000    0.000    0.000    0.000 
#    0.000    0.000    0.000    0.000    0.000    0.000 
#
# Total GULP energy -111559.494111 kJ/mol
# GULP energy per Si atom -5577.974706 kJ/mol
# Density = 2.419885 g / cm^3
# Si number density = 24.254052 Si / 1000 Ang^3
#
#
#
# Elastic Constant Matrix: (Units=GPa)
#
#
# Indices 1 2 3 4 5 6 
#
# 1 37.6763 28.5876 15.9659 0.0000 -16.5928 0.0000
# 2 28.5876 164.6032 17.4285 0.0000 -3.1231 0.0000
# 3 15.9659 17.4285 72.9042 0.0000 -8.2396 0.0000
# 4 0.0000 0.0000 0.0000 26.0890 0.0000 -2.0587
# 5 -16.5928 -3.1231 -8.2396 0.0000 35.4767 0.0000
# 6 0.0000 0.0000 0.0000 -2.0587 0.0000 20.8621
#
#
#
# Elastic Compliance Matrix: (Units=1/GPa)
#
#
# Indices 1 2 3 4 5 6 
#
# 1 0.041366 -0.006261 -0.005585 0.000000 0.017499 0.000000
# 2 -0.006261 0.007182 -0.000622 0.000000 -0.002440 0.000000
# 3 -0.005585 -0.000622 0.015185 0.000000 0.000860 0.000000
# 4 0.000000 0.000000 0.000000 0.038631 0.000000 0.003812
# 5 0.017499 -0.002440 0.000860 0.000000 0.036357 0.000000
# 6 0.000000 0.000000 0.000000 0.003812 0.000000 0.048310
#
#
# Mechanical properties :
#
#
# Convention : Reuss Voigt Hill
#
# Bulk Modulus (GPa) = 25.77389 44.34976 35.06182
# Shear Modulus (GPa) = 22.23227 30.69901 26.46564
#
# Velocity S-wave (km/s) = 3.03089 3.56157 3.30689
# Velocity P-wave (km/s) = 4.78520 5.93618 5.39149
#
# Compressibility (1/GPa) = 0.03879896
#
# Stress axis : x y z
#
# Youngs Moduli (GPa) = 24.17469 139.23509 65.85236
#
# Poissons Ratio (x) = 0.87173 0.36776
# Poissons Ratio (y) = 0.15135 0.04094
# Poissons Ratio (z) = 0.13501 0.08655
#
# Static dielectric constant tensor:
#      x y z
#    x 2.026760 0.000000 0.049710 
#    y 0.000000 1.962080 0.000000 
#    z 0.049710 0.000000 1.999650 
# 
# From -- ./inp_files/152313.got.cif
#   From: 2010.05.17/outbox.cif.g08.bks.cpg/sg15_77_cif.got.tgz:152313.got - 2010.06.03 18:47:42.
