data_PCOD9272711
_publ_section_title
;
Structure prediction by ZEFSAII (Michael W. Deem and Ramdas Pophale) SiO2 
 PCOD9272711
Probable space group: C 2/C
;
_chemical_formula_sum "Si O2"
_cell_formula_units_Z 56
_cell_length_a 10.257881
_cell_length_b 10.033784
_cell_length_c 23.258378
_cell_angle_alpha 90.000000
_cell_angle_beta 83.140257
_cell_angle_gamma 90.000000
_cell_volume 2376.740430
_symmetry_space_group_name_H-M "C 2/C"
_symmetry_group_IT_number 15
_symmetry_cell_setting 'monoclinic'
loop_
_space_group_symop_operation_xyz
x,y,z
-x,y,1/2-z
-x,-y,-z
x,-y,1/2+z
1/2+x,1/2+y,z
1/2-x,1/2+y,1/2-z
1/2-x,1/2-y,-z
1/2+x,1/2-y,1/2+z
loop_
_atom_site_type_symbol
_atom_site_label
_atom_site_fract_x
_atom_site_fract_y
_atom_site_fract_z
Si Si1 0.345401 0.916429 0.990302
Si Si2 0.541197 0.832444 0.065540
Si Si3 0.026646 0.591777 0.811614
Si Si4 0.243639 0.267987 0.669259
Si Si5 0.099736 0.703732 0.287301
Si Si6 0.000266 0.788156 0.098886
Si Si7 0.091548 0.075763 0.433233
O O1 0.450559 0.829618 0.946561
O O2 0.196539 0.891448 0.978637
O O3 0.364106 0.071799 0.974475
O O4 0.396200 0.884410 0.051356
O O5 0.563092 0.861863 0.131283
O O6 0.531817 0.676036 0.056031
O O7 0.168878 0.640762 0.821651
O O8 0.026173 0.433518 0.807299
O O9 0.000000 0.647239 0.750000
O O10 0.211917 0.324744 0.734848
O O11 0.124306 0.215378 0.636094
O O12 0.327202 0.374794 0.627635
O O13 0.000000 0.784042 0.250000
O O14 0.119143 0.763627 0.349158
O O15 0.960898 0.926164 0.070481
#
# Coordination Sequence:
#
# PCOD9272711 Si02
#       7
#     8   8   8   8   8   8   8
#     4  10  21  41  65  82 124 164 191 247 305 344
#     4  10  21  41  61  90 121 156 202 246 295 359
#     4  10  20  37  60  83 115 154 199 237 299 359
#     4   9  21  37  56  85 122 156 190 256 303 341
#     4   9  18  34  56  79 114 157 198 233 297 359
#     4  10  20  39  60  87 117 158 203 245 294 362
#     4  10  22  39  62  92 120 155 206 245 298 357
#
# _framework density 23.561679999999999
#
# number of rings (size 3 to 8) (size 9 to 14) (size 15 to 20)
#    0.000    2.286    1.429    0.429    4.000    0.571 
#    7.714    3.571    0.000    0.000    0.000    0.000 
#    0.000    0.000    0.000    0.000    0.000    0.000 
#
# Total GULP energy -155975.401774 kJ/mol
# GULP energy per Si atom -5570.550063 kJ/mol
# Density = 2.350805 g / cm^3
# Si number density = 23.561680 Si / 1000 Ang^3
#
#
#
# Elastic Constant Matrix: (Units=GPa)
#
#
# Indices 1 2 3 4 5 6 
#
# 1 49.9131 20.2037 20.4018 0.0000 7.9307 0.0000
# 2 20.2037 84.7611 23.9340 0.0000 1.8307 0.0000
# 3 20.4018 23.9340 142.9601 0.0000 9.0477 0.0000
# 4 0.0000 0.0000 0.0000 -291.1896 0.0000 25.1157
# 5 7.9307 1.8307 9.0477 0.0000 30.0095 0.0000
# 6 0.0000 0.0000 0.0000 25.1157 0.0000 30.4118
#
#
#
# Elastic Compliance Matrix: (Units=1/GPa)
#
#
# Indices 1 2 3 4 5 6 
#
# 1 0.023785 -0.004924 -0.002234 0.000000 -0.005312 0.000000
# 2 -0.004924 0.013403 -0.001602 0.000000 0.000967 0.000000
# 3 -0.002234 -0.001602 0.007685 0.000000 -0.001629 0.000000
# 4 0.000000 0.000000 0.000000 -0.003206 0.000000 0.002648
# 5 -0.005312 0.000967 -0.001629 0.000000 0.035159 0.000000
# 6 0.000000 0.000000 0.000000 0.002648 0.000000 0.030695
#
#
# Mechanical properties :
#
#
# Convention : Reuss Voigt Hill
#
# Bulk Modulus (GPa) = 36.55913 45.19035 40.87474
# Shear Modulus (GPa) = 37.26909 -31.94733 2.66088
#
# Velocity S-wave (km/s) = 3.98146 -3.68625 1.06385
# Velocity P-wave (km/s) = 6.05690 1.05038 4.34680
#
# Compressibility (1/GPa) = 0.02735295
#
# Stress axis : x y z
#
# Youngs Moduli (GPa) = 42.04337 74.60951 130.12172
#
# Poissons Ratio (x) = 0.36737 0.29067
# Poissons Ratio (y) = 0.20702 0.20851
# Poissons Ratio (z) = 0.09392 0.11956
#
# Static dielectric constant tensor:
#      x y z
#    x 2.049780 0.000000 -0.064640 
#    y 0.000000 1.888480 0.000000 
#    z -0.064640 0.000000 2.022070 
# 
# From -- ./inp_files/238325.got.cif
#   From: 2010.05.17/outbox.cif.g08.bks.cpg/sg15_120_cif.got.tgz:238325.got - 2010.06.03 18:47:42.
