data_PCOD9272207
_publ_section_title
;
Structure prediction by ZEFSAII (Michael W. Deem and Ramdas Pophale) SiO2 
 PCOD9272207
Probable space group: C 2/C
;
_chemical_formula_sum "Si O2"
_cell_formula_units_Z 64
_cell_length_a 14.861008
_cell_length_b 9.052847
_cell_length_c 20.254257
_cell_angle_alpha 90.000000
_cell_angle_beta 92.441565
_cell_angle_gamma 90.000000
_cell_volume 2722.421264
_symmetry_space_group_name_H-M "C 2/C"
_symmetry_group_IT_number 15
_symmetry_cell_setting 'monoclinic'
loop_
_space_group_symop_operation_xyz
x,y,z
-x,y,1/2-z
-x,-y,-z
x,-y,1/2+z
1/2+x,1/2+y,z
1/2-x,1/2+y,1/2-z
1/2-x,1/2-y,-z
1/2+x,1/2-y,1/2+z
loop_
_atom_site_type_symbol
_atom_site_label
_atom_site_fract_x
_atom_site_fract_y
_atom_site_fract_z
Si Si1 0.899385 0.173221 0.808449
Si Si2 0.527456 0.616798 0.173995
Si Si3 0.096920 0.366250 0.395277
Si Si4 0.598966 0.004008 0.257595
Si Si5 0.726924 0.572005 0.810539
Si Si6 0.658481 0.947892 0.997211
Si Si7 0.800475 0.196269 0.406018
Si Si8 0.764659 0.687079 0.400742
O O1 0.911771 0.331726 0.772820
O O2 0.840268 0.090540 0.751485
O O3 0.839571 0.211008 0.869975
O O4 0.981022 0.064364 0.831041
O O5 0.500000 0.640101 0.250000
O O6 0.470370 0.737010 0.130183
O O7 0.628552 0.635749 0.145743
O O8 0.124908 0.466564 0.333104
O O9 0.076921 0.486993 0.450894
O O10 0.183718 0.281223 0.426588
O O11 0.500000 0.940635 0.250000
O O12 0.672049 0.925410 0.215051
O O13 0.728064 0.700837 0.864643
O O14 0.717552 0.411091 0.841785
O O15 0.741645 0.911929 0.949828
O O16 0.645581 0.800658 0.040379
O O17 0.689483 0.068649 0.051224
#
# Coordination Sequence:
#
# PCOD9272207 Si02
#       8
#     8   8   8   8   8   8   8   8
#     4  11  23  40  65  97 138 177 224 285 353 419
#     4  12  26  41  66 100 141 172 223 297 366 411
#     4  12  22  40  65  94 134 183 227 280 349 417
#     4  11  23  38  61  99 136 171 219 287 357 412
#     4  10  20  36  65  95 128 177 222 282 353 409
#     4  10  23  43  68  95 133 186 244 285 328 415
#     4  10  22  43  66  98 135 178 235 293 338 411
#     4  10  22  39  64  97 131 175 238 282 330 411
#
# _framework density 23.508482999999998
#
# number of rings (size 3 to 8) (size 9 to 14) (size 15 to 20)
#    0.000    1.250    1.250    4.875    3.500    0.500 
#    0.000    2.500    0.000    0.000    0.000    0.000 
#    0.000    0.000    0.000    0.000    0.000    0.000 
#
# Total GULP energy -178544.208062 kJ/mol
# GULP energy per Si atom -5579.506502 kJ/mol
# Density = 2.345498 g / cm^3
# Si number density = 23.508483 Si / 1000 Ang^3
#
#
#
# Elastic Constant Matrix: (Units=GPa)
#
#
# Indices 1 2 3 4 5 6 
#
# 1 41.3147 21.6130 11.0853 0.0000 -22.6029 0.0000
# 2 21.6130 115.6541 33.9714 0.0000 -2.8969 0.0000
# 3 11.0853 33.9714 78.1855 0.0000 -14.2179 0.0000
# 4 0.0000 0.0000 0.0000 86.1257 0.0000 -29.1281
# 5 -22.6029 -2.8969 -14.2179 0.0000 33.1479 0.0000
# 6 0.0000 0.0000 0.0000 -29.1281 0.0000 29.1161
#
#
#
# Elastic Compliance Matrix: (Units=1/GPa)
#
#
# Indices 1 2 3 4 5 6 
#
# 1 0.044878 -0.008484 0.002986 0.000000 0.031141 0.000000
# 2 -0.008484 0.011550 -0.005080 0.000000 -0.006955 0.000000
# 3 0.002986 -0.005080 0.016121 0.000000 0.008507 0.000000
# 4 0.000000 0.000000 0.000000 0.017548 0.000000 0.017556
# 5 0.031141 -0.006955 0.008507 0.000000 0.054443 0.000000
# 6 0.000000 0.000000 0.000000 0.017556 0.000000 0.051908
#
#
# Mechanical properties :
#
#
# Convention : Reuss Voigt Hill
#
# Bulk Modulus (GPa) = 19.45768 40.94375 30.20072
# Shear Modulus (GPa) = 21.30052 40.91025 31.10538
#
# Velocity S-wave (km/s) = 3.01338 4.17614 3.64147
# Velocity P-wave (km/s) = 4.51687 6.38027 5.52766
#
# Compressibility (1/GPa) = 0.05139359
#
# Stress axis : x y z
#
# Youngs Moduli (GPa) = 22.28241 86.58055 62.03077
#
# Poissons Ratio (x) = 0.73454 -0.18523
# Poissons Ratio (y) = 0.18904 0.31513
# Poissons Ratio (z) = -0.06654 0.43985
#
# Static dielectric constant tensor:
#      x y z
#    x 1.944450 0.000000 0.065490 
#    y 0.000000 1.979630 0.000000 
#    z 0.065490 0.000000 2.044020 
# 
# From -- ./inp_files/247465.got.cif
#   From: 2010.05.17/outbox.cif.g08.bks.cpg/sg15_124_cif.got.tgz:247465.got - 2010.06.03 18:47:42.
