data_PCOD9272593
_publ_section_title
;
Structure prediction by ZEFSAII (Michael W. Deem and Ramdas Pophale) SiO2 
 PCOD9272593
Probable space group: C 2/C
;
_chemical_formula_sum "Si O2"
_cell_formula_units_Z 56
_cell_length_a 14.049498
_cell_length_b 23.927485
_cell_length_c 8.743712
_cell_angle_alpha 90.000000
_cell_angle_beta 69.200737
_cell_angle_gamma 90.000000
_cell_volume 2747.808473
_symmetry_space_group_name_H-M "C 2/C"
_symmetry_group_IT_number 15
_symmetry_cell_setting 'monoclinic'
loop_
_space_group_symop_operation_xyz
x,y,z
-x,y,1/2-z
-x,-y,-z
x,-y,1/2+z
1/2+x,1/2+y,z
1/2-x,1/2+y,1/2-z
1/2-x,1/2-y,-z
1/2+x,1/2-y,1/2+z
loop_
_atom_site_type_symbol
_atom_site_label
_atom_site_fract_x
_atom_site_fract_y
_atom_site_fract_z
Si Si1 0.449232 0.589022 0.944819
Si Si2 0.616170 0.229649 0.231817
Si Si3 0.090841 0.965263 0.580982
Si Si4 0.452699 0.873557 0.605661
Si Si5 0.818823 0.540709 0.027680
Si Si6 0.857916 0.424046 0.157580
Si Si7 0.777333 0.836796 0.428556
O O1 0.500000 0.593796 0.750000
O O2 0.398476 0.527383 0.998122
O O3 0.362287 0.636482 0.994396
O O4 0.547026 0.584037 0.999867
O O5 0.500000 0.242444 0.250000
O O6 0.597319 0.187530 0.382972
O O7 0.673435 0.288163 0.202617
O O8 0.684066 0.192065 0.074843
O O9 0.197663 0.953467 0.596291
O O10 0.000000 0.973241 0.750000
O O11 0.500000 0.877095 0.750000
O O12 0.366956 0.918979 0.625875
O O13 0.541593 0.888710 0.437417
O O14 0.854810 0.478962 0.052997
O O15 0.851885 0.557470 0.836957
O O16 0.764421 0.386141 0.154058
#
# Coordination Sequence:
#
# PCOD9272593 Si02
#       7
#     8   8   8   8   8   8   8
#     4  10  20  37  58  90 131 171 217 266 314 397
#     4  10  22  40  67  99 124 171 230 283 328 382
#     4  10  23  35  57  93 136 175 213 262 329 391
#     4  11  23  45  67  96 134 171 223 283 328 398
#     4  12  26  40  67 100 140 183 213 270 346 408
#     4  12  24  42  66 103 137 176 223 271 337 412
#     4  11  21  39  70  95 129 176 226 276 331 389
#
# _framework density 20.379878000000001
#
# number of rings (size 3 to 8) (size 9 to 14) (size 15 to 20)
#    0.000    1.143    4.286    3.000    6.000    0.000 
#    0.000    0.714    0.000    0.000    0.000    0.000 
#    0.000    0.000    0.000    0.000    0.000    0.000 
#
# Total GULP energy -156184.028021 kJ/mol
# GULP energy per Si atom -5578.001001 kJ/mol
# Density = 2.033349 g / cm^3
# Si number density = 20.379878 Si / 1000 Ang^3
#
#
#
# Elastic Constant Matrix: (Units=GPa)
#
#
# Indices 1 2 3 4 5 6 
#
# 1 85.2635 30.1029 13.6877 0.0000 -20.6976 0.0000
# 2 30.1029 123.1824 19.9751 0.0000 -3.5197 0.0000
# 3 13.6877 19.9751 64.4005 0.0000 -11.0898 0.0000
# 4 0.0000 0.0000 0.0000 12.3342 0.0000 -27.0035
# 5 -20.6976 -3.5197 -11.0898 0.0000 30.8320 0.0000
# 6 0.0000 0.0000 0.0000 -27.0035 0.0000 14.1218
#
#
#
# Elastic Compliance Matrix: (Units=1/GPa)
#
#
# Indices 1 2 3 4 5 6 
#
# 1 0.015377 -0.003392 -0.000539 0.000000 0.009742 0.000000
# 2 -0.003392 0.009296 -0.002528 0.000000 -0.002125 0.000000
# 3 -0.000539 -0.002528 0.017392 0.000000 0.005605 0.000000
# 4 0.000000 0.000000 0.000000 -0.025444 0.000000 -0.048654
# 5 0.009742 -0.002125 0.005605 0.000000 0.040747 0.000000
# 6 0.000000 0.000000 0.000000 -0.048654 0.000000 -0.022223
#
#
# Mechanical properties :
#
#
# Convention : Reuss Voigt Hill
#
# Bulk Modulus (GPa) = 34.30891 44.48642 39.39766
# Shear Modulus (GPa) = 86.53700 25.39631 55.96666
#
# Velocity S-wave (km/s) = 6.52336 3.53391 5.24608
# Velocity P-wave (km/s) = 8.57963 6.20704 7.48791
#
# Compressibility (1/GPa) = 0.02914695
#
# Stress axis : x y z
#
# Youngs Moduli (GPa) = 65.03114 107.56980 57.49832
#
# Poissons Ratio (x) = 0.36489 0.03097
# Poissons Ratio (y) = 0.22060 0.14538
# Poissons Ratio (z) = 0.03503 0.27198
#
# Static dielectric constant tensor:
#      x y z
#    x 1.782310 0.000000 -0.004240 
#    y 0.000000 1.759740 0.000000 
#    z -0.004240 0.000000 1.747270 
# 
# From -- ./inp_files/42103.got.cif
#   From: 2010.05.17/outbox.cif.g08.bks.cpg/sg15_22_cif.got.tgz:42103.got - 2010.06.03 18:47:42.
