data_PCOD9272764
_publ_section_title
;
Structure prediction by ZEFSAII (Michael W. Deem and Ramdas Pophale) SiO2 
 PCOD9272764
Probable space group: C 2/C
;
_chemical_formula_sum "Si O2"
_cell_formula_units_Z 48
_cell_length_a 22.777826
_cell_length_b 19.317766
_cell_length_c 8.900551
_cell_angle_alpha 90.000000
_cell_angle_beta 134.076861
_cell_angle_gamma 90.000000
_cell_volume 2813.563962
_symmetry_space_group_name_H-M "C 2/C"
_symmetry_group_IT_number 15
_symmetry_cell_setting 'monoclinic'
loop_
_space_group_symop_operation_xyz
x,y,z
-x,y,1/2-z
-x,-y,-z
x,-y,1/2+z
1/2+x,1/2+y,z
1/2-x,1/2+y,1/2-z
1/2-x,1/2-y,-z
1/2+x,1/2-y,1/2+z
loop_
_atom_site_type_symbol
_atom_site_label
_atom_site_fract_x
_atom_site_fract_y
_atom_site_fract_z
Si Si1 0.612051 0.055253 0.211646
Si Si2 0.500000 0.024865 0.750000
Si Si3 0.290981 0.167127 0.933432
Si Si4 0.341097 0.559966 0.338445
Si Si5 0.843284 0.180072 0.564073
Si Si6 0.500000 0.389181 0.250000
Si Si7 0.246540 0.946924 0.127938
O O1 0.554968 0.022642 0.239318
O O2 0.653275 0.123128 0.352780
O O3 0.680600 0.997737 0.294929
O O4 0.558794 0.066752 0.966938
O O5 0.203886 0.174534 0.862829
O O6 0.281277 0.121660 0.767159
O O7 0.328173 0.242940 0.977347
O O8 0.308182 0.622689 0.385200
O O9 0.438413 0.566010 0.538388
O O10 0.304802 0.489318 0.339542
O O11 0.310812 0.567845 0.115995
O O12 0.938294 0.158281 0.736876
#
# Coordination Sequence:
#
# PCOD9272764 Si02
#       7
#     8   4   8   8   8   4   8
#     4  11  19  36  52  84 114 144 190 236 282 345
#     4  10  22  31  52  84 115 144 182 238 290 319
#     4  11  21  37  64  81 111 159 192 232 287 354
#     4  10  20  37  60  87 118 147 196 236 294 340
#     4   9  21  41  59  79 117 154 193 231 294 344
#     4   8  20  41  56  82 121 152 184 246 290 341
#     4  12  20  36  63  89 110 153 194 242 285 346
#
# _framework density 17.060213000000001
#
# number of rings (size 3 to 8) (size 9 to 14) (size 15 to 20)
#    1.000    0.667    5.000    0.000    0.000    2.000 
#    0.000    0.000    7.333    0.000    0.000    0.000 
#    0.000    0.000    0.000    0.000    0.000    0.000 
#
# Total GULP energy -133691.181547 kJ/mol
# GULP energy per Si atom -5570.465898 kJ/mol
# Density = 1.702138 g / cm^3
# Si number density = 17.060213 Si / 1000 Ang^3
#
#
#
# Elastic Constant Matrix: (Units=GPa)
#
#
# Indices 1 2 3 4 5 6 
#
# 1 50.3524 -3.1118 14.2921 0.0000 14.1097 0.0000
# 2 -3.1118 52.5646 3.4019 0.0000 1.6811 0.0000
# 3 14.2921 3.4019 108.7773 0.0000 -1.7389 0.0000
# 4 0.0000 0.0000 0.0000 -5.0924 0.0000 -12.8872
# 5 14.1097 1.6811 -1.7389 0.0000 28.5059 0.0000
# 6 0.0000 0.0000 0.0000 -12.8872 0.0000 14.9461
#
#
#
# Elastic Compliance Matrix: (Units=1/GPa)
#
#
# Indices 1 2 3 4 5 6 
#
# 1 0.024462 0.002071 -0.003478 0.000000 -0.012442 0.000000
# 2 0.002071 0.019277 -0.000910 0.000000 -0.002218 0.000000
# 3 -0.003478 -0.000910 0.009716 0.000000 0.002368 0.000000
# 4 0.000000 0.000000 0.000000 -0.061711 0.000000 -0.053211
# 5 -0.012442 -0.002218 0.002368 0.000000 0.041514 0.000000
# 6 0.000000 0.000000 0.000000 -0.053211 0.000000 0.021026
#
#
# Mechanical properties :
#
#
# Convention : Reuss Voigt Hill
#
# Bulk Modulus (GPa) = 20.48308 26.76208 23.62258
# Shear Modulus (GPa) = 66.49700 20.81272 43.65486
#
# Velocity S-wave (km/s) = 6.25000 3.49658 5.06401
# Velocity P-wave (km/s) = 8.00723 5.65882 6.93318
#
# Compressibility (1/GPa) = 0.04882077
#
# Stress axis : x y z
#
# Youngs Moduli (GPa) = 40.88024 51.87620 102.91937
#
# Poissons Ratio (x) = -0.10744 0.35792
# Poissons Ratio (y) = -0.08467 0.09370
# Poissons Ratio (z) = 0.14217 0.04723
#
# Static dielectric constant tensor:
#      x y z
#    x 1.596170 0.000000 0.016260 
#    y 0.000000 1.554410 0.000000 
#    z 0.016260 0.000000 1.573420 
# 
# From -- ./inp_files/62599.got.cif
#   From: 2010.05.17/outbox.cif.g08.bks.cpg/sg15_32_cif.got.tgz:62599.got - 2010.06.03 18:47:42.
