data_PCOD9272976
_publ_section_title
;
Structure prediction by ZEFSAII (Michael W. Deem and Ramdas Pophale) SiO2 
 PCOD9272976
Probable space group: C 2/C
;
_chemical_formula_sum "Si O2"
_cell_formula_units_Z 44
_cell_length_a 7.844946
_cell_length_b 13.429893
_cell_length_c 24.019041
_cell_angle_alpha 90.000000
_cell_angle_beta 62.800383
_cell_angle_gamma 90.000000
_cell_volume 2250.737188
_symmetry_space_group_name_H-M "C 2/C"
_symmetry_group_IT_number 15
_symmetry_cell_setting 'monoclinic'
loop_
_space_group_symop_operation_xyz
x,y,z
-x,y,1/2-z
-x,-y,-z
x,-y,1/2+z
1/2+x,1/2+y,z
1/2-x,1/2+y,1/2-z
1/2-x,1/2-y,-z
1/2+x,1/2-y,1/2+z
loop_
_atom_site_type_symbol
_atom_site_label
_atom_site_fract_x
_atom_site_fract_y
_atom_site_fract_z
Si Si1 0.295895 0.082259 0.645726
Si Si2 0.000000 0.774342 0.250000
Si Si3 0.711420 0.489351 0.541450
Si Si4 0.462670 0.087335 0.194729
Si Si5 0.056170 0.686448 0.530508
Si Si6 0.326335 0.378264 0.561739
O O1 0.492686 0.139284 0.599171
O O2 0.152606 0.157771 0.696317
O O3 0.212877 0.046794 0.599029
O O4 0.334568 0.986103 0.677754
O O5 0.106402 0.697473 0.276359
O O6 0.883949 0.408695 0.515058
O O7 0.513127 0.430239 0.561069
O O8 0.723103 0.563668 0.487359
O O9 0.500000 0.038782 0.250000
O O10 0.653679 0.109376 0.130741
O O11 0.250000 0.750000 0.500000
O O12 0.888365 0.764120 0.540570
#
# Coordination Sequence:
#
# PCOD9272976 Si02
#       6
#     8   4   8   8   8   8
#     4  12  23  42  67  93 126 171 222 263 320 391
#     4  10  26  44  64  92 130 176 222 268 314 394
#     4  10  23  36  65  96 125 162 212 262 326 381
#     4  10  23  43  65  85 130 172 214 266 320 376
#     4  10  20  37  61  96 131 158 205 264 326 384
#     4  10  20  41  61  92 134 165 197 270 328 376
#
# _framework density 19.549151999999999
#
# number of rings (size 3 to 8) (size 9 to 14) (size 15 to 20)
#    0.545    1.091    3.636    0.545    2.545    2.182 
#    0.000    3.636    0.000    0.000    0.000    0.000 
#    0.000    0.000    0.000    0.000    0.000    0.000 
#
# Total GULP energy -122645.782338 kJ/mol
# GULP energy per Si atom -5574.808288 kJ/mol
# Density = 1.950466 g / cm^3
# Si number density = 19.549152 Si / 1000 Ang^3
#
#
#
# Elastic Constant Matrix: (Units=GPa)
#
#
# Indices 1 2 3 4 5 6 
#
# 1 62.5445 45.6114 39.6649 0.0000 17.1517 0.0000
# 2 45.6114 151.9042 68.1720 0.0000 6.6401 0.0000
# 3 39.6649 68.1720 130.1516 0.0000 13.8790 0.0000
# 4 0.0000 0.0000 0.0000 44.9823 0.0000 -4.4445
# 5 17.1517 6.6401 13.8790 0.0000 19.0822 0.0000
# 6 0.0000 0.0000 0.0000 -4.4445 0.0000 25.3923
#
#
#
# Elastic Compliance Matrix: (Units=1/GPa)
#
#
# Indices 1 2 3 4 5 6 
#
# 1 0.028200 -0.006141 -0.003147 0.000000 -0.020921 0.000000
# 2 -0.006141 0.009945 -0.003856 0.000000 0.004864 0.000000
# 3 -0.003147 -0.003856 0.011077 0.000000 -0.003886 0.000000
# 4 0.000000 0.000000 0.000000 0.022622 0.000000 0.003960
# 5 -0.020921 0.004864 -0.003886 0.000000 0.072344 0.000000
# 6 0.000000 0.000000 0.000000 0.003960 0.000000 0.040075
#
#
# Mechanical properties :
#
#
# Convention : Reuss Voigt Hill
#
# Bulk Modulus (GPa) = 43.60346 72.38855 57.99601
# Shear Modulus (GPa) = 22.91537 30.63482 26.77510
#
# Velocity S-wave (km/s) = 3.42744 3.96291 3.70487
# Velocity P-wave (km/s) = 6.16572 7.61899 6.93055
#
# Compressibility (1/GPa) = 0.02293396
#
# Stress axis : x y z
#
# Youngs Moduli (GPa) = 35.46140 100.55369 90.28030
#
# Poissons Ratio (x) = 0.61746 0.28409
# Poissons Ratio (y) = 0.21776 0.34815
# Poissons Ratio (z) = 0.11159 0.38776
#
# Static dielectric constant tensor:
#      x y z
#    x 1.693810 0.000000 -0.013340 
#    y 0.000000 1.728460 0.000000 
#    z -0.013340 0.000000 1.667030 
# 
# From -- ./inp_files/263846.got.cif
#   From: 2010.05.17/outbox.cif.g08.bks.cpg/sg15_132_cif.got.tgz:263846.got - 2010.06.03 18:47:42.
