data_PCOD9272323
_publ_section_title
;
Structure prediction by ZEFSAII (Michael W. Deem and Ramdas Pophale) SiO2 
 PCOD9272323
Probable space group: C 2/C
;
_chemical_formula_sum "Si O2"
_cell_formula_units_Z 44
_cell_length_a 22.345551
_cell_length_b 5.251927
_cell_length_c 16.318700
_cell_angle_alpha 90.000000
_cell_angle_beta 96.610338
_cell_angle_gamma 90.000000
_cell_volume 1902.385306
_symmetry_space_group_name_H-M "C 2/C"
_symmetry_group_IT_number 15
_symmetry_cell_setting 'monoclinic'
loop_
_space_group_symop_operation_xyz
x,y,z
-x,y,1/2-z
-x,-y,-z
x,-y,1/2+z
1/2+x,1/2+y,z
1/2-x,1/2+y,1/2-z
1/2-x,1/2-y,-z
1/2+x,1/2-y,1/2+z
loop_
_atom_site_type_symbol
_atom_site_label
_atom_site_fract_x
_atom_site_fract_y
_atom_site_fract_z
Si Si1 0.441118 0.404259 0.397213
Si Si2 0.500000 0.297976 0.250000
Si Si3 0.178268 0.278383 0.575480
Si Si4 0.685726 0.593193 0.387721
Si Si5 0.425360 0.094018 0.986498
Si Si6 0.114371 0.579259 0.338549
O O1 0.485026 0.457073 0.328607
O O2 0.368591 0.366415 0.371980
O O3 0.456862 0.137805 0.443810
O O4 0.444621 0.633818 0.460027
O O5 0.561297 0.136579 0.266609
O O6 0.244414 0.341522 0.616584
O O7 0.178871 0.136706 0.486119
O O8 0.144389 0.544068 0.552103
O O9 0.660354 0.317751 0.357133
O O10 0.647879 0.812178 0.335710
O O11 0.421378 0.060924 0.081829
#
# Coordination Sequence:
#
# PCOD9272323 Si02
#       6
#     8   4   8   8   8   8
#     4  10  22  41  61  95 119 171 198 265 305 372
#     4  12  30  44  62  82 144 164 224 254 312 352
#     4   8  19  36  68  98 123 148 199 274 308 375
#     4  10  20  36  69  97 125 149 211 255 326 362
#     4   9  19  39  66  92 122 150 221 239 325 355
#     4  11  23  41  60  99 120 174 201 260 303 383
#
# _framework density 23.128857
#
# number of rings (size 3 to 8) (size 9 to 14) (size 15 to 20)
#    1.091    1.091    1.818    0.000    2.545    8.000 
#    0.000    1.818    0.000    0.000    0.000    0.000 
#    0.000    0.000    0.000    0.000    0.000    0.000 
#
# Total GULP energy -122768.395299 kJ/mol
# GULP energy per Si atom -5580.381604 kJ/mol
# Density = 2.307621 g / cm^3
# Si number density = 23.128857 Si / 1000 Ang^3
#
#
#
# Elastic Constant Matrix: (Units=GPa)
#
#
# Indices 1 2 3 4 5 6 
#
# 1 125.1845 10.2752 6.2820 0.0000 6.6041 0.0000
# 2 10.2752 86.5459 -10.1190 0.0000 -5.9632 0.0000
# 3 6.2820 -10.1190 18.4042 0.0000 4.7427 0.0000
# 4 0.0000 0.0000 0.0000 1.0001 0.0000 5.3390
# 5 6.6041 -5.9632 4.7427 0.0000 33.2665 0.0000
# 6 0.0000 0.0000 0.0000 5.3390 0.0000 24.2416
#
#
#
# Elastic Compliance Matrix: (Units=1/GPa)
#
#
# Indices 1 2 3 4 5 6 
#
# 1 0.008351 -0.001476 -0.003287 0.000000 -0.001454 0.000000
# 2 -0.001476 0.012663 0.007065 0.000000 0.001556 0.000000
# 3 -0.003287 0.007065 0.061092 0.000000 -0.006791 0.000000
# 4 0.000000 0.000000 0.000000 -5.689819 0.000000 1.253130
# 5 -0.001454 0.001556 -0.006791 0.000000 0.031596 0.000000
# 6 0.000000 0.000000 0.000000 1.253130 0.000000 -0.234739
#
#
# Mechanical properties :
#
#
# Convention : Reuss Voigt Hill
#
# Bulk Modulus (GPa) = 11.53267 27.00121 19.26694
# Shear Modulus (GPa) = -0.86407 26.61476 12.87535
#
# Velocity S-wave (km/s) = -0.61188 3.39590 2.36196
# Velocity P-wave (km/s) = 2.12082 5.20344 3.97327
#
# Compressibility (1/GPa) = 0.08671022
#
# Stress axis : x y z
#
# Youngs Moduli (GPa) = 119.74590 78.96977 16.36870
#
# Poissons Ratio (x) = 0.11656 0.05381
# Poissons Ratio (y) = 0.17675 -0.11565
# Poissons Ratio (z) = 0.39365 -0.55795
#
# Static dielectric constant tensor:
#      x y z
#    x 1.994220 0.000000 0.002770 
#    y 0.000000 1.861120 0.000000 
#    z 0.002770 0.000000 2.020410 
# 
# From -- ./inp_files/212966.got.cif
#   From: 2010.05.17/outbox.cif.g08.bks.cpg/sg15_107_cif.got.tgz:212966.got - 2010.06.03 18:47:42.
