data_PCOD9272774
_publ_section_title
;
Structure prediction by ZEFSAII (Michael W. Deem and Ramdas Pophale) SiO2 
 PCOD9272774
Probable space group: C 2/C
;
_chemical_formula_sum "Si O2"
_cell_formula_units_Z 48
_cell_length_a 11.298373
_cell_length_b 19.028353
_cell_length_c 12.517967
_cell_angle_alpha 90.000000
_cell_angle_beta 112.741615
_cell_angle_gamma 90.000000
_cell_volume 2482.007742
_symmetry_space_group_name_H-M "C 2/C"
_symmetry_group_IT_number 15
_symmetry_cell_setting 'monoclinic'
loop_
_space_group_symop_operation_xyz
x,y,z
-x,y,1/2-z
-x,-y,-z
x,-y,1/2+z
1/2+x,1/2+y,z
1/2-x,1/2+y,1/2-z
1/2-x,1/2-y,-z
1/2+x,1/2-y,1/2+z
loop_
_atom_site_type_symbol
_atom_site_label
_atom_site_fract_x
_atom_site_fract_y
_atom_site_fract_z
Si Si1 0.441058 0.765910 0.621526
Si Si2 0.177874 0.150031 0.047543
Si Si3 0.409660 0.103174 0.415196
Si Si4 0.647566 0.433955 0.321985
Si Si5 0.861643 0.900663 0.727382
Si Si6 0.581452 0.947225 0.172000
O O1 0.500000 0.736014 0.750000
O O2 0.303133 0.800803 0.597240
O O3 0.429632 0.706000 0.527765
O O4 0.524880 0.831898 0.618136
O O5 0.187129 0.094652 0.952909
O O6 0.158805 0.111422 0.153179
O O7 0.262392 0.126143 0.379330
O O8 0.493770 0.083692 0.546902
O O9 0.408672 0.031695 0.343971
O O10 0.500000 0.410807 0.250000
O O11 0.636949 0.517979 0.307811
O O12 0.772168 0.417391 0.289709
O O13 0.000000 0.868898 0.750000
O O14 0.500000 0.934199 0.250000
#
# Coordination Sequence:
#
# PCOD9272774 Si02
#       6
#     8   8   8   8   8   8
#     4  11  21  39  66  87 117 166 220 255 299 373
#     4  11  23  39  63  91 123 165 215 254 309 391
#     4  10  20  37  60  87 122 164 214 259 313 370
#     4  10  22  38  59  92 129 165 207 258 322 383
#     4  10  23  39  62  92 129 161 203 264 331 373
#     4  10  21  34  60  94 127 163 211 266 322 373
#
# _framework density 19.339183999999999
#
# number of rings (size 3 to 8) (size 9 to 14) (size 15 to 20)
#    0.000    1.667    3.333    1.000    2.333    4.000 
#    0.000    1.667    0.000    0.000    0.000    0.000 
#    0.000    0.000    0.000    0.000    0.000    0.000 
#
# Total GULP energy -133632.824281 kJ/mol
# GULP energy per Si atom -5568.034345 kJ/mol
# Density = 1.929517 g / cm^3
# Si number density = 19.339184 Si / 1000 Ang^3
#
#
#
# Elastic Constant Matrix: (Units=GPa)
#
#
# Indices 1 2 3 4 5 6 
#
# 1 131.2466 6.3216 38.3078 0.0000 19.2811 0.0000
# 2 6.3216 73.6196 26.2983 0.0000 -1.7149 0.0000
# 3 38.3078 26.2983 73.2064 0.0000 17.4487 0.0000
# 4 0.0000 0.0000 0.0000 62.2314 0.0000 17.5720
# 5 19.2811 -1.7149 17.4487 0.0000 34.2321 0.0000
# 6 0.0000 0.0000 0.0000 17.5720 0.0000 -6.7357
#
#
#
# Elastic Compliance Matrix: (Units=1/GPa)
#
#
# Indices 1 2 3 4 5 6 
#
# 1 0.009310 0.000712 -0.004424 0.000000 -0.002953 0.000000
# 2 0.000712 0.016170 -0.007147 0.000000 0.004052 0.000000
# 3 -0.004424 -0.007147 0.020528 0.000000 -0.008330 0.000000
# 4 0.000000 0.000000 0.000000 0.009253 0.000000 0.024139
# 5 -0.002953 0.004052 -0.008330 0.000000 0.035325 0.000000
# 6 0.000000 0.000000 0.000000 0.024139 0.000000 -0.085489
#
#
# Mechanical properties :
#
#
# Convention : Reuss Voigt Hill
#
# Bulk Modulus (GPa) = 41.16934 46.65868 43.91401
# Shear Modulus (GPa) = 143.22662 31.75522 87.49092
#
# Velocity S-wave (km/s) = 8.61517 4.05657 6.73338
# Velocity P-wave (km/s) = 10.96794 6.79117 9.12183
#
# Compressibility (1/GPa) = 0.02428992
#
# Stress axis : x y z
#
# Youngs Moduli (GPa) = 107.41180 61.84420 48.71466
#
# Poissons Ratio (x) = -0.04403 0.21549
# Poissons Ratio (y) = -0.07647 0.34817
# Poissons Ratio (z) = 0.47515 0.44200
#
# Static dielectric constant tensor:
#      x y z
#    x 1.738100 0.000000 0.039410 
#    y 0.000000 1.663230 0.000000 
#    z 0.039410 0.000000 1.706770 
# 
# From -- ./inp_files/88569.got.cif
#   From: 2010.05.17/outbox.cif.g08.bks.cpg/sg15_45_cif.got.tgz:88569.got - 2010.06.03 18:47:42.
