data_PCOD9272424
_publ_section_title
;
Structure prediction by ZEFSAII (Michael W. Deem and Ramdas Pophale) SiO2 
 PCOD9272424
Probable space group: C 2/C
;
_chemical_formula_sum "Si O2"
_cell_formula_units_Z 52
_cell_length_a 8.421136
_cell_length_b 12.363628
_cell_length_c 26.184516
_cell_angle_alpha 90.000000
_cell_angle_beta 91.903262
_cell_angle_gamma 90.000000
_cell_volume 2724.717660
_symmetry_space_group_name_H-M "C 2/C"
_symmetry_group_IT_number 15
_symmetry_cell_setting 'monoclinic'
loop_
_space_group_symop_operation_xyz
x,y,z
-x,y,1/2-z
-x,-y,-z
x,-y,1/2+z
1/2+x,1/2+y,z
1/2-x,1/2+y,1/2-z
1/2-x,1/2-y,-z
1/2+x,1/2-y,1/2+z
loop_
_atom_site_type_symbol
_atom_site_label
_atom_site_fract_x
_atom_site_fract_y
_atom_site_fract_z
Si Si1 0.004582 0.218780 0.985106
Si Si2 0.745792 0.118304 0.439758
Si Si3 0.908688 0.380140 0.177066
Si Si4 0.183173 0.627550 0.939589
Si Si5 0.253111 0.889554 0.678681
Si Si6 0.000000 0.988891 0.750000
Si Si7 0.744957 0.667860 0.777369
O O1 0.864562 0.160885 0.952936
O O2 0.121752 0.286218 0.950133
O O3 0.925189 0.304085 0.023306
O O4 0.108441 0.137187 0.020294
O O5 0.793484 0.122872 0.380962
O O6 0.669146 0.000865 0.447951
O O7 0.862596 0.348885 0.119348
O O8 0.870342 0.507867 0.183281
O O9 0.799709 0.323034 0.218794
O O10 0.091719 0.356899 0.190981
O O11 0.323479 0.778902 0.701429
O O12 0.100246 0.918293 0.711436
O O13 0.877058 0.069111 0.720469
#
# Coordination Sequence:
#
# PCOD9272424 Si02
#       7
#     8   8   8   8   8   4   8
#     4  10  21  36  58  81 108 145 183 223 274 320
#     4  10  21  37  56  82 111 142 181 227 270 320
#     4   9  20  37  56  80 111 141 179 222 266 324
#     4  10  20  38  57  81 111 143 182 225 269 323
#     4  10  21  37  57  81 110 144 179 220 272 320
#     4  10  22  36  56  84 108 140 186 220 264 330
#     4  10  20  37  56  79 111 142 174 223 268 317
#
# _framework density 19.084546
#
# number of rings (size 3 to 8) (size 9 to 14) (size 15 to 20)
#    0.000    2.154    0.000    2.769    0.000    6.154 
#    0.000   15.385    0.000    0.000    0.000    0.000 
#    0.000    0.000    0.000    0.000    0.000    0.000 
#
# Total GULP energy -145205.386415 kJ/mol
# GULP energy per Si atom -5584.822554 kJ/mol
# Density = 1.904111 g / cm^3
# Si number density = 19.084546 Si / 1000 Ang^3
#
#
#
# Elastic Constant Matrix: (Units=GPa)
#
#
# Indices 1 2 3 4 5 6 
#
# 1 30.0219 -10.2459 7.1989 0.0000 -0.6727 0.0000
# 2 -10.2459 43.7022 33.7934 0.0000 -0.6088 0.0000
# 3 7.1989 33.7934 90.3724 0.0000 5.0270 0.0000
# 4 0.0000 0.0000 0.0000 26.7115 0.0000 1.1136
# 5 -0.6727 -0.6088 5.0270 0.0000 17.3924 0.0000
# 6 0.0000 0.0000 0.0000 1.1136 0.0000 11.4237
#
#
#
# Elastic Compliance Matrix: (Units=1/GPa)
#
#
# Indices 1 2 3 4 5 6 
#
# 1 0.042022 0.017921 -0.010340 0.000000 0.005241 0.000000
# 2 0.017921 0.040212 -0.016852 0.000000 0.006971 0.000000
# 3 -0.010340 -0.016852 0.018544 0.000000 -0.006350 0.000000
# 4 0.000000 0.000000 0.000000 0.037590 0.000000 -0.003664
# 5 0.005241 0.006971 -0.006350 0.000000 0.059778 0.000000
# 6 0.000000 0.000000 0.000000 -0.003664 0.000000 0.087895
#
#
# Mechanical properties :
#
#
# Convention : Reuss Voigt Hill
#
# Bulk Modulus (GPa) = 12.16037 25.06550 18.61293
# Shear Modulus (GPa) = 15.06051 19.99552 17.52801
#
# Velocity S-wave (km/s) = 2.81222 3.24038 3.03387
# Velocity P-wave (km/s) = 4.11467 5.21177 4.69537
#
# Compressibility (1/GPa) = 0.08223437
#
# Stress axis : x y z
#
# Youngs Moduli (GPa) = 23.79719 24.86842 53.92670
#
# Poissons Ratio (x) = -0.44566 0.55760
# Poissons Ratio (y) = -0.42646 0.90876
# Poissons Ratio (z) = 0.24606 0.41908
#
# Static dielectric constant tensor:
#      x y z
#    x 1.644790 0.000000 -0.005020 
#    y 0.000000 1.657180 0.000000 
#    z -0.005020 0.000000 1.640890 
# 
# From -- ./inp_files/287568.got.cif
#   From: 2010.05.17/outbox.cif.g08.bks.cpg/sg15_144_cif.got.tgz:287568.got - 2010.06.03 18:47:42.
