data_PCOD9272507
_publ_section_title
;
Structure prediction by ZEFSAII (Michael W. Deem and Ramdas Pophale) SiO2 
 PCOD9272507
Probable space group: C 2/C
;
_chemical_formula_sum "Si O2"
_cell_formula_units_Z 56
_cell_length_a 23.999642
_cell_length_b 9.616627
_cell_length_c 15.633713
_cell_angle_alpha 90.000000
_cell_angle_beta 59.577748
_cell_angle_gamma 90.000000
_cell_volume 3111.405792
_symmetry_space_group_name_H-M "C 2/C"
_symmetry_group_IT_number 15
_symmetry_cell_setting 'monoclinic'
loop_
_space_group_symop_operation_xyz
x,y,z
-x,y,1/2-z
-x,-y,-z
x,-y,1/2+z
1/2+x,1/2+y,z
1/2-x,1/2+y,1/2-z
1/2-x,1/2-y,-z
1/2+x,1/2-y,1/2+z
loop_
_atom_site_type_symbol
_atom_site_label
_atom_site_fract_x
_atom_site_fract_y
_atom_site_fract_z
Si Si1 0.667676 0.477433 0.758610
Si Si2 0.120888 0.713745 0.309168
Si Si3 0.987143 0.512678 0.159967
Si Si4 0.251199 0.587064 0.474314
Si Si5 0.625759 0.818157 0.317674
Si Si6 0.873809 0.520310 0.032622
Si Si7 0.770215 0.513030 0.332488
O O1 0.630957 0.623244 0.793818
O O2 0.700883 0.451138 0.640625
O O3 0.623158 0.345590 0.813957
O O4 0.723043 0.476577 0.788491
O O5 0.052555 0.653531 0.330007
O O6 0.128825 0.649537 0.398513
O O7 0.178656 0.638986 0.211457
O O8 0.938611 0.392666 0.165603
O O9 0.000000 0.502053 0.250000
O O10 0.054726 0.497784 0.059411
O O11 0.250000 0.750000 0.500000
O O12 0.179821 0.544495 0.497042
O O13 0.265387 0.502350 0.550023
O O14 0.640009 0.883292 0.399715
O O15 0.685391 0.875844 0.214925
#
# Coordination Sequence:
#
# PCOD9272507 Si02
#       7
#     8   8   8   8   8   8   8
#     4  12  22  39  58  93 133 148 196 253 309 358
#     4  10  21  37  60  86 122 160 193 254 300 350
#     4  10  21  41  63  84 111 156 219 245 286 365
#     4  12  22  35  66  94 122 159 204 248 301 363
#     4  10  20  38  61  87 117 160 197 248 297 353
#     4  10  20  40  65  85 114 164 212 240 292 370
#     4  10  20  37  57  88 122 163 197 233 298 361
#
# _framework density 17.998294999999999
#
# number of rings (size 3 to 8) (size 9 to 14) (size 15 to 20)
#    0.000    1.714    4.286    5.143    0.000    0.571 
#    2.571    3.571    0.000    0.000    0.000    0.000 
#    0.000    0.000    0.000    0.000    0.000    0.000 
#
# Total GULP energy -156274.093323 kJ/mol
# GULP energy per Si atom -5581.217619 kJ/mol
# Density = 1.795733 g / cm^3
# Si number density = 17.998295 Si / 1000 Ang^3
#
#
#
# Elastic Constant Matrix: (Units=GPa)
#
#
# Indices 1 2 3 4 5 6 
#
# 1 58.5274 29.6125 30.5336 0.0000 -4.5383 0.0000
# 2 29.6125 157.2371 43.7906 0.0000 -8.3238 0.0000
# 3 30.5336 43.7906 122.6361 0.0000 7.7225 0.0000
# 4 0.0000 0.0000 0.0000 19.3913 0.0000 -0.8179
# 5 -4.5383 -8.3238 7.7225 0.0000 28.8972 0.0000
# 6 0.0000 0.0000 0.0000 -0.8179 0.0000 2.5994
#
#
#
# Elastic Compliance Matrix: (Units=1/GPa)
#
#
# Indices 1 2 3 4 5 6 
#
# 1 0.021032 -0.002480 -0.004591 0.000000 0.003816 0.000000
# 2 -0.002480 0.007577 -0.002239 0.000000 0.002391 0.000000
# 3 -0.004591 -0.002239 0.010357 0.000000 -0.004134 0.000000
# 4 0.000000 0.000000 0.000000 0.052263 0.000000 0.016445
# 5 0.003816 0.002391 -0.004134 0.000000 0.036998 0.000000
# 6 0.000000 0.000000 0.000000 0.016445 0.000000 0.389875
#
#
# Mechanical properties :
#
#
# Convention : Reuss Voigt Hill
#
# Bulk Modulus (GPa) = 49.15009 60.69710 54.92359
# Shear Modulus (GPa) = 9.19956 25.80852 17.50404
#
# Velocity S-wave (km/s) = 2.26328 3.79085 3.12194
# Velocity P-wave (km/s) = 5.84785 7.27721 6.60133
#
# Compressibility (1/GPa) = 0.02034584
#
# Stress axis : x y z
#
# Youngs Moduli (GPa) = 47.54668 131.97859 96.55381
#
# Poissons Ratio (x) = 0.32735 0.44328
# Poissons Ratio (y) = 0.11793 0.21614
# Poissons Ratio (z) = 0.21829 0.29545
#
# Static dielectric constant tensor:
#      x y z
#    x 1.607900 0.000000 0.010200 
#    y 0.000000 1.617760 0.000000 
#    z 0.010200 0.000000 1.642550 
# 
# From -- ./inp_files/176509.got.cif
#   From: 2010.05.17/outbox.cif.g08.bks.cpg/sg15_89_cif.got.tgz:176509.got - 2010.06.03 18:47:42.
