data_PCOD9272350
_publ_section_title
;
Structure prediction by ZEFSAII (Michael W. Deem and Ramdas Pophale) SiO2 
 PCOD9272350
Probable space group: C 2/C
;
_chemical_formula_sum "Si O2"
_cell_formula_units_Z 40
_cell_length_a 16.505362
_cell_length_b 14.425116
_cell_length_c 8.136036
_cell_angle_alpha 90.000000
_cell_angle_beta 80.424192
_cell_angle_gamma 90.000000
_cell_volume 1910.131974
_symmetry_space_group_name_H-M "C 2/C"
_symmetry_group_IT_number 15
_symmetry_cell_setting 'monoclinic'
loop_
_space_group_symop_operation_xyz
x,y,z
-x,y,1/2-z
-x,-y,-z
x,-y,1/2+z
1/2+x,1/2+y,z
1/2-x,1/2+y,1/2-z
1/2-x,1/2-y,-z
1/2+x,1/2-y,1/2+z
loop_
_atom_site_type_symbol
_atom_site_label
_atom_site_fract_x
_atom_site_fract_y
_atom_site_fract_z
Si Si1 0.505056 0.708323 0.049347
Si Si2 0.171494 0.849019 0.880277
Si Si3 0.036847 0.408217 0.417778
Si Si4 0.778979 0.628552 0.650444
Si Si5 0.807604 0.157900 0.497329
O O1 0.500000 0.710843 0.250000
O O2 0.424700 0.647417 0.035087
O O3 0.487879 0.811647 0.987372
O O4 0.598299 0.680094 0.981917
O O5 0.196664 0.739130 0.860606
O O6 0.186888 0.884184 0.688727
O O7 0.225979 0.890368 0.006656
O O8 0.133889 0.419874 0.382652
O O9 0.000000 0.398591 0.250000
O O10 0.000000 0.500000 0.500000
O O11 0.732858 0.606148 0.835479
O O12 0.750000 0.250000 0.500000
#
# Coordination Sequence:
#
# PCOD9272350 Si02
#       5
#     8   8   8   8   8
#     4   8  15  29  49  70 108 134 165 212 260 312
#     4   8  15  28  44  71  95 128 160 206 268 303
#     4  10  20  37  47  67 104 146 176 205 246 314
#     4   9  17  30  47  67  97 128 171 213 248 302
#     4   9  15  26  46  72  97 134 157 204 272 303
#
# _framework density 20.94096
#
# number of rings (size 3 to 8) (size 9 to 14) (size 15 to 20)
#    0.000    3.200    0.000    3.600    0.000    0.800 
#   18.000    0.000    0.000    0.000    0.000    0.000 
#    0.000   14.400    0.000    0.000    0.000    0.000 
#
# Total GULP energy -111446.313191 kJ/mol
# GULP energy per Si atom -5572.315660 kJ/mol
# Density = 2.089330 g / cm^3
# Si number density = 20.940960 Si / 1000 Ang^3
#
#
#
# Elastic Constant Matrix: (Units=GPa)
#
#
# Indices 1 2 3 4 5 6 
#
# 1 222.9571 30.8622 90.9795 0.0000 -12.4893 0.0000
# 2 30.8622 20.6290 34.5787 0.0000 -8.0369 0.0000
# 3 90.9795 34.5787 109.4887 0.0000 -6.6194 0.0000
# 4 0.0000 0.0000 0.0000 160.4498 0.0000 193.1310
# 5 -12.4893 -8.0369 -6.6194 0.0000 34.9056 0.0000
# 6 0.0000 0.0000 0.0000 193.1310 0.0000 284.8900
#
#
#
# Elastic Compliance Matrix: (Units=1/GPa)
#
#
# Indices 1 2 3 4 5 6 
#
# 1 0.006857 -0.000730 -0.005391 0.000000 0.001263 0.000000
# 2 -0.000730 0.115238 -0.034596 0.000000 0.019711 0.000000
# 3 -0.005391 -0.034596 0.024218 0.000000 -0.005302 0.000000
# 4 0.000000 0.000000 0.000000 0.033871 0.000000 -0.022962
# 5 0.001263 0.019711 -0.005302 0.000000 0.032634 0.000000
# 6 0.000000 0.000000 0.000000 -0.022962 0.000000 0.019076
#
#
# Mechanical properties :
#
#
# Convention : Reuss Voigt Hill
#
# Bulk Modulus (GPa) = 15.41322 73.99062 44.70192
# Shear Modulus (GPa) = 14.92741 109.15938 62.04339
#
# Velocity S-wave (km/s) = 2.67279 7.22775 5.44904
# Velocity P-wave (km/s) = 4.11113 10.25005 7.80913
#
# Compressibility (1/GPa) = 0.06487939
#
# Stress axis : x y z
#
# Youngs Moduli (GPa) = 145.84389 8.67768 41.29111
#
# Poissons Ratio (x) = 0.00634 0.22258
# Poissons Ratio (y) = 0.10648 1.42851
# Poissons Ratio (z) = 0.78618 0.30021
#
# Static dielectric constant tensor:
#      x y z
#    x 1.874310 0.000000 -0.000550 
#    y 0.000000 1.835740 0.000000 
#    z -0.000550 0.000000 1.739940 
# 
# From -- ./inp_files/37841.got.cif
#   From: 2010.05.17/outbox.cif.g08.bks.cpg/sg15_19_cif.got.tgz:37841.got - 2010.06.03 18:47:42.
