data_PCOD9272458
_publ_section_title
;
Structure prediction by ZEFSAII (Michael W. Deem and Ramdas Pophale) SiO2 
 PCOD9272458
Probable space group: C 2/C
;
_chemical_formula_sum "Si O2"
_cell_formula_units_Z 64
_cell_length_a 17.477163
_cell_length_b 17.436244
_cell_length_c 22.045866
_cell_angle_alpha 90.000000
_cell_angle_beta 147.728716
_cell_angle_gamma 90.000000
_cell_volume 3587.023817
_symmetry_space_group_name_H-M "C 2/C"
_symmetry_group_IT_number 15
_symmetry_cell_setting 'monoclinic'
loop_
_space_group_symop_operation_xyz
x,y,z
-x,y,1/2-z
-x,-y,-z
x,-y,1/2+z
1/2+x,1/2+y,z
1/2-x,1/2+y,1/2-z
1/2-x,1/2-y,-z
1/2+x,1/2-y,1/2+z
loop_
_atom_site_type_symbol
_atom_site_label
_atom_site_fract_x
_atom_site_fract_y
_atom_site_fract_z
Si Si1 0.227956 0.515906 0.131476
Si Si2 0.631420 0.261263 0.508238
Si Si3 0.500845 0.885923 0.950322
Si Si4 0.350567 0.585220 0.413600
Si Si5 0.879465 0.154330 0.619644
Si Si6 0.990205 0.974056 0.892932
Si Si7 0.750169 0.485962 0.991570
Si Si8 0.965252 0.557192 0.291074
O O1 0.133653 0.576837 0.105836
O O2 0.375886 0.503051 0.265335
O O3 0.252481 0.542793 0.079071
O O4 0.134740 0.437842 0.062774
O O5 0.527702 0.203956 0.474836
O O6 0.682169 0.330241 0.584693
O O7 0.761919 0.208663 0.572519
O O8 0.567783 0.300535 0.404775
O O9 0.487309 0.897600 0.868565
O O10 0.464527 0.545662 0.534640
O O11 0.413728 0.582959 0.388645
O O12 0.202546 0.537496 0.319648
O O13 0.000000 0.137624 0.750000
O O14 0.805194 0.074975 0.548811
O O15 0.135038 0.945916 0.957533
O O16 0.913910 0.490842 0.124273
O O17 0.000000 0.597699 0.250000
#
# Coordination Sequence:
#
# PCOD9272458 Si02
#       8
#     8   8   8   8   8   8   8   8
#     4  10  20  37  57  77 110 145 191 234 278 327
#     4  11  23  35  49  81 113 151 186 221 281 342
#     4  10  22  36  54  81 110 151 190 231 274 330
#     4  11  24  35  56  79 115 153 185 229 283 330
#     4  11  22  32  49  78 115 147 181 223 275 345
#     4  11  21  38  54  82 112 146 191 237 277 332
#     4  11  21  36  58  84 111 148 190 230 283 328
#     4  11  19  36  53  78 113 153 186 221 267 343
#
# _framework density 17.842089000000001
#
# number of rings (size 3 to 8) (size 9 to 14) (size 15 to 20)
#    0.000    1.250    6.250    1.125    3.500    0.000 
#    0.000    0.000    0.000    0.750    0.000    0.000 
#    0.000    0.000    0.000    0.000    0.000    0.000 
#
# Total GULP energy -178449.170059 kJ/mol
# GULP energy per Si atom -5576.536564 kJ/mol
# Density = 1.780148 g / cm^3
# Si number density = 17.842089 Si / 1000 Ang^3
#
#
#
# Elastic Constant Matrix: (Units=GPa)
#
#
# Indices 1 2 3 4 5 6 
#
# 1 133.6775 27.8271 32.5585 0.0001 2.7237 0.0002
# 2 27.8271 37.0255 14.1892 -0.0025 -1.3069 -0.0005
# 3 32.5585 14.1892 100.5589 -0.0052 -0.0938 -0.0011
# 4 0.0001 -0.0025 -0.0052 7.7183 -0.0011 1.4182
# 5 2.7237 -1.3069 -0.0938 -0.0011 27.0937 0.0000
# 6 0.0002 -0.0005 -0.0011 1.4182 0.0000 26.3123
#
#
#
# Elastic Compliance Matrix: (Units=1/GPa)
#
#
# Indices 1 2 3 4 5 6 
#
# 1 0.009325 -0.006232 -0.002141 -0.000004 -0.001245 0.000000
# 2 -0.006232 0.032767 -0.002604 0.000009 0.002198 0.000000
# 3 -0.002141 -0.002604 0.011005 0.000007 0.000128 0.000000
# 4 -0.000004 0.000009 0.000007 0.130858 0.000006 -0.007053
# 5 -0.001245 0.002198 0.000128 0.000006 0.037141 0.000000
# 6 0.000000 0.000000 0.000000 -0.007053 0.000000 0.038385
#
#
# Mechanical properties :
#
#
# Convention : Reuss Voigt Hill
#
# Bulk Modulus (GPa) = 32.10865 46.71238 39.41052
# Shear Modulus (GPa) = 17.13408 25.33731 21.23570
#
# Velocity S-wave (km/s) = 3.10226 3.77249 3.45367
# Velocity P-wave (km/s) = 5.55582 6.72409 6.16768
#
# Compressibility (1/GPa) = 0.03114426
#
# Stress axis : x y z
#
# Youngs Moduli (GPa) = 107.24167 30.51816 90.86646
#
# Poissons Ratio (x) = 0.19018 0.19454
# Poissons Ratio (y) = 0.66829 0.23661
# Poissons Ratio (z) = 0.22960 0.07947
#
# Static dielectric constant tensor:
#      x y z
#    x 1.654650 0.000000 0.007970 
#    y 0.000000 1.586020 0.000000 
#    z 0.007970 0.000000 1.657160 
# 
# From -- ./inp_files/277805.got.cif
#   From: 2010.05.17/outbox.cif.g08.bks.cpg/sg15_139_cif.got.tgz:277805.got - 2010.06.03 18:47:42.
