data_PCOD9272298
_publ_section_title
;
Structure prediction by ZEFSAII (Michael W. Deem and Ramdas Pophale) SiO2 
 PCOD9272298
Probable space group: C 2/C
;
_chemical_formula_sum "Si O2"
_cell_formula_units_Z 60
_cell_length_a 16.670400
_cell_length_b 10.625004
_cell_length_c 17.177476
_cell_angle_alpha 90.000000
_cell_angle_beta 69.854861
_cell_angle_gamma 90.000000
_cell_volume 2856.395200
_symmetry_space_group_name_H-M "C 2/C"
_symmetry_group_IT_number 15
_symmetry_cell_setting 'monoclinic'
loop_
_space_group_symop_operation_xyz
x,y,z
-x,y,1/2-z
-x,-y,-z
x,-y,1/2+z
1/2+x,1/2+y,z
1/2-x,1/2+y,1/2-z
1/2-x,1/2-y,-z
1/2+x,1/2-y,1/2+z
loop_
_atom_site_type_symbol
_atom_site_label
_atom_site_fract_x
_atom_site_fract_y
_atom_site_fract_z
Si Si1 0.935606 0.114931 0.544219
Si Si2 0.678742 0.387958 0.779711
Si Si3 0.997008 0.233795 0.122171
Si Si4 0.673285 0.693428 0.123740
Si Si5 0.086993 0.130231 0.764457
Si Si6 0.500000 0.056910 0.750000
Si Si7 0.839269 0.619702 0.334769
Si Si8 0.249761 0.053811 0.966975
O O1 0.933900 0.152070 0.635989
O O2 0.840475 0.072108 0.548915
O O3 0.965621 0.229513 0.477855
O O4 0.000000 0.000000 0.500000
O O5 0.592819 0.338318 0.849089
O O6 0.698754 0.291746 0.703981
O O7 0.652704 0.516027 0.746206
O O8 0.759280 0.405867 0.805901
O O9 0.985600 0.358696 0.177459
O O10 0.072975 0.165564 0.145545
O O11 0.692028 0.827380 0.077731
O O12 0.726075 0.584876 0.063364
O O13 0.127181 0.243448 0.700713
O O14 0.000000 0.095518 0.750000
O O15 0.582106 0.971637 0.708638
O O16 0.799000 0.574802 0.430834
#
# Coordination Sequence:
#
# PCOD9272298 Si02
#       8
#     8   8   8   8   8   4   8   8
#     4  11  22  41  65 104 132 170 227 292 332 391
#     4  12  23  40  68  99 125 173 232 274 324 407
#     4  11  20  38  75  97 128 167 239 285 320 396
#     4  10  20  36  68 100 125 160 228 283 324 379
#     4  12  26  43  65  95 139 179 209 273 357 404
#     4  12  24  44  66 100 128 186 222 280 332 408
#     4  12  25  45  62  93 143 177 216 276 346 405
#     4  10  20  39  64  96 129 167 216 285 326 388
#
# _framework density 21.005496999999998
#
# number of rings (size 3 to 8) (size 9 to 14) (size 15 to 20)
#    0.000    0.800    6.000    1.600    3.733    0.000 
#    0.000    2.667    0.000    0.000    0.000    0.000 
#    0.000    0.000    0.000    0.000    0.000    0.000 
#
# Total GULP energy -167376.311844 kJ/mol
# GULP energy per Si atom -5579.210395 kJ/mol
# Density = 2.095769 g / cm^3
# Si number density = 21.005497 Si / 1000 Ang^3
#
#
#
# Elastic Constant Matrix: (Units=GPa)
#
#
# Indices 1 2 3 4 5 6 
#
# 1 104.0617 18.9803 6.2222 0.0000 -22.7977 0.0000
# 2 18.9803 55.1462 -11.7277 0.0000 -17.2413 0.0000
# 3 6.2222 -11.7277 59.2330 0.0000 -8.9403 0.0000
# 4 0.0000 0.0000 0.0000 41.6392 0.0000 -15.6412
# 5 -22.7977 -17.2413 -8.9403 0.0000 30.6099 0.0000
# 6 0.0000 0.0000 0.0000 -15.6412 0.0000 31.9261
#
#
#
# Elastic Compliance Matrix: (Units=1/GPa)
#
#
# Indices 1 2 3 4 5 6 
#
# 1 0.011603 -0.001723 -0.000421 0.000000 0.007548 0.000000
# 2 -0.001723 0.024964 0.007378 0.000000 0.014933 0.000000
# 3 -0.000421 0.007378 0.019842 0.000000 0.009638 0.000000
# 4 0.000000 0.000000 0.000000 0.029432 0.000000 0.014419
# 5 0.007548 0.014933 0.009638 0.000000 0.049517 0.000000
# 6 0.000000 0.000000 0.000000 0.014419 0.000000 0.038387
#
#
# Mechanical properties :
#
#
# Convention : Reuss Voigt Hill
#
# Bulk Modulus (GPa) = 14.95283 27.26562 21.10923
# Shear Modulus (GPa) = 26.94411 34.49946 30.72178
#
# Velocity S-wave (km/s) = 3.58539 4.05705 3.82849
# Velocity P-wave (km/s) = 4.92687 5.91224 5.44190
#
# Compressibility (1/GPa) = 0.06687696
#
# Stress axis : x y z
#
# Youngs Moduli (GPa) = 86.18655 40.05712 50.39810
#
# Poissons Ratio (x) = 0.06902 0.02120
# Poissons Ratio (y) = 0.14850 -0.37182
# Poissons Ratio (z) = 0.03626 -0.29553
#
# Static dielectric constant tensor:
#      x y z
#    x 1.740420 0.000000 -0.062380 
#    y 0.000000 1.806650 0.000000 
#    z -0.062380 0.000000 2.219660 
# 
# From -- ./inp_files/204440.got.cif
#   From: 2010.05.17/outbox.cif.g08.bks.cpg/sg15_103_cif.got.tgz:204440.got - 2010.06.03 18:47:42.
