data_PCOD9272439
_publ_section_title
;
Structure prediction by ZEFSAII (Michael W. Deem and Ramdas Pophale) SiO2 
 PCOD9272439
Probable space group: C 2/C
;
_chemical_formula_sum "Si O2"
_cell_formula_units_Z 32
_cell_length_a 24.190900
_cell_length_b 9.731837
_cell_length_c 11.906793
_cell_angle_alpha 90.000000
_cell_angle_beta 24.152495
_cell_angle_gamma 90.000000
_cell_volume 1146.943094
_symmetry_space_group_name_H-M "C 2/C"
_symmetry_group_IT_number 15
_symmetry_cell_setting 'monoclinic'
loop_
_space_group_symop_operation_xyz
x,y,z
-x,y,1/2-z
-x,-y,-z
x,-y,1/2+z
1/2+x,1/2+y,z
1/2-x,1/2+y,1/2-z
1/2-x,1/2-y,-z
1/2+x,1/2-y,1/2+z
loop_
_atom_site_type_symbol
_atom_site_label
_atom_site_fract_x
_atom_site_fract_y
_atom_site_fract_z
Si Si1 0.936680 0.547116 0.255440
Si Si2 0.829916 0.343746 0.744248
Si Si3 0.749966 0.783347 0.834863
Si Si4 0.554717 0.636204 0.340111
O O1 0.835723 0.642685 0.368870
O O2 0.845166 0.413107 0.452644
O O3 0.000000 0.612900 0.250000
O O4 0.075203 0.478918 0.951052
O O5 0.721505 0.325565 0.846808
O O6 0.926739 0.217472 0.534061
O O7 0.877351 0.785289 0.680702
O O8 0.664689 0.649000 0.035896
O O9 0.500000 0.500000 0.500000
#
# Coordination Sequence:
#
# PCOD9272439 Si02
#       4
#     8   8   8   8
#     4   8  15  32  59  82 110 151 193 242 300 364
#     4   9  17  35  57  84 114 150 197 244 302 362
#     4   9  19  38  59  83 119 157 195 248 309 355
#     4  10  20  37  56  84 118 157 198 246 303 364
#
# _framework density 27.900248999999999
#
# number of rings (size 3 to 8) (size 9 to 14) (size 15 to 20)
#    0.000    3.000    0.000    2.250    0.000    0.000 
#   27.000    3.750    0.000    0.000    0.000    0.000 
#    0.000    0.000    0.000    0.000    0.000    0.000 
#
# Total GULP energy -89203.008117 kJ/mol
# GULP energy per Si atom -5575.188007 kJ/mol
# Density = 2.783675 g / cm^3
# Si number density = 27.900249 Si / 1000 Ang^3
#
#
#
# Elastic Constant Matrix: (Units=GPa)
#
#
# Indices 1 2 3 4 5 6 
#
# 1 185.4254 16.9544 -6.5513 0.0000 19.3472 0.0000
# 2 16.9544 107.7011 21.2697 0.0000 9.4825 0.0000
# 3 -6.5513 21.2697 44.2176 0.0000 -1.1121 0.0000
# 4 0.0000 0.0000 0.0000 49.9412 0.0000 5.6446
# 5 19.3472 9.4825 -1.1121 0.0000 47.1202 0.0000
# 6 0.0000 0.0000 0.0000 5.6446 0.0000 17.8822
#
#
#
# Elastic Compliance Matrix: (Units=1/GPa)
#
#
# Indices 1 2 3 4 5 6 
#
# 1 0.005749 -0.000966 0.001263 0.000000 -0.002136 0.000000
# 2 -0.000966 0.010651 -0.005314 0.000000 -0.001872 0.000000
# 3 0.001263 -0.005314 0.025388 0.000000 0.001150 0.000000
# 4 0.000000 0.000000 0.000000 0.020764 0.000000 -0.006554
# 5 -0.002136 -0.001872 0.001150 0.000000 0.022503 0.000000
# 6 0.000000 0.000000 0.000000 -0.006554 0.000000 0.057990
#
#
# Mechanical properties :
#
#
# Convention : Reuss Voigt Hill
#
# Bulk Modulus (GPa) = 31.49291 44.52109 38.00700
# Shear Modulus (GPa) = 30.55027 43.36682 36.95855
#
# Velocity S-wave (km/s) = 3.31264 3.94680 3.64355
# Velocity P-wave (km/s) = 5.09349 6.06313 5.59934
#
# Compressibility (1/GPa) = 0.03175318
#
# Stress axis : x y z
#
# Youngs Moduli (GPa) = 173.94743 93.88509 39.38944
#
# Poissons Ratio (x) = 0.09072 -0.04974
# Poissons Ratio (y) = 0.16809 0.20931
# Poissons Ratio (z) = -0.21967 0.49889
#
# Static dielectric constant tensor:
#      x y z
#    x 2.351550 0.000000 0.377690 
#    y 0.000000 2.184340 0.000000 
#    z 0.377690 0.000000 2.593340 
# 
# From -- ./inp_files/117350.got.cif
#   From: 2010.05.17/outbox.cif.g08.bks.cpg/sg15_59_cif.got.tgz:117350.got - 2010.06.03 18:47:42.
