data_PCOD9272544
_publ_section_title
;
Structure prediction by ZEFSAII (Michael W. Deem and Ramdas Pophale) SiO2 
 PCOD9272544
Probable space group: C 2/C
;
_chemical_formula_sum "Si O2"
_cell_formula_units_Z 64
_cell_length_a 21.161714
_cell_length_b 19.950816
_cell_length_c 18.318759
_cell_angle_alpha 90.000000
_cell_angle_beta 152.097573
_cell_angle_gamma 90.000000
_cell_volume 3619.286919
_symmetry_space_group_name_H-M "C 2/C"
_symmetry_group_IT_number 15
_symmetry_cell_setting 'monoclinic'
loop_
_space_group_symop_operation_xyz
x,y,z
-x,y,1/2-z
-x,-y,-z
x,-y,1/2+z
1/2+x,1/2+y,z
1/2-x,1/2+y,1/2-z
1/2-x,1/2-y,-z
1/2+x,1/2-y,1/2+z
loop_
_atom_site_type_symbol
_atom_site_label
_atom_site_fract_x
_atom_site_fract_y
_atom_site_fract_z
Si Si1 0.777752 0.050988 0.093954
Si Si2 0.012787 0.737462 0.933981
Si Si3 0.029077 0.964027 0.106516
Si Si4 0.011900 0.495524 0.396239
Si Si5 0.242879 0.210343 0.415815
Si Si6 0.967625 0.610604 0.974350
Si Si7 0.152330 0.126324 0.622541
Si Si8 0.694830 0.518701 0.542493
O O1 0.792758 0.131433 0.114707
O O2 0.865345 0.009577 0.241758
O O3 0.623313 0.026426 0.950856
O O4 0.828431 0.031338 0.065654
O O5 0.865259 0.753301 0.748700
O O6 0.025116 0.683120 0.011728
O O7 0.107988 0.711844 0.966042
O O8 0.079915 0.805719 0.028656
O O9 0.092419 0.897008 0.139161
O O10 0.000000 0.000000 0.000000
O O11 0.892972 0.957699 0.014593
O O12 0.026961 0.570834 0.443669
O O13 0.032942 0.442580 0.484183
O O14 0.855490 0.487664 0.215318
O O15 0.250000 0.250000 0.500000
O O16 0.811612 0.622863 0.796898
O O17 0.139486 0.078537 0.537701
#
# Coordination Sequence:
#
# PCOD9272544 Si02
#       8
#     8   8   8   8   8   8   8   8
#     4  12  22  38  59  86 118 163 198 238 292 347
#     4  12  23  38  57  81 115 159 199 238 289 350
#     4  10  21  37  58  81 114 154 196 248 292 334
#     4  10  21  36  61  82 114 152 195 250 293 333
#     4  12  26  36  52  81 124 168 197 226 281 356
#     4  10  20  37  58  84 111 148 200 247 286 335
#     4  10  20  39  58  82 118 152 192 248 289 341
#     4  10  22  35  58  87 118 147 196 238 290 354
#
# _framework density 17.683042
#
# number of rings (size 3 to 8) (size 9 to 14) (size 15 to 20)
#    0.000    1.250    3.750    3.375    3.500    3.000 
#    0.000    0.000    0.000    0.000    0.000    5.250 
#    0.000    0.000    0.000    0.000    0.000    0.000 
#
# Total GULP energy -178257.272587 kJ/mol
# GULP energy per Si atom -5570.539768 kJ/mol
# Density = 1.764279 g / cm^3
# Si number density = 17.683042 Si / 1000 Ang^3
#
#
#
# Elastic Constant Matrix: (Units=GPa)
#
#
# Indices 1 2 3 4 5 6 
#
# 1 108.0521 42.0404 22.8618 0.0000 0.9458 0.0000
# 2 42.0404 76.7369 25.5720 0.0000 -20.1666 0.0000
# 3 22.8618 25.5720 52.5943 0.0000 -2.8180 0.0000
# 4 0.0000 0.0000 0.0000 9.4979 0.0000 6.7664
# 5 0.9458 -20.1666 -2.8180 0.0000 28.1460 0.0000
# 6 0.0000 0.0000 0.0000 6.7664 0.0000 27.3585
#
#
#
# Elastic Compliance Matrix: (Units=1/GPa)
#
#
# Indices 1 2 3 4 5 6 
#
# 1 0.012877 -0.008068 -0.002018 0.000000 -0.006416 0.000000
# 2 -0.008068 0.024404 -0.007447 0.000000 0.017011 0.000000
# 3 -0.002018 -0.007447 0.023355 0.000000 -0.002930 0.000000
# 4 0.000000 0.000000 0.000000 0.127806 0.000000 -0.031610
# 5 -0.006416 0.017011 -0.002930 0.000000 0.047640 0.000000
# 6 0.000000 0.000000 0.000000 -0.031610 0.000000 0.044370
#
#
# Mechanical properties :
#
#
# Convention : Reuss Voigt Hill
#
# Bulk Modulus (GPa) = 39.11033 46.48130 42.79581
# Shear Modulus (GPa) = 15.43018 22.79442 19.11230
#
# Velocity S-wave (km/s) = 2.95718 3.59424 3.29116
# Velocity P-wave (km/s) = 5.81595 6.60057 6.22065
#
# Compressibility (1/GPa) = 0.02556869
#
# Stress axis : x y z
#
# Youngs Moduli (GPa) = 77.65712 40.97729 42.81810
#
# Poissons Ratio (x) = 0.33061 0.08642
# Poissons Ratio (y) = 0.62655 0.31886
# Poissons Ratio (z) = 0.15674 0.30515
#
# Static dielectric constant tensor:
#      x y z
#    x 1.623260 0.000000 0.027900 
#    y 0.000000 1.633990 0.000000 
#    z 0.027900 0.000000 1.628440 
# 
# From -- ./inp_files/216135.got.cif
#   From: 2010.05.17/outbox.cif.g08.bks.cpg/sg15_109_cif.got.tgz:216135.got - 2010.06.03 18:47:42.
