data_PCOD9272480
_publ_section_title
;
Structure prediction by ZEFSAII (Michael W. Deem and Ramdas Pophale) SiO2 
 PCOD9272480
Probable space group: C 2/C
;
_chemical_formula_sum "Si O2"
_cell_formula_units_Z 64
_cell_length_a 19.820996
_cell_length_b 19.854169
_cell_length_c 11.562633
_cell_angle_alpha 90.000000
_cell_angle_beta 135.036240
_cell_angle_gamma 90.000000
_cell_volume 3215.467049
_symmetry_space_group_name_H-M "C 2/C"
_symmetry_group_IT_number 15
_symmetry_cell_setting 'monoclinic'
loop_
_space_group_symop_operation_xyz
x,y,z
-x,y,1/2-z
-x,-y,-z
x,-y,1/2+z
1/2+x,1/2+y,z
1/2-x,1/2+y,1/2-z
1/2-x,1/2-y,-z
1/2+x,1/2-y,1/2+z
loop_
_atom_site_type_symbol
_atom_site_label
_atom_site_fract_x
_atom_site_fract_y
_atom_site_fract_z
Si Si1 0.461766 0.282441 0.822664
Si Si2 0.671140 0.829402 0.451131
Si Si3 0.828330 0.156070 0.323619
Si Si4 0.243464 0.642934 0.574441
Si Si5 0.793618 0.437022 0.689906
Si Si6 0.826963 0.406621 0.263814
Si Si7 0.613849 0.267651 0.376046
Si Si8 0.042438 0.354246 0.492465
O O1 0.500000 0.312448 0.750000
O O2 0.377971 0.233577 0.670620
O O3 0.422693 0.337483 0.862245
O O4 0.528925 0.227324 0.969532
O O5 0.745489 0.813807 0.641881
O O6 0.716670 0.873562 0.405088
O O7 0.588038 0.868618 0.421070
O O8 0.790680 0.085250 0.324644
O O9 0.843872 0.200561 0.455203
O O10 0.238725 0.580549 0.479397
O O11 0.221785 0.620645 0.678658
O O12 0.340510 0.685594 0.669117
O O13 0.159866 0.693934 0.431151
O O14 0.820982 0.513471 0.745051
O O15 0.882180 0.387966 0.830107
O O16 0.938200 0.383627 0.393132
O O17 0.500000 0.266803 0.250000
#
# Coordination Sequence:
#
# PCOD9272480 Si02
#       8
#     8   8   8   8   8   8   8   8
#     4   9  17  31  54  86 117 148 194 244 295 357
#     4   9  19  35  57  85 121 153 191 245 297 358
#     4  10  20  37  57  83 116 155 197 242 308 345
#     4  10  24  39  61  98 116 166 210 238 318 356
#     4  10  23  36  56  86 124 164 200 245 288 370
#     4  11  21  37  60  86 125 163 200 248 295 366
#     4  10  22  43  65  88 127 156 201 263 301 369
#     4   9  19  35  54  88 122 158 195 236 304 357
#
# _framework density 19.903796
#
# number of rings (size 3 to 8) (size 9 to 14) (size 15 to 20)
#    0.000    2.250    0.000    3.375    7.000    0.000 
#    6.750    0.000    0.000    3.750    0.000    0.000 
#    0.000    0.000    0.000    0.000    0.000    0.000 
#
# Total GULP energy -178384.639574 kJ/mol
# GULP energy per Si atom -5574.519987 kJ/mol
# Density = 1.985849 g / cm^3
# Si number density = 19.903796 Si / 1000 Ang^3
#
#
#
# Elastic Constant Matrix: (Units=GPa)
#
#
# Indices 1 2 3 4 5 6 
#
# 1 158.4456 55.0168 23.5640 0.0000 -11.9073 0.0000
# 2 55.0168 39.2255 17.3021 0.0000 1.9569 0.0000
# 3 23.5640 17.3021 65.5252 0.0000 -2.5917 0.0000
# 4 0.0000 0.0000 0.0000 5.2213 0.0000 2.1654
# 5 -11.9073 1.9569 -2.5917 0.0000 24.6207 0.0000
# 6 0.0000 0.0000 0.0000 2.1654 0.0000 19.5348
#
#
#
# Elastic Compliance Matrix: (Units=1/GPa)
#
#
# Indices 1 2 3 4 5 6 
#
# 1 0.013814 -0.020085 0.000666 0.000000 0.008347 0.000000
# 2 -0.020085 0.058296 -0.008774 0.000000 -0.015271 0.000000
# 3 0.000666 -0.008774 0.017452 0.000000 0.002857 0.000000
# 4 0.000000 0.000000 0.000000 0.200750 0.000000 -0.022252
# 5 0.008347 -0.015271 0.002857 0.000000 0.046168 0.000000
# 6 0.000000 0.000000 0.000000 -0.022252 0.000000 0.053657
#
#
# Mechanical properties :
#
#
# Convention : Reuss Voigt Hill
#
# Bulk Modulus (GPa) = 30.14315 50.55135 40.34725
# Shear Modulus (GPa) = 10.92703 21.02959 15.97831
#
# Velocity S-wave (km/s) = 2.34560 3.25401 2.83641
# Velocity P-wave (km/s) = 4.74480 6.29055 5.57154
#
# Compressibility (1/GPa) = 0.03317503
#
# Stress axis : x y z
#
# Youngs Moduli (GPa) = 72.39277 17.15381 57.30101
#
# Poissons Ratio (x) = 0.34453 -0.03816
# Poissons Ratio (y) = 1.45399 0.50278
# Poissons Ratio (z) = -0.04821 0.15051
#
# Static dielectric constant tensor:
#      x y z
#    x 1.768800 0.000000 0.010470 
#    y 0.000000 1.698350 0.000000 
#    z 0.010470 0.000000 1.760910 
# 
# From -- ./inp_files/107512.got.cif
#   From: 2010.05.17/outbox.cif.g08.bks.cpg/sg15_54_cif.got.tgz:107512.got - 2010.06.03 18:47:42.
