data_PCOD9272489
_publ_section_title
;
Structure prediction by ZEFSAII (Michael W. Deem and Ramdas Pophale) SiO2 
 PCOD9272489
Probable space group: C 2/C
;
_chemical_formula_sum "Si O2"
_cell_formula_units_Z 40
_cell_length_a 17.526958
_cell_length_b 4.904442
_cell_length_c 35.894539
_cell_angle_alpha 90.000000
_cell_angle_beta 137.067468
_cell_angle_gamma 90.000000
_cell_volume 2101.642312
_symmetry_space_group_name_H-M "C 2/C"
_symmetry_group_IT_number 15
_symmetry_cell_setting 'monoclinic'
loop_
_space_group_symop_operation_xyz
x,y,z
-x,y,1/2-z
-x,-y,-z
x,-y,1/2+z
1/2+x,1/2+y,z
1/2-x,1/2+y,1/2-z
1/2-x,1/2-y,-z
1/2+x,1/2-y,1/2+z
loop_
_atom_site_type_symbol
_atom_site_label
_atom_site_fract_x
_atom_site_fract_y
_atom_site_fract_z
Si Si1 0.632636 0.592892 0.622268
Si Si2 0.532909 0.699612 0.302461
Si Si3 0.671629 0.457128 0.718279
Si Si4 0.683101 0.829872 0.857974
Si Si5 0.910493 0.623241 0.940171
O O1 0.618494 0.567478 0.660956
O O2 0.755664 0.472406 0.655582
O O3 0.552898 0.390363 0.569943
O O4 0.622040 0.892265 0.601575
O O5 0.500000 0.809390 0.250000
O O6 0.423939 0.627057 0.287076
O O7 0.605407 0.426998 0.322279
O O8 0.608666 0.931691 0.348900
O O9 0.751720 0.694159 0.762302
O O10 0.794533 0.718200 0.918513
O O11 0.000000 0.500000 0.000000
#
# Coordination Sequence:
#
# PCOD9272489 Si02
#       5
#     8   8   8   8   8
#     4  10  20  37  59  86 118 146 204 239 298 352
#     4  12  22  36  57  84 121 157 197 237 293 356
#     4  12  24  38  57  86 125 164 196 238 299 362
#     4  10  20  37  57  85 112 150 199 244 290 348
#     4  10  20  37  66  88 112 150 207 257 293 342
#
# _framework density 19.032736
#
# number of rings (size 3 to 8) (size 9 to 14) (size 15 to 20)
#    1.200    0.000    2.000    6.000    0.000    0.000 
#    0.000    0.000    0.000    7.200    0.000    0.000 
#    0.000    0.000    0.000    0.000    0.000    0.000 
#
# Total GULP energy -111485.000549 kJ/mol
# GULP energy per Si atom -5574.250027 kJ/mol
# Density = 1.898942 g / cm^3
# Si number density = 19.032736 Si / 1000 Ang^3
#
#
#
# Elastic Constant Matrix: (Units=GPa)
#
#
# Indices 1 2 3 4 5 6 
#
# 1 67.9723 12.6275 39.4485 -0.0057 7.7384 0.0000
# 2 12.6275 102.1241 6.9523 -0.0227 10.3734 -0.0040
# 3 39.4485 6.9523 52.7199 -0.0149 5.4968 -0.0045
# 4 -0.0057 -0.0227 -0.0149 28.5447 0.0015 3.6954
# 5 7.7384 10.3734 5.4968 0.0015 19.7220 -0.0015
# 6 0.0000 -0.0040 -0.0045 3.6954 -0.0015 17.3875
#
#
#
# Elastic Compliance Matrix: (Units=1/GPa)
#
#
# Indices 1 2 3 4 5 6 
#
# 1 0.026707 -0.001552 -0.019334 -0.000005 -0.004274 -0.000005
# 2 -0.001552 0.010469 0.000300 0.000008 -0.004981 0.000000
# 3 -0.019334 0.000300 0.033597 0.000013 -0.001936 0.000006
# 4 -0.000005 0.000008 0.000013 0.036024 -0.000009 -0.007656
# 5 -0.004274 -0.004981 -0.001936 -0.000009 0.055542 0.000005
# 6 -0.000005 0.000000 0.000006 -0.007656 0.000005 0.059140
#
#
# Mechanical properties :
#
#
# Convention : Reuss Voigt Hill
#
# Bulk Modulus (GPa) = 33.78087 37.87476 35.82781
# Shear Modulus (GPa) = 18.34734 24.05004 21.19869
#
# Velocity S-wave (km/s) = 3.10818 3.55859 3.34099
# Velocity P-wave (km/s) = 5.53791 6.06859 5.80931
#
# Compressibility (1/GPa) = 0.02960256
#
# Stress axis : x y z
#
# Youngs Moduli (GPa) = 37.44267 95.51567 29.76423
#
# Poissons Ratio (x) = 0.14824 0.57546
# Poissons Ratio (y) = 0.05811 -0.00893
# Poissons Ratio (z) = 0.72392 -0.02866
#
# Static dielectric constant tensor:
#      x y z
#    x 1.654500 0.000000 0.027460 
#    y 0.000000 1.697850 0.000000 
#    z 0.027460 0.000000 1.684050 
# 
# From -- ./inp_files/271699.got.cif
#   From: 2010.05.17/outbox.cif.g08.bks.cpg/sg15_136_cif.got.tgz:271699.got - 2010.06.03 18:47:42.
