data_PCOD9272600
_publ_section_title
;
Structure prediction by ZEFSAII (Michael W. Deem and Ramdas Pophale) SiO2 
 PCOD9272600
Probable space group: C 2/C
;
_chemical_formula_sum "Si O2"
_cell_formula_units_Z 48
_cell_length_a 12.196510
_cell_length_b 26.886308
_cell_length_c 13.942431
_cell_angle_alpha 90.000000
_cell_angle_beta 148.162878
_cell_angle_gamma 90.000000
_cell_volume 2411.753548
_symmetry_space_group_name_H-M "C 2/C"
_symmetry_group_IT_number 15
_symmetry_cell_setting 'monoclinic'
loop_
_space_group_symop_operation_xyz
x,y,z
-x,y,1/2-z
-x,-y,-z
x,-y,1/2+z
1/2+x,1/2+y,z
1/2-x,1/2+y,1/2-z
1/2-x,1/2-y,-z
1/2+x,1/2-y,1/2+z
loop_
_atom_site_type_symbol
_atom_site_label
_atom_site_fract_x
_atom_site_fract_y
_atom_site_fract_z
Si Si1 0.934704 0.798593 0.314122
Si Si2 0.339889 0.945572 0.558343
Si Si3 0.988138 0.016149 0.130031
Si Si4 0.850051 0.684202 0.231350
Si Si5 0.842495 0.468960 0.269822
Si Si6 0.087676 0.377046 0.053398
O O1 0.895642 0.740202 0.302201
O O2 0.731973 0.830794 0.185343
O O3 0.000000 0.803376 0.250000
O O4 0.120824 0.817892 0.518109
O O5 0.500000 0.920984 0.750000
O O6 0.292827 0.909556 0.437569
O O7 0.131071 0.963195 0.452061
O O8 0.471137 0.994653 0.624149
O O9 0.000000 0.033689 0.250000
O O10 0.827375 0.044073 0.939497
O O11 0.206884 0.003282 0.242941
O O12 0.000000 0.679945 0.250000
O O13 0.894857 0.645265 0.349981
O O14 0.937153 0.418285 0.382854
#
# Coordination Sequence:
#
# PCOD9272600 Si02
#       6
#     8   8   8   8   8   8
#     4  11  21  34  51  75 111 150 196 236 277 347
#     4  10  22  37  54  79 116 157 191 238 290 331
#     4  10  20  37  59  76 116 159 188 242 290 329
#     4  11  20  35  51  74 110 155 189 236 285 337
#     4  10  23  37  54  87 114 150 206 240 276 348
#     4  12  22  33  56  78 113 150 199 231 279 341
#
# _framework density 19.902531
#
# number of rings (size 3 to 8) (size 9 to 14) (size 15 to 20)
#    0.000    1.333    5.000    2.000    2.333    2.667 
#    0.000    0.000    0.000    0.000    0.000    0.000 
#    0.000   17.333    0.000    0.167    0.000    0.000 
#
# Total GULP energy -133901.959854 kJ/mol
# GULP energy per Si atom -5579.248327 kJ/mol
# Density = 1.985723 g / cm^3
# Si number density = 19.902531 Si / 1000 Ang^3
#
#
#
# Elastic Constant Matrix: (Units=GPa)
#
#
# Indices 1 2 3 4 5 6 
#
# 1 55.7301 19.6592 20.2399 0.0000 -9.8207 0.0000
# 2 19.6592 106.5576 25.7045 0.0000 -15.4195 0.0000
# 3 20.2399 25.7045 125.6711 0.0000 -30.5432 0.0000
# 4 0.0000 0.0000 0.0000 32.2585 0.0000 -23.3828
# 5 -9.8207 -15.4195 -30.5432 0.0000 37.8716 0.0000
# 6 0.0000 0.0000 0.0000 -23.3828 0.0000 23.1484
#
#
#
# Elastic Compliance Matrix: (Units=1/GPa)
#
#
# Indices 1 2 3 4 5 6 
#
# 1 0.020129 -0.002869 -0.002078 0.000000 0.002376 0.000000
# 2 -0.002869 0.010557 -0.001037 0.000000 0.002718 0.000000
# 3 -0.002078 -0.001037 0.010287 0.000000 0.007335 0.000000
# 4 0.000000 0.000000 0.000000 0.115753 0.000000 0.116925
# 5 0.002376 0.002718 0.007335 0.000000 0.034044 0.000000
# 6 0.000000 0.000000 0.000000 0.116925 0.000000 0.161308
#
#
# Mechanical properties :
#
#
# Convention : Reuss Voigt Hill
#
# Bulk Modulus (GPa) = 34.47438 46.57400 40.52419
# Shear Modulus (GPa) = 13.37926 33.47940 23.42933
#
# Velocity S-wave (km/s) = 2.59557 4.10587 3.43476
# Velocity P-wave (km/s) = 5.13243 6.77713 6.01129
#
# Compressibility (1/GPa) = 0.02900705
#
# Stress axis : x y z
#
# Youngs Moduli (GPa) = 49.68002 94.72128 97.21297
#
# Poissons Ratio (x) = 0.27172 0.20197
# Poissons Ratio (y) = 0.14251 0.10078
# Poissons Ratio (z) = 0.10321 0.09819
#
# Static dielectric constant tensor:
#      x y z
#    x 1.731010 0.000000 -0.056390 
#    y 0.000000 1.716090 0.000000 
#    z -0.056390 0.000000 1.807930 
# 
# From -- ./inp_files/148858.got.cif
#   From: 2010.05.17/outbox.cif.g08.bks.cpg/sg15_75_cif.got.tgz:148858.got - 2010.06.03 18:47:42.
