data_PCOD9272919
_publ_section_title
;
Structure prediction by ZEFSAII (Michael W. Deem and Ramdas Pophale) SiO2 
 PCOD9272919
Probable space group: C 2/C
;
_chemical_formula_sum "Si O2"
_cell_formula_units_Z 48
_cell_length_a 11.270883
_cell_length_b 15.449380
_cell_length_c 28.155032
_cell_angle_alpha 90.000000
_cell_angle_beta 31.278723
_cell_angle_gamma 90.000000
_cell_volume 2545.430164
_symmetry_space_group_name_H-M "C 2/C"
_symmetry_group_IT_number 15
_symmetry_cell_setting 'monoclinic'
loop_
_space_group_symop_operation_xyz
x,y,z
-x,y,1/2-z
-x,-y,-z
x,-y,1/2+z
1/2+x,1/2+y,z
1/2-x,1/2+y,1/2-z
1/2-x,1/2-y,-z
1/2+x,1/2-y,1/2+z
loop_
_atom_site_type_symbol
_atom_site_label
_atom_site_fract_x
_atom_site_fract_y
_atom_site_fract_z
Si Si1 0.242121 0.691479 0.455222
Si Si2 0.947469 0.936393 0.474499
Si Si3 0.134921 0.664853 0.654195
Si Si4 0.524888 0.483327 0.849887
Si Si5 0.149507 0.569530 0.919793
Si Si6 0.460536 0.993796 0.147083
O O1 0.250000 0.750000 0.500000
O O2 0.374291 0.744740 0.369803
O O3 0.373802 0.600387 0.414359
O O4 0.982559 0.661179 0.531750
O O5 0.091356 0.850551 0.434441
O O6 0.061276 0.971947 0.387745
O O7 0.674801 0.943311 0.562814
O O8 0.000000 0.000000 0.500000
O O9 0.000000 0.664301 0.750000
O O10 0.042725 0.587351 0.651652
O O11 0.394187 0.551996 0.860182
O O12 0.759937 0.459445 0.744213
O O13 0.136327 0.542387 0.869317
O O14 0.000000 0.500000 0.000000
#
# Coordination Sequence:
#
# PCOD9272919 Si02
#       6
#     8   8   8   8   8   8
#     4  11  21  40  63  91 126 167 202 258 328 370
#     4  10  20  37  61  89 120 163 205 255 302 378
#     4  11  22  38  62  90 126 158 205 262 316 372
#     4  11  22  39  67  90 120 164 219 250 308 385
#     4  10  20  37  63  90 118 161 210 253 307 373
#     4  11  20  39  65  89 120 165 212 255 306 373
#
# _framework density 18.857323000000001
#
# number of rings (size 3 to 8) (size 9 to 14) (size 15 to 20)
#    0.000    1.333    6.667    1.500    0.000    2.667 
#    0.000    2.500    0.000    0.000    0.000    0.000 
#    0.000    0.000    0.000    0.000    0.000    0.000 
#
# Total GULP energy -133682.183202 kJ/mol
# GULP energy per Si atom -5570.090967 kJ/mol
# Density = 1.881440 g / cm^3
# Si number density = 18.857323 Si / 1000 Ang^3
#
#
#
# Elastic Constant Matrix: (Units=GPa)
#
#
# Indices 1 2 3 4 5 6 
#
# 1 84.9220 19.8867 16.2459 -0.0021 28.5084 0.0028
# 2 19.8867 57.6672 1.3835 -0.0056 -2.0652 -0.0029
# 3 16.2459 1.3835 89.6796 -0.0003 18.4571 -0.0112
# 4 -0.0021 -0.0056 -0.0003 26.5306 -0.0025 4.3990
# 5 28.5084 -2.0652 18.4571 -0.0025 26.7314 -0.0012
# 6 0.0028 -0.0029 -0.0112 4.3990 -0.0012 20.2074
#
#
#
# Elastic Compliance Matrix: (Units=1/GPa)
#
#
# Indices 1 2 3 4 5 6 
#
# 1 0.021849 -0.008455 0.001285 -0.000002 -0.024842 -0.000005
# 2 -0.008455 0.020692 -0.001133 0.000004 0.011399 0.000003
# 3 0.001285 -0.001133 0.013097 -0.000002 -0.010501 0.000007
# 4 -0.000002 0.000004 -0.000002 0.039104 0.000007 -0.008513
# 5 -0.024842 0.011399 -0.010501 0.000007 0.072034 0.000002
# 6 -0.000005 0.000003 0.000007 -0.008513 0.000002 0.051340
#
#
# Mechanical properties :
#
#
# Convention : Reuss Voigt Hill
#
# Bulk Modulus (GPa) = 25.62069 34.14458 29.88264
# Shear Modulus (GPa) = 20.18297 27.67739 23.93018
#
# Velocity S-wave (km/s) = 3.27509 3.83525 3.56619
# Velocity P-wave (km/s) = 5.28372 6.14478 5.73045
#
# Compressibility (1/GPa) = 0.03903095
#
# Stress axis : x y z
#
# Youngs Moduli (GPa) = 45.76809 48.32762 76.35507
#
# Poissons Ratio (x) = 0.40862 -0.09813
# Poissons Ratio (y) = 0.38698 0.08655
# Poissons Ratio (z) = -0.05882 0.05478
#
# Static dielectric constant tensor:
#      x y z
#    x 1.695980 -0.000060 -0.059420 
#    y -0.000060 1.528970 0.000160 
#    z -0.059420 0.000160 1.699910 
# 
# From -- ./inp_files/182423.got.cif
#   From: 2010.05.17/outbox.cif.g08.bks.cpg/sg15_92_cif.got.tgz:182423.got - 2010.06.03 18:47:42.
