data_PCOD9272111
_publ_section_title
;
Structure prediction by ZEFSAII (Michael W. Deem and Ramdas Pophale) SiO2 
 PCOD9272111
Probable space group: C 2/C
;
_chemical_formula_sum "Si O2"
_cell_formula_units_Z 60
_cell_length_a 14.290029
_cell_length_b 14.318700
_cell_length_c 15.405303
_cell_angle_alpha 90.000000
_cell_angle_beta 107.573730
_cell_angle_gamma 90.000000
_cell_volume 3005.037126
_symmetry_space_group_name_H-M "C 2/C"
_symmetry_group_IT_number 15
_symmetry_cell_setting 'monoclinic'
loop_
_space_group_symop_operation_xyz
x,y,z
-x,y,1/2-z
-x,-y,-z
x,-y,1/2+z
1/2+x,1/2+y,z
1/2-x,1/2+y,1/2-z
1/2-x,1/2-y,-z
1/2+x,1/2-y,1/2+z
loop_
_atom_site_type_symbol
_atom_site_label
_atom_site_fract_x
_atom_site_fract_y
_atom_site_fract_z
Si Si1 0.709559 0.689690 0.567137
Si Si2 0.693137 0.314423 0.760534
Si Si3 0.202472 0.353849 0.894120
Si Si4 0.500000 0.201429 0.750000
Si Si5 0.858233 0.548058 0.658852
Si Si6 0.211370 0.976803 0.265718
Si Si7 0.152047 0.146998 0.907046
Si Si8 0.954435 0.073605 0.920603
O O1 0.750000 0.750000 0.500000
O O2 0.740175 0.744699 0.663463
O O3 0.769257 0.592894 0.580279
O O4 0.597183 0.658532 0.541500
O O5 0.737156 0.332410 0.677347
O O6 0.584866 0.267321 0.733127
O O7 0.697606 0.419345 0.800712
O O8 0.129135 0.441239 0.864214
O O9 0.148825 0.258375 0.901012
O O10 0.280482 0.376156 0.991197
O O11 0.442426 0.125742 0.674253
O O12 0.814628 0.539655 0.744849
O O13 0.197935 0.899166 0.334665
O O14 0.127855 0.966487 0.167887
O O15 0.043784 0.108848 0.888390
O O16 0.000000 0.000000 0.000000
#
# Coordination Sequence:
#
# PCOD9272111 Si02
#       8
#     8   8   8   4   8   8   8   8
#     4  10  22  38  60  88 123 158 198 249 313 368
#     4  10  22  38  62  88 123 162 201 250 315 365
#     4  10  22  42  60  84 124 167 196 251 316 367
#     4  10  20  36  64  88 114 158 208 248 292 380
#     4   9  20  40  57  85 121 155 197 248 303 361
#     4  10  22  39  61  91 122 163 199 253 316 366
#     4  11  22  37  65  86 121 159 211 247 305 376
#     4  11  23  38  61  92 127 153 207 264 304 362
#
# _framework density 19.966476
#
# number of rings (size 3 to 8) (size 9 to 14) (size 15 to 20)
#    0.000    1.867    0.000    5.200    5.600    3.200 
#    7.200    0.000    0.000    3.200    0.000    0.000 
#    0.000    0.000    0.000    0.000    0.000    0.000 
#
# Total GULP energy -167300.094909 kJ/mol
# GULP energy per Si atom -5576.669830 kJ/mol
# Density = 1.992103 g / cm^3
# Si number density = 19.966476 Si / 1000 Ang^3
#
#
#
# Elastic Constant Matrix: (Units=GPa)
#
#
# Indices 1 2 3 4 5 6 
#
# 1 35.3518 8.5417 0.1359 0.0000 0.6456 0.0000
# 2 8.5417 113.3708 17.2116 0.0000 0.0930 0.0000
# 3 0.1359 17.2116 75.8683 0.0000 -6.9018 0.0000
# 4 0.0000 0.0000 0.0000 32.8652 0.0000 0.1565
# 5 0.6456 0.0930 -6.9018 0.0000 16.3316 0.0000
# 6 0.0000 0.0000 0.0000 0.1565 0.0000 19.5870
#
#
#
# Elastic Compliance Matrix: (Units=1/GPa)
#
#
# Indices 1 2 3 4 5 6 
#
# 1 0.028842 -0.002228 0.000365 0.000000 -0.000973 0.000000
# 2 -0.002228 0.009322 -0.002192 0.000000 -0.000891 0.000000
# 3 0.000365 -0.002192 0.014224 0.000000 0.006009 0.000000
# 4 0.000000 0.000000 0.000000 0.030428 0.000000 -0.000243
# 5 -0.000973 -0.000891 0.006009 0.000000 0.063814 0.000000
# 6 0.000000 0.000000 0.000000 -0.000243 0.000000 0.051056
#
#
# Mechanical properties :
#
#
# Convention : Reuss Voigt Hill
#
# Bulk Modulus (GPa) = 22.58411 30.70769 26.64590
# Shear Modulus (GPa) = 22.67012 27.00355 24.83684
#
# Velocity S-wave (km/s) = 3.37324 3.68155 3.53076
# Velocity P-wave (km/s) = 5.14852 5.78660 5.47686
#
# Compressibility (1/GPa) = 0.04427893
#
# Stress axis : x y z
#
# Youngs Moduli (GPa) = 34.67203 107.27370 70.30370
#
# Poissons Ratio (x) = 0.23897 -0.02567
# Poissons Ratio (y) = 0.07724 0.15410
# Poissons Ratio (z) = -0.01266 0.23513
#
# Static dielectric constant tensor:
#      x y z
#    x 1.737120 0.000000 0.008610 
#    y 0.000000 1.712290 0.000000 
#    z 0.008610 0.000000 1.726090 
# 
# From -- ./inp_files/154015.got.cif
#   From: 2010.05.17/outbox.cif.g08.bks.cpg/sg15_78_cif.got.tgz:154015.got - 2010.06.03 18:47:42.
