data_PCOD9272246
_publ_section_title
;
Structure prediction by ZEFSAII (Michael W. Deem and Ramdas Pophale) SiO2 
 PCOD9272246
Probable space group: C 2/C
;
_chemical_formula_sum "Si O2"
_cell_formula_units_Z 44
_cell_length_a 19.954580
_cell_length_b 23.278599
_cell_length_c 4.919655
_cell_angle_alpha 90.000000
_cell_angle_beta 119.600893
_cell_angle_gamma 90.000000
_cell_volume 1986.997346
_symmetry_space_group_name_H-M "C 2/C"
_symmetry_group_IT_number 15
_symmetry_cell_setting 'monoclinic'
loop_
_space_group_symop_operation_xyz
x,y,z
-x,y,1/2-z
-x,-y,-z
x,-y,1/2+z
1/2+x,1/2+y,z
1/2-x,1/2+y,1/2-z
1/2-x,1/2-y,-z
1/2+x,1/2-y,1/2+z
loop_
_atom_site_type_symbol
_atom_site_label
_atom_site_fract_x
_atom_site_fract_y
_atom_site_fract_z
Si Si1 0.366274 0.302265 0.981959
Si Si2 0.250000 0.250000 0.000000
Si Si3 0.551228 0.414769 0.589462
Si Si4 0.052138 0.692594 0.595119
Si Si5 0.786712 0.963661 0.508656
Si Si6 0.715660 0.159761 0.871680
O O1 0.407155 0.361606 0.988449
O O2 0.418187 0.254404 0.949482
O O3 0.274594 0.306406 0.696674
O O4 0.340289 0.282110 0.228482
O O5 0.210851 0.301696 0.094999
O O6 0.500000 0.398009 0.750000
O O7 0.621956 0.452969 0.830442
O O8 0.500000 0.442979 0.250000
O O9 0.129955 0.657755 0.815116
O O10 0.000000 0.699048 0.750000
O O11 0.000000 0.666743 0.250000
O O12 0.748407 0.902548 0.376793
O O13 0.766033 0.014522 0.264763
#
# Coordination Sequence:
#
# PCOD9272246 Si02
#       6
#     8   4   8   8   8   8
#     4  10  23  37  62  93 133 179 214 261 320 401
#     4  10  20  36  66  92 124 168 214 270 316 376
#     4  11  24  40  64  95 137 176 215 272 327 387
#     4  11  24  38  61  95 134 167 204 263 334 401
#     4  11  26  45  70  95 125 177 232 274 318 387
#     4  10  25  41  68  93 134 172 221 271 328 392
#
# _framework density 22.143962999999999
#
# number of rings (size 3 to 8) (size 9 to 14) (size 15 to 20)
#    0.000    1.455    0.000    4.364   20.364    2.182 
#    0.000    0.000    0.000    3.273    0.000    0.000 
#    0.000    0.000    0.000    0.000    0.000    0.000 
#
# Total GULP energy -122576.648017 kJ/mol
# GULP energy per Si atom -5571.665819 kJ/mol
# Density = 2.209356 g / cm^3
# Si number density = 22.143963 Si / 1000 Ang^3
#
#
#
# Elastic Constant Matrix: (Units=GPa)
#
#
# Indices 1 2 3 4 5 6 
#
# 1 164.2692 10.0382 29.1915 0.0000 5.9734 0.0000
# 2 10.0382 85.1910 5.9225 0.0000 15.9305 0.0000
# 3 29.1915 5.9225 71.3085 0.0000 17.7204 0.0000
# 4 0.0000 0.0000 0.0000 22.4468 0.0000 3.5493
# 5 5.9734 15.9305 17.7204 0.0000 29.0407 0.0000
# 6 0.0000 0.0000 0.0000 3.5493 0.0000 19.2358
#
#
#
# Elastic Compliance Matrix: (Units=1/GPa)
#
#
# Indices 1 2 3 4 5 6 
#
# 1 0.006608 -0.000725 -0.002836 0.000000 0.000769 0.000000
# 2 -0.000725 0.013201 0.001135 0.000000 -0.007785 0.000000
# 3 -0.002836 0.001135 0.017799 0.000000 -0.010900 0.000000
# 4 0.000000 0.000000 0.000000 0.045889 0.000000 -0.008467
# 5 0.000769 -0.007785 -0.010900 0.000000 0.045198 0.000000
# 6 0.000000 0.000000 0.000000 -0.008467 0.000000 0.053549
#
#
# Mechanical properties :
#
#
# Convention : Reuss Voigt Hill
#
# Bulk Modulus (GPa) = 30.52963 45.67480 38.10222
# Shear Modulus (GPa) = 25.25085 32.51911 28.88498
#
# Velocity S-wave (km/s) = 3.38050 3.83630 3.61559
# Velocity P-wave (km/s) = 5.39016 6.34776 5.88846
#
# Compressibility (1/GPa) = 0.03275506
#
# Stress axis : x y z
#
# Youngs Moduli (GPa) = 151.33436 75.75414 56.18306
#
# Poissons Ratio (x) = 0.05494 0.15933
# Poissons Ratio (y) = 0.10976 -0.06377
# Poissons Ratio (z) = 0.42918 -0.08599
#
# Static dielectric constant tensor:
#      x y z
#    x 1.634080 0.000000 0.228980 
#    y 0.000000 1.669740 0.000000 
#    z 0.228980 0.000000 1.756790 
# 
# From -- ./inp_files/10959.got.cif
#   From: 2010.05.17/outbox.cif.g08.bks.cpg/sg15_6_cif.got.tgz:10959.got - 2010.06.03 18:47:42.
