data_PCOD9272915
_publ_section_title
;
Structure prediction by ZEFSAII (Michael W. Deem and Ramdas Pophale) SiO2 
 PCOD9272915
Probable space group: C 2/C
;
_chemical_formula_sum "Si O2"
_cell_formula_units_Z 64
_cell_length_a 9.593081
_cell_length_b 13.821624
_cell_length_c 25.182634
_cell_angle_alpha 90.000000
_cell_angle_beta 113.756131
_cell_angle_gamma 90.000000
_cell_volume 3056.094626
_symmetry_space_group_name_H-M "C 2/C"
_symmetry_group_IT_number 15
_symmetry_cell_setting 'monoclinic'
loop_
_space_group_symop_operation_xyz
x,y,z
-x,y,1/2-z
-x,-y,-z
x,-y,1/2+z
1/2+x,1/2+y,z
1/2-x,1/2+y,1/2-z
1/2-x,1/2-y,-z
1/2+x,1/2-y,1/2+z
loop_
_atom_site_type_symbol
_atom_site_label
_atom_site_fract_x
_atom_site_fract_y
_atom_site_fract_z
Si Si1 0.333176 0.918694 0.580024
Si Si2 0.413812 0.290090 0.681641
Si Si3 0.175087 0.860374 0.291837
Si Si4 0.743162 0.516792 0.955787
Si Si5 0.214076 0.130984 0.680167
Si Si6 0.340154 0.952117 0.863716
Si Si7 0.581038 0.430106 0.628643
Si Si8 0.879424 0.789579 0.105873
O O1 0.292893 0.985498 0.524063
O O2 0.370129 0.808002 0.571712
O O3 0.489561 0.950830 0.632206
O O4 0.190456 0.909993 0.596566
O O5 0.500000 0.299703 0.750000
O O6 0.348690 0.180265 0.666284
O O7 0.263071 0.358223 0.661431
O O8 0.524500 0.339161 0.654902
O O9 0.246879 0.836636 0.245977
O O10 0.249258 0.956652 0.326964
O O11 0.170928 0.783743 0.339487
O O12 0.000000 0.881294 0.250000
O O13 0.851368 0.466121 0.929304
O O14 0.576677 0.472613 0.918781
O O15 0.723147 0.628364 0.936174
O O16 0.174244 0.016161 0.673592
O O17 0.054142 0.175715 0.635999
#
# Coordination Sequence:
#
# PCOD9272915 Si02
#       8
#     8   8   8   8   8   8   8   8
#     4  12  21  36  60  92 120 147 203 264 302 356
#     4  11  22  39  63  85 121 169 205 245 314 384
#     4   9  18  36  60  85 121 160 197 251 317 373
#     4   9  20  40  63  81 117 167 196 239 321 375
#     4  10  20  40  60  84 121 162 202 246 307 378
#     4  10  20  37  61  89 117 154 207 249 301 374
#     4  10  24  40  60  88 126 161 200 256 317 371
#     4   9  19  36  61  87 114 150 202 253 296 365
#
# _framework density 20.941759999999999
#
# number of rings (size 3 to 8) (size 9 to 14) (size 15 to 20)
#    0.000    2.000    1.250    4.500    1.750    1.000 
#    2.250    1.875    0.000    3.000    0.000    0.000 
#    0.000    0.000    0.000    0.000    0.000    0.000 
#
# Total GULP energy -178403.084038 kJ/mol
# GULP energy per Si atom -5575.096376 kJ/mol
# Density = 2.089410 g / cm^3
# Si number density = 20.941760 Si / 1000 Ang^3
#
#
#
# Elastic Constant Matrix: (Units=GPa)
#
#
# Indices 1 2 3 4 5 6 
#
# 1 88.7372 13.6548 19.1040 0.0000 -2.4918 0.0000
# 2 13.6548 35.8242 -7.1600 0.0000 1.1647 0.0000
# 3 19.1040 -7.1600 52.1596 0.0000 4.6274 0.0000
# 4 0.0000 0.0000 0.0000 15.2922 0.0000 -0.9726
# 5 -2.4918 1.1647 4.6274 0.0000 12.1309 0.0000
# 6 0.0000 0.0000 0.0000 -0.9726 0.0000 25.3803
#
#
#
# Elastic Compliance Matrix: (Units=1/GPa)
#
#
# Indices 1 2 3 4 5 6 
#
# 1 0.013896 -0.006802 -0.006557 0.000000 0.006009 0.000000
# 2 -0.006802 0.032261 0.007575 0.000000 -0.007384 0.000000
# 3 -0.006557 0.007575 0.023596 0.000000 -0.011075 0.000000
# 4 0.000000 0.000000 0.000000 0.065552 0.000000 0.002512
# 5 0.006009 -0.007384 -0.011075 0.000000 0.088602 0.000000
# 6 0.000000 0.000000 0.000000 0.002512 0.000000 0.039497
#
#
# Mechanical properties :
#
#
# Convention : Reuss Voigt Hill
#
# Bulk Modulus (GPa) = 17.18651 25.32431 21.25541
# Shear Modulus (GPa) = 16.98559 20.63549 18.81054
#
# Velocity S-wave (km/s) = 2.85105 3.14247 3.00030
# Velocity P-wave (km/s) = 4.36607 5.02850 4.70895
#
# Compressibility (1/GPa) = 0.05818518
#
# Stress axis : x y z
#
# Youngs Moduli (GPa) = 71.96186 30.99716 42.38065
#
# Poissons Ratio (x) = 0.21086 0.27787
# Poissons Ratio (y) = 0.48952 -0.32104
# Poissons Ratio (z) = 0.47182 -0.23481
#
# Static dielectric constant tensor:
#      x y z
#    x 1.787470 0.000000 -0.031750 
#    y 0.000000 1.802690 0.000000 
#    z -0.031750 0.000000 1.751160 
# 
# From -- ./inp_files/288836.got.cif
#   From: 2010.05.17/outbox.cif.g08.bks.cpg/sg15_145_cif.got.tgz:288836.got - 2010.06.03 18:47:42.
