data_PCOD9272160
_publ_section_title
;
Structure prediction by ZEFSAII (Michael W. Deem and Ramdas Pophale) SiO2 
 PCOD9272160
Probable space group: C 2/C
;
_chemical_formula_sum "Si O2"
_cell_formula_units_Z 52
_cell_length_a 24.746033
_cell_length_b 7.806202
_cell_length_c 14.805591
_cell_angle_alpha 90.000000
_cell_angle_beta 131.617073
_cell_angle_gamma 90.000000
_cell_volume 2138.161680
_symmetry_space_group_name_H-M "C 2/C"
_symmetry_group_IT_number 15
_symmetry_cell_setting 'monoclinic'
loop_
_space_group_symop_operation_xyz
x,y,z
-x,y,1/2-z
-x,-y,-z
x,-y,1/2+z
1/2+x,1/2+y,z
1/2-x,1/2+y,1/2-z
1/2-x,1/2-y,-z
1/2+x,1/2-y,1/2+z
loop_
_atom_site_type_symbol
_atom_site_label
_atom_site_fract_x
_atom_site_fract_y
_atom_site_fract_z
Si Si1 0.392567 0.904333 0.859767
Si Si2 0.000000 0.565603 0.750000
Si Si3 0.363444 0.142970 0.119492
Si Si4 0.978603 0.741883 0.911266
Si Si5 0.745048 0.115474 0.769751
Si Si6 0.155740 0.069972 0.236986
Si Si7 0.793170 0.004287 0.015227
O O1 0.390612 0.847081 0.753183
O O2 0.436663 0.084325 0.912704
O O3 0.313619 0.961347 0.803897
O O4 0.438998 0.768934 0.966862
O O5 0.069334 0.448988 0.854663
O O6 0.023275 0.686319 0.694625
O O7 0.338347 0.327378 0.055589
O O8 0.289053 0.036234 0.043984
O O9 0.929436 0.907805 0.871305
O O10 0.694990 0.280964 0.723751
O O11 0.801337 0.096649 0.750335
O O12 0.786594 0.093716 0.911282
O O13 0.171585 0.099175 0.360519
#
# Coordination Sequence:
#
# PCOD9272160 Si02
#       7
#     8   4   8   8   8   8   8
#     4   8  17  36  57  86 121 164 213 267 305 392
#     4  10  20  36  64  96 122 178 214 260 326 404
#     4   9  20  36  64  92 121 170 221 263 328 387
#     4   9  19  37  60  91 129 163 221 263 316 385
#     4  10  23  38  65  94 127 173 220 260 342 380
#     4  11  24  41  65 101 130 172 218 276 329 396
#     4  10  22  41  62  93 138 163 216 285 327 389
#
# _framework density 24.319956999999999
#
# number of rings (size 3 to 8) (size 9 to 14) (size 15 to 20)
#    0.000    2.462    0.000    1.385    8.615    3.692 
#    0.000    1.538    0.000    0.000    0.000    0.000 
#    0.000    0.000    0.000    0.000    0.000    0.000 
#
# Total GULP energy -145334.975895 kJ/mol
# GULP energy per Si atom -5589.806765 kJ/mol
# Density = 2.426460 g / cm^3
# Si number density = 24.319957 Si / 1000 Ang^3
#
#
#
# Elastic Constant Matrix: (Units=GPa)
#
#
# Indices 1 2 3 4 5 6 
#
# 1 102.1901 23.1655 24.0076 0.0000 12.5487 0.0000
# 2 23.1655 60.0804 -1.3326 0.0000 9.6233 0.0000
# 3 24.0076 -1.3326 94.4405 0.0000 18.9590 0.0000
# 4 0.0000 0.0000 0.0000 23.8114 0.0000 7.4589
# 5 12.5487 9.6233 18.9590 0.0000 18.7410 0.0000
# 6 0.0000 0.0000 0.0000 7.4589 0.0000 37.0226
#
#
#
# Elastic Compliance Matrix: (Units=1/GPa)
#
#
# Indices 1 2 3 4 5 6 
#
# 1 0.011659 -0.004006 -0.002342 0.000000 -0.003381 0.000000
# 2 -0.004006 0.020064 0.003553 0.000000 -0.011214 0.000000
# 3 -0.002342 0.003553 0.014162 0.000000 -0.014583 0.000000
# 4 0.000000 0.000000 0.000000 0.044826 0.000000 -0.009031
# 5 -0.003381 -0.011214 -0.014583 0.000000 0.076133 0.000000
# 6 0.000000 0.000000 0.000000 -0.009031 0.000000 0.028830
#
#
# Mechanical properties :
#
#
# Convention : Reuss Voigt Hill
#
# Bulk Modulus (GPa) = 24.81695 38.71023 31.76359
# Shear Modulus (GPa) = 23.28890 29.97305 26.63097
#
# Velocity S-wave (km/s) = 3.09788 3.51443 3.31271
# Velocity P-wave (km/s) = 4.79815 5.69385 5.26508
#
# Compressibility (1/GPa) = 0.04029505
#
# Stress axis : x y z
#
# Youngs Moduli (GPa) = 85.77016 49.84061 70.61376
#
# Poissons Ratio (x) = 0.19965 0.16535
# Poissons Ratio (y) = 0.34358 -0.25087
# Poissons Ratio (z) = 0.20084 -0.17707
#
# Static dielectric constant tensor:
#      x y z
#    x 1.902530 0.000000 0.017870 
#    y 0.000000 2.040540 0.000000 
#    z 0.017870 0.000000 1.930110 
# 
# From -- ./inp_files/176710.got.cif
#   From: 2010.05.17/outbox.cif.g08.bks.cpg/sg15_89_cif.got.tgz:176710.got - 2010.06.03 18:47:42.
