data_PCOD9272257
_publ_section_title
;
Structure prediction by ZEFSAII (Michael W. Deem and Ramdas Pophale) SiO2 
 PCOD9272257
Probable space group: C 2/C
;
_chemical_formula_sum "Si O2"
_cell_formula_units_Z 48
_cell_length_a 19.061197
_cell_length_b 9.381650
_cell_length_c 15.433730
_cell_angle_alpha 90.000000
_cell_angle_beta 42.452493
_cell_angle_gamma 90.000000
_cell_volume 1862.903407
_symmetry_space_group_name_H-M "C 2/C"
_symmetry_group_IT_number 15
_symmetry_cell_setting 'monoclinic'
loop_
_space_group_symop_operation_xyz
x,y,z
-x,y,1/2-z
-x,-y,-z
x,-y,1/2+z
1/2+x,1/2+y,z
1/2-x,1/2+y,1/2-z
1/2-x,1/2-y,-z
1/2+x,1/2-y,1/2+z
loop_
_atom_site_type_symbol
_atom_site_label
_atom_site_fract_x
_atom_site_fract_y
_atom_site_fract_z
Si Si1 0.567253 0.559470 0.357497
Si Si2 0.381520 0.291409 0.988632
Si Si3 0.700097 0.605747 0.489018
Si Si4 0.286451 0.866142 0.729799
Si Si5 0.000000 0.889095 0.250000
Si Si6 0.899811 0.493328 0.902798
Si Si7 0.500000 0.000000 0.000000
O O1 0.500000 0.500000 0.500000
O O2 0.505796 0.707694 0.397048
O O3 0.685937 0.569449 0.274192
O O4 0.552600 0.475507 0.281340
O O5 0.344058 0.445966 0.992834
O O6 0.325551 0.256560 0.129785
O O7 0.368650 0.163702 0.933581
O O8 0.744898 0.674788 0.361607
O O9 0.597115 0.684371 0.616775
O O10 0.793062 0.579024 0.469719
O O11 0.387305 0.963379 0.649754
O O12 0.000000 0.474095 0.750000
O O13 0.935793 0.465070 0.968095
#
# Coordination Sequence:
#
# PCOD9272257 Si02
#       7
#     8   8   8   8   4   8   4
#     4  11  22  42  65  97 138 179 217 278 342 400
#     4  10  24  36  65 105 132 174 224 274 344 403
#     4  11  22  41  66 101 139 173 219 289 341 395
#     4  11  22  41  65  98 137 181 217 274 340 409
#     4  10  20  36  66  94 124 178 220 260 340 386
#     4  11  22  37  64  96 137 165 223 278 341 397
#     4  10  22  40  58  94 128 180 202 270 342 396
#
# _framework density 25.76623
#
# number of rings (size 3 to 8) (size 9 to 14) (size 15 to 20)
#    0.000    1.333    5.000    2.500    7.000    0.000 
#    0.000    0.000    0.000    5.000    0.000    0.000 
#    0.000    0.000    0.000    0.000    0.000    0.000 
#
# Total GULP energy -133848.073655 kJ/mol
# GULP energy per Si atom -5577.003069 kJ/mol
# Density = 2.570759 g / cm^3
# Si number density = 25.766230 Si / 1000 Ang^3
#
#
#
# Elastic Constant Matrix: (Units=GPa)
#
#
# Indices 1 2 3 4 5 6 
#
# 1 179.8057 26.4052 45.1986 -0.0003 -19.9186 -0.0001
# 2 26.4052 48.6441 29.5148 0.0006 -21.2662 0.0001
# 3 45.1986 29.5148 199.8128 0.0000 -14.3970 0.0000
# 4 -0.0003 0.0006 0.0000 1345.4644 0.0001 262.8610
# 5 -19.9186 -21.2662 -14.3970 0.0001 63.4810 0.0000
# 6 -0.0001 0.0001 0.0000 262.8610 0.0000 78.3741
#
#
#
# Elastic Compliance Matrix: (Units=1/GPa)
#
#
# Indices 1 2 3 4 5 6 
#
# 1 0.006267 -0.002385 -0.000997 0.000000 0.000941 0.000000
# 2 -0.002385 0.026937 -0.002890 0.000000 0.007620 0.000000
# 3 -0.000997 -0.002890 0.005657 0.000000 0.000002 0.000000
# 4 0.000000 0.000000 0.000000 0.002156 0.000000 -0.007231
# 5 0.000941 0.007620 0.000002 0.000000 0.018601 0.000000
# 6 0.000000 0.000000 0.000000 -0.007231 0.000000 0.037010
#
#
# Mechanical properties :
#
#
# Convention : Reuss Voigt Hill
#
# Bulk Modulus (GPa) = 38.00041 70.05554 54.02797
# Shear Modulus (GPa) = 42.39198 319.27350 180.83274
#
# Velocity S-wave (km/s) = 4.06057 11.14364 8.38656
# Velocity P-wave (km/s) = 6.06337 13.88604 10.71416
#
# Compressibility (1/GPa) = 0.02631551
#
# Stress axis : x y z
#
# Youngs Moduli (GPa) = 159.57065 37.12331 176.75995
#
# Poissons Ratio (x) = 0.08854 0.17631
# Poissons Ratio (y) = 0.38060 0.51091
# Poissons Ratio (z) = 0.15917 0.10730
#
# Static dielectric constant tensor:
#      x y z
#    x 2.000580 0.000000 0.063920 
#    y 0.000000 2.248650 0.000000 
#    z 0.063920 0.000000 2.092390 
# 
# From -- ./inp_files/162162.got.cif
#   From: 2010.05.17/outbox.cif.g08.bks.cpg/sg15_82_cif.got.tgz:162162.got - 2010.06.03 18:47:42.
