data_PCOD9272801
_publ_section_title
;
Structure prediction by ZEFSAII (Michael W. Deem and Ramdas Pophale) SiO2 
 PCOD9272801
Probable space group: C 2/C
;
_chemical_formula_sum "Si O2"
_cell_formula_units_Z 48
_cell_length_a 5.309757
_cell_length_b 21.793197
_cell_length_c 20.808264
_cell_angle_alpha 90.000000
_cell_angle_beta 95.515286
_cell_angle_gamma 90.000000
_cell_volume 2396.714181
_symmetry_space_group_name_H-M "C 2/C"
_symmetry_group_IT_number 15
_symmetry_cell_setting 'monoclinic'
loop_
_space_group_symop_operation_xyz
x,y,z
-x,y,1/2-z
-x,-y,-z
x,-y,1/2+z
1/2+x,1/2+y,z
1/2-x,1/2+y,1/2-z
1/2-x,1/2-y,-z
1/2+x,1/2-y,1/2+z
loop_
_atom_site_type_symbol
_atom_site_label
_atom_site_fract_x
_atom_site_fract_y
_atom_site_fract_z
Si Si1 0.061907 0.307003 0.991192
Si Si2 0.425318 0.597187 0.503861
Si Si3 0.378761 0.993913 0.176782
Si Si4 0.740558 0.357013 0.210138
Si Si5 0.202908 0.793605 0.084405
Si Si6 0.854750 0.017771 0.097465
O O1 0.847768 0.275516 0.941291
O O2 0.250000 0.250000 0.000000
O O3 0.174928 0.370440 0.969422
O O4 0.973152 0.313191 0.062620
O O5 0.538120 0.653964 0.545702
O O6 0.607495 0.572735 0.452565
O O7 0.372289 0.542562 0.552199
O O8 0.500000 0.008602 0.250000
O O9 0.320234 0.920694 0.177299
O O10 0.595187 0.011957 0.130708
O O11 0.103509 0.020229 0.149838
O O12 0.500000 0.369549 0.250000
O O13 0.668949 0.304853 0.157845
O O14 0.000000 0.337288 0.250000
#
# Coordination Sequence:
#
# PCOD9272801 Si02
#       6
#     8   8   8   8   8   8
#     4   9  20  36  60  86 115 158 193 255 297 370
#     4  10  22  34  58  89 123 152 193 248 311 347
#     4  11  22  38  57  83 120 162 202 233 298 361
#     4  11  23  36  60  89 124 159 194 251 305 363
#     4  10  20  37  60  89 120 153 205 243 311 368
#     4  11  23  36  59  91 123 155 193 254 294 363
#
# _framework density 20.027419999999999
#
# number of rings (size 3 to 8) (size 9 to 14) (size 15 to 20)
#    0.000    1.667    1.667    3.500    7.000    1.333 
#    0.000    0.000    0.000    1.000    8.667    0.000 
#    0.000    0.000    0.000    0.000    0.000    0.000 
#
# Total GULP energy -133676.643804 kJ/mol
# GULP energy per Si atom -5569.860158 kJ/mol
# Density = 1.998184 g / cm^3
# Si number density = 20.027420 Si / 1000 Ang^3
#
#
#
# Elastic Constant Matrix: (Units=GPa)
#
#
# Indices 1 2 3 4 5 6 
#
# 1 115.2699 32.3448 32.2594 0.0000 -22.4415 0.0000
# 2 32.3448 67.1010 27.8786 0.0000 -2.1516 0.0000
# 3 32.2594 27.8786 70.0551 0.0000 -10.1480 0.0000
# 4 0.0000 0.0000 0.0000 9.6544 0.0000 -11.9691
# 5 -22.4415 -2.1516 -10.1480 0.0000 39.4423 0.0000
# 6 0.0000 0.0000 0.0000 -11.9691 0.0000 -14.1978
#
#
#
# Elastic Compliance Matrix: (Units=1/GPa)
#
#
# Indices 1 2 3 4 5 6 
#
# 1 0.011811 -0.004307 -0.002893 0.000000 0.005741 0.000000
# 2 -0.004307 0.019456 -0.006191 0.000000 -0.002982 0.000000
# 3 -0.002893 -0.006191 0.018472 0.000000 0.002769 0.000000
# 4 0.000000 0.000000 0.000000 0.050647 0.000000 -0.042696
# 5 0.005741 -0.002982 0.002769 0.000000 0.029170 0.000000
# 6 0.000000 0.000000 0.000000 -0.042696 0.000000 -0.034439
#
#
# Mechanical properties :
#
#
# Convention : Reuss Voigt Hill
#
# Bulk Modulus (GPa) = 43.56247 48.59906 46.08077
# Shear Modulus (GPa) = 38.59505 17.64266 28.11885
#
# Velocity S-wave (km/s) = 4.39465 2.97126 3.75109
# Velocity P-wave (km/s) = 6.89559 6.00750 6.46681
#
# Compressibility (1/GPa) = 0.02295554
#
# Stress axis : x y z
#
# Youngs Moduli (GPa) = 84.66470 51.39882 54.13725
#
# Poissons Ratio (x) = 0.22139 0.15663
# Poissons Ratio (y) = 0.36467 0.33516
# Poissons Ratio (z) = 0.24496 0.31821
#
# Static dielectric constant tensor:
#      x y z
#    x 2.220950 0.000000 0.283570 
#    y 0.000000 1.688270 0.000000 
#    z 0.283570 0.000000 1.889760 
# 
# From -- ./inp_files/185290.got.cif
#   From: 2010.05.17/outbox.cif.g08.bks.cpg/sg15_93_cif.got.tgz:185290.got - 2010.06.03 18:47:42.
