data_PCOD9272263
_publ_section_title
;
Structure prediction by ZEFSAII (Michael W. Deem and Ramdas Pophale) SiO2 
 PCOD9272263
Probable space group: C 2/C
;
_chemical_formula_sum "Si O2"
_cell_formula_units_Z 36
_cell_length_a 15.714582
_cell_length_b 8.104447
_cell_length_c 24.034765
_cell_angle_alpha 90.000000
_cell_angle_beta 149.307138
_cell_angle_gamma 90.000000
_cell_volume 1562.453927
_symmetry_space_group_name_H-M "C 2/C"
_symmetry_group_IT_number 15
_symmetry_cell_setting 'monoclinic'
loop_
_space_group_symop_operation_xyz
x,y,z
-x,y,1/2-z
-x,-y,-z
x,-y,1/2+z
1/2+x,1/2+y,z
1/2-x,1/2+y,1/2-z
1/2-x,1/2-y,-z
1/2+x,1/2-y,1/2+z
loop_
_atom_site_type_symbol
_atom_site_label
_atom_site_fract_x
_atom_site_fract_y
_atom_site_fract_z
Si Si1 0.731821 0.056157 0.476405
Si Si2 0.000000 0.581561 0.750000
Si Si3 0.961637 0.509272 0.913133
Si Si4 0.034660 0.868014 0.593903
Si Si5 0.198953 0.817041 0.146479
O O1 0.750000 0.250000 0.500000
O O2 0.617776 0.025815 0.357188
O O3 0.630114 0.991773 0.472049
O O4 0.901466 0.952510 0.561246
O O5 0.118452 0.691277 0.777530
O O6 0.858941 0.339816 0.850524
O O7 0.888954 0.686485 0.854508
O O8 0.000000 0.500000 0.000000
O O9 0.926229 0.835393 0.476988
O O10 0.170727 0.006645 0.658929
#
# Coordination Sequence:
#
# PCOD9272263 Si02
#       5
#     8   4   8   8   8
#     4  11  21  41  68  96 133 182 224 278 342 392
#     4  10  24  40  64  94 138 178 228 282 334 408
#     4  10  20  36  66  96 121 166 219 263 329 402
#     4   9  18  35  66  90 125 168 214 267 328 392
#     4   9  18  38  59  91 129 166 208 271 329 390
#
# _framework density 23.040679000000001
#
# number of rings (size 3 to 8) (size 9 to 14) (size 15 to 20)
#    0.000    2.222    2.222    0.667    3.111    0.000 
#    4.000    1.111    4.889    0.000    0.000    0.000 
#    0.000    0.000    0.000    0.000    0.000    0.000 
#
# Total GULP energy -100485.997525 kJ/mol
# GULP energy per Si atom -5582.555418 kJ/mol
# Density = 2.298824 g / cm^3
# Si number density = 23.040679 Si / 1000 Ang^3
#
#
#
# Elastic Constant Matrix: (Units=GPa)
#
#
# Indices 1 2 3 4 5 6 
#
# 1 136.9105 48.0725 16.0906 0.0000 22.6012 0.0000
# 2 48.0725 201.1332 22.1444 0.0000 27.3673 0.0000
# 3 16.0906 22.1444 54.2257 0.0002 0.3969 0.0000
# 4 0.0000 0.0000 0.0002 39.2314 0.0000 -4.9106
# 5 22.6012 27.3673 0.3969 0.0000 46.6494 0.0000
# 6 0.0000 0.0000 0.0000 -4.9106 0.0000 40.3752
#
#
#
# Elastic Compliance Matrix: (Units=1/GPa)
#
#
# Indices 1 2 3 4 5 6 
#
# 1 0.008567 -0.001380 -0.001954 0.000000 -0.003324 0.000000
# 2 -0.001380 0.005897 -0.001978 0.000000 -0.002774 0.000000
# 3 -0.001954 -0.001978 0.019815 0.000000 0.001939 0.000000
# 4 0.000000 0.000000 0.000000 0.025884 0.000000 0.003148
# 5 -0.003324 -0.002774 0.001939 0.000000 0.024658 0.000000
# 6 0.000000 0.000000 0.000000 0.003148 0.000000 0.025151
#
#
# Mechanical properties :
#
#
# Convention : Reuss Voigt Hill
#
# Bulk Modulus (GPa) = 42.27657 62.76493 52.52075
# Shear Modulus (GPa) = 38.91614 45.64867 42.28241
#
# Velocity S-wave (km/s) = 4.11423 4.45592 4.28848
# Velocity P-wave (km/s) = 6.39982 7.33305 6.88227
#
# Compressibility (1/GPa) = 0.02365376
#
# Stress axis : x y z
#
# Youngs Moduli (GPa) = 116.72562 169.57920 50.46669
#
# Poissons Ratio (x) = 0.23404 0.09862
# Poissons Ratio (y) = 0.16110 0.09984
# Poissons Ratio (z) = 0.22811 0.33548
#
# Static dielectric constant tensor:
#      x y z
#    x 1.865980 0.000000 -0.057810 
#    y 0.000000 2.082140 0.000000 
#    z -0.057810 0.000000 1.929000 
# 
# From -- ./inp_files/150408.got.cif
#   From: 2010.05.17/outbox.cif.g08.bks.cpg/sg15_76_cif.got.tgz:150408.got - 2010.06.03 18:47:42.
