data_PCOD9272477
_publ_section_title
;
Structure prediction by ZEFSAII (Michael W. Deem and Ramdas Pophale) SiO2 
 PCOD9272477
Probable space group: C 2/C
;
_chemical_formula_sum "Si O2"
_cell_formula_units_Z 40
_cell_length_a 8.965134
_cell_length_b 24.553441
_cell_length_c 13.934770
_cell_angle_alpha 90.000000
_cell_angle_beta 147.678823
_cell_angle_gamma 90.000000
_cell_volume 1640.025080
_symmetry_space_group_name_H-M "C 2/C"
_symmetry_group_IT_number 15
_symmetry_cell_setting 'monoclinic'
loop_
_space_group_symop_operation_xyz
x,y,z
-x,y,1/2-z
-x,-y,-z
x,-y,1/2+z
1/2+x,1/2+y,z
1/2-x,1/2+y,1/2-z
1/2-x,1/2-y,-z
1/2+x,1/2-y,1/2+z
loop_
_atom_site_type_symbol
_atom_site_label
_atom_site_fract_x
_atom_site_fract_y
_atom_site_fract_z
Si Si1 0.074030 0.135070 0.994286
Si Si2 0.372161 0.935193 0.830192
Si Si3 0.029855 0.326766 0.962354
Si Si4 0.480207 0.733642 0.411413
Si Si5 0.521311 0.525741 0.905578
O O1 0.237157 0.100342 0.167458
O O2 0.274470 0.162174 0.023344
O O3 0.931266 0.185205 0.968157
O O4 0.905067 0.087330 0.849498
O O5 0.166425 0.982459 0.752099
O O6 0.438863 0.887619 0.942175
O O7 0.660008 0.964006 0.953314
O O8 0.256150 0.205957 0.281169
O O9 0.151108 0.286166 0.106910
O O10 0.750000 0.750000 0.500000
O O11 0.500000 0.500000 0.000000
#
# Coordination Sequence:
#
# PCOD9272477 Si02
#       5
#     8   8   8   8   8
#     4   9  18  33  55  83 116 157 198 239 292 354
#     4   9  17  30  54  87 118 152 196 244 294 349
#     4  10  20  37  57  82 117 156 193 238 298 361
#     4  11  21  35  55  84 115 150 193 243 297 350
#     4   9  14  27  50  82 113 147 195 240 285 346
#
# _framework density 24.389869999999998
#
# number of rings (size 3 to 8) (size 9 to 14) (size 15 to 20)
#    0.000    2.400    0.000    9.600    0.000    0.000 
#    0.000   12.000    0.000    0.000    0.000  197.400 
#    0.000    0.000    0.000    1.600    0.000    0.000 
#
# Total GULP energy -111661.063999 kJ/mol
# GULP energy per Si atom -5583.053200 kJ/mol
# Density = 2.433436 g / cm^3
# Si number density = 24.389870 Si / 1000 Ang^3
#
#
#
# Elastic Constant Matrix: (Units=GPa)
#
#
# Indices 1 2 3 4 5 6 
#
# 1 113.7012 105.7854 30.2070 0.0000 10.4125 0.0000
# 2 105.7854 224.6012 54.2163 0.0000 26.8455 0.0000
# 3 30.2070 54.2163 83.1759 0.0000 3.2552 0.0000
# 4 0.0000 0.0000 0.0000 18.5945 0.0000 31.8083
# 5 10.4125 26.8455 3.2552 0.0000 17.7112 0.0000
# 6 0.0000 0.0000 0.0000 31.8083 0.0000 36.4807
#
#
#
# Elastic Compliance Matrix: (Units=1/GPa)
#
#
# Indices 1 2 3 4 5 6 
#
# 1 0.015802 -0.007478 -0.000951 0.000000 0.002220 0.000000
# 2 -0.007478 0.010012 -0.003413 0.000000 -0.010151 0.000000
# 3 -0.000951 -0.003413 0.014472 0.000000 0.003072 0.000000
# 4 0.000000 0.000000 0.000000 -0.109412 0.000000 0.095398
# 5 0.002220 -0.010151 0.003072 0.000000 0.069978 0.000000
# 6 0.000000 0.000000 0.000000 0.095398 0.000000 -0.055768
#
#
# Mechanical properties :
#
#
# Convention : Reuss Voigt Hill
#
# Bulk Modulus (GPa) = 60.23440 89.09951 74.66696
# Shear Modulus (GPa) = -194.57441 29.97526 -82.29957
#
# Velocity S-wave (km/s) = -8.94147 3.50952 -5.81520
# Velocity P-wave (km/s) = 9.04709 7.28237 3.79584
#
# Compressibility (1/GPa) = 0.01660181
#
# Stress axis : x y z
#
# Youngs Moduli (GPa) = 63.28248 99.88282 69.09713
#
# Poissons Ratio (x) = 0.74697 0.06572
# Poissons Ratio (y) = 0.47325 0.23581
# Poissons Ratio (z) = 0.06019 0.34087
#
# Static dielectric constant tensor:
#      x y z
#    x 1.896870 0.000000 -0.065010 
#    y 0.000000 1.978780 0.000000 
#    z -0.065010 0.000000 2.172090 
# 
# From -- ./inp_files/250099.got.cif
#   From: 2010.05.17/outbox.cif.g08.bks.cpg/sg15_126_cif.got.tgz:250099.got - 2010.06.03 18:47:42.
