data_PCOD9272586
_publ_section_title
;
Structure prediction by ZEFSAII (Michael W. Deem and Ramdas Pophale) SiO2 
 PCOD9272586
Probable space group: C 2/C
;
_chemical_formula_sum "Si O2"
_cell_formula_units_Z 56
_cell_length_a 20.990493
_cell_length_b 8.865277
_cell_length_c 29.717075
_cell_angle_alpha 90.000000
_cell_angle_beta 32.342444
_cell_angle_gamma 90.000000
_cell_volume 2958.402263
_symmetry_space_group_name_H-M "C 2/C"
_symmetry_group_IT_number 15
_symmetry_cell_setting 'monoclinic'
loop_
_space_group_symop_operation_xyz
x,y,z
-x,y,1/2-z
-x,-y,-z
x,-y,1/2+z
1/2+x,1/2+y,z
1/2-x,1/2+y,1/2-z
1/2-x,1/2-y,-z
1/2+x,1/2-y,1/2+z
loop_
_atom_site_type_symbol
_atom_site_label
_atom_site_fract_x
_atom_site_fract_y
_atom_site_fract_z
Si Si1 0.133798 0.757468 0.601007
Si Si2 0.666886 0.183029 0.814755
Si Si3 0.469978 0.576028 0.418355
Si Si4 0.098733 0.581954 0.412248
Si Si5 0.062627 0.741650 0.348019
Si Si6 0.760262 0.817267 0.109141
Si Si7 0.068850 0.521909 0.783640
O O1 0.250000 0.750000 0.500000
O O2 0.181702 0.788095 0.622442
O O3 0.053143 0.866832 0.618980
O O4 0.055350 0.605786 0.652179
O O5 0.572580 0.317396 0.878597
O O6 0.795366 0.250953 0.730899
O O7 0.620991 0.097670 0.797889
O O8 0.678642 0.055227 0.845795
O O9 0.509174 0.405328 0.387944
O O10 0.643691 0.399479 0.480923
O O11 0.025450 0.645637 0.413448
O O12 0.170208 0.711553 0.396493
O O13 0.000000 0.500000 0.500000
O O14 0.043191 0.650597 0.313294
O O15 0.669665 0.934691 0.186987
#
# Coordination Sequence:
#
# PCOD9272586 Si02
#       7
#     8   8   8   8   8   8   8
#     4   9  21  40  65  85 113 159 207 241 300 366
#     4  10  20  37  58  89 124 157 198 240 308 363
#     4  10  21  39  63  90 120 160 201 253 305 362
#     4  11  22  37  60  94 123 155 199 254 298 366
#     4  11  23  37  61  89 125 159 197 251 311 360
#     4  11  21  39  65  88 120 162 209 247 305 370
#     4  10  21  38  61  85 120 162 200 249 294 362
#
# _framework density 18.929137000000001
#
# number of rings (size 3 to 8) (size 9 to 14) (size 15 to 20)
#    0.000    1.714    2.857    2.143    4.000    1.714 
#    0.000    2.857    6.286    0.000    0.000    0.000 
#    0.000    0.000    0.000    0.000    0.000    0.000 
#
# Total GULP energy -155915.952948 kJ/mol
# GULP energy per Si atom -5568.426891 kJ/mol
# Density = 1.888605 g / cm^3
# Si number density = 18.929137 Si / 1000 Ang^3
#
#
#
# Elastic Constant Matrix: (Units=GPa)
#
#
# Indices 1 2 3 4 5 6 
#
# 1 68.6887 23.8452 25.8628 0.0001 11.4053 0.0000
# 2 23.8452 111.7112 51.6506 0.0003 11.2401 -0.0001
# 3 25.8628 51.6506 95.0551 0.0002 7.2781 0.0000
# 4 0.0001 0.0003 0.0002 28.1227 -0.0001 13.7622
# 5 11.4053 11.2401 7.2781 -0.0001 27.8267 0.0002
# 6 0.0000 -0.0001 0.0000 13.7622 0.0002 13.8653
#
#
#
# Elastic Compliance Matrix: (Units=1/GPa)
#
#
# Indices 1 2 3 4 5 6 
#
# 1 0.017317 -0.001542 -0.003447 0.000000 -0.005573 0.000000
# 2 -0.001542 0.012377 -0.006094 0.000000 -0.002774 0.000001
# 3 -0.003447 -0.006094 0.014768 0.000000 0.000012 0.000000
# 4 0.000000 0.000000 0.000000 0.069143 0.000001 -0.068628
# 5 -0.005573 -0.002774 0.000012 0.000001 0.039338 -0.000002
# 6 0.000000 0.000001 0.000000 -0.068628 -0.000002 0.140240
#
#
# Mechanical properties :
#
#
# Convention : Reuss Voigt Hill
#
# Bulk Modulus (GPa) = 44.84805 53.13025 48.98915
# Shear Modulus (GPa) = 15.49037 25.56938 20.52988
#
# Velocity S-wave (km/s) = 2.86376 3.67930 3.29685
# Velocity P-wave (km/s) = 5.88888 6.79548 6.35836
#
# Compressibility (1/GPa) = 0.02229751
#
# Stress axis : x y z
#
# Youngs Moduli (GPa) = 57.74669 80.79305 67.71238
#
# Poissons Ratio (x) = 0.12457 0.23341
# Poissons Ratio (y) = 0.08903 0.41261
# Poissons Ratio (z) = 0.19906 0.49232
#
# Static dielectric constant tensor:
#      x y z
#    x 1.727370 0.000000 0.082060 
#    y 0.000000 1.707960 0.000000 
#    z 0.082060 0.000000 1.810980 
# 
# From -- ./inp_files/315483.got.cif
#   From: 2010.05.17/outbox.cif.g08.bks.cpg/sg15_158_cif.got.tgz:315483.got - 2010.06.03 18:47:42.
