data_PCOD9272702
_publ_section_title
;
Structure prediction by ZEFSAII (Michael W. Deem and Ramdas Pophale) SiO2 
 PCOD9272702
Probable space group: C 2/C
;
_chemical_formula_sum "Si O2"
_cell_formula_units_Z 40
_cell_length_a 11.733994
_cell_length_b 9.168492
_cell_length_c 24.686160
_cell_angle_alpha 90.000000
_cell_angle_beta 135.980836
_cell_angle_gamma 90.000000
_cell_volume 1845.520851
_symmetry_space_group_name_H-M "C 2/C"
_symmetry_group_IT_number 15
_symmetry_cell_setting 'monoclinic'
loop_
_space_group_symop_operation_xyz
x,y,z
-x,y,1/2-z
-x,-y,-z
x,-y,1/2+z
1/2+x,1/2+y,z
1/2-x,1/2+y,1/2-z
1/2-x,1/2-y,-z
1/2+x,1/2-y,1/2+z
loop_
_atom_site_type_symbol
_atom_site_label
_atom_site_fract_x
_atom_site_fract_y
_atom_site_fract_z
Si Si1 0.106796 0.794113 0.610374
Si Si2 0.146001 0.885297 0.102771
Si Si3 0.631678 0.956680 0.747732
Si Si4 0.601412 0.869322 0.006529
Si Si5 0.373711 0.937165 0.078115
O O1 0.236747 0.826532 0.702262
O O2 0.188063 0.712650 0.586376
O O3 0.950190 0.703803 0.575170
O O4 0.060010 0.956296 0.575506
O O5 0.024848 0.750513 0.059639
O O6 0.267534 0.901698 0.196011
O O7 0.259852 0.888929 0.088402
O O8 0.500000 0.927016 0.750000
O O9 0.532991 0.984596 0.659763
O O10 0.695469 0.948280 0.989640
O O11 0.500000 0.000000 0.000000
#
# Coordination Sequence:
#
# PCOD9272702 Si02
#       5
#     8   8   8   8   8
#     4   9  20  35  57  84 112 143 194 224 277 340
#     4   9  20  37  57  78 116 142 188 230 272 337
#     4   8  18  35  56  80 110 146 188 229 273 330
#     4  10  21  36  58  87 113 146 188 233 274 335
#     4  10  20  37  60  79 112 156 179 233 287 319
#
# _framework density 21.674099999999999
#
# number of rings (size 3 to 8) (size 9 to 14) (size 15 to 20)
#    1.200    1.600    0.000    0.600    2.800    4.000 
#    0.000    4.000    8.800    0.000    0.000    0.000 
#    0.000    0.000    0.000    0.000    0.000    0.000 
#
# Total GULP energy -111425.624317 kJ/mol
# GULP energy per Si atom -5571.281216 kJ/mol
# Density = 2.162477 g / cm^3
# Si number density = 21.674100 Si / 1000 Ang^3
#
#
#
# Elastic Constant Matrix: (Units=GPa)
#
#
# Indices 1 2 3 4 5 6 
#
# 1 64.6442 38.8115 4.9309 0.0000 -12.0683 0.0000
# 2 38.8115 119.9520 15.8742 0.0000 -7.9994 0.0000
# 3 4.9309 15.8742 61.5871 0.0000 -5.6885 0.0000
# 4 0.0000 0.0000 0.0000 30.2122 0.0000 -20.5116
# 5 -12.0683 -7.9994 -5.6885 0.0000 28.3045 0.0000
# 6 0.0000 0.0000 0.0000 -20.5116 0.0000 12.1394
#
#
#
# Elastic Compliance Matrix: (Units=1/GPa)
#
#
# Indices 1 2 3 4 5 6 
#
# 1 0.020494 -0.006240 0.000623 0.000000 0.007100 0.000000
# 2 -0.006240 0.010647 -0.002254 0.000000 -0.000105 0.000000
# 3 0.000623 -0.002254 0.017051 0.000000 0.003055 0.000000
# 4 0.000000 0.000000 0.000000 -0.224936 0.000000 -0.380069
# 5 0.007100 -0.000105 0.003055 0.000000 0.038942 0.000000
# 6 0.000000 0.000000 0.000000 -0.380069 0.000000 -0.559816
#
#
# Mechanical properties :
#
#
# Convention : Reuss Voigt Hill
#
# Bulk Modulus (GPa) = 30.81738 40.60184 35.70961
# Shear Modulus (GPa) = -7.45089 26.56899 9.55905
#
# Velocity S-wave (km/s) = -1.85611 3.50500 2.10236
# Velocity P-wave (km/s) = 3.10739 5.92904 4.73336
#
# Compressibility (1/GPa) = 0.03244922
#
# Stress axis : x y z
#
# Youngs Moduli (GPa) = 48.79587 93.92319 58.64920
#
# Poissons Ratio (x) = 0.58607 -0.03656
# Poissons Ratio (y) = 0.30448 0.13222
# Poissons Ratio (z) = -0.03041 0.21173
#
# Static dielectric constant tensor:
#      x y z
#    x 1.800640 0.000000 0.009840 
#    y 0.000000 1.795240 0.000000 
#    z 0.009840 0.000000 1.859240 
# 
# From -- ./inp_files/267391.got.cif
#   From: 2010.05.17/outbox.cif.g08.bks.cpg/sg15_134_cif.got.tgz:267391.got - 2010.06.03 18:47:42.
