data_PCOD9272720
_publ_section_title
;
Structure prediction by ZEFSAII (Michael W. Deem and Ramdas Pophale) SiO2 
 PCOD9272720
Probable space group: C 2/C
;
_chemical_formula_sum "Si O2"
_cell_formula_units_Z 56
_cell_length_a 30.097788
_cell_length_b 7.985321
_cell_length_c 8.918662
_cell_angle_alpha 90.000000
_cell_angle_beta 115.211106
_cell_angle_gamma 90.000000
_cell_volume 1939.334023
_symmetry_space_group_name_H-M "C 2/C"
_symmetry_group_IT_number 15
_symmetry_cell_setting 'monoclinic'
loop_
_space_group_symop_operation_xyz
x,y,z
-x,y,1/2-z
-x,-y,-z
x,-y,1/2+z
1/2+x,1/2+y,z
1/2-x,1/2+y,1/2-z
1/2-x,1/2-y,-z
1/2+x,1/2-y,1/2+z
loop_
_atom_site_type_symbol
_atom_site_label
_atom_site_fract_x
_atom_site_fract_y
_atom_site_fract_z
Si Si1 0.045111 0.831029 0.425594
Si Si2 0.774558 0.555686 0.338807
Si Si3 0.476855 0.823909 0.021409
Si Si4 0.816068 0.847885 0.239992
Si Si5 0.596417 0.329255 0.892414
Si Si6 0.836362 0.650770 0.708814
Si Si7 0.111962 0.681752 0.330761
O O1 0.086630 0.690569 0.455161
O O2 0.000000 0.794471 0.250000
O O3 0.019556 0.813950 0.550038
O O4 0.068969 0.001051 0.401010
O O5 0.779919 0.690383 0.214171
O O6 0.718786 0.503675 0.286578
O O7 0.793912 0.638208 0.519958
O O8 0.809916 0.404926 0.326236
O O9 0.432283 0.778189 0.845950
O O10 0.446284 0.810550 0.132247
O O11 0.500000 0.000000 0.000000
O O12 0.857852 0.822808 0.425333
O O13 0.845556 0.819559 0.129886
O O14 0.626530 0.304332 0.779712
O O15 0.868517 0.492470 0.699894
#
# Coordination Sequence:
#
# PCOD9272720 Si02
#       7
#     8   8   8   8   8   8   8
#     4  10  21  35  55  85 121 157 198 251 307 363
#     4  10  22  39  61  88 120 158 206 255 314 379
#     4  10  20  37  60  84 117 161 204 250 302 366
#     4   9  21  38  57  84 118 154 199 255 306 368
#     4  10  21  37  56  84 120 154 200 256 308 362
#     4  10  22  40  61  89 121 160 209 257 308 377
#     4   9  20  38  56  84 120 154 200 254 306 360
#
# _framework density 28.875890999999999
#
# number of rings (size 3 to 8) (size 9 to 14) (size 15 to 20)
#    0.000    2.286    0.000    2.143    0.000    9.143 
#    0.000    2.857    0.000    0.000    0.000    0.000 
#    0.000    0.000    0.000    0.000    0.000    0.000 
#
# Total GULP energy -156633.995470 kJ/mol
# GULP energy per Si atom -5594.071267 kJ/mol
# Density = 2.881017 g / cm^3
# Si number density = 28.875891 Si / 1000 Ang^3
#
#
#
# Elastic Constant Matrix: (Units=GPa)
#
#
# Indices 1 2 3 4 5 6 
#
# 1 235.0320 56.7259 47.9906 0.0000 16.7012 0.0000
# 2 56.7259 101.1856 -1.9236 0.0000 6.7782 0.0000
# 3 47.9906 -1.9236 83.7130 0.0000 -26.9821 0.0000
# 4 0.0000 0.0000 0.0000 25.0145 0.0000 6.9454
# 5 16.7012 6.7782 -26.9821 0.0000 31.5321 0.0000
# 6 0.0000 0.0000 0.0000 6.9454 0.0000 84.1236
#
#
#
# Elastic Compliance Matrix: (Units=1/GPa)
#
#
# Indices 1 2 3 4 5 6 
#
# 1 0.007251 -0.003583 -0.007220 0.000000 -0.009249 0.000000
# 2 -0.003583 0.011822 0.002925 0.000000 0.001859 0.000000
# 3 -0.007220 0.002925 0.023725 0.000000 0.023497 0.000000
# 4 0.000000 0.000000 0.000000 0.040915 0.000000 -0.003378
# 5 -0.009249 0.001859 0.023497 0.000000 0.056320 0.000000
# 6 0.000000 0.000000 0.000000 -0.003378 0.000000 0.012166
#
#
# Mechanical properties :
#
#
# Convention : Reuss Voigt Hill
#
# Bulk Modulus (GPa) = 36.97863 69.50182 53.24022
# Shear Modulus (GPa) = 28.25345 49.27656 38.76501
#
# Velocity S-wave (km/s) = 3.13140 4.13546 3.66795
# Velocity P-wave (km/s) = 5.09000 6.85011 6.03457
#
# Compressibility (1/GPa) = 0.02704265
#
# Stress axis : x y z
#
# Youngs Moduli (GPa) = 137.91471 84.58533 42.14880
#
# Poissons Ratio (x) = 0.30304 0.30432
# Poissons Ratio (y) = 0.49410 -0.12327
# Poissons Ratio (z) = 0.99575 -0.24738
#
# Static dielectric constant tensor:
#      x y z
#    x 2.227850 0.000000 -0.033390 
#    y 0.000000 2.355520 0.000000 
#    z -0.033390 0.000000 2.378510 
# 
# From -- ./inp_files/122012.got.cif
#   From: 2010.05.17/outbox.cif.g08.bks.cpg/sg15_62_cif.got.tgz:122012.got - 2010.06.03 18:47:42.
