data_PCOD9272117
_publ_section_title
;
Structure prediction by ZEFSAII (Michael W. Deem and Ramdas Pophale) SiO2 
 PCOD9272117
Probable space group: C 2/C
;
_chemical_formula_sum "Si O2"
_cell_formula_units_Z 48
_cell_length_a 15.439915
_cell_length_b 16.328841
_cell_length_c 16.210524
_cell_angle_alpha 90.000000
_cell_angle_beta 33.725124
_cell_angle_gamma 90.000000
_cell_volume 2269.101691
_symmetry_space_group_name_H-M "C 2/C"
_symmetry_group_IT_number 15
_symmetry_cell_setting 'monoclinic'
loop_
_space_group_symop_operation_xyz
x,y,z
-x,y,1/2-z
-x,-y,-z
x,-y,1/2+z
1/2+x,1/2+y,z
1/2-x,1/2+y,1/2-z
1/2-x,1/2-y,-z
1/2+x,1/2-y,1/2+z
loop_
_atom_site_type_symbol
_atom_site_label
_atom_site_fract_x
_atom_site_fract_y
_atom_site_fract_z
Si Si1 0.713606 0.419105 0.318563
Si Si2 0.183222 0.058220 0.200716
Si Si3 0.426800 0.653553 0.964768
Si Si4 0.507941 0.900660 0.994356
Si Si5 0.430314 0.814056 0.719285
Si Si6 0.656451 0.520987 0.038748
O O1 0.689773 0.494980 0.273132
O O2 0.552737 0.369376 0.435488
O O3 0.745278 0.451517 0.385510
O O4 0.863908 0.372349 0.164015
O O5 0.319444 0.122509 0.111000
O O6 0.225999 0.024682 0.075189
O O7 0.000631 0.076477 0.338370
O O8 0.507259 0.722975 0.846460
O O9 0.396948 0.571913 0.935425
O O10 0.257104 0.681131 0.130598
O O11 0.498740 0.867686 0.910037
O O12 0.500000 0.000000 0.000000
O O13 0.500000 0.844190 0.750000
#
# Coordination Sequence:
#
# PCOD9272117 Si02
#       6
#     8   8   8   8   8   8
#     4  10  20  37  60  89 123 163 211 258 311 359
#     4   9  19  34  58  85 120 155 208 254 301 356
#     4  11  23  39  58  87 130 163 208 248 315 379
#     4  10  21  39  56  86 120 157 208 264 298 368
#     4  12  26  38  60  89 127 171 205 252 322 377
#     4  10  20  36  64  89 121 171 207 256 309 365
#
# _framework density 21.153746000000002
#
# number of rings (size 3 to 8) (size 9 to 14) (size 15 to 20)
#    0.000    1.667    0.000    6.500    9.333    0.667 
#    0.000    0.000    0.000    1.000    0.000    2.333 
#    0.000    0.000    0.000    0.000    0.000    0.000 
#
# Total GULP energy -133821.955228 kJ/mol
# GULP energy per Si atom -5575.914801 kJ/mol
# Density = 2.110560 g / cm^3
# Si number density = 21.153746 Si / 1000 Ang^3
#
#
#
# Elastic Constant Matrix: (Units=GPa)
#
#
# Indices 1 2 3 4 5 6 
#
# 1 62.6315 29.6210 59.4734 -0.0008 30.2051 0.0007
# 2 29.6210 36.3404 30.7130 0.0004 7.3832 -0.0002
# 3 59.4734 30.7130 144.8774 -0.0009 6.9169 0.0009
# 4 -0.0008 0.0004 -0.0009 33.0989 0.0004 3.2084
# 5 30.2051 7.3832 6.9169 0.0004 56.0965 -0.0004
# 6 0.0007 -0.0002 0.0009 3.2084 -0.0004 9.0010
#
#
#
# Elastic Compliance Matrix: (Units=1/GPa)
#
#
# Indices 1 2 3 4 5 6 
#
# 1 0.055646 -0.026887 -0.015976 0.000002 -0.024454 -0.000005
# 2 -0.026887 0.047236 0.000633 -0.000002 0.008182 0.000004
# 3 -0.015976 0.000633 0.012996 0.000000 0.006916 0.000000
# 4 0.000002 -0.000002 0.000000 0.031294 -0.000001 -0.011155
# 5 -0.024454 0.008182 0.006916 -0.000001 0.029064 0.000003
# 6 -0.000005 0.000004 0.000000 -0.011155 0.000003 0.115075
#
#
# Mechanical properties :
#
#
# Convention : Reuss Voigt Hill
#
# Bulk Modulus (GPa) = 31.82838 53.71825 42.77331
# Shear Modulus (GPa) = 12.94527 27.90874 20.42701
#
# Velocity S-wave (km/s) = 2.47647 3.63620 3.11085
# Velocity P-wave (km/s) = 4.82246 6.56343 5.75911
#
# Compressibility (1/GPa) = 0.03141850
#
# Stress axis : x y z
#
# Youngs Moduli (GPa) = 17.97088 21.17050 76.94579
#
# Poissons Ratio (x) = 0.56920 1.22926
# Poissons Ratio (y) = 0.48318 -0.04870
# Poissons Ratio (z) = 0.28710 -0.01340
#
# Static dielectric constant tensor:
#      x y z
#    x 1.808920 0.000000 -0.046990 
#    y 0.000000 1.776900 0.000000 
#    z -0.046990 0.000000 1.831630 
# 
# From -- ./inp_files/155061.got.cif
#   From: 2010.05.17/outbox.cif.g08.bks.cpg/sg15_78_cif.got.tgz:155061.got - 2010.06.03 18:47:42.
