data_PCOD9272798
_publ_section_title
;
Structure prediction by ZEFSAII (Michael W. Deem and Ramdas Pophale) SiO2 
 PCOD9272798
Probable space group: C 2/C
;
_chemical_formula_sum "Si O2"
_cell_formula_units_Z 32
_cell_length_a 21.556612
_cell_length_b 12.405567
_cell_length_c 8.759624
_cell_angle_alpha 90.000000
_cell_angle_beta 45.382089
_cell_angle_gamma 90.000000
_cell_volume 1667.418234
_symmetry_space_group_name_H-M "C 2/C"
_symmetry_group_IT_number 15
_symmetry_cell_setting 'monoclinic'
loop_
_space_group_symop_operation_xyz
x,y,z
-x,y,1/2-z
-x,-y,-z
x,-y,1/2+z
1/2+x,1/2+y,z
1/2-x,1/2+y,1/2-z
1/2-x,1/2-y,-z
1/2+x,1/2-y,1/2+z
loop_
_atom_site_type_symbol
_atom_site_label
_atom_site_fract_x
_atom_site_fract_y
_atom_site_fract_z
Si Si1 0.668577 0.413886 0.080260
Si Si2 0.915684 0.728834 0.477083
Si Si3 0.575902 0.629238 0.243282
Si Si4 0.755843 0.102894 0.721459
O O1 0.625632 0.314438 0.070038
O O2 0.595923 0.504120 0.250991
O O3 0.720774 0.385039 0.141621
O O4 0.729385 0.479314 0.856234
O O5 0.941613 0.797190 0.581360
O O6 0.839580 0.645537 0.647365
O O7 0.000000 0.679631 0.250000
O O8 0.500000 0.633888 0.250000
O O9 0.668129 0.662953 0.005819
#
# Coordination Sequence:
#
# PCOD9272798 Si02
#       4
#     8   8   8   8
#     4  10  20  38  62  85 125 151 200 246 301 342
#     4  12  23  37  61  93 122 156 202 246 295 360
#     4  10  20  37  60  89 119 155 192 249 300 346
#     4  10  22  38  60  91 121 158 198 247 301 351
#
# _framework density 19.191345999999999
#
# number of rings (size 3 to 8) (size 9 to 14) (size 15 to 20)
#    1.500    0.000    2.500    3.750    0.000    3.000 
#    0.000    1.250    0.000    1.500    0.000    0.000 
#    0.000    0.000    0.000    0.000    0.000    0.000 
#
# Total GULP energy -89259.260881 kJ/mol
# GULP energy per Si atom -5578.703805 kJ/mol
# Density = 1.914767 g / cm^3
# Si number density = 19.191346 Si / 1000 Ang^3
#
#
#
# Elastic Constant Matrix: (Units=GPa)
#
#
# Indices 1 2 3 4 5 6 
#
# 1 42.9445 7.6756 0.3692 0.0000 6.0910 0.0000
# 2 7.6756 12.9321 18.4878 0.0000 -13.7016 0.0000
# 3 0.3692 18.4878 80.6987 0.0000 -27.6434 0.0000
# 4 0.0000 0.0000 0.0000 9.7186 0.0000 0.7603
# 5 6.0910 -13.7016 -27.6434 0.0000 38.0725 0.0000
# 6 0.0000 0.0000 0.0000 0.7603 0.0000 9.8986
#
#
#
# Elastic Compliance Matrix: (Units=1/GPa)
#
#
# Indices 1 2 3 4 5 6 
#
# 1 0.034293 -0.046370 0.003821 0.000000 -0.019400 0.000000
# 2 -0.046370 0.209796 -0.025885 0.000000 0.064126 0.000000
# 3 0.003821 -0.025885 0.019838 0.000000 0.004477 0.000000
# 4 0.000000 0.000000 0.000000 0.103518 0.000000 -0.007952
# 5 -0.019400 0.064126 0.004477 0.000000 0.055698 0.000000
# 6 0.000000 0.000000 0.000000 -0.007952 0.000000 0.101635
#
#
# Mechanical properties :
#
#
# Convention : Reuss Voigt Hill
#
# Bulk Modulus (GPa) = 7.87042 21.07115 14.47078
# Shear Modulus (GPa) = 7.10229 18.87412 12.98821
#
# Velocity S-wave (km/s) = 1.92583 3.13944 2.60431
# Velocity P-wave (km/s) = 3.00915 4.91373 4.07430
#
# Compressibility (1/GPa) = 0.12705802
#
# Stress axis : x y z
#
# Youngs Moduli (GPa) = 29.16089 4.76654 50.40814
#
# Poissons Ratio (x) = 0.22103 -0.19261
# Poissons Ratio (y) = 1.35220 1.30481
# Poissons Ratio (z) = -0.11142 0.12338
#
# Static dielectric constant tensor:
#      x y z
#    x 1.626010 0.000000 -0.006600 
#    y 0.000000 1.659970 0.000000 
#    z -0.006600 0.000000 1.721480 
# 
# From -- ./inp_files/28323.got.cif
#   From: 2010.05.17/outbox.cif.g08.bks.cpg/sg15_15_cif.got.tgz:28323.got - 2010.06.03 18:47:42.
