data_PCOD9272833
_publ_section_title
;
Structure prediction by ZEFSAII (Michael W. Deem and Ramdas Pophale) SiO2 
 PCOD9272833
Probable space group: C 2/C
;
_chemical_formula_sum "Si O2"
_cell_formula_units_Z 56
_cell_length_a 23.062051
_cell_length_b 21.819813
_cell_length_c 9.622829
_cell_angle_alpha 90.000000
_cell_angle_beta 144.976544
_cell_angle_gamma 90.000000
_cell_volume 2779.052984
_symmetry_space_group_name_H-M "C 2/C"
_symmetry_group_IT_number 15
_symmetry_cell_setting 'monoclinic'
loop_
_space_group_symop_operation_xyz
x,y,z
-x,y,1/2-z
-x,-y,-z
x,-y,1/2+z
1/2+x,1/2+y,z
1/2-x,1/2+y,1/2-z
1/2-x,1/2-y,-z
1/2+x,1/2-y,1/2+z
loop_
_atom_site_type_symbol
_atom_site_label
_atom_site_fract_x
_atom_site_fract_y
_atom_site_fract_z
Si Si1 0.124873 0.584758 0.335465
Si Si2 0.901819 0.618730 0.904051
Si Si3 0.381558 0.516545 0.508657
Si Si4 0.108219 0.156233 0.896016
Si Si5 0.250167 0.969736 0.016167
Si Si6 0.787405 0.261831 0.228072
Si Si7 0.290804 0.309603 0.159336
O O1 0.111425 0.581490 0.476660
O O2 0.167522 0.523422 0.349043
O O3 0.208154 0.637179 0.475451
O O4 0.013669 0.605646 0.067363
O O5 0.813429 0.592972 0.632281
O O6 0.879907 0.689393 0.898416
O O7 0.500000 0.500511 0.750000
O O8 0.367478 0.584770 0.542043
O O9 0.308720 0.473310 0.454185
O O10 0.337487 0.520223 0.268182
O O11 0.112433 0.172160 0.740902
O O12 0.000000 0.165813 0.750000
O O13 0.180351 0.200307 0.127978
O O14 0.706490 0.294674 0.172249
O O15 0.750000 0.250000 0.000000
O O16 0.250000 0.250000 0.000000
#
# Coordination Sequence:
#
# PCOD9272833 Si02
#       7
#     8   8   8   8   8   8   8
#     4  10  20  37  60  91 121 162 205 244 310 372
#     4  10  22  36  62  92 122 161 202 251 310 370
#     4  11  24  40  62  89 117 161 210 256 311 371
#     4  10  21  38  62  85 114 159 209 248 303 375
#     4  12  21  41  61  86 127 160 202 258 309 368
#     4  10  21  38  60  88 124 156 198 259 313 354
#     4   9  19  35  62  83 118 159 203 246 301 364
#
# _framework density 20.150749999999999
#
# number of rings (size 3 to 8) (size 9 to 14) (size 15 to 20)
#    0.000    1.714    2.857    1.714    6.000    0.000 
#    0.000    0.714    0.000    0.000    0.000    0.000 
#    0.000    0.000    0.000    0.000    0.000    0.000 
#
# Total GULP energy -156142.853239 kJ/mol
# GULP energy per Si atom -5576.530473 kJ/mol
# Density = 2.010489 g / cm^3
# Si number density = 20.150750 Si / 1000 Ang^3
#
#
#
# Elastic Constant Matrix: (Units=GPa)
#
#
# Indices 1 2 3 4 5 6 
#
# 1 101.4955 12.7502 24.7509 0.0000 9.1262 0.0000
# 2 12.7502 39.4672 -12.5921 0.0000 4.7177 0.0000
# 3 24.7509 -12.5921 72.1711 0.0000 1.6978 0.0000
# 4 0.0000 0.0000 0.0000 14.6739 0.0000 -10.1866
# 5 9.1262 4.7177 1.6978 0.0000 27.9395 0.0000
# 6 0.0000 0.0000 0.0000 -10.1866 0.0000 12.7919
#
#
#
# Elastic Compliance Matrix: (Units=1/GPa)
#
#
# Indices 1 2 3 4 5 6 
#
# 1 0.011939 -0.005099 -0.004920 0.000000 -0.002740 0.000000
# 2 -0.005099 0.029674 0.007015 0.000000 -0.003771 0.000000
# 3 -0.004920 0.007015 0.016781 0.000000 -0.000597 0.000000
# 4 0.000000 0.000000 0.000000 0.152394 0.000000 0.121356
# 5 -0.002740 -0.003771 -0.000597 0.000000 0.037360 0.000000
# 6 0.000000 0.000000 0.000000 0.121356 0.000000 0.174814
#
#
# Mechanical properties :
#
#
# Convention : Reuss Voigt Hill
#
# Bulk Modulus (GPa) = 19.08914 29.21686 24.15300
# Shear Modulus (GPa) = 11.19991 23.62938 17.41464
#
# Velocity S-wave (km/s) = 2.36011 3.42808 2.94295
# Velocity P-wave (km/s) = 4.11346 5.49542 4.85387
#
# Compressibility (1/GPa) = 0.05238582
#
# Stress axis : x y z
#
# Youngs Moduli (GPa) = 83.75648 33.69980 59.59054
#
# Poissons Ratio (x) = 0.17185 0.29318
# Poissons Ratio (y) = 0.42710 -0.41802
# Poissons Ratio (z) = 0.41207 -0.23640
#
# Static dielectric constant tensor:
#      x y z
#    x 1.723120 0.000000 -0.007160 
#    y 0.000000 1.743300 0.000000 
#    z -0.007160 0.000000 1.716070 
# 
# From -- ./inp_files/63860.got.cif
#   From: 2010.05.17/outbox.cif.g08.bks.cpg/sg15_32_cif.got.tgz:63860.got - 2010.06.03 18:47:42.
