data_PCOD9272893
_publ_section_title
;
Structure prediction by ZEFSAII (Michael W. Deem and Ramdas Pophale) SiO2 
 PCOD9272893
Probable space group: C 2/C
;
_chemical_formula_sum "Si O2"
_cell_formula_units_Z 40
_cell_length_a 8.062842
_cell_length_b 28.447978
_cell_length_c 12.405005
_cell_angle_alpha 90.000000
_cell_angle_beta 37.712688
_cell_angle_gamma 90.000000
_cell_volume 1740.510177
_symmetry_space_group_name_H-M "C 2/C"
_symmetry_group_IT_number 15
_symmetry_cell_setting 'monoclinic'
loop_
_space_group_symop_operation_xyz
x,y,z
-x,y,1/2-z
-x,-y,-z
x,-y,1/2+z
1/2+x,1/2+y,z
1/2-x,1/2+y,1/2-z
1/2-x,1/2-y,-z
1/2+x,1/2-y,1/2+z
loop_
_atom_site_type_symbol
_atom_site_label
_atom_site_fract_x
_atom_site_fract_y
_atom_site_fract_z
Si Si1 0.066392 0.292880 0.557190
Si Si2 0.588219 0.946650 0.959069
Si Si3 0.455179 0.448785 0.964143
Si Si4 0.954113 0.271870 0.162571
Si Si5 0.222533 0.606369 0.048723
O O1 0.250000 0.250000 0.500000
O O2 0.111762 0.301871 0.407511
O O3 0.165383 0.338489 0.568202
O O4 0.762293 0.271460 0.724396
O O5 0.684041 0.940113 0.033236
O O6 0.348479 0.915657 0.030482
O O7 0.828704 0.942427 0.745895
O O8 0.500000 0.000000 0.000000
O O9 0.506667 0.410971 0.032254
O O10 0.500000 0.500000 0.000000
O O11 0.000000 0.299120 0.250000
O O12 0.250000 0.250000 0.000000
O O13 0.000000 0.588014 0.250000
#
# Coordination Sequence:
#
# PCOD9272893 Si02
#       5
#     8   8   8   8   8
#     4  11  21  40  66  90 126 169 214 265 319 381
#     4  10  20  37  61  87 120 157 204 252 315 377
#     4  10  20  37  61  88 118 158 203 256 311 374
#     4   9  20  40  62  89 122 166 212 265 323 376
#     4  10  21  38  60  92 119 161 211 254 311 386
#
# _framework density 22.981769
#
# number of rings (size 3 to 8) (size 9 to 14) (size 15 to 20)
#    0.000    2.000    2.000    1.800    0.000    0.000 
#   32.400    4.000    0.000    0.000    0.000    0.000 
#    0.000    0.000    0.000    0.000    0.000    0.000 
#
# Total GULP energy -111400.988902 kJ/mol
# GULP energy per Si atom -5570.049445 kJ/mol
# Density = 2.292946 g / cm^3
# Si number density = 22.981769 Si / 1000 Ang^3
#
#
#
# Elastic Constant Matrix: (Units=GPa)
#
#
# Indices 1 2 3 4 5 6 
#
# 1 269.6711 96.1949 37.2929 0.0000 15.6250 0.0000
# 2 96.1949 114.1848 6.3311 0.0000 -7.7224 0.0000
# 3 37.2929 6.3311 33.9340 0.0000 0.2664 0.0000
# 4 0.0000 0.0000 0.0000 15.4105 0.0000 9.7364
# 5 15.6250 -7.7224 0.2664 0.0000 41.9152 0.0000
# 6 0.0000 0.0000 0.0000 9.7364 0.0000 42.2249
#
#
#
# Elastic Compliance Matrix: (Units=1/GPa)
#
#
# Indices 1 2 3 4 5 6 
#
# 1 0.006799 -0.005612 -0.006397 0.000000 -0.003528 0.000000
# 2 -0.005612 0.013595 0.003595 0.000000 0.004574 0.000000
# 3 -0.006397 0.003595 0.035807 0.000000 0.002819 0.000000
# 4 0.000000 0.000000 0.000000 0.075956 0.000000 -0.017514
# 5 -0.003528 0.004574 0.002819 0.000000 0.025997 0.000000
# 6 0.000000 0.000000 0.000000 -0.017514 0.000000 0.027721
#
#
# Mechanical properties :
#
#
# Convention : Reuss Voigt Hill
#
# Bulk Modulus (GPa) = 25.39840 77.49197 51.44519
# Shear Modulus (GPa) = 23.16648 38.44153 30.80401
#
# Velocity S-wave (km/s) = 3.17840 4.09430 3.66507
# Velocity P-wave (km/s) = 4.95431 7.49287 6.35171
#
# Compressibility (1/GPa) = 0.03937255
#
# Stress axis : x y z
#
# Youngs Moduli (GPa) = 147.07801 73.55440 27.92765
#
# Poissons Ratio (x) = 0.41277 0.17866
# Poissons Ratio (y) = 0.82537 -0.10039
# Poissons Ratio (z) = 0.94092 -0.26441
#
# Static dielectric constant tensor:
#      x y z
#    x 5.326490 0.000000 4.505610 
#    y 0.000000 1.790880 0.000000 
#    z 4.505610 0.000000 7.887430 
# 
# From -- ./inp_files/137104.got.cif
#   From: 2010.05.17/outbox.cif.g08.bks.cpg/sg15_69_cif.got.tgz:137104.got - 2010.06.03 18:47:42.
