data_PCOD9272956
_publ_section_title
;
Structure prediction by ZEFSAII (Michael W. Deem and Ramdas Pophale) SiO2 
 PCOD9272956
Probable space group: C 2/C
;
_chemical_formula_sum "Si O2"
_cell_formula_units_Z 40
_cell_length_a 14.840725
_cell_length_b 9.992566
_cell_length_c 21.175465
_cell_angle_alpha 90.000000
_cell_angle_beta 36.643549
_cell_angle_gamma 90.000000
_cell_volume 1874.214579
_symmetry_space_group_name_H-M "C 2/C"
_symmetry_group_IT_number 15
_symmetry_cell_setting 'monoclinic'
loop_
_space_group_symop_operation_xyz
x,y,z
-x,y,1/2-z
-x,-y,-z
x,-y,1/2+z
1/2+x,1/2+y,z
1/2-x,1/2+y,1/2-z
1/2-x,1/2-y,-z
1/2+x,1/2-y,1/2+z
loop_
_atom_site_type_symbol
_atom_site_label
_atom_site_fract_x
_atom_site_fract_y
_atom_site_fract_z
Si Si1 0.824974 0.808293 0.833490
Si Si2 0.830261 0.514738 0.329717
Si Si3 0.737841 0.509716 0.746380
Si Si4 0.509122 0.137453 0.531835
Si Si5 0.040054 0.111660 0.529908
O O1 0.816058 0.647044 0.834098
O O2 0.786764 0.897931 0.793381
O O3 0.000000 0.839288 0.750000
O O4 0.680827 0.843010 0.960061
O O5 0.786181 0.561767 0.284282
O O6 0.714218 0.578644 0.444941
O O7 0.000000 0.549522 0.250000
O O8 0.871171 0.617173 0.657450
O O9 0.580376 0.586907 0.847558
O O10 0.479360 0.251141 0.496617
O O11 0.500000 0.000000 0.500000
O O12 0.000000 0.000000 0.500000
#
# Coordination Sequence:
#
# PCOD9272956 Si02
#       5
#     8   8   8   8   8
#     4  10  21  39  62  96 127 161 214 258 302 383
#     4  10  22  38  63  96 128 159 215 261 306 375
#     4  10  22  37  67  83 130 171 199 251 331 350
#     4  10  21  38  61  92 127 164 211 256 310 380
#     4  10  20  37  61  92 124 162 211 257 309 374
#
# _framework density 21.342272000000001
#
# number of rings (size 3 to 8) (size 9 to 14) (size 15 to 20)
#    0.000    2.000    4.000    0.000    5.600    1.600 
#    0.000    8.000    0.000    8.400    0.000    0.000 
#    0.000    0.000    0.000    0.000    0.000    0.000 
#
# Total GULP energy -111436.354748 kJ/mol
# GULP energy per Si atom -5571.817737 kJ/mol
# Density = 2.129370 g / cm^3
# Si number density = 21.342272 Si / 1000 Ang^3
#
#
#
# Elastic Constant Matrix: (Units=GPa)
#
#
# Indices 1 2 3 4 5 6 
#
# 1 67.8173 12.7637 47.2898 0.0000 -36.5841 0.0000
# 2 12.7637 101.8694 34.1130 0.0000 -9.5703 0.0000
# 3 47.2898 34.1130 209.7616 0.0000 -51.7995 0.0000
# 4 0.0000 0.0000 0.0000 57.5870 0.0000 16.0615
# 5 -36.5841 -9.5703 -51.7995 0.0000 45.3382 0.0000
# 6 0.0000 0.0000 0.0000 16.0615 0.0000 44.0851
#
#
#
# Elastic Compliance Matrix: (Units=1/GPa)
#
#
# Indices 1 2 3 4 5 6 
#
# 1 0.026376 -0.001149 -0.000785 0.000000 0.020143 0.000000
# 2 -0.001149 0.010436 -0.001565 0.000000 -0.000512 0.000000
# 3 -0.000785 -0.001565 0.006910 0.000000 0.006932 0.000000
# 4 0.000000 0.000000 0.000000 0.019329 0.000000 -0.007042
# 5 0.020143 -0.000512 0.006932 0.000000 0.046122 0.000000
# 6 0.000000 0.000000 0.000000 -0.007042 0.000000 0.025249
#
#
# Mechanical properties :
#
#
# Convention : Reuss Voigt Hill
#
# Bulk Modulus (GPa) = 27.22998 63.08681 45.15840
# Shear Modulus (GPa) = 32.53903 48.42083 40.47993
#
# Velocity S-wave (km/s) = 3.90888 4.76833 4.35984
# Velocity P-wave (km/s) = 5.75838 7.74208 6.82271
#
# Compressibility (1/GPa) = 0.03672423
#
# Stress axis : x y z
#
# Youngs Moduli (GPa) = 37.91394 95.81915 144.70831
#
# Poissons Ratio (x) = 0.11014 0.11360
# Poissons Ratio (y) = 0.04358 0.22640
# Poissons Ratio (z) = 0.02976 0.14991
#
# Static dielectric constant tensor:
#      x y z
#    x 1.780720 0.000000 -0.037970 
#    y 0.000000 1.741470 0.000000 
#    z -0.037970 0.000000 1.974050 
# 
# From -- ./inp_files/276736.got.cif
#   From: 2010.05.17/outbox.cif.g08.bks.cpg/sg15_139_cif.got.tgz:276736.got - 2010.06.03 18:47:42.
