data_PCOD9272098
_publ_section_title
;
Structure prediction by ZEFSAII (Michael W. Deem and Ramdas Pophale) SiO2 
 PCOD9272098
Probable space group: C 2/C
;
_chemical_formula_sum "Si O2"
_cell_formula_units_Z 56
_cell_length_a 12.193694
_cell_length_b 8.372630
_cell_length_c 31.262765
_cell_angle_alpha 90.000000
_cell_angle_beta 124.185584
_cell_angle_gamma 90.000000
_cell_volume 2640.259653
_symmetry_space_group_name_H-M "C 2/C"
_symmetry_group_IT_number 15
_symmetry_cell_setting 'monoclinic'
loop_
_space_group_symop_operation_xyz
x,y,z
-x,y,1/2-z
-x,-y,-z
x,-y,1/2+z
1/2+x,1/2+y,z
1/2-x,1/2+y,1/2-z
1/2-x,1/2-y,-z
1/2+x,1/2-y,1/2+z
loop_
_atom_site_type_symbol
_atom_site_label
_atom_site_fract_x
_atom_site_fract_y
_atom_site_fract_z
Si Si1 0.108052 0.593907 0.052395
Si Si2 0.500000 0.294957 0.250000
Si Si3 0.625234 0.355263 0.929441
Si Si4 0.889029 0.828751 0.016990
Si Si5 0.782959 0.448081 0.687755
Si Si6 0.122119 0.257964 0.083934
Si Si7 0.464784 0.544941 0.311566
Si Si8 0.000000 0.302435 0.250000
O O1 0.221405 0.675722 0.048125
O O2 0.171242 0.441427 0.090752
O O3 0.019778 0.724321 0.057936
O O4 0.000000 0.500000 0.000000
O O5 0.627106 0.186072 0.270214
O O6 0.523299 0.404229 0.296022
O O7 0.611770 0.502920 0.959338
O O8 0.524076 0.227233 0.926831
O O9 0.561506 0.401070 0.870181
O O10 0.750000 0.750000 0.000000
O O11 0.888809 0.823121 0.965286
O O12 0.711345 0.359262 0.632464
O O13 0.669619 0.506204 0.694699
O O14 0.887272 0.589670 0.702785
O O15 0.439273 0.689960 0.273242
#
# Coordination Sequence:
#
# PCOD9272098 Si02
#       8
#     8   4   8   8   8   8   8   4
#     4  10  21  40  58  84 124 163 204 250 297 357
#     4  10  20  36  64  84 118 158 190 252 308 354
#     4  11  22  40  61  90 121 164 208 250 302 365
#     4  11  22  41  61  85 127 166 201 251 300 356
#     4  10  21  40  61  91 119 153 204 247 303 365
#     4  10  22  40  61  89 124 160 208 251 300 365
#     4  10  22  39  61  89 121 154 202 247 305 367
#     4  10  22  42  64  88 124 156 192 258 310 364
#
# _framework density 21.210035000000001
#
# number of rings (size 3 to 8) (size 9 to 14) (size 15 to 20)
#    0.000    1.714    2.857    2.143    0.000    4.571 
#    7.714    1.429    0.000    0.000    0.000    0.000 
#    0.000    0.000    0.000    0.000    0.000    0.000 
#
# Total GULP energy -156226.359734 kJ/mol
# GULP energy per Si atom -5579.512848 kJ/mol
# Density = 2.116176 g / cm^3
# Si number density = 21.210035 Si / 1000 Ang^3
#
#
#
# Elastic Constant Matrix: (Units=GPa)
#
#
# Indices 1 2 3 4 5 6 
#
# 1 95.4139 3.5375 20.8600 0.0000 -3.7659 0.0000
# 2 3.5375 47.1948 -6.5583 0.0000 -2.6304 0.0000
# 3 20.8600 -6.5583 54.5330 0.0000 2.5166 0.0000
# 4 0.0000 0.0000 0.0000 39.2253 0.0000 11.5490
# 5 -3.7659 -2.6304 2.5166 0.0000 27.2518 0.0000
# 6 0.0000 0.0000 0.0000 11.5490 0.0000 36.7426
#
#
#
# Elastic Compliance Matrix: (Units=1/GPa)
#
#
# Indices 1 2 3 4 5 6 
#
# 1 0.011638 -0.001421 -0.004711 0.000000 0.001906 0.000000
# 2 -0.001421 0.021815 0.003092 0.000000 0.001624 0.000000
# 3 -0.004711 0.003092 0.020615 0.000000 -0.002256 0.000000
# 4 0.000000 0.000000 0.000000 0.028094 0.000000 -0.008830
# 5 0.001906 0.001624 -0.002256 0.000000 0.037323 0.000000
# 6 0.000000 0.000000 0.000000 -0.008830 0.000000 0.029992
#
#
# Mechanical properties :
#
#
# Convention : Reuss Voigt Hill
#
# Bulk Modulus (GPa) = 20.83743 25.86891 23.35317
# Shear Modulus (GPa) = 29.14533 32.59744 30.87139
#
# Velocity S-wave (km/s) = 3.71095 3.92457 3.81925
# Velocity P-wave (km/s) = 5.31104 5.72358 5.52116
#
# Compressibility (1/GPa) = 0.04799056
#
# Stress axis : x y z
#
# Youngs Moduli (GPa) = 85.92196 45.83905 48.50724
#
# Poissons Ratio (x) = 0.06513 0.22851
# Poissons Ratio (y) = 0.12207 -0.14999
# Poissons Ratio (z) = 0.40476 -0.14174
#
# Static dielectric constant tensor:
#      x y z
#    x 1.773780 0.000000 0.034230 
#    y 0.000000 1.793560 0.000000 
#    z 0.034230 0.000000 1.778330 
# 
# From -- ./inp_files/291655.got.cif
#   From: 2010.05.17/outbox.cif.g08.bks.cpg/sg15_146_cif.got.tgz:291655.got - 2010.06.03 18:47:42.
