data_PCOD9272022
_publ_section_title
;
Structure prediction by ZEFSAII (Michael W. Deem and Ramdas Pophale) SiO2 
 PCOD9272022
Probable space group: C 2/C
;
_chemical_formula_sum "Si O2"
_cell_formula_units_Z 60
_cell_length_a 18.658862
_cell_length_b 8.450855
_cell_length_c 21.595592
_cell_angle_alpha 90.000000
_cell_angle_beta 50.721712
_cell_angle_gamma 90.000000
_cell_volume 2635.948127
_symmetry_space_group_name_H-M "C 2/C"
_symmetry_group_IT_number 15
_symmetry_cell_setting 'monoclinic'
loop_
_space_group_symop_operation_xyz
x,y,z
-x,y,1/2-z
-x,-y,-z
x,-y,1/2+z
1/2+x,1/2+y,z
1/2-x,1/2+y,1/2-z
1/2-x,1/2-y,-z
1/2+x,1/2-y,1/2+z
loop_
_atom_site_type_symbol
_atom_site_label
_atom_site_fract_x
_atom_site_fract_y
_atom_site_fract_z
Si Si1 0.687168 0.244102 0.843783
Si Si2 0.606923 0.719657 0.251977
Si Si3 0.347895 0.280905 0.398684
Si Si4 0.054850 0.859190 0.028241
Si Si5 0.120754 0.176293 0.948609
Si Si6 0.189443 0.515978 0.170216
Si Si7 0.500000 0.475334 0.250000
Si Si8 0.267609 0.032443 0.098253
O O1 0.645810 0.271328 0.799565
O O2 0.781725 0.344510 0.798686
O O3 0.708249 0.065748 0.852856
O O4 0.615069 0.300903 0.936206
O O5 0.521558 0.599677 0.293266
O O6 0.678436 0.636827 0.164876
O O7 0.604026 0.902561 0.232448
O O8 0.400451 0.290542 0.434550
O O9 0.321407 0.108570 0.388232
O O10 0.418012 0.357345 0.310960
O O11 0.261475 0.402995 0.437458
O O12 0.949147 0.812555 0.071369
O O13 0.069137 0.049174 0.020379
O O14 0.149093 0.345921 0.960923
O O15 0.218318 0.093220 0.878720
#
# Coordination Sequence:
#
# PCOD9272022 Si02
#       8
#     8   8   8   8   8   8   4   8
#     4  10  20  36  63  89 123 157 203 250 303 365
#     4  10  20  39  60  89 121 157 205 257 295 369
#     4  10  22  42  62  89 125 160 202 255 305 368
#     4  10  22  38  63  91 123 162 199 252 312 353
#     4   9  20  38  60  90 119 160 207 240 302 359
#     4   9  20  38  62  89 117 162 206 246 304 356
#     4  10  24  38  60  86 124 160 202 254 320 348
#     4   9  20  39  60  89 120 163 206 246 303 354
#
# _framework density 22.76221
#
# number of rings (size 3 to 8) (size 9 to 14) (size 15 to 20)
#    0.000    2.400    0.000    0.800    5.600    6.400 
#    9.600    2.667    0.000    0.000    0.000    0.000 
#    0.000    0.000    0.000    0.000    0.000    0.000 
#
# Total GULP energy -167290.103857 kJ/mol
# GULP energy per Si atom -5576.336795 kJ/mol
# Density = 2.271040 g / cm^3
# Si number density = 22.762210 Si / 1000 Ang^3
#
#
#
# Elastic Constant Matrix: (Units=GPa)
#
#
# Indices 1 2 3 4 5 6 
#
# 1 127.3313 17.4966 22.0056 0.0000 13.1219 0.0001
# 2 17.4966 70.4217 10.5350 0.0000 -11.3213 0.0003
# 3 22.0056 10.5350 33.3829 0.0000 11.1528 0.0000
# 4 0.0000 0.0000 0.0000 8.3572 0.0000 -5.3541
# 5 13.1219 -11.3213 11.1528 0.0000 36.1004 0.0000
# 6 0.0001 0.0003 0.0000 -5.3541 0.0000 12.0182
#
#
#
# Elastic Compliance Matrix: (Units=1/GPa)
#
#
# Indices 1 2 3 4 5 6 
#
# 1 0.009182 -0.002010 -0.004564 0.000000 -0.002558 0.000000
# 2 -0.002010 0.017025 -0.006775 0.000000 0.008163 -0.000001
# 3 -0.004564 -0.006775 0.039315 0.000000 -0.012612 0.000000
# 4 0.000000 0.000000 0.000000 0.167449 0.000000 0.074598
# 5 -0.002558 0.008163 -0.012612 0.000000 0.035086 0.000000
# 6 0.000000 -0.000001 0.000000 0.074598 0.000000 0.116441
#
#
# Mechanical properties :
#
#
# Convention : Reuss Voigt Hill
#
# Bulk Modulus (GPa) = 25.75647 36.80114 31.27881
# Shear Modulus (GPa) = 11.78861 23.36841 17.57851
#
# Velocity S-wave (km/s) = 2.27822 3.20759 2.78198
# Velocity P-wave (km/s) = 4.27322 5.47000 4.90822
#
# Compressibility (1/GPa) = 0.03882520
#
# Stress axis : x y z
#
# Youngs Moduli (GPa) = 108.90842 58.73586 25.43526
#
# Poissons Ratio (x) = 0.11805 0.11608
# Poissons Ratio (y) = 0.21888 0.17233
# Poissons Ratio (z) = 0.49705 0.39795
#
# Static dielectric constant tensor:
#      x y z
#    x 1.906620 0.000000 -0.056210 
#    y 0.000000 1.904020 0.000000 
#    z -0.056210 0.000000 1.886720 
# 
# From -- ./inp_files/276559.got.cif
#   From: 2010.05.17/outbox.cif.g08.bks.cpg/sg15_139_cif.got.tgz:276559.got - 2010.06.03 18:47:42.
