data_PCOD9272285
_publ_section_title
;
Structure prediction by ZEFSAII (Michael W. Deem and Ramdas Pophale) SiO2 
 PCOD9272285
Probable space group: C 2/C
;
_chemical_formula_sum "Si O2"
_cell_formula_units_Z 56
_cell_length_a 9.262439
_cell_length_b 16.320486
_cell_length_c 20.414861
_cell_angle_alpha 90.000000
_cell_angle_beta 123.806431
_cell_angle_gamma 90.000000
_cell_volume 2564.278233
_symmetry_space_group_name_H-M "C 2/C"
_symmetry_group_IT_number 15
_symmetry_cell_setting 'monoclinic'
loop_
_space_group_symop_operation_xyz
x,y,z
-x,y,1/2-z
-x,-y,-z
x,-y,1/2+z
1/2+x,1/2+y,z
1/2-x,1/2+y,1/2-z
1/2-x,1/2-y,-z
1/2+x,1/2-y,1/2+z
loop_
_atom_site_type_symbol
_atom_site_label
_atom_site_fract_x
_atom_site_fract_y
_atom_site_fract_z
Si Si1 0.392934 0.022892 0.658953
Si Si2 0.355328 0.670361 0.507595
Si Si3 0.243335 0.173577 0.445322
Si Si4 0.138557 0.696453 0.227693
Si Si5 0.890786 0.102355 0.379737
Si Si6 0.524189 0.910432 0.930941
Si Si7 0.247506 0.806418 0.153727
O O1 0.500000 0.993550 0.750000
O O2 0.204369 0.979569 0.619665
O O3 0.482106 0.994275 0.613593
O O4 0.364574 0.118724 0.660896
O O5 0.250000 0.750000 0.500000
O O6 0.359561 0.665964 0.430571
O O7 0.550746 0.672331 0.581701
O O8 0.227413 0.598951 0.499483
O O9 0.250000 0.250000 0.500000
O O10 0.411488 0.120773 0.464416
O O11 0.190405 0.225087 0.367737
O O12 0.096274 0.107132 0.424010
O O13 0.287758 0.635877 0.291247
O O14 0.034430 0.653476 0.141568
O O15 0.226799 0.779539 0.223556
O O16 0.000000 0.711096 0.250000
#
# Coordination Sequence:
#
# PCOD9272285 Si02
#       7
#     8   8   8   8   8   8   8
#     4  11  23  44  60  91 127 170 212 263 324 393
#     4  11  17  37  63  91 120 164 212 257 310 388
#     4  11  22  40  62 100 125 160 218 272 312 379
#     4  11  18  38  62  96 113 168 219 257 314 391
#     4  11  21  36  67  85 126 165 212 256 317 390
#     4  10  20  36  67  85 124 171 209 249 319 391
#     4  11  25  36  66  95 129 160 213 274 323 366
#
# _framework density 21.838502999999999
#
# number of rings (size 3 to 8) (size 9 to 14) (size 15 to 20)
#    0.000    1.143    8.571    0.000    2.000    4.000 
#    0.000    2.143    3.143    0.000    0.000    0.000 
#    0.000    0.000    0.000    0.000    0.000    0.000 
#
# Total GULP energy -156009.834492 kJ/mol
# GULP energy per Si atom -5571.779803 kJ/mol
# Density = 2.178880 g / cm^3
# Si number density = 21.838503 Si / 1000 Ang^3
#
#
#
# Elastic Constant Matrix: (Units=GPa)
#
#
# Indices 1 2 3 4 5 6 
#
# 1 111.1237 19.0191 10.7336 0.0000 -1.9594 0.0000
# 2 19.0191 75.8994 -4.5201 0.0000 -8.8597 0.0000
# 3 10.7336 -4.5201 32.3040 0.0000 0.0840 0.0000
# 4 0.0000 0.0000 0.0000 18.5441 0.0000 -1.1944
# 5 -1.9594 -8.8597 0.0840 0.0000 31.3936 0.0000
# 6 0.0000 0.0000 0.0000 -1.1944 0.0000 36.8146
#
#
#
# Elastic Compliance Matrix: (Units=1/GPa)
#
#
# Indices 1 2 3 4 5 6 
#
# 1 0.009808 -0.002690 -0.003635 0.000000 -0.000137 0.000000
# 2 -0.002690 0.014479 0.002910 0.000000 0.003911 0.000000
# 3 -0.003635 0.002910 0.032570 0.000000 0.000507 0.000000
# 4 0.000000 0.000000 0.000000 0.054038 0.000000 0.001753
# 5 -0.000137 0.003911 0.000507 0.000000 0.032947 0.000000
# 6 0.000000 0.000000 0.000000 0.001753 0.000000 0.027220
#
#
# Mechanical properties :
#
#
# Convention : Reuss Voigt Hill
#
# Bulk Modulus (GPa) = 19.98970 29.97690 24.98330
# Shear Modulus (GPa) = 25.69784 30.29009 27.99397
#
# Velocity S-wave (km/s) = 3.43406 3.72829 3.58420
# Velocity P-wave (km/s) = 4.98969 5.68243 5.34729
#
# Compressibility (1/GPa) = 0.05002578
#
# Stress axis : x y z
#
# Youngs Moduli (GPa) = 101.95645 69.06444 30.70357
#
# Poissons Ratio (x) = 0.18580 0.11161
# Poissons Ratio (y) = 0.27429 -0.08934
# Poissons Ratio (z) = 0.37061 -0.20096
#
# Static dielectric constant tensor:
#      x y z
#    x 1.881550 0.000000 0.007390 
#    y 0.000000 1.857180 0.000000 
#    z 0.007390 0.000000 1.848730 
# 
# From -- ./inp_files/232784.got.cif
#   From: 2010.05.17/outbox.cif.g08.bks.cpg/sg15_117_cif.got.tgz:232784.got - 2010.06.03 18:47:42.
