data_PCOD9272545
_publ_section_title
;
Structure prediction by ZEFSAII (Michael W. Deem and Ramdas Pophale) SiO2 
 PCOD9272545
Probable space group: C 2/C
;
_chemical_formula_sum "Si O2"
_cell_formula_units_Z 56
_cell_length_a 15.057081
_cell_length_b 11.537700
_cell_length_c 25.774049
_cell_angle_alpha 90.000000
_cell_angle_beta 135.482249
_cell_angle_gamma 90.000000
_cell_volume 3139.361704
_symmetry_space_group_name_H-M "C 2/C"
_symmetry_group_IT_number 15
_symmetry_cell_setting 'monoclinic'
loop_
_space_group_symop_operation_xyz
x,y,z
-x,y,1/2-z
-x,-y,-z
x,-y,1/2+z
1/2+x,1/2+y,z
1/2-x,1/2+y,1/2-z
1/2-x,1/2-y,-z
1/2+x,1/2-y,1/2+z
loop_
_atom_site_type_symbol
_atom_site_label
_atom_site_fract_x
_atom_site_fract_y
_atom_site_fract_z
Si Si1 0.057310 0.292182 0.964318
Si Si2 0.585331 0.643734 0.163993
Si Si3 0.938530 0.021437 0.530038
Si Si4 0.957631 0.371028 0.421634
Si Si5 0.197280 0.396141 0.668305
Si Si6 0.102185 0.070312 0.331931
Si Si7 0.717203 0.999539 0.503875
O O1 0.085737 0.157610 0.975376
O O2 0.919116 0.309526 0.882502
O O3 0.051825 0.342166 0.021096
O O4 0.152783 0.375020 0.973342
O O5 0.538098 0.533409 0.111635
O O6 0.578400 0.756785 0.125479
O O7 0.720368 0.617371 0.245764
O O8 0.483023 0.654182 0.168124
O O9 0.803179 0.965559 0.490213
O O10 0.000000 0.000000 0.500000
O O11 0.864235 0.476898 0.367417
O O12 0.101040 0.412857 0.468140
O O13 0.293823 0.372020 0.661460
O O14 0.000000 0.011255 0.250000
O O15 0.184077 0.996344 0.406788
#
# Coordination Sequence:
#
# PCOD9272545 Si02
#       7
#     8   8   8   8   8   8   8
#     4  11  20  37  61  85 111 154 189 238 281 334
#     4  10  23  35  55  86 118 148 187 235 295 332
#     4  11  23  37  54  86 121 149 187 233 294 340
#     4  11  20  37  63  84 110 154 191 236 279 339
#     4  10  20  37  60  82 113 146 199 234 285 334
#     4   9  17  33  54  83 113 141 185 244 277 328
#     4  10  20  37  58  84 111 149 200 232 276 341
#
# _framework density 17.83802
#
# number of rings (size 3 to 8) (size 9 to 14) (size 15 to 20)
#    0.000    1.714    4.286    1.286    2.000    3.429 
#    0.000    0.000    0.000    2.571    0.000    0.000 
#    0.000    0.000    0.000    0.000    0.000    0.000 
#
# Total GULP energy -155981.537599 kJ/mol
# GULP energy per Si atom -5570.769200 kJ/mol
# Density = 1.779742 g / cm^3
# Si number density = 17.838020 Si / 1000 Ang^3
#
#
#
# Elastic Constant Matrix: (Units=GPa)
#
#
# Indices 1 2 3 4 5 6 
#
# 1 104.0949 4.2357 45.4975 0.0000 3.7877 0.0000
# 2 4.2357 44.7452 18.6862 0.0000 -1.1727 0.0000
# 3 45.4975 18.6862 114.5628 0.0000 10.9302 0.0000
# 4 0.0000 0.0000 0.0000 18.1024 0.0000 -5.9791
# 5 3.7877 -1.1727 10.9302 0.0000 23.7354 0.0000
# 6 0.0000 0.0000 0.0000 -5.9791 0.0000 17.9594
#
#
#
# Elastic Compliance Matrix: (Units=1/GPa)
#
#
# Indices 1 2 3 4 5 6 
#
# 1 0.011661 0.000919 -0.004820 0.000000 0.000404 0.000000
# 2 0.000919 0.024278 -0.004629 0.000000 0.003184 0.000000
# 3 -0.004820 -0.004629 0.011868 0.000000 -0.004925 0.000000
# 4 0.000000 0.000000 0.000000 0.062066 0.000000 0.020663
# 5 0.000404 0.003184 -0.004925 0.000000 0.044492 0.000000
# 6 0.000000 0.000000 0.000000 0.020663 0.000000 0.062560
#
#
# Mechanical properties :
#
#
# Convention : Reuss Voigt Hill
#
# Bulk Modulus (GPa) = 32.52151 44.47132 38.49641
# Shear Modulus (GPa) = 20.47224 24.95835 22.71529
#
# Velocity S-wave (km/s) = 3.39141 3.74460 3.57237
# Velocity P-wave (km/s) = 5.79713 6.60915 6.21641
#
# Compressibility (1/GPa) = 0.03074888
#
# Stress axis : x y z
#
# Youngs Moduli (GPa) = 85.75567 41.18903 84.26188
#
# Poissons Ratio (x) = -0.03787 0.40611
# Poissons Ratio (y) = -0.07885 0.39005
# Poissons Ratio (z) = 0.41331 0.19066
#
# Static dielectric constant tensor:
#      x y z
#    x 1.649520 0.000000 -0.007910 
#    y 0.000000 1.592330 0.000000 
#    z -0.007910 0.000000 1.616860 
# 
# From -- ./inp_files/295919.got.cif
#   From: 2010.05.17/outbox.cif.g08.bks.cpg/sg15_148_cif.got.tgz:295919.got - 2010.06.03 18:47:42.
