data_PCOD9272863
_publ_section_title
;
Structure prediction by ZEFSAII (Michael W. Deem and Ramdas Pophale) SiO2 
 PCOD9272863
Probable space group: C 2/C
;
_chemical_formula_sum "Si O2"
_cell_formula_units_Z 40
_cell_length_a 12.042729
_cell_length_b 13.822262
_cell_length_c 31.126436
_cell_angle_alpha 90.000000
_cell_angle_beta 156.470822
_cell_angle_gamma 90.000000
_cell_volume 2068.432745
_symmetry_space_group_name_H-M "C 2/C"
_symmetry_group_IT_number 15
_symmetry_cell_setting 'monoclinic'
loop_
_space_group_symop_operation_xyz
x,y,z
-x,y,1/2-z
-x,-y,-z
x,-y,1/2+z
1/2+x,1/2+y,z
1/2-x,1/2+y,1/2-z
1/2-x,1/2-y,-z
1/2+x,1/2-y,1/2+z
loop_
_atom_site_type_symbol
_atom_site_label
_atom_site_fract_x
_atom_site_fract_y
_atom_site_fract_z
Si Si1 0.737134 0.519704 0.706842
Si Si2 0.948204 0.886777 0.183077
Si Si3 0.842494 0.799225 0.828904
Si Si4 0.864356 0.081357 0.922025
Si Si5 0.431618 0.234870 0.498533
O O1 0.786521 0.405143 0.720631
O O2 0.565196 0.543915 0.688194
O O3 0.584610 0.556019 0.609555
O O4 0.033562 0.572751 0.812718
O O5 0.628513 0.857606 0.062537
O O6 0.000000 0.923208 0.250000
O O7 0.124875 0.786318 0.242955
O O8 0.956567 0.784311 0.917765
O O9 0.111068 0.790790 0.893529
O O10 0.959056 0.187056 0.970547
O O11 0.000000 0.000000 0.000000
#
# Coordination Sequence:
#
# PCOD9272863 Si02
#       5
#     8   8   8   8   8
#     4  11  23  37  61  89 118 155 198 250 293 344
#     4  10  22  39  59  87 120 157 200 240 292 359
#     4  10  20  38  59  86 119 154 198 237 292 355
#     4  11  21  37  61  89 116 150 202 248 288 345
#     4  10  20  37  61  82 118 160 189 241 298 351
#
# _framework density 19.338311999999998
#
# number of rings (size 3 to 8) (size 9 to 14) (size 15 to 20)
#    0.000    1.600    4.000    1.200    5.600    1.600 
#    0.000    2.000    0.000    0.000    0.000    0.000 
#    0.000    0.000    0.000    0.000    0.000    0.000 
#
# Total GULP energy -111736.552115 kJ/mol
# GULP energy per Si atom -5586.827606 kJ/mol
# Density = 1.929430 g / cm^3
# Si number density = 19.338312 Si / 1000 Ang^3
#
#
#
# Elastic Constant Matrix: (Units=GPa)
#
#
# Indices 1 2 3 4 5 6 
#
# 1 104.9580 4.5745 14.5943 0.0002 -12.6533 0.0000
# 2 4.5745 30.9809 -7.1469 -0.0013 -16.6059 -0.0001
# 3 14.5943 -7.1469 49.5684 -0.0040 -6.8103 -0.0003
# 4 0.0002 -0.0013 -0.0040 16.1814 0.0009 1.0901
# 5 -12.6533 -16.6059 -6.8103 0.0009 31.0731 0.0005
# 6 0.0000 -0.0001 -0.0003 1.0901 0.0005 22.9632
#
#
#
# Elastic Compliance Matrix: (Units=1/GPa)
#
#
# Indices 1 2 3 4 5 6 
#
# 1 0.010321 -0.000244 -0.002592 -0.000001 0.003505 0.000000
# 2 -0.000244 0.050802 0.011458 0.000005 0.029561 0.000000
# 3 -0.002592 0.011458 0.024009 0.000006 0.010330 0.000000
# 4 -0.000001 0.000005 0.000006 0.061998 0.000002 -0.002943
# 5 0.003505 0.029561 0.010330 0.000002 0.051671 -0.000001
# 6 0.000000 0.000000 0.000000 -0.002943 -0.000001 0.043688
#
#
# Mechanical properties :
#
#
# Convention : Reuss Voigt Hill
#
# Bulk Modulus (GPa) = 9.76792 23.28344 16.52568
# Shear Modulus (GPa) = 19.27749 25.60924 22.44336
#
# Velocity S-wave (km/s) = 3.16073 3.64301 3.41040
# Velocity P-wave (km/s) = 4.28746 5.45541 4.90631
#
# Compressibility (1/GPa) = 0.10237596
#
# Stress axis : x y z
#
# Youngs Moduli (GPa) = 96.88785 19.68422 41.65160
#
# Poissons Ratio (x) = 0.00479 0.10798
# Poissons Ratio (y) = 0.02360 -0.47724
# Poissons Ratio (z) = 0.25118 -0.22554
#
# Static dielectric constant tensor:
#      x y z
#    x 1.680110 0.000000 0.013690 
#    y 0.000000 1.646920 0.000000 
#    z 0.013690 0.000000 1.681250 
# 
# From -- ./inp_files/225290.got.cif
#   From: 2010.05.17/outbox.cif.g08.bks.cpg/sg15_113_cif.got.tgz:225290.got - 2010.06.03 18:47:42.
