data_PCOD9272870
_publ_section_title
;
Structure prediction by ZEFSAII (Michael W. Deem and Ramdas Pophale) SiO2 
 PCOD9272870
Probable space group: C 2/C
;
_chemical_formula_sum "Si O2"
_cell_formula_units_Z 40
_cell_length_a 10.189634
_cell_length_b 9.767154
_cell_length_c 21.309542
_cell_angle_alpha 90.000000
_cell_angle_beta 60.580635
_cell_angle_gamma 90.000000
_cell_volume 1847.322612
_symmetry_space_group_name_H-M "C 2/C"
_symmetry_group_IT_number 15
_symmetry_cell_setting 'monoclinic'
loop_
_space_group_symop_operation_xyz
x,y,z
-x,y,1/2-z
-x,-y,-z
x,-y,1/2+z
1/2+x,1/2+y,z
1/2-x,1/2+y,1/2-z
1/2-x,1/2-y,-z
1/2+x,1/2-y,1/2+z
loop_
_atom_site_type_symbol
_atom_site_label
_atom_site_fract_x
_atom_site_fract_y
_atom_site_fract_z
Si Si1 0.588056 0.159043 0.577649
Si Si2 0.377873 0.234702 0.728445
Si Si3 0.857325 0.364213 0.944439
Si Si4 0.148375 0.192676 0.889118
Si Si5 0.628355 0.390633 0.891093
O O1 0.636789 0.020522 0.532046
O O2 0.464700 0.127114 0.662309
O O3 0.731010 0.215644 0.583124
O O4 0.497696 0.276645 0.561524
O O5 0.500000 0.285424 0.750000
O O6 0.242425 0.182537 0.802197
O O7 0.339557 0.354456 0.688749
O O8 0.782081 0.378228 0.893596
O O9 0.024542 0.307308 0.909752
O O10 0.750000 0.250000 0.000000
O O11 0.072106 0.043962 0.915117
#
# Coordination Sequence:
#
# PCOD9272870 Si02
#       5
#     8   8   8   8   8
#     4   8  20  39  57  82 117 148 188 239 290 337
#     4   8  17  37  60  83 116 144 187 241 297 344
#     4  11  24  39  57  86 120 157 198 234 279 343
#     4  10  20  37  61  84 116 153 187 239 296 346
#     4   9  21  39  57  90 114 150 195 234 295 340
#
# _framework density 21.65296
#
# number of rings (size 3 to 8) (size 9 to 14) (size 15 to 20)
#    1.200    1.600    0.000    0.000    2.800    6.400 
#    3.600    2.000    0.000    0.000    0.000    0.000 
#    0.000    0.000    0.000    0.000    0.000    0.000 
#
# Total GULP energy -111431.276709 kJ/mol
# GULP energy per Si atom -5571.563835 kJ/mol
# Density = 2.160368 g / cm^3
# Si number density = 21.652960 Si / 1000 Ang^3
#
#
#
# Elastic Constant Matrix: (Units=GPa)
#
#
# Indices 1 2 3 4 5 6 
#
# 1 74.5515 66.9854 7.4936 0.0000 -4.9814 0.0000
# 2 66.9854 129.0595 5.3278 0.0000 -3.5553 0.0000
# 3 7.4936 5.3278 52.8572 0.0000 -12.9866 0.0000
# 4 0.0000 0.0000 0.0000 26.4190 0.0000 -5.0676
# 5 -4.9814 -3.5553 -12.9866 0.0000 34.9085 0.0000
# 6 0.0000 0.0000 0.0000 -5.0676 0.0000 36.3427
#
#
#
# Elastic Compliance Matrix: (Units=1/GPa)
#
#
# Indices 1 2 3 4 5 6 
#
# 1 0.025487 -0.013106 -0.001900 0.000000 0.001595 0.000000
# 2 -0.013106 0.014530 0.000328 0.000000 -0.000269 0.000000
# 3 -0.001900 0.000328 0.021018 0.000000 0.007581 0.000000
# 4 0.000000 0.000000 0.000000 0.038892 0.000000 0.005423
# 5 0.001595 -0.000269 0.007581 0.000000 0.031667 0.000000
# 6 0.000000 0.000000 0.000000 0.005423 0.000000 0.028272
#
#
# Mechanical properties :
#
#
# Convention : Reuss Voigt Hill
#
# Bulk Modulus (GPa) = 31.56859 46.23132 38.89996
# Shear Modulus (GPa) = 25.02720 31.31147 28.16933
#
# Velocity S-wave (km/s) = 3.40344 3.80683 3.61078
# Velocity P-wave (km/s) = 5.48229 6.38123 5.94876
#
# Compressibility (1/GPa) = 0.03167705
#
# Stress axis : x y z
#
# Youngs Moduli (GPa) = 39.23545 68.82370 47.57840
#
# Poissons Ratio (x) = 0.90201 0.09042
# Poissons Ratio (y) = 0.51422 -0.01558
# Poissons Ratio (z) = 0.07456 -0.02254
#
# Static dielectric constant tensor:
#      x y z
#    x 1.756190 0.000000 -0.005420 
#    y 0.000000 1.808420 0.000000 
#    z -0.005420 0.000000 1.876650 
# 
# From -- ./inp_files/287304.got.cif
#   From: 2010.05.17/outbox.cif.g08.bks.cpg/sg15_144_cif.got.tgz:287304.got - 2010.06.03 18:47:42.
