data_PCOD9272640
_publ_section_title
;
Structure prediction by ZEFSAII (Michael W. Deem and Ramdas Pophale) SiO2 
 PCOD9272640
Probable space group: C 2/C
;
_chemical_formula_sum "Si O2"
_cell_formula_units_Z 48
_cell_length_a 23.561774
_cell_length_b 10.464883
_cell_length_c 13.192500
_cell_angle_alpha 90.000000
_cell_angle_beta 43.049899
_cell_angle_gamma 90.000000
_cell_volume 2220.537144
_symmetry_space_group_name_H-M "C 2/C"
_symmetry_group_IT_number 15
_symmetry_cell_setting 'monoclinic'
loop_
_space_group_symop_operation_xyz
x,y,z
-x,y,1/2-z
-x,-y,-z
x,-y,1/2+z
1/2+x,1/2+y,z
1/2-x,1/2+y,1/2-z
1/2-x,1/2-y,-z
1/2+x,1/2-y,1/2+z
loop_
_atom_site_type_symbol
_atom_site_label
_atom_site_fract_x
_atom_site_fract_y
_atom_site_fract_z
Si Si1 0.002529 0.652608 0.990369
Si Si2 0.414547 0.277508 0.921922
Si Si3 0.283326 0.541168 0.651931
Si Si4 0.884898 0.319403 0.810946
Si Si5 0.848849 0.610019 0.837330
Si Si6 0.773094 0.238399 0.128482
O O1 0.936873 0.693885 0.990475
O O2 0.092832 0.677244 0.824439
O O3 0.969496 0.710277 0.139131
O O4 0.000000 0.500000 0.000000
O O5 0.500000 0.294720 0.750000
O O6 0.351304 0.201983 0.930672
O O7 0.375461 0.408214 0.011601
O O8 0.234458 0.568520 0.610617
O O9 0.242683 0.633917 0.787724
O O10 0.278886 0.392578 0.683765
O O11 0.886616 0.473307 0.823036
O O12 0.808033 0.283046 0.836706
O O13 0.855718 0.254591 0.952611
#
# Coordination Sequence:
#
# PCOD9272640 Si02
#       6
#     8   8   8   8   8   8
#     4   9  17  34  58  89 122 154 197 253 306 358
#     4  10  20  37  59  85 119 163 196 251 305 363
#     4  11  22  40  58  89 122 160 205 253 304 369
#     4   9  18  36  56  87 120 158 199 253 307 356
#     4   9  20  33  60  91 120 157 202 248 304 364
#     4  10  22  36  61  86 119 164 202 251 308 355
#
# _framework density 21.616391
#
# number of rings (size 3 to 8) (size 9 to 14) (size 15 to 20)
#    0.000    2.333    1.667    0.500    2.333    0.000 
#    3.000    2.500    0.000    4.000    0.000    0.000 
#    0.000    0.000    0.000    0.000    0.000    0.000 
#
# Total GULP energy -133843.837290 kJ/mol
# GULP energy per Si atom -5576.826554 kJ/mol
# Density = 2.156719 g / cm^3
# Si number density = 21.616391 Si / 1000 Ang^3
#
#
#
# Elastic Constant Matrix: (Units=GPa)
#
#
# Indices 1 2 3 4 5 6 
#
# 1 23.4104 14.6996 13.0647 0.0000 -2.8934 0.0000
# 2 14.6996 102.6415 48.9461 0.0000 17.3107 0.0000
# 3 13.0647 48.9461 107.5849 0.0000 14.6279 0.0000
# 4 0.0000 0.0000 0.0000 33.9603 0.0000 3.2698
# 5 -2.8934 17.3107 14.6279 0.0000 16.2941 0.0000
# 6 0.0000 0.0000 0.0000 3.2698 0.0000 24.6768
#
#
#
# Elastic Compliance Matrix: (Units=1/GPa)
#
#
# Indices 1 2 3 4 5 6 
#
# 1 0.054845 -0.009263 -0.005818 0.000000 0.024804 0.000000
# 2 -0.009263 0.015370 -0.003900 0.000000 -0.014473 0.000000
# 3 -0.005818 -0.003900 0.012931 0.000000 -0.008499 0.000000
# 4 0.000000 0.000000 0.000000 0.029827 0.000000 -0.003952
# 5 0.024804 -0.014473 -0.008499 0.000000 0.088782 0.000000
# 6 0.000000 0.000000 0.000000 -0.003952 0.000000 0.041048
#
#
# Mechanical properties :
#
#
# Convention : Reuss Voigt Hill
#
# Bulk Modulus (GPa) = 22.13190 43.00640 32.56915
# Shear Modulus (GPa) = 16.90180 25.44800 21.17490
#
# Velocity S-wave (km/s) = 2.79928 3.43484 3.13321
# Velocity P-wave (km/s) = 4.55067 5.97238 5.30933
#
# Compressibility (1/GPa) = 0.04518366
#
# Stress axis : x y z
#
# Youngs Moduli (GPa) = 18.23313 65.06271 77.33115
#
# Poissons Ratio (x) = 0.60268 0.44994
# Poissons Ratio (y) = 0.16890 0.30158
# Poissons Ratio (z) = 0.10609 0.25374
#
# Static dielectric constant tensor:
#      x y z
#    x 1.832460 0.000000 0.014280 
#    y 0.000000 1.748570 0.000000 
#    z 0.014280 0.000000 1.846500 
# 
# From -- ./inp_files/176890.got.cif
#   From: 2010.05.17/outbox.cif.g08.bks.cpg/sg15_89_cif.got.tgz:176890.got - 2010.06.03 18:47:42.
