data_PCOD9272398
_publ_section_title
;
Structure prediction by ZEFSAII (Michael W. Deem and Ramdas Pophale) SiO2 
 PCOD9272398
Probable space group: C 2/C
;
_chemical_formula_sum "Si O2"
_cell_formula_units_Z 52
_cell_length_a 12.041231
_cell_length_b 24.333183
_cell_length_c 16.318927
_cell_angle_alpha 90.000000
_cell_angle_beta 37.557200
_cell_angle_gamma 90.000000
_cell_volume 2914.559943
_symmetry_space_group_name_H-M "C 2/C"
_symmetry_group_IT_number 15
_symmetry_cell_setting 'monoclinic'
loop_
_space_group_symop_operation_xyz
x,y,z
-x,y,1/2-z
-x,-y,-z
x,-y,1/2+z
1/2+x,1/2+y,z
1/2-x,1/2+y,1/2-z
1/2-x,1/2-y,-z
1/2+x,1/2-y,1/2+z
loop_
_atom_site_type_symbol
_atom_site_label
_atom_site_fract_x
_atom_site_fract_y
_atom_site_fract_z
Si Si1 0.599982 0.073632 0.105979
Si Si2 0.500000 0.116731 0.750000
Si Si3 0.979948 0.903463 0.665201
Si Si4 0.084644 0.617907 0.429617
Si Si5 0.895120 0.461093 0.173711
Si Si6 0.019002 0.978327 0.139879
Si Si7 0.766610 0.313701 0.510255
O O1 0.500000 0.087334 0.250000
O O2 0.564280 0.118972 0.055523
O O3 0.503976 0.017011 0.129915
O O4 0.815453 0.060166 0.986655
O O5 0.614248 0.076364 0.740268
O O6 0.600928 0.156633 0.629714
O O7 0.766630 0.900309 0.774954
O O8 0.000000 0.913293 0.750000
O O9 0.079285 0.845629 0.598541
O O10 0.065244 0.959494 0.581444
O O11 0.155033 0.668728 0.445488
O O12 0.012064 0.572339 0.536859
O O13 0.687497 0.468533 0.267898
O O14 0.000000 0.974033 0.250000
O O15 0.750000 0.250000 0.500000
#
# Coordination Sequence:
#
# PCOD9272398 Si02
#       7
#     8   4   8   8   8   8   8
#     4  12  23  33  52  88 124 163 205 241 292 361
#     4  10  22  36  54  88 122 146 196 262 294 362
#     4   9  18  31  53  82 109 150 194 231 291 358
#     4  10  20  37  55  79 121 157 194 250 296 362
#     4  11  20  37  55  83 127 165 200 241 294 367
#     4  11  20  34  60  81 121 176 200 229 299 368
#     4  10  22  37  60  83 114 150 200 256 317 351
#
# _framework density 17.841457999999999
#
# number of rings (size 3 to 8) (size 9 to 14) (size 15 to 20)
#    0.000    1.538    3.846    4.154    3.231    1.846 
#    0.000    0.000    0.000    0.000    0.000    5.385 
#    0.000    0.154    0.000    0.000    0.000    0.000 
#
# Total GULP energy -144740.975413 kJ/mol
# GULP energy per Si atom -5566.960593 kJ/mol
# Density = 1.780085 g / cm^3
# Si number density = 17.841458 Si / 1000 Ang^3
#
#
#
# Elastic Constant Matrix: (Units=GPa)
#
#
# Indices 1 2 3 4 5 6 
#
# 1 81.5223 38.1882 20.8684 -0.0001 -8.2291 0.0001
# 2 38.1882 87.4802 17.3923 0.0002 -1.2828 0.0000
# 3 20.8684 17.3923 71.8785 -0.0013 -3.9804 0.0010
# 4 -0.0001 0.0002 -0.0013 19.5389 0.0003 -7.7862
# 5 -8.2291 -1.2828 -3.9804 0.0003 37.6007 -0.0002
# 6 0.0001 0.0000 0.0010 -7.7862 -0.0002 28.7621
#
#
#
# Elastic Compliance Matrix: (Units=1/GPa)
#
#
# Indices 1 2 3 4 5 6 
#
# 1 0.016397 -0.006514 -0.003016 0.000000 0.003047 0.000000
# 2 -0.006514 0.014597 -0.001702 0.000000 -0.001108 0.000000
# 3 -0.003016 -0.001702 0.015249 0.000001 0.000896 0.000000
# 4 0.000000 0.000000 0.000001 0.057369 0.000000 0.015530
# 5 0.003047 -0.001108 0.000896 0.000000 0.027319 0.000000
# 6 0.000000 0.000000 0.000000 0.015530 0.000000 0.038972
#
#
# Mechanical properties :
#
#
# Convention : Reuss Voigt Hill
#
# Bulk Modulus (GPa) = 42.05174 43.75320 42.90247
# Shear Modulus (GPa) = 24.96331 28.14249 26.55290
#
# Velocity S-wave (km/s) = 3.74461 3.97591 3.86199
# Velocity P-wave (km/s) = 6.50515 6.75676 6.63215
#
# Compressibility (1/GPa) = 0.02378023
#
# Stress axis : x y z
#
# Youngs Moduli (GPa) = 60.98494 68.50802 65.57615
#
# Poissons Ratio (x) = 0.44625 0.19776
# Poissons Ratio (y) = 0.39724 0.11162
# Poissons Ratio (z) = 0.18392 0.11661
#
# Static dielectric constant tensor:
#      x y z
#    x 1.802710 -0.000010 0.051000 
#    y -0.000010 1.614860 0.000000 
#    z 0.051000 0.000000 1.547840 
# 
# From -- ./inp_files/148055.got.cif
#   From: 2010.05.17/outbox.cif.g08.bks.cpg/sg15_75_cif.got.tgz:148055.got - 2010.06.03 18:47:42.
