data_PCOD9272373
_publ_section_title
;
Structure prediction by ZEFSAII (Michael W. Deem and Ramdas Pophale) SiO2 
 PCOD9272373
Probable space group: C 2/C
;
_chemical_formula_sum "Si O2"
_cell_formula_units_Z 64
_cell_length_a 15.586470
_cell_length_b 22.878406
_cell_length_c 17.268633
_cell_angle_alpha 90.000000
_cell_angle_beta 149.536587
_cell_angle_gamma 90.000000
_cell_volume 3121.973535
_symmetry_space_group_name_H-M "C 2/C"
_symmetry_group_IT_number 15
_symmetry_cell_setting 'monoclinic'
loop_
_space_group_symop_operation_xyz
x,y,z
-x,y,1/2-z
-x,-y,-z
x,-y,1/2+z
1/2+x,1/2+y,z
1/2-x,1/2+y,1/2-z
1/2-x,1/2-y,-z
1/2+x,1/2-y,1/2+z
loop_
_atom_site_type_symbol
_atom_site_label
_atom_site_fract_x
_atom_site_fract_y
_atom_site_fract_z
Si Si1 0.488233 0.399483 0.330845
Si Si2 0.271497 0.431169 0.405615
Si Si3 0.029462 0.264500 0.165544
Si Si4 0.842477 0.438172 0.681746
Si Si5 0.752479 0.821274 0.475740
Si Si6 0.423392 0.935116 0.924726
Si Si7 0.589477 0.533077 0.236397
Si Si8 0.795964 0.349942 0.296392
O O1 0.500000 0.383695 0.250000
O O2 0.669959 0.411632 0.511649
O O3 0.392618 0.462814 0.257545
O O4 0.375578 0.352942 0.288644
O O5 0.173039 0.491278 0.332354
O O6 0.229024 0.388920 0.443560
O O7 0.466204 0.447955 0.570708
O O8 0.240534 0.390873 0.307358
O O9 0.149569 0.286763 0.328212
O O10 0.135303 0.285979 0.174241
O O11 0.857100 0.303340 0.035501
O O12 0.946297 0.200795 0.116200
O O13 0.867061 0.426677 0.791859
O O14 0.000000 0.420634 0.750000
O O15 0.263580 0.934143 0.858059
O O16 0.557616 0.885108 0.046523
O O17 0.500000 0.000000 0.000000
O O18 0.500000 0.543102 0.250000
#
# Coordination Sequence:
#
# PCOD9272373 Si02
#       8
#     8   8   8   8   8   8   8   8
#     4  10  20  37  54  76 114 150 193 236 285 343
#     4  10  21  33  54  75 110 149 195 227 290 343
#     4   9  20  35  55  77 107 147 187 242 288 330
#     4  11  23  34  57  81 118 158 197 240 288 338
#     4   9  19  36  53  78 110 142 192 240 285 338
#     4  12  22  34  50  79 115 149 197 242 274 345
#     4  10  22  34  49  76 112 153 192 237 284 332
#     4  11  21  34  57  78 110 152 195 233 293 347
#
# _framework density 20.499853999999999
#
# number of rings (size 3 to 8) (size 9 to 14) (size 15 to 20)
#    0.000    1.750    2.500    1.500    8.750    3.000 
#    2.250    0.000    0.000    0.000    0.000    3.500 
#    0.000    2.000    0.000    0.750    0.000    0.000 
#
# Total GULP energy -178435.315108 kJ/mol
# GULP energy per Si atom -5576.103597 kJ/mol
# Density = 2.045320 g / cm^3
# Si number density = 20.499854 Si / 1000 Ang^3
#
#
#
# Elastic Constant Matrix: (Units=GPa)
#
#
# Indices 1 2 3 4 5 6 
#
# 1 114.6484 17.4642 42.7425 0.0000 9.3041 -0.0001
# 2 17.4642 21.1560 7.2124 0.0000 0.9104 -0.0001
# 3 42.7425 7.2124 78.4690 0.0002 2.6640 -0.0003
# 4 0.0000 0.0000 0.0002 4.7957 0.0001 12.6533
# 5 9.3041 0.9104 2.6640 0.0001 32.3308 -0.0001
# 6 -0.0001 -0.0001 -0.0003 12.6533 -0.0001 7.0107
#
#
#
# Elastic Compliance Matrix: (Units=1/GPa)
#
#
# Indices 1 2 3 4 5 6 
#
# 1 0.012388 -0.008090 -0.005908 0.000000 -0.002851 0.000000
# 2 -0.008090 0.054112 -0.000596 0.000000 0.000854 0.000000
# 3 -0.005908 -0.000596 0.016003 0.000001 0.000398 0.000000
# 4 0.000000 0.000000 0.000001 -0.055427 0.000001 0.100038
# 5 -0.002851 0.000854 0.000398 0.000001 0.031694 0.000000
# 6 0.000000 0.000000 0.000000 0.100038 0.000000 -0.037915
#
#
# Mechanical properties :
#
#
# Convention : Reuss Voigt Hill
#
# Bulk Modulus (GPa) = 18.75584 38.79016 28.77300
# Shear Modulus (GPa) = 73.72996 18.61774 46.17385
#
# Velocity S-wave (km/s) = 6.00368 3.01689 4.75109
# Velocity P-wave (km/s) = 7.56492 5.57662 6.64555
#
# Compressibility (1/GPa) = 0.05331672
#
# Stress axis : x y z
#
# Youngs Moduli (GPa) = 80.72043 18.48003 62.48792
#
# Poissons Ratio (x) = 0.14950 0.36916
# Poissons Ratio (y) = 0.65302 0.03725
# Poissons Ratio (z) = 0.47687 0.01102
#
# Static dielectric constant tensor:
#      x y z
#    x 1.795840 0.000000 0.002080 
#    y 0.000000 1.759840 0.000000 
#    z 0.002080 0.000000 1.784800 
# 
# From -- ./inp_files/207368.got.cif
#   From: 2010.05.17/outbox.cif.g08.bks.cpg/sg15_104_cif.got.tgz:207368.got - 2010.06.03 18:47:42.
