data_PCOD9272924
_publ_section_title
;
Structure prediction by ZEFSAII (Michael W. Deem and Ramdas Pophale) SiO2 
 PCOD9272924
Probable space group: C 2/C
;
_chemical_formula_sum "Si O2"
_cell_formula_units_Z 56
_cell_length_a 14.310777
_cell_length_b 9.500003
_cell_length_c 24.435601
_cell_angle_alpha 90.000000
_cell_angle_beta 122.491731
_cell_angle_gamma 90.000000
_cell_volume 2802.070756
_symmetry_space_group_name_H-M "C 2/C"
_symmetry_group_IT_number 15
_symmetry_cell_setting 'monoclinic'
loop_
_space_group_symop_operation_xyz
x,y,z
-x,y,1/2-z
-x,-y,-z
x,-y,1/2+z
1/2+x,1/2+y,z
1/2-x,1/2+y,1/2-z
1/2-x,1/2-y,-z
1/2+x,1/2-y,1/2+z
loop_
_atom_site_type_symbol
_atom_site_label
_atom_site_fract_x
_atom_site_fract_y
_atom_site_fract_z
Si Si1 0.616413 0.648190 0.848811
Si Si2 0.000000 0.390504 0.750000
Si Si3 0.149627 0.488869 0.702442
Si Si4 0.638154 0.311735 0.692533
Si Si5 0.899067 0.019792 0.425717
Si Si6 0.535225 0.244192 0.096917
Si Si7 0.182749 0.256865 0.034526
Si Si8 0.500000 0.401682 0.750000
O O1 0.535370 0.680846 0.875658
O O2 0.743969 0.640071 0.906153
O O3 0.582775 0.508474 0.806861
O O4 0.591718 0.783003 0.803009
O O5 0.943028 0.480088 0.779124
O O6 0.258158 0.411218 0.759848
O O7 0.171782 0.649979 0.693951
O O8 0.097930 0.391565 0.638634
O O9 0.581736 0.379449 0.620760
O O10 0.559704 0.317550 0.720861
O O11 0.879762 0.863493 0.397149
O O12 0.811252 0.105326 0.433856
O O13 0.000000 0.000000 0.500000
O O14 0.443470 0.210397 0.021496
O O15 0.250000 0.250000 0.000000
#
# Coordination Sequence:
#
# PCOD9272924 Si02
#       8
#     8   4   8   8   8   8   8   4
#     4   9  17  32  61  92 120 163 208 255 319 376
#     4   9  19  36  60  90 130 162 208 262 318 384
#     4  11  24  39  63  94 126 166 215 268 324 387
#     4  12  25  40  64  93 128 169 213 268 331 382
#     4  10  20  37  61  89 125 167 210 257 313 377
#     4   9  18  38  58  91 126 163 211 259 310 384
#     4   9  18  32  61  95 122 166 214 255 309 384
#     4  11  23  38  62  90 134 156 214 272 322 378
#
# _framework density 19.985220000000002
#
# number of rings (size 3 to 8) (size 9 to 14) (size 15 to 20)
#    0.000    2.000    1.429    2.143    6.000    0.000 
#    0.000    4.286    3.143    0.857    0.000    0.000 
#    0.000    0.000    0.000    0.000    0.000    0.000 
#
# Total GULP energy -156153.809392 kJ/mol
# GULP energy per Si atom -5576.921764 kJ/mol
# Density = 1.993973 g / cm^3
# Si number density = 19.985220 Si / 1000 Ang^3
#
#
#
# Elastic Constant Matrix: (Units=GPa)
#
#
# Indices 1 2 3 4 5 6 
#
# 1 61.1704 33.2930 28.5981 0.0000 -15.1249 0.0000
# 2 33.2930 139.5048 61.0189 0.0000 -0.3084 0.0000
# 3 28.5981 61.0189 120.4851 0.0000 2.2070 0.0000
# 4 0.0000 0.0000 0.0000 17.1301 0.0000 -5.8881
# 5 -15.1249 -0.3084 2.2070 0.0000 21.3028 0.0000
# 6 0.0000 0.0000 0.0000 -5.8881 0.0000 26.5047
#
#
#
# Elastic Compliance Matrix: (Units=1/GPa)
#
#
# Indices 1 2 3 4 5 6 
#
# 1 0.025026 -0.004096 -0.004198 0.000000 0.018144 0.000000
# 2 -0.004096 0.009886 -0.003992 0.000000 -0.002352 0.000000
# 3 -0.004198 -0.003992 0.011395 0.000000 -0.004219 0.000000
# 4 0.000000 0.000000 0.000000 0.063203 0.000000 0.014041
# 5 0.018144 -0.002352 -0.004219 0.000000 0.060227 0.000000
# 6 0.000000 0.000000 0.000000 0.014041 0.000000 0.040848
#
#
# Mechanical properties :
#
#
# Convention : Reuss Voigt Hill
#
# Bulk Modulus (GPa) = 46.00664 62.99781 54.50223
# Shear Modulus (GPa) = 20.62677 26.20420 23.41549
#
# Velocity S-wave (km/s) = 3.21612 3.62495 3.42664
# Velocity P-wave (km/s) = 6.07137 7.00792 6.55639
#
# Compressibility (1/GPa) = 0.02173599
#
# Stress axis : x y z
#
# Youngs Moduli (GPa) = 39.95822 101.14809 87.75766
#
# Poissons Ratio (x) = 0.41432 0.36841
# Poissons Ratio (y) = 0.16368 0.35029
# Poissons Ratio (z) = 0.16774 0.40374
#
# Static dielectric constant tensor:
#      x y z
#    x 1.787120 0.000000 -0.020110 
#    y 0.000000 1.693010 0.000000 
#    z -0.020110 0.000000 1.751570 
# 
# From -- ./inp_files/242830.got.cif
#   From: 2010.05.17/outbox.cif.g08.bks.cpg/sg15_122_cif.got.tgz:242830.got - 2010.06.03 18:47:42.
