data_PCOD9272146
_publ_section_title
;
Structure prediction by ZEFSAII (Michael W. Deem and Ramdas Pophale) SiO2 
 PCOD9272146
Probable space group: C 2/C
;
_chemical_formula_sum "Si O2"
_cell_formula_units_Z 48
_cell_length_a 7.690589
_cell_length_b 31.215850
_cell_length_c 16.108094
_cell_angle_alpha 90.000000
_cell_angle_beta 143.747755
_cell_angle_gamma 90.000000
_cell_volume 2286.741615
_symmetry_space_group_name_H-M "C 2/C"
_symmetry_group_IT_number 15
_symmetry_cell_setting 'monoclinic'
loop_
_space_group_symop_operation_xyz
x,y,z
-x,y,1/2-z
-x,-y,-z
x,-y,1/2+z
1/2+x,1/2+y,z
1/2-x,1/2+y,1/2-z
1/2-x,1/2-y,-z
1/2+x,1/2-y,1/2+z
loop_
_atom_site_type_symbol
_atom_site_label
_atom_site_fract_x
_atom_site_fract_y
_atom_site_fract_z
Si Si1 0.818688 0.401275 0.595256
Si Si2 0.447766 0.251062 0.329177
Si Si3 0.152118 0.586164 0.895239
Si Si4 0.176891 0.667633 0.132286
Si Si5 0.818157 0.332071 0.334407
Si Si6 0.668073 0.994954 0.901944
O O1 0.482987 0.400362 0.498249
O O2 0.867273 0.448120 0.571760
O O3 0.000000 0.397622 0.750000
O O4 0.938473 0.364245 0.581543
O O5 0.500000 0.247896 0.250000
O O6 0.278794 0.208997 0.293130
O O7 0.261098 0.295140 0.262997
O O8 0.750000 0.250000 0.500000
O O9 0.116102 0.540264 0.928016
O O10 0.000000 0.576813 0.750000
O O11 0.978066 0.625586 0.865577
O O12 0.500000 0.646506 0.250000
O O13 0.034276 0.683470 0.991120
O O14 0.500000 0.343246 0.250000
O O15 0.500000 0.991003 0.750000
O O16 0.000000 0.000000 0.000000
#
# Coordination Sequence:
#
# PCOD9272146 Si02
#       6
#     8   8   8   8   8   8
#     4  10  20  39  63  89 126 167 212 259 313 383
#     4  11  23  46  70  90 125 171 215 268 328 387
#     4  10  20  36  64  93 120 166 218 259 315 379
#     4  12  25  42  62  94 128 167 213 270 327 384
#     4  11  23  42  63  91 131 164 210 272 326 387
#     4   8  16  32  57  89 121 159 210 260 303 374
#
# _framework density 20.990566000000001
#
# number of rings (size 3 to 8) (size 9 to 14) (size 15 to 20)
#    0.000    1.667    3.333    2.500    0.000    1.333 
#    0.000    1.667    0.000    0.000    0.000    0.000 
#    0.000    0.000    0.000    0.000    0.000    0.000 
#
# Total GULP energy -133693.063511 kJ/mol
# GULP energy per Si atom -5570.544313 kJ/mol
# Density = 2.094279 g / cm^3
# Si number density = 20.990566 Si / 1000 Ang^3
#
#
#
# Elastic Constant Matrix: (Units=GPa)
#
#
# Indices 1 2 3 4 5 6 
#
# 1 33.2720 40.3276 9.4590 0.0000 10.1609 0.0000
# 2 40.3276 180.0965 3.8463 0.0000 9.1530 0.0000
# 3 9.4590 3.8463 124.3336 0.0000 15.2263 0.0000
# 4 0.0000 0.0000 0.0000 24.4252 0.0000 10.3639
# 5 10.1609 9.1530 15.2263 0.0000 32.0531 0.0000
# 6 0.0000 0.0000 0.0000 10.3639 0.0000 35.5666
#
#
#
# Elastic Compliance Matrix: (Units=1/GPa)
#
#
# Indices 1 2 3 4 5 6 
#
# 1 0.045522 -0.009605 -0.001842 0.000000 -0.010813 0.000000
# 2 -0.009605 0.007661 0.000413 0.000000 0.000661 0.000000
# 3 -0.001842 0.000413 0.008614 0.000000 -0.003626 0.000000
# 4 0.000000 0.000000 0.000000 0.046718 0.000000 -0.013613
# 5 -0.010813 0.000661 -0.003626 0.000000 0.036160 0.000000
# 6 0.000000 0.000000 0.000000 -0.013613 0.000000 0.032083
#
#
# Mechanical properties :
#
#
# Convention : Reuss Voigt Hill
#
# Bulk Modulus (GPa) = 25.16982 49.44087 37.30534
# Shear Modulus (GPa) = 23.57725 37.34693 30.46209
#
# Velocity S-wave (km/s) = 3.35510 4.22266 3.81363
# Velocity P-wave (km/s) = 5.19865 6.88328 6.09940
#
# Compressibility (1/GPa) = 0.03973013
#
# Stress axis : x y z
#
# Youngs Moduli (GPa) = 21.96718 130.53375 116.08612
#
# Poissons Ratio (x) = 1.25372 0.21382
# Poissons Ratio (y) = 0.21099 -0.04791
# Poissons Ratio (z) = 0.04046 -0.05388
#
# Static dielectric constant tensor:
#      x y z
#    x 1.756510 0.000000 -0.016680 
#    y 0.000000 1.933880 0.000000 
#    z -0.016680 0.000000 1.748480 
# 
# From -- ./inp_files/194336.got.cif
#   From: 2010.05.17/outbox.cif.g08.bks.cpg/sg15_98_cif.got.tgz:194336.got - 2010.06.03 18:47:42.
