data_PCOD9272286
_publ_section_title
;
Structure prediction by ZEFSAII (Michael W. Deem and Ramdas Pophale) SiO2 
 PCOD9272286
Probable space group: C 2/C
;
_chemical_formula_sum "Si O2"
_cell_formula_units_Z 56
_cell_length_a 14.056958
_cell_length_b 7.812730
_cell_length_c 20.288591
_cell_angle_alpha 90.000000
_cell_angle_beta 89.386784
_cell_angle_gamma 90.000000
_cell_volume 2228.030729
_symmetry_space_group_name_H-M "C 2/C"
_symmetry_group_IT_number 15
_symmetry_cell_setting 'monoclinic'
loop_
_space_group_symop_operation_xyz
x,y,z
-x,y,1/2-z
-x,-y,-z
x,-y,1/2+z
1/2+x,1/2+y,z
1/2-x,1/2+y,1/2-z
1/2-x,1/2-y,-z
1/2+x,1/2-y,1/2+z
loop_
_atom_site_type_symbol
_atom_site_label
_atom_site_fract_x
_atom_site_fract_y
_atom_site_fract_z
Si Si1 0.859087 0.257906 0.786451
Si Si2 0.640127 0.207438 0.484700
Si Si3 0.811226 0.369617 0.281388
Si Si4 0.121778 0.886748 0.614358
Si Si5 0.712265 0.134271 0.942473
Si Si6 0.963800 0.687176 0.146622
Si Si7 0.058092 0.289639 0.340179
O O1 0.817876 0.439654 0.808055
O O2 0.778413 0.127822 0.767042
O O3 0.906826 0.292729 0.715005
O O4 0.938199 0.215306 0.839354
O O5 0.750000 0.250000 0.500000
O O6 0.589801 0.297175 0.545724
O O7 0.593568 0.257162 0.415223
O O8 0.642983 0.003391 0.478364
O O9 0.810919 0.237387 0.341260
O O10 0.897081 0.313948 0.232669
O O11 0.019788 0.859786 0.652912
O O12 0.198019 0.033719 0.591416
O O13 0.647536 0.230013 0.889145
O O14 0.750000 0.250000 0.000000
O O15 0.982584 0.481456 0.142173
#
# Coordination Sequence:
#
# PCOD9272286 Si02
#       7
#     8   8   8   8   8   8   8
#     4  10  20  36  67  88 132 169 220 281 338 409
#     4   9  19  37  65  95 124 167 229 278 324 400
#     4  11  21  39  65  99 127 174 220 270 346 404
#     4  11  21  39  68  94 129 176 226 281 325 409
#     4  10  23  42  62  94 137 170 217 275 351 406
#     4   9  18  38  62  94 124 174 225 272 341 411
#     4  10  21  40  64  93 128 175 224 271 338 416
#
# _framework density 25.134302999999999
#
# number of rings (size 3 to 8) (size 9 to 14) (size 15 to 20)
#    0.000    2.000    1.429    3.857    0.000    4.000 
#    2.571    0.000   18.857    1.714    0.000    0.000 
#    0.000    0.000    0.000    0.000    0.000    0.000 
#
# Total GULP energy -156323.377629 kJ/mol
# GULP energy per Si atom -5582.977772 kJ/mol
# Density = 2.507710 g / cm^3
# Si number density = 25.134303 Si / 1000 Ang^3
#
#
#
# Elastic Constant Matrix: (Units=GPa)
#
#
# Indices 1 2 3 4 5 6 
#
# 1 112.6433 33.4319 22.0010 0.0000 32.6159 0.0000
# 2 33.4319 58.3886 21.6728 0.0000 6.9204 0.0000
# 3 22.0010 21.6728 107.6111 0.0000 44.3672 0.0000
# 4 0.0000 0.0000 0.0000 40.3750 0.0000 -2.3544
# 5 32.6159 6.9204 44.3672 0.0000 54.6424 0.0000
# 6 0.0000 0.0000 0.0000 -2.3544 0.0000 34.9790
#
#
#
# Elastic Compliance Matrix: (Units=1/GPa)
#
#
# Indices 1 2 3 4 5 6 
#
# 1 0.013183 -0.007410 0.002487 0.000000 -0.008950 0.000000
# 2 -0.007410 0.022714 -0.005558 0.000000 0.006059 0.000000
# 3 0.002487 -0.005558 0.015371 0.000000 -0.013261 0.000000
# 4 0.000000 0.000000 0.000000 0.024865 0.000000 0.001674
# 5 -0.008950 0.006059 -0.013261 0.000000 0.033643 0.000000
# 6 0.000000 0.000000 0.000000 0.001674 0.000000 0.028701
#
#
# Mechanical properties :
#
#
# Convention : Reuss Voigt Hill
#
# Bulk Modulus (GPa) = 32.99687 48.09493 40.54590
# Shear Modulus (GPa) = 29.49123 39.43510 34.46316
#
# Velocity S-wave (km/s) = 3.42913 3.96533 3.70694
# Velocity P-wave (km/s) = 5.36985 6.33576 5.87270
#
# Compressibility (1/GPa) = 0.03030591
#
# Stress axis : x y z
#
# Youngs Moduli (GPa) = 75.85803 44.02479 65.05711
#
# Poissons Ratio (x) = 0.32624 -0.16181
# Poissons Ratio (y) = 0.56214 0.36157
# Poissons Ratio (z) = -0.18867 0.24468
#
# Static dielectric constant tensor:
#      x y z
#    x 2.070020 0.000000 -0.031610 
#    y 0.000000 2.081340 0.000000 
#    z -0.031610 0.000000 2.000920 
# 
# From -- ./inp_files/242769.got.cif
#   From: 2010.05.17/outbox.cif.g08.bks.cpg/sg15_122_cif.got.tgz:242769.got - 2010.06.03 18:47:42.
