data_PCOD9272694
_publ_section_title
;
Structure prediction by ZEFSAII (Michael W. Deem and Ramdas Pophale) SiO2 
 PCOD9272694
Probable space group: C 2/C
;
_chemical_formula_sum "Si O2"
_cell_formula_units_Z 64
_cell_length_a 14.439031
_cell_length_b 26.136663
_cell_length_c 14.081706
_cell_angle_alpha 90.000000
_cell_angle_beta 36.766224
_cell_angle_gamma 90.000000
_cell_volume 3180.862933
_symmetry_space_group_name_H-M "C 2/C"
_symmetry_group_IT_number 15
_symmetry_cell_setting 'monoclinic'
loop_
_space_group_symop_operation_xyz
x,y,z
-x,y,1/2-z
-x,-y,-z
x,-y,1/2+z
1/2+x,1/2+y,z
1/2-x,1/2+y,1/2-z
1/2-x,1/2-y,-z
1/2+x,1/2-y,1/2+z
loop_
_atom_site_type_symbol
_atom_site_label
_atom_site_fract_x
_atom_site_fract_y
_atom_site_fract_z
Si Si1 0.388803 0.973417 0.671072
Si Si2 0.155800 0.061672 0.208757
Si Si3 0.242632 0.821532 0.584261
Si Si4 0.374704 0.309241 0.622185
Si Si5 0.939561 0.302109 0.077803
Si Si6 0.561993 0.862146 0.802909
Si Si7 0.288165 0.545866 0.536622
Si Si8 0.310387 0.341340 0.078844
O O1 0.250323 0.949393 0.723715
O O2 0.451148 0.923436 0.674198
O O3 0.500000 0.000000 0.500000
O O4 0.307695 0.010905 0.813409
O O5 0.180219 0.120611 0.156393
O O6 0.977687 0.046879 0.375832
O O7 0.239004 0.032964 0.051785
O O8 0.169723 0.792775 0.733330
O O9 0.423228 0.813910 0.458849
O O10 0.194358 0.809797 0.516510
O O11 0.436398 0.254759 0.535436
O O12 0.232363 0.336748 0.685972
O O13 0.518334 0.346796 0.519614
O O14 0.786399 0.315521 0.259901
O O15 0.962515 0.339632 0.970843
O O16 0.500000 0.847610 0.750000
O O17 0.244711 0.603588 0.602739
#
# Coordination Sequence:
#
# PCOD9272694 Si02
#       8
#     8   8   8   8   8   8   8   8
#     4  12  24  40  67  94 127 166 214 268 327 386
#     4  10  20  41  60  88 131 166 205 255 315 382
#     4  10  20  37  59  92 138 172 194 256 328 385
#     4  11  22  40  65  90 126 173 216 264 326 385
#     4  11  23  39  61  96 126 165 219 268 322 388
#     4  11  26  48  65  87 129 170 216 281 335 374
#     4  10  22  36  64  93 124 175 210 249 315 396
#     4  11  20  36  62  96 135 166 213 255 317 398
#
# _framework density 20.120325999999999
#
# number of rings (size 3 to 8) (size 9 to 14) (size 15 to 20)
#    0.000    1.250    3.750    3.375    1.750    3.500 
#    0.000    0.625    0.000    0.000    0.000    0.000 
#    0.000    0.000    0.000    0.000    0.000    0.000 
#
# Total GULP energy -178294.464414 kJ/mol
# GULP energy per Si atom -5571.702013 kJ/mol
# Density = 2.007453 g / cm^3
# Si number density = 20.120326 Si / 1000 Ang^3
#
#
#
# Elastic Constant Matrix: (Units=GPa)
#
#
# Indices 1 2 3 4 5 6 
#
# 1 101.3708 19.6718 35.6672 0.8969 13.8097 16.7276
# 2 19.6718 91.9940 37.1791 0.0379 5.0938 0.7064
# 3 35.6672 37.1791 92.8196 0.2096 -0.4957 3.9086
# 4 0.8969 0.0379 0.2096 -650.7253 -0.4998**********
# 5 13.8097 5.0938 -0.4957 -0.4998 25.8964 -9.3213
# 6 16.7276 0.7064 3.9086********** -9.3213**********
#
#
#
# Elastic Compliance Matrix: (Units=1/GPa)
#
#
# Indices 1 2 3 4 5 6 
#
# 1 0.012498 -0.000415 -0.004672 0.000000 -0.006672 0.000001
# 2 -0.000415 0.013168 -0.005128 0.000000 -0.002467 0.000000
# 3 -0.004672 -0.005128 0.014643 0.000000 0.003780 0.000000
# 4 0.000000 0.000000 0.000000 0.030847 0.000000 -0.001654
# 5 -0.006672 -0.002467 0.003780 0.000000 0.042730 -0.000002
# 6 0.000001 0.000000 0.000000 -0.001654 -0.000002 0.000084
#
#
# Mechanical properties :
#
#
# Convention : Reuss Voigt Hill
#
# Bulk Modulus (GPa) = 50.30454 52.35785 51.33119
# Shear Modulus (GPa) = 35.45402 -47634.51661 -23799.53130
#
# Velocity S-wave (km/s) = 4.20229 -154.03318 -108.87736
# Velocity P-wave (km/s) = 6.97150 177.78886 125.61902
#
# Compressibility (1/GPa) = 0.01987892
#
# Stress axis : x y z
#
# Youngs Moduli (GPa) = 80.01347 75.94059 68.29108
#
# Poissons Ratio (x) = 0.03151 0.31905
# Poissons Ratio (y) = 0.03320 0.35022
# Poissons Ratio (z) = 0.37382 0.38945
#
# Static dielectric constant tensor:
#      x y z
#    x 1.721070 0.000000 -0.029540 
#    y 0.000000 1.797080 0.000000 
#    z -0.029540 0.000000 1.785140 
# 
# From -- ./inp_files/101329.got.cif
#   From: 2010.05.17/outbox.cif.g08.bks.cpg/sg15_51_cif.got.tgz:101329.got - 2010.06.03 18:47:42.
