data_PCOD9272625
_publ_section_title
;
Structure prediction by ZEFSAII (Michael W. Deem and Ramdas Pophale) SiO2 
 PCOD9272625
Probable space group: C 2/C
;
_chemical_formula_sum "Si O2"
_cell_formula_units_Z 52
_cell_length_a 11.350497
_cell_length_b 27.734132
_cell_length_c 12.894380
_cell_angle_alpha 90.000000
_cell_angle_beta 38.052474
_cell_angle_gamma 90.000000
_cell_volume 2501.960861
_symmetry_space_group_name_H-M "C 2/C"
_symmetry_group_IT_number 15
_symmetry_cell_setting 'monoclinic'
loop_
_space_group_symop_operation_xyz
x,y,z
-x,y,1/2-z
-x,-y,-z
x,-y,1/2+z
1/2+x,1/2+y,z
1/2-x,1/2+y,1/2-z
1/2-x,1/2-y,-z
1/2+x,1/2-y,1/2+z
loop_
_atom_site_type_symbol
_atom_site_label
_atom_site_fract_x
_atom_site_fract_y
_atom_site_fract_z
Si Si1 0.350712 0.179208 0.766972
Si Si2 0.300049 0.373626 0.706336
Si Si3 0.902003 0.472108 0.420685
Si Si4 0.200793 0.417480 0.568856
Si Si5 0.500000 0.422719 0.750000
Si Si6 0.479267 0.281206 0.638648
Si Si7 0.111978 0.403865 0.414635
O O1 0.500000 0.163171 0.750000
O O2 0.441944 0.224945 0.644432
O O3 0.314702 0.134073 0.719216
O O4 0.171515 0.201310 0.950825
O O5 0.329963 0.401660 0.576243
O O6 0.460598 0.391527 0.675496
O O7 0.320531 0.316049 0.697897
O O8 0.096261 0.387718 0.897509
O O9 0.850234 0.526696 0.421710
O O10 0.695509 0.451662 0.595514
O O11 0.000000 0.450471 0.250000
O O12 0.058477 0.455864 0.399853
O O13 0.248133 0.401205 0.420294
O O14 0.000000 0.395821 0.750000
O O15 0.500000 0.286259 0.750000
#
# Coordination Sequence:
#
# PCOD9272625 Si02
#       7
#     8   8   8   8   4   8   8
#     4  11  22  35  59  91 115 153 196 248 302 359
#     4  10  20  37  59  83 119 154 197 245 300 353
#     4  10  21  37  61  85 119 157 204 253 304 354
#     4   9  20  39  59  83 114 161 201 244 295 359
#     4  10  22  36  58  88 116 156 200 254 300 358
#     4  11  21  37  59  87 122 149 194 249 302 357
#     4  10  20  37  60  84 117 154 201 243 302 355
#
# _framework density 20.783698999999999
#
# number of rings (size 3 to 8) (size 9 to 14) (size 15 to 20)
#    0.000    1.846    0.769    4.615    4.308    1.846 
#    2.769    0.769    0.000    0.000    0.000    0.000 
#    0.000    0.000    0.000    0.000    0.000    0.000 
#
# Total GULP energy -144790.172366 kJ/mol
# GULP energy per Si atom -5568.852783 kJ/mol
# Density = 2.073639 g / cm^3
# Si number density = 20.783699 Si / 1000 Ang^3
#
#
#
# Elastic Constant Matrix: (Units=GPa)
#
#
# Indices 1 2 3 4 5 6 
#
# 1 106.1919 29.3375 18.3465 0.0000 37.1343 0.0000
# 2 29.3375 87.1122 23.1645 0.0000 35.2896 0.0000
# 3 18.3465 23.1645 82.4634 0.0000 9.5876 0.0000
# 4 0.0000 0.0000 0.0000 34.0137 0.0000 11.6121
# 5 37.1343 35.2896 9.5876 0.0000 26.4261 0.0000
# 6 0.0000 0.0000 0.0000 11.6121 0.0000 17.9239
#
#
#
# Elastic Compliance Matrix: (Units=1/GPa)
#
#
# Indices 1 2 3 4 5 6 
#
# 1 0.023579 0.012753 -0.003128 0.000000 -0.049029 0.000000
# 2 0.012753 0.032786 -0.005088 0.000000 -0.059857 0.000000
# 3 -0.003128 -0.005088 0.013521 0.000000 0.006284 0.000000
# 4 0.000000 0.000000 0.000000 0.037749 0.000000 -0.024456
# 5 -0.049029 -0.059857 0.006284 0.000000 0.184392 0.000000
# 6 0.000000 0.000000 0.000000 -0.024456 0.000000 0.071635
#
#
# Mechanical properties :
#
#
# Convention : Reuss Voigt Hill
#
# Bulk Modulus (GPa) = 12.66451 46.38493 29.52472
# Shear Modulus (GPa) = 13.12651 29.33401 21.23026
#
# Velocity S-wave (km/s) = 2.51585 3.76093 3.19954
# Velocity P-wave (km/s) = 3.81392 6.42074 5.28071
#
# Compressibility (1/GPa) = 0.07896081
#
# Stress axis : x y z
#
# Youngs Moduli (GPa) = 42.41029 30.50074 73.95878
#
# Poissons Ratio (x) = -0.38897 0.23133
# Poissons Ratio (y) = -0.54085 0.37628
# Poissons Ratio (z) = 0.13265 0.15518
#
# Static dielectric constant tensor:
#      x y z
#    x 1.805040 0.000000 0.009070 
#    y 0.000000 1.850780 0.000000 
#    z 0.009070 0.000000 1.768490 
# 
# From -- ./inp_files/92565.got.cif
#   From: 2010.05.17/outbox.cif.g08.bks.cpg/sg15_47_cif.got.tgz:92565.got - 2010.06.03 18:47:42.
