data_PCOD9272151
_publ_section_title
;
Structure prediction by ZEFSAII (Michael W. Deem and Ramdas Pophale) SiO2 
 PCOD9272151
Probable space group: C 2/C
;
_chemical_formula_sum "Si O2"
_cell_formula_units_Z 56
_cell_length_a 14.275355
_cell_length_b 10.776170
_cell_length_c 18.586797
_cell_angle_alpha 90.000000
_cell_angle_beta 56.628285
_cell_angle_gamma 90.000000
_cell_volume 2387.836241
_symmetry_space_group_name_H-M "C 2/C"
_symmetry_group_IT_number 15
_symmetry_cell_setting 'monoclinic'
loop_
_space_group_symop_operation_xyz
x,y,z
-x,y,1/2-z
-x,-y,-z
x,-y,1/2+z
1/2+x,1/2+y,z
1/2-x,1/2+y,1/2-z
1/2-x,1/2-y,-z
1/2+x,1/2-y,1/2+z
loop_
_atom_site_type_symbol
_atom_site_label
_atom_site_fract_x
_atom_site_fract_y
_atom_site_fract_z
Si Si1 0.500000 0.747924 0.750000
Si Si2 0.953770 0.435674 0.639524
Si Si3 0.758603 0.212667 0.846489
Si Si4 0.815951 0.977132 0.588481
Si Si5 0.525676 0.428300 0.590307
Si Si6 0.187055 0.354014 0.226911
Si Si7 0.497125 0.840986 0.469570
Si Si8 0.000000 0.830675 0.750000
O O1 0.491846 0.839060 0.683846
O O2 0.385143 0.670233 0.808664
O O3 0.856684 0.517593 0.718093
O O4 0.030873 0.549870 0.575771
O O5 0.937258 0.363949 0.570967
O O6 0.752858 0.351504 0.879686
O O7 0.755228 0.211873 0.761078
O O8 0.635591 0.156586 0.920451
O O9 0.887928 0.983470 0.486282
O O10 0.746066 0.100663 0.630089
O O11 0.902162 0.974307 0.619746
O O12 0.531130 0.292406 0.550645
O O13 0.545083 0.410940 0.665397
O O14 0.090349 0.259959 0.247306
#
# Coordination Sequence:
#
# PCOD9272151 Si02
#       8
#     4   8   8   8   8   8   8   4
#     4  12  23  36  69  94 124 174 223 260 313 392
#     4  10  20  36  64  94 123 174 213 264 322 390
#     4  10  22  41  62  96 131 172 211 276 318 382
#     4  10  21  40  64  92 129 178 203 263 335 392
#     4  10  22  39  67  92 133 170 217 267 332 391
#     4  11  22  39  70  96 132 164 219 270 331 377
#     4   9  20  40  61  92 135 171 211 269 332 383
#     4  12  21  42  69 104 122 164 219 286 311 392
#
# _framework density 23.452193999999999
#
# number of rings (size 3 to 8) (size 9 to 14) (size 15 to 20)
#    0.000    1.714    5.714    0.429    2.000    1.143 
#    0.000    0.714    6.286    0.000    0.000    0.000 
#    0.000    0.000    0.000    0.000    0.000    0.000 
#
# Total GULP energy -156247.006455 kJ/mol
# GULP energy per Si atom -5580.250231 kJ/mol
# Density = 2.339882 g / cm^3
# Si number density = 23.452194 Si / 1000 Ang^3
#
#
#
# Elastic Constant Matrix: (Units=GPa)
#
#
# Indices 1 2 3 4 5 6 
#
# 1 68.7760 30.1406 34.3576 0.0000 -4.0343 0.0000
# 2 30.1406 71.0495 16.5863 0.0000 8.4522 0.0000
# 3 34.3576 16.5863 95.5475 0.0000 10.7265 0.0000
# 4 0.0000 0.0000 0.0000 25.4843 0.0000 -17.0646
# 5 -4.0343 8.4522 10.7265 0.0000 30.7948 0.0000
# 6 0.0000 0.0000 0.0000 -17.0646 0.0000-1636.8387
#
#
#
# Elastic Compliance Matrix: (Units=1/GPa)
#
#
# Indices 1 2 3 4 5 6 
#
# 1 0.022607 -0.008790 -0.007500 0.000000 0.007987 0.000000
# 2 -0.008790 0.018409 0.000688 0.000000 -0.006444 0.000000
# 3 -0.007500 0.000688 0.013711 0.000000 -0.005947 0.000000
# 4 0.000000 0.000000 0.000000 0.038968 0.000000 -0.000406
# 5 0.007987 -0.006444 -0.005947 0.000000 0.037360 0.000000
# 6 0.000000 0.000000 0.000000 -0.000406 0.000000 -0.000607
#
#
# Mechanical properties :
#
#
# Convention : Reuss Voigt Hill
#
# Bulk Modulus (GPa) = 42.50808 44.17135 43.33971
# Shear Modulus (GPa) = 29.49986 -305.82602 -138.16308
#
# Velocity S-wave (km/s) = 3.55050 -11.43185 -7.68378
# Velocity P-wave (km/s) = 5.91378 12.46491 7.75890
#
# Compressibility (1/GPa) = 0.02352494
#
# Stress axis : x y z
#
# Youngs Moduli (GPa) = 44.23386 54.32036 72.93373
#
# Poissons Ratio (x) = 0.47745 0.54700
# Poissons Ratio (y) = 0.38880 -0.05020
# Poissons Ratio (z) = 0.33175 -0.03739
#
# Static dielectric constant tensor:
#      x y z
#    x 1.917670 0.000000 0.040210 
#    y 0.000000 1.870320 0.000000 
#    z 0.040210 0.000000 2.276210 
# 
# From -- ./inp_files/204393.got.cif
#   From: 2010.05.17/outbox.cif.g08.bks.cpg/sg15_103_cif.got.tgz:204393.got - 2010.06.03 18:47:42.
