data_PCOD9272443
_publ_section_title
;
Structure prediction by ZEFSAII (Michael W. Deem and Ramdas Pophale) SiO2 
 PCOD9272443
Probable space group: C 2/C
;
_chemical_formula_sum "Si O2"
_cell_formula_units_Z 40
_cell_length_a 21.683595
_cell_length_b 9.584300
_cell_length_c 9.520424
_cell_angle_alpha 90.000000
_cell_angle_beta 128.596079
_cell_angle_gamma 90.000000
_cell_volume 1546.365173
_symmetry_space_group_name_H-M "C 2/C"
_symmetry_group_IT_number 15
_symmetry_cell_setting 'monoclinic'
loop_
_space_group_symop_operation_xyz
x,y,z
-x,y,1/2-z
-x,-y,-z
x,-y,1/2+z
1/2+x,1/2+y,z
1/2-x,1/2+y,1/2-z
1/2-x,1/2-y,-z
1/2+x,1/2-y,1/2+z
loop_
_atom_site_type_symbol
_atom_site_label
_atom_site_fract_x
_atom_site_fract_y
_atom_site_fract_z
Si Si1 0.243179 0.748651 0.156401
Si Si2 0.565765 0.273926 0.959441
Si Si3 0.568689 0.152019 0.262256
Si Si4 0.239070 0.592773 0.544415
Si Si5 0.864105 0.071025 0.500082
O O1 0.306404 0.638117 0.302820
O O2 0.256971 0.879659 0.282287
O O3 0.250000 0.750000 0.000000
O O4 0.152351 0.710255 0.055350
O O5 0.500000 0.251096 0.750000
O O6 0.541749 0.206442 0.072645
O O7 0.584490 0.441945 0.983959
O O8 0.500000 0.077404 0.250000
O O9 0.649226 0.061922 0.372938
O O10 0.587987 0.295475 0.374618
O O11 0.250000 0.750000 0.500000
O O12 0.309562 0.522856 0.555542
#
# Coordination Sequence:
#
# PCOD9272443 Si02
#       5
#     8   8   8   8   8
#     4  10  21  38  56  84 122 164 209 248 308 371
#     4  12  25  36  59 102 130 152 204 273 319 356
#     4  10  20  37  56  84 125 164 198 250 318 369
#     4   8  16  39  56  69 117 173 207 224 303 393
#     4  10  21  39  57  77 129 171 202 242 315 384
#
# _framework density 25.867111999999999
#
# number of rings (size 3 to 8) (size 9 to 14) (size 15 to 20)
#    0.000    2.400    6.000    0.600    8.400    1.600 
#    0.000    0.000    0.000    0.000    0.000   21.000 
#    0.000    0.000    0.000    0.000    0.000    0.000 
#
# Total GULP energy -111778.736540 kJ/mol
# GULP energy per Si atom -5588.936827 kJ/mol
# Density = 2.580824 g / cm^3
# Si number density = 25.867112 Si / 1000 Ang^3
#
#
#
# Elastic Constant Matrix: (Units=GPa)
#
#
# Indices 1 2 3 4 5 6 
#
# 1 111.7254 -38.2998 52.3801 0.0000 -2.0684 0.0000
# 2 -38.2998 61.7130 18.9600 0.0000 -5.4641 0.0000
# 3 52.3801 18.9600 242.4307 0.0000 -9.5212 0.0000
# 4 0.0000 0.0000 0.0000 20.0707 0.0000 -1.6778
# 5 -2.0684 -5.4641 -9.5212 0.0000 62.4103 0.0000
# 6 0.0000 0.0000 0.0000 -1.6778 0.0000 15.7569
#
#
#
# Elastic Compliance Matrix: (Units=1/GPa)
#
#
# Indices 1 2 3 4 5 6 
#
# 1 0.014208 0.010061 -0.003826 0.000000 0.000768 0.000000
# 2 0.010061 0.023827 -0.003966 0.000000 0.001814 0.000000
# 3 -0.003826 -0.003966 0.005275 0.000000 0.000331 0.000000
# 4 0.000000 0.000000 0.000000 0.050271 0.000000 0.005353
# 5 0.000768 0.001814 0.000331 0.000000 0.016258 0.000000
# 6 0.000000 0.000000 0.000000 0.005353 0.000000 0.064034
#
#
# Mechanical properties :
#
#
# Convention : Reuss Voigt Hill
#
# Bulk Modulus (GPa) = 20.90011 53.54998 37.22505
# Shear Modulus (GPa) = 26.98552 45.16950 36.07751
#
# Velocity S-wave (km/s) = 3.23342 4.18331 3.73865
# Velocity P-wave (km/s) = 4.69440 6.63930 5.74968
#
# Compressibility (1/GPa) = 0.04784663
#
# Stress axis : x y z
#
# Youngs Moduli (GPa) = 70.38483 41.96899 189.58087
#
# Poissons Ratio (x) = -0.42225 0.72542
# Poissons Ratio (y) = -0.70814 0.75188
# Poissons Ratio (z) = 0.26932 0.16645
#
# Static dielectric constant tensor:
#      x y z
#    x 2.059460 0.000000 -0.011350 
#    y 0.000000 2.246440 0.000000 
#    z -0.011350 0.000000 2.079930 
# 
# From -- ./inp_files/54676.got.cif
#   From: 2010.05.17/outbox.cif.g08.bks.cpg/sg15_28_cif.got.tgz:54676.got - 2010.06.03 18:47:42.
