data_PCOD9272499
_publ_section_title
;
Structure prediction by ZEFSAII (Michael W. Deem and Ramdas Pophale) SiO2 
 PCOD9272499
Probable space group: C 2/C
;
_chemical_formula_sum "Si O2"
_cell_formula_units_Z 56
_cell_length_a 11.945780
_cell_length_b 23.691539
_cell_length_c 12.337293
_cell_angle_alpha 90.000000
_cell_angle_beta 55.523018
_cell_angle_gamma 90.000000
_cell_volume 2878.334349
_symmetry_space_group_name_H-M "C 2/C"
_symmetry_group_IT_number 15
_symmetry_cell_setting 'monoclinic'
loop_
_space_group_symop_operation_xyz
x,y,z
-x,y,1/2-z
-x,-y,-z
x,-y,1/2+z
1/2+x,1/2+y,z
1/2-x,1/2+y,1/2-z
1/2-x,1/2-y,-z
1/2+x,1/2-y,1/2+z
loop_
_atom_site_type_symbol
_atom_site_label
_atom_site_fract_x
_atom_site_fract_y
_atom_site_fract_z
Si Si1 0.247673 0.298508 0.774892
Si Si2 0.735805 0.900158 0.413875
Si Si3 0.500000 0.742206 0.250000
Si Si4 0.843909 0.395179 0.805382
Si Si5 0.865125 0.501574 0.650744
Si Si6 0.658074 0.279311 0.147819
Si Si7 0.477993 0.838773 0.439808
Si Si8 0.000000 0.424636 0.250000
O O1 0.369567 0.294779 0.792583
O O2 0.252456 0.343598 0.675399
O O3 0.225014 0.239904 0.724907
O O4 0.118177 0.319660 0.911606
O O5 0.706191 0.918403 0.552747
O O6 0.748715 0.959526 0.343746
O O7 0.838031 0.847271 0.363516
O O8 0.607540 0.868595 0.425226
O O9 0.490015 0.783125 0.359141
O O10 0.838083 0.439122 0.709372
O O11 0.000000 0.378656 0.750000
O O12 0.899964 0.535501 0.740471
O O13 0.000000 0.500000 0.500000
O O14 0.500000 0.260758 0.250000
O O15 0.750000 0.250000 0.000000
O O16 0.429046 0.885171 0.378794
#
# Coordination Sequence:
#
# PCOD9272499 Si02
#       8
#     8   8   4   8   8   8   8   4
#     4  12  23  37  61  87 128 168 219 267 330 406
#     4  11  21  38  62  97 130 159 222 274 346 394
#     4  11  24  38  52  84 126 166 219 252 338 382
#     4  12  20  34  62  94 123 168 216 283 330 397
#     4  11  19  33  59  93 129 164 214 280 337 390
#     4  12  25  43  71 102 136 178 223 283 342 407
#     4  10  20  37  57  86 123 168 204 269 323 404
#     4   9  18  32  54  86 122 150 207 264 342 370
#
# _framework density 19.455697000000001
#
# number of rings (size 3 to 8) (size 9 to 14) (size 15 to 20)
#    0.000    0.857    6.429    2.571    0.000    0.000 
#    0.000    0.000    1.571    0.857    0.000    0.000 
#    0.000    0.000    0.000    0.000    0.000    0.000 
#
# Total GULP energy -155872.313706 kJ/mol
# GULP energy per Si atom -5566.868347 kJ/mol
# Density = 1.941141 g / cm^3
# Si number density = 19.455697 Si / 1000 Ang^3
#
#
#
# Elastic Constant Matrix: (Units=GPa)
#
#
# Indices 1 2 3 4 5 6 
#
# 1 71.3951 10.4367 18.0346 0.0000 2.6987 0.0000
# 2 10.4367 92.3184 17.6436 0.0000 0.6732 0.0000
# 3 18.0346 17.6436 75.0854 0.0000 15.7800 0.0000
# 4 0.0000 0.0000 0.0000 -1.1439 0.0000 -5.1051
# 5 2.6987 0.6732 15.7800 0.0000 24.8988 0.0000
# 6 0.0000 0.0000 0.0000 -5.1051 0.0000 24.0399
#
#
#
# Elastic Compliance Matrix: (Units=1/GPa)
#
#
# Indices 1 2 3 4 5 6 
#
# 1 0.015017 -0.001035 -0.003493 0.000000 0.000614 0.000000
# 2 -0.001035 0.011468 -0.002774 0.000000 0.001560 0.000000
# 3 -0.003493 -0.002774 0.016975 0.000000 -0.010304 0.000000
# 4 0.000000 0.000000 0.000000 -0.448819 0.000000 -0.095312
# 5 0.000614 0.001560 -0.010304 0.000000 0.046584 0.000000
# 6 0.000000 0.000000 0.000000 -0.095312 0.000000 0.021357
#
#
# Mechanical properties :
#
#
# Convention : Reuss Voigt Hill
#
# Bulk Modulus (GPa) = 34.65459 36.78098 35.71779
# Shear Modulus (GPa) = -15.96441 22.40455 3.22007
#
# Velocity S-wave (km/s) = -2.86764 3.39716 1.28789
# Velocity P-wave (km/s) = 2.62417 5.85949 4.53982
#
# Compressibility (1/GPa) = 0.02885620
#
# Stress axis : x y z
#
# Youngs Moduli (GPa) = 66.59172 87.20039 58.91183
#
# Poissons Ratio (x) = 0.09022 0.20577
# Poissons Ratio (y) = 0.06890 0.16343
# Poissons Ratio (z) = 0.23259 0.24190
#
# Static dielectric constant tensor:
#      x y z
#    x 1.718400 0.000000 -0.000640 
#    y 0.000000 1.806860 0.000000 
#    z -0.000640 0.000000 1.713970 
# 
# From -- ./inp_files/90727.got.cif
#   From: 2010.05.17/outbox.cif.g08.bks.cpg/sg15_46_cif.got.tgz:90727.got - 2010.06.03 18:47:42.
