data_PCOD9272689
_publ_section_title
;
Structure prediction by ZEFSAII (Michael W. Deem and Ramdas Pophale) SiO2 
 PCOD9272689
Probable space group: C 2/C
;
_chemical_formula_sum "Si O2"
_cell_formula_units_Z 64
_cell_length_a 19.293922
_cell_length_b 20.677422
_cell_length_c 24.454303
_cell_angle_alpha 90.000000
_cell_angle_beta 18.101942
_cell_angle_gamma 90.000000
_cell_volume 3031.276397
_symmetry_space_group_name_H-M "C 2/C"
_symmetry_group_IT_number 15
_symmetry_cell_setting 'monoclinic'
loop_
_space_group_symop_operation_xyz
x,y,z
-x,y,1/2-z
-x,-y,-z
x,-y,1/2+z
1/2+x,1/2+y,z
1/2-x,1/2+y,1/2-z
1/2-x,1/2-y,-z
1/2+x,1/2-y,1/2+z
loop_
_atom_site_type_symbol
_atom_site_label
_atom_site_fract_x
_atom_site_fract_y
_atom_site_fract_z
Si Si1 0.647001 0.784513 0.739608
Si Si2 0.040725 0.176399 0.131931
Si Si3 0.367329 0.820862 0.479812
Si Si4 0.280667 0.589567 0.698558
Si Si5 0.114991 0.867172 0.859629
Si Si6 0.070438 0.848275 0.070726
Si Si7 0.253268 0.385334 0.452891
Si Si8 0.517405 0.967717 0.926578
O O1 0.814097 0.799470 0.665114
O O2 0.770241 0.812456 0.593368
O O3 0.566034 0.711024 0.799266
O O4 0.430834 0.829055 0.912493
O O5 0.804236 0.177797 0.340785
O O6 0.033356 0.136609 0.082355
O O7 0.087542 0.248600 0.075157
O O8 0.225695 0.150940 0.035153
O O9 0.593590 0.857430 0.323805
O O10 0.482377 0.594369 0.504999
O O11 0.391353 0.607562 0.673562
O O12 0.160325 0.521311 0.787719
O O13 0.336995 0.903629 0.675390
O O14 0.211039 0.891026 0.008169
O O15 0.500000 0.366010 0.250000
O O16 0.178064 0.443484 0.468324
O O17 0.500000 0.000000 0.000000
#
# Coordination Sequence:
#
# PCOD9272689 Si02
#       8
#     8   8   8   8   8   8   8   8
#     4  10  22  38  64  99 133 164 204 249 321 382
#     4  10  20  37  59  91 125 160 205 252 321 368
#     4  10  21  36  60  90 126 162 200 261 308 382
#     4  11  23  41  63  90 124 164 215 255 317 371
#     4  10  22  40  65  90 123 165 209 261 313 382
#     4  11  22  39  64  96 131 168 201 256 312 386
#     4  11  23  41  63  90 123 164 207 259 309 370
#     4  11  24  44  64  87 120 163 213 265 308 366
#
# _framework density 21.113219000000001
#
# number of rings (size 3 to 8) (size 9 to 14) (size 15 to 20)
#    0.000    1.500    0.000    4.875    0.000    6.500 
#    6.750    1.250    5.500    0.000    0.000    0.000 
#    0.000    0.000    0.000    0.000    0.000    0.000 
#
# Total GULP energy -178524.310485 kJ/mol
# GULP energy per Si atom -5578.884703 kJ/mol
# Density = 2.106516 g / cm^3
# Si number density = 21.113219 Si / 1000 Ang^3
#
#
#
# Elastic Constant Matrix: (Units=GPa)
#
#
# Indices 1 2 3 4 5 6 
#
# 1 128.3051 6.3408 -4.1907 0.1871 18.2268 -0.0547
# 2 6.3408 -1.5457 -45.3992 0.3640 37.9647 -0.2131
# 3 -4.1907 -45.3992 11.1996 0.4604 36.8973 -0.0875
# 4 0.1871 0.3640 0.4604 30.7018 -0.3002 -4.2041
# 5 18.2268 37.9647 36.8973 -0.3002 -10.1201 0.0946
# 6 -0.0547 -0.2131 -0.0875 -4.2041 0.0946 13.0135
#
#
#
# Elastic Compliance Matrix: (Units=1/GPa)
#
#
# Indices 1 2 3 4 5 6 
#
# 1 0.008367 -0.003590 -0.001283 -0.000022 -0.003078 -0.000017
# 2 -0.003590 0.013811 -0.007281 0.000162 0.018794 0.000078
# 3 -0.001283 -0.007281 0.012059 0.000035 0.014337 -0.000137
# 4 -0.000022 0.000162 0.000035 0.034075 -0.000213 0.011012
# 5 -0.003078 0.018794 0.014337 -0.000213 0.018426 0.000189
# 6 -0.000017 0.000078 -0.000137 0.011012 0.000189 0.080400
#
#
# Mechanical properties :
#
#
# Convention : Reuss Voigt Hill
#
# Bulk Modulus (GPa) = 100.73477 5.71788 53.22632
# Shear Modulus (GPa) = 25.67312 18.79957 22.23634
#
# Velocity S-wave (km/s) = 3.49086 2.98722 3.24882
# Velocity P-wave (km/s) = 8.00397 3.82257 6.27198
#
# Compressibility (1/GPa) = 0.00992706
#
# Stress axis : x y z
#
# Youngs Moduli (GPa) = 119.52146 72.40515 82.92885
#
# Poissons Ratio (x) = 0.25996 0.10640
# Poissons Ratio (y) = 0.42913 0.60382
# Poissons Ratio (z) = 0.15335 0.52720
#
# Static dielectric constant tensor:
#      x y z
#    x 1.841620 -0.000020 0.009170 
#    y -0.000020 1.750920 0.000110 
#    z 0.009170 0.000110 1.774860 
# 
# From -- ./inp_files/278082.got.cif
#   From: 2010.05.17/outbox.cif.g08.bks.cpg/sg15_140_cif.got.tgz:278082.got - 2010.06.03 18:47:42.
