data_PCOD9272222
_publ_section_title
;
Structure prediction by ZEFSAII (Michael W. Deem and Ramdas Pophale) SiO2 
 PCOD9272222
Probable space group: C 2/C
;
_chemical_formula_sum "Si O2"
_cell_formula_units_Z 56
_cell_length_a 9.279825
_cell_length_b 16.062446
_cell_length_c 15.034277
_cell_angle_alpha 90.000000
_cell_angle_beta 75.980160
_cell_angle_gamma 90.000000
_cell_volume 2174.205602
_symmetry_space_group_name_H-M "C 2/C"
_symmetry_group_IT_number 15
_symmetry_cell_setting 'monoclinic'
loop_
_space_group_symop_operation_xyz
x,y,z
-x,y,1/2-z
-x,-y,-z
x,-y,1/2+z
1/2+x,1/2+y,z
1/2-x,1/2+y,1/2-z
1/2-x,1/2-y,-z
1/2+x,1/2-y,1/2+z
loop_
_atom_site_type_symbol
_atom_site_label
_atom_site_fract_x
_atom_site_fract_y
_atom_site_fract_z
Si Si1 0.609759 0.512389 0.567486
Si Si2 0.634118 0.389657 0.322779
Si Si3 0.086504 0.615544 0.824138
Si Si4 0.584291 0.208293 0.369103
Si Si5 0.129131 0.186329 0.292873
Si Si6 0.675561 0.878172 0.020998
Si Si7 0.734101 0.159191 0.047440
O O1 0.500000 0.500000 0.500000
O O2 0.485590 0.538579 0.655346
O O3 0.721748 0.435710 0.556298
O O4 0.716202 0.590012 0.528703
O O5 0.744161 0.404045 0.224226
O O6 0.549574 0.301368 0.340843
O O7 0.736425 0.377546 0.397565
O O8 0.086150 0.716862 0.819712
O O9 0.000000 0.583137 0.750000
O O10 0.987132 0.590227 0.922889
O O11 0.718233 0.182528 0.284949
O O12 0.640177 0.200933 0.463314
O O13 0.433953 0.155054 0.391087
O O14 0.156730 0.149065 0.385070
O O15 0.000000 0.152118 0.250000
O O16 0.750000 0.250000 0.000000
#
# Coordination Sequence:
#
# PCOD9272222 Si02
#       7
#     8   8   8   8   8   8   8
#     4  10  23  40  65 101 144 181 238 285 356 435
#     4   9  18  36  62  97 136 187 236 287 343 426
#     4   8  16  33  58  95 129 175 231 287 340 414
#     4  11  22  38  67  98 139 178 234 295 355 417
#     4  10  23  40  67 103 140 180 243 298 353 424
#     4  10  20  36  66 100 137 184 233 287 355 432
#     4  12  24  42  70 102 141 181 238 302 359 419
#
# _framework density 25.756533000000001
#
# number of rings (size 3 to 8) (size 9 to 14) (size 15 to 20)
#    0.000    2.000    1.429    2.571    4.000    0.571 
#    0.000    7.143    0.000    8.571    0.000    0.000 
#    0.000    0.000    0.000    0.000    0.000    0.000 
#
# Total GULP energy -156512.158698 kJ/mol
# GULP energy per Si atom -5589.719954 kJ/mol
# Density = 2.569791 g / cm^3
# Si number density = 25.756533 Si / 1000 Ang^3
#
#
#
# Elastic Constant Matrix: (Units=GPa)
#
#
# Indices 1 2 3 4 5 6 
#
# 1 140.9264 35.0166 59.0546 0.0000 -4.4122 0.0000
# 2 35.0166 43.4802 24.2782 0.0000 -19.1971 0.0000
# 3 59.0546 24.2782 144.5757 0.0000 -12.8295 0.0000
# 4 0.0000 0.0000 0.0000 15.3822 0.0000 -12.6829
# 5 -4.4122 -19.1971 -12.8295 0.0000 63.6197 0.0000
# 6 0.0000 0.0000 0.0000 -12.6829 0.0000 25.4829
#
#
#
# Elastic Compliance Matrix: (Units=1/GPa)
#
#
# Indices 1 2 3 4 5 6 
#
# 1 0.010169 -0.007410 -0.003101 0.000000 -0.002156 0.000000
# 2 -0.007410 0.034173 -0.001876 0.000000 0.009419 0.000000
# 3 -0.003101 -0.001876 0.008583 0.000000 0.000950 0.000000
# 4 0.000000 0.000000 0.000000 0.110255 0.000000 0.054874
# 5 -0.002156 0.009419 0.000950 0.000000 0.018603 0.000000
# 6 0.000000 0.000000 0.000000 0.054874 0.000000 0.066553
#
#
# Mechanical properties :
#
#
# Convention : Reuss Voigt Hill
#
# Bulk Modulus (GPa) = 35.52254 62.85346 49.18800
# Shear Modulus (GPa) = 17.69962 34.93915 26.31939
#
# Velocity S-wave (km/s) = 2.62427 3.68709 3.20011
# Velocity P-wave (km/s) = 4.79625 6.52549 5.72652
#
# Compressibility (1/GPa) = 0.02815114
#
# Stress axis : x y z
#
# Youngs Moduli (GPa) = 98.33868 29.26290 116.51479
#
# Poissons Ratio (x) = 0.21684 0.36127
# Poissons Ratio (y) = 0.72870 0.21857
# Poissons Ratio (z) = 0.30491 0.05489
#
# Static dielectric constant tensor:
#      x y z
#    x 2.021640 0.000000 0.038520 
#    y 0.000000 2.023830 0.000000 
#    z 0.038520 0.000000 2.004130 
# 
# From -- ./inp_files/190913.got.cif
#   From: 2010.05.17/outbox.cif.g08.bks.cpg/sg15_96_cif.got.tgz:190913.got - 2010.06.03 18:47:42.
