data_PCOD9272119
_publ_section_title
;
Structure prediction by ZEFSAII (Michael W. Deem and Ramdas Pophale) SiO2 
 PCOD9272119
Probable space group: C 2/C
;
_chemical_formula_sum "Si O2"
_cell_formula_units_Z 64
_cell_length_a 16.961869
_cell_length_b 18.046101
_cell_length_c 15.144605
_cell_angle_alpha 90.000000
_cell_angle_beta 38.852953
_cell_angle_gamma 90.000000
_cell_volume 2908.083091
_symmetry_space_group_name_H-M "C 2/C"
_symmetry_group_IT_number 15
_symmetry_cell_setting 'monoclinic'
loop_
_space_group_symop_operation_xyz
x,y,z
-x,y,1/2-z
-x,-y,-z
x,-y,1/2+z
1/2+x,1/2+y,z
1/2-x,1/2+y,1/2-z
1/2-x,1/2-y,-z
1/2+x,1/2-y,1/2+z
loop_
_atom_site_type_symbol
_atom_site_label
_atom_site_fract_x
_atom_site_fract_y
_atom_site_fract_z
Si Si1 0.850923 0.887251 0.360577
Si Si2 0.272769 0.960021 0.473199
Si Si3 0.400166 0.051768 0.037860
Si Si4 0.896753 0.149745 0.627522
Si Si5 0.205234 0.998227 0.348255
Si Si6 0.148062 0.807775 0.630108
Si Si7 0.695250 0.796211 0.841384
Si Si8 0.333592 0.338629 0.554026
O O1 0.826300 0.863282 0.282320
O O2 0.797917 0.834255 0.483270
O O3 0.000000 0.887977 0.250000
O O4 0.799281 0.968269 0.426735
O O5 0.386174 0.953994 0.444503
O O6 0.297372 0.971071 0.347462
O O7 0.184406 0.888151 0.559977
O O8 0.407132 0.140143 0.049697
O O9 0.273743 0.024293 0.199163
O O10 0.500000 0.000000 0.000000
O O11 0.889085 0.069220 0.588610
O O12 0.838599 0.211168 0.614793
O O13 0.027917 0.187318 0.541705
O O14 0.151463 0.073762 0.435449
O O15 0.250000 0.750000 0.500000
O O16 0.185702 0.813330 0.700537
O O17 0.000000 0.789768 0.750000
O O18 0.732597 0.805230 0.707219
#
# Coordination Sequence:
#
# PCOD9272119 Si02
#       8
#     8   8   8   8   8   8   8   8
#     4   9  18  35  61  91 116 150 202 260 316 372
#     4  10  20  39  62  93 118 161 212 266 314 381
#     4  10  22  42  59  85 126 166 212 255 317 387
#     4  11  20  36  62  90 122 157 208 254 325 367
#     4  10  20  36  64  90 116 156 210 258 322 373
#     4  11  25  44  63  93 134 172 214 267 333 391
#     4  10  24  39  60  90 125 164 210 260 319 386
#     4   9  21  37  59  87 122 154 202 263 309 383
#
# _framework density 22.007624
#
# number of rings (size 3 to 8) (size 9 to 14) (size 15 to 20)
#    0.000    2.000    1.250    1.500    3.500    2.000 
#    6.750    0.000   11.000    0.000    0.000    0.000 
#    0.000    0.000    0.000    0.000    0.000    0.000 
#
# Total GULP energy -178344.147854 kJ/mol
# GULP energy per Si atom -5573.254620 kJ/mol
# Density = 2.195753 g / cm^3
# Si number density = 22.007624 Si / 1000 Ang^3
#
#
#
# Elastic Constant Matrix: (Units=GPa)
#
#
# Indices 1 2 3 4 5 6 
#
# 1 79.0460 12.6123 19.4097 0.0000 13.8589 0.0000
# 2 12.6123 104.8459 0.2495 0.0000 -9.4533 0.0000
# 3 19.4097 0.2495 30.5441 0.0000 8.8101 0.0000
# 4 0.0000 0.0000 0.0000 14.3056 0.0000 3.8864
# 5 13.8589 -9.4533 8.8101 0.0000 34.7845 0.0000
# 6 0.0000 0.0000 0.0000 3.8864 0.0000 29.9157
#
#
#
# Elastic Compliance Matrix: (Units=1/GPa)
#
#
# Indices 1 2 3 4 5 6 
#
# 1 0.016020 -0.002339 -0.008778 0.000000 -0.004795 0.000000
# 2 -0.002339 0.010142 0.000366 0.000000 0.003595 0.000000
# 3 -0.008778 0.000366 0.040215 0.000000 -0.006589 0.000000
# 4 0.000000 0.000000 0.000000 0.072460 0.000000 -0.009413
# 5 -0.004795 0.003595 -0.006589 0.000000 0.033305 0.000000
# 6 0.000000 0.000000 0.000000 -0.009413 0.000000 0.034650
#
#
# Mechanical properties :
#
#
# Convention : Reuss Voigt Hill
#
# Bulk Modulus (GPa) = 22.28324 30.99769 26.64046
# Shear Modulus (GPa) = 20.55476 27.94545 24.25010
#
# Velocity S-wave (km/s) = 3.05943 3.56730 3.32308
# Velocity P-wave (km/s) = 4.75682 5.57522 5.18220
#
# Compressibility (1/GPa) = 0.04487679
#
# Stress axis : x y z
#
# Youngs Moduli (GPa) = 62.42140 98.59571 24.86625
#
# Poissons Ratio (x) = 0.23057 0.21828
# Poissons Ratio (y) = 0.14598 -0.00911
# Poissons Ratio (z) = 0.54794 -0.03610
#
# Static dielectric constant tensor:
#      x y z
#    x 1.860520 0.000000 -0.000190 
#    y 0.000000 1.802850 0.000000 
#    z -0.000190 0.000000 1.844440 
# 
# From -- ./inp_files/163237.got.cif
#   From: 2010.05.17/outbox.cif.g08.bks.cpg/sg15_82_cif.got.tgz:163237.got - 2010.06.03 18:47:42.
