data_PCOD9272254
_publ_section_title
;
Structure prediction by ZEFSAII (Michael W. Deem and Ramdas Pophale) SiO2 
 PCOD9272254
Probable space group: C 2/C
;
_chemical_formula_sum "Si O2"
_cell_formula_units_Z 40
_cell_length_a 17.754482
_cell_length_b 11.979271
_cell_length_c 8.813028
_cell_angle_alpha 90.000000
_cell_angle_beta 91.919361
_cell_angle_gamma 90.000000
_cell_volume 1873.353857
_symmetry_space_group_name_H-M "C 2/C"
_symmetry_group_IT_number 15
_symmetry_cell_setting 'monoclinic'
loop_
_space_group_symop_operation_xyz
x,y,z
-x,y,1/2-z
-x,-y,-z
x,-y,1/2+z
1/2+x,1/2+y,z
1/2-x,1/2+y,1/2-z
1/2-x,1/2-y,-z
1/2+x,1/2-y,1/2+z
loop_
_atom_site_type_symbol
_atom_site_label
_atom_site_fract_x
_atom_site_fract_y
_atom_site_fract_z
Si Si1 0.576128 0.856314 0.550958
Si Si2 0.164964 0.749858 0.549443
Si Si3 0.445681 0.568123 0.613662
Si Si4 0.092525 0.567590 0.374231
Si Si5 0.414832 0.670396 0.174467
O O1 0.490868 0.886547 0.592203
O O2 0.617502 0.890423 0.709793
O O3 0.585211 0.731944 0.487879
O O4 0.593102 0.936705 0.408769
O O5 0.250000 0.750000 0.500000
O O6 0.108982 0.838191 0.458523
O O7 0.140135 0.625943 0.506655
O O8 0.147383 0.775813 0.721871
O O9 0.500000 0.613466 0.750000
O O10 0.500000 0.500000 0.500000
O O11 0.399767 0.461787 0.673023
O O12 0.500000 0.687395 0.250000
#
# Coordination Sequence:
#
# PCOD9272254 Si02
#       5
#     8   8   8   8   8
#     4  10  20  36  66  94 120 164 229 272 313 399
#     4  12  26  44  64 100 143 171 220 298 356 397
#     4  11  22  42  74 101 126 181 241 283 329 420
#     4  10  21  36  62  94 127 169 213 269 336 401
#     4  11  21  41  67  96 129 172 230 281 332 414
#
# _framework density 21.352077999999999
#
# number of rings (size 3 to 8) (size 9 to 14) (size 15 to 20)
#    0.000    1.200    6.000    1.200    8.400    0.000 
#    7.200    1.000    0.000    0.000    0.000    0.000 
#    0.000    0.000    0.000    0.000    0.000    0.000 
#
# Total GULP energy -111551.812756 kJ/mol
# GULP energy per Si atom -5577.590638 kJ/mol
# Density = 2.130348 g / cm^3
# Si number density = 21.352078 Si / 1000 Ang^3
#
#
#
# Elastic Constant Matrix: (Units=GPa)
#
#
# Indices 1 2 3 4 5 6 
#
# 1 53.8880 16.1660 10.0725 0.0000 -20.8364 0.0000
# 2 16.1660 88.9385 23.5092 0.0000 -1.0223 0.0000
# 3 10.0725 23.5092 106.4633 0.0000 -14.9946 0.0000
# 4 0.0000 0.0000 0.0000 39.2576 0.0000 -4.5913
# 5 -20.8364 -1.0223 -14.9946 0.0000 18.0117 0.0000
# 6 0.0000 0.0000 0.0000 -4.5913 0.0000 5.2246
#
#
#
# Elastic Compliance Matrix: (Units=1/GPa)
#
#
# Indices 1 2 3 4 5 6 
#
# 1 0.038666 -0.007758 0.004863 0.000000 0.048337 0.000000
# 2 -0.007758 0.013544 -0.003866 0.000000 -0.011424 0.000000
# 3 0.004863 -0.003866 0.011949 0.000000 0.015354 0.000000
# 4 0.000000 0.000000 0.000000 0.028391 0.000000 0.024950
# 5 0.048337 -0.011424 0.015354 0.000000 0.123571 0.000000
# 6 0.000000 0.000000 0.000000 0.024950 0.000000 0.213328
#
#
# Mechanical properties :
#
#
# Convention : Reuss Voigt Hill
#
# Bulk Modulus (GPa) = 19.74831 38.75391 29.25111
# Shear Modulus (GPa) = 10.87312 25.80159 18.33735
#
# Velocity S-wave (km/s) = 2.25906 3.47996 2.93372
# Velocity P-wave (km/s) = 4.00917 5.85971 5.02044
#
# Compressibility (1/GPa) = 0.05063724
#
# Stress axis : x y z
#
# Youngs Moduli (GPa) = 25.86279 73.83121 83.68942
#
# Poissons Ratio (x) = 0.57277 -0.40698
# Poissons Ratio (y) = 0.20064 0.32354
# Poissons Ratio (z) = -0.12577 0.28542
#
# Static dielectric constant tensor:
#      x y z
#    x 1.944140 0.000000 0.120170 
#    y 0.000000 1.852760 0.000000 
#    z 0.120170 0.000000 1.971260 
# 
# From -- ./inp_files/46054.got.cif
#   From: 2010.05.17/outbox.cif.g08.bks.cpg/sg15_24_cif.got.tgz:46054.got - 2010.06.03 18:47:42.
