data_PCOD9272859
_publ_section_title
;
Structure prediction by ZEFSAII (Michael W. Deem and Ramdas Pophale) SiO2 
 PCOD9272859
Probable space group: C 2/C
;
_chemical_formula_sum "Si O2"
_cell_formula_units_Z 44
_cell_length_a 10.711438
_cell_length_b 8.812500
_cell_length_c 20.862129
_cell_angle_alpha 90.000000
_cell_angle_beta 99.579060
_cell_angle_gamma 90.000000
_cell_volume 1941.813519
_symmetry_space_group_name_H-M "C 2/C"
_symmetry_group_IT_number 15
_symmetry_cell_setting 'monoclinic'
loop_
_space_group_symop_operation_xyz
x,y,z
-x,y,1/2-z
-x,-y,-z
x,-y,1/2+z
1/2+x,1/2+y,z
1/2-x,1/2+y,1/2-z
1/2-x,1/2-y,-z
1/2+x,1/2-y,1/2+z
loop_
_atom_site_type_symbol
_atom_site_label
_atom_site_fract_x
_atom_site_fract_y
_atom_site_fract_z
Si Si1 0.409563 0.792713 0.050901
Si Si2 0.300819 0.250838 0.902152
Si Si3 0.000000 0.959171 0.750000
Si Si4 0.281188 0.508576 0.515899
Si Si5 0.825064 0.736363 0.677794
Si Si6 0.260116 0.057455 0.228963
O O1 0.554290 0.807582 0.084180
O O2 0.385786 0.622918 0.023421
O O3 0.313270 0.804798 0.103374
O O4 0.353421 0.919820 0.999329
O O5 0.258985 0.327357 0.831972
O O6 0.215390 0.110450 0.919487
O O7 0.290966 0.378081 0.956862
O O8 0.945872 0.846116 0.691626
O O9 0.875110 0.028779 0.769226
O O10 0.722734 0.841791 0.705870
O O11 0.848408 0.581103 0.718267
#
# Coordination Sequence:
#
# PCOD9272859 Si02
#       6
#     8   8   4   8   8   8
#     4  11  20  39  58  81 116 144 187 225 276 328
#     4  11  20  39  58  81 116 144 187 225 276 328
#     4   8  20  36  58  78 108 144 178 224 290 306
#     4  10  24  34  58  86 108 154 182 226 270 328
#     4  10  20  37  61  80 110 146 182 231 279 325
#     4  10  20  37  61  80 110 146 182 231 279 325
#
# _framework density 22.659231999999999
#
# number of rings (size 3 to 8) (size 9 to 14) (size 15 to 20)
#    1.091    0.727    3.636    1.091    2.545    0.000 
#    0.000    0.909    0.000    0.000    0.000    0.000 
#    0.000    0.000    0.000    0.000    0.000    0.000 
#
# Total GULP energy -122482.234258 kJ/mol
# GULP energy per Si atom -5567.374284 kJ/mol
# Density = 2.260766 g / cm^3
# Si number density = 22.659232 Si / 1000 Ang^3
#
#
#
# Elastic Constant Matrix: (Units=GPa)
#
#
# Indices 1 2 3 4 5 6 
#
# 1 35.8123 5.4309 1.0149 0.0000 -2.7121 0.0000
# 2 5.4309 79.0318 25.9835 0.0000 -17.8351 0.0000
# 3 1.0149 25.9835 52.4666 0.0000 -17.9310 0.0000
# 4 0.0000 0.0000 0.0000 24.4680 0.0000 -2.2772
# 5 -2.7121 -17.8351 -17.9310 0.0000 16.1003 0.0000
# 6 0.0000 0.0000 0.0000 -2.2772 0.0000 10.4907
#
#
#
# Elastic Compliance Matrix: (Units=1/GPa)
#
#
# Indices 1 2 3 4 5 6 
#
# 1 0.028493 -0.001375 0.002017 0.000000 0.005524 0.000000
# 2 -0.001375 0.017271 -0.003338 0.000000 0.015184 0.000000
# 3 0.002017 -0.003338 0.031525 0.000000 0.031753 0.000000
# 4 0.000000 0.000000 0.000000 0.041712 0.000000 0.009054
# 5 0.005524 0.015184 0.031753 0.000000 0.115224 0.000000
# 6 0.000000 0.000000 0.000000 0.009054 0.000000 0.097288
#
#
# Mechanical properties :
#
#
# Convention : Reuss Voigt Hill
#
# Bulk Modulus (GPa) = 13.90823 25.79659 19.85241
# Shear Modulus (GPa) = 13.85538 19.20389 16.52963
#
# Velocity S-wave (km/s) = 2.47547 2.91436 2.70383
# Velocity P-wave (km/s) = 3.78443 4.76801 4.30441
#
# Compressibility (1/GPa) = 0.07189987
#
# Stress axis : x y z
#
# Youngs Moduli (GPa) = 35.09634 57.89899 31.72045
#
# Poissons Ratio (x) = 0.07959 -0.06399
# Poissons Ratio (y) = 0.04825 0.10587
# Poissons Ratio (z) = -0.07080 0.19325
#
# Static dielectric constant tensor:
#      x y z
#    x 1.878020 0.000000 -0.005690 
#    y 0.000000 1.863510 0.000000 
#    z -0.005690 0.000000 1.883330 
# 
# From -- ./inp_files/267373.got.cif
#   From: 2010.05.17/outbox.cif.g08.bks.cpg/sg15_134_cif.got.tgz:267373.got - 2010.06.03 18:47:42.
