data_PCOD9272701
_publ_section_title
;
Structure prediction by ZEFSAII (Michael W. Deem and Ramdas Pophale) SiO2 
 PCOD9272701
Probable space group: C 2/C
;
_chemical_formula_sum "Si O2"
_cell_formula_units_Z 48
_cell_length_a 22.082386
_cell_length_b 22.247270
_cell_length_c 10.468547
_cell_angle_alpha 90.000000
_cell_angle_beta 27.264837
_cell_angle_gamma 90.000000
_cell_volume 2355.989348
_symmetry_space_group_name_H-M "C 2/C"
_symmetry_group_IT_number 15
_symmetry_cell_setting 'monoclinic'
loop_
_space_group_symop_operation_xyz
x,y,z
-x,y,1/2-z
-x,-y,-z
x,-y,1/2+z
1/2+x,1/2+y,z
1/2-x,1/2+y,1/2-z
1/2-x,1/2-y,-z
1/2+x,1/2-y,1/2+z
loop_
_atom_site_type_symbol
_atom_site_label
_atom_site_fract_x
_atom_site_fract_y
_atom_site_fract_z
Si Si1 0.500000 0.748553 0.250000
Si Si2 0.000000 0.551403 0.750000
Si Si3 0.852270 0.907154 0.388194
Si Si4 0.307935 0.465346 0.053581
Si Si5 0.663733 0.019282 0.098260
Si Si6 0.223366 0.347060 0.852361
Si Si7 0.921266 0.854858 0.713668
O O1 0.371124 0.790912 0.499098
O O2 0.523434 0.705467 0.326913
O O3 0.020045 0.504883 0.828626
O O4 0.125643 0.594942 0.524976
O O5 0.709936 0.920384 0.585239
O O6 0.829539 0.859752 0.542423
O O7 0.887797 0.972788 0.378690
O O8 0.963010 0.887300 0.082581
O O9 0.221357 0.469269 0.085760
O O10 0.301051 0.342318 0.840194
O O11 0.375999 0.401347 0.908934
O O12 0.237848 0.473647 0.321620
#
# Coordination Sequence:
#
# PCOD9272701 Si02
#       7
#     4   4   8   8   8   8   8
#     4  11  28  42  68  90 130 178 231 280 320 389
#     4  11  18  40  60  94 138 178 209 272 314 421
#     4  10  22  39  66  97 131 170 214 276 334 399
#     4  10  20  37  60 102 132 164 212 267 336 398
#     4  10  21  34  60  99 135 172 212 255 343 391
#     4  11  23  43  65  93 124 183 229 266 333 388
#     4  12  22  44  65  94 131 170 224 281 328 397
#
# _framework density 20.373605000000001
#
# number of rings (size 3 to 8) (size 9 to 14) (size 15 to 20)
#    1.000    0.333    3.333    2.500    0.000    3.333 
#    3.000    0.000    0.000    0.000    0.000    0.000 
#    0.000    0.000    0.000    0.000    0.000    0.000 
#
# Total GULP energy -133632.652681 kJ/mol
# GULP energy per Si atom -5568.027195 kJ/mol
# Density = 2.032723 g / cm^3
# Si number density = 20.373605 Si / 1000 Ang^3
#
#
#
# Elastic Constant Matrix: (Units=GPa)
#
#
# Indices 1 2 3 4 5 6 
#
# 1 171.5982 45.2143 23.2955 0.0001 0.0363 0.0000
# 2 45.2143 114.1401 38.1763 0.0001 2.1607 -0.0002
# 3 23.2955 38.1763 55.9361 0.0002 9.2040 0.0000
# 4 0.0001 0.0001 0.0002 17.6553 0.0000 -8.5188
# 5 0.0363 2.1607 9.2040 0.0000 35.6192 0.0000
# 6 0.0000 -0.0002 0.0000 -8.5188 0.0000 52.5684
#
#
#
# Elastic Compliance Matrix: (Units=1/GPa)
#
#
# Indices 1 2 3 4 5 6 
#
# 1 0.006580 -0.002168 -0.001338 0.000000 0.000471 0.000000
# 2 -0.002168 0.012131 -0.007578 0.000000 0.001225 0.000000
# 3 -0.001338 -0.007578 0.024576 0.000000 -0.005889 0.000000
# 4 0.000000 0.000000 0.000000 0.061445 0.000000 0.009957
# 5 0.000471 0.001225 -0.005889 0.000000 0.029522 0.000000
# 6 0.000000 0.000000 0.000000 0.009957 0.000000 0.020636
#
#
# Mechanical properties :
#
#
# Convention : Reuss Voigt Hill
#
# Bulk Modulus (GPa) = 47.35113 61.67183 54.51148
# Shear Modulus (GPa) = 27.15922 36.83448 31.99685
#
# Velocity S-wave (km/s) = 3.65507 4.25661 3.96726
# Velocity P-wave (km/s) = 6.41128 7.38204 6.91372
#
# Compressibility (1/GPa) = 0.02111882
#
# Stress axis : x y z
#
# Youngs Moduli (GPa) = 151.96677 82.43014 40.68988
#
# Poissons Ratio (x) = 0.17871 0.05446
# Poissons Ratio (y) = 0.32946 0.30836
# Poissons Ratio (z) = 0.20338 0.62468
#
# Static dielectric constant tensor:
#      x y z
#    x 1.803390 0.000000 -0.024120 
#    y 0.000000 1.703990 0.000000 
#    z -0.024120 0.000000 1.743410 
# 
# From -- ./inp_files/57744.got.cif
#   From: 2010.05.17/outbox.cif.g08.bks.cpg/sg15_29_cif.got.tgz:57744.got - 2010.06.03 18:47:42.
