data_PCOD9272562
_publ_section_title
;
Structure prediction by ZEFSAII (Michael W. Deem and Ramdas Pophale) SiO2 
 PCOD9272562
Probable space group: C 2/C
;
_chemical_formula_sum "Si O2"
_cell_formula_units_Z 56
_cell_length_a 27.120451
_cell_length_b 12.792392
_cell_length_c 10.649267
_cell_angle_alpha 90.000000
_cell_angle_beta 36.754982
_cell_angle_gamma 90.000000
_cell_volume 2210.832336
_symmetry_space_group_name_H-M "C 2/C"
_symmetry_group_IT_number 15
_symmetry_cell_setting 'monoclinic'
loop_
_space_group_symop_operation_xyz
x,y,z
-x,y,1/2-z
-x,-y,-z
x,-y,1/2+z
1/2+x,1/2+y,z
1/2-x,1/2+y,1/2-z
1/2-x,1/2-y,-z
1/2+x,1/2-y,1/2+z
loop_
_atom_site_type_symbol
_atom_site_label
_atom_site_fract_x
_atom_site_fract_y
_atom_site_fract_z
Si Si1 0.101366 0.785153 0.926792
Si Si2 0.145585 0.522515 0.687207
Si Si3 0.585687 0.476297 0.142068
Si Si4 0.074657 0.809387 0.342305
Si Si5 0.292426 0.354035 0.023641
Si Si6 0.488646 0.873317 0.408953
Si Si7 0.820627 0.330007 0.039040
O O1 0.163927 0.797665 0.682612
O O2 0.108212 0.683976 0.001559
O O3 0.118426 0.883344 0.985481
O O4 0.007704 0.791205 0.073330
O O5 0.220155 0.571364 0.614484
O O6 0.079649 0.611375 0.781489
O O7 0.184988 0.448252 0.498199
O O8 0.082145 0.440551 0.880224
O O9 0.500000 0.503188 0.250000
O O10 0.585731 0.430445 0.286326
O O11 0.640923 0.575901 0.042434
O O12 0.045687 0.745624 0.522610
O O13 0.153401 0.747487 0.126024
O O14 0.253941 0.291384 0.220241
O O15 0.500000 0.918394 0.250000
#
# Coordination Sequence:
#
# PCOD9272562 Si02
#       7
#     8   8   8   8   8   8   8
#     4  10  21  39  63  89 121 165 208 253 312 376
#     4  10  22  36  58  91 125 161 203 260 319 366
#     4   9  21  41  63  86 122 166 204 253 318 376
#     4   9  20  40  61  85 122 169 206 246 315 377
#     4  12  22  37  63  95 122 156 214 266 303 370
#     4  10  20  37  61  90 123 163 211 256 304 371
#     4  10  20  37  58  86 123 161 200 251 315 370
#
# _framework density 25.329827999999999
#
# number of rings (size 3 to 8) (size 9 to 14) (size 15 to 20)
#    0.000    2.000    0.000    4.286    0.000    6.857 
#    0.000   12.857    0.000    0.000    0.000    0.000 
#    0.000    0.000    0.000    0.000    0.000    0.000 
#
# Total GULP energy -156190.280451 kJ/mol
# GULP energy per Si atom -5578.224302 kJ/mol
# Density = 2.527218 g / cm^3
# Si number density = 25.329828 Si / 1000 Ang^3
#
#
#
# Elastic Constant Matrix: (Units=GPa)
#
#
# Indices 1 2 3 4 5 6 
#
# 1 54.5858 25.3498 29.0952 0.0000 -13.3653 0.0000
# 2 25.3498 55.0524 23.5941 0.0000 -8.2098 0.0000
# 3 29.0952 23.5941 116.2351 0.0000 9.3109 0.0000
# 4 0.0000 0.0000 0.0000 21.4303 0.0000 -5.7265
# 5 -13.3653 -8.2098 9.3109 0.0000 36.9197 0.0000
# 6 0.0000 0.0000 0.0000 -5.7265 0.0000 34.6688
#
#
#
# Elastic Compliance Matrix: (Units=1/GPa)
#
#
# Indices 1 2 3 4 5 6 
#
# 1 0.028003 -0.008890 -0.005979 0.000000 0.009668 0.000000
# 2 -0.008890 0.023900 -0.002852 0.000000 0.002816 0.000000
# 3 -0.005979 -0.002852 0.011128 0.000000 -0.005605 0.000000
# 4 0.000000 0.000000 0.000000 0.048818 0.000000 0.008064
# 5 0.009668 0.002816 -0.005605 0.000000 0.032626 0.000000
# 6 0.000000 0.000000 0.000000 0.008064 0.000000 0.030176
#
#
# Mechanical properties :
#
#
# Convention : Reuss Voigt Hill
#
# Bulk Modulus (GPa) = 36.24672 42.43903 39.34288
# Shear Modulus (GPa) = 22.80105 28.45937 25.63021
#
# Velocity S-wave (km/s) = 3.00353 3.35558 3.18442
# Velocity P-wave (km/s) = 5.13510 5.63952 5.39321
#
# Compressibility (1/GPa) = 0.02758870
#
# Stress axis : x y z
#
# Youngs Moduli (GPa) = 35.71086 41.84100 89.86494
#
# Poissons Ratio (x) = 0.37196 0.53734
# Poissons Ratio (y) = 0.31746 0.25626
# Poissons Ratio (z) = 0.21353 0.11932
#
# Static dielectric constant tensor:
#      x y z
#    x 2.030020 0.000000 0.045250 
#    y 0.000000 2.071260 0.000000 
#    z 0.045250 0.000000 2.073140 
# 
# From -- ./inp_files/126977.got.cif
#   From: 2010.05.17/outbox.cif.g08.bks.cpg/sg15_64_cif.got.tgz:126977.got - 2010.06.03 18:47:42.
