data_PCOD9272338
_publ_section_title
;
Structure prediction by ZEFSAII (Michael W. Deem and Ramdas Pophale) SiO2 
 PCOD9272338
Probable space group: C 2/C
;
_chemical_formula_sum "Si O2"
_cell_formula_units_Z 44
_cell_length_a 5.283465
_cell_length_b 22.614474
_cell_length_c 16.415596
_cell_angle_alpha 90.000000
_cell_angle_beta 95.846800
_cell_angle_gamma 90.000000
_cell_volume 1951.177644
_symmetry_space_group_name_H-M "C 2/C"
_symmetry_group_IT_number 15
_symmetry_cell_setting 'monoclinic'
loop_
_space_group_symop_operation_xyz
x,y,z
-x,y,1/2-z
-x,-y,-z
x,-y,1/2+z
1/2+x,1/2+y,z
1/2-x,1/2+y,1/2-z
1/2-x,1/2-y,-z
1/2+x,1/2-y,1/2+z
loop_
_atom_site_type_symbol
_atom_site_label
_atom_site_fract_x
_atom_site_fract_y
_atom_site_fract_z
Si Si1 0.500000 0.036536 0.750000
Si Si2 0.224980 0.171612 0.074663
Si Si3 0.664292 0.372460 0.162406
Si Si4 0.396853 0.573796 0.011806
Si Si5 0.077924 0.551801 0.399326
Si Si6 0.159566 0.304892 0.111326
O O1 0.735522 0.081356 0.767060
O O2 0.500753 0.993601 0.672549
O O3 0.386576 0.120845 0.125872
O O4 0.188119 0.234268 0.115000
O O5 0.954453 0.139574 0.051172
O O6 0.334968 0.179459 0.985800
O O7 0.411899 0.332889 0.160135
O O8 0.905628 0.331301 0.143921
O O9 0.607008 0.414368 0.083277
O O10 0.135380 0.552207 0.039301
O O11 0.355346 0.460428 0.946999
#
# Coordination Sequence:
#
# PCOD9272338 Si02
#       6
#     4   8   8   8   8   8
#     4  12  30  44  62  82 144 168 226 252 320 358
#     4   8  19  36  68 101 118 153 201 273 312 374
#     4  11  23  41  60  99 123 173 199 266 309 387
#     4   9  19  39  66  94 119 149 225 242 325 354
#     4  10  22  41  61  95 118 173 203 268 301 381
#     4  10  20  36  70  96 129 147 209 264 326 373
#
# _framework density 22.550484000000001
#
# number of rings (size 3 to 8) (size 9 to 14) (size 15 to 20)
#    1.091    1.091    1.818    0.000    2.545    8.000 
#    0.000    1.818    0.000    0.000    0.000    0.000 
#    0.000    0.000    0.000    0.000    0.000    0.000 
#
# Total GULP energy -122809.744222 kJ/mol
# GULP energy per Si atom -5582.261101 kJ/mol
# Density = 2.249916 g / cm^3
# Si number density = 22.550484 Si / 1000 Ang^3
#
#
#
# Elastic Constant Matrix: (Units=GPa)
#
#
# Indices 1 2 3 4 5 6 
#
# 1 134.3941 55.0582 19.7915 0.0000 18.0665 0.0000
# 2 55.0582 189.8264 49.9626 0.0000 17.2302 0.0000
# 3 19.7915 49.9626 66.2111 0.0000 28.6604 0.0000
# 4 0.0000 0.0000 0.0000 44.3648 0.0000 3.4152
# 5 18.0665 17.2302 28.6604 0.0000 26.5044 0.0000
# 6 0.0000 0.0000 0.0000 3.4152 0.0000 23.9491
#
#
#
# Elastic Compliance Matrix: (Units=1/GPa)
#
#
# Indices 1 2 3 4 5 6 
#
# 1 0.009111 -0.002604 0.002250 0.000000 -0.006951 0.000000
# 2 -0.002604 0.007378 -0.006544 0.000000 0.004055 0.000000
# 3 0.002250 -0.006544 0.034199 0.000000 -0.034260 0.000000
# 4 0.000000 0.000000 0.000000 0.022791 0.000000 -0.003250
# 5 -0.006951 0.004055 -0.034260 0.000000 0.076878 0.000000
# 6 0.000000 0.000000 0.000000 -0.003250 0.000000 0.042219
#
#
# Mechanical properties :
#
#
# Convention : Reuss Voigt Hill
#
# Bulk Modulus (GPa) = 27.10651 71.11737 49.11194
# Shear Modulus (GPa) = 22.86583 36.67162 29.76872
#
# Velocity S-wave (km/s) = 3.18777 4.03699 3.63725
# Velocity P-wave (km/s) = 5.05921 7.30309 6.28215
#
# Compressibility (1/GPa) = 0.03689151
#
# Stress axis : x y z
#
# Youngs Moduli (GPa) = 109.76310 135.54670 29.24079
#
# Poissons Ratio (x) = 0.35294 -0.06580
# Poissons Ratio (y) = 0.28581 0.19136
# Poissons Ratio (z) = -0.24700 0.88703
#
# Static dielectric constant tensor:
#      x y z
#    x 1.838680 0.000000 -0.013400 
#    y 0.000000 1.921820 0.000000 
#    z -0.013400 0.000000 1.869530 
# 
# From -- ./inp_files/184904.got.cif
#   From: 2010.05.17/outbox.cif.g08.bks.cpg/sg15_93_cif.got.tgz:184904.got - 2010.06.03 18:47:42.
