data_PCOD9272554
_publ_section_title
;
Structure prediction by ZEFSAII (Michael W. Deem and Ramdas Pophale) SiO2 
 PCOD9272554
Probable space group: C 2/C
;
_chemical_formula_sum "Si O2"
_cell_formula_units_Z 40
_cell_length_a 11.642668
_cell_length_b 22.541229
_cell_length_c 8.132927
_cell_angle_alpha 90.000000
_cell_angle_beta 90.277811
_cell_angle_gamma 90.000000
_cell_volume 2134.380642
_symmetry_space_group_name_H-M "C 2/C"
_symmetry_group_IT_number 15
_symmetry_cell_setting 'monoclinic'
loop_
_space_group_symop_operation_xyz
x,y,z
-x,y,1/2-z
-x,-y,-z
x,-y,1/2+z
1/2+x,1/2+y,z
1/2-x,1/2+y,1/2-z
1/2-x,1/2-y,-z
1/2+x,1/2-y,1/2+z
loop_
_atom_site_type_symbol
_atom_site_label
_atom_site_fract_x
_atom_site_fract_y
_atom_site_fract_z
Si Si1 0.253278 0.832388 0.952892
Si Si2 0.943041 0.251979 0.071085
Si Si3 0.167414 0.297290 0.910800
Si Si4 0.354522 0.054266 0.569141
Si Si5 0.620618 0.073909 0.543708
O O1 0.126563 0.806815 0.979290
O O2 0.294840 0.807885 0.776350
O O3 0.344382 0.802335 0.078084
O O4 0.268232 0.902096 0.975076
O O5 0.000000 0.245454 0.250000
O O6 0.039972 0.272294 0.944280
O O7 0.250000 0.250000 0.000000
O O8 0.168599 0.363193 0.987743
O O9 0.483396 0.070170 0.506764
O O10 0.358938 0.066955 0.762457
O O11 0.330494 0.985106 0.540771
#
# Coordination Sequence:
#
# PCOD9272554 Si02
#       5
#     8   8   8   8   8
#     4  11  23  36  62  85 122 162 196 249 297 354
#     4  11  22  39  55  87 123 159 198 243 298 354
#     4  12  23  37  60  89 124 158 198 240 300 355
#     4  10  20  37  58  85 117 154 197 243 305 350
#     4  10  21  35  58  84 121 152 192 252 294 354
#
# _framework density 18.7408
#
# number of rings (size 3 to 8) (size 9 to 14) (size 15 to 20)
#    0.000    1.200    4.000    3.000    2.800    1.600 
#    0.000    0.000    0.000    1.200    0.000    0.000 
#    0.000    0.000    0.000    0.000    0.000    0.000 
#
# Total GULP energy -111718.481629 kJ/mol
# GULP energy per Si atom -5585.924081 kJ/mol
# Density = 1.869815 g / cm^3
# Si number density = 18.740800 Si / 1000 Ang^3
#
#
#
# Elastic Constant Matrix: (Units=GPa)
#
#
# Indices 1 2 3 4 5 6 
#
# 1 66.2439 61.1467 32.2766 0.0000 5.5042 0.0000
# 2 61.1467 182.9023 45.7973 0.0000 4.1986 0.0000
# 3 32.2766 45.7973 43.5234 0.0000 6.5627 0.0000
# 4 0.0000 0.0000 0.0000 33.6952 0.0000 3.1971
# 5 5.5042 4.1986 6.5627 0.0000 24.6172 0.0000
# 6 0.0000 0.0000 0.0000 3.1971 0.0000 33.5789
#
#
#
# Elastic Compliance Matrix: (Units=1/GPa)
#
#
# Indices 1 2 3 4 5 6 
#
# 1 0.027201 -0.005516 -0.014162 0.000000 -0.001366 0.000000
# 2 -0.005516 0.008559 -0.005086 0.000000 0.001129 0.000000
# 3 -0.014162 -0.005086 0.039822 0.000000 -0.006582 0.000000
# 4 0.000000 0.000000 0.000000 0.029948 0.000000 -0.002851
# 5 -0.001366 0.001129 -0.006582 0.000000 0.042489 0.000000
# 6 0.000000 0.000000 0.000000 -0.002851 0.000000 0.030052
#
#
# Mechanical properties :
#
#
# Convention : Reuss Voigt Hill
#
# Bulk Modulus (GPa) = 38.38018 63.45676 50.91847
# Shear Modulus (GPa) = 21.16087 28.60818 24.88453
#
# Velocity S-wave (km/s) = 3.36390 3.91131 3.64789
# Velocity P-wave (km/s) = 5.96756 7.37099 6.70609
#
# Compressibility (1/GPa) = 0.02605511
#
# Stress axis : x y z
#
# Youngs Moduli (GPa) = 36.76297 116.83472 25.11162
#
# Poissons Ratio (x) = 0.64451 0.35562
# Poissons Ratio (y) = 0.20280 0.12771
# Poissons Ratio (z) = 0.52062 0.59418
#
# Static dielectric constant tensor:
#      x y z
#    x 1.653470 0.000000 -0.006500 
#    y 0.000000 1.670550 0.000000 
#    z -0.006500 0.000000 1.679390 
# 
# From -- ./inp_files/30311.got.cif
#   From: 2010.05.17/outbox.cif.g08.bks.cpg/sg15_16_cif.got.tgz:30311.got - 2010.06.03 18:47:42.
