data_PCOD9272456
_publ_section_title
;
Structure prediction by ZEFSAII (Michael W. Deem and Ramdas Pophale) SiO2 
 PCOD9272456
Probable space group: C 2/C
;
_chemical_formula_sum "Si O2"
_cell_formula_units_Z 64
_cell_length_a 18.556250
_cell_length_b 22.713537
_cell_length_c 8.853440
_cell_angle_alpha 90.000000
_cell_angle_beta 106.466027
_cell_angle_gamma 90.000000
_cell_volume 3578.493161
_symmetry_space_group_name_H-M "C 2/C"
_symmetry_group_IT_number 15
_symmetry_cell_setting 'monoclinic'
loop_
_space_group_symop_operation_xyz
x,y,z
-x,y,1/2-z
-x,-y,-z
x,-y,1/2+z
1/2+x,1/2+y,z
1/2-x,1/2+y,1/2-z
1/2-x,1/2-y,-z
1/2+x,1/2-y,1/2+z
loop_
_atom_site_type_symbol
_atom_site_label
_atom_site_fract_x
_atom_site_fract_y
_atom_site_fract_z
Si Si1 0.920526 0.200074 0.131649
Si Si2 0.943583 0.728860 0.348454
Si Si3 0.726263 0.634732 0.366724
Si Si4 0.821595 0.306081 0.183191
Si Si5 0.524855 0.904620 0.590412
Si Si6 0.167282 0.534493 0.030207
Si Si7 0.376408 0.927725 0.330540
Si Si8 0.773855 0.276397 0.672540
O O1 0.855081 0.151746 0.116036
O O2 0.886680 0.258677 0.192684
O O3 0.000000 0.182906 0.250000
O O4 0.934542 0.221645 0.969773
O O5 0.970101 0.665890 0.430350
O O6 0.862465 0.716082 0.229567
O O7 0.000000 0.746551 0.250000
O O8 0.788684 0.668646 0.507269
O O9 0.754375 0.568144 0.395683
O O10 0.735056 0.663331 0.206278
O O11 0.850174 0.360426 0.299140
O O12 0.754101 0.271623 0.222484
O O13 0.500000 0.914307 0.750000
O O14 0.604068 0.934435 0.598269
O O15 0.461858 0.929066 0.439135
O O16 0.138562 0.544651 0.842975
O O17 0.169456 0.466639 0.077424
O O18 0.750000 0.250000 0.500000
#
# Coordination Sequence:
#
# PCOD9272456 Si02
#       8
#     8   8   8   8   8   8   8   8
#     4  11  20  35  58  82 110 148 191 225 281 349
#     4  11  22  34  51  83 118 147 181 232 281 333
#     4  10  20  39  56  76 109 156 187 235 276 337
#     4  10  20  37  57  76 108 151 185 228 280 340
#     4  11  22  35  53  77 119 154 186 226 275 335
#     4  11  22  39  57  78 112 150 200 236 277 329
#     4  11  23  35  56  81 106 150 194 235 278 327
#     4  11  21  33  54  79 113 145 187 228 280 330
#
# _framework density 17.884622
#
# number of rings (size 3 to 8) (size 9 to 14) (size 15 to 20)
#    0.000    1.250    3.750    3.750    7.000    1.000 
#    0.000    0.000    0.000    0.000    0.000    4.375 
#    0.000    0.000    0.000    0.000    0.000    0.000 
#
# Total GULP energy -178720.279577 kJ/mol
# GULP energy per Si atom -5585.008737 kJ/mol
# Density = 1.784392 g / cm^3
# Si number density = 17.884622 Si / 1000 Ang^3
#
#
#
# Elastic Constant Matrix: (Units=GPa)
#
#
# Indices 1 2 3 4 5 6 
#
# 1 105.1269 33.5643 22.8539 0.0000 0.5198 0.0000
# 2 33.5643 67.0094 14.9087 0.0000 4.2373 0.0000
# 3 22.8539 14.9087 60.5418 0.0000 2.8917 0.0000
# 4 0.0000 0.0000 0.0000 14.3494 0.0000 3.1639
# 5 0.5198 4.2373 2.8917 0.0000 24.9181 0.0000
# 6 0.0000 0.0000 0.0000 3.1639 0.0000 22.0844
#
#
#
# Elastic Compliance Matrix: (Units=1/GPa)
#
#
# Indices 1 2 3 4 5 6 
#
# 1 0.011906 -0.005309 -0.003236 0.000000 0.001030 0.000000
# 2 -0.005309 0.018281 -0.002368 0.000000 -0.002723 0.000000
# 3 -0.003236 -0.002368 0.018402 0.000000 -0.001665 0.000000
# 4 0.000000 0.000000 0.000000 0.071963 0.000000 -0.010310
# 5 0.001030 -0.002723 -0.001665 0.000000 0.040766 0.000000
# 6 0.000000 0.000000 0.000000 -0.010310 0.000000 0.046758
#
#
# Mechanical properties :
#
#
# Convention : Reuss Voigt Hill
#
# Bulk Modulus (GPa) = 37.36426 41.70352 39.53389
# Shear Modulus (GPa) = 20.93612 23.02713 21.98162
#
# Velocity S-wave (km/s) = 3.42515 3.59212 3.50963
# Velocity P-wave (km/s) = 6.04809 6.36971 6.21098
#
# Compressibility (1/GPa) = 0.02676354
#
# Stress axis : x y z
#
# Youngs Moduli (GPa) = 83.99395 54.70078 54.34259
#
# Poissons Ratio (x) = 0.29038 0.17586
# Poissons Ratio (y) = 0.44588 0.12868
# Poissons Ratio (z) = 0.27182 0.12952
#
# Static dielectric constant tensor:
#      x y z
#    x 1.601380 0.000000 -0.012230 
#    y 0.000000 1.636080 0.000000 
#    z -0.012230 0.000000 1.651640 
# 
# From -- ./inp_files/51278.got.cif
#   From: 2010.05.17/outbox.cif.g08.bks.cpg/sg15_26_cif.got.tgz:51278.got - 2010.06.03 18:47:42.
