data_PCOD9272418
_publ_section_title
;
Structure prediction by ZEFSAII (Michael W. Deem and Ramdas Pophale) SiO2 
 PCOD9272418
Probable space group: C 2/C
;
_chemical_formula_sum "Si O2"
_cell_formula_units_Z 48
_cell_length_a 19.349196
_cell_length_b 25.106018
_cell_length_c 5.492264
_cell_angle_alpha 90.000000
_cell_angle_beta 132.471383
_cell_angle_gamma 90.000000
_cell_volume 1967.984680
_symmetry_space_group_name_H-M "C 2/C"
_symmetry_group_IT_number 15
_symmetry_cell_setting 'monoclinic'
loop_
_space_group_symop_operation_xyz
x,y,z
-x,y,1/2-z
-x,-y,-z
x,-y,1/2+z
1/2+x,1/2+y,z
1/2-x,1/2+y,1/2-z
1/2-x,1/2-y,-z
1/2+x,1/2-y,1/2+z
loop_
_atom_site_type_symbol
_atom_site_label
_atom_site_fract_x
_atom_site_fract_y
_atom_site_fract_z
Si Si1 0.330358 0.017819 0.323695
Si Si2 0.358983 0.760576 0.194601
Si Si3 0.000000 0.031956 0.750000
Si Si4 0.612278 0.701829 0.752827
Si Si5 0.500000 0.379907 0.750000
Si Si6 0.168206 0.069616 0.397870
Si Si7 0.213575 0.637002 0.137976
O O1 0.312484 0.081091 0.295726
O O2 0.377973 0.999656 0.687295
O O3 0.234047 0.981342 0.098779
O O4 0.401673 0.741349 0.553056
O O5 0.250000 0.750000 0.000000
O O6 0.383567 0.729304 0.003753
O O7 0.367083 0.822487 0.137194
O O8 0.901739 0.061899 0.496960
O O9 0.000000 0.000000 0.500000
O O10 0.529574 0.658479 0.539420
O O11 0.710505 0.670683 0.028467
O O12 0.406851 0.413556 0.579755
O O13 0.235056 0.117891 0.487185
#
# Coordination Sequence:
#
# PCOD9272418 Si02
#       7
#     8   8   4   8   4   8   8
#     4  10  21  35  50  74 106 141 179 216 262 316
#     4  10  21  37  57  77  99 132 187 241 283 326
#     4  12  23  36  48  66 104 148 192 226 245 298
#     4  11  23  37  54  79 101 138 188 234 281 323
#     4  12  23  38  58  78 116 154 188 234 271 322
#     4  11  23  36  51  78 107 149 187 218 268 325
#     4  10  20  37  56  75 106 144 186 237 278 319
#
# _framework density 24.390435
#
# number of rings (size 3 to 8) (size 9 to 14) (size 15 to 20)
#    0.000    1.333    0.000    8.500    0.000    8.667 
#    0.000    0.000    0.000    0.000    0.000    0.000 
#    0.000    0.000    0.000   60.000    0.000    4.667 
#
# Total GULP energy -134045.957426 kJ/mol
# GULP energy per Si atom -5585.248226 kJ/mol
# Density = 2.433492 g / cm^3
# Si number density = 24.390435 Si / 1000 Ang^3
#
#
#
# Elastic Constant Matrix: (Units=GPa)
#
#
# Indices 1 2 3 4 5 6 
#
# 1 54.2179 21.9493 42.9456 0.0000 -30.6181 0.0000
# 2 21.9493 144.4344 52.3523 0.0000 -29.2157 0.0000
# 3 42.9456 52.3523 107.8290 0.0000 -48.4099 0.0000
# 4 0.0000 0.0000 0.0000 47.6615 0.0000 -14.7374
# 5 -30.6181 -29.2157 -48.4099 0.0000 44.9032 0.0000
# 6 0.0000 0.0000 0.0000 -14.7374 0.0000 32.3878
#
#
#
# Elastic Compliance Matrix: (Units=1/GPa)
#
#
# Indices 1 2 3 4 5 6 
#
# 1 0.031704 0.000457 -0.005833 0.000000 0.015627 0.000000
# 2 0.000457 0.008509 -0.003271 0.000000 0.002322 0.000000
# 3 -0.005833 -0.003271 0.020241 0.000000 0.015716 0.000000
# 4 0.000000 0.000000 0.000000 0.024417 0.000000 0.011110
# 5 0.015627 0.002322 0.015716 0.000000 0.051379 0.000000
# 6 0.000000 0.000000 0.000000 0.011110 0.000000 0.035931
#
#
# Mechanical properties :
#
#
# Convention : Reuss Voigt Hill
#
# Bulk Modulus (GPa) = 23.16950 60.10842 41.63896
# Shear Modulus (GPa) = 24.52621 37.60611 31.06616
#
# Velocity S-wave (km/s) = 3.17451 3.93089 3.57277
# Velocity P-wave (km/s) = 4.79132 6.73055 5.84196
#
# Compressibility (1/GPa) = 0.04316018
#
# Stress axis : x y z
#
# Youngs Moduli (GPa) = 31.54141 117.51729 49.40442
#
# Poissons Ratio (x) = -0.05374 0.28820
# Poissons Ratio (y) = -0.01442 0.16161
# Poissons Ratio (z) = 0.18399 0.38443
#
# Static dielectric constant tensor:
#      x y z
#    x 1.983180 0.000000 0.012180 
#    y 0.000000 2.061900 0.000000 
#    z 0.012180 0.000000 2.050220 
# 
# From -- ./inp_files/16197.got.cif
#   From: 2010.05.17/outbox.cif.g08.bks.cpg/sg15_9_cif.got.tgz:16197.got - 2010.06.03 18:47:42.
