data_PCOD9272745
_publ_section_title
;
Structure prediction by ZEFSAII (Michael W. Deem and Ramdas Pophale) SiO2 
 PCOD9272745
Probable space group: C 2/C
;
_chemical_formula_sum "Si O2"
_cell_formula_units_Z 56
_cell_length_a 6.554093
_cell_length_b 14.508951
_cell_length_c 30.078478
_cell_angle_alpha 90.000000
_cell_angle_beta 90.416979
_cell_angle_gamma 90.000000
_cell_volume 2860.177390
_symmetry_space_group_name_H-M "C 2/C"
_symmetry_group_IT_number 15
_symmetry_cell_setting 'monoclinic'
loop_
_space_group_symop_operation_xyz
x,y,z
-x,y,1/2-z
-x,-y,-z
x,-y,1/2+z
1/2+x,1/2+y,z
1/2-x,1/2+y,1/2-z
1/2-x,1/2-y,-z
1/2+x,1/2-y,1/2+z
loop_
_atom_site_type_symbol
_atom_site_label
_atom_site_fract_x
_atom_site_fract_y
_atom_site_fract_z
Si Si1 0.557418 0.315488 0.010056
Si Si2 0.951685 0.296240 0.142610
Si Si3 0.614283 0.588845 0.598373
Si Si4 0.241802 0.539935 0.655374
Si Si5 0.365393 0.920724 0.635989
Si Si6 0.517531 0.610865 0.198570
Si Si7 0.710642 0.283273 0.567337
O O1 0.624631 0.390617 0.046177
O O2 0.380785 0.262076 0.036840
O O3 0.750000 0.250000 0.000000
O O4 0.442222 0.342705 0.964258
O O5 0.730308 0.335348 0.129121
O O6 0.946685 0.199215 0.168783
O O7 0.091991 0.374166 0.167605
O O8 0.059361 0.281822 0.094873
O O9 0.386964 0.575877 0.616316
O O10 0.733834 0.496472 0.609825
O O11 0.391174 0.483861 0.688958
O O12 0.089200 0.459746 0.639995
O O13 0.339263 0.832155 0.605952
O O14 0.249595 0.906342 0.682463
O O15 0.500000 0.633922 0.250000
#
# Coordination Sequence:
#
# PCOD9272745 Si02
#       7
#     8   8   8   8   8   8   8
#     4  11  21  33  57  85 120 159 205 264 291 355
#     4  10  20  39  63  88 119 162 204 243 310 380
#     4  10  20  37  60  86 116 161 210 240 307 362
#     4  10  21  40  62  85 125 161 197 255 302 371
#     4   9  22  39  61  85 118 163 198 249 307 376
#     4  10  23  42  63  96 121 151 205 254 314 380
#     4  10  21  35  56  86 118 158 206 246 306 358
#
# _framework density 19.579204000000001
#
# number of rings (size 3 to 8) (size 9 to 14) (size 15 to 20)
#    0.000    2.000    2.857    0.000    2.000    2.286 
#    7.714    1.429    0.000    0.000    0.000    0.000 
#    0.000    0.000    0.000    0.000    0.000    0.000 
#
# Total GULP energy -155926.826373 kJ/mol
# GULP energy per Si atom -5568.815228 kJ/mol
# Density = 1.953464 g / cm^3
# Si number density = 19.579204 Si / 1000 Ang^3
#
#
#
# Elastic Constant Matrix: (Units=GPa)
#
#
# Indices 1 2 3 4 5 6 
#
# 1 92.6192 19.0870 37.6992 0.0000 -13.7427 0.0000
# 2 19.0870 37.4279 7.7164 0.0000 -3.8844 0.0000
# 3 37.6992 7.7164 75.3042 0.0000 -13.4956 0.0000
# 4 0.0000 0.0000 0.0000 17.3829 0.0000 1.0206
# 5 -13.7427 -3.8844 -13.4956 0.0000 10.2124 0.0000
# 6 0.0000 0.0000 0.0000 1.0206 0.0000 22.2267
#
#
#
# Elastic Compliance Matrix: (Units=1/GPa)
#
#
# Indices 1 2 3 4 5 6 
#
# 1 0.015929 -0.005770 -0.005156 0.000000 0.012427 0.000000
# 2 -0.005770 0.029997 0.000613 0.000000 0.004455 0.000000
# 3 -0.005156 0.000613 0.019126 0.000000 0.018570 0.000000
# 4 0.000000 0.000000 0.000000 0.057683 0.000000 -0.002649
# 5 0.012427 0.004455 0.018570 0.000000 0.140877 0.000000
# 6 0.000000 0.000000 0.000000 -0.002649 0.000000 0.045113
#
#
# Mechanical properties :
#
#
# Convention : Reuss Voigt Hill
#
# Bulk Modulus (GPa) = 22.50970 37.15072 29.83021
# Shear Modulus (GPa) = 14.52820 19.35432 16.94126
#
# Velocity S-wave (km/s) = 2.72696 3.14748 2.94474
# Velocity P-wave (km/s) = 4.62999 5.67667 5.17983
#
# Compressibility (1/GPa) = 0.04442529
#
# Stress axis : x y z
#
# Youngs Moduli (GPa) = 62.78037 33.33711 52.28552
#
# Poissons Ratio (x) = 0.19237 0.26958
# Poissons Ratio (y) = 0.36227 -0.03208
# Poissons Ratio (z) = 0.32369 -0.02045
#
# Static dielectric constant tensor:
#      x y z
#    x 1.725550 0.000000 0.026870 
#    y 0.000000 1.743060 0.000000 
#    z 0.026870 0.000000 1.693350 
# 
# From -- ./inp_files/305381.got.cif
#   From: 2010.05.17/outbox.cif.g08.bks.cpg/sg15_153_cif.got.tgz:305381.got - 2010.06.03 18:47:42.
