data_PCOD9272666
_publ_section_title
;
Structure prediction by ZEFSAII (Michael W. Deem and Ramdas Pophale) SiO2 
 PCOD9272666
Probable space group: C 2/C
;
_chemical_formula_sum "Si O2"
_cell_formula_units_Z 56
_cell_length_a 15.370926
_cell_length_b 9.169831
_cell_length_c 26.381941
_cell_angle_alpha 90.000000
_cell_angle_beta 36.618167
_cell_angle_gamma 90.000000
_cell_volume 2218.010286
_symmetry_space_group_name_H-M "C 2/C"
_symmetry_group_IT_number 15
_symmetry_cell_setting 'monoclinic'
loop_
_space_group_symop_operation_xyz
x,y,z
-x,y,1/2-z
-x,-y,-z
x,-y,1/2+z
1/2+x,1/2+y,z
1/2-x,1/2+y,1/2-z
1/2-x,1/2-y,-z
1/2+x,1/2-y,1/2+z
loop_
_atom_site_type_symbol
_atom_site_label
_atom_site_fract_x
_atom_site_fract_y
_atom_site_fract_z
Si Si1 0.278801 0.032626 0.198067
Si Si2 0.857396 0.273800 0.394817
Si Si3 0.151978 0.239656 0.495019
Si Si4 0.823606 0.335736 0.261839
Si Si5 0.276413 0.004554 0.081958
Si Si6 0.542475 0.491644 0.608455
Si Si7 0.836758 0.451079 0.844601
O O1 0.372696 0.927177 0.189367
O O2 0.274263 0.984171 0.142456
O O3 0.123542 0.011255 0.298223
O O4 0.291947 0.207790 0.194613
O O5 0.834429 0.444486 0.395660
O O6 0.022743 0.260342 0.293532
O O7 0.736619 0.178336 0.421299
O O8 0.885630 0.171356 0.431512
O O9 0.250000 0.250000 0.500000
O O10 0.101846 0.402786 0.502417
O O11 0.055607 0.101670 0.555856
O O12 0.779557 0.448199 0.325939
O O13 0.132388 0.958771 0.116847
O O14 0.257596 0.686302 0.096156
O O15 0.000000 0.412215 0.750000
#
# Coordination Sequence:
#
# PCOD9272666 Si02
#       7
#     8   8   8   8   8   8   8
#     4  11  20  36  61  85 118 154 204 244 303 345
#     4   8  17  37  60  79 115 150 196 238 299 348
#     4  10  21  36  53  93 119 144 202 245 295 352
#     4  10  21  35  56  92 116 150 196 252 295 355
#     4   9  18  35  63  80 115 155 196 241 289 360
#     4   8  18  35  58  83 113 155 187 242 293 361
#     4  10  20  37  59  88 117 149 197 254 294 350
#
# _framework density 25.247854
#
# number of rings (size 3 to 8) (size 9 to 14) (size 15 to 20)
#    0.857    1.714    1.429    0.429    4.000    2.857 
#    5.143    0.714    0.000    0.857    0.000    0.000 
#    0.000    0.000    0.000    0.000    0.000    0.000 
#
# Total GULP energy -155883.352988 kJ/mol
# GULP energy per Si atom -5567.262607 kJ/mol
# Density = 2.519039 g / cm^3
# Si number density = 25.247854 Si / 1000 Ang^3
#
#
#
# Elastic Constant Matrix: (Units=GPa)
#
#
# Indices 1 2 3 4 5 6 
#
# 1 57.1416 34.8497 32.2429 0.0000 19.4868 0.0000
# 2 34.8497 121.5379 42.5889 0.0000 18.5533 0.0000
# 3 32.2429 42.5889 80.5453 0.0000 28.5058 0.0000
# 4 0.0000 0.0000 0.0000 55.3681 0.0000 10.5602
# 5 19.4868 18.5533 28.5058 0.0000 32.3013 0.0000
# 6 0.0000 0.0000 0.0000 10.5602 0.0000 32.1590
#
#
#
# Elastic Compliance Matrix: (Units=1/GPa)
#
#
# Indices 1 2 3 4 5 6 
#
# 1 0.025959 -0.004359 -0.004988 0.000000 -0.008755 0.000000
# 2 -0.004359 0.010887 -0.003969 0.000000 -0.000121 0.000000
# 3 -0.004988 -0.003969 0.021288 0.000000 -0.013497 0.000000
# 4 0.000000 0.000000 0.000000 0.019268 0.000000 -0.006327
# 5 -0.008755 -0.000121 -0.013497 0.000000 0.048221 0.000000
# 6 0.000000 0.000000 0.000000 -0.006327 0.000000 0.033173
#
#
# Mechanical properties :
#
#
# Convention : Reuss Voigt Hill
#
# Bulk Modulus (GPa) = 31.74463 53.17640 42.46051
# Shear Modulus (GPa) = 25.51955 33.93526 29.72741
#
# Velocity S-wave (km/s) = 3.18270 3.67015 3.43508
# Velocity P-wave (km/s) = 5.10946 6.25040 5.70851
#
# Compressibility (1/GPa) = 0.03150139
#
# Stress axis : x y z
#
# Youngs Moduli (GPa) = 38.52192 91.85262 46.97583
#
# Poissons Ratio (x) = 0.40039 0.23434
# Poissons Ratio (y) = 0.16792 0.18643
# Poissons Ratio (z) = 0.19216 0.36454
#
# Static dielectric constant tensor:
#      x y z
#    x 2.002990 0.000000 -0.068150 
#    y 0.000000 2.126310 0.000000 
#    z -0.068150 0.000000 2.045510 
# 
# From -- ./inp_files/298114.got.cif
#   From: 2010.05.17/outbox.cif.g08.bks.cpg/sg15_150_cif.got.tgz:298114.got - 2010.06.03 18:47:42.
