data_PCOD9272341
_publ_section_title
;
Structure prediction by ZEFSAII (Michael W. Deem and Ramdas Pophale) SiO2 
 PCOD9272341
Probable space group: C 2/C
;
_chemical_formula_sum "Si O2"
_cell_formula_units_Z 40
_cell_length_a 8.499766
_cell_length_b 12.922297
_cell_length_c 14.602030
_cell_angle_alpha 90.000000
_cell_angle_beta 97.385990
_cell_angle_gamma 90.000000
_cell_volume 1590.528252
_symmetry_space_group_name_H-M "C 2/C"
_symmetry_group_IT_number 15
_symmetry_cell_setting 'monoclinic'
loop_
_space_group_symop_operation_xyz
x,y,z
-x,y,1/2-z
-x,-y,-z
x,-y,1/2+z
1/2+x,1/2+y,z
1/2-x,1/2+y,1/2-z
1/2-x,1/2-y,-z
1/2+x,1/2-y,1/2+z
loop_
_atom_site_type_symbol
_atom_site_label
_atom_site_fract_x
_atom_site_fract_y
_atom_site_fract_z
Si Si1 0.766939 0.664147 0.375460
Si Si2 0.277022 0.422940 0.081639
Si Si3 0.440226 0.818715 0.073356
Si Si4 0.500000 0.846756 0.750000
Si Si5 0.500000 0.554225 0.750000
Si Si6 0.747700 0.979384 0.876171
O O1 0.754793 0.541189 0.388058
O O2 0.596368 0.716287 0.372834
O O3 0.854466 0.702548 0.292057
O O4 0.879395 0.701305 0.466504
O O5 0.117785 0.358344 0.083115
O O6 0.407743 0.384667 0.162963
O O7 0.315259 0.431252 0.976191
O O8 0.324937 0.908309 0.104258
O O9 0.594159 0.916051 0.831487
O O10 0.373769 0.490840 0.803539
#
# Coordination Sequence:
#
# PCOD9272341 Si02
#       6
#     8   8   8   4   4   8
#     4  10  20  36  71 103 138 185 240 308 377 443
#     4  11  21  42  65 100 141 193 244 302 361 447
#     4  10  20  39  68 101 140 186 240 307 380 436
#     4  12  18  39  71 104 136 192 244 298 383 445
#     4  12  24  37  65  96 136 198 250 282 363 435
#     4  11  21  38  65  95 142 187 239 305 365 441
#
# _framework density 25.148876000000001
#
# number of rings (size 3 to 8) (size 9 to 14) (size 15 to 20)
#    0.000    1.200    6.000    1.800    0.000    0.800 
#    0.000    3.000    4.400    4.800    0.000    0.000 
#    0.000    0.000    0.000    0.000    0.000    0.000 
#
# Total GULP energy -111917.821612 kJ/mol
# GULP energy per Si atom -5595.891081 kJ/mol
# Density = 2.509164 g / cm^3
# Si number density = 25.148876 Si / 1000 Ang^3
#
#
#
# Elastic Constant Matrix: (Units=GPa)
#
#
# Indices 1 2 3 4 5 6 
#
# 1 107.0931 30.0724 54.3167 0.0000 -24.3802 0.0000
# 2 30.0724 48.0170 19.7664 0.0000 -2.3486 0.0000
# 3 54.3167 19.7664 176.9493 0.0000 -6.9047 0.0000
# 4 0.0000 0.0000 0.0000 17.4710 0.0000 -6.2205
# 5 -24.3802 -2.3486 -6.9047 0.0000 52.6888 0.0000
# 6 0.0000 0.0000 0.0000 -6.2205 0.0000 48.0273
#
#
#
# Elastic Compliance Matrix: (Units=1/GPa)
#
#
# Indices 1 2 3 4 5 6 
#
# 1 0.014479 -0.007383 -0.003388 0.000000 0.005926 0.000000
# 2 -0.007383 0.025617 -0.000688 0.000000 -0.002364 0.000000
# 3 -0.003388 -0.000688 0.006740 0.000000 -0.000715 0.000000
# 4 0.000000 0.000000 0.000000 0.060005 0.000000 0.007772
# 5 0.005926 -0.002364 -0.000715 0.000000 0.021523 0.000000
# 6 0.000000 0.000000 0.000000 0.007772 0.000000 0.021828
#
#
# Mechanical properties :
#
#
# Convention : Reuss Voigt Hill
#
# Bulk Modulus (GPa) = 41.80919 60.04115 50.92517
# Shear Modulus (GPa) = 27.61174 38.83103 33.22138
#
# Velocity S-wave (km/s) = 3.31710 3.93370 3.63848
# Velocity P-wave (km/s) = 5.59747 6.67518 6.15994
#
# Compressibility (1/GPa) = 0.02391819
#
# Stress axis : x y z
#
# Youngs Moduli (GPa) = 69.06742 39.03626 148.36047
#
# Poissons Ratio (x) = 0.28821 0.50270
# Poissons Ratio (y) = 0.50993 0.10201
# Poissons Ratio (z) = 0.23403 0.02684
#
# Static dielectric constant tensor:
#      x y z
#    x 1.938340 0.000000 0.023170 
#    y 0.000000 2.082580 0.000000 
#    z 0.023170 0.000000 2.021740 
# 
# From -- ./inp_files/133306.got.cif
#   From: 2010.05.17/outbox.cif.g08.bks.cpg/sg15_67_cif.got.tgz:133306.got - 2010.06.03 18:47:42.
