data_PCOD9272649
_publ_section_title
;
Structure prediction by ZEFSAII (Michael W. Deem and Ramdas Pophale) SiO2 
 PCOD9272649
Probable space group: C 2/C
;
_chemical_formula_sum "Si O2"
_cell_formula_units_Z 64
_cell_length_a 23.777913
_cell_length_b 19.069596
_cell_length_c 20.302187
_cell_angle_alpha 90.000000
_cell_angle_beta 159.083245
_cell_angle_gamma 90.000000
_cell_volume 3286.547082
_symmetry_space_group_name_H-M "C 2/C"
_symmetry_group_IT_number 15
_symmetry_cell_setting 'monoclinic'
loop_
_space_group_symop_operation_xyz
x,y,z
-x,y,1/2-z
-x,-y,-z
x,-y,1/2+z
1/2+x,1/2+y,z
1/2-x,1/2+y,1/2-z
1/2-x,1/2-y,-z
1/2+x,1/2-y,1/2+z
loop_
_atom_site_type_symbol
_atom_site_label
_atom_site_fract_x
_atom_site_fract_y
_atom_site_fract_z
Si Si1 0.188916 0.823670 0.956845
Si Si2 0.872774 0.083919 0.994784
Si Si3 0.763121 0.785781 0.085971
Si Si4 0.153244 0.576879 0.525206
Si Si5 0.793787 0.962799 0.586678
Si Si6 0.611769 0.334369 0.498459
Si Si7 0.040525 0.916475 0.051693
Si Si8 0.297015 0.038655 0.148773
O O1 0.212349 0.856573 0.055083
O O2 0.253778 0.882663 0.977961
O O3 0.000000 0.820556 0.750000
O O4 0.250000 0.750000 0.000000
O O5 0.019176 0.045855 0.193624
O O6 0.945831 0.111338 0.007500
O O7 0.748796 0.021406 0.848884
O O8 0.660501 0.856227 0.984021
O O9 0.720567 0.732353 0.099230
O O10 0.941479 0.810697 0.287983
O O11 0.750000 0.750000 0.000000
O O12 0.212737 0.505907 0.555379
O O13 0.287168 0.590660 0.726341
O O14 0.974847 0.564419 0.351209
O O15 0.740982 0.003757 0.463261
O O16 0.579836 0.371092 0.534830
O O17 0.681746 0.396519 0.531584
O O18 0.000000 0.000000 0.000000
#
# Coordination Sequence:
#
# PCOD9272649 Si02
#       8
#     8   8   8   8   8   8   8   8
#     4   9  20  36  60  87 118 151 198 257 323 368
#     4  10  20  39  61  87 117 164 204 256 314 379
#     4  11  23  39  58  89 129 165 209 262 320 374
#     4  11  23  37  61  93 124 162 211 260 319 376
#     4  10  20  37  59  86 121 158 205 257 319 378
#     4  11  23  39  62  86 125 170 209 254 318 373
#     4  11  21  42  65  86 123 172 217 256 306 380
#     4  11  21  35  59  94 121 153 209 266 318 374
#
# _framework density 19.473324999999999
#
# number of rings (size 3 to 8) (size 9 to 14) (size 15 to 20)
#    0.000    1.500    2.500    4.125    0.000    5.500 
#    0.000    5.000    0.000    0.000    0.000    0.000 
#    0.000    0.000    0.000    0.000    0.000    0.000 
#
# Total GULP energy -178341.048630 kJ/mol
# GULP energy per Si atom -5573.157770 kJ/mol
# Density = 1.942900 g / cm^3
# Si number density = 19.473325 Si / 1000 Ang^3
#
#
#
# Elastic Constant Matrix: (Units=GPa)
#
#
# Indices 1 2 3 4 5 6 
#
# 1 64.0704 46.9870 24.3521 0.0005 5.9302 -0.0003
# 2 46.9870 151.8328 29.3561 0.0113 19.5970 0.0033
# 3 24.3521 29.3561 66.2362 0.0034 12.1232 0.0001
# 4 0.0005 0.0113 0.0034 28.5666 0.0030 15.1536
# 5 5.9302 19.5970 12.1232 0.0030 25.7961 0.0004
# 6 -0.0003 0.0033 0.0001 15.1536 0.0004 46.2759
#
#
#
# Elastic Compliance Matrix: (Units=1/GPa)
#
#
# Indices 1 2 3 4 5 6 
#
# 1 0.022000 -0.005964 -0.005852 0.000003 0.002223 0.000000
# 2 -0.005964 0.009295 -0.000969 -0.000003 -0.005235 0.000000
# 3 -0.005852 -0.000969 0.018925 -0.000001 -0.006813 0.000000
# 4 0.000003 -0.000003 -0.000001 0.042365 -0.000002 -0.013873
# 5 0.002223 -0.005235 -0.006813 -0.000002 0.045433 0.000001
# 6 0.000000 0.000000 0.000000 -0.013873 0.000001 0.026152
#
#
# Mechanical properties :
#
#
# Convention : Reuss Voigt Hill
#
# Bulk Modulus (GPa) = 40.56667 53.72554 47.14610
# Shear Modulus (GPa) = 25.25806 32.22401 28.74104
#
# Velocity S-wave (km/s) = 3.60538 4.07231 3.84594
# Velocity P-wave (km/s) = 6.18133 7.05413 6.63210
#
# Compressibility (1/GPa) = 0.02465078
#
# Stress axis : x y z
#
# Youngs Moduli (GPa) = 45.45469 107.58810 52.83909
#
# Poissons Ratio (x) = 0.64162 0.30922
# Poissons Ratio (y) = 0.27108 0.05119
# Poissons Ratio (z) = 0.26601 0.10422
#
# Static dielectric constant tensor:
#      x y z
#    x 1.759130 0.000000 -0.005520 
#    y 0.000000 1.710860 0.000000 
#    z -0.005520 0.000000 1.697470 
# 
# From -- ./inp_files/256030.got.cif
#   From: 2010.05.17/outbox.cif.g08.bks.cpg/sg15_129_cif.got.tgz:256030.got - 2010.06.03 18:47:42.
