data_PCOD9272730
_publ_section_title
;
Structure prediction by ZEFSAII (Michael W. Deem and Ramdas Pophale) SiO2 
 PCOD9272730
Probable space group: C 2/C
;
_chemical_formula_sum "Si O2"
_cell_formula_units_Z 48
_cell_length_a 17.738662
_cell_length_b 18.419485
_cell_length_c 15.470136
_cell_angle_alpha 90.000000
_cell_angle_beta 150.705310
_cell_angle_gamma 90.000000
_cell_volume 2473.256363
_symmetry_space_group_name_H-M "C 2/C"
_symmetry_group_IT_number 15
_symmetry_cell_setting 'monoclinic'
loop_
_space_group_symop_operation_xyz
x,y,z
-x,y,1/2-z
-x,-y,-z
x,-y,1/2+z
1/2+x,1/2+y,z
1/2-x,1/2+y,1/2-z
1/2-x,1/2-y,-z
1/2+x,1/2-y,1/2+z
loop_
_atom_site_type_symbol
_atom_site_label
_atom_site_fract_x
_atom_site_fract_y
_atom_site_fract_z
Si Si1 0.064668 0.053991 0.221665
Si Si2 0.565140 0.385263 0.221827
Si Si3 0.434860 0.673505 0.416207
Si Si4 0.565139 0.173505 0.046486
Si Si5 0.565140 0.885263 0.908453
Si Si6 0.064668 0.446009 0.407671
O O1 0.014225 0.107701 0.095267
O O2 0.250000 0.055573 0.410510
O O3 0.000000 0.076865 0.250000
O O4 0.018770 0.970033 0.161680
O O5 0.500000 0.362861 0.250000
O O6 0.750000 0.380585 0.407382
O O7 0.497642 0.340668 0.074937
O O8 0.500000 0.750000 0.449102
O O9 0.250000 0.675469 0.232890
O O10 0.502358 0.159332 0.079654
O O11 0.514225 0.107701 0.933183
O O12 0.500000 0.862861 0.750000
O O13 0.518770 0.970033 0.875859
O O14 0.000000 0.423135 0.250000
#
# Coordination Sequence:
#
# PCOD9272730 Si02
#       6
#     8   8   8   8   8   8
#     4   9  20  37  59  84 111 143 183 227 274 324
#     4  10  20  37  60  85 110 142 182 228 276 326
#     4  11  23  38  55  81 114 149 185 225 272 326
#     4  11  23  38  55  81 114 149 185 225 272 326
#     4  10  20  37  60  85 110 142 182 228 276 326
#     4   9  20  37  59  84 111 143 183 227 274 324
#
# _framework density 19.407610999999999
#
# number of rings (size 3 to 8) (size 9 to 14) (size 15 to 20)
#    0.000    2.000    0.000    3.000    0.000    5.333 
#    0.000    6.667    0.000    0.000    0.000    0.000 
#    0.000    0.000    0.000    0.000    0.000    0.000 
#
# Total GULP energy -134106.665015 kJ/mol
# GULP energy per Si atom -5587.777709 kJ/mol
# Density = 1.936344 g / cm^3
# Si number density = 19.407611 Si / 1000 Ang^3
#
#
#
# Elastic Constant Matrix: (Units=GPa)
#
#
# Indices 1 2 3 4 5 6 
#
# 1 65.2101 12.8611 1.6449 0.0000 -1.5688 0.0000
# 2 12.8611 30.8310 11.2571 0.0000 -1.6351 0.0000
# 3 1.6449 11.2571 53.6383 -0.0001 -10.2254 -0.0001
# 4 0.0000 0.0000 -0.0001 17.3292 0.0000 18.7342
# 5 -1.5688 -1.6351 -10.2254 0.0000 22.1893 0.0000
# 6 0.0000 0.0000 -0.0001 18.7342 0.0000 -1.0502
#
#
#
# Elastic Compliance Matrix: (Units=1/GPa)
#
#
# Indices 1 2 3 4 5 6 
#
# 1 0.016793 -0.007405 0.001273 0.000000 0.001228 0.000000
# 2 -0.007405 0.038408 -0.008106 0.000000 -0.001429 0.000000
# 3 0.001273 -0.008106 0.022155 0.000000 0.009702 0.000000
# 4 0.000000 0.000000 0.000000 0.002845 0.000000 0.050747
# 5 0.001228 -0.001429 0.009702 0.000000 0.049519 0.000000
# 6 0.000000 0.000000 0.000000 0.050747 0.000000 -0.046941
#
#
# Mechanical properties :
#
#
# Convention : Reuss Voigt Hill
#
# Bulk Modulus (GPa) = 20.45799 22.35618 21.40708
# Shear Modulus (GPa) = 39.20109 15.95474 27.57791
#
# Velocity S-wave (km/s) = 4.49919 2.87032 3.77368
# Velocity P-wave (km/s) = 6.12816 4.74650 5.48104
#
# Compressibility (1/GPa) = 0.04888066
#
# Stress axis : x y z
#
# Youngs Moduli (GPa) = 59.54888 26.03642 45.13625
#
# Poissons Ratio (x) = 0.19280 -0.05747
# Poissons Ratio (y) = 0.44095 0.36587
# Poissons Ratio (z) = -0.07582 0.21105
#
# Static dielectric constant tensor:
#      x y z
#    x 1.647240 0.000000 0.003070 
#    y 0.000000 1.692130 0.000000 
#    z 0.003070 0.000000 1.650260 
# 
# From -- ./inp_files/48384.got.cif
#   From: 2010.05.17/outbox.cif.g08.bks.cpg/sg15_25_cif.got.tgz:48384.got - 2010.06.03 18:47:42.
