data_PCOD9272957
_publ_section_title
;
Structure prediction by ZEFSAII (Michael W. Deem and Ramdas Pophale) SiO2 
 PCOD9272957
Probable space group: C 2/C
;
_chemical_formula_sum "Si O2"
_cell_formula_units_Z 52
_cell_length_a 10.346361
_cell_length_b 27.597181
_cell_length_c 8.510003
_cell_angle_alpha 90.000000
_cell_angle_beta 109.104373
_cell_angle_gamma 90.000000
_cell_volume 2296.037160
_symmetry_space_group_name_H-M "C 2/C"
_symmetry_group_IT_number 15
_symmetry_cell_setting 'monoclinic'
loop_
_space_group_symop_operation_xyz
x,y,z
-x,y,1/2-z
-x,-y,-z
x,-y,1/2+z
1/2+x,1/2+y,z
1/2-x,1/2+y,1/2-z
1/2-x,1/2-y,-z
1/2+x,1/2-y,1/2+z
loop_
_atom_site_type_symbol
_atom_site_label
_atom_site_fract_x
_atom_site_fract_y
_atom_site_fract_z
Si Si1 0.656732 0.951323 0.019818
Si Si2 0.784182 0.218087 0.249430
Si Si3 0.000000 0.530139 0.750000
Si Si4 0.432100 0.285310 0.473245
Si Si5 0.747894 0.890788 0.796372
Si Si6 0.646340 0.532980 0.391456
Si Si7 0.037496 0.894961 0.084143
O O1 0.595173 0.941552 0.165924
O O2 0.803121 0.978064 0.082359
O O3 0.655938 0.905335 0.907354
O O4 0.580800 0.993898 0.895083
O O5 0.652993 0.253302 0.185681
O O6 0.727768 0.163103 0.229372
O O7 0.903482 0.222981 0.431797
O O8 0.865434 0.224102 0.117563
O O9 0.401805 0.341368 0.418506
O O10 0.748145 0.933727 0.667453
O O11 0.901784 0.892225 0.924024
O O12 0.500000 0.532803 0.250000
O O13 0.624745 0.561031 0.546485
O O14 0.000000 0.899382 0.250000
#
# Coordination Sequence:
#
# PCOD9272957 Si02
#       7
#     8   8   4   8   8   8   8
#     4  11  22  41  63  87 126 173 216 262 309 387
#     4   9  17  34  65  92 125 172 209 269 325 401
#     4  10  24  40  62  82 122 182 212 252 314 368
#     4   9  17  34  61  92 129 168 212 261 340 385
#     4  10  20  37  61  92 124 167 213 265 325 379
#     4  10  21  38  62  92 127 164 213 267 325 376
#     4  10  21  34  59  93 130 160 205 273 330 380
#
# _framework density 22.647717
#
# number of rings (size 3 to 8) (size 9 to 14) (size 15 to 20)
#    0.000    2.154    3.077    0.000    2.154    3.077 
#    0.000    3.077    8.462    0.000    0.000    0.000 
#    0.000    1.538    0.000    0.000    0.000    0.000 
#
# Total GULP energy -145145.024858 kJ/mol
# GULP energy per Si atom -5582.500956 kJ/mol
# Density = 2.259617 g / cm^3
# Si number density = 22.647717 Si / 1000 Ang^3
#
#
#
# Elastic Constant Matrix: (Units=GPa)
#
#
# Indices 1 2 3 4 5 6 
#
# 1 56.3528 24.9019 38.5977 0.0000 -3.1888 0.0000
# 2 24.9019 80.6228 24.8829 0.0000 11.8991 0.0000
# 3 38.5977 24.8829 87.8582 0.0000 -5.8877 0.0000
# 4 0.0000 0.0000 0.0000 28.9746 0.0000 -12.8560
# 5 -3.1888 11.8991 -5.8877 0.0000 37.4973 0.0000
# 6 0.0000 0.0000 0.0000 -12.8560 0.0000 -42.8379
#
#
#
# Elastic Compliance Matrix: (Units=1/GPa)
#
#
# Indices 1 2 3 4 5 6 
#
# 1 0.027434 -0.005674 -0.010276 0.000000 0.002520 0.000000
# 2 -0.005674 0.015747 -0.002359 0.000000 -0.005850 0.000000
# 3 -0.010276 -0.002359 0.016732 0.000000 0.002502 0.000000
# 4 0.000000 0.000000 0.000000 0.030457 0.000000 -0.009140
# 5 0.002520 -0.005850 0.002502 0.000000 0.029132 0.000000
# 6 0.000000 0.000000 0.000000 -0.009140 0.000000 -0.020601
#
#
# Mechanical properties :
#
#
# Convention : Reuss Voigt Hill
#
# Bulk Modulus (GPa) = 42.92829 44.62209 43.77519
# Shear Modulus (GPa) = 34.89516 13.82357 24.35937
#
# Velocity S-wave (km/s) = 3.92954 2.47325 3.28316
# Velocity P-wave (km/s) = 6.29160 5.28218 5.80886
#
# Compressibility (1/GPa) = 0.02329466
#
# Stress axis : x y z
#
# Youngs Moduli (GPa) = 36.45157 63.50223 59.76400
#
# Poissons Ratio (x) = 0.36029 0.61416
# Poissons Ratio (y) = 0.20681 0.14101
# Poissons Ratio (z) = 0.37459 0.14983
#
# Static dielectric constant tensor:
#      x y z
#    x 1.944100 0.000000 0.039700 
#    y 0.000000 1.804460 0.000000 
#    z 0.039700 0.000000 1.905250 
# 
# From -- ./inp_files/33655.got.cif
#   From: 2010.05.17/outbox.cif.g08.bks.cpg/sg15_17_cif.got.tgz:33655.got - 2010.06.03 18:47:42.
