data_PCOD9272247
_publ_section_title
;
Structure prediction by ZEFSAII (Michael W. Deem and Ramdas Pophale) SiO2 
 PCOD9272247
Probable space group: C 2/C
;
_chemical_formula_sum "Si O2"
_cell_formula_units_Z 48
_cell_length_a 12.093650
_cell_length_b 9.947919
_cell_length_c 25.512558
_cell_angle_alpha 90.000000
_cell_angle_beta 39.491455
_cell_angle_gamma 90.000000
_cell_volume 1951.980983
_symmetry_space_group_name_H-M "C 2/C"
_symmetry_group_IT_number 15
_symmetry_cell_setting 'monoclinic'
loop_
_space_group_symop_operation_xyz
x,y,z
-x,y,1/2-z
-x,-y,-z
x,-y,1/2+z
1/2+x,1/2+y,z
1/2-x,1/2+y,1/2-z
1/2-x,1/2-y,-z
1/2+x,1/2-y,1/2+z
loop_
_atom_site_type_symbol
_atom_site_label
_atom_site_fract_x
_atom_site_fract_y
_atom_site_fract_z
Si Si1 0.997086 0.422893 0.125876
Si Si2 0.003514 0.859701 0.834598
Si Si3 0.692961 0.685014 0.665061
Si Si4 0.730330 0.984552 0.695472
Si Si5 0.743179 0.773080 0.846906
Si Si6 0.604015 0.903909 0.502567
O O1 0.058584 0.270932 0.110996
O O2 0.826371 0.399815 0.151931
O O3 0.921852 0.491582 0.205770
O O4 0.136726 0.507960 0.042218
O O5 0.084324 0.974463 0.841301
O O6 0.172899 0.808897 0.739807
O O7 0.849636 0.867292 0.848586
O O8 0.500000 0.642133 0.750000
O O9 0.711685 0.841508 0.674190
O O10 0.743026 0.662009 0.586373
O O11 0.724427 0.113831 0.659978
O O12 0.540939 0.798283 0.926155
O O13 0.500000 0.000000 0.500000
#
# Coordination Sequence:
#
# PCOD9272247 Si02
#       6
#     8   8   8   8   8   8
#     4   9  19  38  62  85 124 163 206 272 316 384
#     4   9  19  36  63  97 120 166 217 258 331 395
#     4  10  23  39  61  88 123 169 209 263 333 389
#     4  10  20  37  64  91 128 162 218 270 313 400
#     4  10  20  36  66  92 124 174 210 264 334 381
#     4  10  21  41  62  89 129 161 213 267 322 387
#
# _framework density 24.590403999999999
#
# number of rings (size 3 to 8) (size 9 to 14) (size 15 to 20)
#    0.000    2.333    1.667    0.000    4.667    3.333 
#    0.000   10.000    7.333    0.000    0.000    0.000 
#    0.000    0.000    0.000    0.000    0.000    0.000 
#
# Total GULP energy -134168.846593 kJ/mol
# GULP energy per Si atom -5590.368608 kJ/mol
# Density = 2.453444 g / cm^3
# Si number density = 24.590404 Si / 1000 Ang^3
#
#
#
# Elastic Constant Matrix: (Units=GPa)
#
#
# Indices 1 2 3 4 5 6 
#
# 1 55.6664 22.0736 7.6474 0.0000 -7.4188 0.0000
# 2 22.0736 96.2643 30.0361 0.0000 4.9418 0.0000
# 3 7.6474 30.0361 124.7173 0.0000 1.2008 0.0000
# 4 0.0000 0.0000 0.0000 27.1958 0.0000 8.4837
# 5 -7.4188 4.9418 1.2008 0.0000 18.1122 0.0000
# 6 0.0000 0.0000 0.0000 8.4837 0.0000 28.7182
#
#
#
# Elastic Compliance Matrix: (Units=1/GPa)
#
#
# Indices 1 2 3 4 5 6 
#
# 1 0.021502 -0.005424 -0.000111 0.000000 0.010295 0.000000
# 2 -0.005424 0.012753 -0.002686 0.000000 -0.005523 0.000000
# 3 -0.000111 -0.002686 0.008671 0.000000 0.000112 0.000000
# 4 0.000000 0.000000 0.000000 0.040503 0.000000 -0.011965
# 5 0.010295 -0.005523 0.000112 0.000000 0.060928 0.000000
# 6 0.000000 0.000000 0.000000 -0.011965 0.000000 0.038356
#
#
# Mechanical properties :
#
#
# Convention : Reuss Voigt Hill
#
# Bulk Modulus (GPa) = 37.75863 44.01801 40.88832
# Shear Modulus (GPa) = 24.04040 29.26463 26.65251
#
# Velocity S-wave (km/s) = 3.13010 3.45350 3.29577
# Velocity P-wave (km/s) = 5.33402 5.81735 5.58092
#
# Compressibility (1/GPa) = 0.02648401
#
# Stress axis : x y z
#
# Youngs Moduli (GPa) = 46.50649 78.41052 115.33134
#
# Poissons Ratio (x) = 0.42532 0.01283
# Poissons Ratio (y) = 0.25227 0.30974
# Poissons Ratio (z) = 0.00517 0.21058
#
# Static dielectric constant tensor:
#      x y z
#    x 2.060480 0.000000 -0.003380 
#    y 0.000000 1.981490 0.000000 
#    z -0.003380 0.000000 1.922940 
# 
# From -- ./inp_files/313528.got.cif
#   From: 2010.05.17/outbox.cif.g08.bks.cpg/sg15_157_cif.got.tgz:313528.got - 2010.06.03 18:47:42.
