data_PCOD9272947
_publ_section_title
;
Structure prediction by ZEFSAII (Michael W. Deem and Ramdas Pophale) SiO2 
 PCOD9272947
Probable space group: C 2/C
;
_chemical_formula_sum "Si O2"
_cell_formula_units_Z 56
_cell_length_a 14.239098
_cell_length_b 13.320562
_cell_length_c 16.524230
_cell_angle_alpha 90.000000
_cell_angle_beta 63.004918
_cell_angle_gamma 90.000000
_cell_volume 2792.711894
_symmetry_space_group_name_H-M "C 2/C"
_symmetry_group_IT_number 15
_symmetry_cell_setting 'monoclinic'
loop_
_space_group_symop_operation_xyz
x,y,z
-x,y,1/2-z
-x,-y,-z
x,-y,1/2+z
1/2+x,1/2+y,z
1/2-x,1/2+y,1/2-z
1/2-x,1/2-y,-z
1/2+x,1/2-y,1/2+z
loop_
_atom_site_type_symbol
_atom_site_label
_atom_site_fract_x
_atom_site_fract_y
_atom_site_fract_z
Si Si1 0.575743 0.991138 0.143093
Si Si2 0.989237 0.882622 0.491875
Si Si3 0.470211 0.187957 0.938361
Si Si4 0.255910 0.368009 0.522719
Si Si5 0.601737 0.098471 0.369212
Si Si6 0.413007 0.699528 0.713078
Si Si7 0.206760 0.404366 0.361036
O O1 0.500000 0.996779 0.250000
O O2 0.582333 0.873188 0.115826
O O3 0.674823 0.066006 0.108513
O O4 0.508876 0.040637 0.096609
O O5 0.026972 0.808348 0.549378
O O6 0.866153 0.869024 0.524028
O O7 0.045466 0.849703 0.386179
O O8 0.000000 0.000000 0.500000
O O9 0.593602 0.152578 0.897511
O O10 0.404079 0.149149 0.041308
O O11 0.250000 0.250000 0.500000
O O12 0.241516 0.418691 0.440433
O O13 0.603096 0.183986 0.301728
O O14 0.689334 0.013571 0.328989
O O15 0.500000 0.688212 0.750000
O O16 0.301600 0.654358 0.782388
#
# Coordination Sequence:
#
# PCOD9272947 Si02
#       7
#     8   8   8   8   8   8   8
#     4  11  22  35  63  97 123 157 212 263 304 368
#     4  11  25  42  62  87 128 167 200 251 320 381
#     4  10  20  41  61  87 124 162 201 256 321 363
#     4  12  21  39  66  93 120 164 209 257 308 367
#     4  10  20  37  61  91 126 156 198 261 317 358
#     4  11  23  37  62  95 119 157 216 260 293 369
#     4  11  20  36  64  93 121 158 203 255 312 357
#
# _framework density 20.052194
#
# number of rings (size 3 to 8) (size 9 to 14) (size 15 to 20)
#    0.000    1.143    5.714    2.143    2.000    3.429 
#    0.000    1.429    6.286    0.000    0.000    0.000 
#    0.000    0.000    0.000    0.000    0.000    0.000 
#
# Total GULP energy -156056.650568 kJ/mol
# GULP energy per Si atom -5573.451806 kJ/mol
# Density = 2.000655 g / cm^3
# Si number density = 20.052194 Si / 1000 Ang^3
#
#
#
# Elastic Constant Matrix: (Units=GPa)
#
#
# Indices 1 2 3 4 5 6 
#
# 1 32.3546 34.7225 12.0161 0.0000 -16.2231 0.0000
# 2 34.7225 175.8172 43.1495 0.0000 -6.7127 0.0000
# 3 12.0161 43.1495 96.8160 0.0000 -11.1896 0.0000
# 4 0.0000 0.0000 0.0000 20.2318 0.0000 2.6754
# 5 -16.2231 -6.7127 -11.1896 0.0000 25.2826 0.0000
# 6 0.0000 0.0000 0.0000 2.6754 0.0000 27.6981
#
#
#
# Elastic Compliance Matrix: (Units=1/GPa)
#
#
# Indices 1 2 3 4 5 6 
#
# 1 0.060345 -0.010915 0.001597 0.000000 0.036531 0.000000
# 2 -0.010915 0.008366 -0.003084 0.000000 -0.006148 0.000000
# 3 0.001597 -0.003084 0.012151 0.000000 0.005584 0.000000
# 4 0.000000 0.000000 0.000000 0.050067 0.000000 -0.004836
# 5 0.036531 -0.006148 0.005584 0.000000 0.063833 0.000000
# 6 0.000000 0.000000 0.000000 -0.004836 0.000000 0.036571
#
#
# Mechanical properties :
#
#
# Convention : Reuss Voigt Hill
#
# Bulk Modulus (GPa) = 17.83890 53.86268 35.85079
# Shear Modulus (GPa) = 18.19363 28.98246 23.58804
#
# Velocity S-wave (km/s) = 3.01543 3.80590 3.43349
# Velocity P-wave (km/s) = 4.58686 6.79947 5.79966
#
# Compressibility (1/GPa) = 0.05605726
#
# Stress axis : x y z
#
# Youngs Moduli (GPa) = 16.57130 119.53757 82.30055
#
# Poissons Ratio (x) = 1.30475 -0.13144
# Poissons Ratio (y) = 0.18087 0.25384
# Poissons Ratio (z) = -0.02647 0.36869
#
# Static dielectric constant tensor:
#      x y z
#    x 1.741350 0.000000 -0.002070 
#    y 0.000000 1.782940 0.000000 
#    z -0.002070 0.000000 1.735420 
# 
# From -- ./inp_files/210549.got.cif
#   From: 2010.05.17/outbox.cif.g08.bks.cpg/sg15_106_cif.got.tgz:210549.got - 2010.06.03 18:47:42.
