data_PCOD9272756
_publ_section_title
;
Structure prediction by ZEFSAII (Michael W. Deem and Ramdas Pophale) SiO2 
 PCOD9272756
Probable space group: C 2/C
;
_chemical_formula_sum "Si O2"
_cell_formula_units_Z 44
_cell_length_a 14.361461
_cell_length_b 7.920789
_cell_length_c 19.546250
_cell_angle_alpha 90.000000
_cell_angle_beta 67.767693
_cell_angle_gamma 90.000000
_cell_volume 2058.167841
_symmetry_space_group_name_H-M "C 2/C"
_symmetry_group_IT_number 15
_symmetry_cell_setting 'monoclinic'
loop_
_space_group_symop_operation_xyz
x,y,z
-x,y,1/2-z
-x,-y,-z
x,-y,1/2+z
1/2+x,1/2+y,z
1/2-x,1/2+y,1/2-z
1/2-x,1/2-y,-z
1/2+x,1/2-y,1/2+z
loop_
_atom_site_type_symbol
_atom_site_label
_atom_site_fract_x
_atom_site_fract_y
_atom_site_fract_z
Si Si1 0.357147 0.878671 0.206606
Si Si2 0.037844 0.387447 0.926199
Si Si3 0.976472 0.038924 0.895492
Si Si4 0.000000 0.873393 0.750000
Si Si5 0.819920 0.154308 0.532501
Si Si6 0.209175 0.926594 0.847045
O O1 0.415867 0.747826 0.239507
O O2 0.280886 0.989440 0.271451
O O3 0.296670 0.770798 0.166573
O O4 0.436053 0.993993 0.144581
O O5 0.137694 0.291623 0.925718
O O6 0.967167 0.233798 0.920427
O O7 0.000000 0.500000 0.000000
O O8 0.093670 0.988857 0.871398
O O9 0.954322 0.988997 0.823261
O O10 0.912451 0.924916 0.964760
O O11 0.750000 0.250000 0.500000
O O12 0.763084 0.002861 0.587328
#
# Coordination Sequence:
#
# PCOD9272756 Si02
#       6
#     8   8   8   4   8   8
#     4  11  22  39  62  91 123 162 206 258 310 370
#     4  11  22  40  63  89 122 163 205 254 315 374
#     4  10  21  39  62  87 121 164 204 251 310 369
#     4  10  22  40  60  88 122 158 206 262 308 364
#     4  11  22  40  62  88 121 162 207 258 306 365
#     4  10  20  37  60  86 120 161 202 248 309 369
#
# _framework density 21.378236999999999
#
# number of rings (size 3 to 8) (size 9 to 14) (size 15 to 20)
#    0.000    1.455    0.000    8.727    0.000    2.182 
#    0.000    9.091    0.000    0.000    0.000    0.000 
#    0.000    0.000    0.000    0.000    0.000    0.000 
#
# Total GULP energy -122904.987776 kJ/mol
# GULP energy per Si atom -5586.590353 kJ/mol
# Density = 2.132958 g / cm^3
# Si number density = 21.378237 Si / 1000 Ang^3
#
#
#
# Elastic Constant Matrix: (Units=GPa)
#
#
# Indices 1 2 3 4 5 6 
#
# 1 37.0895 22.9338 11.1880 0.0000 3.0556 0.0000
# 2 22.9338 96.0261 29.4815 0.0000 2.9321 0.0001
# 3 11.1880 29.4815 109.0404 0.0000 -7.8129 0.0000
# 4 0.0000 0.0000 0.0000 27.0443 0.0000 -4.0862
# 5 3.0556 2.9321 -7.8129 0.0000 39.2153 0.0000
# 6 0.0000 0.0001 0.0000 -4.0862 0.0000 30.0733
#
#
#
# Elastic Compliance Matrix: (Units=1/GPa)
#
#
# Indices 1 2 3 4 5 6 
#
# 1 0.032002 -0.007106 -0.001525 0.000000 -0.002266 0.000000
# 2 -0.007106 0.013020 -0.002862 0.000000 -0.000990 0.000000
# 3 -0.001525 -0.002862 0.010272 0.000000 0.002379 0.000000
# 4 0.000000 0.000000 0.000000 0.037751 0.000000 0.005129
# 5 -0.002266 -0.000990 0.002379 0.000000 0.026225 0.000000
# 6 0.000000 0.000000 0.000000 0.005129 0.000000 0.033949
#
#
# Mechanical properties :
#
#
# Convention : Reuss Voigt Hill
#
# Bulk Modulus (GPa) = 30.95152 41.04027 35.99590
# Shear Modulus (GPa) = 26.74178 31.17011 28.95594
#
# Velocity S-wave (km/s) = 3.54063 3.82256 3.68429
# Velocity P-wave (km/s) = 5.58786 6.22266 5.91378
#
# Compressibility (1/GPa) = 0.03230859
#
# Stress axis : x y z
#
# Youngs Moduli (GPa) = 31.24794 76.80606 97.35532
#
# Poissons Ratio (x) = 0.54576 0.14844
# Poissons Ratio (y) = 0.22204 0.27864
# Poissons Ratio (z) = 0.04764 0.21982
#
# Static dielectric constant tensor:
#      x y z
#    x 1.807000 0.000000 0.046190 
#    y 0.000000 1.806110 0.000000 
#    z 0.046190 0.000000 1.781110 
# 
# From -- ./inp_files/202551.got.cif
#   From: 2010.05.17/outbox.cif.g08.bks.cpg/sg15_102_cif.got.tgz:202551.got - 2010.06.03 18:47:42.
