data_PCOD9272906
_publ_section_title
;
Structure prediction by ZEFSAII (Michael W. Deem and Ramdas Pophale) SiO2 
 PCOD9272906
Probable space group: C 2/C
;
_chemical_formula_sum "Si O2"
_cell_formula_units_Z 56
_cell_length_a 24.950083
_cell_length_b 19.662569
_cell_length_c 18.144702
_cell_angle_alpha 90.000000
_cell_angle_beta 163.176316
_cell_angle_gamma 90.000000
_cell_volume 2576.332296
_symmetry_space_group_name_H-M "C 2/C"
_symmetry_group_IT_number 15
_symmetry_cell_setting 'monoclinic'
loop_
_space_group_symop_operation_xyz
x,y,z
-x,y,1/2-z
-x,-y,-z
x,-y,1/2+z
1/2+x,1/2+y,z
1/2-x,1/2+y,1/2-z
1/2-x,1/2-y,-z
1/2+x,1/2-y,1/2+z
loop_
_atom_site_type_symbol
_atom_site_label
_atom_site_fract_x
_atom_site_fract_y
_atom_site_fract_z
Si Si1 0.837892 0.196047 0.674024
Si Si2 0.307259 0.178418 0.540765
Si Si3 0.772059 0.066959 0.653013
Si Si4 0.060968 0.427407 0.167147
Si Si5 0.674568 0.307340 0.535736
Si Si6 0.521150 0.917338 0.606658
Si Si7 0.184700 0.082585 0.259317
O O1 0.750000 0.250000 0.500000
O O2 0.755427 0.120509 0.564539
O O3 0.773561 0.234542 0.662606
O O4 0.058044 0.189758 0.957214
O O5 0.500000 0.185598 0.750000
O O6 0.250000 0.250000 0.500000
O O7 0.329378 0.123573 0.635832
O O8 0.180990 0.144520 0.311505
O O9 0.625958 0.091490 0.521846
O O10 0.752893 0.986573 0.614619
O O11 0.981614 0.073801 0.958625
O O12 0.101911 0.507504 0.229070
O O13 0.084891 0.416547 0.111582
O O14 0.845417 0.414891 0.908283
O O15 0.500000 0.313785 0.250000
O O16 0.819737 0.362907 0.700743
#
# Coordination Sequence:
#
# PCOD9272906 Si02
#       7
#     8   8   8   8   8   8   8
#     4  10  21  36  54  81 117 154 195 241 288 348
#     4  10  22  40  60  86 118 154 197 247 300 353
#     4  10  20  37  63  91 119 156 202 247 297 359
#     4   9  20  39  60  86 120 154 197 249 304 359
#     4  10  21  36  54  80 115 156 198 240 291 351
#     4  10  20  37  61  88 118 156 200 249 300 359
#     4   9  20  39  63  88 117 156 200 248 302 359
#
# _framework density 21.736326999999999
#
# number of rings (size 3 to 8) (size 9 to 14) (size 15 to 20)
#    0.000    2.286    0.000    1.714    0.000    6.857 
#    0.000   11.429    0.000    0.000    0.000    0.000 
#    0.000    0.000    0.000    0.000    0.000    0.000 
#
# Total GULP energy -156050.521800 kJ/mol
# GULP energy per Si atom -5573.232921 kJ/mol
# Density = 2.168685 g / cm^3
# Si number density = 21.736327 Si / 1000 Ang^3
#
#
#
# Elastic Constant Matrix: (Units=GPa)
#
#
# Indices 1 2 3 4 5 6 
#
# 1 66.8241 36.6469 -7.7277 0.0000 6.6202 0.0001
# 2 36.6469 104.3441 4.6233 0.0000 -4.5522 0.0000
# 3 -7.7277 4.6233 37.6838 0.0000 5.9076 0.0002
# 4 0.0000 0.0000 0.0000 29.1043 0.0000 1.6930
# 5 6.6202 -4.5522 5.9076 0.0000 27.7990 0.0001
# 6 0.0001 0.0000 0.0002 1.6930 0.0001 37.1034
#
#
#
# Elastic Compliance Matrix: (Units=1/GPa)
#
#
# Indices 1 2 3 4 5 6 
#
# 1 0.020811 -0.007927 0.006435 0.000000 -0.007622 0.000000
# 2 -0.007927 0.012752 -0.003945 0.000000 0.004814 0.000000
# 3 0.006435 -0.003945 0.029670 0.000000 -0.008484 0.000000
# 4 0.000000 0.000000 0.000000 0.034451 0.000000 -0.001572
# 5 -0.007622 0.004814 -0.008484 0.000000 0.040379 0.000000
# 6 0.000000 0.000000 0.000000 -0.001572 0.000000 0.027023
#
#
# Mechanical properties :
#
#
# Convention : Reuss Voigt Hill
#
# Bulk Modulus (GPa) = 19.09839 30.65970 24.87905
# Shear Modulus (GPa) = 25.85144 30.48865 28.17005
#
# Velocity S-wave (km/s) = 3.45239 3.74927 3.60389
# Velocity P-wave (km/s) = 4.96966 5.73399 5.36545
#
# Compressibility (1/GPa) = 0.05236042
#
# Stress axis : x y z
#
# Youngs Moduli (GPa) = 48.05170 78.41637 33.70394
#
# Poissons Ratio (x) = 0.62158 -0.21688
# Poissons Ratio (y) = 0.38089 0.13295
# Poissons Ratio (z) = -0.30921 0.30934
#
# Static dielectric constant tensor:
#      x y z
#    x 2.099470 0.000000 -0.020580 
#    y 0.000000 1.844150 0.000000 
#    z -0.020580 0.000000 1.797720 
# 
# From -- ./inp_files/220197.got.cif
#   From: 2010.05.17/outbox.cif.g08.bks.cpg/sg15_111_cif.got.tgz:220197.got - 2010.06.03 18:47:42.
