data_PCOD9272021
_publ_section_title
;
Structure prediction by ZEFSAII (Michael W. Deem and Ramdas Pophale) SiO2 
 PCOD9272021
Probable space group: C 2/C
;
_chemical_formula_sum "Si O2"
_cell_formula_units_Z 56
_cell_length_a 15.806285
_cell_length_b 9.622261
_cell_length_c 24.600766
_cell_angle_alpha 90.000000
_cell_angle_beta 136.911354
_cell_angle_gamma 90.000000
_cell_volume 2555.985211
_symmetry_space_group_name_H-M "C 2/C"
_symmetry_group_IT_number 15
_symmetry_cell_setting 'monoclinic'
loop_
_space_group_symop_operation_xyz
x,y,z
-x,y,1/2-z
-x,-y,-z
x,-y,1/2+z
1/2+x,1/2+y,z
1/2-x,1/2+y,1/2-z
1/2-x,1/2-y,-z
1/2+x,1/2-y,1/2+z
loop_
_atom_site_type_symbol
_atom_site_label
_atom_site_fract_x
_atom_site_fract_y
_atom_site_fract_z
Si Si1 0.000000 0.383457 0.750000
Si Si2 0.724319 0.439477 0.061313
Si Si3 0.022843 0.622046 0.687873
Si Si4 0.384790 0.819037 0.945848
Si Si5 0.627518 0.905277 0.117886
Si Si6 0.500000 0.372352 0.750000
Si Si7 0.773861 0.751010 0.107052
Si Si8 0.694777 0.525759 0.427580
O O1 0.926728 0.489892 0.754723
O O2 0.082962 0.289890 0.826651
O O3 0.871018 0.397083 0.120358
O O4 0.659945 0.339157 0.075074
O O5 0.712001 0.601280 0.070902
O O6 0.660069 0.429472 0.971728
O O7 0.075689 0.621631 0.652742
O O8 0.062030 0.761933 0.737480
O O9 0.356959 0.929680 0.885259
O O10 0.306009 0.877813 0.959650
O O11 0.526848 0.844484 0.027695
O O12 0.746400 0.822150 0.152527
O O13 0.409430 0.455882 0.667782
O O14 0.753613 0.868940 0.052393
#
# Coordination Sequence:
#
# PCOD9272021 Si02
#       8
#     4   8   8   8   8   4   8   8
#     4   9  21  42  60  84 122 168 204 248 300 382
#     4  11  20  39  68  91 115 165 218 251 298 370
#     4  10  20  39  66  90 116 162 213 252 303 369
#     4  10  20  36  63  89 121 157 201 256 305 369
#     4  10  21  39  61  91 128 155 198 263 324 354
#     4  11  21  34  64  94 120 160 218 254 298 384
#     4  10  23  39  60  90 131 158 205 261 315 365
#     4  11  20  36  62  93 119 160 207 263 300 359
#
# _framework density 21.90936
#
# number of rings (size 3 to 8) (size 9 to 14) (size 15 to 20)
#    0.000    1.714    2.857    2.143    0.000    0.571 
#    5.143    0.000    0.000    0.000    0.000    0.000 
#    0.000    0.000    0.000    0.000    0.000    0.000 
#
# Total GULP energy -156087.671819 kJ/mol
# GULP energy per Si atom -5574.559708 kJ/mol
# Density = 2.185949 g / cm^3
# Si number density = 21.909360 Si / 1000 Ang^3
#
#
#
# Elastic Constant Matrix: (Units=GPa)
#
#
# Indices 1 2 3 4 5 6 
#
# 1 72.2851 24.7575 9.0188 0.0000 -22.8321 0.0000
# 2 24.7575 140.7983 16.9409 0.0000 -7.2235 0.0000
# 3 9.0188 16.9409 60.7246 0.0000 -12.4642 0.0000
# 4 0.0000 0.0000 0.0000 17.2285 0.0000 0.6713
# 5 -22.8321 -7.2235 -12.4642 0.0000 26.3936 0.0000
# 6 0.0000 0.0000 0.0000 0.6713 0.0000 21.6394
#
#
#
# Elastic Compliance Matrix: (Units=1/GPa)
#
#
# Indices 1 2 3 4 5 6 
#
# 1 0.020069 -0.002806 0.001338 0.000000 0.017225 0.000000
# 2 -0.002806 0.007773 -0.002008 0.000000 -0.001248 0.000000
# 3 0.001338 -0.002008 0.018774 0.000000 0.009473 0.000000
# 4 0.000000 0.000000 0.000000 0.058114 0.000000 -0.001803
# 5 0.017225 -0.001248 0.009473 0.000000 0.056920 0.000000
# 6 0.000000 0.000000 0.000000 -0.001803 0.000000 0.046268
#
#
# Mechanical properties :
#
#
# Convention : Reuss Voigt Hill
#
# Bulk Modulus (GPa) = 25.21236 41.69359 33.45297
# Shear Modulus (GPa) = 21.92098 27.92503 24.92301
#
# Velocity S-wave (km/s) = 3.16655 3.57399 3.37642
# Velocity P-wave (km/s) = 4.99018 6.00854 5.52288
#
# Compressibility (1/GPa) = 0.03966309
#
# Stress axis : x y z
#
# Youngs Moduli (GPa) = 49.82830 128.64476 53.26572
#
# Poissons Ratio (x) = 0.36099 -0.07125
# Poissons Ratio (y) = 0.13982 0.10696
# Poissons Ratio (z) = -0.06666 0.25833
#
# Static dielectric constant tensor:
#      x y z
#    x 1.799480 0.000000 0.045130 
#    y 0.000000 1.837300 0.000000 
#    z 0.045130 0.000000 1.896960 
# 
# From -- ./inp_files/273290.got.cif
#   From: 2010.05.17/outbox.cif.g08.bks.cpg/sg15_137_cif.got.tgz:273290.got - 2010.06.03 18:47:42.
