data_PCOD9272343
_publ_section_title
;
Structure prediction by ZEFSAII (Michael W. Deem and Ramdas Pophale) SiO2 
 PCOD9272343
Probable space group: C 2/C
;
_chemical_formula_sum "Si O2"
_cell_formula_units_Z 36
_cell_length_a 14.397034
_cell_length_b 4.954584
_cell_length_c 31.880035
_cell_angle_alpha 90.000000
_cell_angle_beta 139.592052
_cell_angle_gamma 90.000000
_cell_volume 1474.093904
_symmetry_space_group_name_H-M "C 2/C"
_symmetry_group_IT_number 15
_symmetry_cell_setting 'monoclinic'
loop_
_space_group_symop_operation_xyz
x,y,z
-x,y,1/2-z
-x,-y,-z
x,-y,1/2+z
1/2+x,1/2+y,z
1/2-x,1/2+y,1/2-z
1/2-x,1/2-y,-z
1/2+x,1/2-y,1/2+z
loop_
_atom_site_type_symbol
_atom_site_label
_atom_site_fract_x
_atom_site_fract_y
_atom_site_fract_z
Si Si1 0.311753 0.874294 0.890220
Si Si2 0.123377 0.256922 0.012661
Si Si3 0.250000 0.250000 0.500000
Si Si4 0.322046 0.945449 0.795254
Si Si5 0.378629 0.113373 0.611893
O O1 0.301542 0.918817 0.837756
O O2 0.173121 0.729251 0.862255
O O3 0.332620 0.141847 0.925857
O O4 0.455504 0.704721 0.950618
O O5 0.154471 0.510138 0.993670
O O6 0.229705 0.006954 0.038346
O O7 0.396376 0.328588 0.581127
O O8 0.224856 0.736588 0.737064
O O9 0.489535 0.917007 0.841160
#
# Coordination Sequence:
#
# PCOD9272343 Si02
#       5
#     8   8   4   8   8
#     4  10  24  44  70 109 140 186 248 310 381 450
#     4  10  21  41  73 108 143 177 240 322 388 441
#     4  10  20  36  72 108 138 182 230 312 394 432
#     4  12  31  51  73 104 152 209 254 304 362 461
#     4  11  24  43  73 103 145 192 243 315 380 449
#
# _framework density 24.421779000000001
#
# number of rings (size 3 to 8) (size 9 to 14) (size 15 to 20)
#    0.000    1.333    2.222    1.333    9.333    0.889 
#    0.000    0.000    0.000    0.000    0.000    0.000 
#    0.000    0.000    0.000    0.000    0.000    0.000 
#
# Total GULP energy -100403.664321 kJ/mol
# GULP energy per Si atom -5577.981351 kJ/mol
# Density = 2.436619 g / cm^3
# Si number density = 24.421779 Si / 1000 Ang^3
#
#
#
# Elastic Constant Matrix: (Units=GPa)
#
#
# Indices 1 2 3 4 5 6 
#
# 1 145.2903 54.0365 65.0865 0.0016 -44.9408 -0.0004
# 2 54.0365 51.0956 -2.2960 -0.0009 16.7916 0.0013
# 3 65.0865 -2.2960 95.6945 0.0025 -23.8845 -0.0003
# 4 0.0016 -0.0009 0.0025 30.9261 0.0004 2.8728
# 5 -44.9408 16.7916 -23.8845 0.0004 39.0572 -0.0002
# 6 -0.0004 0.0013 -0.0003 2.8728 -0.0002 45.8010
#
#
#
# Elastic Compliance Matrix: (Units=1/GPa)
#
#
# Indices 1 2 3 4 5 6 
#
# 1 -0.027422 0.044329 0.008358 0.000003 -0.045499 -0.000002
# 2 0.044329 -0.048453 -0.015793 -0.000003 0.062179 0.000002
# 3 0.008358 -0.015793 0.010009 -0.000002 0.022528 0.000001
# 4 0.000003 -0.000003 -0.000002 0.032525 0.000003 -0.002040
# 5 -0.045499 0.062179 0.022528 0.000003 -0.039706 -0.000002
# 6 -0.000002 0.000002 0.000001 -0.002040 -0.000002 0.021962
#
#
# Mechanical properties :
#
#
# Convention : Reuss Voigt Hill
#
# Bulk Modulus (GPa) = 126.23297 58.41494 92.32396
# Shear Modulus (GPa) = -40.90571 34.84042 -3.03265
#
# Velocity S-wave (km/s) = -4.09708 3.78115 -1.11556
# Velocity P-wave (km/s) = 5.42397 6.56002 6.01886
#
# Compressibility (1/GPa) = 0.00792186
#
# Stress axis : x y z
#
# Youngs Moduli (GPa) = -36.46699 -20.63877 99.91145
#
# Poissons Ratio (x) = 0.91489 -0.83510
# Poissons Ratio (y) = 1.61653 1.57791
# Poissons Ratio (z) = 0.30480 -0.32595
#
# Static dielectric constant tensor:
#      x y z
#    x 2.109650 0.000000 0.021520 
#    y 0.000000 2.145980 0.000000 
#    z 0.021520 0.000000 2.014860 
# 
# From -- ./inp_files/241468.got.cif
#   From: 2010.05.17/outbox.cif.g08.bks.cpg/sg15_121_cif.got.tgz:241468.got - 2010.06.03 18:47:42.
