data_PCOD9272527
_publ_section_title
;
Structure prediction by ZEFSAII (Michael W. Deem and Ramdas Pophale) SiO2 
 PCOD9272527
Probable space group: C 2/C
;
_chemical_formula_sum "Si O2"
_cell_formula_units_Z 48
_cell_length_a 15.741952
_cell_length_b 8.942805
_cell_length_c 17.231611
_cell_angle_alpha 90.000000
_cell_angle_beta 90.595026
_cell_angle_gamma 90.000000
_cell_volume 2425.687257
_symmetry_space_group_name_H-M "C 2/C"
_symmetry_group_IT_number 15
_symmetry_cell_setting 'monoclinic'
loop_
_space_group_symop_operation_xyz
x,y,z
-x,y,1/2-z
-x,-y,-z
x,-y,1/2+z
1/2+x,1/2+y,z
1/2-x,1/2+y,1/2-z
1/2-x,1/2-y,-z
1/2+x,1/2-y,1/2+z
loop_
_atom_site_type_symbol
_atom_site_label
_atom_site_fract_x
_atom_site_fract_y
_atom_site_fract_z
Si Si1 0.806896 0.724123 0.922121
Si Si2 0.759200 0.156530 0.922515
Si Si3 0.160477 0.585677 0.158136
Si Si4 0.170039 0.595751 0.340428
Si Si5 0.566646 0.528291 0.068711
Si Si6 0.502971 0.731647 0.841912
O O1 0.814862 0.553389 0.895383
O O2 0.755597 0.809208 0.853521
O O3 0.899806 0.801910 0.927870
O O4 0.750000 0.750000 0.000000
O O5 0.775877 0.276043 0.854745
O O6 0.843543 0.057870 0.937434
O O7 0.683752 0.047624 0.895484
O O8 0.750000 0.250000 0.000000
O O9 0.158235 0.550831 0.250167
O O10 0.070442 0.655615 0.130507
O O11 0.093677 0.703105 0.366870
O O12 0.519904 0.438494 0.137058
O O13 0.500000 0.500000 0.000000
O O14 0.500000 0.741380 0.750000
#
# Coordination Sequence:
#
# PCOD9272527 Si02
#       6
#     8   8   8   8   8   8
#     4  11  22  37  58  85 113 146 188 232 277 333
#     4  10  21  36  55  81 110 143 184 228 275 328
#     4  10  20  37  58  81 112 146 184 231 278 331
#     4  10  20  37  58  82 109 146 186 228 279 332
#     4  10  21  37  55  79 110 146 183 224 278 331
#     4   9  20  38  58  80 112 147 184 231 281 329
#
# _framework density 19.788207
#
# number of rings (size 3 to 8) (size 9 to 14) (size 15 to 20)
#    0.000    2.000    0.000    4.000    0.000    2.667 
#    0.000    8.333    0.000    0.000    0.000    0.000 
#    0.000    0.000    0.000    0.000    0.000    0.000 
#
# Total GULP energy -133708.819700 kJ/mol
# GULP energy per Si atom -5571.200821 kJ/mol
# Density = 1.974317 g / cm^3
# Si number density = 19.788207 Si / 1000 Ang^3
#
#
#
# Elastic Constant Matrix: (Units=GPa)
#
#
# Indices 1 2 3 4 5 6 
#
# 1 73.4099 20.4037 12.4317 0.0000 13.0862 0.0000
# 2 20.4037 81.4020 12.2855 0.0000 0.7769 0.0000
# 3 12.4317 12.2855 55.4058 0.0000 1.4619 0.0000
# 4 0.0000 0.0000 0.0000 37.9601 0.0000 -3.0814
# 5 13.0862 0.7769 1.4619 0.0000 28.4597 0.0000
# 6 0.0000 0.0000 0.0000 -3.0814 0.0000 33.2404
#
#
#
# Elastic Compliance Matrix: (Units=1/GPa)
#
#
# Indices 1 2 3 4 5 6 
#
# 1 0.016387 -0.003633 -0.002679 0.000000 -0.007298 0.000000
# 2 -0.003633 0.013517 -0.002219 0.000000 0.001416 0.000000
# 3 -0.002679 -0.002219 0.019134 0.000000 0.000309 0.000000
# 4 0.000000 0.000000 0.000000 0.026543 0.000000 0.002461
# 5 -0.007298 0.001416 0.000309 0.000000 0.038439 0.000000
# 6 0.000000 0.000000 0.000000 0.002461 0.000000 0.030312
#
#
# Mechanical properties :
#
#
# Convention : Reuss Voigt Hill
#
# Bulk Modulus (GPa) = 31.27489 33.38439 32.32964
# Shear Modulus (GPa) = 29.06106 30.93849 29.99978
#
# Velocity S-wave (km/s) = 3.83640 3.95838 3.89786
# Velocity P-wave (km/s) = 5.95508 6.14810 6.05236
#
# Compressibility (1/GPa) = 0.03197453
#
# Stress axis : x y z
#
# Youngs Moduli (GPa) = 61.02550 73.98156 52.26410
#
# Poissons Ratio (x) = 0.26881 0.13999
# Poissons Ratio (y) = 0.22173 0.11599
# Poissons Ratio (z) = 0.16346 0.16419
#
# Static dielectric constant tensor:
#      x y z
#    x 1.730290 0.000000 -0.022030 
#    y 0.000000 1.763330 0.000000 
#    z -0.022030 0.000000 1.723270 
# 
# From -- ./inp_files/208635.got.cif
#   From: 2010.05.17/outbox.cif.g08.bks.cpg/sg15_105_cif.got.tgz:208635.got - 2010.06.03 18:47:42.
