data_PCOD9272680
_publ_section_title
;
Structure prediction by ZEFSAII (Michael W. Deem and Ramdas Pophale) SiO2 
 PCOD9272680
Probable space group: C 2/C
;
_chemical_formula_sum "Si O2"
_cell_formula_units_Z 40
_cell_length_a 11.626832
_cell_length_b 9.069298
_cell_length_c 18.551553
_cell_angle_alpha 90.000000
_cell_angle_beta 49.368981
_cell_angle_gamma 90.000000
_cell_volume 1484.604240
_symmetry_space_group_name_H-M "C 2/C"
_symmetry_group_IT_number 15
_symmetry_cell_setting 'monoclinic'
loop_
_space_group_symop_operation_xyz
x,y,z
-x,y,1/2-z
-x,-y,-z
x,-y,1/2+z
1/2+x,1/2+y,z
1/2-x,1/2+y,1/2-z
1/2-x,1/2-y,-z
1/2+x,1/2-y,1/2+z
loop_
_atom_site_type_symbol
_atom_site_label
_atom_site_fract_x
_atom_site_fract_y
_atom_site_fract_z
Si Si1 0.740942 0.400630 0.405465
Si Si2 0.037797 0.259748 0.089825
Si Si3 0.926357 0.312341 0.624825
Si Si4 0.312818 0.967020 0.061202
Si Si5 0.195277 0.281909 0.674881
O O1 0.888630 0.299325 0.363458
O O2 0.620310 0.380701 0.520333
O O3 0.654866 0.333073 0.372332
O O4 0.783081 0.568111 0.377742
O O5 0.860463 0.245588 0.148355
O O6 0.117701 0.395583 0.012986
O O7 0.833832 0.452137 0.630439
O O8 0.918225 0.313471 0.713461
O O9 0.085239 0.338774 0.519401
O O10 0.169813 0.865182 0.137587
#
# Coordination Sequence:
#
# PCOD9272680 Si02
#       5
#     8   8   8   8   8
#     4  10  22  36  61  92 116 158 215 246 312 370
#     4  10  21  40  59  86 125 161 198 266 304 368
#     4  10  20  37  59  90 120 161 200 254 312 369
#     4  10  20  41  57  85 132 157 199 262 317 360
#     4  12  20  36  65  87 116 169 205 248 312 382
#
# _framework density 26.943207999999998
#
# number of rings (size 3 to 8) (size 9 to 14) (size 15 to 20)
#    0.000    1.600    6.000    1.800    0.000    1.600 
#    0.000    0.000    0.000    0.000    0.000    0.000 
#    0.000    0.000    0.000    0.000    0.000    0.000 
#
# Total GULP energy -111436.028538 kJ/mol
# GULP energy per Si atom -5571.801427 kJ/mol
# Density = 2.688188 g / cm^3
# Si number density = 26.943208 Si / 1000 Ang^3
#
#
#
# Elastic Constant Matrix: (Units=GPa)
#
#
# Indices 1 2 3 4 5 6 
#
# 1 60.9394 18.8222 3.1604 0.0000 -17.4505 0.0000
# 2 18.8222 124.4165 53.8099 0.0000 -6.0290 0.0000
# 3 3.1604 53.8099 113.6780 0.0000 3.9260 0.0000
# 4 0.0000 0.0000 0.0000 16.5016 0.0000 -5.0234
# 5 -17.4505 -6.0290 3.9260 0.0000 39.0137 0.0000
# 6 0.0000 0.0000 0.0000 -5.0234 0.0000 11.1130
#
#
#
# Elastic Compliance Matrix: (Units=1/GPa)
#
#
# Indices 1 2 3 4 5 6 
#
# 1 0.019618 -0.002774 0.000481 0.000000 0.008298 0.000000
# 2 -0.002774 0.010665 -0.005003 0.000000 0.000911 0.000000
# 3 0.000481 -0.005003 0.011210 0.000000 -0.001686 0.000000
# 4 0.000000 0.000000 0.000000 0.070270 0.000000 0.031764
# 5 0.008298 0.000911 -0.001686 0.000000 0.029654 0.000000
# 6 0.000000 0.000000 0.000000 0.031764 0.000000 0.104343
#
#
# Mechanical properties :
#
#
# Convention : Reuss Voigt Hill
#
# Bulk Modulus (GPa) = 37.17272 50.06878 43.62075
# Shear Modulus (GPa) = 18.56546 28.20841 23.38694
#
# Velocity S-wave (km/s) = 2.62784 3.23918 2.94939
# Velocity P-wave (km/s) = 4.79938 5.71079 5.27481
#
# Compressibility (1/GPa) = 0.02690145
#
# Stress axis : x y z
#
# Youngs Moduli (GPa) = 50.97442 93.76542 89.20896
#
# Poissons Ratio (x) = 0.26008 -0.04291
# Poissons Ratio (y) = 0.14139 0.44628
# Poissons Ratio (z) = -0.02452 0.46907
#
# Static dielectric constant tensor:
#      x y z
#    x 2.467610 0.000000 0.088670 
#    y 0.000000 2.141230 0.000000 
#    z 0.088670 0.000000 2.123650 
# 
# From -- ./inp_files/247235.got.cif
#   From: 2010.05.17/outbox.cif.g08.bks.cpg/sg15_124_cif.got.tgz:247235.got - 2010.06.03 18:47:42.
