data_PCOD9272923
_publ_section_title
;
Structure prediction by ZEFSAII (Michael W. Deem and Ramdas Pophale) SiO2 
 PCOD9272923
Probable space group: C 2/C
;
_chemical_formula_sum "Si O2"
_cell_formula_units_Z 48
_cell_length_a 13.953355
_cell_length_b 30.097932
_cell_length_c 13.861517
_cell_angle_alpha 90.000000
_cell_angle_beta 159.638398
_cell_angle_gamma 90.000000
_cell_volume 2025.513775
_symmetry_space_group_name_H-M "C 2/C"
_symmetry_group_IT_number 15
_symmetry_cell_setting 'monoclinic'
loop_
_space_group_symop_operation_xyz
x,y,z
-x,y,1/2-z
-x,-y,-z
x,-y,1/2+z
1/2+x,1/2+y,z
1/2-x,1/2+y,1/2-z
1/2-x,1/2-y,-z
1/2+x,1/2-y,1/2+z
loop_
_atom_site_type_symbol
_atom_site_label
_atom_site_fract_x
_atom_site_fract_y
_atom_site_fract_z
Si Si1 0.374382 0.781062 0.944376
Si Si2 0.871375 0.595351 0.819263
Si Si3 0.019629 0.281050 0.872186
Si Si4 0.922203 0.865503 0.782011
Si Si5 0.599695 0.000167 0.705711
Si Si6 0.891747 0.056589 0.743852
O O1 0.408286 0.800991 0.867030
O O2 0.229559 0.818339 0.870844
O O3 0.167357 0.739214 0.747474
O O4 0.693984 0.634296 0.603731
O O5 0.819414 0.551300 0.705099
O O6 0.763188 0.586793 0.824756
O O7 0.194455 0.603967 0.118389
O O8 0.826881 0.237087 0.677841
O O9 0.000000 0.305142 0.750000
O O10 0.000000 0.881961 0.750000
O O11 0.500000 0.000000 0.500000
O O12 0.327434 0.980659 0.499113
O O13 0.857840 0.968358 0.966802
O O14 0.000000 0.080215 0.750000
#
# Coordination Sequence:
#
# PCOD9272923 Si02
#       6
#     8   8   8   8   8   8
#     4  10  21  39  61  84 113 148 193 250 305 363
#     4  11  23  42  60  87 128 159 199 255 306 362
#     4   8  14  27  50  78 104 131 167 216 275 339
#     4  12  26  41  61  87 117 160 206 255 314 368
#     4  10  20  37  61  89 124 168 209 250 295 351
#     4  11  22  38  64  95 127 166 210 251 301 366
#
# _framework density 23.697690999999999
#
# number of rings (size 3 to 8) (size 9 to 14) (size 15 to 20)
#    0.000    1.667    0.000    7.000    0.000    4.667 
#    0.000    1.667    0.000    2.000    0.000    0.000 
#    0.000    0.000    0.000    0.000    0.000    0.000 
#
# Total GULP energy -134095.728715 kJ/mol
# GULP energy per Si atom -5587.322030 kJ/mol
# Density = 2.364375 g / cm^3
# Si number density = 23.697691 Si / 1000 Ang^3
#
#
#
# Elastic Constant Matrix: (Units=GPa)
#
#
# Indices 1 2 3 4 5 6 
#
# 1 118.2505 14.8570 21.3571 -0.0015 16.9804 -0.0003
# 2 14.8570 43.7243 4.3369 -0.0004 4.7269 0.0000
# 3 21.3571 4.3369 111.7918 -0.0047 14.3458 -0.0008
# 4 -0.0015 -0.0004 -0.0047 25.2395 -0.0015 9.8077
# 5 16.9804 4.7269 14.3458 -0.0015 29.1188 -0.0003
# 6 -0.0003 0.0000 -0.0008 9.8077 -0.0003 17.8538
#
#
#
# Elastic Compliance Matrix: (Units=1/GPa)
#
#
# Indices 1 2 3 4 5 6 
#
# 1 0.009665 -0.002669 -0.001148 0.000000 -0.004637 0.000000
# 2 -0.002669 0.024037 -0.000130 0.000000 -0.002282 0.000000
# 3 -0.001148 -0.000130 0.009694 0.000002 -0.004085 -0.000001
# 4 0.000000 0.000000 0.000002 0.050373 0.000001 -0.027672
# 5 -0.004637 -0.002282 -0.004085 0.000001 0.039429 0.000000
# 6 0.000000 0.000000 -0.000001 -0.027672 0.000000 0.071212
#
#
# Mechanical properties :
#
#
# Convention : Reuss Voigt Hill
#
# Bulk Modulus (GPa) = 28.16683 39.42984 33.79833
# Shear Modulus (GPa) = 22.30772 29.99014 26.14893
#
# Velocity S-wave (km/s) = 3.07146 3.56129 3.32541
# Velocity P-wave (km/s) = 4.94876 5.79527 5.38866
#
# Compressibility (1/GPa) = 0.03550275
#
# Stress axis : x y z
#
# Youngs Moduli (GPa) = 103.46425 41.60260 103.15892
#
# Poissons Ratio (x) = 0.11103 0.11841
# Poissons Ratio (y) = 0.27614 0.01339
# Poissons Ratio (z) = 0.11876 0.00540
#
# Static dielectric constant tensor:
#      x y z
#    x 1.964550 0.000000 -0.018910 
#    y 0.000000 1.953990 0.000000 
#    z -0.018910 0.000000 1.867090 
# 
# From -- ./inp_files/157723.got.cif
#   From: 2010.05.17/outbox.cif.g08.bks.cpg/sg15_79_cif.got.tgz:157723.got - 2010.06.03 18:47:42.
