data_PCOD9272142
_publ_section_title
;
Structure prediction by ZEFSAII (Michael W. Deem and Ramdas Pophale) SiO2 
 PCOD9272142
Probable space group: C 2/C
;
_chemical_formula_sum "Si O2"
_cell_formula_units_Z 60
_cell_length_a 8.476536
_cell_length_b 29.626924
_cell_length_c 11.492059
_cell_angle_alpha 90.000000
_cell_angle_beta 104.072883
_cell_angle_gamma 90.000000
_cell_volume 2799.424936
_symmetry_space_group_name_H-M "C 2/C"
_symmetry_group_IT_number 15
_symmetry_cell_setting 'monoclinic'
loop_
_space_group_symop_operation_xyz
x,y,z
-x,y,1/2-z
-x,-y,-z
x,-y,1/2+z
1/2+x,1/2+y,z
1/2-x,1/2+y,1/2-z
1/2-x,1/2-y,-z
1/2+x,1/2-y,1/2+z
loop_
_atom_site_type_symbol
_atom_site_label
_atom_site_fract_x
_atom_site_fract_y
_atom_site_fract_z
Si Si1 0.914522 0.047991 0.974772
Si Si2 0.585282 0.913188 0.388020
Si Si3 0.089531 0.134500 0.104207
Si Si4 0.663252 0.822463 0.713742
Si Si5 0.678674 0.231249 0.740051
Si Si6 0.203655 0.644189 0.583786
Si Si7 0.238797 0.177064 0.524035
Si Si8 0.000000 0.907094 0.250000
O O1 0.718397 0.051199 0.959149
O O2 0.940500 0.063330 0.846561
O O3 0.011547 0.085249 0.068921
O O4 0.000000 0.000000 0.000000
O O5 0.500000 0.925395 0.250000
O O6 0.437439 0.893790 0.438339
O O7 0.695057 0.867881 0.399767
O O8 0.190120 0.141954 0.239579
O O9 0.942181 0.168600 0.053701
O O10 0.224648 0.146846 0.031665
O O11 0.500000 0.836548 0.750000
O O12 0.721486 0.774937 0.779221
O O13 0.652699 0.815897 0.572321
O O14 0.500000 0.245200 0.750000
O O15 0.662553 0.191166 0.642203
O O16 0.758493 0.213331 0.874009
O O17 0.354106 0.624009 0.682383
#
# Coordination Sequence:
#
# PCOD9272142 Si02
#       8
#     8   8   8   8   8   8   8   4
#     4  10  22  42  68  99 127 162 215 268 336 403
#     4  11  18  38  69  95 124 164 212 266 324 382
#     4  10  24  43  66  89 132 172 207 269 340 399
#     4  12  28  42  58  88 135 179 224 268 321 392
#     4  12  23  38  63  94 125 166 227 275 316 384
#     4  11  19  37  68  95 125 166 219 261 329 372
#     4  11  21  42  63  90 125 177 215 268 330 386
#     4  10  20  36  64  92 130 160 202 270 320 398
#
# _framework density 21.432971999999999
#
# number of rings (size 3 to 8) (size 9 to 14) (size 15 to 20)
#    0.000    1.067    4.000    4.000    2.800    0.533 
#    4.800    3.333    0.000    0.000    0.000    0.000 
#    0.000    0.000    0.000    0.000    0.000    0.000 
#
# Total GULP energy -167522.288342 kJ/mol
# GULP energy per Si atom -5584.076278 kJ/mol
# Density = 2.138419 g / cm^3
# Si number density = 21.432972 Si / 1000 Ang^3
#
#
#
# Elastic Constant Matrix: (Units=GPa)
#
#
# Indices 1 2 3 4 5 6 
#
# 1 121.5262 15.4031 31.2146 0.0000 17.1740 0.0000
# 2 15.4031 76.3737 35.0342 0.0000 22.7648 0.0000
# 3 31.2146 35.0342 81.8274 0.0000 11.4406 0.0000
# 4 0.0000 0.0000 0.0000 19.6600 0.0000 12.2925
# 5 17.1740 22.7648 11.4406 0.0000 41.8283 0.0000
# 6 0.0000 0.0000 0.0000 12.2925 0.0000 26.1030
#
#
#
# Elastic Compliance Matrix: (Units=1/GPa)
#
#
# Indices 1 2 3 4 5 6 
#
# 1 0.009498 0.000649 -0.003438 0.000000 -0.003312 0.000000
# 2 0.000649 0.018757 -0.007085 0.000000 -0.008537 0.000000
# 3 -0.003438 -0.007085 0.016458 0.000000 0.000766 0.000000
# 4 0.000000 0.000000 0.000000 0.072092 0.000000 -0.033950
# 5 -0.003312 -0.008537 0.000766 0.000000 0.029704 0.000000
# 6 0.000000 0.000000 0.000000 -0.033950 0.000000 0.054297
#
#
# Mechanical properties :
#
#
# Convention : Reuss Voigt Hill
#
# Bulk Modulus (GPa) = 40.05448 49.22568 44.64008
# Shear Modulus (GPa) = 21.84591 30.72329 26.28460
#
# Velocity S-wave (km/s) = 3.19606 3.79021 3.50575
# Velocity P-wave (km/s) = 5.68758 6.49395 6.10409
#
# Compressibility (1/GPa) = 0.02496600
#
# Stress axis : x y z
#
# Youngs Moduli (GPa) = 105.29050 53.31263 60.75892
#
# Poissons Ratio (x) = -0.03459 0.20887
# Poissons Ratio (y) = -0.06831 0.43046
# Poissons Ratio (z) = 0.36195 0.37771
#
# Static dielectric constant tensor:
#      x y z
#    x 1.824050 0.000000 0.002960 
#    y 0.000000 1.764990 0.000000 
#    z 0.002960 0.000000 1.846520 
# 
# From -- ./inp_files/82659.got.cif
#   From: 2010.05.17/outbox.cif.g08.bks.cpg/sg15_42_cif.got.tgz:82659.got - 2010.06.03 18:47:42.
