data_PCOD9272860
_publ_section_title
;
Structure prediction by ZEFSAII (Michael W. Deem and Ramdas Pophale) SiO2 
 PCOD9272860
Probable space group: C 2/C
;
_chemical_formula_sum "Si O2"
_cell_formula_units_Z 44
_cell_length_a 9.227591
_cell_length_b 10.376918
_cell_length_c 22.876268
_cell_angle_alpha 90.000000
_cell_angle_beta 69.063776
_cell_angle_gamma 90.000000
_cell_volume 2045.874040
_symmetry_space_group_name_H-M "C 2/C"
_symmetry_group_IT_number 15
_symmetry_cell_setting 'monoclinic'
loop_
_space_group_symop_operation_xyz
x,y,z
-x,y,1/2-z
-x,-y,-z
x,-y,1/2+z
1/2+x,1/2+y,z
1/2-x,1/2+y,1/2-z
1/2-x,1/2-y,-z
1/2+x,1/2-y,1/2+z
loop_
_atom_site_type_symbol
_atom_site_label
_atom_site_fract_x
_atom_site_fract_y
_atom_site_fract_z
Si Si1 0.337634 0.077894 0.434140
Si Si2 0.096109 0.692208 0.967362
Si Si3 0.882960 0.724290 0.104723
Si Si4 0.475739 0.733888 0.363706
Si Si5 0.000000 0.584986 0.750000
Si Si6 0.312507 0.515610 0.654389
O O1 0.241478 0.212009 0.439574
O O2 0.347088 0.066865 0.503503
O O3 0.512279 0.106145 0.387594
O O4 0.247687 0.983772 0.404691
O O5 0.012087 0.686388 0.917720
O O6 0.974060 0.753543 0.030985
O O7 0.704355 0.697112 0.117804
O O8 0.890063 0.844596 0.147866
O O9 0.521106 0.821565 0.302465
O O10 0.575266 0.603282 0.352006
O O11 0.157455 0.507212 0.715228
#
# Coordination Sequence:
#
# PCOD9272860 Si02
#       6
#     8   8   8   8   4   8
#     4   8  17  33  58  86 115 141 176 225 285 340
#     4   8  16  35  58  87 120 139 173 235 289 332
#     4   9  18  35  58  89 116 136 179 228 285 346
#     4  10  20  37  61  80 114 150 184 237 273 325
#     4  10  24  40  52  78 114 150 202 224 264 332
#     4  10  21  39  61  77 109 156 182 231 288 321
#
# _framework density 21.506699999999999
#
# number of rings (size 3 to 8) (size 9 to 14) (size 15 to 20)
#    1.091    1.818    0.000    0.545    0.000    5.818 
#    0.000   14.545    0.000    0.000    0.000    0.000 
#    0.000    0.000    0.000    0.000    0.000    0.000 
#
# Total GULP energy -122557.231891 kJ/mol
# GULP energy per Si atom -5570.783268 kJ/mol
# Density = 2.145775 g / cm^3
# Si number density = 21.506700 Si / 1000 Ang^3
#
#
#
# Elastic Constant Matrix: (Units=GPa)
#
#
# Indices 1 2 3 4 5 6 
#
# 1 116.1520 38.4296 25.6149 0.0000 -15.4555 0.0000
# 2 38.4296 63.0760 1.6348 0.0000 -20.0041 0.0000
# 3 25.6149 1.6348 60.7653 0.0000 -16.7350 0.0000
# 4 0.0000 0.0000 0.0000 23.6506 0.0000 -4.0471
# 5 -15.4555 -20.0041 -16.7350 0.0000 31.2510 0.0000
# 6 0.0000 0.0000 0.0000 -4.0471 0.0000 28.6678
#
#
#
# Elastic Compliance Matrix: (Units=1/GPa)
#
#
# Indices 1 2 3 4 5 6 
#
# 1 0.012162 -0.007888 -0.005453 0.000000 -0.001954 0.000000
# 2 -0.007888 0.025658 0.007136 0.000000 0.016344 0.000000
# 3 -0.005453 0.007136 0.022379 0.000000 0.013855 0.000000
# 4 0.000000 0.000000 0.000000 0.043329 0.000000 0.006117
# 5 -0.001954 0.016344 0.013855 0.000000 0.048914 0.000000
# 6 0.000000 0.000000 0.000000 0.006117 0.000000 0.035746
#
#
# Mechanical properties :
#
#
# Convention : Reuss Voigt Hill
#
# Bulk Modulus (GPa) = 20.92496 41.26133 31.09315
# Shear Modulus (GPa) = 23.09180 28.33482 25.71331
#
# Velocity S-wave (km/s) = 3.28029 3.63366 3.46149
# Velocity P-wave (km/s) = 4.90895 6.06891 5.51948
#
# Compressibility (1/GPa) = 0.04778981
#
# Stress axis : x y z
#
# Youngs Moduli (GPa) = 82.22583 38.97367 44.68465
#
# Poissons Ratio (x) = 0.30743 0.24365
# Poissons Ratio (y) = 0.64861 -0.31888
# Poissons Ratio (z) = 0.44835 -0.27812
#
# Static dielectric constant tensor:
#      x y z
#    x 1.808840 0.000000 0.031520 
#    y 0.000000 1.790640 0.000000 
#    z 0.031520 0.000000 1.781430 
# 
# From -- ./inp_files/230147.got.cif
#   From: 2010.05.17/outbox.cif.g08.bks.cpg/sg15_116_cif.got.tgz:230147.got - 2010.06.03 18:47:42.
