data_PCOD9272061
_publ_section_title
;
Structure prediction by ZEFSAII (Michael W. Deem and Ramdas Pophale) SiO2 
 PCOD9272061
Probable space group: C 2/C
;
_chemical_formula_sum "Si O2"
_cell_formula_units_Z 44
_cell_length_a 7.648629
_cell_length_b 21.828349
_cell_length_c 11.706503
_cell_angle_alpha 90.000000
_cell_angle_beta 62.778712
_cell_angle_gamma 90.000000
_cell_volume 1738.016198
_symmetry_space_group_name_H-M "C 2/C"
_symmetry_group_IT_number 15
_symmetry_cell_setting 'monoclinic'
loop_
_space_group_symop_operation_xyz
x,y,z
-x,y,1/2-z
-x,-y,-z
x,-y,1/2+z
1/2+x,1/2+y,z
1/2-x,1/2+y,1/2-z
1/2-x,1/2-y,-z
1/2+x,1/2-y,1/2+z
loop_
_atom_site_type_symbol
_atom_site_label
_atom_site_fract_x
_atom_site_fract_y
_atom_site_fract_z
Si Si1 0.275794 0.584790 0.408357
Si Si2 0.000000 0.023799 0.750000
Si Si3 0.752062 0.309864 0.421689
Si Si4 0.764505 0.355924 0.827101
Si Si5 0.312789 0.098656 0.546178
Si Si6 0.689386 0.784507 0.336787
O O1 0.408497 0.524189 0.369191
O O2 0.336388 0.631406 0.490036
O O3 0.294386 0.617215 0.278865
O O4 0.038523 0.575854 0.488130
O O5 0.185883 0.069590 0.687495
O O6 0.750000 0.250000 0.500000
O O7 0.681420 0.293859 0.316034
O O8 0.986968 0.317488 0.360094
O O9 0.674163 0.287424 0.863648
O O10 0.000000 0.344142 0.750000
O O11 0.746866 0.406560 0.933346
O O12 0.270368 0.171913 0.569835
#
# Coordination Sequence:
#
# PCOD9272061 Si02
#       6
#     8   4   8   8   8   8
#     4  10  23  44  65  94 129 170 222 271 321 379
#     4  12  26  44  70  90 132 184 226 264 310 400
#     4  10  20  36  63  94 129 165 210 274 320 381
#     4  10  21  39  66  94 132 170 205 275 337 383
#     4  10  24  44  61  97 132 171 219 266 326 387
#     4  10  21  37  63  96 132 164 210 271 334 386
#
# _framework density 25.316220000000001
#
# number of rings (size 3 to 8) (size 9 to 14) (size 15 to 20)
#    0.000    1.818    1.818    1.091    3.818    2.182 
#    3.273    0.000    0.000    0.000    0.000    0.000 
#    0.000    0.000    0.000    0.000    0.000    0.000 
#
# Total GULP energy -122487.863934 kJ/mol
# GULP energy per Si atom -5567.630179 kJ/mol
# Density = 2.525860 g / cm^3
# Si number density = 25.316220 Si / 1000 Ang^3
#
#
#
# Elastic Constant Matrix: (Units=GPa)
#
#
# Indices 1 2 3 4 5 6 
#
# 1 83.6559 9.9255 28.3986 0.0000 -23.3532 0.0000
# 2 9.9255 101.7514 28.5748 0.0000 -16.5049 0.0000
# 3 28.3986 28.5748 102.8373 0.0000 -7.8351 0.0000
# 4 0.0000 0.0000 0.0000 57.5623 0.0000 -11.8421
# 5 -23.3532 -16.5049 -7.8351 0.0000 45.2411 0.0000
# 6 0.0000 0.0000 0.0000 -11.8421 0.0000 -8.7322
#
#
#
# Elastic Compliance Matrix: (Units=1/GPa)
#
#
# Indices 1 2 3 4 5 6 
#
# 1 0.015267 0.000816 -0.003871 0.000000 0.007508 0.000000
# 2 0.000816 0.011253 -0.003047 0.000000 0.003998 0.000000
# 3 -0.003871 -0.003047 0.011555 0.000000 -0.001108 0.000000
# 4 0.000000 0.000000 0.000000 0.013583 0.000000 -0.018420
# 5 0.007508 0.003998 -0.001108 0.000000 0.027246 0.000000
# 6 0.000000 0.000000 0.000000 -0.018420 0.000000 -0.089538
#
#
# Mechanical properties :
#
#
# Convention : Reuss Voigt Hill
#
# Bulk Modulus (GPa) = 38.65460 46.89360 42.77410
# Shear Modulus (GPa) = 490.52463 33.57063 262.04763
#
# Velocity S-wave (km/s) = 13.93484 3.64545 10.18501
# Velocity P-wave (km/s) = 16.55923 6.02349 12.45975
#
# Compressibility (1/GPa) = 0.02587014
#
# Stress axis : x y z
#
# Youngs Moduli (GPa) = 65.50186 88.86775 86.54095
#
# Poissons Ratio (x) = -0.07248 0.33496
# Poissons Ratio (y) = -0.05342 0.26372
# Poissons Ratio (z) = 0.25353 0.27081
#
# Static dielectric constant tensor:
#      x y z
#    x 1.666500 0.000000 -0.003670 
#    y 0.000000 2.013240 0.000000 
#    z -0.003670 0.000000 2.289490 
# 
# From -- ./inp_files/79667.got.cif
#   From: 2010.05.17/outbox.cif.g08.bks.cpg/sg15_40_cif.got.tgz:79667.got - 2010.06.03 18:47:42.
