data_PCOD9272450
_publ_section_title
;
Structure prediction by ZEFSAII (Michael W. Deem and Ramdas Pophale) SiO2 
 PCOD9272450
Probable space group: C 2/C
;
_chemical_formula_sum "Si O2"
_cell_formula_units_Z 60
_cell_length_a 26.579478
_cell_length_b 19.321878
_cell_length_c 8.098199
_cell_angle_alpha 90.000000
_cell_angle_beta 131.919817
_cell_angle_gamma 90.000000
_cell_volume 3094.597433
_symmetry_space_group_name_H-M "C 2/C"
_symmetry_group_IT_number 15
_symmetry_cell_setting 'monoclinic'
loop_
_space_group_symop_operation_xyz
x,y,z
-x,y,1/2-z
-x,-y,-z
x,-y,1/2+z
1/2+x,1/2+y,z
1/2-x,1/2+y,1/2-z
1/2-x,1/2-y,-z
1/2+x,1/2-y,1/2+z
loop_
_atom_site_type_symbol
_atom_site_label
_atom_site_fract_x
_atom_site_fract_y
_atom_site_fract_z
Si Si1 0.500000 0.306172 0.250000
Si Si2 0.352753 0.348020 0.866662
Si Si3 0.694904 0.058218 0.462848
Si Si4 0.505522 0.797077 0.072102
Si Si5 0.251117 0.579604 0.923755
Si Si6 0.460307 0.064407 0.331964
Si Si7 0.737447 0.813455 0.851484
Si Si8 0.839981 0.296400 0.148143
O O1 0.567767 0.350524 0.425363
O O2 0.488992 0.257762 0.389406
O O3 0.320653 0.403606 0.670802
O O4 0.306673 0.345490 0.929224
O O5 0.340843 0.273265 0.755275
O O6 0.749965 0.072189 0.725800
O O7 0.619092 0.048896 0.368045
O O8 0.697460 0.124228 0.349344
O O9 0.716968 0.989118 0.419382
O O10 0.500000 0.771747 0.250000
O O11 0.583182 0.817778 0.211276
O O12 0.463906 0.867296 0.953528
O O13 0.202281 0.644082 0.856520
O O14 0.500000 0.080724 0.250000
O O15 0.500000 0.000000 0.500000
O O16 0.695085 0.785298 0.604112
O O17 0.750000 0.750000 0.000000
#
# Coordination Sequence:
#
# PCOD9272450 Si02
#       8
#     4   8   8   8   8   8   8   8
#     4  10  24  42  64  90 124 160 202 266 322 374
#     4  10  22  40  63  87 121 157 202 263 320 362
#     4  12  24  38  62  88 124 166 209 254 305 370
#     4  11  22  36  58  85 126 166 205 248 304 373
#     4  11  22  40  59  85 121 161 209 258 310 361
#     4  12  24  37  55  87 129 174 209 249 299 370
#     4  11  22  35  61  89 120 156 209 253 301 363
#     4  10  20  37  56  87 120 161 202 251 301 356
#
# _framework density 19.388627
#
# number of rings (size 3 to 8) (size 9 to 14) (size 15 to 20)
#    0.000    1.067    0.667    8.400    5.600    0.000 
#    0.000    0.000    0.000    3.200    0.000    0.000 
#    0.000    0.000    0.000    0.000    0.000    0.000 
#
# Total GULP energy -167665.760528 kJ/mol
# GULP energy per Si atom -5588.858684 kJ/mol
# Density = 1.934450 g / cm^3
# Si number density = 19.388627 Si / 1000 Ang^3
#
#
#
# Elastic Constant Matrix: (Units=GPa)
#
#
# Indices 1 2 3 4 5 6 
#
# 1 73.3200 18.3895 41.8661 0.0000 4.9460 0.0000
# 2 18.3895 47.1214 10.9376 0.0000 8.2292 0.0000
# 3 41.8661 10.9376 87.9593 0.0000 14.3618 0.0000
# 4 0.0000 0.0000 0.0000 20.0617 0.0000 -10.0004
# 5 4.9460 8.2292 14.3618 0.0000 45.1730 0.0000
# 6 0.0000 0.0000 0.0000 -10.0004 0.0000 10.5571
#
#
#
# Elastic Compliance Matrix: (Units=1/GPa)
#
#
# Indices 1 2 3 4 5 6 
#
# 1 0.020300 -0.006104 -0.009200 0.000000 0.001814 0.000000
# 2 -0.006104 0.024161 0.000538 0.000000 -0.003904 0.000000
# 3 -0.009200 0.000538 0.016383 0.000000 -0.004299 0.000000
# 4 0.000000 0.000000 0.000000 0.094441 0.000000 0.089461
# 5 0.001814 -0.003904 -0.004299 0.000000 0.024017 0.000000
# 6 0.000000 0.000000 0.000000 0.089461 0.000000 0.179467
#
#
# Mechanical properties :
#
#
# Convention : Reuss Voigt Hill
#
# Bulk Modulus (GPa) = 31.93495 38.97636 35.45565
# Shear Modulus (GPa) = 12.53963 24.30553 18.42258
#
# Velocity S-wave (km/s) = 2.54589 3.54446 3.08583
# Velocity P-wave (km/s) = 5.01486 6.07431 5.56983
#
# Compressibility (1/GPa) = 0.03131366
#
# Stress axis : x y z
#
# Youngs Moduli (GPa) = 49.26020 41.38957 61.04016
#
# Poissons Ratio (x) = 0.25263 0.56154
# Poissons Ratio (y) = 0.30067 -0.03286
# Poissons Ratio (z) = 0.45317 -0.02228
#
# Static dielectric constant tensor:
#      x y z
#    x 1.694940 0.000000 -0.003270 
#    y 0.000000 1.617790 0.000000 
#    z -0.003270 0.000000 1.747070 
# 
# From -- ./inp_files/67048.got.cif
#   From: 2010.05.17/outbox.cif.g08.bks.cpg/sg15_34_cif.got.tgz:67048.got - 2010.06.03 18:47:42.
