data_PCOD9272677
_publ_section_title
;
Structure prediction by ZEFSAII (Michael W. Deem and Ramdas Pophale) SiO2 
 PCOD9272677
Probable space group: C 2/C
;
_chemical_formula_sum "Si O2"
_cell_formula_units_Z 40
_cell_length_a 24.601042
_cell_length_b 8.208699
_cell_length_c 28.578242
_cell_angle_alpha 90.000000
_cell_angle_beta 160.689068
_cell_angle_gamma 90.000000
_cell_volume 1908.491662
_symmetry_space_group_name_H-M "C 2/C"
_symmetry_group_IT_number 15
_symmetry_cell_setting 'monoclinic'
loop_
_space_group_symop_operation_xyz
x,y,z
-x,y,1/2-z
-x,-y,-z
x,-y,1/2+z
1/2+x,1/2+y,z
1/2-x,1/2+y,1/2-z
1/2-x,1/2-y,-z
1/2+x,1/2-y,1/2+z
loop_
_atom_site_type_symbol
_atom_site_label
_atom_site_fract_x
_atom_site_fract_y
_atom_site_fract_z
Si Si1 0.170629 0.243256 0.256638
Si Si2 0.208370 0.401240 0.104454
Si Si3 0.626631 0.443849 0.011538
Si Si4 0.309779 0.802210 0.599205
Si Si5 0.118665 0.226316 0.665189
O O1 0.229363 0.389372 0.337044
O O2 0.258859 0.262632 0.278445
O O3 0.979083 0.208769 0.092807
O O4 0.239865 0.080274 0.337969
O O5 0.282803 0.339777 0.115959
O O6 0.283497 0.287394 0.206748
O O7 0.012875 0.372456 0.943396
O O8 0.493949 0.562942 0.928670
O O9 0.701424 0.549081 0.030475
O O10 0.500000 0.845983 0.750000
O O11 0.250000 0.750000 0.500000
#
# Coordination Sequence:
#
# PCOD9272677 Si02
#       5
#     8   8   8   8   8
#     4  11  21  38  59  91 128 155 192 250 301 362
#     4  10  22  37  60  91 117 157 206 243 296 368
#     4  10  24  39  60  93 123 162 206 244 300 367
#     4  11  23  45  67  86 118 163 211 261 305 353
#     4  10  20  37  59  89 126 163 192 234 303 374
#
# _framework density 20.958960999999999
#
# number of rings (size 3 to 8) (size 9 to 14) (size 15 to 20)
#    0.000    1.600    0.000    6.000    0.000   11.200 
#    0.000    5.000    0.000    0.000    0.000    0.000 
#    0.000    0.000    0.000    0.000    0.000    0.000 
#
# Total GULP energy -111871.850158 kJ/mol
# GULP energy per Si atom -5593.592508 kJ/mol
# Density = 2.091126 g / cm^3
# Si number density = 20.958961 Si / 1000 Ang^3
#
#
#
# Elastic Constant Matrix: (Units=GPa)
#
#
# Indices 1 2 3 4 5 6 
#
# 1 131.8283 27.0733 35.6922 0.0271 -5.8103 -0.0143
# 2 27.0733 44.3616 17.7015 0.0069 -2.6157 0.0046
# 3 35.6922 17.7015 95.5988 0.0016 0.6280 0.0129
# 4 0.0271 0.0069 0.0016 47.5974 -0.0104 -1.7122
# 5 -5.8103 -2.6157 0.6280 -0.0104 34.5107 0.0049
# 6 -0.0143 0.0046 0.0129 -1.7122 0.0049 3.7547
#
#
#
# Elastic Compliance Matrix: (Units=1/GPa)
#
#
# Indices 1 2 3 4 5 6 
#
# 1 0.009288 -0.004542 -0.002635 -0.000003 0.001267 0.000047
# 2 -0.004542 0.026690 -0.003255 -0.000002 0.001318 -0.000041
# 3 -0.002635 -0.003255 0.012053 0.000000 -0.000910 -0.000047
# 4 -0.000003 -0.000002 0.000000 0.021360 0.000004 0.009740
# 5 0.001267 0.001318 -0.000910 0.000004 0.029306 -0.000030
# 6 0.000047 -0.000041 -0.000047 0.009740 -0.000030 0.270776
#
#
# Mechanical properties :
#
#
# Convention : Reuss Voigt Hill
#
# Bulk Modulus (GPa) = 36.80918 48.08031 42.44475
# Shear Modulus (GPa) = 12.51899 29.92732 21.22316
#
# Velocity S-wave (km/s) = 2.44664 3.78286 3.18560
# Velocity P-wave (km/s) = 5.05787 6.48614 5.81602
#
# Compressibility (1/GPa) = 0.02716713
#
# Stress axis : x y z
#
# Youngs Moduli (GPa) = 107.66966 37.46658 82.96812
#
# Poissons Ratio (x) = 0.17017 0.21861
# Poissons Ratio (y) = 0.48904 0.27006
# Poissons Ratio (z) = 0.28370 0.12195
#
# Static dielectric constant tensor:
#      x y z
#    x 1.686160 0.000000 -0.011590 
#    y 0.000000 1.809370 0.000000 
#    z -0.011590 0.000000 1.772570 
# 
# From -- ./inp_files/319451.got.cif
#   From: 2010.05.17/outbox.cif.g08.bks.cpg/sg15_160_cif.got.tgz:319451.got - 2010.06.03 18:47:42.
