data_PCOD9272422
_publ_section_title
;
Structure prediction by ZEFSAII (Michael W. Deem and Ramdas Pophale) SiO2 
 PCOD9272422
Probable space group: C 2/C
;
_chemical_formula_sum "Si O2"
_cell_formula_units_Z 28
_cell_length_a 7.903149
_cell_length_b 11.502006
_cell_length_c 17.622229
_cell_angle_alpha 90.000000
_cell_angle_beta 60.968474
_cell_angle_gamma 90.000000
_cell_volume 1400.623193
_symmetry_space_group_name_H-M "C 2/C"
_symmetry_group_IT_number 15
_symmetry_cell_setting 'monoclinic'
loop_
_space_group_symop_operation_xyz
x,y,z
-x,y,1/2-z
-x,-y,-z
x,-y,1/2+z
1/2+x,1/2+y,z
1/2-x,1/2+y,1/2-z
1/2-x,1/2-y,-z
1/2+x,1/2-y,1/2+z
loop_
_atom_site_type_symbol
_atom_site_label
_atom_site_fract_x
_atom_site_fract_y
_atom_site_fract_z
Si Si1 0.382115 0.370353 0.116148
Si Si2 0.000000 0.955275 0.250000
Si Si3 0.697486 0.118280 0.399801
Si Si4 0.267434 0.960970 0.963633
O O1 0.424359 0.379711 0.195988
O O2 0.268704 0.254423 0.118549
O O3 0.270978 0.484335 0.110061
O O4 0.589050 0.379650 0.027503
O O5 0.831099 0.038155 0.318267
O O6 0.473405 0.098587 0.427290
O O7 0.731902 0.068890 0.476817
#
# Coordination Sequence:
#
# PCOD9272422 Si02
#       4
#     8   4   8   8
#     4  10  20  37  56  78 108 140 174 221 264 307
#     4  10  24  34  48  84 112 136 180 210 260 332
#     4  10  20  37  56  78 108 140 174 221 264 307
#     4   9  20  36  58  81 100 136 188 217 254 318
#
# _framework density 19.991101
#
# number of rings (size 3 to 8) (size 9 to 14) (size 15 to 20)
#    0.000    2.286    0.000    1.714    0.000    5.714 
#    0.000    5.714    0.000    0.000    0.000    0.000 
#    0.000    0.000    0.000    0.000    0.000    0.000 
#
# Total GULP energy -78165.883621 kJ/mol
# GULP energy per Si atom -5583.277401 kJ/mol
# Density = 1.994560 g / cm^3
# Si number density = 19.991101 Si / 1000 Ang^3
#
#
#
# Elastic Constant Matrix: (Units=GPa)
#
#
# Indices 1 2 3 4 5 6 
#
# 1 39.7592 -19.0229 -11.1466 0.0000 3.2207 0.0000
# 2 -19.0229 60.1524 5.1256 0.0000 3.6826 0.0000
# 3 -11.1466 5.1256 44.1126 0.0000 21.0549 0.0000
# 4 0.0000 0.0000 0.0000 8.3514 0.0000 -2.2280
# 5 3.2207 3.6826 21.0549 0.0000 25.6655 0.0000
# 6 0.0000 0.0000 0.0000 -2.2280 0.0000 19.7211
#
#
#
# Elastic Compliance Matrix: (Units=1/GPa)
#
#
# Indices 1 2 3 4 5 6 
#
# 1 0.037629 0.011647 0.018418 0.000000 -0.021503 0.000000
# 2 0.011647 0.020423 0.004382 0.000000 -0.007987 0.000000
# 3 0.018418 0.004382 0.046376 0.000000 -0.040985 0.000000
# 4 0.000000 0.000000 0.000000 0.123462 0.000000 0.013948
# 5 -0.021503 -0.007987 -0.040985 0.000000 0.076430 0.000000
# 6 0.000000 0.000000 0.000000 0.013948 0.000000 0.052283
#
#
# Mechanical properties :
#
#
# Convention : Reuss Voigt Hill
#
# Bulk Modulus (GPa) = 5.76954 10.43739 8.10346
# Shear Modulus (GPa) = 14.47250 22.01881 18.24565
#
# Velocity S-wave (km/s) = 2.69355 3.32238 3.02435
# Velocity P-wave (km/s) = 3.54484 4.46654 4.03211
#
# Compressibility (1/GPa) = 0.17332413
#
# Stress axis : x y z
#
# Youngs Moduli (GPa) = 26.57499 48.96362 21.56270
#
# Poissons Ratio (x) = -0.57028 -0.39715
# Poissons Ratio (y) = -0.30952 -0.09449
# Poissons Ratio (z) = -0.48947 -0.21456
#
# Static dielectric constant tensor:
#      x y z
#    x 1.699010 0.000000 0.010530 
#    y 0.000000 1.675080 0.000000 
#    z 0.010530 0.000000 1.695250 
# 
# From -- ./inp_files/131470.got.cif
#   From: 2010.05.17/outbox.cif.g08.bks.cpg/sg15_66_cif.got.tgz:131470.got - 2010.06.03 18:47:42.
