data_PCOD9272364
_publ_section_title
;
Structure prediction by ZEFSAII (Michael W. Deem and Ramdas Pophale) SiO2 
 PCOD9272364
Probable space group: C 2/C
;
_chemical_formula_sum "Si O2"
_cell_formula_units_Z 56
_cell_length_a 28.274671
_cell_length_b 16.076096
_cell_length_c 8.891656
_cell_angle_alpha 90.000000
_cell_angle_beta 125.013627
_cell_angle_gamma 90.000000
_cell_volume 3310.190437
_symmetry_space_group_name_H-M "C 2/C"
_symmetry_group_IT_number 15
_symmetry_cell_setting 'monoclinic'
loop_
_space_group_symop_operation_xyz
x,y,z
-x,y,1/2-z
-x,-y,-z
x,-y,1/2+z
1/2+x,1/2+y,z
1/2-x,1/2+y,1/2-z
1/2-x,1/2-y,-z
1/2+x,1/2-y,1/2+z
loop_
_atom_site_type_symbol
_atom_site_label
_atom_site_fract_x
_atom_site_fract_y
_atom_site_fract_z
Si Si1 0.804173 0.803269 0.040066
Si Si2 0.622709 0.848858 0.800040
Si Si3 0.168966 0.773295 0.754421
Si Si4 0.513748 0.088330 0.949964
Si Si5 0.753313 0.385806 0.071224
Si Si6 0.741587 0.943747 0.079171
Si Si7 0.552189 0.209642 0.448080
O O1 0.805742 0.799962 0.862393
O O2 0.750000 0.750000 0.000000
O O3 0.858823 0.747576 0.191706
O O4 0.792472 0.894388 0.083833
O O5 0.580036 0.886218 0.599911
O O6 0.588229 0.847652 0.895797
O O7 0.680702 0.902226 0.920065
O O8 0.194840 0.681648 0.836232
O O9 0.100332 0.769653 0.606862
O O10 0.195659 0.834355 0.926050
O O11 0.500000 0.086288 0.750000
O O12 0.476132 0.155734 0.972392
O O13 0.500000 0.000000 0.000000
O O14 0.751048 0.425571 0.231759
O O15 0.760133 0.459991 0.965669
O O16 0.500000 0.245767 0.250000
#
# Coordination Sequence:
#
# PCOD9272364 Si02
#       7
#     8   8   8   8   8   8   8
#     4   9  16  35  55  73 103 137 175 216 269 322
#     4   9  19  35  54  74 104 141 182 217 268 316
#     4  10  20  37  53  81 109 143 181 226 268 330
#     4  11  23  35  48  74 103 139 184 225 265 314
#     4  11  22  33  52  79 113 141 186 218 275 323
#     4  11  21  35  53  81 109 149 180 222 273 326
#     4   9  18  37  57  73 103 141 177 222 265 318
#
# _framework density 16.917456000000001
#
# number of rings (size 3 to 8) (size 9 to 14) (size 15 to 20)
#    0.000    2.000    4.286    2.143    2.000    2.286 
#    2.571    0.000    0.000    0.000    0.000   17.000 
#    0.000    0.000    0.000    0.000    0.000    0.000 
#
# Total GULP energy -156077.261417 kJ/mol
# GULP energy per Si atom -5574.187908 kJ/mol
# Density = 1.687895 g / cm^3
# Si number density = 16.917456 Si / 1000 Ang^3
#
#
#
# Elastic Constant Matrix: (Units=GPa)
#
#
# Indices 1 2 3 4 5 6 
#
# 1 66.3729 26.7769 47.8038 0.0000 7.2794 0.0000
# 2 26.7769 75.8485 50.6383 0.0000 5.2348 0.0000
# 3 47.8038 50.6383 145.0472 0.0000 14.5965 0.0000
# 4 0.0000 0.0000 0.0000 30.2629 0.0000 -7.2516
# 5 7.2794 5.2348 14.5965 0.0000 25.4863 0.0000
# 6 0.0000 0.0000 0.0000 -7.2516 0.0000 9.9905
#
#
#
# Elastic Compliance Matrix: (Units=1/GPa)
#
#
# Indices 1 2 3 4 5 6 
#
# 1 0.020568 -0.003562 -0.005324 0.000000 -0.002094 0.000000
# 2 -0.003562 0.017808 -0.005070 0.000000 0.000263 0.000000
# 3 -0.005324 -0.005070 0.010783 0.000000 -0.003613 0.000000
# 4 0.000000 0.000000 0.000000 0.040001 0.000000 0.029035
# 5 -0.002094 0.000263 -0.003613 0.000000 0.041850 0.000000
# 6 0.000000 0.000000 0.000000 0.029035 0.000000 0.121170
#
#
# Mechanical properties :
#
#
# Convention : Reuss Voigt Hill
#
# Bulk Modulus (GPa) = 47.06639 59.74519 53.40579
# Shear Modulus (GPa) = 17.41108 23.95126 20.68117
#
# Velocity S-wave (km/s) = 3.21156 3.76676 3.50018
# Velocity P-wave (km/s) = 6.45242 7.36955 6.92618
#
# Compressibility (1/GPa) = 0.02124659
#
# Stress axis : x y z
#
# Youngs Moduli (GPa) = 48.61973 56.15416 92.74182
#
# Poissons Ratio (x) = 0.20001 0.49380
# Poissons Ratio (y) = 0.17318 0.47017
# Poissons Ratio (z) = 0.25887 0.28468
#
# Static dielectric constant tensor:
#      x y z
#    x 1.582130 0.000000 0.005890 
#    y 0.000000 1.582020 0.000000 
#    z 0.005890 0.000000 1.594790 
# 
# From -- ./inp_files/66294.got.cif
#   From: 2010.05.17/outbox.cif.g08.bks.cpg/sg15_34_cif.got.tgz:66294.got - 2010.06.03 18:47:42.
