data_PCOD9272751
_publ_section_title
;
Structure prediction by ZEFSAII (Michael W. Deem and Ramdas Pophale) SiO2 
 PCOD9272751
Probable space group: C 2/C
;
_chemical_formula_sum "Si O2"
_cell_formula_units_Z 40
_cell_length_a 12.250227
_cell_length_b 13.850880
_cell_length_c 10.122268
_cell_angle_alpha 90.000000
_cell_angle_beta 100.381125
_cell_angle_gamma 90.000000
_cell_volume 1689.396118
_symmetry_space_group_name_H-M "C 2/C"
_symmetry_group_IT_number 15
_symmetry_cell_setting 'monoclinic'
loop_
_space_group_symop_operation_xyz
x,y,z
-x,y,1/2-z
-x,-y,-z
x,-y,1/2+z
1/2+x,1/2+y,z
1/2-x,1/2+y,1/2-z
1/2-x,1/2-y,-z
1/2+x,1/2-y,1/2+z
loop_
_atom_site_type_symbol
_atom_site_label
_atom_site_fract_x
_atom_site_fract_y
_atom_site_fract_z
Si Si1 0.271940 0.689111 0.133295
Si Si2 0.553676 0.605144 0.513083
Si Si3 0.123566 0.536236 0.040492
Si Si4 0.244797 0.973316 0.194225
Si Si5 0.671949 0.306809 0.584229
O O1 0.152995 0.635534 0.123349
O O2 0.316710 0.743150 0.270317
O O3 0.250000 0.750000 0.000000
O O4 0.371073 0.618820 0.102145
O O5 0.500000 0.500000 0.500000
O O6 0.639735 0.597027 0.653023
O O7 0.453994 0.681407 0.492821
O O8 0.200008 0.468231 0.150022
O O9 0.168760 0.549554 0.903001
O O10 0.000000 0.500000 0.000000
O O11 0.208372 0.083565 0.140231
O O12 0.750000 0.250000 0.500000
#
# Coordination Sequence:
#
# PCOD9272751 Si02
#       5
#     8   8   8   8   8
#     4  10  22  40  59  90 128 163 205 256 319 384
#     4   9  19  40  66  88 118 164 212 262 314 378
#     4  10  20  37  60  86 119 159 204 256 307 369
#     4   9  20  37  60  89 117 154 209 257 307 372
#     4  10  21  38  61  91 125 160 204 261 320 381
#
# _framework density 23.677098999999998
#
# number of rings (size 3 to 8) (size 9 to 14) (size 15 to 20)
#    0.000    2.400    0.000    1.200    0.000    6.400 
#    0.000   22.000    0.000    0.000    0.000    0.000 
#    0.000    0.000    0.000    0.000    0.000    0.000 
#
# Total GULP energy -111452.574974 kJ/mol
# GULP energy per Si atom -5572.628749 kJ/mol
# Density = 2.362321 g / cm^3
# Si number density = 23.677099 Si / 1000 Ang^3
#
#
#
# Elastic Constant Matrix: (Units=GPa)
#
#
# Indices 1 2 3 4 5 6 
#
# 1 174.5497 43.1537 71.8537 0.0000 33.1476 0.0000
# 2 43.1537 56.9468 28.5944 0.0000 7.6404 0.0000
# 3 71.8537 28.5944 147.4653 0.0000 21.4119 0.0000
# 4 0.0000 0.0000 0.0000 36.6719 0.0000 -1.8043
# 5 33.1476 7.6404 21.4119 0.0000 42.5082 0.0000
# 6 0.0000 0.0000 0.0000 -1.8043 0.0000 51.0026
#
#
#
# Elastic Compliance Matrix: (Units=1/GPa)
#
#
# Indices 1 2 3 4 5 6 
#
# 1 0.008932 -0.004757 -0.002743 0.000000 -0.004729 0.000000
# 2 -0.004757 0.022105 -0.002083 0.000000 0.000785 0.000000
# 3 -0.002743 -0.002083 0.008800 0.000000 -0.001919 0.000000
# 4 0.000000 0.000000 0.000000 0.027316 0.000000 0.000966
# 5 -0.004729 0.000785 -0.001919 0.000000 0.028038 0.000000
# 6 0.000000 0.000000 0.000000 0.000966 0.000000 0.019641
#
#
# Mechanical properties :
#
#
# Convention : Reuss Voigt Hill
#
# Bulk Modulus (GPa) = 48.37338 74.01840 61.19589
# Shear Modulus (GPa) = 35.48868 41.72718 38.60793
#
# Velocity S-wave (km/s) = 3.87571 4.20258 4.04245
# Velocity P-wave (km/s) = 6.36420 7.40800 6.90585
#
# Compressibility (1/GPa) = 0.02067253
#
# Stress axis : x y z
#
# Youngs Moduli (GPa) = 111.95242 45.23792 113.62993
#
# Poissons Ratio (x) = 0.21519 0.31173
# Poissons Ratio (y) = 0.53255 0.23664
# Poissons Ratio (z) = 0.30713 0.09421
#
# Static dielectric constant tensor:
#      x y z
#    x 1.837440 0.000000 0.033970 
#    y 0.000000 2.119140 0.000000 
#    z 0.033970 0.000000 1.963320 
# 
# From -- ./inp_files/29330.got.cif
#   From: 2010.05.17/outbox.cif.g08.bks.cpg/sg15_15_cif.got.tgz:29330.got - 2010.06.03 18:47:42.
