data_PCOD9272684
_publ_section_title
;
Structure prediction by ZEFSAII (Michael W. Deem and Ramdas Pophale) SiO2 
 PCOD9272684
Probable space group: C 2/C
;
_chemical_formula_sum "Si O2"
_cell_formula_units_Z 56
_cell_length_a 16.082111
_cell_length_b 9.907629
_cell_length_c 20.958877
_cell_angle_alpha 90.000000
_cell_angle_beta 139.047727
_cell_angle_gamma 90.000000
_cell_volume 2188.805665
_symmetry_space_group_name_H-M "C 2/C"
_symmetry_group_IT_number 15
_symmetry_cell_setting 'monoclinic'
loop_
_space_group_symop_operation_xyz
x,y,z
-x,y,1/2-z
-x,-y,-z
x,-y,1/2+z
1/2+x,1/2+y,z
1/2-x,1/2+y,1/2-z
1/2-x,1/2-y,-z
1/2+x,1/2-y,1/2+z
loop_
_atom_site_type_symbol
_atom_site_label
_atom_site_fract_x
_atom_site_fract_y
_atom_site_fract_z
Si Si1 0.500000 0.064672 0.250000
Si Si2 0.060632 0.783330 0.371771
Si Si3 0.128035 0.244993 0.475565
Si Si4 0.148728 0.528154 0.091097
Si Si5 0.000000 0.965397 0.750000
Si Si6 0.305807 0.738688 0.425914
Si Si7 0.845624 0.205378 0.254254
Si Si8 0.755377 0.043024 0.864652
O O1 0.472178 0.164642 0.293323
O O2 0.376316 0.974119 0.171774
O O3 0.187882 0.739946 0.406853
O O4 0.077427 0.773550 0.456837
O O5 0.030482 0.931059 0.325991
O O6 0.250000 0.250000 0.500000
O O7 0.151714 0.378290 0.530275
O O8 0.146669 0.117658 0.532916
O O9 0.982924 0.230680 0.366817
O O10 0.205623 0.378733 0.116723
O O11 0.222650 0.606029 0.190763
O O12 0.000000 0.500000 0.000000
O O13 0.105604 0.865747 0.783660
O O14 0.304845 0.607342 0.381317
O O15 0.782498 0.352444 0.211603
#
# Coordination Sequence:
#
# PCOD9272684 Si02
#       8
#     4   8   8   8   4   8   8   8
#     4   9  17  30  52  90 136 158 196 272 344 398
#     4   9  19  29  57  94 127 162 214 272 344 389
#     4  11  24  41  70 101 136 179 235 294 355 422
#     4  11  26  48  67  95 138 187 230 282 347 427
#     4  11  17  34  56 102 138 166 218 284 344 394
#     4  10  20  37  59  90 130 170 220 276 335 413
#     4  11  22  39  64  94 135 181 226 279 351 417
#     4  10  21  35  55  97 131 163 216 280 338 403
#
# _framework density 25.58473
#
# number of rings (size 3 to 8) (size 9 to 14) (size 15 to 20)
#    0.000    1.714    1.429    3.857    8.000    0.000 
#    0.000    7.143    0.000    0.000    0.000    0.000 
#    0.000    0.000    0.000    0.000    0.000    0.000 
#
# Total GULP energy -156168.947673 kJ/mol
# GULP energy per Si atom -5577.462417 kJ/mol
# Density = 2.552650 g / cm^3
# Si number density = 25.584730 Si / 1000 Ang^3
#
#
#
# Elastic Constant Matrix: (Units=GPa)
#
#
# Indices 1 2 3 4 5 6 
#
# 1 36.0833 21.0658 23.4623 0.0000 -2.9274 0.0000
# 2 21.0658 196.1737 61.2435 0.0000 -16.4190 0.0000
# 3 23.4623 61.2435 211.1406 0.0000 -11.9515 0.0000
# 4 0.0000 0.0000 0.0000 63.2771 0.0000 33.6062
# 5 -2.9274 -16.4190 -11.9515 0.0000 28.0331 0.0000
# 6 0.0000 0.0000 0.0000 33.6062 0.0000 50.8943
#
#
#
# Elastic Compliance Matrix: (Units=1/GPa)
#
#
# Indices 1 2 3 4 5 6 
#
# 1 0.030937 -0.002425 -0.002697 0.000000 0.000661 0.000000
# 2 -0.002425 0.005995 -0.001317 0.000000 0.002696 0.000000
# 3 -0.002697 -0.001317 0.005491 0.000000 0.001288 0.000000
# 4 0.000000 0.000000 0.000000 0.024339 0.000000 -0.016071
# 5 0.000661 0.002696 0.001288 0.000000 0.037870 0.000000
# 6 0.000000 0.000000 0.000000 -0.016071 0.000000 0.030261
#
#
# Mechanical properties :
#
#
# Convention : Reuss Voigt Hill
#
# Bulk Modulus (GPa) = 33.84683 72.77119 53.30901
# Shear Modulus (GPa) = 31.72256 50.94930 41.33593
#
# Velocity S-wave (km/s) = 3.52504 4.46735 4.02387
# Velocity P-wave (km/s) = 5.46131 7.42392 6.51692
#
# Compressibility (1/GPa) = 0.02954487
#
# Stress axis : x y z
#
# Youngs Moduli (GPa) = 32.32421 166.81503 182.12569
#
# Poissons Ratio (x) = 0.40450 0.49119
# Poissons Ratio (y) = 0.07838 0.23981
# Poissons Ratio (z) = 0.08718 0.21965
#
# Static dielectric constant tensor:
#      x y z
#    x 2.053830 0.000000 0.036310 
#    y 0.000000 1.990930 0.000000 
#    z 0.036310 0.000000 2.227640 
# 
# From -- ./inp_files/317601.got.cif
#   From: 2010.05.17/outbox.cif.g08.bks.cpg/sg15_159_cif.got.tgz:317601.got - 2010.06.03 18:47:42.
