data_PCOD9272683
_publ_section_title
;
Structure prediction by ZEFSAII (Michael W. Deem and Ramdas Pophale) SiO2 
 PCOD9272683
Probable space group: C 2/C
;
_chemical_formula_sum "Si O2"
_cell_formula_units_Z 60
_cell_length_a 11.577901
_cell_length_b 13.791571
_cell_length_c 18.728145
_cell_angle_alpha 90.000000
_cell_angle_beta 88.220064
_cell_angle_gamma 90.000000
_cell_volume 2989.019416
_symmetry_space_group_name_H-M "C 2/C"
_symmetry_group_IT_number 15
_symmetry_cell_setting 'monoclinic'
loop_
_space_group_symop_operation_xyz
x,y,z
-x,y,1/2-z
-x,-y,-z
x,-y,1/2+z
1/2+x,1/2+y,z
1/2-x,1/2+y,1/2-z
1/2-x,1/2-y,-z
1/2+x,1/2-y,1/2+z
loop_
_atom_site_type_symbol
_atom_site_label
_atom_site_fract_x
_atom_site_fract_y
_atom_site_fract_z
Si Si1 0.805019 0.854980 0.510851
Si Si2 0.766827 0.473357 0.586896
Si Si3 0.783631 0.351249 0.442231
Si Si4 0.379383 0.506653 0.779611
Si Si5 0.453156 0.731343 0.517708
Si Si6 0.286204 0.036205 0.348381
Si Si7 0.022026 0.365124 0.858052
Si Si8 0.500000 0.700035 0.750000
O O1 0.750000 0.750000 0.500000
O O2 0.747031 0.924209 0.452450
O O3 0.778468 0.900665 0.589074
O O4 0.943680 0.843236 0.498034
O O5 0.770366 0.399587 0.520856
O O6 0.661199 0.467423 0.643779
O O7 0.879685 0.445204 0.630659
O O8 0.655167 0.309510 0.434405
O O9 0.887560 0.274974 0.449779
O O10 0.810278 0.433054 0.385031
O O11 0.500000 0.464130 0.750000
O O12 0.287341 0.482254 0.720614
O O13 0.405783 0.623316 0.782672
O O14 0.504500 0.819626 0.563322
O O15 0.406529 0.087845 0.329859
O O16 0.050615 0.273048 0.807861
#
# Coordination Sequence:
#
# PCOD9272683 Si02
#       8
#     8   8   8   8   8   8   8   4
#     4  11  23  36  65  93 129 160 207 257 304 364
#     4  10  23  39  60  91 123 165 201 256 310 363
#     4   9  22  37  62  90 123 160 204 255 307 369
#     4  10  24  40  62  87 121 155 210 254 313 370
#     4  10  20  37  59  90 122 158 201 247 308 362
#     4  11  23  38  62  92 120 164 205 257 309 365
#     4  11  21  38  63  87 124 161 209 246 311 376
#     4  10  22  38  64  84 114 166 204 256 298 384
#
# _framework density 20.073473
#
# number of rings (size 3 to 8) (size 9 to 14) (size 15 to 20)
#    0.400    1.333    1.333    2.400    5.600    2.667 
#    0.000    0.000    0.000    0.000    0.000    0.000 
#    0.000    0.000    0.000    0.000    0.000    0.000 
#
# Total GULP energy -167260.410095 kJ/mol
# GULP energy per Si atom -5575.347003 kJ/mol
# Density = 2.002778 g / cm^3
# Si number density = 20.073473 Si / 1000 Ang^3
#
#
#
# Elastic Constant Matrix: (Units=GPa)
#
#
# Indices 1 2 3 4 5 6 
#
# 1 97.9323 31.4697 17.0477 0.0000 13.7543 0.0000
# 2 31.4697 61.5534 2.3198 0.0000 14.1486 0.0000
# 3 17.0477 2.3198 66.2948 0.0000 9.6991 0.0000
# 4 0.0000 0.0000 0.0000 16.6415 0.0000 3.7922
# 5 13.7543 14.1486 9.6991 0.0000 27.7385 0.0000
# 6 0.0000 0.0000 0.0000 3.7922 0.0000 35.0626
#
#
#
# Elastic Compliance Matrix: (Units=1/GPa)
#
#
# Indices 1 2 3 4 5 6 
#
# 1 0.012947 -0.005961 -0.002768 0.000000 -0.002412 0.000000
# 2 -0.005961 0.021185 0.002045 0.000000 -0.008565 0.000000
# 3 -0.002768 0.002045 0.016521 0.000000 -0.005447 0.000000
# 4 0.000000 0.000000 0.000000 0.061609 0.000000 -0.006663
# 5 -0.002412 -0.008565 -0.005447 0.000000 0.043520 0.000000
# 6 0.000000 0.000000 0.000000 -0.006663 0.000000 0.029241
#
#
# Mechanical properties :
#
#
# Convention : Reuss Voigt Hill
#
# Bulk Modulus (GPa) = 26.81994 36.38388 31.60191
# Shear Modulus (GPa) = 23.71682 27.55141 25.63412
#
# Velocity S-wave (km/s) = 3.44103 3.70878 3.57741
# Velocity P-wave (km/s) = 5.40161 6.04192 5.73072
#
# Compressibility (1/GPa) = 0.03728569
#
# Stress axis : x y z
#
# Youngs Moduli (GPa) = 77.23743 47.20263 60.52784
#
# Poissons Ratio (x) = 0.28136 0.16754
# Poissons Ratio (y) = 0.46039 -0.12375
# Poissons Ratio (z) = 0.21379 -0.09651
#
# Static dielectric constant tensor:
#      x y z
#    x 1.735770 0.000000 0.003580 
#    y 0.000000 1.743690 0.000000 
#    z 0.003580 0.000000 1.716120 
# 
# From -- ./inp_files/197881.got.cif
#   From: 2010.05.17/outbox.cif.g08.bks.cpg/sg15_99_cif.got.tgz:197881.got - 2010.06.03 18:47:42.
