data_PCOD9272729
_publ_section_title
;
Structure prediction by ZEFSAII (Michael W. Deem and Ramdas Pophale) SiO2 
 PCOD9272729
Probable space group: C 2/C
;
_chemical_formula_sum "Si O2"
_cell_formula_units_Z 64
_cell_length_a 25.604753
_cell_length_b 12.537301
_cell_length_c 8.498913
_cell_angle_alpha 90.000000
_cell_angle_beta 85.831025
_cell_angle_gamma 90.000000
_cell_volume 2721.055223
_symmetry_space_group_name_H-M "C 2/C"
_symmetry_group_IT_number 15
_symmetry_cell_setting 'monoclinic'
loop_
_space_group_symop_operation_xyz
x,y,z
-x,y,1/2-z
-x,-y,-z
x,-y,1/2+z
1/2+x,1/2+y,z
1/2-x,1/2+y,1/2-z
1/2-x,1/2-y,-z
1/2+x,1/2-y,1/2+z
loop_
_atom_site_type_symbol
_atom_site_label
_atom_site_fract_x
_atom_site_fract_y
_atom_site_fract_z
Si Si1 0.293448 0.272214 0.853087
Si Si2 0.468914 0.407251 0.600210
Si Si3 0.109812 0.921641 0.296357
Si Si4 0.891488 0.638210 0.955337
Si Si5 0.180475 0.007474 0.045127
Si Si6 0.021514 0.255794 0.902739
Si Si7 0.847254 0.447128 0.783342
Si Si8 0.282978 0.112934 0.584719
O O1 0.303281 0.397896 0.838407
O O2 0.275768 0.216099 0.695071
O O3 0.250000 0.250000 0.000000
O O4 0.349104 0.217843 0.887615
O O5 0.500000 0.378924 0.750000
O O6 0.500000 0.500000 0.500000
O O7 0.417323 0.463872 0.670864
O O8 0.472260 0.307087 0.486395
O O9 0.158764 0.923916 0.404168
O O10 0.066541 0.832143 0.343126
O O11 0.134473 0.931677 0.119892
O O12 0.949997 0.678823 0.967361
O O13 0.872445 0.619855 0.138842
O O14 0.886619 0.529494 0.859020
O O15 0.230904 0.934951 0.020574
O O16 0.000000 0.310688 0.750000
O O17 0.805549 0.523218 0.701537
O O18 0.822814 0.378683 0.930067
#
# Coordination Sequence:
#
# PCOD9272729 Si02
#       8
#     8   8   8   8   8   8   8   8
#     4  11  22  39  60  88 127 168 210 257 311 374
#     4  10  20  37  60  84 125 169 200 247 319 373
#     4  11  21  37  59  89 129 163 202 254 310 377
#     4  10  21  40  68  88 121 163 214 260 318 384
#     4  12  22  37  59  92 124 167 212 253 306 368
#     4  11  22  41  61  93 124 166 207 263 324 377
#     4   9  19  41  63  86 119 166 207 257 325 364
#     4  10  21  38  60  88 127 166 204 258 313 375
#
# _framework density 23.520287
#
# number of rings (size 3 to 8) (size 9 to 14) (size 15 to 20)
#    0.000    1.500    1.250    7.500    0.000    0.000 
#    4.500    5.000    0.000    0.000    0.000    0.000 
#    0.000    0.000    0.000    0.000    0.000    0.000 
#
# Total GULP energy -178829.296476 kJ/mol
# GULP energy per Si atom -5588.415515 kJ/mol
# Density = 2.346675 g / cm^3
# Si number density = 23.520287 Si / 1000 Ang^3
#
#
#
# Elastic Constant Matrix: (Units=GPa)
#
#
# Indices 1 2 3 4 5 6 
#
# 1 65.9916 12.7664 -4.2641 0.0000 21.8948 0.0000
# 2 12.7664 54.4560 2.5270 0.0000 2.9656 0.0000
# 3 -4.2641 2.5270 85.6021 0.0000 20.0674 0.0000
# 4 0.0000 0.0000 0.0000 28.2644 0.0000 8.1723
# 5 21.8948 2.9656 20.0674 0.0000 36.9274 0.0000
# 6 0.0000 0.0000 0.0000 8.1723 0.0000 29.5660
#
#
#
# Elastic Compliance Matrix: (Units=1/GPa)
#
#
# Indices 1 2 3 4 5 6 
#
# 1 0.021188 -0.004380 0.004638 0.000000 -0.014732 0.000000
# 2 -0.004380 0.019353 -0.001185 0.000000 0.001687 0.000000
# 3 0.004638 -0.001185 0.014406 0.000000 -0.010483 0.000000
# 4 0.000000 0.000000 0.000000 0.038453 0.000000 -0.010629
# 5 -0.014732 0.001687 -0.010483 0.000000 0.041376 0.000000
# 6 0.000000 0.000000 0.000000 -0.010629 0.000000 0.036761
#
#
# Mechanical properties :
#
#
# Convention : Reuss Voigt Hill
#
# Bulk Modulus (GPa) = 18.83479 25.34538 22.09009
# Shear Modulus (GPa) = 26.16584 31.95293 29.05938
#
# Velocity S-wave (km/s) = 3.33900 3.68982 3.51879
# Velocity P-wave (km/s) = 4.78441 5.38074 5.09131
#
# Compressibility (1/GPa) = 0.05309323
#
# Stress axis : x y z
#
# Youngs Moduli (GPa) = 47.19619 51.67037 69.41781
#
# Poissons Ratio (x) = 0.22633 -0.32197
# Poissons Ratio (y) = 0.20673 0.08226
# Poissons Ratio (z) = -0.21891 0.06123
#
# Static dielectric constant tensor:
#      x y z
#    x 1.856780 0.000000 0.000340 
#    y 0.000000 1.941300 0.000000 
#    z 0.000340 0.000000 1.944650 
# 
# From -- ./inp_files/61925.got.cif
#   From: 2010.05.17/outbox.cif.g08.bks.cpg/sg15_31_cif.got.tgz:61925.got - 2010.06.03 18:47:42.
