data_PCOD9272073
_publ_section_title
;
Structure prediction by ZEFSAII (Michael W. Deem and Ramdas Pophale) SiO2 
 PCOD9272073
Probable space group: C 2/C
;
_chemical_formula_sum "Si O2"
_cell_formula_units_Z 28
_cell_length_a 9.674253
_cell_length_b 16.308138
_cell_length_c 5.929686
_cell_angle_alpha 90.000000
_cell_angle_beta 109.001202
_cell_angle_gamma 90.000000
_cell_volume 884.546041
_symmetry_space_group_name_H-M "C 2/C"
_symmetry_group_IT_number 15
_symmetry_cell_setting 'monoclinic'
loop_
_space_group_symop_operation_xyz
x,y,z
-x,y,1/2-z
-x,-y,-z
x,-y,1/2+z
1/2+x,1/2+y,z
1/2-x,1/2+y,1/2-z
1/2-x,1/2-y,-z
1/2+x,1/2-y,1/2+z
loop_
_atom_site_type_symbol
_atom_site_label
_atom_site_fract_x
_atom_site_fract_y
_atom_site_fract_z
Si Si1 0.230350 0.486746 0.611882
Si Si2 0.000000 0.110882 0.750000
Si Si3 0.500000 0.141389 0.250000
Si Si4 0.500000 0.836427 0.250000
Si Si5 0.687117 0.689149 0.224770
O O1 0.163144 0.512276 0.332317
O O2 0.363189 0.550483 0.711602
O O3 0.296290 0.395508 0.627140
O O4 0.945644 0.165871 0.514673
O O5 0.504034 0.113717 0.518631
O O6 0.344737 0.191394 0.183708
O O7 0.636341 0.773822 0.309431
#
# Coordination Sequence:
#
# PCOD9272073 Si02
#       5
#     8   4   4   4   8
#     4  10  20  36  63  97 124 159 214 259 311 392
#     4  10  20  40  68 100 126 170 218 256 320 410
#     4  12  29  44  64 100 134 170 225 278 330 374
#     4  12  25  46  68  92 128 182 229 266 318 396
#     4  11  23  44  70  97 133 174 216 278 327 381
#
# _framework density 31.654651999999999
#
# number of rings (size 3 to 8) (size 9 to 14) (size 15 to 20)
#    0.000    1.143    0.000    8.571    0.000    9.143 
#    0.000    5.714    0.000    0.000    0.000    0.000 
#    0.000    0.000    0.000    0.000    0.000    0.000 
#
# Total GULP energy -78466.883820 kJ/mol
# GULP energy per Si atom -5604.777416 kJ/mol
# Density = 3.158261 g / cm^3
# Si number density = 31.654652 Si / 1000 Ang^3
#
#
#
# Elastic Constant Matrix: (Units=GPa)
#
#
# Indices 1 2 3 4 5 6 
#
# 1 149.9503 5.7479 78.2725 0.0000 -19.7902 0.0000
# 2 5.7479 179.1042 136.4024 0.0000 -27.5724 0.0000
# 3 78.2725 136.4024 318.3639 0.0000 -38.1327 0.0000
# 4 0.0000 0.0000 0.0000 86.1157 0.0000 -17.6057
# 5 -19.7902 -27.5724 -38.1327 0.0000 77.0656 0.0000
# 6 0.0000 0.0000 0.0000 -17.6057 0.0000 51.7976
#
#
#
# Elastic Compliance Matrix: (Units=1/GPa)
#
#
# Indices 1 2 3 4 5 6 
#
# 1 0.008201 0.002027 -0.002706 0.000000 0.001492 0.000000
# 2 0.002027 0.008910 -0.004116 0.000000 0.001672 0.000000
# 3 -0.002706 -0.004116 0.005645 0.000000 0.000626 0.000000
# 4 0.000000 0.000000 0.000000 0.012479 0.000000 0.004242
# 5 0.001492 0.001672 0.000626 0.000000 0.014267 0.000000
# 6 0.000000 0.000000 0.000000 0.004242 0.000000 0.020748
#
#
# Mechanical properties :
#
#
# Convention : Reuss Voigt Hill
#
# Bulk Modulus (GPa) = 75.94889 120.91823 98.43356
# Shear Modulus (GPa) = 59.36319 71.46214 65.41267
#
# Velocity S-wave (km/s) = 4.33522 4.75653 4.55075
# Velocity P-wave (km/s) = 7.00741 8.27334 7.66655
#
# Compressibility (1/GPa) = 0.01316675
#
# Stress axis : x y z
#
# Youngs Moduli (GPa) = 121.94105 112.23164 177.15727
#
# Poissons Ratio (x) = -0.22755 0.47941
# Poissons Ratio (y) = -0.24723 0.72913
# Poissons Ratio (z) = 0.32999 0.46192
#
# Static dielectric constant tensor:
#      x y z
#    x 2.483350 0.000000 0.023960 
#    y 0.000000 2.537200 0.000000 
#    z 0.023960 0.000000 2.566090 
# 
# From -- ./inp_files/1991.got.cif
#   From: 2010.05.17/outbox.cif.g08.bks.cpg/sg15_1_cif.got.tgz:1991.got - 2010.06.03 18:47:42.
