data_PCOD9272954
_publ_section_title
;
Structure prediction by ZEFSAII (Michael W. Deem and Ramdas Pophale) SiO2 
 PCOD9272954
Probable space group: C 2/C
;
_chemical_formula_sum "Si O2"
_cell_formula_units_Z 52
_cell_length_a 20.897239
_cell_length_b 22.481228
_cell_length_c 5.012112
_cell_angle_alpha 90.000000
_cell_angle_beta 96.052893
_cell_angle_gamma 90.000000
_cell_volume 2341.540804
_symmetry_space_group_name_H-M "C 2/C"
_symmetry_group_IT_number 15
_symmetry_cell_setting 'monoclinic'
loop_
_space_group_symop_operation_xyz
x,y,z
-x,y,1/2-z
-x,-y,-z
x,-y,1/2+z
1/2+x,1/2+y,z
1/2-x,1/2+y,1/2-z
1/2-x,1/2-y,-z
1/2+x,1/2-y,1/2+z
loop_
_atom_site_type_symbol
_atom_site_label
_atom_site_fract_x
_atom_site_fract_y
_atom_site_fract_z
Si Si1 0.634383 0.705881 0.870111
Si Si2 0.616926 0.039148 0.284138
Si Si3 0.690596 0.202124 0.011907
Si Si4 0.560735 0.851386 0.435823
Si Si5 0.770795 0.966394 0.891793
Si Si6 0.000000 0.751542 0.250000
Si Si7 0.687274 0.640931 0.389957
O O1 0.660925 0.768721 0.767066
O O2 0.558775 0.709749 0.877317
O O3 0.651802 0.658221 0.646650
O O4 0.666313 0.690040 0.161967
O O5 0.694613 0.046776 0.324935
O O6 0.600212 0.013699 0.567591
O O7 0.584870 0.099770 0.162208
O O8 0.736506 0.145407 0.029360
O O9 0.750000 0.250000 0.000000
O O10 0.626202 0.177100 0.833960
O O11 0.500000 0.878406 0.250000
O O12 0.528212 0.792966 0.545527
O O13 0.818515 0.919416 0.777851
O O14 0.781472 0.024209 0.709569
#
# Coordination Sequence:
#
# PCOD9272954 Si02
#       7
#     8   8   8   8   8   4   8
#     4  10  23  37  62  88 124 158 204 249 308 376
#     4  10  23  42  61  85 119 165 217 262 302 352
#     4   9  20  39  58  89 119 160 206 260 308 370
#     4  11  24  41  62  87 124 173 210 261 311 365
#     4  10  20  37  61  92 124 154 201 262 312 360
#     4  10  26  42  58  92 128 166 204 254 306 374
#     4  11  20  39  62  93 116 160 202 254 315 367
#
# _framework density 22.207599999999999
#
# number of rings (size 3 to 8) (size 9 to 14) (size 15 to 20)
#    0.000    1.846    1.538    1.385    8.615    0.615 
#    2.769    0.000    0.000    0.000    0.000   10.769 
#    0.000    0.000    0.000    0.000    0.000    0.000 
#
# Total GULP energy -144774.744674 kJ/mol
# GULP energy per Si atom -5568.259411 kJ/mol
# Density = 2.215705 g / cm^3
# Si number density = 22.207600 Si / 1000 Ang^3
#
#
#
# Elastic Constant Matrix: (Units=GPa)
#
#
# Indices 1 2 3 4 5 6 
#
# 1 121.6606 25.2297 31.2313 0.0000 -0.1589 0.0000
# 2 25.2297 43.4420 -7.2546 0.0000 5.3104 0.0000
# 3 31.2313 -7.2546 72.0015 0.0000 1.2579 0.0000
# 4 0.0000 0.0000 0.0000 39.3442 0.0000 -24.2754
# 5 -0.1589 5.3104 1.2579 0.0000 12.4495 0.0000
# 6 0.0000 0.0000 0.0000 -24.2754 0.0000 39.4281
#
#
#
# Elastic Compliance Matrix: (Units=1/GPa)
#
#
# Indices 1 2 3 4 5 6 
#
# 1 0.011406 -0.008112 -0.005838 0.000000 0.004196 0.000000
# 2 -0.008112 0.030563 0.006840 0.000000 -0.013832 0.000000
# 3 -0.005838 0.006840 0.017193 0.000000 -0.004729 0.000000
# 4 0.000000 0.000000 0.000000 0.040987 0.000000 0.025235
# 5 0.004196 -0.013832 -0.004729 0.000000 0.086756 0.000000
# 6 0.000000 0.000000 0.000000 0.025235 0.000000 0.040900
#
#
# Mechanical properties :
#
#
# Convention : Reuss Voigt Hill
#
# Bulk Modulus (GPa) = 22.25124 37.27967 29.76546
# Shear Modulus (GPa) = 19.45485 30.77087 25.11286
#
# Velocity S-wave (km/s) = 2.96302 3.72640 3.36642
# Velocity P-wave (km/s) = 4.66341 5.94459 5.34254
#
# Compressibility (1/GPa) = 0.04494131
#
# Stress axis : x y z
#
# Youngs Moduli (GPa) = 87.67301 32.71889 58.16420
#
# Poissons Ratio (x) = 0.26542 0.33957
# Poissons Ratio (y) = 0.71121 -0.39783
# Poissons Ratio (z) = 0.51184 -0.22379
#
# Static dielectric constant tensor:
#      x y z
#    x 1.836720 0.000000 0.020270 
#    y 0.000000 1.988260 0.000000 
#    z 0.020270 0.000000 1.891550 
# 
# From -- ./inp_files/13406.got.cif
#   From: 2010.05.17/outbox.cif.g08.bks.cpg/sg15_7_cif.got.tgz:13406.got - 2010.06.03 18:47:42.
