data_PCOD9272175
_publ_section_title
;
Structure prediction by ZEFSAII (Michael W. Deem and Ramdas Pophale) SiO2 
 PCOD9272175
Probable space group: C 2/C
;
_chemical_formula_sum "Si O2"
_cell_formula_units_Z 36
_cell_length_a 10.515887
_cell_length_b 18.049039
_cell_length_c 7.548908
_cell_angle_alpha 90.000000
_cell_angle_beta 81.537016
_cell_angle_gamma 90.000000
_cell_volume 1417.193735
_symmetry_space_group_name_H-M "C 2/C"
_symmetry_group_IT_number 15
_symmetry_cell_setting 'monoclinic'
loop_
_space_group_symop_operation_xyz
x,y,z
-x,y,1/2-z
-x,-y,-z
x,-y,1/2+z
1/2+x,1/2+y,z
1/2-x,1/2+y,1/2-z
1/2-x,1/2-y,-z
1/2+x,1/2-y,1/2+z
loop_
_atom_site_type_symbol
_atom_site_label
_atom_site_fract_x
_atom_site_fract_y
_atom_site_fract_z
Si Si1 0.374529 0.603128 0.555012
Si Si2 0.717434 0.532558 0.284654
Si Si3 0.801412 0.292236 0.164712
Si Si4 0.396723 0.064911 0.553753
Si Si5 0.000000 0.814787 0.750000
O O1 0.295934 0.578597 0.391849
O O2 0.395996 0.523868 0.644310
O O3 0.306929 0.662317 0.700724
O O4 0.498521 0.637465 0.431280
O O5 0.783490 0.574660 0.431017
O O6 0.826150 0.469403 0.235463
O O7 0.919194 0.349258 0.088950
O O8 0.870987 0.232751 0.274996
O O9 0.750000 0.250000 0.000000
O O10 0.500000 0.000000 0.500000
#
# Coordination Sequence:
#
# PCOD9272175 Si02
#       5
#     8   8   8   8   4
#     4  10  23  45  68 103 139 184 247 296 373 426
#     4   9  20  39  67  93 140 175 227 329 337 419
#     4  11  26  46  67 103 151 191 238 307 377 452
#     4  10  20  36  64  99 133 182 249 294 370 415
#     4  12  26  42  72  96 146 200 236 282 374 474
#
# _framework density 25.402315000000002
#
# number of rings (size 3 to 8) (size 9 to 14) (size 15 to 20)
#    0.000    1.778    0.000    2.667    9.333    1.778 
#    4.000    0.000    0.000    0.000    0.000    0.000 
#    0.000    0.000    0.000    0.000    0.000    0.000 
#
# Total GULP energy -100232.209204 kJ/mol
# GULP energy per Si atom -5568.456067 kJ/mol
# Density = 2.534450 g / cm^3
# Si number density = 25.402315 Si / 1000 Ang^3
#
#
#
# Elastic Constant Matrix: (Units=GPa)
#
#
# Indices 1 2 3 4 5 6 
#
# 1 76.9354 40.6652 48.6380 0.0000 15.8542 0.0000
# 2 40.6652 155.4475 54.1049 0.0000 -4.3479 0.0000
# 3 48.6380 54.1049 156.3047 0.0000 11.1912 0.0000
# 4 0.0000 0.0000 0.0000 50.1790 0.0000 -10.0790
# 5 15.8542 -4.3479 11.1912 0.0000 57.5792 0.0000
# 6 0.0000 0.0000 0.0000 -10.0790 0.0000 31.0465
#
#
#
# Elastic Compliance Matrix: (Units=1/GPa)
#
#
# Indices 1 2 3 4 5 6 
#
# 1 0.018429 -0.003484 -0.004205 0.000000 -0.004520 0.000000
# 2 -0.003484 0.008037 -0.001836 0.000000 0.001923 0.000000
# 3 -0.004205 -0.001836 0.008385 0.000000 -0.000611 0.000000
# 4 0.000000 0.000000 0.000000 0.021319 0.000000 0.006921
# 5 -0.004520 0.001923 -0.000611 0.000000 0.018876 0.000000
# 6 0.000000 0.000000 0.000000 0.006921 0.000000 0.034457
#
#
# Mechanical properties :
#
#
# Convention : Reuss Voigt Hill
#
# Bulk Modulus (GPa) = 63.28114 75.05598 69.16856
# Shear Modulus (GPa) = 37.36363 44.11290 40.73827
#
# Velocity S-wave (km/s) = 3.83936 4.17174 4.00900
# Velocity P-wave (km/s) = 6.67981 7.26743 6.97981
#
# Compressibility (1/GPa) = 0.01580250
#
# Stress axis : x y z
#
# Youngs Moduli (GPa) = 54.26138 124.42249 119.25488
#
# Poissons Ratio (x) = 0.43348 0.50148
# Poissons Ratio (y) = 0.18904 0.21891
# Poissons Ratio (z) = 0.22818 0.22839
#
# Static dielectric constant tensor:
#      x y z
#    x 2.201280 0.000000 -0.085530 
#    y 0.000000 2.393480 0.000000 
#    z -0.085530 0.000000 2.056520 
# 
# From -- ./inp_files/28726.got.cif
#   From: 2010.05.17/outbox.cif.g08.bks.cpg/sg15_15_cif.got.tgz:28726.got - 2010.06.03 18:47:42.
