data_PCOD9272387
_publ_section_title
;
Structure prediction by ZEFSAII (Michael W. Deem and Ramdas Pophale) SiO2 
 PCOD9272387
Probable space group: C 2/C
;
_chemical_formula_sum "Si O2"
_cell_formula_units_Z 60
_cell_length_a 7.710238
_cell_length_b 14.256034
_cell_length_c 24.927694
_cell_angle_alpha 90.000000
_cell_angle_beta 81.835713
_cell_angle_gamma 90.000000
_cell_volume 2712.217750
_symmetry_space_group_name_H-M "C 2/C"
_symmetry_group_IT_number 15
_symmetry_cell_setting 'monoclinic'
loop_
_space_group_symop_operation_xyz
x,y,z
-x,y,1/2-z
-x,-y,-z
x,-y,1/2+z
1/2+x,1/2+y,z
1/2-x,1/2+y,1/2-z
1/2-x,1/2-y,-z
1/2+x,1/2-y,1/2+z
loop_
_atom_site_type_symbol
_atom_site_label
_atom_site_fract_x
_atom_site_fract_y
_atom_site_fract_z
Si Si1 0.948948 0.643461 0.387535
Si Si2 0.339963 0.329516 0.442714
Si Si3 0.678252 0.957176 0.711368
Si Si4 0.778586 0.524724 0.475511
Si Si5 0.358739 0.665450 0.361133
Si Si6 0.055960 0.980932 0.378498
Si Si7 0.123936 0.168839 0.022409
Si Si8 0.500000 0.650314 0.250000
O O1 0.832135 0.725527 0.419468
O O2 0.150379 0.672912 0.373074
O O3 0.877219 0.617406 0.332206
O O4 0.934413 0.553970 0.428271
O O5 0.200233 0.399073 0.476724
O O6 0.445860 0.388989 0.394282
O O7 0.465393 0.325366 0.488803
O O8 0.500000 0.984732 0.750000
O O9 0.783156 0.031932 0.669724
O O10 0.825627 0.910626 0.743283
O O11 0.626268 0.519105 0.433910
O O12 0.730480 0.428328 0.508114
O O13 0.427427 0.557772 0.358237
O O14 0.428778 0.696207 0.415286
O O15 0.445528 0.708430 0.304834
O O16 0.250000 0.250000 0.000000
#
# Coordination Sequence:
#
# PCOD9272387 Si02
#       8
#     8   8   8   8   8   8   8   4
#     4  11  23  34  61  91 128 159 208 263 313 370
#     4  11  19  37  58  88 129 170 198 251 320 384
#     4  10  20  40  65  91 115 160 221 268 313 372
#     4  10  20  37  54  87 128 164 200 250 307 384
#     4  11  19  37  59  89 115 164 209 251 313 368
#     4   9  19  35  63  81 118 167 204 245 320 374
#     4  11  20  35  60  89 122 164 206 251 320 380
#     4  10  22  38  70  84 120 170 212 260 326 370
#
# _framework density 22.122116999999999
#
# number of rings (size 3 to 8) (size 9 to 14) (size 15 to 20)
#    0.000    1.600    5.333    1.200    0.000    0.533 
#    0.000    0.000    7.333    0.000    0.000    0.000 
#    0.000    0.000    0.000    0.000    0.000    0.000 
#
# Total GULP energy -167032.319756 kJ/mol
# GULP energy per Si atom -5567.743992 kJ/mol
# Density = 2.207177 g / cm^3
# Si number density = 22.122117 Si / 1000 Ang^3
#
#
#
# Elastic Constant Matrix: (Units=GPa)
#
#
# Indices 1 2 3 4 5 6 
#
# 1 69.9213 -5.5158 18.0868 0.0000 -4.8082 0.0000
# 2 -5.5158 32.3443 28.3097 0.0000 -11.9156 0.0000
# 3 18.0868 28.3097 157.6658 0.0000 -18.8342 0.0000
# 4 0.0000 0.0000 0.0000 16.8062 0.0000 -2.9698
# 5 -4.8082 -11.9156 -18.8342 0.0000 43.3063 0.0000
# 6 0.0000 0.0000 0.0000 -2.9698 0.0000 8.9824
#
#
#
# Elastic Compliance Matrix: (Units=1/GPa)
#
#
# Indices 1 2 3 4 5 6 
#
# 1 0.015559 0.005686 -0.002545 0.000000 0.002185 0.000000
# 2 0.005686 0.041313 -0.007001 0.000000 0.008954 0.000000
# 3 -0.002545 -0.007001 0.008046 0.000000 0.001290 0.000000
# 4 0.000000 0.000000 0.000000 0.063194 0.000000 0.020893
# 5 0.002185 0.008954 0.001290 0.000000 0.026359 0.000000
# 6 0.000000 0.000000 0.000000 0.020893 0.000000 0.118237
#
#
# Mechanical properties :
#
#
# Convention : Reuss Voigt Hill
#
# Bulk Modulus (GPa) = 17.48317 37.96584 27.72451
# Shear Modulus (GPa) = 16.69493 28.42236 22.55864
#
# Velocity S-wave (km/s) = 2.75011 3.58829 3.19679
# Velocity P-wave (km/s) = 4.24315 5.86233 5.11719
#
# Compressibility (1/GPa) = 0.05719787
#
# Stress axis : x y z
#
# Youngs Moduli (GPa) = 64.27224 24.20555 124.29192
#
# Poissons Ratio (x) = -0.13762 0.31628
# Poissons Ratio (y) = -0.36543 0.87011
# Poissons Ratio (z) = 0.16355 0.16945
#
# Static dielectric constant tensor:
#      x y z
#    x 1.849950 0.000000 -0.018660 
#    y 0.000000 1.805060 0.000000 
#    z -0.018660 0.000000 1.869850 
# 
# From -- ./inp_files/264678.got.cif
#   From: 2010.05.17/outbox.cif.g08.bks.cpg/sg15_133_cif.got.tgz:264678.got - 2010.06.03 18:47:42.
