data_PCOD9272461
_publ_section_title
;
Structure prediction by ZEFSAII (Michael W. Deem and Ramdas Pophale) SiO2 
 PCOD9272461
Probable space group: C 2/C
;
_chemical_formula_sum "Si O2"
_cell_formula_units_Z 40
_cell_length_a 13.579857
_cell_length_b 33.540644
_cell_length_c 5.384469
_cell_angle_alpha 90.000000
_cell_angle_beta 47.884071
_cell_angle_gamma 90.000000
_cell_volume 1819.240485
_symmetry_space_group_name_H-M "C 2/C"
_symmetry_group_IT_number 15
_symmetry_cell_setting 'monoclinic'
loop_
_space_group_symop_operation_xyz
x,y,z
-x,y,1/2-z
-x,-y,-z
x,-y,1/2+z
1/2+x,1/2+y,z
1/2-x,1/2+y,1/2-z
1/2-x,1/2-y,-z
1/2+x,1/2-y,1/2+z
loop_
_atom_site_type_symbol
_atom_site_label
_atom_site_fract_x
_atom_site_fract_y
_atom_site_fract_z
Si Si1 0.633260 0.199215 0.306039
Si Si2 0.152076 0.016961 0.736251
Si Si3 0.338601 0.166690 0.739522
Si Si4 0.365401 0.390306 0.142363
Si Si5 0.000000 0.829194 0.250000
Si Si6 0.000000 0.223982 0.250000
O O1 0.498341 0.172347 0.498289
O O2 0.707001 0.180759 0.414765
O O3 0.597720 0.243164 0.458144
O O4 0.695602 0.196720 0.928724
O O5 0.151275 0.064491 0.742282
O O6 0.215021 0.999786 0.380913
O O7 0.000000 0.000000 0.000000
O O8 0.263099 0.126524 0.788066
O O9 0.392289 0.360592 0.323975
O O10 0.500000 0.389134 0.750000
O O11 0.972110 0.802860 0.549761
#
# Coordination Sequence:
#
# PCOD9272461 Si02
#       6
#     8   8   8   8   4   4
#     4   9  19  43  61  80 106 151 220 240 268 336
#     4  10  20  37  57  78 113 156 188 214 268 354
#     4   9  20  36  63  84 108 151 195 251 283 323
#     4  12  25  38  59  89 129 146 186 239 297 356
#     4  12  24  36  52  89 126 154 182 239 308 346
#     4  10  20  40  62  73 118 160 200 245 276 344
#
# _framework density 21.987196999999998
#
# number of rings (size 3 to 8) (size 9 to 14) (size 15 to 20)
#    0.000    2.000    3.000    3.600    2.800    0.000 
#    0.000   14.000    0.000    0.000    0.000   16.800 
#    0.000    0.000    0.000    0.000    0.000    0.000 
#
# Total GULP energy -111337.980523 kJ/mol
# GULP energy per Si atom -5566.899026 kJ/mol
# Density = 2.193715 g / cm^3
# Si number density = 21.987197 Si / 1000 Ang^3
#
#
#
# Elastic Constant Matrix: (Units=GPa)
#
#
# Indices 1 2 3 4 5 6 
#
# 1 118.3744 69.4814 59.1314 0.0000 28.2348 0.0000
# 2 69.4814 171.8357 61.9180 0.0000 19.5393 0.0000
# 3 59.1314 61.9180 128.7419 0.0000 62.1195 0.0000
# 4 0.0000 0.0000 0.0000 22.6536 0.0000 3.7499
# 5 28.2348 19.5393 62.1195 0.0000 65.2141 0.0000
# 6 0.0000 0.0000 0.0000 3.7499 0.0000 38.6501
#
#
#
# Elastic Compliance Matrix: (Units=1/GPa)
#
#
# Indices 1 2 3 4 5 6 
#
# 1 0.012635 -0.003722 -0.003538 0.000000 -0.000985 0.000000
# 2 -0.003722 0.008289 -0.003435 0.000000 0.002400 0.000000
# 3 -0.003538 -0.003435 0.018152 0.000000 -0.014729 0.000000
# 4 0.000000 0.000000 0.000000 0.044864 0.000000 -0.004353
# 5 -0.000985 0.002400 -0.014729 0.000000 0.029072 0.000000
# 6 0.000000 0.000000 0.000000 -0.004353 0.000000 0.026295
#
#
# Mechanical properties :
#
#
# Convention : Reuss Voigt Hill
#
# Bulk Modulus (GPa) = 56.54255 88.89040 72.71647
# Shear Modulus (GPa) = 30.01344 40.53164 35.27254
#
# Velocity S-wave (km/s) = 3.69865 4.29816 4.00963
# Velocity P-wave (km/s) = 6.63416 8.07145 7.38784
#
# Compressibility (1/GPa) = 0.01768580
#
# Stress axis : x y z
#
# Youngs Moduli (GPa) = 79.14777 120.63506 55.09147
#
# Poissons Ratio (x) = 0.44901 0.19489
# Poissons Ratio (y) = 0.29459 0.18926
# Poissons Ratio (z) = 0.27999 0.41443
#
# Static dielectric constant tensor:
#      x y z
#    x 1.850510 0.000000 -0.056710 
#    y 0.000000 1.767160 0.000000 
#    z -0.056710 0.000000 1.938020 
# 
# From -- ./inp_files/8454.got.cif
#   From: 2010.05.17/outbox.cif.g08.bks.cpg/sg15_5_cif.got.tgz:8454.got - 2010.06.03 18:47:42.
