data_PCOD9272825
_publ_section_title
;
Structure prediction by ZEFSAII (Michael W. Deem and Ramdas Pophale) SiO2 
 PCOD9272825
Probable space group: C 2/C
;
_chemical_formula_sum "Si O2"
_cell_formula_units_Z 40
_cell_length_a 11.291947
_cell_length_b 8.842661
_cell_length_c 16.943864
_cell_angle_alpha 90.000000
_cell_angle_beta 62.395610
_cell_angle_gamma 90.000000
_cell_volume 1499.271778
_symmetry_space_group_name_H-M "C 2/C"
_symmetry_group_IT_number 15
_symmetry_cell_setting 'monoclinic'
loop_
_space_group_symop_operation_xyz
x,y,z
-x,y,1/2-z
-x,-y,-z
x,-y,1/2+z
1/2+x,1/2+y,z
1/2-x,1/2+y,1/2-z
1/2-x,1/2-y,-z
1/2+x,1/2-y,1/2+z
loop_
_atom_site_type_symbol
_atom_site_label
_atom_site_fract_x
_atom_site_fract_y
_atom_site_fract_z
Si Si1 0.726295 0.183321 0.816412
Si Si2 0.669901 0.094100 0.449619
Si Si3 0.031712 0.128155 0.148168
Si Si4 0.788303 0.613830 0.429288
Si Si5 0.390653 0.618798 0.609110
O O1 0.584027 0.264861 0.849279
O O2 0.822514 0.294431 0.838298
O O3 0.787776 0.154402 0.711706
O O4 0.700765 0.029394 0.872025
O O5 0.577079 0.227681 0.446501
O O6 0.816160 0.172577 0.413710
O O7 0.628871 0.001468 0.540419
O O8 0.000000 0.116417 0.250000
O O9 0.010576 0.964493 0.115795
O O10 0.750000 0.750000 0.500000
O O11 0.674929 0.501221 0.429937
#
# Coordination Sequence:
#
# PCOD9272825 Si02
#       5
#     8   8   8   8   8
#     4  10  20  37  60  90 121 158 208 252 298 371
#     4  11  21  40  62  89 126 161 204 260 308 359
#     4  11  21  38  63  90 122 166 205 254 311 354
#     4   9  21  38  61  90 126 162 198 258 315 353
#     4  11  20  36  63  91 117 161 212 244 300 379
#
# _framework density 26.679618000000001
#
# number of rings (size 3 to 8) (size 9 to 14) (size 15 to 20)
#    0.000    1.600    4.000    1.800    0.000    3.200 
#    0.000    7.000    0.000   13.200    0.000    0.000 
#    0.000    0.000    0.000    0.000    0.000    0.000 
#
# Total GULP energy -112041.197538 kJ/mol
# GULP energy per Si atom -5602.059877 kJ/mol
# Density = 2.661889 g / cm^3
# Si number density = 26.679618 Si / 1000 Ang^3
#
#
#
# Elastic Constant Matrix: (Units=GPa)
#
#
# Indices 1 2 3 4 5 6 
#
# 1 77.3535 47.1702 50.0895 0.0000 -9.2016 0.0000
# 2 47.1702 170.6788 63.5342 0.0000 22.2888 0.0000
# 3 50.0895 63.5342 184.8715 0.0000 18.0535 0.0000
# 4 0.0000 0.0000 0.0000 40.8003 0.0000 16.3699
# 5 -9.2016 22.2888 18.0535 0.0000 38.3963 0.0000
# 6 0.0000 0.0000 0.0000 16.3699 0.0000 53.1836
#
#
#
# Elastic Compliance Matrix: (Units=1/GPa)
#
#
# Indices 1 2 3 4 5 6 
#
# 1 0.020347 -0.005187 -0.004717 0.000000 0.010105 0.000000
# 2 -0.005187 0.008375 -0.000919 0.000000 -0.005673 0.000000
# 3 -0.004717 -0.000919 0.007401 0.000000 -0.004077 0.000000
# 4 0.000000 0.000000 0.000000 0.027963 0.000000 -0.008607
# 5 0.010105 -0.005673 -0.004077 0.000000 0.033676 0.000000
# 6 0.000000 0.000000 0.000000 -0.008607 0.000000 0.021452
#
#
# Mechanical properties :
#
#
# Convention : Reuss Voigt Hill
#
# Bulk Modulus (GPa) = 69.07243 83.83242 76.45242
# Shear Modulus (GPa) = 34.32021 44.61672 39.46847
#
# Velocity S-wave (km/s) = 3.59051 4.09383 3.85040
# Velocity P-wave (km/s) = 6.56771 7.33731 6.96315
#
# Compressibility (1/GPa) = 0.01447756
#
# Stress axis : x y z
#
# Youngs Moduli (GPa) = 49.14654 119.39752 135.11346
#
# Poissons Ratio (x) = 0.61932 0.63735
# Poissons Ratio (y) = 0.25493 0.12417
# Poissons Ratio (z) = 0.23183 0.10972
#
# Static dielectric constant tensor:
#      x y z
#    x 2.074550 0.000000 0.034460 
#    y 0.000000 2.061690 0.000000 
#    z 0.034460 0.000000 2.020640 
# 
# From -- ./inp_files/195095.got.cif
#   From: 2010.05.17/outbox.cif.g08.bks.cpg/sg15_98_cif.got.tgz:195095.got - 2010.06.03 18:47:42.
