data_PCOD9272088
_publ_section_title
;
Structure prediction by ZEFSAII (Michael W. Deem and Ramdas Pophale) SiO2 
 PCOD9272088
Probable space group: C 2/C
;
_chemical_formula_sum "Si O2"
_cell_formula_units_Z 60
_cell_length_a 11.632933
_cell_length_b 30.737809
_cell_length_c 8.609867
_cell_angle_alpha 90.000000
_cell_angle_beta 109.349632
_cell_angle_gamma 90.000000
_cell_volume 2904.738629
_symmetry_space_group_name_H-M "C 2/C"
_symmetry_group_IT_number 15
_symmetry_cell_setting 'monoclinic'
loop_
_space_group_symop_operation_xyz
x,y,z
-x,y,1/2-z
-x,-y,-z
x,-y,1/2+z
1/2+x,1/2+y,z
1/2-x,1/2+y,1/2-z
1/2-x,1/2-y,-z
1/2+x,1/2-y,1/2+z
loop_
_atom_site_type_symbol
_atom_site_label
_atom_site_fract_x
_atom_site_fract_y
_atom_site_fract_z
Si Si1 0.000263 0.692106 0.573541
Si Si2 0.763918 0.796964 0.084430
Si Si3 0.000000 0.158387 0.250000
Si Si4 0.137598 0.773777 0.039279
Si Si5 0.683511 0.060287 0.531990
Si Si6 0.696693 0.373818 0.613063
Si Si7 0.912700 0.602585 0.435755
Si Si8 0.356218 0.030487 0.647459
O O1 0.131974 0.683383 0.564394
O O2 0.000000 0.708156 0.750000
O O3 0.946817 0.732597 0.457014
O O4 0.929453 0.646899 0.539906
O O5 0.826460 0.794168 0.280022
O O6 0.750000 0.750000 0.000000
O O7 0.819940 0.828074 0.981184
O O8 0.908250 0.127939 0.305928
O O9 0.076716 0.190652 0.398574
O O10 0.250000 0.750000 0.000000
O O11 0.790857 0.090584 0.516171
O O12 0.547673 0.082837 0.461142
O O13 0.702115 0.046987 0.719305
O O14 0.681437 0.016729 0.428118
O O15 0.826261 0.381788 0.757663
O O16 0.845465 0.565734 0.505805
O O17 0.500000 0.027607 0.750000
#
# Coordination Sequence:
#
# PCOD9272088 Si02
#       8
#     8   8   4   8   8   8   8   8
#     4  12  22  37  63  94 128 169 219 274 331 395
#     4  12  26  41  62  94 127 173 227 277 331 393
#     4  12  28  48  64  94 128 182 232 284 338 388
#     4  12  23  45  67  89 131 179 225 273 336 392
#     4  11  21  39  65 101 136 174 216 273 341 412
#     4  12  26  42  63  93 131 175 229 273 334 397
#     4  11  22  38  64 100 138 173 214 275 334 403
#     4  10  20  36  64 101 143 172 210 267 349 405
#
# _framework density 20.655902999999999
#
# number of rings (size 3 to 8) (size 9 to 14) (size 15 to 20)
#    0.000    0.533    3.333    8.000    0.000    3.200 
#    0.000    0.000    0.000    3.200    0.000    0.000 
#    0.000    0.000    0.000    0.000    0.000    0.000 
#
# Total GULP energy -167620.555077 kJ/mol
# GULP energy per Si atom -5587.351836 kJ/mol
# Density = 2.060889 g / cm^3
# Si number density = 20.655903 Si / 1000 Ang^3
#
#
#
# Elastic Constant Matrix: (Units=GPa)
#
#
# Indices 1 2 3 4 5 6 
#
# 1 84.6992 29.2012 30.5961 0.0000 -28.1599 0.0000
# 2 29.2012 124.4504 42.4271 0.0000 -15.2777 0.0000
# 3 30.5961 42.4271 105.8838 0.0000 -17.0146 0.0000
# 4 0.0000 0.0000 0.0000 33.1665 0.0000 -14.6538
# 5 -28.1599 -15.2777 -17.0146 0.0000 26.9384 0.0000
# 6 0.0000 0.0000 0.0000 -14.6538 0.0000 27.4699
#
#
#
# Elastic Compliance Matrix: (Units=1/GPa)
#
#
# Indices 1 2 3 4 5 6 
#
# 1 0.018942 -0.001598 -0.002000 0.000000 0.017631 0.000000
# 2 -0.001598 0.009705 -0.003128 0.000000 0.001857 0.000000
# 3 -0.002000 -0.003128 0.011858 0.000000 0.003625 0.000000
# 4 0.000000 0.000000 0.000000 0.039449 0.000000 0.021044
# 5 0.017631 0.001857 0.003625 0.000000 0.058895 0.000000
# 6 0.000000 0.000000 0.000000 0.021044 0.000000 0.047630
#
#
# Mechanical properties :
#
#
# Convention : Reuss Voigt Hill
#
# Bulk Modulus (GPa) = 36.96616 57.72023 47.34320
# Shear Modulus (GPa) = 23.92935 31.70223 27.81579
#
# Velocity S-wave (km/s) = 3.40733 3.92187 3.67362
# Velocity P-wave (km/s) = 5.78056 6.96509 6.40029
#
# Compressibility (1/GPa) = 0.02705177
#
# Stress axis : x y z
#
# Youngs Moduli (GPa) = 52.79360 103.04094 84.32965
#
# Poissons Ratio (x) = 0.16469 0.16864
# Poissons Ratio (y) = 0.08438 0.26382
# Poissons Ratio (z) = 0.10558 0.32235
#
# Static dielectric constant tensor:
#      x y z
#    x 1.793010 0.000000 0.000240 
#    y 0.000000 1.754470 0.000000 
#    z 0.000240 0.000000 1.816120 
# 
# From -- ./inp_files/35727.got.cif
#   From: 2010.05.17/outbox.cif.g08.bks.cpg/sg15_18_cif.got.tgz:35727.got - 2010.06.03 18:47:42.
