data_PCOD9272164
_publ_section_title
;
Structure prediction by ZEFSAII (Michael W. Deem and Ramdas Pophale) SiO2 
 PCOD9272164
Probable space group: C 2/C
;
_chemical_formula_sum "Si O2"
_cell_formula_units_Z 64
_cell_length_a 9.149054
_cell_length_b 18.715955
_cell_length_c 18.843356
_cell_angle_alpha 90.000000
_cell_angle_beta 91.781645
_cell_angle_gamma 90.000000
_cell_volume 3225.049875
_symmetry_space_group_name_H-M "C 2/C"
_symmetry_group_IT_number 15
_symmetry_cell_setting 'monoclinic'
loop_
_space_group_symop_operation_xyz
x,y,z
-x,y,1/2-z
-x,-y,-z
x,-y,1/2+z
1/2+x,1/2+y,z
1/2-x,1/2+y,1/2-z
1/2-x,1/2-y,-z
1/2+x,1/2-y,1/2+z
loop_
_atom_site_type_symbol
_atom_site_label
_atom_site_fract_x
_atom_site_fract_y
_atom_site_fract_z
Si Si1 0.746902 0.146261 0.566769
Si Si2 0.582546 0.392371 0.074684
Si Si3 0.880065 0.426105 0.688642
Si Si4 0.335837 0.599045 0.091503
Si Si5 0.924023 0.015455 0.317730
Si Si6 0.159904 0.700410 0.415626
Si Si7 0.323290 0.758760 0.924637
Si Si8 0.935017 0.489961 0.420214
O O1 0.749431 0.227195 0.596046
O O2 0.729638 0.157675 0.482042
O O3 0.624034 0.090793 0.589658
O O4 0.908375 0.116134 0.582454
O O5 0.620611 0.461066 0.120937
O O6 0.665793 0.321748 0.104883
O O7 0.613641 0.398539 0.990795
O O8 0.724009 0.450687 0.713678
O O9 0.853660 0.351077 0.650293
O O10 0.000000 0.418556 0.750000
O O11 0.945057 0.482632 0.633147
O O12 0.467322 0.572386 0.143279
O O13 0.266837 0.676188 0.111317
O O14 0.204539 0.541814 0.091190
O O15 0.000000 0.980955 0.250000
O O16 0.993511 0.719604 0.435297
O O17 0.250000 0.750000 0.000000
O O18 0.000000 0.500000 0.500000
#
# Coordination Sequence:
#
# PCOD9272164 Si02
#       8
#     8   8   8   8   8   8   8   8
#     4  10  20  36  64  97 130 158 209 268 328 381
#     4  10  21  37  65  98 125 163 210 264 328 381
#     4  12  26  43  65  91 131 178 222 273 334 404
#     4  11  20  37  66  94 129 158 215 268 326 389
#     4  12  26  42  63  89 128 176 221 268 320 393
#     4  10  20  38  62  97 129 165 210 267 330 389
#     4   9  19  36  62  97 128 159 201 267 327 382
#     4  12  21  36  65  98 130 165 216 273 333 389
#
# _framework density 19.844653999999998
#
# number of rings (size 3 to 8) (size 9 to 14) (size 15 to 20)
#    0.000    1.250    3.750    2.625    0.000    2.000 
#    0.000    2.500    0.000    1.500    0.000    0.000 
#    0.000    0.000    0.000    0.000    0.000    0.000 
#
# Total GULP energy -178668.552747 kJ/mol
# GULP energy per Si atom -5583.392273 kJ/mol
# Density = 1.979949 g / cm^3
# Si number density = 19.844654 Si / 1000 Ang^3
#
#
#
# Elastic Constant Matrix: (Units=GPa)
#
#
# Indices 1 2 3 4 5 6 
#
# 1 71.2676 43.6756 19.9557 0.0000 15.3586 0.0000
# 2 43.6756 109.8400 29.7066 0.0000 12.8982 0.0000
# 3 19.9557 29.7066 54.6990 0.0000 4.3829 0.0000
# 4 0.0000 0.0000 0.0000 8.9152 0.0000 1.0939
# 5 15.3586 12.8982 4.3829 0.0000 30.3909 0.0000
# 6 0.0000 0.0000 0.0000 1.0939 0.0000 30.1236
#
#
#
# Elastic Compliance Matrix: (Units=1/GPa)
#
#
# Indices 1 2 3 4 5 6 
#
# 1 0.020423 -0.006357 -0.003427 0.000000 -0.007129 0.000000
# 2 -0.006357 0.013087 -0.004654 0.000000 -0.001670 0.000000
# 3 -0.003427 -0.004654 0.022017 0.000000 0.000532 0.000000
# 4 0.000000 0.000000 0.000000 0.112670 0.000000 -0.004092
# 5 -0.007129 -0.001670 0.000532 0.000000 0.037140 0.000000
# 6 0.000000 0.000000 0.000000 -0.004092 0.000000 0.033345
#
#
# Mechanical properties :
#
#
# Convention : Reuss Voigt Hill
#
# Bulk Modulus (GPa) = 37.52291 46.94248 42.23269
# Shear Modulus (GPa) = 18.08690 23.38385 20.73538
#
# Velocity S-wave (km/s) = 3.02226 3.43643 3.23597
# Velocity P-wave (km/s) = 5.57925 6.28106 5.94053
#
# Compressibility (1/GPa) = 0.02665039
#
# Stress axis : x y z
#
# Youngs Moduli (GPa) = 48.96331 76.41324 45.41872
#
# Poissons Ratio (x) = 0.48575 0.15567
# Poissons Ratio (y) = 0.31125 0.21139
# Poissons Ratio (z) = 0.16782 0.35565
#
# Static dielectric constant tensor:
#      x y z
#    x 1.699020 0.000000 -0.015570 
#    y 0.000000 1.736110 0.000000 
#    z -0.015570 0.000000 1.664870 
# 
# From -- ./inp_files/232699.got.cif
#   From: 2010.05.17/outbox.cif.g08.bks.cpg/sg15_117_cif.got.tgz:232699.got - 2010.06.03 18:47:42.
