data_PCOD9272709
_publ_section_title
;
Structure prediction by ZEFSAII (Michael W. Deem and Ramdas Pophale) SiO2 
 PCOD9272709
Probable space group: C 2/C
;
_chemical_formula_sum "Si O2"
_cell_formula_units_Z 36
_cell_length_a 9.384688
_cell_length_b 13.186382
_cell_length_c 12.860421
_cell_angle_alpha 90.000000
_cell_angle_beta 107.830496
_cell_angle_gamma 90.000000
_cell_volume 1515.033954
_symmetry_space_group_name_H-M "C 2/C"
_symmetry_group_IT_number 15
_symmetry_cell_setting 'monoclinic'
loop_
_space_group_symop_operation_xyz
x,y,z
-x,y,1/2-z
-x,-y,-z
x,-y,1/2+z
1/2+x,1/2+y,z
1/2-x,1/2+y,1/2-z
1/2-x,1/2-y,-z
1/2+x,1/2-y,1/2+z
loop_
_atom_site_type_symbol
_atom_site_label
_atom_site_fract_x
_atom_site_fract_y
_atom_site_fract_z
Si Si1 0.500000 0.812476 0.750000
Si Si2 0.280999 0.521407 0.691192
Si Si3 0.502963 0.626598 0.610786
Si Si4 0.194095 0.136748 0.474240
Si Si5 0.449673 0.001063 0.610037
O O1 0.557916 0.731558 0.676977
O O2 0.415074 0.892602 0.655594
O O3 0.336015 0.599916 0.612588
O O4 0.396945 0.541740 0.808969
O O5 0.297221 0.412287 0.638281
O O6 0.111141 0.537452 0.690821
O O7 0.534680 0.627763 0.496434
O O8 0.250000 0.250000 0.500000
O O9 0.308809 0.072866 0.570670
O O10 0.500000 0.000000 0.500000
#
# Coordination Sequence:
#
# PCOD9272709 Si02
#       5
#     4   8   8   8   8
#     4  10  20  38  60  84 112 148 188 228 284 340
#     4   9  20  38  58  85 114 149 190 233 284 333
#     4  10  21  39  61  85 116 147 187 242 285 330
#     4  11  22  38  59  85 117 151 190 233 280 336
#     4  10  20  37  60  83 113 151 190 230 278 341
#
# _framework density 23.761842999999999
#
# number of rings (size 3 to 8) (size 9 to 14) (size 15 to 20)
#    0.000    2.222    0.000    4.667    0.000    0.000 
#    0.000   47.778    0.000    0.000    0.000    0.000 
#    0.000    0.000    0.000    0.000    0.000    0.000 
#
# Total GULP energy -100204.028092 kJ/mol
# GULP energy per Si atom -5566.890450 kJ/mol
# Density = 2.370776 g / cm^3
# Si number density = 23.761843 Si / 1000 Ang^3
#
#
#
# Elastic Constant Matrix: (Units=GPa)
#
#
# Indices 1 2 3 4 5 6 
#
# 1 108.9623 22.3087 -13.0940 0.0000 -22.2297 0.0000
# 2 22.3087 162.5303 48.5059 0.0000 -0.1834 0.0000
# 3 -13.0940 48.5059 65.5860 0.0000 -1.7667 0.0000
# 4 0.0000 0.0000 0.0000 46.5644 0.0000 0.2588
# 5 -22.2297 -0.1834 -1.7667 0.0000 35.0546 0.0000
# 6 0.0000 0.0000 0.0000 0.2588 0.0000 24.1823
#
#
#
# Elastic Compliance Matrix: (Units=1/GPa)
#
#
# Indices 1 2 3 4 5 6 
#
# 1 0.012001 -0.003101 0.004901 0.000000 0.007841 0.000000
# 2 -0.003101 0.008699 -0.007114 0.000000 -0.002279 0.000000
# 3 0.004901 -0.007114 0.021599 0.000000 0.004159 0.000000
# 4 0.000000 0.000000 0.000000 0.021477 0.000000 -0.000230
# 5 0.007841 -0.002279 0.004159 0.000000 0.033697 0.000000
# 6 0.000000 0.000000 0.000000 -0.000230 0.000000 0.041355
#
#
# Mechanical properties :
#
#
# Convention : Reuss Voigt Hill
#
# Bulk Modulus (GPa) = 31.57561 50.27997 40.92779
# Shear Modulus (GPa) = 31.24744 39.78411 35.51578
#
# Velocity S-wave (km/s) = 3.63026 4.09624 3.87027
# Velocity P-wave (km/s) = 5.55778 6.60138 6.10193
#
# Compressibility (1/GPa) = 0.03167001
#
# Stress axis : x y z
#
# Youngs Moduli (GPa) = 83.32672 114.95749 46.29864
#
# Poissons Ratio (x) = 0.35647 -0.22689
# Poissons Ratio (y) = 0.25839 0.32937
# Poissons Ratio (z) = -0.40835 0.81780
#
# Static dielectric constant tensor:
#      x y z
#    x 2.064680 0.000000 -0.028040 
#    y 0.000000 1.937300 0.000000 
#    z -0.028040 0.000000 2.031760 
# 
# From -- ./inp_files/141984.got.cif
#   From: 2010.05.17/outbox.cif.g08.bks.cpg/sg15_71_cif.got.tgz:141984.got - 2010.06.03 18:47:42.
