data_PCOD9272249
_publ_section_title
;
Structure prediction by ZEFSAII (Michael W. Deem and Ramdas Pophale) SiO2 
 PCOD9272249
Probable space group: C 2/C
;
_chemical_formula_sum "Si O2"
_cell_formula_units_Z 48
_cell_length_a 18.044686
_cell_length_b 13.759390
_cell_length_c 14.979320
_cell_angle_alpha 90.000000
_cell_angle_beta 32.525555
_cell_angle_gamma 90.000000
_cell_volume 1999.682457
_symmetry_space_group_name_H-M "C 2/C"
_symmetry_group_IT_number 15
_symmetry_cell_setting 'monoclinic'
loop_
_space_group_symop_operation_xyz
x,y,z
-x,y,1/2-z
-x,-y,-z
x,-y,1/2+z
1/2+x,1/2+y,z
1/2-x,1/2+y,1/2-z
1/2-x,1/2-y,-z
1/2+x,1/2-y,1/2+z
loop_
_atom_site_type_symbol
_atom_site_label
_atom_site_fract_x
_atom_site_fract_y
_atom_site_fract_z
Si Si1 0.710444 0.715669 0.443680
Si Si2 0.088366 0.247368 0.015390
Si Si3 0.000000 0.607191 0.750000
Si Si4 0.681926 0.014970 0.203706
Si Si5 0.852735 0.656077 0.652425
Si Si6 0.000000 0.090306 0.750000
Si Si7 0.996035 0.035247 0.399959
O O1 0.750000 0.750000 0.500000
O O2 0.813463 0.631096 0.305155
O O3 0.689925 0.805057 0.399690
O O4 0.566874 0.662144 0.609225
O O5 0.236891 0.207780 0.833528
O O6 0.090976 0.318610 0.097557
O O7 0.993809 0.150457 0.120571
O O8 0.002068 0.306770 0.029452
O O9 0.913563 0.538131 0.771599
O O10 0.653498 0.959357 0.325676
O O11 0.840632 0.986853 0.025231
O O12 0.083484 0.021468 0.735866
O O13 0.000000 0.000000 0.500000
#
# Coordination Sequence:
#
# PCOD9272249 Si02
#       7
#     8   8   4   8   8   4   8
#     4  11  25  42  68  95 133 181 229 286 344 410
#     4  10  21  39  67  98 136 181 223 283 347 409
#     4  10  21  41  64 100 144 178 222 276 348 442
#     4   9  22  43  62  97 132 174 225 275 345 408
#     4  10  23  42  66  97 137 175 232 281 344 415
#     4  10  23  39  60 100 126 170 240 288 344 398
#     4  10  20  36  66  92 131 173 235 293 340 399
#
# _framework density 24.003810999999999
#
# number of rings (size 3 to 8) (size 9 to 14) (size 15 to 20)
#    0.000    2.000    0.000    2.500    7.000    9.333 
#    3.000    1.667    0.000    0.000    0.000    0.000 
#    0.000    0.000    0.000    0.000    0.000    0.000 
#
# Total GULP energy -133839.087969 kJ/mol
# GULP energy per Si atom -5576.628665 kJ/mol
# Density = 2.394918 g / cm^3
# Si number density = 24.003811 Si / 1000 Ang^3
#
#
#
# Elastic Constant Matrix: (Units=GPa)
#
#
# Indices 1 2 3 4 5 6 
#
# 1 99.3756 47.2573 32.9263 0.0000 35.2100 0.0000
# 2 47.2573 119.4687 34.4551 0.0000 24.2423 0.0000
# 3 32.9263 34.4551 85.0349 0.0000 18.9295 0.0000
# 4 0.0000 0.0000 0.0000 23.4480 0.0000 14.7782
# 5 35.2100 24.2423 18.9295 0.0000 44.0509 0.0000
# 6 0.0000 0.0000 0.0000 14.7782 0.0000 20.0868
#
#
#
# Elastic Compliance Matrix: (Units=1/GPa)
#
#
# Indices 1 2 3 4 5 6 
#
# 1 0.016113 -0.003647 -0.002589 0.000000 -0.009760 0.000000
# 2 -0.003647 0.010966 -0.002584 0.000000 -0.002010 0.000000
# 3 -0.002589 -0.002584 0.014411 0.000000 -0.002701 0.000000
# 4 0.000000 0.000000 0.000000 0.079520 0.000000 -0.058504
# 5 -0.009760 -0.002010 -0.002701 0.000000 0.032769 0.000000
# 6 0.000000 0.000000 0.000000 -0.058504 0.000000 0.092826
#
#
# Mechanical properties :
#
#
# Convention : Reuss Voigt Hill
#
# Bulk Modulus (GPa) = 41.92773 59.23963 50.58368
# Shear Modulus (GPa) = 18.36935 30.13317 24.25126
#
# Velocity S-wave (km/s) = 2.76935 3.54693 3.18198
# Velocity P-wave (km/s) = 5.26600 6.44261 5.88379
#
# Compressibility (1/GPa) = 0.02385056
#
# Stress axis : x y z
#
# Youngs Moduli (GPa) = 62.06313 91.19243 69.39340
#
# Poissons Ratio (x) = 0.33253 0.17965
# Poissons Ratio (y) = 0.22631 0.17930
# Poissons Ratio (z) = 0.16067 0.23563
#
# Static dielectric constant tensor:
#      x y z
#    x 1.822460 0.000000 0.043400 
#    y 0.000000 2.233100 0.000000 
#    z 0.043400 0.000000 2.093820 
# 
# From -- ./inp_files/167884.got.cif
#   From: 2010.05.17/outbox.cif.g08.bks.cpg/sg15_84_cif.got.tgz:167884.got - 2010.06.03 18:47:42.
