data_PCOD9272474
_publ_section_title
;
Structure prediction by ZEFSAII (Michael W. Deem and Ramdas Pophale) SiO2 
 PCOD9272474
Probable space group: C 2/C
;
_chemical_formula_sum "Si O2"
_cell_formula_units_Z 40
_cell_length_a 18.071990
_cell_length_b 7.406101
_cell_length_c 18.686929
_cell_angle_alpha 90.000000
_cell_angle_beta 45.503141
_cell_angle_gamma 90.000000
_cell_volume 1784.017016
_symmetry_space_group_name_H-M "C 2/C"
_symmetry_group_IT_number 15
_symmetry_cell_setting 'monoclinic'
loop_
_space_group_symop_operation_xyz
x,y,z
-x,y,1/2-z
-x,-y,-z
x,-y,1/2+z
1/2+x,1/2+y,z
1/2-x,1/2+y,1/2-z
1/2-x,1/2-y,-z
1/2+x,1/2-y,1/2+z
loop_
_atom_site_type_symbol
_atom_site_label
_atom_site_fract_x
_atom_site_fract_y
_atom_site_fract_z
Si Si1 0.831954 0.735839 0.595209
Si Si2 0.750378 0.127153 0.287786
Si Si3 0.313916 0.471742 0.994270
Si Si4 0.621358 0.755134 0.172711
Si Si5 0.447605 0.695499 0.523880
O O1 0.788514 0.884228 0.680832
O O2 0.768007 0.558743 0.658035
O O3 0.949451 0.687348 0.537142
O O4 0.827133 0.831052 0.520978
O O5 0.837905 0.232016 0.274011
O O6 0.641036 0.231848 0.363860
O O7 0.196241 0.404673 0.085730
O O8 0.386032 0.332557 0.991655
O O9 0.352481 0.429737 0.888664
O O10 0.500000 0.794204 0.250000
O O11 0.500000 0.500000 0.500000
#
# Coordination Sequence:
#
# PCOD9272474 Si02
#       5
#     8   8   8   8   8
#     4  11  21  37  57  84 116 145 189 241 287 342
#     4  11  22  35  58  86 114 151 191 233 286 344
#     4   9  20  36  58  82 110 148 192 236 285 347
#     4  10  20  37  57  81 113 154 192 232 289 344
#     4   9  18  35  57  82 110 143 185 234 284 335
#
# _framework density 22.421309999999998
#
# number of rings (size 3 to 8) (size 9 to 14) (size 15 to 20)
#    0.000    2.000    0.000    5.400    0.000    2.400 
#    0.000    3.000    0.000    0.000    0.000    0.000 
#    0.000    0.000    0.000    0.000    0.000    0.000 
#
# Total GULP energy -111554.812257 kJ/mol
# GULP energy per Si atom -5577.740613 kJ/mol
# Density = 2.237028 g / cm^3
# Si number density = 22.421310 Si / 1000 Ang^3
#
#
#
# Elastic Constant Matrix: (Units=GPa)
#
#
# Indices 1 2 3 4 5 6 
#
# 1 89.1633 10.3652 58.2573 -0.0001 -29.7786 0.0001
# 2 10.3652 76.1975 17.2235 -0.0002 -15.0744 0.0003
# 3 58.2573 17.2235 94.7610 0.0000 -27.5667 0.0000
# 4 -0.0001 -0.0002 0.0000 29.8887 0.0000 -2.7737
# 5 -29.7786 -15.0744 -27.5667 0.0000 45.1603 0.0000
# 6 0.0001 0.0003 0.0000 -2.7737 0.0000 23.0956
#
#
#
# Elastic Compliance Matrix: (Units=1/GPa)
#
#
# Indices 1 2 3 4 5 6 
#
# 1 0.020525 0.001080 -0.010667 0.000000 0.007383 0.000000
# 2 0.001080 0.014273 -0.002024 0.000000 0.004241 0.000000
# 3 -0.010667 -0.002024 0.018526 0.000000 0.003599 0.000000
# 4 0.000000 0.000000 0.000000 0.033835 0.000000 0.004063
# 5 0.007383 0.004241 0.003599 0.000000 0.030624 0.000000
# 6 0.000000 0.000000 0.000000 0.004063 0.000000 0.043786
#
#
# Mechanical properties :
#
#
# Convention : Reuss Voigt Hill
#
# Bulk Modulus (GPa) = 33.22142 47.97930 40.60036
# Shear Modulus (GPa) = 25.66387 31.24732 28.45559
#
# Velocity S-wave (km/s) = 3.38689 3.73720 3.56635
# Velocity P-wave (km/s) = 5.49034 6.32990 5.92501
#
# Compressibility (1/GPa) = 0.03010106
#
# Stress axis : x y z
#
# Youngs Moduli (GPa) = 48.72034 70.06012 53.97936
#
# Poissons Ratio (x) = -0.07565 0.57579
# Poissons Ratio (y) = -0.05261 0.10928
# Poissons Ratio (z) = 0.51970 0.14183
#
# Static dielectric constant tensor:
#      x y z
#    x 1.872480 0.000000 -0.004140 
#    y 0.000000 1.954840 0.000000 
#    z -0.004140 0.000000 1.818780 
# 
# From -- ./inp_files/209356.got.cif
#   From: 2010.05.17/outbox.cif.g08.bks.cpg/sg15_105_cif.got.tgz:209356.got - 2010.06.03 18:47:42.
