data_PCOD9272497
_publ_section_title
;
Structure prediction by ZEFSAII (Michael W. Deem and Ramdas Pophale) SiO2 
 PCOD9272497
Probable space group: C 2/C
;
_chemical_formula_sum "Si O2"
_cell_formula_units_Z 48
_cell_length_a 19.973057
_cell_length_b 12.380225
_cell_length_c 14.808144
_cell_angle_alpha 90.000000
_cell_angle_beta 142.796237
_cell_angle_gamma 90.000000
_cell_volume 2214.005984
_symmetry_space_group_name_H-M "C 2/C"
_symmetry_group_IT_number 15
_symmetry_cell_setting 'monoclinic'
loop_
_space_group_symop_operation_xyz
x,y,z
-x,y,1/2-z
-x,-y,-z
x,-y,1/2+z
1/2+x,1/2+y,z
1/2-x,1/2+y,1/2-z
1/2-x,1/2-y,-z
1/2+x,1/2-y,1/2+z
loop_
_atom_site_type_symbol
_atom_site_label
_atom_site_fract_x
_atom_site_fract_y
_atom_site_fract_z
Si Si1 0.254208 0.651565 0.132437
Si Si2 0.796002 0.607656 0.627528
Si Si3 0.983392 0.395632 0.043808
Si Si4 0.931404 0.823295 0.955461
Si Si5 0.908274 0.192014 0.728880
Si Si6 0.755150 0.871556 0.911292
O O1 0.255928 0.783124 0.133079
O O2 0.367617 0.618825 0.304856
O O3 0.245559 0.616089 0.019571
O O4 0.143385 0.613185 0.062603
O O5 0.753210 0.496333 0.623875
O O6 0.929261 0.601263 0.779250
O O7 0.022611 0.289026 0.032949
O O8 0.000000 0.500000 0.000000
O O9 0.833476 0.810911 0.924137
O O10 0.033218 0.867999 0.124656
O O11 0.808865 0.134088 0.569042
O O12 0.859088 0.307029 0.706587
O O13 0.000000 0.207760 0.750000
#
# Coordination Sequence:
#
# PCOD9272497 Si02
#       6
#     8   8   8   8   8   8
#     4  10  22  39  58  84 118 150 194 245 283 344
#     4  10  22  40  60  84 115 156 196 236 293 343
#     4  11  22  38  64  89 113 150 196 245 291 340
#     4  10  20  37  57  86 118 149 190 235 290 345
#     4   9  19  34  56  86 119 154 191 237 288 342
#     4  10  20  38  60  85 120 153 193 243 288 342
#
# _framework density 21.680157000000001
#
# number of rings (size 3 to 8) (size 9 to 14) (size 15 to 20)
#    0.000    2.000    0.000    3.500    0.000    5.333 
#    0.000   18.333    0.000    0.000    0.000    0.000 
#    0.000    0.000    0.000    0.000    0.000    0.000 
#
# Total GULP energy -133873.620511 kJ/mol
# GULP energy per Si atom -5578.067521 kJ/mol
# Density = 2.163081 g / cm^3
# Si number density = 21.680157 Si / 1000 Ang^3
#
#
#
# Elastic Constant Matrix: (Units=GPa)
#
#
# Indices 1 2 3 4 5 6 
#
# 1 33.0797 7.9519 13.7943 0.0000 -7.1034 0.0000
# 2 7.9519 28.1573 -10.8896 0.0000 5.2766 0.0000
# 3 13.7943 -10.8896 186.9874 0.0000 -29.3252 0.0000
# 4 0.0000 0.0000 0.0000 11.4785 0.0000 2.7584
# 5 -7.1034 5.2766 -29.3252 0.0000 33.6132 0.0000
# 6 0.0000 0.0000 0.0000 2.7584 0.0000 10.5420
#
#
#
# Elastic Compliance Matrix: (Units=1/GPa)
#
#
# Indices 1 2 3 4 5 6 
#
# 1 0.035734 -0.012353 -0.002163 0.000000 0.007604 0.000000
# 2 -0.012353 0.041192 0.002186 0.000000 -0.007170 0.000000
# 3 -0.002163 0.002186 0.006383 0.000000 0.004768 0.000000
# 4 0.000000 0.000000 0.000000 0.092965 0.000000 -0.024325
# 5 0.007604 -0.007170 0.004768 0.000000 0.036642 0.000000
# 6 0.000000 0.000000 0.000000 -0.024325 0.000000 0.101223
#
#
# Mechanical properties :
#
#
# Convention : Reuss Voigt Hill
#
# Bulk Modulus (GPa) = 17.05078 29.99307 23.52193
# Shear Modulus (GPa) = 13.95282 26.95127 20.45204
#
# Velocity S-wave (km/s) = 2.53963 3.52963 3.07474
# Velocity P-wave (km/s) = 4.05973 5.52046 4.84545
#
# Compressibility (1/GPa) = 0.05864833
#
# Stress axis : x y z
#
# Youngs Moduli (GPa) = 27.98429 24.27629 156.67586
#
# Poissons Ratio (x) = 0.29989 0.33891
# Poissons Ratio (y) = 0.34570 -0.34246
# Poissons Ratio (z) = 0.06053 -0.05306
#
# Static dielectric constant tensor:
#      x y z
#    x 1.784810 0.000000 -0.043680 
#    y 0.000000 1.760350 0.000000 
#    z -0.043680 0.000000 1.872210 
# 
# From -- ./inp_files/162148.got.cif
#   From: 2010.05.17/outbox.cif.g08.bks.cpg/sg15_82_cif.got.tgz:162148.got - 2010.06.03 18:47:42.
