data_PCOD9272633
_publ_section_title
;
Structure prediction by ZEFSAII (Michael W. Deem and Ramdas Pophale) SiO2 
 PCOD9272633
Probable space group: C 2/C
;
_chemical_formula_sum "Si O2"
_cell_formula_units_Z 44
_cell_length_a 23.563842
_cell_length_b 5.981073
_cell_length_c 14.144693
_cell_angle_alpha 90.000000
_cell_angle_beta 78.683361
_cell_angle_gamma 90.000000
_cell_volume 1954.753014
_symmetry_space_group_name_H-M "C 2/C"
_symmetry_group_IT_number 15
_symmetry_cell_setting 'monoclinic'
loop_
_space_group_symop_operation_xyz
x,y,z
-x,y,1/2-z
-x,-y,-z
x,-y,1/2+z
1/2+x,1/2+y,z
1/2-x,1/2+y,1/2-z
1/2-x,1/2-y,-z
1/2+x,1/2-y,1/2+z
loop_
_atom_site_type_symbol
_atom_site_label
_atom_site_fract_x
_atom_site_fract_y
_atom_site_fract_z
Si Si1 0.181450 0.423253 0.211009
Si Si2 0.790564 0.811118 0.618468
Si Si3 0.000000 0.652617 0.750000
Si Si4 0.081502 0.265925 0.730628
Si Si5 0.003884 0.972539 0.110117
Si Si6 0.293025 0.566599 0.442300
O O1 0.171628 0.313372 0.316064
O O2 0.248666 0.502461 0.180423
O O3 0.146873 0.653702 0.204232
O O4 0.170060 0.219738 0.141054
O O5 0.748645 0.617027 0.591662
O O6 0.821761 0.935606 0.520933
O O7 0.948473 0.498665 0.733201
O O8 0.019548 0.796685 0.655144
O O9 0.056972 0.099355 0.818804
O O10 0.051969 0.192337 0.641175
O O11 0.000000 0.000000 0.000000
O O12 0.250000 0.750000 0.500000
#
# Coordination Sequence:
#
# PCOD9272633 Si02
#       6
#     8   8   4   8   8   8
#     4  11  20  38  61  88 126 168 207 266 316 381
#     4  10  20  37  59  84 122 175 208 263 321 361
#     4   8  18  40  58  84 120 150 194 264 310 380
#     4   9  21  36  62  95 117 156 214 254 321 394
#     4   9  19  41  64  88 125 158 199 270 327 383
#     4   9  20  37  56  81 117 164 216 260 307 372
#
# _framework density 22.509235
#
# number of rings (size 3 to 8) (size 9 to 14) (size 15 to 20)
#    0.000    2.909    1.818    0.000    0.000    5.818 
#    0.000   14.545    0.000    0.000    0.000    0.000 
#    0.000    0.000    0.000    0.000    0.000    0.000 
#
# Total GULP energy -122592.655244 kJ/mol
# GULP energy per Si atom -5572.393420 kJ/mol
# Density = 2.245800 g / cm^3
# Si number density = 22.509235 Si / 1000 Ang^3
#
#
#
# Elastic Constant Matrix: (Units=GPa)
#
#
# Indices 1 2 3 4 5 6 
#
# 1 52.8926 9.3360 26.9563 0.0000 0.8420 0.0000
# 2 9.3360 89.4750 42.6949 0.0000 2.3388 0.0000
# 3 26.9563 42.6949 180.1189 0.0000 11.9290 0.0000
# 4 0.0000 0.0000 0.0000 35.6295 0.0000 2.8680
# 5 0.8420 2.3388 11.9290 0.0000 13.7361 0.0000
# 6 0.0000 0.0000 0.0000 2.8680 0.0000 27.2104
#
#
#
# Elastic Compliance Matrix: (Units=1/GPa)
#
#
# Indices 1 2 3 4 5 6 
#
# 1 0.020541 -0.000754 -0.002993 0.000000 0.001468 0.000000
# 2 -0.000754 0.012632 -0.002909 0.000000 0.000422 0.000000
# 3 -0.002993 -0.002909 0.007050 0.000000 -0.005444 0.000000
# 4 0.000000 0.000000 0.000000 0.028307 0.000000 -0.002984
# 5 0.001468 0.000422 -0.005444 0.000000 0.077367 0.000000
# 6 0.000000 0.000000 0.000000 -0.002984 0.000000 0.037065
#
#
# Mechanical properties :
#
#
# Convention : Reuss Voigt Hill
#
# Bulk Modulus (GPa) = 37.15874 53.38456 45.27165
# Shear Modulus (GPa) = 24.36121 31.54846 27.95484
#
# Velocity S-wave (km/s) = 3.29337 3.74783 3.52792
# Velocity P-wave (km/s) = 5.56828 6.51893 6.06227
#
# Compressibility (1/GPa) = 0.02691157
#
# Stress axis : x y z
#
# Youngs Moduli (GPa) = 48.68285 79.16261 141.84475
#
# Poissons Ratio (x) = 0.05966 0.42451
# Poissons Ratio (y) = 0.03669 0.41269
# Poissons Ratio (z) = 0.14570 0.23032
#
# Static dielectric constant tensor:
#      x y z
#    x 2.020210 0.000000 -0.041410 
#    y 0.000000 1.865870 0.000000 
#    z -0.041410 0.000000 1.875670 
# 
# From -- ./inp_files/170856.got.cif
#   From: 2010.05.17/outbox.cif.g08.bks.cpg/sg15_86_cif.got.tgz:170856.got - 2010.06.03 18:47:42.
