data_PCOD9272253
_publ_section_title
;
Structure prediction by ZEFSAII (Michael W. Deem and Ramdas Pophale) SiO2 
 PCOD9272253
Probable space group: C 2/C
;
_chemical_formula_sum "Si O2"
_cell_formula_units_Z 60
_cell_length_a 11.030856
_cell_length_b 11.020834
_cell_length_c 22.242858
_cell_angle_alpha 90.000000
_cell_angle_beta 98.965494
_cell_angle_gamma 90.000000
_cell_volume 2671.010144
_symmetry_space_group_name_H-M "C 2/C"
_symmetry_group_IT_number 15
_symmetry_cell_setting 'monoclinic'
loop_
_space_group_symop_operation_xyz
x,y,z
-x,y,1/2-z
-x,-y,-z
x,-y,1/2+z
1/2+x,1/2+y,z
1/2-x,1/2+y,1/2-z
1/2-x,1/2-y,-z
1/2+x,1/2-y,1/2+z
loop_
_atom_site_type_symbol
_atom_site_label
_atom_site_fract_x
_atom_site_fract_y
_atom_site_fract_z
Si Si1 0.506306 0.382437 0.060484
Si Si2 0.920236 0.148592 0.428865
Si Si3 0.006088 0.638451 0.376375
Si Si4 0.561421 0.276611 0.820812
Si Si5 0.500000 0.000000 0.000000
Si Si6 0.244131 0.517839 0.187844
Si Si7 0.263683 0.867884 0.423597
Si Si8 0.372117 0.981469 0.202406
O O1 0.585845 0.502827 0.076508
O O2 0.520544 0.278003 0.110603
O O3 0.361099 0.411571 0.054895
O O4 0.515604 0.333592 0.992541
O O5 0.800543 0.227692 0.434892
O O6 0.973491 0.202758 0.371028
O O7 0.034019 0.575776 0.441632
O O8 0.112466 0.597859 0.338686
O O9 0.882624 0.583505 0.338950
O O10 0.500000 0.274636 0.750000
O O11 0.651491 0.390472 0.824615
O O12 0.628175 0.146087 0.832974
O O13 0.622284 0.944329 0.043522
O O14 0.251816 0.397815 0.148256
O O15 0.236724 0.491425 0.258021
O O16 0.500000 0.975929 0.250000
#
# Coordination Sequence:
#
# PCOD9272253 Si02
#       8
#     8   8   8   8   4   8   8   8
#     4  11  24  42  66  99 135 175 221 276 344 407
#     4  11  23  42  66  97 135 173 222 277 334 415
#     4  10  21  40  63  94 131 164 222 269 328 407
#     4  11  22  44  66  93 130 175 231 276 337 410
#     4  10  20  36  66  94 118 176 212 258 332 400
#     4  10  22  43  64  95 131 169 224 284 331 402
#     4  11  21  43  68  89 137 173 216 274 341 399
#     4   9  20  39  66  91 121 175 216 273 338 398
#
# _framework density 22.46341
#
# number of rings (size 3 to 8) (size 9 to 14) (size 15 to 20)
#    0.000    1.600    2.667    3.600    0.000    2.133 
#    4.800    4.667    0.000    0.000    0.000    0.000 
#    0.000    0.000    0.000    0.000    0.000    0.000 
#
# Total GULP energy -167013.488833 kJ/mol
# GULP energy per Si atom -5567.116294 kJ/mol
# Density = 2.241228 g / cm^3
# Si number density = 22.463410 Si / 1000 Ang^3
#
#
#
# Elastic Constant Matrix: (Units=GPa)
#
#
# Indices 1 2 3 4 5 6 
#
# 1 43.2307 15.7786 11.0326 0.0000 -11.8564 0.0000
# 2 15.7786 103.4358 33.2732 0.0000 -2.8635 0.0000
# 3 11.0326 33.2732 87.0430 0.0000 -17.6872 0.0000
# 4 0.0000 0.0000 0.0000 30.2254 0.0000 2.7952
# 5 -11.8564 -2.8635 -17.6872 0.0000 23.5272 0.0000
# 6 0.0000 0.0000 0.0000 2.7952 0.0000 33.1866
#
#
#
# Elastic Compliance Matrix: (Units=1/GPa)
#
#
# Indices 1 2 3 4 5 6 
#
# 1 0.028420 -0.004247 0.000975 0.000000 0.014539 0.000000
# 2 -0.004247 0.011751 -0.004837 0.000000 -0.004346 0.000000
# 3 0.000975 -0.004837 0.015573 0.000000 0.011610 0.000000
# 4 0.000000 0.000000 0.000000 0.033345 0.000000 -0.002809
# 5 0.014539 -0.004346 0.011610 0.000000 0.058030 0.000000
# 6 0.000000 0.000000 0.000000 -0.002809 0.000000 0.030369
#
#
# Mechanical properties :
#
#
# Convention : Reuss Voigt Hill
#
# Bulk Modulus (GPa) = 25.29847 39.31980 32.30913
# Shear Modulus (GPa) = 24.16854 28.96285 26.56569
#
# Velocity S-wave (km/s) = 3.28366 3.59463 3.44266
# Velocity P-wave (km/s) = 5.06588 5.89664 5.49698
#
# Compressibility (1/GPa) = 0.03952808
#
# Stress axis : x y z
#
# Youngs Moduli (GPa) = 35.18643 85.09729 64.21311
#
# Poissons Ratio (x) = 0.36137 -0.06263
# Poissons Ratio (y) = 0.14942 0.31059
# Poissons Ratio (z) = -0.03432 0.41161
#
# Static dielectric constant tensor:
#      x y z
#    x 1.808300 0.000000 0.005950 
#    y 0.000000 1.852850 0.000000 
#    z 0.005950 0.000000 1.877210 
# 
# From -- ./inp_files/237604.got.cif
#   From: 2010.05.17/outbox.cif.g08.bks.cpg/sg15_119_cif.got.tgz:237604.got - 2010.06.03 18:47:42.
