data_PCOD9272663
_publ_section_title
;
Structure prediction by ZEFSAII (Michael W. Deem and Ramdas Pophale) SiO2 
 PCOD9272663
Probable space group: C 2/C
;
_chemical_formula_sum "Si O2"
_cell_formula_units_Z 40
_cell_length_a 18.591270
_cell_length_b 12.361211
_cell_length_c 16.997824
_cell_angle_alpha 90.000000
_cell_angle_beta 27.172239
_cell_angle_gamma 90.000000
_cell_volume 1783.869053
_symmetry_space_group_name_H-M "C 2/C"
_symmetry_group_IT_number 15
_symmetry_cell_setting 'monoclinic'
loop_
_space_group_symop_operation_xyz
x,y,z
-x,y,1/2-z
-x,-y,-z
x,-y,1/2+z
1/2+x,1/2+y,z
1/2-x,1/2+y,1/2-z
1/2-x,1/2-y,-z
1/2+x,1/2-y,1/2+z
loop_
_atom_site_type_symbol
_atom_site_label
_atom_site_fract_x
_atom_site_fract_y
_atom_site_fract_z
Si Si1 0.612159 0.293472 0.078312
Si Si2 0.817911 0.868512 0.907092
Si Si3 0.380017 0.134594 0.210679
Si Si4 0.852937 0.290849 0.559926
Si Si5 0.650407 0.902212 0.213661
O O1 0.500000 0.355616 0.250000
O O2 0.506270 0.199401 0.141261
O O3 0.750000 0.250000 0.000000
O O4 0.705255 0.351640 0.917916
O O5 0.775539 0.869981 0.856601
O O6 0.000000 0.881827 0.750000
O O7 0.750000 0.750000 0.000000
O O8 0.707537 0.940058 0.071552
O O9 0.383346 0.181737 0.120171
O O10 0.407449 0.006846 0.184288
O O11 0.794127 0.167193 0.610016
O O12 0.007097 0.317685 0.358425
#
# Coordination Sequence:
#
# PCOD9272663 Si02
#       5
#     8   8   8   8   8
#     4   9  21  42  65  94 128 163 210 264 311 380
#     4  10  20  37  59  87 125 166 206 255 313 378
#     4  11  23  42  68  94 125 168 213 265 325 376
#     4  11  22  40  62  94 130 163 213 271 313 377
#     4  11  23  41  64  91 128 174 211 259 325 385
#
# _framework density 22.423169000000001
#
# number of rings (size 3 to 8) (size 9 to 14) (size 15 to 20)
#    0.000    1.600    0.000    7.200    0.000    5.600 
#    0.000   17.000    0.000    0.000    0.000    0.000 
#    0.000    0.000    0.000    0.000    0.000    0.000 
#
# Total GULP energy -111557.338210 kJ/mol
# GULP energy per Si atom -5577.866911 kJ/mol
# Density = 2.237213 g / cm^3
# Si number density = 22.423169 Si / 1000 Ang^3
#
#
#
# Elastic Constant Matrix: (Units=GPa)
#
#
# Indices 1 2 3 4 5 6 
#
# 1 151.1552 25.6576 33.4180 0.0000 2.1043 0.0000
# 2 25.6576 79.0713 7.0224 0.0003 -10.9345 -0.0001
# 3 33.4180 7.0224 126.2445 0.0005 -13.8763 -0.0003
# 4 0.0000 0.0003 0.0005 25.0155 -0.0004 4.0032
# 5 2.1043 -10.9345 -13.8763 -0.0004 30.9484 0.0002
# 6 0.0000 -0.0001 -0.0003 4.0032 0.0002 20.4600
#
#
#
# Elastic Compliance Matrix: (Units=1/GPa)
#
#
# Indices 1 2 3 4 5 6 
#
# 1 0.007557 -0.002593 -0.002118 0.000000 -0.002380 0.000000
# 2 -0.002593 0.014193 0.000492 0.000000 0.005411 0.000000
# 3 -0.002118 0.000492 0.008929 0.000000 0.004321 0.000000
# 4 0.000000 0.000000 0.000000 0.041267 0.000000 -0.008074
# 5 -0.002380 0.005411 0.004321 0.000000 0.036323 0.000000
# 6 0.000000 0.000000 0.000000 -0.008074 0.000000 0.050456
#
#
# Mechanical properties :
#
#
# Convention : Reuss Voigt Hill
#
# Bulk Modulus (GPa) = 44.96188 54.29634 49.62911
# Shear Modulus (GPa) = 28.64049 34.64297 31.64173
#
# Velocity S-wave (km/s) = 3.57777 3.93487 3.76056
# Velocity P-wave (km/s) = 6.09609 6.70158 6.40599
#
# Compressibility (1/GPa) = 0.02224106
#
# Stress axis : x y z
#
# Youngs Moduli (GPa) = 132.32362 70.45771 111.99001
#
# Poissons Ratio (x) = 0.18271 0.23717
# Poissons Ratio (y) = 0.34314 -0.05507
# Poissons Ratio (z) = 0.28023 -0.03465
#
# Static dielectric constant tensor:
#      x y z
#    x 1.916400 0.000000 0.019660 
#    y 0.000000 1.878280 0.000000 
#    z 0.019660 0.000000 1.909460 
# 
# From -- ./inp_files/210773.got.cif
#   From: 2010.05.17/outbox.cif.g08.bks.cpg/sg15_106_cif.got.tgz:210773.got - 2010.06.03 18:47:42.
