data_PCOD9272070
_publ_section_title
;
Structure prediction by ZEFSAII (Michael W. Deem and Ramdas Pophale) SiO2 
 PCOD9272070
Probable space group: C 2/C
;
_chemical_formula_sum "Si O2"
_cell_formula_units_Z 56
_cell_length_a 18.170741
_cell_length_b 12.138536
_cell_length_c 14.625320
_cell_angle_alpha 90.000000
_cell_angle_beta 116.012016
_cell_angle_gamma 90.000000
_cell_volume 2899.079190
_symmetry_space_group_name_H-M "C 2/C"
_symmetry_group_IT_number 15
_symmetry_cell_setting 'monoclinic'
loop_
_space_group_symop_operation_xyz
x,y,z
-x,y,1/2-z
-x,-y,-z
x,-y,1/2+z
1/2+x,1/2+y,z
1/2-x,1/2+y,1/2-z
1/2-x,1/2-y,-z
1/2+x,1/2-y,1/2+z
loop_
_atom_site_type_symbol
_atom_site_label
_atom_site_fract_x
_atom_site_fract_y
_atom_site_fract_z
Si Si1 0.403339 0.135101 0.690499
Si Si2 0.682174 0.354073 0.554106
Si Si3 0.796587 0.506660 0.995811
Si Si4 0.970301 0.086070 0.635210
Si Si5 0.301159 0.864888 0.321195
Si Si6 0.140617 0.914963 0.126115
Si Si7 0.635638 0.634082 0.423269
O O1 0.500000 0.117204 0.750000
O O2 0.362440 0.051441 0.596101
O O3 0.358254 0.124725 0.763516
O O4 0.386634 0.258566 0.644773
O O5 0.757015 0.389471 0.529216
O O6 0.601989 0.341280 0.447057
O O7 0.693737 0.253055 0.627283
O O8 0.664126 0.463308 0.604002
O O9 0.824158 0.547521 0.912030
O O10 0.721498 0.420925 0.941663
O O11 0.000000 0.124156 0.750000
O O12 0.049386 0.084075 0.614419
O O13 0.931653 0.963116 0.622842
O O14 0.207938 0.881729 0.236669
O O15 0.144176 0.841434 0.036273
#
# Coordination Sequence:
#
# PCOD9272070 Si02
#       7
#     8   8   8   8   8   8   8
#     4  12  27  41  64  94 123 172 217 252 312 371
#     4  10  22  40  63  94 129 158 212 252 311 384
#     4  10  23  46  61  92 133 162 210 264 304 380
#     4  10  20  36  63  96 130 156 196 267 321 357
#     4  12  25  40  69  90 123 174 207 255 322 368
#     4  10  21  39  63  98 126 161 202 263 321 360
#     4  10  21  40  67  95 127 154 210 268 305 377
#
# _framework density 19.316476999999999
#
# number of rings (size 3 to 8) (size 9 to 14) (size 15 to 20)
#    0.000    1.714    2.857    4.714    8.000    0.571 
#    0.000    2.143    0.000    0.000    0.000    0.000 
#    0.000    0.000    0.000    0.000    0.000    0.000 
#
# Total GULP energy -156476.954245 kJ/mol
# GULP energy per Si atom -5588.462652 kJ/mol
# Density = 1.927251 g / cm^3
# Si number density = 19.316477 Si / 1000 Ang^3
#
#
#
# Elastic Constant Matrix: (Units=GPa)
#
#
# Indices 1 2 3 4 5 6 
#
# 1 105.3965 51.9192 64.5356 0.0000 4.9577 0.0000
# 2 51.9192 49.2180 64.1332 0.0000 6.5244 0.0000
# 3 64.5356 64.1332 152.9880 0.0000 10.1393 0.0000
# 4 0.0000 0.0000 0.0000 21.2286 0.0000 -12.1453
# 5 4.9577 6.5244 10.1393 0.0000 31.6057 0.0000
# 6 0.0000 0.0000 0.0000 -12.1453 0.0000 7.0745
#
#
#
# Elastic Compliance Matrix: (Units=1/GPa)
#
#
# Indices 1 2 3 4 5 6 
#
# 1 0.019851 -0.022223 0.000863 0.000000 0.001197 0.000000
# 2 -0.022223 0.069994 -0.019659 0.000000 -0.004656 0.000000
# 3 0.000863 -0.019659 0.014461 0.000000 -0.000716 0.000000
# 4 0.000000 0.000000 0.000000 2.646422 0.000000 4.543304
# 5 0.001197 -0.004656 -0.000716 0.000000 0.032643 0.000000
# 6 0.000000 0.000000 0.000000 4.543304 0.000000 7.941170
#
#
# Mechanical properties :
#
#
# Convention : Reuss Voigt Hill
#
# Bulk Modulus (GPa) = 44.90797 74.30869 59.60833
# Shear Modulus (GPa) = 0.46236 20.44941 10.45589
#
# Velocity S-wave (km/s) = 0.48978 3.25722 2.32910
# Velocity P-wave (km/s) = 4.85992 7.25938 6.17727
#
# Compressibility (1/GPa) = 0.02226776
#
# Stress axis : x y z
#
# Youngs Moduli (GPa) = 50.37632 14.28691 69.15247
#
# Poissons Ratio (x) = 0.31750 -0.05969
# Poissons Ratio (y) = 1.11953 1.35944
# Poissons Ratio (z) = -0.04348 0.28086
#
# Static dielectric constant tensor:
#      x y z
#    x 1.680280 0.000000 -0.010350 
#    y 0.000000 1.669500 0.000000 
#    z -0.010350 0.000000 1.687700 
# 
# From -- ./inp_files/161394.got.cif
#   From: 2010.05.17/outbox.cif.g08.bks.cpg/sg15_81_cif.got.tgz:161394.got - 2010.06.03 18:47:42.
