data_PCOD9272975
_publ_section_title
;
Structure prediction by ZEFSAII (Michael W. Deem and Ramdas Pophale) SiO2 
 PCOD9272975
Probable space group: C 2/C
;
_chemical_formula_sum "Si O2"
_cell_formula_units_Z 32
_cell_length_a 10.429033
_cell_length_b 14.000680
_cell_length_c 9.409405
_cell_angle_alpha 90.000000
_cell_angle_beta 92.874997
_cell_angle_gamma 90.000000
_cell_volume 1372.171389
_symmetry_space_group_name_H-M "C 2/C"
_symmetry_group_IT_number 15
_symmetry_cell_setting 'monoclinic'
loop_
_space_group_symop_operation_xyz
x,y,z
-x,y,1/2-z
-x,-y,-z
x,-y,1/2+z
1/2+x,1/2+y,z
1/2-x,1/2+y,1/2-z
1/2-x,1/2-y,-z
1/2+x,1/2-y,1/2+z
loop_
_atom_site_type_symbol
_atom_site_label
_atom_site_fract_x
_atom_site_fract_y
_atom_site_fract_z
Si Si1 0.908908 0.551404 0.610784
Si Si2 0.123743 0.764480 0.859392
Si Si3 0.777732 0.637607 0.121297
Si Si4 0.453261 0.691905 0.591579
O O1 0.851161 0.656822 0.584638
O O2 0.802784 0.473122 0.642752
O O3 0.000000 0.562065 0.750000
O O4 0.000000 0.500000 0.500000
O O5 0.228259 0.811551 0.762540
O O6 0.000000 0.760218 0.750000
O O7 0.070363 0.822035 0.990466
O O8 0.907465 0.696442 0.091815
O O9 0.674735 0.647495 0.987259
O O10 0.500000 0.662967 0.750000
#
# Coordination Sequence:
#
# PCOD9272975 Si02
#       4
#     8   8   8   8
#     4  11  22  40  65 100 127 160 215 275 310 380
#     4   9  20  38  63  95 128 164 210 263 321 379
#     4  10  21  38  64  94 133 169 207 268 325 367
#     4  10  20  37  61  95 128 168 215 256 315 385
#
# _framework density 23.320702000000001
#
# number of rings (size 3 to 8) (size 9 to 14) (size 15 to 20)
#    0.000    2.000    2.500    0.750    3.500    1.000 
#    0.000    0.000    0.000   12.000    0.000    0.000 
#    0.000    0.000    0.000    0.000    0.000    0.000 
#
# Total GULP energy -89369.927049 kJ/mol
# GULP energy per Si atom -5585.620441 kJ/mol
# Density = 2.326762 g / cm^3
# Si number density = 23.320702 Si / 1000 Ang^3
#
#
#
# Elastic Constant Matrix: (Units=GPa)
#
#
# Indices 1 2 3 4 5 6 
#
# 1 81.6410 9.8734 38.1691 0.0000 -0.0255 0.0000
# 2 9.8734 48.5390 0.7524 0.0000 -12.2109 0.0000
# 3 38.1691 0.7524 156.1596 0.0000 2.8216 0.0000
# 4 0.0000 0.0000 0.0000 10.7983 0.0000 -8.7109
# 5 -0.0255 -12.2109 2.8216 0.0000 47.8600 0.0000
# 6 0.0000 0.0000 0.0000 -8.7109 0.0000 14.7560
#
#
#
# Elastic Compliance Matrix: (Units=1/GPa)
#
#
# Indices 1 2 3 4 5 6 
#
# 1 0.014223 -0.002978 -0.003452 0.000000 -0.000549 0.000000
# 2 -0.002978 0.022645 0.000515 0.000000 0.005746 0.000000
# 3 -0.003452 0.000515 0.007250 0.000000 -0.000298 0.000000
# 4 0.000000 0.000000 0.000000 0.176800 0.000000 0.104370
# 5 -0.000549 0.005746 -0.000298 0.000000 0.022378 0.000000
# 6 0.000000 0.000000 0.000000 0.104370 0.000000 0.129381
#
#
# Mechanical properties :
#
#
# Convention : Reuss Voigt Hill
#
# Bulk Modulus (GPa) = 30.97069 42.65882 36.81476
# Shear Modulus (GPa) = 12.64960 30.51919 21.58440
#
# Velocity S-wave (km/s) = 2.33152 3.62148 3.04558
# Velocity P-wave (km/s) = 4.53400 5.98488 5.30924
#
# Compressibility (1/GPa) = 0.03228859
#
# Stress axis : x y z
#
# Youngs Moduli (GPa) = 70.31066 44.15959 137.92386
#
# Poissons Ratio (x) = 0.13149 0.47612
# Poissons Ratio (y) = 0.20935 -0.07101
# Poissons Ratio (z) = 0.24272 -0.02274
#
# Static dielectric constant tensor:
#      x y z
#    x 1.899350 0.000000 -0.012940 
#    y 0.000000 1.898310 0.000000 
#    z -0.012940 0.000000 1.918200 
# 
# From -- ./inp_files/27643.got.cif
#   From: 2010.05.17/outbox.cif.g08.bks.cpg/sg15_14_cif.got.tgz:27643.got - 2010.06.03 18:47:42.
