data_PCOD9272002
_publ_section_title
;
Structure prediction by ZEFSAII (Michael W. Deem and Ramdas Pophale) SiO2 
 PCOD9272002
Probable space group: C 2/C
;
_chemical_formula_sum "Si O2"
_cell_formula_units_Z 60
_cell_length_a 17.269397
_cell_length_b 14.426170
_cell_length_c 22.250948
_cell_angle_alpha 90.000000
_cell_angle_beta 149.427193
_cell_angle_gamma 90.000000
_cell_volume 2819.558686
_symmetry_space_group_name_H-M "C 2/C"
_symmetry_group_IT_number 15
_symmetry_cell_setting 'monoclinic'
loop_
_space_group_symop_operation_xyz
x,y,z
-x,y,1/2-z
-x,-y,-z
x,-y,1/2+z
1/2+x,1/2+y,z
1/2-x,1/2+y,1/2-z
1/2-x,1/2-y,-z
1/2+x,1/2-y,1/2+z
loop_
_atom_site_type_symbol
_atom_site_label
_atom_site_fract_x
_atom_site_fract_y
_atom_site_fract_z
Si Si1 0.816700 0.913292 0.945566
Si Si2 0.084636 0.615950 0.510780
Si Si3 0.650849 0.281239 0.645092
Si Si4 0.500000 0.177663 0.250000
Si Si5 0.966784 0.085934 0.093655
Si Si6 0.978141 0.762936 0.359900
Si Si7 0.273076 0.937700 0.859523
Si Si8 0.340047 0.691319 0.112956
O O1 0.827715 0.867785 0.886633
O O2 0.648513 0.887232 0.856341
O O3 0.941083 0.856392 0.067227
O O4 0.865570 0.019975 0.984382
O O5 0.113202 0.689539 0.582797
O O6 0.199459 0.531582 0.585522
O O7 0.085130 0.678729 0.452534
O O8 0.919094 0.574949 0.414675
O O9 0.515674 0.315375 0.597347
O O10 0.815166 0.255702 0.782735
O O11 0.459381 0.245824 0.277477
O O12 0.131024 0.046627 0.221013
O O13 0.888782 0.103432 0.105298
O O14 0.249236 0.851178 0.889143
O O15 0.500000 0.730715 0.250000
O O16 0.250000 0.750000 0.000000
#
# Coordination Sequence:
#
# PCOD9272002 Si02
#       8
#     8   8   8   4   8   8   8   8
#     4  10  22  37  59  87 122 163 203 257 319 374
#     4  10  20  36  63  86 117 155 199 257 307 368
#     4  10  20  37  60  88 122 155 205 249 315 376
#     4  10  22  38  56  88 124 160 206 256 316 390
#     4  11  21  39  60  87 124 159 207 257 310 377
#     4  10  20  38  58  85 121 157 201 253 313 379
#     4  10  21  38  61  90 117 158 209 258 308 374
#     4  10  23  43  64  90 126 166 210 260 315 378
#
# _framework density 21.279926
#
# number of rings (size 3 to 8) (size 9 to 14) (size 15 to 20)
#    0.000    1.867    1.333    2.400    1.867    0.000 
#    4.800    0.000    0.000    0.000    0.000    0.000 
#    0.000    0.000    0.000    0.000    0.000    0.000 
#
# Total GULP energy -167153.754519 kJ/mol
# GULP energy per Si atom -5571.791817 kJ/mol
# Density = 2.123149 g / cm^3
# Si number density = 21.279926 Si / 1000 Ang^3
#
#
#
# Elastic Constant Matrix: (Units=GPa)
#
#
# Indices 1 2 3 4 5 6 
#
# 1 48.4364 3.9736 4.2424 0.0004 4.6305 -0.0002
# 2 3.9736 52.6619 31.0683 0.0012 6.3958 0.0000
# 3 4.2424 31.0683 89.2527 0.0021 4.4687 -0.0004
# 4 0.0004 0.0012 0.0021 24.0534 0.0005 3.0917
# 5 4.6305 6.3958 4.4687 0.0005 22.0710 -0.0001
# 6 -0.0002 0.0000 -0.0004 3.0917 -0.0001 1.9997
#
#
#
# Elastic Compliance Matrix: (Units=1/GPa)
#
#
# Indices 1 2 3 4 5 6 
#
# 1 0.021148 -0.000787 -0.000526 -0.000001 -0.004102 0.000003
# 2 -0.000787 0.024554 -0.008245 0.000000 -0.005281 -0.000002
# 3 -0.000526 -0.008245 0.014117 -0.000001 -0.000359 0.000005
# 4 -0.000001 0.000000 -0.000001 0.051885 -0.000001 -0.080220
# 5 -0.004102 -0.005281 -0.000359 -0.000001 0.047772 0.000004
# 6 0.000003 -0.000002 0.000005 -0.080220 0.000004 0.624107
#
#
# Mechanical properties :
#
#
# Convention : Reuss Voigt Hill
#
# Bulk Modulus (GPa) = 24.56821 29.87995 27.22408
# Shear Modulus (GPa) = 6.12544 19.69594 12.91069
#
# Velocity S-wave (km/s) = 1.69846 3.04561 2.46582
# Velocity P-wave (km/s) = 3.92640 5.14194 4.57472
#
# Compressibility (1/GPa) = 0.04070301
#
# Stress axis : x y z
#
# Youngs Moduli (GPa) = 47.28478 40.72618 70.83529
#
# Poissons Ratio (x) = 0.03206 0.03724
# Poissons Ratio (y) = 0.03723 0.58406
# Poissons Ratio (z) = 0.02486 0.33580
#
# Static dielectric constant tensor:
#      x y z
#    x 1.842610 0.000000 -0.021800 
#    y 0.000000 1.804270 0.000000 
#    z -0.021800 0.000000 1.867660 
# 
# From -- ./inp_files/277574.got.cif
#   From: 2010.05.17/outbox.cif.g08.bks.cpg/sg15_139_cif.got.tgz:277574.got - 2010.06.03 18:47:42.
