data_PCOD9272163
_publ_section_title
;
Structure prediction by ZEFSAII (Michael W. Deem and Ramdas Pophale) SiO2 
 PCOD9272163
Probable space group: C 2/C
;
_chemical_formula_sum "Si O2"
_cell_formula_units_Z 48
_cell_length_a 5.880063
_cell_length_b 16.730462
_cell_length_c 25.579442
_cell_angle_alpha 90.000000
_cell_angle_beta 72.336561
_cell_angle_gamma 90.000000
_cell_volume 2397.772255
_symmetry_space_group_name_H-M "C 2/C"
_symmetry_group_IT_number 15
_symmetry_cell_setting 'monoclinic'
loop_
_space_group_symop_operation_xyz
x,y,z
-x,y,1/2-z
-x,-y,-z
x,-y,1/2+z
1/2+x,1/2+y,z
1/2-x,1/2+y,1/2-z
1/2-x,1/2-y,-z
1/2+x,1/2-y,1/2+z
loop_
_atom_site_type_symbol
_atom_site_label
_atom_site_fract_x
_atom_site_fract_y
_atom_site_fract_z
Si Si1 0.000000 0.206452 0.750000
Si Si2 0.512378 0.378787 0.439607
Si Si3 0.497078 0.933465 0.135654
Si Si4 0.701557 0.721443 0.631778
Si Si5 0.000000 0.613480 0.750000
Si Si6 0.324908 0.026311 0.058970
Si Si7 0.585494 0.685163 0.040812
O O1 0.919021 0.253995 0.807425
O O2 0.753488 0.160726 0.745519
O O3 0.788648 0.397689 0.413636
O O4 0.460619 0.303467 0.405876
O O5 0.383936 0.460411 0.431888
O O6 0.441829 0.356578 0.503292
O O7 0.294909 0.866011 0.143311
O O8 0.552085 0.935883 0.193236
O O9 0.427621 0.013159 0.109874
O O10 0.913907 0.774177 0.594516
O O11 0.240403 0.115493 0.055403
O O12 0.500000 0.000000 0.000000
O O13 0.750000 0.750000 0.000000
#
# Coordination Sequence:
#
# PCOD9272163 Si02
#       7
#     4   8   8   8   4   8   8
#     4  10  20  36  64  97 129 166 220 276 328 390
#     4  11  20  39  59  90 124 162 209 263 335 380
#     4  10  20  38  62  92 123 160 218 268 323 389
#     4  10  21  36  59  96 123 166 218 270 324 397
#     4  10  20  38  66  99 121 168 224 278 316 388
#     4  11  23  38  58  91 127 165 209 266 329 399
#     4  12  22  38  60  93 131 166 211 266 331 402
#
# _framework density 20.01858
#
# number of rings (size 3 to 8) (size 9 to 14) (size 15 to 20)
#    0.000    1.333    5.000    2.000    0.000    0.000 
#    0.000    0.000    0.000    1.000   17.333    0.000 
#    0.000    0.000    0.000    0.000    0.000    0.000 
#
# Total GULP energy -133699.660800 kJ/mol
# GULP energy per Si atom -5570.819200 kJ/mol
# Density = 1.997302 g / cm^3
# Si number density = 20.018580 Si / 1000 Ang^3
#
#
#
# Elastic Constant Matrix: (Units=GPa)
#
#
# Indices 1 2 3 4 5 6 
#
# 1 61.3777 24.0253 30.9591 0.0000 8.6410 0.0000
# 2 24.0253 90.3734 50.2369 0.0000 6.3382 0.0000
# 3 30.9591 50.2369 172.1287 0.0000 11.4202 0.0000
# 4 0.0000 0.0000 0.0000 5.1967 0.0000 -12.8164
# 5 8.6410 6.3382 11.4202 0.0000 36.1540 0.0000
# 6 0.0000 0.0000 0.0000 -12.8164 0.0000 16.0733
#
#
#
# Elastic Compliance Matrix: (Units=1/GPa)
#
#
# Indices 1 2 3 4 5 6 
#
# 1 0.019296 -0.003690 -0.002176 0.000000 -0.003278 0.000000
# 2 -0.003690 0.013958 -0.003377 0.000000 -0.000498 0.000000
# 3 -0.002176 -0.003377 0.007265 0.000000 -0.001183 0.000000
# 4 0.000000 0.000000 0.000000 -0.199097 0.000000 -0.158754
# 5 -0.003278 -0.000498 -0.001183 0.000000 0.028904 0.000000
# 6 0.000000 0.000000 0.000000 -0.158754 0.000000 -0.064371
#
#
# Mechanical properties :
#
#
# Convention : Reuss Voigt Hill
#
# Bulk Modulus (GPa) = 45.38692 59.36916 52.37804
# Shear Modulus (GPa) = -29.72418 26.06203 -1.83107
#
# Velocity S-wave (km/s) = -3.85753 3.61209 -0.95743
# Velocity P-wave (km/s) = 1.69733 6.86423 4.99993
#
# Compressibility (1/GPa) = 0.02203278
#
# Stress axis : x y z
#
# Youngs Moduli (GPa) = 51.82384 71.64126 137.64448
#
# Poissons Ratio (x) = 0.26437 0.29953
# Poissons Ratio (y) = 0.19124 0.46483
# Poissons Ratio (z) = 0.11278 0.24194
#
# Static dielectric constant tensor:
#      x y z
#    x 1.828090 0.000000 0.014630 
#    y 0.000000 1.715670 0.000000 
#    z 0.014630 0.000000 1.743350 
# 
# From -- ./inp_files/260685.got.cif
#   From: 2010.05.17/outbox.cif.g08.bks.cpg/sg15_131_cif.got.tgz:260685.got - 2010.06.03 18:47:42.
