data_PCOD9272309
_publ_section_title
;
Structure prediction by ZEFSAII (Michael W. Deem and Ramdas Pophale) SiO2 
 PCOD9272309
Probable space group: C 2/C
;
_chemical_formula_sum "Si O2"
_cell_formula_units_Z 60
_cell_length_a 23.951980
_cell_length_b 17.569165
_cell_length_c 12.126729
_cell_angle_alpha 90.000000
_cell_angle_beta 33.247239
_cell_angle_gamma 90.000000
_cell_volume 2797.803281
_symmetry_space_group_name_H-M "C 2/C"
_symmetry_group_IT_number 15
_symmetry_cell_setting 'monoclinic'
loop_
_space_group_symop_operation_xyz
x,y,z
-x,y,1/2-z
-x,-y,-z
x,-y,1/2+z
1/2+x,1/2+y,z
1/2-x,1/2+y,1/2-z
1/2-x,1/2-y,-z
1/2+x,1/2-y,1/2+z
loop_
_atom_site_type_symbol
_atom_site_label
_atom_site_fract_x
_atom_site_fract_y
_atom_site_fract_z
Si Si1 0.304073 0.763806 0.732082
Si Si2 0.079060 0.411457 0.974980
Si Si3 0.500000 0.188338 0.250000
Si Si4 0.133987 0.530654 0.710321
Si Si5 0.985780 0.964280 0.398308
Si Si6 0.234784 0.986125 0.703812
Si Si7 0.118174 0.813679 0.182286
Si Si8 0.199108 0.367062 0.304619
O O1 0.394511 0.822782 0.560771
O O2 0.339426 0.704928 0.767403
O O3 0.255491 0.714248 0.713812
O O4 0.212115 0.809945 0.942036
O O5 0.097576 0.450899 0.824358
O O6 0.166703 0.451852 0.899987
O O7 0.963857 0.435082 0.190966
O O8 0.543044 0.244596 0.272768
O O9 0.403885 0.141248 0.452598
O O10 0.233963 0.514558 0.474594
O O11 0.163850 0.594813 0.749755
O O12 0.000000 0.002050 0.250000
O O13 0.059278 0.892121 0.273553
O O14 0.867018 0.942354 0.599662
O O15 0.000000 0.000000 0.500000
O O16 0.226862 0.071395 0.761746
#
# Coordination Sequence:
#
# PCOD9272309 Si02
#       8
#     8   8   4   8   8   8   8   8
#     4  10  21  38  69  97 134 169 233 293 341 409
#     4  10  22  39  67  96 135 175 226 285 352 408
#     4  10  20  36  68  94 136 162 230 290 336 398
#     4  10  23  40  65  98 135 174 225 282 354 411
#     4  12  27  45  71 102 143 187 235 285 350 423
#     4  11  25  41  69  93 141 175 232 279 354 421
#     4  10  21  38  64 101 129 171 227 288 346 396
#     4  10  23  38  65  99 129 172 227 291 345 404
#
# _framework density 21.445395999999999
#
# number of rings (size 3 to 8) (size 9 to 14) (size 15 to 20)
#    0.000    1.600    0.667    2.800   18.667    0.000 
#    0.000    0.667    2.933    0.000    0.000    0.000 
#    0.000    0.000    0.000    0.000    0.000    0.000 
#
# Total GULP energy -167405.818902 kJ/mol
# GULP energy per Si atom -5580.193963 kJ/mol
# Density = 2.139659 g / cm^3
# Si number density = 21.445396 Si / 1000 Ang^3
#
#
#
# Elastic Constant Matrix: (Units=GPa)
#
#
# Indices 1 2 3 4 5 6 
#
# 1 92.7342 35.7627 24.2102 0.0000 -7.1412 0.0000
# 2 35.7627 60.4019 11.5934 0.0000 -8.4177 0.0000
# 3 24.2102 11.5934 86.0554 0.0000 -10.4820 0.0000
# 4 0.0000 0.0000 0.0000 19.0102 0.0000 -18.6449
# 5 -7.1412 -8.4177 -10.4820 0.0000 28.3963 0.0000
# 6 0.0000 0.0000 0.0000 -18.6449 0.0000 30.8792
#
#
#
# Elastic Compliance Matrix: (Units=1/GPa)
#
#
# Indices 1 2 3 4 5 6 
#
# 1 0.014713 -0.008105 -0.003025 0.000000 0.000181 0.000000
# 2 -0.008105 0.022000 -0.000144 0.000000 0.004430 0.000000
# 3 -0.003025 -0.000144 0.012977 0.000000 0.003987 0.000000
# 4 0.000000 0.000000 0.000000 0.128993 0.000000 0.077886
# 5 0.000181 0.004430 0.003987 0.000000 0.038046 0.000000
# 6 0.000000 0.000000 0.000000 0.077886 0.000000 0.079412
#
#
# Mechanical properties :
#
#
# Convention : Reuss Voigt Hill
#
# Bulk Modulus (GPa) = 36.84585 42.48046 39.66316
# Shear Modulus (GPa) = 15.25613 26.83215 21.04414
#
# Velocity S-wave (km/s) = 2.67009 3.54105 3.13595
# Velocity P-wave (km/s) = 5.16956 6.04734 5.62560
#
# Compressibility (1/GPa) = 0.02714010
#
# Stress axis : x y z
#
# Youngs Moduli (GPa) = 67.96671 45.45491 77.06236
#
# Poissons Ratio (x) = 0.36843 0.23314
# Poissons Ratio (y) = 0.55090 0.01109
# Poissons Ratio (z) = 0.20562 0.00654
#
# Static dielectric constant tensor:
#      x y z
#    x 1.857200 0.000000 0.033220 
#    y 0.000000 1.781190 0.000000 
#    z 0.033220 0.000000 1.762470 
# 
# From -- ./inp_files/119951.got.cif
#   From: 2010.05.17/outbox.cif.g08.bks.cpg/sg15_60_cif.got.tgz:119951.got - 2010.06.03 18:47:42.
