data_PCOD9272133
_publ_section_title
;
Structure prediction by ZEFSAII (Michael W. Deem and Ramdas Pophale) SiO2 
 PCOD9272133
Probable space group: C 2/C
;
_chemical_formula_sum "Si O2"
_cell_formula_units_Z 48
_cell_length_a 12.072954
_cell_length_b 10.249962
_cell_length_c 19.739011
_cell_angle_alpha 90.000000
_cell_angle_beta 118.516187
_cell_angle_gamma 90.000000
_cell_volume 2146.312994
_symmetry_space_group_name_H-M "C 2/C"
_symmetry_group_IT_number 15
_symmetry_cell_setting 'monoclinic'
loop_
_space_group_symop_operation_xyz
x,y,z
-x,y,1/2-z
-x,-y,-z
x,-y,1/2+z
1/2+x,1/2+y,z
1/2-x,1/2+y,1/2-z
1/2-x,1/2-y,-z
1/2+x,1/2-y,1/2+z
loop_
_atom_site_type_symbol
_atom_site_label
_atom_site_fract_x
_atom_site_fract_y
_atom_site_fract_z
Si Si1 0.813083 0.573471 0.486803
Si Si2 0.801493 0.250664 0.269155
Si Si3 0.998713 0.887171 0.053745
Si Si4 0.217761 0.689909 0.884864
Si Si5 0.900159 0.671297 0.943006
Si Si6 0.905910 0.030911 0.783040
O O1 0.804990 0.576140 0.566515
O O2 0.712840 0.676678 0.427008
O O3 0.807920 0.440754 0.443085
O O4 0.956106 0.621009 0.515722
O O5 0.846801 0.302217 0.207745
O O6 0.877888 0.282857 0.359693
O O7 0.673391 0.333862 0.246082
O O8 0.810112 0.092345 0.265135
O O9 0.135881 0.820979 0.091693
O O10 0.999319 0.950968 0.126571
O O11 0.896941 0.785482 0.997726
O O12 0.000000 0.000000 0.000000
O O13 0.000000 0.003554 0.750000
#
# Coordination Sequence:
#
# PCOD9272133 Si02
#       6
#     8   8   8   8   8   8
#     4   9  19  37  58  91 125 173 215 272 336 399
#     4  11  23  42  69 102 134 175 232 283 336 409
#     4  10  20  40  60  89 128 171 220 271 333 402
#     4   9  20  35  61  90 131 165 222 275 324 406
#     4  10  20  36  64  90 130 170 219 277 334 400
#     4  11  26  46  70 100 141 182 224 286 344 401
#
# _framework density 22.363931999999998
#
# number of rings (size 3 to 8) (size 9 to 14) (size 15 to 20)
#    0.000    2.000    1.667    1.000    2.333    4.000 
#    6.000    2.500    0.000    0.000    0.000    0.000 
#    0.000    0.000    0.000    0.000    0.000    0.000 
#
# Total GULP energy -133685.994395 kJ/mol
# GULP energy per Si atom -5570.249766 kJ/mol
# Density = 2.231303 g / cm^3
# Si number density = 22.363932 Si / 1000 Ang^3
#
#
#
# Elastic Constant Matrix: (Units=GPa)
#
#
# Indices 1 2 3 4 5 6 
#
# 1 55.2065 34.9144 17.8057 0.0000 -2.1475 0.0000
# 2 34.9144 88.7862 53.2584 0.0000 -6.6669 0.0000
# 3 17.8057 53.2584 158.7644 0.0000 -25.1998 0.0000
# 4 0.0000 0.0000 0.0000 26.3592 0.0000 0.6845
# 5 -2.1475 -6.6669 -25.1998 0.0000 31.3928 0.0000
# 6 0.0000 0.0000 0.0000 0.6845 0.0000 21.2739
#
#
#
# Elastic Compliance Matrix: (Units=1/GPa)
#
#
# Indices 1 2 3 4 5 6 
#
# 1 0.024155 -0.009858 0.000605 0.000000 0.000044 0.000000
# 2 -0.009858 0.018147 -0.005131 0.000000 -0.000939 0.000000
# 3 0.000605 -0.005131 0.008922 0.000000 0.006114 0.000000
# 4 0.000000 0.000000 0.000000 0.037969 0.000000 -0.001222
# 5 0.000044 -0.000939 0.006114 0.000000 0.036566 0.000000
# 6 0.000000 0.000000 0.000000 -0.001222 0.000000 0.047045
#
#
# Mechanical properties :
#
#
# Convention : Reuss Voigt Hill
#
# Bulk Modulus (GPa) = 44.53150 57.19046 50.86098
# Shear Modulus (GPa) = 23.91671 28.92376 26.42023
#
# Velocity S-wave (km/s) = 3.27377 3.60018 3.44085
# Velocity P-wave (km/s) = 5.85196 6.55056 6.21109
#
# Compressibility (1/GPa) = 0.02245602
#
# Stress axis : x y z
#
# Youngs Moduli (GPa) = 41.39900 55.10547 112.07697
#
# Poissons Ratio (x) = 0.54325 -0.06782
# Poissons Ratio (y) = 0.40813 0.57506
# Poissons Ratio (z) = -0.02505 0.28274
#
# Static dielectric constant tensor:
#      x y z
#    x 1.847590 0.000000 0.045040 
#    y 0.000000 1.846150 0.000000 
#    z 0.045040 0.000000 1.876200 
# 
# From -- ./inp_files/242576.got.cif
#   From: 2010.05.17/outbox.cif.g08.bks.cpg/sg15_122_cif.got.tgz:242576.got - 2010.06.03 18:47:42.
