data_PCOD9272658
_publ_section_title
;
Structure prediction by ZEFSAII (Michael W. Deem and Ramdas Pophale) SiO2 
 PCOD9272658
Probable space group: C 2/C
;
_chemical_formula_sum "Si O2"
_cell_formula_units_Z 40
_cell_length_a 10.364956
_cell_length_b 14.051144
_cell_length_c 23.958501
_cell_angle_alpha 90.000000
_cell_angle_beta 143.507975
_cell_angle_gamma 90.000000
_cell_volume 2075.127006
_symmetry_space_group_name_H-M "C 2/C"
_symmetry_group_IT_number 15
_symmetry_cell_setting 'monoclinic'
loop_
_space_group_symop_operation_xyz
x,y,z
-x,y,1/2-z
-x,-y,-z
x,-y,1/2+z
1/2+x,1/2+y,z
1/2-x,1/2+y,1/2-z
1/2-x,1/2-y,-z
1/2+x,1/2-y,1/2+z
loop_
_atom_site_type_symbol
_atom_site_label
_atom_site_fract_x
_atom_site_fract_y
_atom_site_fract_z
Si Si1 0.898528 0.893169 0.813111
Si Si2 0.452511 0.195721 0.165907
Si Si3 0.039040 0.311248 0.327958
Si Si4 0.496566 0.608123 0.478295
Si Si5 0.101093 0.107322 0.723416
O O1 0.644500 0.872757 0.712455
O O2 0.016082 0.803111 0.825557
O O3 0.955869 0.885668 0.898093
O O4 0.942960 0.001771 0.813164
O O5 0.500000 0.198479 0.250000
O O6 0.485076 0.302210 0.154346
O O7 0.215427 0.158742 0.070571
O O8 0.853988 0.362039 0.302214
O O9 0.000000 0.339573 0.250000
O O10 0.277316 0.343334 0.428141
O O11 0.500000 0.500000 0.500000
O O12 0.000000 0.106802 0.750000
#
# Coordination Sequence:
#
# PCOD9272658 Si02
#       5
#     8   8   8   8   8
#     4  10  20  37  59  87 118 153 193 242 292 343
#     4   8  18  36  58  82 115 151 189 232 283 342
#     4  11  23  40  61  87 117 154 199 244 287 345
#     4  11  21  37  61  87 116 157 199 238 286 351
#     4  10  20  38  60  85 120 157 189 238 297 345
#
# _framework density 19.275929000000001
#
# number of rings (size 3 to 8) (size 9 to 14) (size 15 to 20)
#    0.000    2.000    0.000    4.800    0.000    1.600 
#    0.000   15.000    0.000    0.000    0.000    0.000 
#    0.000    0.000    0.000    0.000    0.000    0.000 
#
# Total GULP energy -111481.216767 kJ/mol
# GULP energy per Si atom -5574.060838 kJ/mol
# Density = 1.923206 g / cm^3
# Si number density = 19.275929 Si / 1000 Ang^3
#
#
#
# Elastic Constant Matrix: (Units=GPa)
#
#
# Indices 1 2 3 4 5 6 
#
# 1 77.8172 43.5256 64.8086 0.0000 22.0539 0.0000
# 2 43.5256 146.9874 67.4148 -0.0001 32.3254 0.0000
# 3 64.8086 67.4148 137.4965 -0.0001 41.9571 0.0000
# 4 0.0000 -0.0001 -0.0001 12.9819 0.0000 -3.9842
# 5 22.0539 32.3254 41.9571 0.0000 36.4708 0.0000
# 6 0.0000 0.0000 0.0000 -3.9842 0.0000 26.0913
#
#
#
# Elastic Compliance Matrix: (Units=1/GPa)
#
#
# Indices 1 2 3 4 5 6 
#
# 1 0.021736 -0.002135 -0.008883 0.000000 -0.001031 0.000000
# 2 -0.002135 0.009461 -0.002261 0.000000 -0.004493 0.000000
# 3 -0.008883 -0.002261 0.015900 0.000000 -0.010915 0.000000
# 4 0.000000 0.000000 0.000000 0.080818 0.000000 0.012341
# 5 -0.001031 -0.004493 -0.010915 0.000000 0.044582 0.000000
# 6 0.000000 0.000000 0.000000 0.012341 0.000000 0.040212
#
#
# Mechanical properties :
#
#
# Convention : Reuss Voigt Hill
#
# Bulk Modulus (GPa) = 48.69431 79.31102 64.00266
# Shear Modulus (GPa) = 20.31590 27.54560 23.93075
#
# Velocity S-wave (km/s) = 3.24998 3.78433 3.52729
# Velocity P-wave (km/s) = 6.27692 7.76720 7.06148
#
# Compressibility (1/GPa) = 0.02053628
#
# Stress axis : x y z
#
# Youngs Moduli (GPa) = 46.00759 105.70006 62.89468
#
# Poissons Ratio (x) = 0.22569 0.55872
# Poissons Ratio (y) = 0.09823 0.14222
# Poissons Ratio (z) = 0.40871 0.23901
#
# Static dielectric constant tensor:
#      x y z
#    x 1.857950 0.000000 0.113890 
#    y 0.000000 1.680430 0.000000 
#    z 0.113890 0.000000 1.737850 
# 
# From -- ./inp_files/133162.got.cif
#   From: 2010.05.17/outbox.cif.g08.bks.cpg/sg15_67_cif.got.tgz:133162.got - 2010.06.03 18:47:42.
