data_PCOD9272604
_publ_section_title
;
Structure prediction by ZEFSAII (Michael W. Deem and Ramdas Pophale) SiO2 
 PCOD9272604
Probable space group: C 2/C
;
_chemical_formula_sum "Si O2"
_cell_formula_units_Z 64
_cell_length_a 11.788992
_cell_length_b 18.304758
_cell_length_c 13.828636
_cell_angle_alpha 90.000000
_cell_angle_beta 95.304752
_cell_angle_gamma 90.000000
_cell_volume 2971.364610
_symmetry_space_group_name_H-M "C 2/C"
_symmetry_group_IT_number 15
_symmetry_cell_setting 'monoclinic'
loop_
_space_group_symop_operation_xyz
x,y,z
-x,y,1/2-z
-x,-y,-z
x,-y,1/2+z
1/2+x,1/2+y,z
1/2-x,1/2+y,1/2-z
1/2-x,1/2-y,-z
1/2+x,1/2-y,1/2+z
loop_
_atom_site_type_symbol
_atom_site_label
_atom_site_fract_x
_atom_site_fract_y
_atom_site_fract_z
Si Si1 0.172809 0.463846 0.691448
Si Si2 0.638699 0.494110 0.930978
Si Si3 0.972734 0.119771 0.487735
Si Si4 0.437650 0.185404 0.342156
Si Si5 0.528060 0.104616 0.641051
Si Si6 0.121206 0.731072 0.522433
Si Si7 0.209698 0.449226 0.374753
Si Si8 0.107893 0.844912 0.185318
O O1 0.298438 0.479044 0.662531
O O2 0.138572 0.385371 0.646196
O O3 0.091125 0.526844 0.642781
O O4 0.171789 0.480942 0.806541
O O5 0.615740 0.578780 0.949196
O O6 0.525072 0.444336 0.926554
O O7 0.715582 0.472166 0.028601
O O8 0.924396 0.192346 0.437156
O O9 0.066573 0.144980 0.571799
O O10 0.500000 0.161839 0.250000
O O11 0.534967 0.208124 0.427552
O O12 0.368044 0.258511 0.307405
O O13 0.500000 0.123485 0.750000
O O14 0.603826 0.165212 0.595395
O O15 0.400353 0.092496 0.592312
O O16 0.250000 0.750000 0.500000
O O17 0.282309 0.397399 0.306593
O O18 0.000000 0.859698 0.250000
#
# Coordination Sequence:
#
# PCOD9272604 Si02
#       8
#     8   8   8   8   8   8   8   8
#     4  11  22  37  57  84 116 154 194 236 295 356
#     4  10  20  37  59  80 112 151 187 243 295 343
#     4   9  20  36  54  84 113 142 197 243 285 349
#     4  10  22  37  57  88 119 147 194 248 290 345
#     4  10  23  39  57  84 117 153 198 245 293 354
#     4  11  23  40  63  88 119 162 204 246 300 363
#     4  10  21  37  59  84 114 153 193 239 298 357
#     4   9  18  35  58  81 112 154 194 236 288 350
#
# _framework density 21.538927000000001
#
# number of rings (size 3 to 8) (size 9 to 14) (size 15 to 20)
#    0.000    2.000    0.000    3.375    0.000   11.000 
#    0.000    5.000    0.000    0.000    0.000    0.000 
#    0.000    0.000    0.000    0.000    0.000    0.000 
#
# Total GULP energy -178328.531096 kJ/mol
# GULP energy per Si atom -5572.766597 kJ/mol
# Density = 2.148990 g / cm^3
# Si number density = 21.538927 Si / 1000 Ang^3
#
#
#
# Elastic Constant Matrix: (Units=GPa)
#
#
# Indices 1 2 3 4 5 6 
#
# 1 53.9382 9.7578 -7.2712 0.0000 -8.8806 0.0000
# 2 9.7578 30.1089 -4.0178 0.0000 1.5448 0.0000
# 3 -7.2712 -4.0178 25.2025 0.0000 -6.7065 0.0000
# 4 0.0000 0.0000 0.0000 7.8254 0.0000 -11.1245
# 5 -8.8806 1.5448 -6.7065 0.0000 27.8888 0.0000
# 6 0.0000 0.0000 0.0000 -11.1245 0.0000 19.9409
#
#
#
# Elastic Compliance Matrix: (Units=1/GPa)
#
#
# Indices 1 2 3 4 5 6 
#
# 1 0.022355 -0.006674 0.007883 0.000000 0.009384 0.000000
# 2 -0.006674 0.035937 0.002893 0.000000 -0.003420 0.000000
# 3 0.007883 0.002893 0.045982 0.000000 0.013407 0.000000
# 4 0.000000 0.000000 0.000000 0.617540 0.000000 0.344510
# 5 0.009384 -0.003420 0.013407 0.000000 0.042258 0.000000
# 6 0.000000 0.000000 0.000000 0.344510 0.000000 0.242342
#
#
# Mechanical properties :
#
#
# Convention : Reuss Voigt Hill
#
# Bulk Modulus (GPa) = 8.89068 11.79858 10.34463
# Shear Modulus (GPa) = 4.82764 18.51642 11.67203
#
# Velocity S-wave (km/s) = 1.49874 2.93520 2.33041
# Velocity P-wave (km/s) = 2.67051 4.12030 3.47192
#
# Compressibility (1/GPa) = 0.11247729
#
# Stress axis : x y z
#
# Youngs Moduli (GPa) = 44.73316 27.82612 21.74769
#
# Poissons Ratio (x) = 0.18572 -0.17143
# Poissons Ratio (y) = 0.29857 -0.06292
# Poissons Ratio (z) = -0.35261 -0.08051
#
# Static dielectric constant tensor:
#      x y z
#    x 1.867120 0.000000 0.019830 
#    y 0.000000 1.860910 0.000000 
#    z 0.019830 0.000000 1.805050 
# 
# From -- ./inp_files/146088.got.cif
#   From: 2010.05.17/outbox.cif.g08.bks.cpg/sg15_74_cif.got.tgz:146088.got - 2010.06.03 18:47:42.
