data_PCOD9272067
_publ_section_title
;
Structure prediction by ZEFSAII (Michael W. Deem and Ramdas Pophale) SiO2 
 PCOD9272067
Probable space group: C 2/C
;
_chemical_formula_sum "Si O2"
_cell_formula_units_Z 44
_cell_length_a 20.410136
_cell_length_b 6.805235
_cell_length_c 14.181266
_cell_angle_alpha 90.000000
_cell_angle_beta 66.489726
_cell_angle_gamma 90.000000
_cell_volume 1806.208765
_symmetry_space_group_name_H-M "C 2/C"
_symmetry_group_IT_number 15
_symmetry_cell_setting 'monoclinic'
loop_
_space_group_symop_operation_xyz
x,y,z
-x,y,1/2-z
-x,-y,-z
x,-y,1/2+z
1/2+x,1/2+y,z
1/2-x,1/2+y,1/2-z
1/2-x,1/2-y,-z
1/2+x,1/2-y,1/2+z
loop_
_atom_site_type_symbol
_atom_site_label
_atom_site_fract_x
_atom_site_fract_y
_atom_site_fract_z
Si Si1 0.611676 0.404705 0.717452
Si Si2 0.000000 0.436781 0.250000
Si Si3 0.824961 0.808945 0.005096
Si Si4 0.169960 0.217859 0.785036
Si Si5 0.322224 0.169512 0.667642
Si Si6 0.433199 0.055258 0.471565
O O1 0.555589 0.226880 0.758371
O O2 0.633873 0.436454 0.596973
O O3 0.602591 0.611076 0.775703
O O4 0.674786 0.312731 0.744837
O O5 0.033910 0.572717 0.150594
O O6 0.877032 0.621790 0.986680
O O7 0.750000 0.750000 0.000000
O O8 0.816574 0.873977 0.118173
O O9 0.161761 0.449785 0.803697
O O10 0.240634 0.183900 0.680696
O O11 0.383543 0.210379 0.555239
O O12 0.500000 0.000000 0.500000
#
# Coordination Sequence:
#
# PCOD9272067 Si02
#       6
#     8   4   8   8   8   8
#     4  11  21  41  64  91 129 171 216 262 332 379
#     4  10  22  40  68  86 134 176 212 272 328 384
#     4  10  20  38  62  91 127 167 213 270 320 381
#     4  11  22  39  65  96 132 166 217 272 324 389
#     4  11  20  37  65  94 126 167 210 263 324 387
#     4  10  20  36  63  96 119 174 222 254 329 392
#
# _framework density 24.360417999999999
#
# number of rings (size 3 to 8) (size 9 to 14) (size 15 to 20)
#    0.000    1.455    5.455    1.091    0.000    0.000 
#    0.000   15.455    0.000    0.000    0.000    0.000 
#    0.000    0.000    0.000    0.000    0.000    0.000 
#
# Total GULP energy -122694.487980 kJ/mol
# GULP energy per Si atom -5577.022181 kJ/mol
# Density = 2.430497 g / cm^3
# Si number density = 24.360418 Si / 1000 Ang^3
#
#
#
# Elastic Constant Matrix: (Units=GPa)
#
#
# Indices 1 2 3 4 5 6 
#
# 1 103.7203 15.8058 28.5842 0.0000 0.0677 -0.0001
# 2 15.8058 61.1500 18.9313 0.0000 2.5523 -0.0001
# 3 28.5842 18.9313 175.5959 0.0000 -7.8976 0.0000
# 4 0.0000 0.0000 0.0000 29.6514 0.0000 7.8660
# 5 0.0677 2.5523 -7.8976 0.0000 36.6879 0.0000
# 6 -0.0001 -0.0001 0.0000 7.8660 0.0000 36.1570
#
#
#
# Elastic Compliance Matrix: (Units=1/GPa)
#
#
# Indices 1 2 3 4 5 6 
#
# 1 0.010382 -0.002225 -0.001458 0.000000 -0.000178 0.000000
# 2 -0.002225 0.017486 -0.001593 0.000000 -0.001555 0.000000
# 3 -0.001458 -0.001593 0.006169 0.000000 0.001441 0.000000
# 4 0.000000 0.000000 0.000000 0.035791 0.000000 -0.007786
# 5 -0.000178 -0.001555 0.001441 0.000000 0.027676 0.000000
# 6 0.000000 0.000000 0.000000 -0.007786 0.000000 0.029351
#
#
# Mechanical properties :
#
#
# Convention : Reuss Voigt Hill
#
# Bulk Modulus (GPa) = 42.57929 51.90096 47.24013
# Shear Modulus (GPa) = 34.42682 38.97559 36.70121
#
# Velocity S-wave (km/s) = 3.76337 4.00428 3.88569
# Velocity P-wave (km/s) = 6.03331 6.53688 6.29013
#
# Compressibility (1/GPa) = 0.02348560
#
# Stress axis : x y z
#
# Youngs Moduli (GPa) = 96.31753 57.18741 162.10474
#
# Poissons Ratio (x) = 0.12722 0.23639
# Poissons Ratio (y) = 0.21428 0.25824
# Poissons Ratio (z) = 0.14045 0.09110
#
# Static dielectric constant tensor:
#      x y z
#    x 1.988670 0.000000 -0.003940 
#    y 0.000000 1.964340 0.000000 
#    z -0.003940 0.000000 2.013940 
# 
# From -- ./inp_files/171277.got.cif
#   From: 2010.05.17/outbox.cif.g08.bks.cpg/sg15_86_cif.got.tgz:171277.got - 2010.06.03 18:47:42.
