data_PCOD9272086
_publ_section_title
;
Structure prediction by ZEFSAII (Michael W. Deem and Ramdas Pophale) SiO2 
 PCOD9272086
Probable space group: C 2/C
;
_chemical_formula_sum "Si O2"
_cell_formula_units_Z 44
_cell_length_a 34.758585
_cell_length_b 4.826091
_cell_length_c 16.321114
_cell_angle_alpha 90.000000
_cell_angle_beta 136.406168
_cell_angle_gamma 90.000000
_cell_volume 1887.851606
_symmetry_space_group_name_H-M "C 2/C"
_symmetry_group_IT_number 15
_symmetry_cell_setting 'monoclinic'
loop_
_space_group_symop_operation_xyz
x,y,z
-x,y,1/2-z
-x,-y,-z
x,-y,1/2+z
1/2+x,1/2+y,z
1/2-x,1/2+y,1/2-z
1/2-x,1/2-y,-z
1/2+x,1/2-y,1/2+z
loop_
_atom_site_type_symbol
_atom_site_label
_atom_site_fract_x
_atom_site_fract_y
_atom_site_fract_z
Si Si1 0.000000 0.751413 0.250000
Si Si2 0.993508 0.360278 0.401285
Si Si3 0.877980 0.872741 0.030746
Si Si4 0.872726 0.730477 0.756907
Si Si5 0.115024 0.341952 0.565499
Si Si6 0.684163 0.279807 0.402432
O O1 0.992334 0.566724 0.321080
O O2 0.057077 0.927843 0.344389
O O3 0.872828 0.455286 0.339485
O O4 0.000000 0.500000 0.500000
O O5 0.053167 0.214769 0.486070
O O6 0.854914 0.072054 0.923476
O O7 0.882018 0.558650 0.004842
O O8 0.838390 0.899057 0.047287
O O9 0.935216 0.795932 0.821893
O O10 0.844064 0.518416 0.650284
O O11 0.161540 0.013618 0.796989
O O12 0.750000 0.250000 0.500000
#
# Coordination Sequence:
#
# PCOD9272086 Si02
#       6
#     4   8   8   8   8   8
#     4  10  20  36  64 100 142 186 224 288 358 422
#     4   9  20  37  63 101 141 180 225 278 355 432
#     4  11  23  40  65  99 136 173 234 277 345 412
#     4  11  23  44  66  95 135 180 224 281 349 402
#     4  10  23  40  66 100 137 171 220 288 346 424
#     4  12  26  44  67  94 131 183 235 280 332 411
#
# _framework density 23.306916000000001
#
# number of rings (size 3 to 8) (size 9 to 14) (size 15 to 20)
#    0.000    1.455    1.818    2.727    5.091    0.727 
#    0.000   10.909    0.000    0.000    0.000    0.000 
#    0.000    0.000    0.000    0.000    0.000    0.000 
#
# Total GULP energy -122808.889928 kJ/mol
# GULP energy per Si atom -5582.222269 kJ/mol
# Density = 2.325387 g / cm^3
# Si number density = 23.306916 Si / 1000 Ang^3
#
#
#
# Elastic Constant Matrix: (Units=GPa)
#
#
# Indices 1 2 3 4 5 6 
#
# 1 131.1884 20.1013 61.5479 -0.0053 -7.5591 -0.0031
# 2 20.1013 86.9915 15.5722 -0.0090 4.8936 0.0198
# 3 61.5479 15.5722 69.3003 -0.0019 -11.2047 0.0073
# 4 -0.0053 -0.0090 -0.0019 32.8711 -0.0060 -21.8037
# 5 -7.5591 4.8936 -11.2047 -0.0060 45.3542 -0.0031
# 6 -0.0031 0.0198 0.0073 -21.8037 -0.0031 15.1275
#
#
#
# Elastic Compliance Matrix: (Units=1/GPa)
#
#
# Indices 1 2 3 4 5 6 
#
# 1 0.013162 -0.000939 -0.011570 0.000168 -0.000563 0.000252
# 2 -0.000939 0.012228 -0.002242 -0.000173 -0.002030 -0.000265
# 3 -0.011570 -0.002242 0.025974 -0.000171 0.004730 -0.000258
# 4 0.000168 -0.000173 -0.000171 0.692137 0.000164 0.997596
# 5 -0.000563 -0.002030 0.004730 0.000164 0.023342 0.000241
# 6 0.000252 -0.000265 -0.000258 0.997596 0.000241 1.503966
#
#
# Mechanical properties :
#
#
# Convention : Reuss Voigt Hill
#
# Bulk Modulus (GPa) = 45.73985 53.54699 49.64342
# Shear Modulus (GPa) = 2.16675 31.35448 16.76062
#
# Velocity S-wave (km/s) = 0.96524 3.67179 2.68456
# Velocity P-wave (km/s) = 4.57273 6.40318 5.56375
#
# Compressibility (1/GPa) = 0.02186277
#
# Stress axis : x y z
#
# Youngs Moduli (GPa) = 75.97582 81.78045 38.49973
#
# Poissons Ratio (x) = 0.07676 0.44544
# Poissons Ratio (y) = 0.07131 0.08632
# Poissons Ratio (z) = 0.87903 0.18337
#
# Static dielectric constant tensor:
#      x y z
#    x 2.827100 -0.000340 -1.848720 
#    y -0.000340 1.897470 0.000590 
#    z -1.848720 0.000590 5.325340 
# 
# From -- ./inp_files/104500.got.cif
#   From: 2010.05.17/outbox.cif.g08.bks.cpg/sg15_53_cif.got.tgz:104500.got - 2010.06.03 18:47:42.
