data_PCOD9272310
_publ_section_title
;
Structure prediction by ZEFSAII (Michael W. Deem and Ramdas Pophale) SiO2 
 PCOD9272310
Probable space group: C 2/C
;
_chemical_formula_sum "Si O2"
_cell_formula_units_Z 44
_cell_length_a 20.771024
_cell_length_b 17.452822
_cell_length_c 9.156126
_cell_angle_alpha 90.000000
_cell_angle_beta 30.482030
_cell_angle_gamma 90.000000
_cell_volume 1683.731667
_symmetry_space_group_name_H-M "C 2/C"
_symmetry_group_IT_number 15
_symmetry_cell_setting 'monoclinic'
loop_
_space_group_symop_operation_xyz
x,y,z
-x,y,1/2-z
-x,-y,-z
x,-y,1/2+z
1/2+x,1/2+y,z
1/2-x,1/2+y,1/2-z
1/2-x,1/2-y,-z
1/2+x,1/2-y,1/2+z
loop_
_atom_site_type_symbol
_atom_site_label
_atom_site_fract_x
_atom_site_fract_y
_atom_site_fract_z
Si Si1 0.943019 0.572722 0.693796
Si Si2 0.689331 0.539500 0.329575
Si Si3 0.438271 0.792183 0.673077
Si Si4 0.500000 0.269718 0.750000
Si Si5 0.708049 0.632859 0.807635
Si Si6 0.449200 0.618635 0.668119
O O1 0.000000 0.577802 0.750000
O O2 0.000000 0.500000 0.500000
O O3 0.960265 0.640731 0.540964
O O4 0.796358 0.564828 0.011223
O O5 0.729229 0.455097 0.307116
O O6 0.557987 0.559307 0.501326
O O7 0.674701 0.592820 0.499294
O O8 0.426036 0.777267 0.521448
O O9 0.476025 0.707521 0.650105
O O10 0.321496 0.825246 0.997098
O O11 0.625324 0.312620 0.574521
O O12 0.594827 0.617123 0.910847
#
# Coordination Sequence:
#
# PCOD9272310 Si02
#       6
#     8   8   8   4   8   8
#     4  12  26  49  73 106 144 198 246 304 380 452
#     4  11  24  42  70  98 146 189 239 310 364 439
#     4  11  23  42  69 103 142 188 244 298 363 446
#     4  10  20  36  68  96 126 182 230 294 356 424
#     4  11  22  42  68 102 136 187 244 295 369 448
#     4  10  23  42  66 104 141 181 245 308 363 432
#
# _framework density 26.132431
#
# number of rings (size 3 to 8) (size 9 to 14) (size 15 to 20)
#    0.000    1.091    2.727    4.909    2.545    2.182 
#    3.273    0.000    0.000    0.000    0.000    0.000 
#    0.000    0.000    0.000    0.000    0.000    0.000 
#
# Total GULP energy -122662.320009 kJ/mol
# GULP energy per Si atom -5575.560000 kJ/mol
# Density = 2.607295 g / cm^3
# Si number density = 26.132431 Si / 1000 Ang^3
#
#
#
# Elastic Constant Matrix: (Units=GPa)
#
#
# Indices 1 2 3 4 5 6 
#
# 1 60.0675 -11.3545 1.7196 0.0000 10.9377 0.0000
# 2 -11.3545 174.4397 76.3878 0.0000 7.4195 0.0000
# 3 1.7196 76.3878 229.2921 0.0000 11.0250 0.0000
# 4 0.0000 0.0000 0.0000 51.6746 0.0000 4.9323
# 5 10.9377 7.4195 11.0250 0.0000 17.9388 0.0000
# 6 0.0000 0.0000 0.0000 4.9323 0.0000 14.8451
#
#
#
# Elastic Compliance Matrix: (Units=1/GPa)
#
#
# Indices 1 2 3 4 5 6 
#
# 1 0.019263 0.001854 -0.000165 0.000000 -0.012410 0.000000
# 2 0.001854 0.006927 -0.002194 0.000000 -0.002647 0.000000
# 3 -0.000165 -0.002194 0.005199 0.000000 -0.002187 0.000000
# 4 0.000000 0.000000 0.000000 0.019986 0.000000 -0.006640
# 5 -0.012410 -0.002647 -0.002187 0.000000 0.065750 0.000000
# 6 0.000000 0.000000 0.000000 -0.006640 0.000000 0.069568
#
#
# Mechanical properties :
#
#
# Convention : Reuss Voigt Hill
#
# Bulk Modulus (GPa) = 32.91940 66.36725 49.64332
# Shear Modulus (GPa) = 25.27428 43.36146 34.31787
#
# Velocity S-wave (km/s) = 3.11330 4.07787 3.62778
# Velocity P-wave (km/s) = 5.05450 6.90099 6.04862
#
# Compressibility (1/GPa) = 0.03037723
#
# Stress axis : x y z
#
# Youngs Moduli (GPa) = 51.91315 144.36702 192.35793
#
# Poissons Ratio (x) = -0.26768 0.03183
# Poissons Ratio (y) = -0.09625 0.42209
# Poissons Ratio (z) = 0.00859 0.31678
#
# Static dielectric constant tensor:
#      x y z
#    x -13.025590 0.000000 1.904480 
#    y 0.000000 2.325030 0.000000 
#    z 1.904480 0.000000 1.895430 
# 
# From -- ./inp_files/127259.got.cif
#   From: 2010.05.17/outbox.cif.g08.bks.cpg/sg15_64_cif.got.tgz:127259.got - 2010.06.03 18:47:42.
