data_PCOD9272206
_publ_section_title
;
Structure prediction by ZEFSAII (Michael W. Deem and Ramdas Pophale) SiO2 
 PCOD9272206
Probable space group: C 2/C
;
_chemical_formula_sum "Si O2"
_cell_formula_units_Z 52
_cell_length_a 11.583398
_cell_length_b 14.373854
_cell_length_c 17.153414
_cell_angle_alpha 90.000000
_cell_angle_beta 112.407134
_cell_angle_gamma 90.000000
_cell_volume 2640.377513
_symmetry_space_group_name_H-M "C 2/C"
_symmetry_group_IT_number 15
_symmetry_cell_setting 'monoclinic'
loop_
_space_group_symop_operation_xyz
x,y,z
-x,y,1/2-z
-x,-y,-z
x,-y,1/2+z
1/2+x,1/2+y,z
1/2-x,1/2+y,1/2-z
1/2-x,1/2-y,-z
1/2+x,1/2-y,1/2+z
loop_
_atom_site_type_symbol
_atom_site_label
_atom_site_fract_x
_atom_site_fract_y
_atom_site_fract_z
Si Si1 0.779469 0.473840 0.217760
Si Si2 0.187475 0.646961 0.498928
Si Si3 0.870379 0.199874 0.760326
Si Si4 0.614125 0.760586 0.124295
Si Si5 0.544639 0.120608 0.171029
Si Si6 0.611010 0.569870 0.044818
Si Si7 0.000000 0.342367 0.250000
O O1 0.687132 0.397906 0.230610
O O2 0.851795 0.539502 0.298670
O O3 0.701732 0.532211 0.135826
O O4 0.884931 0.411068 0.203153
O O5 0.250000 0.750000 0.500000
O O6 0.122784 0.653883 0.566246
O O7 0.306360 0.582946 0.511913
O O8 0.078295 0.614584 0.412670
O O9 0.761038 0.250566 0.683136
O O10 0.898928 0.277243 0.833221
O O11 0.000000 0.183320 0.750000
O O12 0.566848 0.670134 0.066328
O O13 0.540706 0.783759 0.184567
O O14 0.500000 0.124070 0.250000
O O15 0.500000 0.500000 0.000000
#
# Coordination Sequence:
#
# PCOD9272206 Si02
#       7
#     8   8   8   8   8   8   4
#     4  11  21  39  63  91 124 176 215 260 337 382
#     4  10  20  36  65  95 125 164 223 264 322 386
#     4  10  21  36  62  89 122 162 220 266 310 387
#     4  10  22  42  61  94 128 173 214 267 330 385
#     4  11  18  38  65  88 124 169 218 265 313 394
#     4  11  22  37  61  95 135 165 211 272 328 384
#     4  10  22  44  66  84 132 170 214 270 328 400
#
# _framework density 19.694153
#
# number of rings (size 3 to 8) (size 9 to 14) (size 15 to 20)
#    0.000    1.538    3.846    2.769    6.462    0.000 
#    1.385    7.692    0.000    0.000    0.000    0.000 
#    0.000    0.000    0.000    0.000    0.000    0.000 
#
# Total GULP energy -144869.863198 kJ/mol
# GULP energy per Si atom -5571.917815 kJ/mol
# Density = 1.964933 g / cm^3
# Si number density = 19.694153 Si / 1000 Ang^3
#
#
#
# Elastic Constant Matrix: (Units=GPa)
#
#
# Indices 1 2 3 4 5 6 
#
# 1 135.1154 66.5548 50.6081 0.0000 -1.0531 0.0000
# 2 66.5548 110.3486 25.2003 0.0000 -5.3377 0.0000
# 3 50.6081 25.2003 71.5878 0.0000 -9.2398 0.0000
# 4 0.0000 0.0000 0.0000 26.5067 0.0000 11.3172
# 5 -1.0531 -5.3377 -9.2398 0.0000 32.0474 0.0000
# 6 0.0000 0.0000 0.0000 11.3172 0.0000 39.2530
#
#
#
# Elastic Compliance Matrix: (Units=1/GPa)
#
#
# Indices 1 2 3 4 5 6 
#
# 1 0.013411 -0.006499 -0.007557 0.000000 -0.002821 0.000000
# 2 -0.006499 0.013018 0.000275 0.000000 0.002034 0.000000
# 3 -0.007557 0.000275 0.019930 0.000000 0.005544 0.000000
# 4 0.000000 0.000000 0.000000 0.043022 0.000000 -0.012404
# 5 -0.002821 0.002034 0.005544 0.000000 0.033048 0.000000
# 6 0.000000 0.000000 0.000000 -0.012404 0.000000 0.029052
#
#
# Mechanical properties :
#
#
# Convention : Reuss Voigt Hill
#
# Bulk Modulus (GPa) = 53.20418 66.86425 60.03422
# Shear Modulus (GPa) = 26.98192 31.20733 29.09463
#
# Velocity S-wave (km/s) = 3.70543 3.98502 3.84777
# Velocity P-wave (km/s) = 6.73653 7.42959 7.09153
#
# Compressibility (1/GPa) = 0.01879551
#
# Stress axis : x y z
#
# Youngs Moduli (GPa) = 74.56599 76.81806 50.17572
#
# Poissons Ratio (x) = 0.49926 0.37917
# Poissons Ratio (y) = 0.48462 -0.01378
# Poissons Ratio (z) = 0.56349 -0.02109
#
# Static dielectric constant tensor:
#      x y z
#    x 1.715750 0.000000 -0.000080 
#    y 0.000000 1.762380 0.000000 
#    z -0.000080 0.000000 1.751480 
# 
# From -- ./inp_files/144312.got.cif
#   From: 2010.05.17/outbox.cif.g08.bks.cpg/sg15_73_cif.got.tgz:144312.got - 2010.06.03 18:47:42.
