data_PCOD9272005
_publ_section_title
;
Structure prediction by ZEFSAII (Michael W. Deem and Ramdas Pophale) SiO2 
 PCOD9272005
Probable space group: C 2/C
;
_chemical_formula_sum "Si O2"
_cell_formula_units_Z 56
_cell_length_a 10.847998
_cell_length_b 28.874040
_cell_length_c 9.551345
_cell_angle_alpha 90.000000
_cell_angle_beta 114.227810
_cell_angle_gamma 90.000000
_cell_volume 2728.217054
_symmetry_space_group_name_H-M "C 2/C"
_symmetry_group_IT_number 15
_symmetry_cell_setting 'monoclinic'
loop_
_space_group_symop_operation_xyz
x,y,z
-x,y,1/2-z
-x,-y,-z
x,-y,1/2+z
1/2+x,1/2+y,z
1/2-x,1/2+y,1/2-z
1/2-x,1/2-y,-z
1/2+x,1/2-y,1/2+z
loop_
_atom_site_type_symbol
_atom_site_label
_atom_site_fract_x
_atom_site_fract_y
_atom_site_fract_z
Si Si1 0.731836 0.383756 0.556129
Si Si2 0.129331 0.747031 0.705465
Si Si3 0.200701 0.125460 0.565436
Si Si4 0.984087 0.191024 0.594812
Si Si5 0.014049 0.951502 0.586258
Si Si6 0.106931 0.645689 0.615118
Si Si7 0.313253 0.170890 0.361038
O O1 0.617094 0.352052 0.431207
O O2 0.651677 0.425225 0.596726
O O3 0.836852 0.388815 0.478290
O O4 0.805700 0.351646 0.705190
O O5 0.167699 0.697623 0.659937
O O6 0.253349 0.776834 0.829343
O O7 0.000000 0.741697 0.750000
O O8 0.077269 0.777160 0.552229
O O9 0.114872 0.166332 0.595172
O O10 0.110873 0.079856 0.525229
O O11 0.342350 0.123013 0.715105
O O12 0.213341 0.141298 0.411534
O O13 0.000000 0.215988 0.750000
O O14 0.000000 0.955265 0.750000
O O15 0.000000 0.000000 0.500000
O O16 0.956275 0.660769 0.499734
#
# Coordination Sequence:
#
# PCOD9272005 Si02
#       7
#     8   8   8   8   8   8   8
#     4  10  23  42  63  96 138 170 215 274 346 407
#     4  11  24  39  62  92 131 184 256 300 318 370
#     4  11  22  42  64  97 136 172 223 280 349 393
#     4  10  20  36  63  86 125 179 229 292 340 369
#     4  11  25  45  82 112 127 161 217 283 344 415
#     4  12  26  38  62  95 136 191 223 281 338 400
#     4  11  23  42  65  89 135 193 236 276 336 405
#
# _framework density 20.526226999999999
#
# number of rings (size 3 to 8) (size 9 to 14) (size 15 to 20)
#    0.000    1.143    4.286    1.714    4.000    4.571 
#    0.000    0.000    0.000    5.143    0.000    0.000 
#    0.000    0.000    0.000    0.000    0.000    0.000 
#
# Total GULP energy -156114.619806 kJ/mol
# GULP energy per Si atom -5575.522136 kJ/mol
# Density = 2.047951 g / cm^3
# Si number density = 20.526227 Si / 1000 Ang^3
#
#
#
# Elastic Constant Matrix: (Units=GPa)
#
#
# Indices 1 2 3 4 5 6 
#
# 1 56.1794 25.7048 22.4575 0.0000 7.7044 0.0000
# 2 25.7048 104.6250 25.7967 0.0000 2.7655 0.0000
# 3 22.4575 25.7967 109.8366 0.0000 -2.2305 0.0000
# 4 0.0000 0.0000 0.0000 22.9592 0.0000 -13.9186
# 5 7.7044 2.7655 -2.2305 0.0000 45.8482 0.0000
# 6 0.0000 0.0000 0.0000 -13.9186 0.0000 0.9292
#
#
#
# Elastic Compliance Matrix: (Units=1/GPa)
#
#
# Indices 1 2 3 4 5 6 
#
# 1 0.021678 -0.004375 -0.003477 0.000000 -0.003548 0.000000
# 2 -0.004375 0.011053 -0.001702 0.000000 -0.000014 0.000000
# 3 -0.003477 -0.001702 0.010239 0.000000 0.001185 0.000000
# 4 0.000000 0.000000 0.000000 -0.005390 0.000000 -0.080737
# 5 -0.003548 -0.000014 0.001185 0.000000 0.022466 0.000000
# 6 0.000000 0.000000 0.000000 -0.080737 0.000000 -0.133179
#
#
# Mechanical properties :
#
#
# Convention : Reuss Voigt Hill
#
# Bulk Modulus (GPa) = 41.90588 46.50657 44.20622
# Shear Modulus (GPa) = -108.52652 27.05945 -40.73353
#
# Velocity S-wave (km/s) = -7.27921 3.63476 -4.45956
# Velocity P-wave (km/s) = 7.08443 6.34993 2.22120
#
# Compressibility (1/GPa) = 0.02386300
#
# Stress axis : x y z
#
# Youngs Moduli (GPa) = 46.12886 90.47510 97.66516
#
# Poissons Ratio (x) = 0.39583 0.33958
# Poissons Ratio (y) = 0.20181 0.16619
# Poissons Ratio (z) = 0.16039 0.15396
#
# Static dielectric constant tensor:
#      x y z
#    x 1.851330 0.000000 0.000060 
#    y 0.000000 1.695570 0.000000 
#    z 0.000060 0.000000 1.778870 
# 
# From -- ./inp_files/35311.got.cif
#   From: 2010.05.17/outbox.cif.g08.bks.cpg/sg15_18_cif.got.tgz:35311.got - 2010.06.03 18:47:42.
