data_PCOD9272662
_publ_section_title
;
Structure prediction by ZEFSAII (Michael W. Deem and Ramdas Pophale) SiO2 
 PCOD9272662
Probable space group: C 2/C
;
_chemical_formula_sum "Si O2"
_cell_formula_units_Z 48
_cell_length_a 11.815961
_cell_length_b 14.200541
_cell_length_c 22.396257
_cell_angle_alpha 90.000000
_cell_angle_beta 142.897383
_cell_angle_gamma 90.000000
_cell_volume 2266.953921
_symmetry_space_group_name_H-M "C 2/C"
_symmetry_group_IT_number 15
_symmetry_cell_setting 'monoclinic'
loop_
_space_group_symop_operation_xyz
x,y,z
-x,y,1/2-z
-x,-y,-z
x,-y,1/2+z
1/2+x,1/2+y,z
1/2-x,1/2+y,1/2-z
1/2-x,1/2-y,-z
1/2+x,1/2-y,1/2+z
loop_
_atom_site_type_symbol
_atom_site_label
_atom_site_fract_x
_atom_site_fract_y
_atom_site_fract_z
Si Si1 0.890890 0.403570 0.140970
Si Si2 0.967484 0.790789 0.124582
Si Si3 0.844965 0.455191 0.891069
Si Si4 0.315656 0.851826 0.340491
Si Si5 0.884465 0.261993 0.944683
Si Si6 0.826054 0.595621 0.056371
O O1 0.737050 0.321053 0.078509
O O2 0.796923 0.504331 0.084665
O O3 0.000000 0.409470 0.250000
O O4 0.039860 0.376137 0.152363
O O5 0.848382 0.699259 0.093694
O O6 0.139824 0.797280 0.241258
O O7 0.050531 0.773630 0.092972
O O8 0.834779 0.882656 0.060620
O O9 0.732192 0.547139 0.826201
O O10 0.766206 0.359460 0.885764
O O11 0.972307 0.422367 0.889072
O O12 0.000000 0.500000 0.000000
O O13 0.439538 0.796368 0.441350
#
# Coordination Sequence:
#
# PCOD9272662 Si02
#       6
#     8   8   8   8   8   8
#     4  11  21  38  58  90 126 157 203 259 314 364
#     4  10  20  40  59  85 118 164 207 246 308 369
#     4   8  17  37  58  78 113 156 196 251 302 351
#     4  10  20  38  62  85 119 164 203 253 307 369
#     4  10  20  37  59  87 124 157 202 256 303 367
#     4   9  21  37  57  81 122 155 196 260 298 362
#
# _framework density 21.173787999999998
#
# number of rings (size 3 to 8) (size 9 to 14) (size 15 to 20)
#    0.000    2.333    1.667    0.500    0.000    2.000 
#    9.000   15.833    0.000    0.000    0.000    0.000 
#    0.000    0.000    0.000    0.000    0.000    0.000 
#
# Total GULP energy -133739.138618 kJ/mol
# GULP energy per Si atom -5572.464109 kJ/mol
# Density = 2.112560 g / cm^3
# Si number density = 21.173788 Si / 1000 Ang^3
#
#
#
# Elastic Constant Matrix: (Units=GPa)
#
#
# Indices 1 2 3 4 5 6 
#
# 1 49.6852 40.1941 12.0657 0.0000 -5.9301 0.0000
# 2 40.1941 160.8853 59.0167 0.0000 5.6942 0.0000
# 3 12.0657 59.0167 104.2919 0.0000 -1.1186 0.0000
# 4 0.0000 0.0000 0.0000 24.0423 0.0000 -7.2952
# 5 -5.9301 5.6942 -1.1186 0.0000 23.3115 0.0000
# 6 0.0000 0.0000 0.0000 -7.2952 0.0000 32.4676
#
#
#
# Elastic Compliance Matrix: (Units=1/GPa)
#
#
# Indices 1 2 3 4 5 6 
#
# 1 0.026927 -0.007481 0.001212 0.000000 0.008735 0.000000
# 2 -0.007481 0.010029 -0.004859 0.000000 -0.004586 0.000000
# 3 0.001212 -0.004859 0.012220 0.000000 0.002082 0.000000
# 4 0.000000 0.000000 0.000000 0.044636 0.000000 0.010029
# 5 0.008735 -0.004586 0.002082 0.000000 0.046339 0.000000
# 6 0.000000 0.000000 0.000000 0.010029 0.000000 0.033053
#
#
# Mechanical properties :
#
#
# Convention : Reuss Voigt Hill
#
# Bulk Modulus (GPa) = 37.14708 59.71282 48.42995
# Shear Modulus (GPa) = 24.45761 29.53670 26.99715
#
# Velocity S-wave (km/s) = 3.40235 3.73898 3.57463
# Velocity P-wave (km/s) = 5.74601 6.84854 6.32135
#
# Compressibility (1/GPa) = 0.02692002
#
# Stress axis : x y z
#
# Youngs Moduli (GPa) = 37.13772 99.70808 81.83124
#
# Poissons Ratio (x) = 0.74589 -0.09916
# Poissons Ratio (y) = 0.27782 0.39763
# Poissons Ratio (z) = -0.04500 0.48449
#
# Static dielectric constant tensor:
#      x y z
#    x 1.957130 0.000000 -0.083160 
#    y 0.000000 1.822350 0.000000 
#    z -0.083160 0.000000 1.826700 
# 
# From -- ./inp_files/144047.got.cif
#   From: 2010.05.17/outbox.cif.g08.bks.cpg/sg15_73_cif.got.tgz:144047.got - 2010.06.03 18:47:42.
