data_PCOD9272998
_publ_section_title
;
Structure prediction by ZEFSAII (Michael W. Deem and Ramdas Pophale) SiO2 
 PCOD9272998
Probable space group: C 2/C
;
_chemical_formula_sum "Si O2"
_cell_formula_units_Z 52
_cell_length_a 17.525826
_cell_length_b 21.958116
_cell_length_c 7.378525
_cell_angle_alpha 90.000000
_cell_angle_beta 45.856230
_cell_angle_gamma 90.000000
_cell_volume 2037.615335
_symmetry_space_group_name_H-M "C 2/C"
_symmetry_group_IT_number 15
_symmetry_cell_setting 'monoclinic'
loop_
_space_group_symop_operation_xyz
x,y,z
-x,y,1/2-z
-x,-y,-z
x,-y,1/2+z
1/2+x,1/2+y,z
1/2-x,1/2+y,1/2-z
1/2-x,1/2-y,-z
1/2+x,1/2-y,1/2+z
loop_
_atom_site_type_symbol
_atom_site_label
_atom_site_fract_x
_atom_site_fract_y
_atom_site_fract_z
Si Si1 0.982867 0.160028 0.057916
Si Si2 0.500000 0.814284 0.250000
Si Si3 0.924055 0.575438 0.652246
Si Si4 0.855404 0.056872 0.716018
Si Si5 0.808371 0.074738 0.370808
Si Si6 0.632954 0.910422 0.666115
Si Si7 0.869428 0.730746 0.255178
O O1 0.861401 0.138582 0.220756
O O2 0.000000 0.166146 0.250000
O O3 0.050150 0.101008 0.887912
O O4 0.039380 0.217638 0.867967
O O5 0.551667 0.856038 0.319298
O O6 0.397307 0.780589 0.498155
O O7 0.892444 0.570057 0.495814
O O8 0.049337 0.555989 0.437887
O O9 0.817583 0.561162 0.940757
O O10 0.828310 0.074526 0.554233
O O11 0.869020 0.984789 0.698591
O O12 0.753590 0.073013 0.008334
O O13 0.620434 0.837191 0.680647
O O14 0.750000 0.750000 0.500000
#
# Coordination Sequence:
#
# PCOD9272998 Si02
#       7
#     8   4   8   8   8   8   8
#     4  10  20  38  62  90 123 162 204 245 314 369
#     4  10  22  38  64  88 122 158 208 258 300 384
#     4   9  20  39  58  89 124 157 203 259 312 366
#     4  10  20  37  62  85 120 164 200 254 303 367
#     4  10  22  38  62  86 123 162 203 255 309 369
#     4   9  19  37  61  88 124 158 204 253 313 371
#     4  11  20  37  65  91 122 166 205 250 312 373
#
# _framework density 25.520026999999999
#
# number of rings (size 3 to 8) (size 9 to 14) (size 15 to 20)
#    0.000    2.154    2.308    0.462    0.000    3.077 
#    0.000   11.538    0.000    0.000    0.000    0.000 
#    0.000    0.000    0.000    0.000    0.000    0.000 
#
# Total GULP energy -144846.724298 kJ/mol
# GULP energy per Si atom -5571.027858 kJ/mol
# Density = 2.546194 g / cm^3
# Si number density = 25.520027 Si / 1000 Ang^3
#
#
#
# Elastic Constant Matrix: (Units=GPa)
#
#
# Indices 1 2 3 4 5 6 
#
# 1 53.8260 16.1822 33.5712 0.0000 -5.6409 0.0000
# 2 16.1822 135.6276 46.2683 0.0000 -12.9066 0.0000
# 3 33.5712 46.2683 144.1183 0.0000 -21.2304 0.0000
# 4 0.0000 0.0000 0.0000 159.2700 0.0000 21.9154
# 5 -5.6409 -12.9066 -21.2304 0.0000 19.6508 0.0000
# 6 0.0000 0.0000 0.0000 21.9154 0.0000 29.5934
#
#
#
# Elastic Compliance Matrix: (Units=1/GPa)
#
#
# Indices 1 2 3 4 5 6 
#
# 1 0.021856 -0.000949 -0.004703 0.000000 0.000570 0.000000
# 2 -0.000949 0.008478 -0.002046 0.000000 0.003085 0.000000
# 3 -0.004703 -0.002046 0.009864 0.000000 0.007963 0.000000
# 4 0.000000 0.000000 0.000000 0.006991 0.000000 -0.005177
# 5 0.000570 0.003085 0.007963 0.000000 0.061682 0.000000
# 6 0.000000 0.000000 0.000000 -0.005177 0.000000 0.037625
#
#
# Mechanical properties :
#
#
# Convention : Reuss Voigt Hill
#
# Bulk Modulus (GPa) = 40.31843 58.40170 49.36006
# Shear Modulus (GPa) = 29.38401 57.53951 43.46176
#
# Velocity S-wave (km/s) = 3.39692 4.75350 4.13127
# Velocity P-wave (km/s) = 5.58735 7.28437 6.49155
#
# Compressibility (1/GPa) = 0.02480256
#
# Stress axis : x y z
#
# Youngs Moduli (GPa) = 45.75306 117.95189 101.37692
#
# Poissons Ratio (x) = 0.11197 0.47673
# Poissons Ratio (y) = 0.04343 0.20744
# Poissons Ratio (z) = 0.21516 0.24135
#
# Static dielectric constant tensor:
#      x y z
#    x 1.988830 0.000000 -0.015260 
#    y 0.000000 2.089580 0.000000 
#    z -0.015260 0.000000 2.094290 
# 
# From -- ./inp_files/58590.got.cif
#   From: 2010.05.17/outbox.cif.g08.bks.cpg/sg15_30_cif.got.tgz:58590.got - 2010.06.03 18:47:42.
