data_PCOD9272707
_publ_section_title
;
Structure prediction by ZEFSAII (Michael W. Deem and Ramdas Pophale) SiO2 
 PCOD9272707
Probable space group: C 2/C
;
_chemical_formula_sum "Si O2"
_cell_formula_units_Z 48
_cell_length_a 12.192465
_cell_length_b 10.789619
_cell_length_c 18.328624
_cell_angle_alpha 90.000000
_cell_angle_beta 48.847143
_cell_angle_gamma 90.000000
_cell_volume 1815.504991
_symmetry_space_group_name_H-M "C 2/C"
_symmetry_group_IT_number 15
_symmetry_cell_setting 'monoclinic'
loop_
_space_group_symop_operation_xyz
x,y,z
-x,y,1/2-z
-x,-y,-z
x,-y,1/2+z
1/2+x,1/2+y,z
1/2-x,1/2+y,1/2-z
1/2-x,1/2-y,-z
1/2+x,1/2-y,1/2+z
loop_
_atom_site_type_symbol
_atom_site_label
_atom_site_fract_x
_atom_site_fract_y
_atom_site_fract_z
Si Si1 0.439567 0.150566 0.656520
Si Si2 0.809857 0.055276 0.084970
Si Si3 0.469932 0.191179 0.491241
Si Si4 0.000000 0.553792 0.250000
Si Si5 0.819000 0.962197 0.416678
Si Si6 0.879903 0.152460 0.676293
Si Si7 0.000000 0.856397 0.750000
O O1 0.525521 0.139158 0.543485
O O2 0.475747 0.036151 0.691906
O O3 0.267583 0.154403 0.713402
O O4 0.467703 0.270204 0.694371
O O5 0.918779 0.169514 0.034016
O O6 0.652577 0.116502 0.168732
O O7 0.844671 0.955808 0.132054
O O8 0.811719 0.991322 0.004359
O O9 0.327716 0.116565 0.528668
O O10 0.589945 0.216950 0.377441
O O11 0.967893 0.879693 0.352508
O O12 0.861992 0.062326 0.336745
#
# Coordination Sequence:
#
# PCOD9272707 Si02
#       7
#     8   8   8   4   8   8   4
#     4  10  22  39  58  81 110 146 187 230 277 327
#     4  10  20  37  60  83 112 149 184 227 277 329
#     4  11  22  36  57  84 115 147 182 229 277 330
#     4   9  22  39  58  82 110 143 188 231 274 328
#     4  11  22  37  56  85 115 146 185 228 276 331
#     4  10  20  38  59  83 112 147 187 228 275 329
#     4  11  22  39  58  80 110 149 186 229 278 330
#
# _framework density 26.438925999999999
#
# number of rings (size 3 to 8) (size 9 to 14) (size 15 to 20)
#    0.000    1.667    0.000    7.000    0.000    6.000 
#    0.000    6.667    0.000    0.000    0.000    0.000 
#    0.000    0.000    0.000    0.000    0.000    0.000 
#
# Total GULP energy -134414.735041 kJ/mol
# GULP energy per Si atom -5600.613960 kJ/mol
# Density = 2.637875 g / cm^3
# Si number density = 26.438926 Si / 1000 Ang^3
#
#
#
# Elastic Constant Matrix: (Units=GPa)
#
#
# Indices 1 2 3 4 5 6 
#
# 1 82.9156 35.8549 3.0163 0.0000 6.2154 0.0000
# 2 35.8549 74.5082 13.3302 0.0000 1.7083 0.0000
# 3 3.0163 13.3302 79.5801 0.0000 -4.7177 0.0000
# 4 0.0000 0.0000 0.0000 -131.6071 0.0000 32.7754
# 5 6.2154 1.7083 -4.7177 0.0000 51.4733 0.0000
# 6 0.0000 0.0000 0.0000 32.7754 0.0000 31.1623
#
#
#
# Elastic Compliance Matrix: (Units=1/GPa)
#
#
# Indices 1 2 3 4 5 6 
#
# 1 0.015387 -0.007472 0.000576 0.000000 -0.001557 0.000000
# 2 -0.007472 0.017488 -0.002641 0.000000 0.000080 0.000000
# 3 0.000576 -0.002641 0.013059 0.000000 0.001215 0.000000
# 4 0.000000 0.000000 0.000000 -0.006021 0.000000 0.006333
# 5 -0.001557 0.000080 0.001215 0.000000 0.019724 0.000000
# 6 0.000000 0.000000 0.000000 0.006333 0.000000 0.025429
#
#
# Mechanical properties :
#
#
# Convention : Reuss Voigt Hill
#
# Bulk Modulus (GPa) = 37.23145 37.93405 37.58275
# Shear Modulus (GPa) = 44.21106 2.52588 23.36847
#
# Velocity S-wave (km/s) = 4.09369 0.97849 2.97621
# Velocity P-wave (km/s) = 6.03796 3.95671 5.10453
#
# Compressibility (1/GPa) = 0.02685901
#
# Stress axis : x y z
#
# Youngs Moduli (GPa) = 64.98841 57.18275 76.57791
#
# Poissons Ratio (x) = 0.42727 -0.04412
# Poissons Ratio (y) = 0.48560 0.20227
# Poissons Ratio (z) = -0.03744 0.15104
#
# Static dielectric constant tensor:
#      x y z
#    x 2.104270 0.000000 0.040190 
#    y 0.000000 2.076870 0.000000 
#    z 0.040190 0.000000 2.110750 
# 
# From -- ./inp_files/152058.got.cif
#   From: 2010.05.17/outbox.cif.g08.bks.cpg/sg15_77_cif.got.tgz:152058.got - 2010.06.03 18:47:42.
