data_PCOD9272912
_publ_section_title
;
Structure prediction by ZEFSAII (Michael W. Deem and Ramdas Pophale) SiO2 
 PCOD9272912
Probable space group: C 2/C
;
_chemical_formula_sum "Si O2"
_cell_formula_units_Z 52
_cell_length_a 8.198786
_cell_length_b 15.771777
_cell_length_c 27.898622
_cell_angle_alpha 90.000000
_cell_angle_beta 47.725673
_cell_angle_gamma 90.000000
_cell_volume 2669.347308
_symmetry_space_group_name_H-M "C 2/C"
_symmetry_group_IT_number 15
_symmetry_cell_setting 'monoclinic'
loop_
_space_group_symop_operation_xyz
x,y,z
-x,y,1/2-z
-x,-y,-z
x,-y,1/2+z
1/2+x,1/2+y,z
1/2-x,1/2+y,1/2-z
1/2-x,1/2-y,-z
1/2+x,1/2-y,1/2+z
loop_
_atom_site_type_symbol
_atom_site_label
_atom_site_fract_x
_atom_site_fract_y
_atom_site_fract_z
Si Si1 0.193853 0.155890 0.883103
Si Si2 0.431080 0.834044 0.709508
Si Si3 0.500000 0.737950 0.250000
Si Si4 0.578045 0.338575 0.512521
Si Si5 0.792692 0.474353 0.900787
Si Si6 0.796570 0.199735 0.895934
Si Si7 0.965296 0.438953 0.462146
O O1 0.369132 0.203613 0.814536
O O2 0.953997 0.182851 0.910405
O O3 0.234204 0.054256 0.878035
O O4 0.195216 0.180875 0.938774
O O5 0.500000 0.853590 0.750000
O O6 0.178297 0.818253 0.744101
O O7 0.539013 0.908371 0.656508
O O8 0.549779 0.744950 0.673146
O O9 0.421698 0.420904 0.542139
O O10 0.406083 0.264557 0.557338
O O11 0.771945 0.369126 0.509591
O O12 0.893413 0.509911 0.929717
O O13 0.687139 0.110907 0.905599
O O14 0.000000 0.500000 0.500000
#
# Coordination Sequence:
#
# PCOD9272912 Si02
#       7
#     8   8   4   8   8   8   8
#     4  10  20  38  65  85 126 156 203 254 310 372
#     4  10  24  45  63  85 127 164 216 258 306 376
#     4  10  24  42  62  92 116 170 212 250 316 378
#     4  10  20  37  61  88 125 162 197 253 315 373
#     4  10  22  40  60  90 124 162 204 255 318 372
#     4  10  21  38  60  95 115 162 204 254 314 369
#     4  11  21  35  59  95 129 154 205 257 318 377
#
# _framework density 19.480416000000002
#
# number of rings (size 3 to 8) (size 9 to 14) (size 15 to 20)
#    0.000    1.846    0.000    4.615    5.385    2.462 
#    8.308    0.000    0.000    0.000    0.000    0.000 
#    0.000    0.000    0.000    0.000    0.000    0.000 
#
# Total GULP energy -144955.306542 kJ/mol
# GULP energy per Si atom -5575.204098 kJ/mol
# Density = 1.943608 g / cm^3
# Si number density = 19.480416 Si / 1000 Ang^3
#
#
#
# Elastic Constant Matrix: (Units=GPa)
#
#
# Indices 1 2 3 4 5 6 
#
# 1 126.8522 54.1073 46.1147 -0.0002 -10.0531 0.0002
# 2 54.1073 85.4510 29.5123 -0.0005 -8.2620 0.0002
# 3 46.1147 29.5123 74.0345 -0.0017 -7.4111 0.0012
# 4 -0.0002 -0.0005 -0.0017 30.2652 0.0006 -7.7329
# 5 -10.0531 -8.2620 -7.4111 0.0006 26.2249 -0.0004
# 6 0.0002 0.0002 0.0012 -7.7329 -0.0004 35.0829
#
#
#
# Elastic Compliance Matrix: (Units=1/GPa)
#
#
# Indices 1 2 3 4 5 6 
#
# 1 0.012425 -0.005922 -0.005237 0.000000 0.001418 0.000000
# 2 -0.005922 0.016600 -0.002709 0.000000 0.002194 0.000000
# 3 -0.005237 -0.002709 0.018074 0.000001 0.002247 0.000000
# 4 0.000000 0.000000 0.000001 0.035013 -0.000001 0.007718
# 5 0.001418 0.002194 0.002247 -0.000001 0.040001 0.000000
# 6 0.000000 0.000000 0.000000 0.007718 0.000000 0.030205
#
#
# Mechanical properties :
#
#
# Convention : Reuss Voigt Hill
#
# Bulk Modulus (GPa) = 51.64301 60.64514 56.14408
# Shear Modulus (GPa) = 26.80838 28.75482 27.78160
#
# Velocity S-wave (km/s) = 3.71370 3.84616 3.78051
# Velocity P-wave (km/s) = 6.70496 7.13602 6.92385
#
# Compressibility (1/GPa) = 0.01936370
#
# Stress axis : x y z
#
# Youngs Moduli (GPa) = 80.48149 60.24067 55.32811
#
# Poissons Ratio (x) = 0.35674 0.28975
# Poissons Ratio (y) = 0.47660 0.14988
# Poissons Ratio (z) = 0.42147 0.16319
#
# Static dielectric constant tensor:
#      x y z
#    x 1.709210 0.000000 -0.014850 
#    y 0.000000 1.715170 0.000000 
#    z -0.014850 0.000000 1.676010 
# 
# From -- ./inp_files/231273.got.cif
#   From: 2010.05.17/outbox.cif.g08.bks.cpg/sg15_116_cif.got.tgz:231273.got - 2010.06.03 18:47:42.
