data_PCOD9272084
_publ_section_title
;
Structure prediction by ZEFSAII (Michael W. Deem and Ramdas Pophale) SiO2 
 PCOD9272084
Probable space group: C 2/C
;
_chemical_formula_sum "Si O2"
_cell_formula_units_Z 56
_cell_length_a 11.614161
_cell_length_b 25.794796
_cell_length_c 9.381636
_cell_angle_alpha 90.000000
_cell_angle_beta 114.873205
_cell_angle_gamma 90.000000
_cell_volume 2549.887966
_symmetry_space_group_name_H-M "C 2/C"
_symmetry_group_IT_number 15
_symmetry_cell_setting 'monoclinic'
loop_
_space_group_symop_operation_xyz
x,y,z
-x,y,1/2-z
-x,-y,-z
x,-y,1/2+z
1/2+x,1/2+y,z
1/2-x,1/2+y,1/2-z
1/2-x,1/2-y,-z
1/2+x,1/2-y,1/2+z
loop_
_atom_site_type_symbol
_atom_site_label
_atom_site_fract_x
_atom_site_fract_y
_atom_site_fract_z
Si Si1 0.233934 0.946307 0.574599
Si Si2 0.994474 0.879879 0.079463
Si Si3 0.417371 0.948526 0.915019
Si Si4 0.778644 0.938608 0.445016
Si Si5 0.349377 0.105361 0.877021
Si Si6 0.955033 0.242174 0.882646
Si Si7 0.798380 0.275623 0.375706
O O1 0.365167 0.947317 0.728520
O O2 0.270123 0.934852 0.431027
O O3 0.135383 0.900930 0.556419
O O4 0.178035 0.003071 0.568162
O O5 0.106085 0.902138 0.038964
O O6 0.008531 0.818422 0.092378
O O7 0.000000 0.897584 0.250000
O O8 0.287183 0.943284 0.936681
O O9 0.507424 0.899958 0.995695
O O10 0.500000 0.000000 0.000000
O O11 0.664968 0.916460 0.288101
O O12 0.289791 0.161939 0.868517
O O13 0.801530 0.245299 0.794922
O O14 0.000000 0.262683 0.750000
O O15 0.049979 0.265800 0.049512
O O16 0.750000 0.250000 0.500000
#
# Coordination Sequence:
#
# PCOD9272084 Si02
#       7
#     8   8   8   8   8   8   8
#     4  12  23  39  64  93 133 182 226 274 325 403
#     4  11  22  41  65  98 134 175 228 281 339 403
#     4  12  26  41  61  96 140 180 229 275 326 404
#     4  12  23  42  65  91 138 184 219 275 341 396
#     4  12  23  41  68  98 133 179 224 280 342 394
#     4   9  18  35  60  94 132 159 214 289 340 395
#     4  10  20  36  64 100 129 164 222 291 346 395
#
# _framework density 21.961748
#
# number of rings (size 3 to 8) (size 9 to 14) (size 15 to 20)
#    0.000    0.857    5.714    3.000    0.000    5.143 
#    0.000    0.000    0.000    0.857    7.429    0.000 
#    0.000    0.000    0.000    0.000    0.000    0.000 
#
# Total GULP energy -156109.460927 kJ/mol
# GULP energy per Si atom -5575.337890 kJ/mol
# Density = 2.191176 g / cm^3
# Si number density = 21.961748 Si / 1000 Ang^3
#
#
#
# Elastic Constant Matrix: (Units=GPa)
#
#
# Indices 1 2 3 4 5 6 
#
# 1 68.5435 5.8044 13.1817 0.0000 17.2733 0.0000
# 2 5.8044 63.9944 23.3693 0.0000 3.6153 0.0000
# 3 13.1817 23.3693 54.5599 0.0000 23.7850 0.0000
# 4 0.0000 0.0000 0.0000 24.5107 0.0000 10.2522
# 5 17.2733 3.6153 23.7850 0.0000 44.7544 0.0000
# 6 0.0000 0.0000 0.0000 10.2522 0.0000 32.0080
#
#
#
# Elastic Compliance Matrix: (Units=1/GPa)
#
#
# Indices 1 2 3 4 5 6 
#
# 1 0.016290 -0.000730 -0.001182 0.000000 -0.005600 0.000000
# 2 -0.000730 0.018998 -0.009651 0.000000 0.003876 0.000000
# 3 -0.001182 -0.009651 0.028906 0.000000 -0.014127 0.000000
# 4 0.000000 0.000000 0.000000 0.047110 0.000000 -0.015089
# 5 -0.005600 0.003876 -0.014127 0.000000 0.031700 0.000000
# 6 0.000000 0.000000 0.000000 -0.015089 0.000000 0.036075
#
#
# Mechanical properties :
#
#
# Convention : Reuss Voigt Hill
#
# Bulk Modulus (GPa) = 24.34897 30.20095 27.27496
# Shear Modulus (GPa) = 23.15972 29.90412 26.53192
#
# Velocity S-wave (km/s) = 3.25090 3.69405 3.47954
# Velocity P-wave (km/s) = 5.02018 5.65475 5.34689
#
# Compressibility (1/GPa) = 0.04106950
#
# Stress axis : x y z
#
# Youngs Moduli (GPa) = 61.38902 52.63782 34.59499
#
# Poissons Ratio (x) = 0.03840 0.04088
# Poissons Ratio (y) = 0.04479 0.33386
# Poissons Ratio (z) = 0.07255 0.50798
#
# Static dielectric constant tensor:
#      x y z
#    x 1.895490 0.000000 0.059160 
#    y 0.000000 1.784560 0.000000 
#    z 0.059160 0.000000 1.810330 
# 
# From -- ./inp_files/34349.got.cif
#   From: 2010.05.17/outbox.cif.g08.bks.cpg/sg15_18_cif.got.tgz:34349.got - 2010.06.03 18:47:42.
