data_PCOD9272724
_publ_section_title
;
Structure prediction by ZEFSAII (Michael W. Deem and Ramdas Pophale) SiO2 
 PCOD9272724
Probable space group: C 2/C
;
_chemical_formula_sum "Si O2"
_cell_formula_units_Z 48
_cell_length_a 20.987506
_cell_length_b 26.234745
_cell_length_c 12.371368
_cell_angle_alpha 90.000000
_cell_angle_beta 161.038005
_cell_angle_gamma 90.000000
_cell_volume 2213.399446
_symmetry_space_group_name_H-M "C 2/C"
_symmetry_group_IT_number 15
_symmetry_cell_setting 'monoclinic'
loop_
_space_group_symop_operation_xyz
x,y,z
-x,y,1/2-z
-x,-y,-z
x,-y,1/2+z
1/2+x,1/2+y,z
1/2-x,1/2+y,1/2-z
1/2-x,1/2-y,-z
1/2+x,1/2-y,1/2+z
loop_
_atom_site_type_symbol
_atom_site_label
_atom_site_fract_x
_atom_site_fract_y
_atom_site_fract_z
Si Si1 0.500000 0.643257 0.250000
Si Si2 0.500000 0.468543 0.250000
Si Si3 0.134428 0.673382 0.191833
Si Si4 0.361925 0.927412 0.689905
Si Si5 0.277192 0.554339 0.776431
Si Si6 0.000000 0.765287 0.250000
Si Si7 0.299276 0.768798 0.221137
Si Si8 0.000000 0.679124 0.750000
O O1 0.601474 0.604892 0.496634
O O2 0.666553 0.682730 0.479401
O O3 0.687257 0.439998 0.495710
O O4 0.588985 0.505662 0.484334
O O5 0.090533 0.631751 0.211059
O O6 0.347318 0.695379 0.557156
O O7 0.999028 0.723455 0.978359
O O8 0.080145 0.650863 0.985700
O O9 0.281994 0.939742 0.442716
O O10 0.581801 0.951359 0.038728
O O11 0.125409 0.732589 0.534680
O O12 0.181516 0.717043 0.015490
#
# Coordination Sequence:
#
# PCOD9272724 Si02
#       8
#     4   4   8   8   8   4   8   4
#     4  10  20  38  61  90 118 162 211 266 298 364
#     4  11  23  45  66  98 130 162 200 261 333 389
#     4  11  21  40  57  90 125 164 211 264 310 371
#     4  11  23  42  69  97 125 166 208 262 318 381
#     4  10  23  43  67  95 126 160 214 260 315 386
#     4  10  23  36  57  90 124 168 211 262 315 360
#     4  10  20  37  60  84 120 168 215 250 309 360
#     4   9  22  39  56  88 128 166 212 257 314 357
#
# _framework density 21.686098999999999
#
# number of rings (size 3 to 8) (size 9 to 14) (size 15 to 20)
#    0.000    1.667    1.667    2.500    2.333    0.000 
#   12.000    3.333    0.000    0.000    0.000    0.000 
#    0.000    0.000    0.000    0.000    0.000    0.000 
#
# Total GULP energy -133691.577485 kJ/mol
# GULP energy per Si atom -5570.482395 kJ/mol
# Density = 2.163674 g / cm^3
# Si number density = 21.686099 Si / 1000 Ang^3
#
#
#
# Elastic Constant Matrix: (Units=GPa)
#
#
# Indices 1 2 3 4 5 6 
#
# 1 58.0777 12.5253 19.9505 -0.0003 4.5010 -0.0001
# 2 12.5253 33.1184 25.0548 -0.0007 -5.6533 -0.0001
# 3 19.9505 25.0548 108.0849 0.0013 9.2045 0.0001
# 4 -0.0003 -0.0007 0.0013 757.4143 -0.0001 112.5265
# 5 4.5010 -5.6533 9.2045 -0.0001 39.7628 0.0000
# 6 -0.0001 -0.0001 0.0001 112.5265 0.0000 30.8320
#
#
#
# Elastic Compliance Matrix: (Units=1/GPa)
#
#
# Indices 1 2 3 4 5 6 
#
# 1 0.019450 -0.006389 -0.001881 0.000000 -0.002675 0.000000
# 2 -0.006389 0.040926 -0.009043 0.000000 0.008635 0.000000
# 3 -0.001881 -0.009043 0.012024 0.000000 -0.003856 0.000000
# 4 0.000000 0.000000 0.000000 0.002884 0.000000 -0.010526
# 5 -0.002675 0.008635 -0.003856 0.000000 0.027572 0.000000
# 6 0.000000 0.000000 0.000000 -0.010526 0.000000 0.070850
#
#
# Mechanical properties :
#
#
# Convention : Reuss Voigt Hill
#
# Bulk Modulus (GPa) = 26.47391 34.92690 30.70040
# Shear Modulus (GPa) = 22.63219 175.05186 98.84203
#
# Velocity S-wave (km/s) = 3.23403 8.99422 6.75851
# Velocity P-wave (km/s) = 5.11659 11.13562 8.66549
#
# Compressibility (1/GPa) = 0.03777304
#
# Stress axis : x y z
#
# Youngs Moduli (GPa) = 51.41457 24.43407 83.16795
#
# Poissons Ratio (x) = 0.15611 0.15646
# Poissons Ratio (y) = 0.32850 0.75209
# Poissons Ratio (z) = 0.09672 0.22096
#
# Static dielectric constant tensor:
#      x y z
#    x 1.911570 0.000000 0.004540 
#    y 0.000000 1.748740 0.000000 
#    z 0.004540 0.000000 1.818300 
# 
# From -- ./inp_files/115060.got.cif
#   From: 2010.05.17/outbox.cif.g08.bks.cpg/sg15_58_cif.got.tgz:115060.got - 2010.06.03 18:47:42.
