data_PCOD9272732
_publ_section_title
;
Structure prediction by ZEFSAII (Michael W. Deem and Ramdas Pophale) SiO2 
 PCOD9272732
Probable space group: C 2/C
;
_chemical_formula_sum "Si O2"
_cell_formula_units_Z 40
_cell_length_a 8.497113
_cell_length_b 19.465795
_cell_length_c 12.243707
_cell_angle_alpha 90.000000
_cell_angle_beta 128.687496
_cell_angle_gamma 90.000000
_cell_volume 1580.762281
_symmetry_space_group_name_H-M "C 2/C"
_symmetry_group_IT_number 15
_symmetry_cell_setting 'monoclinic'
loop_
_space_group_symop_operation_xyz
x,y,z
-x,y,1/2-z
-x,-y,-z
x,-y,1/2+z
1/2+x,1/2+y,z
1/2-x,1/2+y,1/2-z
1/2-x,1/2-y,-z
1/2+x,1/2-y,1/2+z
loop_
_atom_site_type_symbol
_atom_site_label
_atom_site_fract_x
_atom_site_fract_y
_atom_site_fract_z
Si Si1 0.356248 0.248453 0.791222
Si Si2 0.993632 0.160294 0.614070
Si Si3 0.207929 0.456772 0.274239
Si Si4 0.337618 0.599518 0.274998
Si Si5 0.408420 0.125491 0.980258
O O1 0.500000 0.242901 0.750000
O O2 0.123561 0.230245 0.660095
O O3 0.385796 0.325704 0.847207
O O4 0.420009 0.189108 0.901459
O O5 0.000000 0.149543 0.750000
O O6 0.755842 0.147677 0.500363
O O7 0.135289 0.102228 0.623238
O O8 0.309982 0.530560 0.331234
O O9 0.158641 0.438775 0.125610
O O10 0.000000 0.452811 0.250000
O O11 0.500000 0.587455 0.250000
O O12 0.120358 0.609898 0.125239
#
# Coordination Sequence:
#
# PCOD9272732 Si02
#       5
#     8   8   8   8   8
#     4   9  19  35  56  83 110 143 185 227 270 326
#     4   8  16  34  58  77 106 145 179 218 274 333
#     4  10  20  37  60  85 112 141 185 232 272 329
#     4  11  23  37  56  83 115 147 186 230 272 328
#     4  10  20  38  60  79 111 154 181 219 286 332
#
# _framework density 25.304247
#
# number of rings (size 3 to 8) (size 9 to 14) (size 15 to 20)
#    0.000    2.800    0.000    4.800    0.000    6.400 
#    0.000    6.000    0.000    0.000    0.000    0.000 
#    0.000    0.000    0.000    0.000    0.000    0.000 
#
# Total GULP energy -111864.144878 kJ/mol
# GULP energy per Si atom -5593.207244 kJ/mol
# Density = 2.524665 g / cm^3
# Si number density = 25.304247 Si / 1000 Ang^3
#
#
#
# Elastic Constant Matrix: (Units=GPa)
#
#
# Indices 1 2 3 4 5 6 
#
# 1 219.0674 51.4405 5.4657 0.0000 34.6665 0.0000
# 2 51.4405 185.4821 9.6862 0.0000 3.2562 0.0000
# 3 5.4657 9.6862 59.1088 0.0000 25.0047 0.0000
# 4 0.0000 0.0000 0.0000 30.3314 0.0000 7.2270
# 5 34.6665 3.2562 25.0047 0.0000 42.4300 0.0000
# 6 0.0000 0.0000 0.0000 7.2270 0.0000 35.6473
#
#
#
# Elastic Compliance Matrix: (Units=1/GPa)
#
#
# Indices 1 2 3 4 5 6 
#
# 1 0.005837 -0.001632 0.002254 0.000000 -0.005972 0.000000
# 2 -0.001632 0.005895 -0.001582 0.000000 0.001813 0.000000
# 3 0.002254 -0.001582 0.023573 0.000000 -0.015612 0.000000
# 4 0.000000 0.000000 0.000000 0.034643 0.000000 -0.007023
# 5 -0.005972 0.001813 -0.015612 0.000000 0.037509 0.000000
# 6 0.000000 0.000000 0.000000 -0.007023 0.000000 0.029476
#
#
# Mechanical properties :
#
#
# Convention : Reuss Voigt Hill
#
# Bulk Modulus (GPa) = 29.95351 66.31590 48.13470
# Shear Modulus (GPa) = 33.33776 48.15281 40.74529
#
# Velocity S-wave (km/s) = 3.63364 4.36702 4.01710
# Velocity P-wave (km/s) = 5.42840 7.18972 6.37023
#
# Compressibility (1/GPa) = 0.03338507
#
# Stress axis : x y z
#
# Youngs Moduli (GPa) = 171.32964 169.64574 42.42109
#
# Poissons Ratio (x) = 0.27679 -0.09561
# Poissons Ratio (y) = 0.27954 0.06711
# Poissons Ratio (z) = -0.38616 0.26839
#
# Static dielectric constant tensor:
#      x y z
#    x 1.965410 0.000000 -0.071790 
#    y 0.000000 1.997890 0.000000 
#    z -0.071790 0.000000 2.185320 
# 
# From -- ./inp_files/190185.got.cif
#   From: 2010.05.17/outbox.cif.g08.bks.cpg/sg15_96_cif.got.tgz:190185.got - 2010.06.03 18:47:42.
