data_PCOD9272457
_publ_section_title
;
Structure prediction by ZEFSAII (Michael W. Deem and Ramdas Pophale) SiO2 
 PCOD9272457
Probable space group: C 2/C
;
_chemical_formula_sum "Si O2"
_cell_formula_units_Z 64
_cell_length_a 24.701357
_cell_length_b 23.232476
_cell_length_c 9.544041
_cell_angle_alpha 90.000000
_cell_angle_beta 41.446520
_cell_angle_gamma 90.000000
_cell_volume 3625.388539
_symmetry_space_group_name_H-M "C 2/C"
_symmetry_group_IT_number 15
_symmetry_cell_setting 'monoclinic'
loop_
_space_group_symop_operation_xyz
x,y,z
-x,y,1/2-z
-x,-y,-z
x,-y,1/2+z
1/2+x,1/2+y,z
1/2-x,1/2+y,1/2-z
1/2-x,1/2-y,-z
1/2+x,1/2-y,1/2+z
loop_
_atom_site_type_symbol
_atom_site_label
_atom_site_fract_x
_atom_site_fract_y
_atom_site_fract_z
Si Si1 0.216787 0.346428 0.557492
Si Si2 0.343772 0.432073 0.340708
Si Si3 0.905914 0.987627 0.484593
Si Si4 0.664154 0.680219 0.933136
Si Si5 0.730813 0.718508 0.261531
Si Si6 0.418197 0.787048 0.828256
Si Si7 0.455228 0.674982 0.576202
Si Si8 0.136042 0.127774 0.262346
O O1 0.251155 0.409716 0.521107
O O2 0.274105 0.328669 0.315828
O O3 0.238124 0.306221 0.648733
O O4 0.126024 0.335868 0.678325
O O5 0.356654 0.477157 0.438527
O O6 0.402239 0.376244 0.252474
O O7 0.376866 0.458570 0.132235
O O8 0.887265 0.932203 0.619253
O O9 0.000000 0.991679 0.250000
O O10 0.695542 0.740830 0.937384
O O11 0.578654 0.680119 0.016160
O O12 0.669228 0.630650 0.039239
O O13 0.650886 0.758982 0.436675
O O14 0.699483 0.664502 0.232319
O O15 0.500000 0.804561 0.750000
O O16 0.438732 0.734385 0.685699
O O17 0.549481 0.660135 0.412009
#
# Coordination Sequence:
#
# PCOD9272457 Si02
#       8
#     8   8   8   8   8   8   8   8
#     4  10  20  37  57  76 110 148 184 231 279 330
#     4  11  24  37  56  74 109 149 191 234 274 319
#     4  12  25  39  53  80 111 153 198 237 269 325
#     4  10  21  33  50  78 109 148 184 225 269 333
#     4  11  18  35  54  76 111 149 184 222 275 340
#     4  11  18  32  60  83 102 139 189 226 269 348
#     4  11  20  34  52  75 112 150 183 220 276 325
#     4  12  23  33  53  78 114 150 187 223 280 327
#
# _framework density 17.653281
#
# number of rings (size 3 to 8) (size 9 to 14) (size 15 to 20)
#    0.000    1.000    7.500    1.875    3.500    0.000 
#    0.000    0.000    0.000    0.000    0.000    0.875 
#    0.000    0.000    0.000    0.000    0.000    0.000 
#
# Total GULP energy -178438.186586 kJ/mol
# GULP energy per Si atom -5576.193331 kJ/mol
# Density = 1.761310 g / cm^3
# Si number density = 17.653281 Si / 1000 Ang^3
#
#
#
# Elastic Constant Matrix: (Units=GPa)
#
#
# Indices 1 2 3 4 5 6 
#
# 1 124.7996 29.1276 24.5958 0.0000 -2.9925 0.0000
# 2 29.1276 51.3710 19.6464 0.0000 -2.3593 0.0000
# 3 24.5958 19.6464 46.9290 0.0000 10.0894 0.0000
# 4 0.0000 0.0000 0.0000 26.0774 0.0000 3.5897
# 5 -2.9925 -2.3593 10.0894 0.0000 21.6536 0.0000
# 6 0.0000 0.0000 0.0000 3.5897 0.0000 10.1154
#
#
#
# Elastic Compliance Matrix: (Units=1/GPa)
#
#
# Indices 1 2 3 4 5 6 
#
# 1 0.009794 -0.003837 -0.004143 0.000000 0.002866 0.000000
# 2 -0.003837 0.025940 -0.010382 0.000000 0.007134 0.000000
# 3 -0.004143 -0.010382 0.031331 0.000000 -0.016303 0.000000
# 4 0.000000 0.000000 0.000000 0.040317 0.000000 -0.014307
# 5 0.002866 0.007134 -0.016303 0.000000 0.054951 0.000000
# 6 0.000000 0.000000 0.000000 -0.014307 0.000000 0.103937
#
#
# Mechanical properties :
#
#
# Convention : Reuss Voigt Hill
#
# Bulk Modulus (GPa) = 32.95856 41.09323 37.02590
# Shear Modulus (GPa) = 15.96896 21.55126 18.76011
#
# Velocity S-wave (km/s) = 3.01090 3.49780 3.26344
# Velocity P-wave (km/s) = 5.54958 6.29613 5.93461
#
# Compressibility (1/GPa) = 0.03034113
#
# Stress axis : x y z
#
# Youngs Moduli (GPa) = 102.10813 38.55038 31.91694
#
# Poissons Ratio (x) = 0.14792 0.13222
# Poissons Ratio (y) = 0.39180 0.33137
# Poissons Ratio (z) = 0.42299 0.40024
#
# Static dielectric constant tensor:
#      x y z
#    x 1.656550 0.000000 0.014970 
#    y 0.000000 1.661160 0.000000 
#    z 0.014970 0.000000 1.663300 
# 
# From -- ./inp_files/63838.got.cif
#   From: 2010.05.17/outbox.cif.g08.bks.cpg/sg15_32_cif.got.tgz:63838.got - 2010.06.03 18:47:42.
