data_PCOD9272502
_publ_section_title
;
Structure prediction by ZEFSAII (Michael W. Deem and Ramdas Pophale) SiO2 
 PCOD9272502
Probable space group: C 2/C
;
_chemical_formula_sum "Si O2"
_cell_formula_units_Z 28
_cell_length_a 19.278610
_cell_length_b 11.914976
_cell_length_c 8.182979
_cell_angle_alpha 90.000000
_cell_angle_beta 133.012536
_cell_angle_gamma 90.000000
_cell_volume 1374.419037
_symmetry_space_group_name_H-M "C 2/C"
_symmetry_group_IT_number 15
_symmetry_cell_setting 'monoclinic'
loop_
_space_group_symop_operation_xyz
x,y,z
-x,y,1/2-z
-x,-y,-z
x,-y,1/2+z
1/2+x,1/2+y,z
1/2-x,1/2+y,1/2-z
1/2-x,1/2-y,-z
1/2+x,1/2-y,1/2+z
loop_
_atom_site_type_symbol
_atom_site_label
_atom_site_fract_x
_atom_site_fract_y
_atom_site_fract_z
Si Si1 0.333174 0.857762 0.067563
Si Si2 0.387929 0.629243 0.254662
Si Si3 0.000000 0.061887 0.750000
Si Si4 0.570571 0.945779 0.982940
O O1 0.385560 0.738381 0.131957
O O2 0.351828 0.880416 0.290090
O O3 0.221258 0.867754 0.860697
O O4 0.381291 0.953694 0.038189
O O5 0.454486 0.628261 0.523114
O O6 0.420545 0.521240 0.202223
O O7 0.500000 0.879206 0.750000
O O8 0.500000 0.000000 0.000000
#
# Coordination Sequence:
#
# PCOD9272502 Si02
#       4
#     8   8   4   8
#     4  10  20  37  57  87 117 146 191 234 299 331
#     4  10  22  37  60  81 116 157 188 242 275 354
#     4  10  22  40  58  82 114 158 200 230 284 338
#     4   9  19  33  56  84 112 146 179 239 281 345
#
# _framework density 20.372243000000001
#
# number of rings (size 3 to 8) (size 9 to 14) (size 15 to 20)
#    0.000    2.286    0.000    1.714    8.000    0.000 
#    0.000    0.000    0.000   17.143    0.000    0.000 
#    0.000    0.000    0.000    0.000    0.000    0.000 
#
# Total GULP energy -77935.825013 kJ/mol
# GULP energy per Si atom -5566.844644 kJ/mol
# Density = 2.032588 g / cm^3
# Si number density = 20.372243 Si / 1000 Ang^3
#
#
#
# Elastic Constant Matrix: (Units=GPa)
#
#
# Indices 1 2 3 4 5 6 
#
# 1 57.9689 18.6538 19.3261 0.0000 12.3438 0.0000
# 2 18.6538 69.0049 27.1252 0.0000 17.3640 0.0000
# 3 19.3261 27.1252 111.5483 0.0000 14.9067 0.0000
# 4 0.0000 0.0000 0.0000 29.3609 0.0000 6.9537
# 5 12.3438 17.3640 14.9067 0.0000 28.9626 0.0000
# 6 0.0000 0.0000 0.0000 6.9537 0.0000 19.3069
#
#
#
# Elastic Compliance Matrix: (Units=1/GPa)
#
#
# Indices 1 2 3 4 5 6 
#
# 1 0.020148 -0.003266 -0.001944 0.000000 -0.005628 0.000000
# 2 -0.003266 0.018577 -0.002845 0.000000 -0.008281 0.000000
# 3 -0.001944 -0.002845 0.010368 0.000000 -0.002802 0.000000
# 4 0.000000 0.000000 0.000000 0.037235 0.000000 -0.013411
# 5 -0.005628 -0.008281 -0.002802 0.000000 0.043333 0.000000
# 6 0.000000 0.000000 0.000000 -0.013411 0.000000 0.056625
#
#
# Mechanical properties :
#
#
# Convention : Reuss Voigt Hill
#
# Bulk Modulus (GPa) = 30.31918 40.97025 35.64471
# Shear Modulus (GPa) = 23.43120 27.08722 25.25921
#
# Velocity S-wave (km/s) = 3.39507 3.65034 3.52502
# Velocity P-wave (km/s) = 5.50305 6.15802 5.83972
#
# Compressibility (1/GPa) = 0.03298242
#
# Stress axis : x y z
#
# Youngs Moduli (GPa) = 49.63193 53.83087 96.45243
#
# Poissons Ratio (x) = 0.17581 0.18755
# Poissons Ratio (y) = 0.16210 0.27439
# Poissons Ratio (z) = 0.09651 0.15314
#
# Static dielectric constant tensor:
#      x y z
#    x 1.698840 0.000000 -0.007990 
#    y 0.000000 1.789950 0.000000 
#    z -0.007990 0.000000 1.794530 
# 
# From -- ./inp_files/27369.got.cif
#   From: 2010.05.17/outbox.cif.g08.bks.cpg/sg15_14_cif.got.tgz:27369.got - 2010.06.03 18:47:42.
