data_PCOD9272384
_publ_section_title
;
Structure prediction by ZEFSAII (Michael W. Deem and Ramdas Pophale) SiO2 
 PCOD9272384
Probable space group: C 2/C
;
_chemical_formula_sum "Si O2"
_cell_formula_units_Z 44
_cell_length_a 5.409755
_cell_length_b 28.568851
_cell_length_c 15.083409
_cell_angle_alpha 90.000000
_cell_angle_beta 118.363277
_cell_angle_gamma 90.000000
_cell_volume 2051.301379
_symmetry_space_group_name_H-M "C 2/C"
_symmetry_group_IT_number 15
_symmetry_cell_setting 'monoclinic'
loop_
_space_group_symop_operation_xyz
x,y,z
-x,y,1/2-z
-x,-y,-z
x,-y,1/2+z
1/2+x,1/2+y,z
1/2-x,1/2+y,1/2-z
1/2-x,1/2-y,-z
1/2+x,1/2-y,1/2+z
loop_
_atom_site_type_symbol
_atom_site_label
_atom_site_fract_x
_atom_site_fract_y
_atom_site_fract_z
Si Si1 0.926156 0.805267 0.363881
Si Si2 0.710283 0.666220 0.166912
Si Si3 0.366652 0.051651 0.473000
Si Si4 0.500000 0.584288 0.250000
Si Si5 0.434672 0.233930 0.863593
Si Si6 0.429714 0.393328 0.025944
O O1 0.744432 0.788025 0.248902
O O2 0.736755 0.789710 0.414405
O O3 0.229483 0.780725 0.408577
O O4 0.945591 0.861311 0.374660
O O5 0.677803 0.620872 0.222822
O O6 0.513686 0.711065 0.143139
O O7 0.000000 0.687826 0.250000
O O8 0.676080 0.644630 0.064521
O O9 0.187106 0.055884 0.351300
O O10 0.646129 0.082781 0.511875
O O11 0.155048 0.071944 0.514409
O O12 0.500000 0.000000 0.500000
#
# Coordination Sequence:
#
# PCOD9272384 Si02
#       6
#     8   8   8   4   8   8
#     4  10  20  37  54  86 121 164 202 240 296 340
#     4  11  20  37  60  88 120 163 211 244 297 340
#     4  11  24  44  66  93 119 151 203 260 318 375
#     4  10  22  40  66  88 124 154 200 258 314 360
#     4  10  21  35  58  82 130 172 205 241 275 356
#     4  11  24  39  65  91 123 156 201 259 302 362
#
# _framework density 21.449798000000001
#
# number of rings (size 3 to 8) (size 9 to 14) (size 15 to 20)
#    0.000    1.455    3.636    2.727    0.000    1.455 
#    0.000    5.455    0.000    0.000    0.000    0.000 
#    0.000    0.000    0.000    0.000    0.000    0.000 
#
# Total GULP energy -122609.969633 kJ/mol
# GULP energy per Si atom -5573.180438 kJ/mol
# Density = 2.140098 g / cm^3
# Si number density = 21.449798 Si / 1000 Ang^3
#
#
#
# Elastic Constant Matrix: (Units=GPa)
#
#
# Indices 1 2 3 4 5 6 
#
# 1 149.9154 19.2146 6.8480 0.0000 12.1625 0.0000
# 2 19.2146 101.9317 37.3259 0.0000 13.8845 0.0000
# 3 6.8480 37.3259 69.5658 0.0000 -0.8867 0.0000
# 4 0.0000 0.0000 0.0000 81.5845 0.0000 78.9586
# 5 12.1625 13.8845 -0.8867 0.0000 19.0930 0.0000
# 6 0.0000 0.0000 0.0000 78.9586 0.0000 120.0386
#
#
#
# Elastic Compliance Matrix: (Units=1/GPa)
#
#
# Indices 1 2 3 4 5 6 
#
# 1 0.007102 -0.000631 -0.000412 0.000000 -0.004084 0.000000
# 2 -0.000631 0.014121 -0.007645 0.000000 -0.010222 0.000000
# 3 -0.000412 -0.007645 0.018603 0.000000 0.006686 0.000000
# 4 0.000000 0.000000 0.000000 0.033730 0.000000 -0.022187
# 5 -0.004084 -0.010222 0.006686 0.000000 0.062720 0.000000
# 6 0.000000 0.000000 0.000000 -0.022187 0.000000 0.022925
#
#
# Mechanical properties :
#
#
# Convention : Reuss Voigt Hill
#
# Bulk Modulus (GPa) = 44.54741 49.79888 47.17315
# Shear Modulus (GPa) = 27.16500 61.34484 44.25492
#
# Velocity S-wave (km/s) = 3.56258 5.35363 4.54716
# Velocity P-wave (km/s) = 6.14296 7.84105 7.04336
#
# Compressibility (1/GPa) = 0.02244799
#
# Stress axis : x y z
#
# Youngs Moduli (GPa) = 140.81531 70.81470 53.75578
#
# Poissons Ratio (x) = 0.04471 0.02216
# Poissons Ratio (y) = 0.08891 0.41096
# Poissons Ratio (z) = 0.05806 0.54138
#
# Static dielectric constant tensor:
#      x y z
#    x 1.935220 0.000000 -0.096840 
#    y 0.000000 1.773870 0.000000 
#    z -0.096840 0.000000 1.909960 
# 
# From -- ./inp_files/129388.got.cif
#   From: 2010.05.17/outbox.cif.g08.bks.cpg/sg15_65_cif.got.tgz:129388.got - 2010.06.03 18:47:42.
