data_PCOD9272376
_publ_section_title
;
Structure prediction by ZEFSAII (Michael W. Deem and Ramdas Pophale) SiO2 
 PCOD9272376
Probable space group: C 2/C
;
_chemical_formula_sum "Si O2"
_cell_formula_units_Z 40
_cell_length_a 13.308717
_cell_length_b 12.815057
_cell_length_c 19.189598
_cell_angle_alpha 90.000000
_cell_angle_beta 28.346926
_cell_angle_gamma 90.000000
_cell_volume 1553.966705
_symmetry_space_group_name_H-M "C 2/C"
_symmetry_group_IT_number 15
_symmetry_cell_setting 'monoclinic'
loop_
_space_group_symop_operation_xyz
x,y,z
-x,y,1/2-z
-x,-y,-z
x,-y,1/2+z
1/2+x,1/2+y,z
1/2-x,1/2+y,1/2-z
1/2-x,1/2-y,-z
1/2+x,1/2-y,1/2+z
loop_
_atom_site_type_symbol
_atom_site_label
_atom_site_fract_x
_atom_site_fract_y
_atom_site_fract_z
Si Si1 0.500084 0.654039 0.057655
Si Si2 0.574825 0.594772 0.775859
Si Si3 0.836866 0.489939 0.297209
Si Si4 0.353304 0.023805 0.496082
Si Si5 0.620116 0.224002 0.358994
O O1 0.728017 0.602378 0.907017
O O2 0.523308 0.753467 0.993177
O O3 0.340447 0.569595 0.120546
O O4 0.365116 0.688021 0.207015
O O5 0.500000 0.654604 0.750000
O O6 0.766967 0.523711 0.628627
O O7 0.602125 0.672012 0.822611
O O8 0.367539 0.523005 0.912185
O O9 0.000000 0.544166 0.250000
O O10 0.975629 0.451887 0.146125
O O11 0.469217 0.135680 0.418741
#
# Coordination Sequence:
#
# PCOD9272376 Si02
#       5
#     8   8   8   8   8
#     4  10  22  33  59  80 104 141 180 211 275 302
#     4   8  16  25  46  77 104 130 164 214 270 313
#     4  10  20  37  54  77 108 144 174 218 259 326
#     4   8  17  27  48  75 108 130 170 209 272 311
#     4  11  16  33  49  79 109 135 172 224 249 325
#
# _framework density 25.740577999999999
#
# number of rings (size 3 to 8) (size 9 to 14) (size 15 to 20)
#    1.200    1.200    2.000    1.800    0.000    4.800 
#    0.000    2.000    8.800    0.000    0.000    0.000 
#    0.000    0.000    0.000    0.000    0.000    0.000 
#
# Total GULP energy -111456.784857 kJ/mol
# GULP energy per Si atom -5572.839243 kJ/mol
# Density = 2.568199 g / cm^3
# Si number density = 25.740578 Si / 1000 Ang^3
#
#
#
# Elastic Constant Matrix: (Units=GPa)
#
#
# Indices 1 2 3 4 5 6 
#
# 1 33.7757 3.6257 15.2386 0.0067 7.6488 -0.0009
# 2 3.6257 31.0077 29.8437 -0.0021 -5.0920 0.0037
# 3 15.2386 29.8437 238.4437 -0.0023 3.8897 0.0018
# 4 0.0067 -0.0021 -0.0023 3.7944 -0.0052 -1.4704
# 5 7.6488 -5.0920 3.8897 -0.0052 31.5781 0.0019
# 6 -0.0009 0.0037 0.0018 -1.4704 0.0019 16.8599
#
#
#
# Elastic Compliance Matrix: (Units=1/GPa)
#
#
# Indices 1 2 3 4 5 6 
#
# 1 0.032557 -0.003751 -0.001476 -0.000073 -0.008309 -0.000003
# 2 -0.003751 0.038477 -0.004702 0.000033 0.007692 -0.000006
# 3 -0.001476 -0.004702 0.004893 0.000002 -0.001003 0.000001
# 4 -0.000073 0.000033 0.000002 0.272765 0.000066 0.023788
# 5 -0.008309 0.007692 -0.001003 0.000066 0.035044 0.000000
# 6 -0.000003 -0.000006 0.000001 0.023788 0.000000 0.061387
#
#
# Mechanical properties :
#
#
# Convention : Reuss Voigt Hill
#
# Bulk Modulus (GPa) = 17.83472 44.51589 31.17531
# Shear Modulus (GPa) = 10.33763 27.41444 18.87603
#
# Velocity S-wave (km/s) = 2.00619 3.26702 2.71092
# Velocity P-wave (km/s) = 3.50857 5.61808 4.68364
#
# Compressibility (1/GPa) = 0.05607041
#
# Stress axis : x y z
#
# Youngs Moduli (GPa) = 30.71518 25.98966 204.37444
#
# Poissons Ratio (x) = 0.09749 0.30159
# Poissons Ratio (y) = 0.11522 0.96087
# Poissons Ratio (z) = 0.04532 0.12219
#
# Static dielectric constant tensor:
#      x y z
#    x 2.135080 0.000000 0.003560 
#    y 0.000000 2.023000 0.000010 
#    z 0.003560 0.000010 2.085570 
# 
# From -- ./inp_files/277506.got.cif
#   From: 2010.05.17/outbox.cif.g08.bks.cpg/sg15_139_cif.got.tgz:277506.got - 2010.06.03 18:47:42.
