data_PCOD9272248
_publ_section_title
;
Structure prediction by ZEFSAII (Michael W. Deem and Ramdas Pophale) SiO2 
 PCOD9272248
Probable space group: C 2/C
;
_chemical_formula_sum "Si O2"
_cell_formula_units_Z 60
_cell_length_a 17.849590
_cell_length_b 9.935357
_cell_length_c 22.043923
_cell_angle_alpha 90.000000
_cell_angle_beta 128.220448
_cell_angle_gamma 90.000000
_cell_volume 3071.298741
_symmetry_space_group_name_H-M "C 2/C"
_symmetry_group_IT_number 15
_symmetry_cell_setting 'monoclinic'
loop_
_space_group_symop_operation_xyz
x,y,z
-x,y,1/2-z
-x,-y,-z
x,-y,1/2+z
1/2+x,1/2+y,z
1/2-x,1/2+y,1/2-z
1/2-x,1/2-y,-z
1/2+x,1/2-y,1/2+z
loop_
_atom_site_type_symbol
_atom_site_label
_atom_site_fract_x
_atom_site_fract_y
_atom_site_fract_z
Si Si1 0.500000 0.297273 0.250000
Si Si2 0.307227 0.920058 0.312296
Si Si3 0.812583 0.777592 0.471464
Si Si4 0.478814 0.061700 0.556369
Si Si5 0.788414 0.160887 0.613055
Si Si6 0.484606 0.218200 0.106038
Si Si7 0.192098 0.911934 0.509145
Si Si8 0.197152 0.274813 0.668650
O O1 0.603214 0.366283 0.310770
O O2 0.509153 0.224856 0.189660
O O3 0.420082 0.900016 0.363742
O O4 0.279600 0.877790 0.366520
O O5 0.249117 0.834643 0.235209
O O6 0.283688 0.077310 0.295501
O O7 0.750000 0.750000 0.500000
O O8 0.770895 0.734523 0.385157
O O9 0.907576 0.686201 0.522800
O O10 0.825717 0.939277 0.475124
O O11 0.500000 0.000000 0.500000
O O12 0.443714 0.929629 0.573701
O O13 0.773151 0.080471 0.543233
O O14 0.765313 0.316751 0.583278
O O15 0.406047 0.326728 0.046558
O O16 0.582462 0.241038 0.118042
#
# Coordination Sequence:
#
# PCOD9272248 Si02
#       8
#     4   8   8   8   8   8   8   8
#     4  10  20  36  66  92 130 162 220 270 320 398
#     4  11  23  43  67  93 134 177 224 269 341 402
#     4  12  27  45  66 100 135 171 227 288 341 406
#     4  11  23  45  69  91 134 186 213 273 351 403
#     4  10  21  40  65  98 129 178 212 276 334 405
#     4  10  21  42  66  95 126 172 223 264 335 404
#     4  10  24  37  70  99 127 168 227 271 330 398
#     4  11  25  42  67  96 134 177 217 283 337 404
#
# _framework density 19.535710000000002
#
# number of rings (size 3 to 8) (size 9 to 14) (size 15 to 20)
#    0.000    1.333    4.000    1.600    7.467    1.600 
#    0.000    0.000    0.000    0.000    0.000    0.000 
#    0.000    0.000    0.000    0.000    0.000    0.000 
#
# Total GULP energy -167417.376735 kJ/mol
# GULP energy per Si atom -5580.579224 kJ/mol
# Density = 1.949125 g / cm^3
# Si number density = 19.535710 Si / 1000 Ang^3
#
#
#
# Elastic Constant Matrix: (Units=GPa)
#
#
# Indices 1 2 3 4 5 6 
#
# 1 86.8174 37.7914 36.5401 0.0000 0.5859 0.0000
# 2 37.7914 115.9596 41.0671 0.0000 19.0796 0.0000
# 3 36.5401 41.0671 75.6546 0.0000 16.0897 0.0000
# 4 0.0000 0.0000 0.0000 30.7560 0.0000 5.8404
# 5 0.5859 19.0796 16.0897 0.0000 35.0285 0.0000
# 6 0.0000 0.0000 0.0000 5.8404 0.0000 32.0136
#
#
#
# Elastic Compliance Matrix: (Units=1/GPa)
#
#
# Indices 1 2 3 4 5 6 
#
# 1 0.015881 -0.003572 -0.006748 0.000000 0.004780 0.000000
# 2 -0.003572 0.011880 -0.003724 0.000000 -0.004701 0.000000
# 3 -0.006748 -0.003724 0.019996 0.000000 -0.007044 0.000000
# 4 0.000000 0.000000 0.000000 0.033681 0.000000 -0.006145
# 5 0.004780 -0.004701 -0.007044 0.000000 0.034264 0.000000
# 6 0.000000 0.000000 0.000000 -0.006145 0.000000 0.032358
#
#
# Mechanical properties :
#
#
# Convention : Reuss Voigt Hill
#
# Bulk Modulus (GPa) = 50.83849 56.58095 53.70972
# Shear Modulus (GPa) = 27.36654 30.42848 28.89751
#
# Velocity S-wave (km/s) = 3.74685 3.95090 3.85023
# Velocity P-wave (km/s) = 6.69316 7.05964 6.87884
#
# Compressibility (1/GPa) = 0.01967013
#
# Stress axis : x y z
#
# Youngs Moduli (GPa) = 62.96724 84.17402 50.00912
#
# Poissons Ratio (x) = 0.30071 0.33745
# Poissons Ratio (y) = 0.22495 0.18622
# Poissons Ratio (z) = 0.42489 0.31343
#
# Static dielectric constant tensor:
#      x y z
#    x 1.738130 0.000000 0.000950 
#    y 0.000000 1.680340 0.000000 
#    z 0.000950 0.000000 1.690810 
# 
# From -- ./inp_files/252143.got.cif
#   From: 2010.05.17/outbox.cif.g08.bks.cpg/sg15_127_cif.got.tgz:252143.got - 2010.06.03 18:47:42.
