data_PCOD9272569
_publ_section_title
;
Structure prediction by ZEFSAII (Michael W. Deem and Ramdas Pophale) SiO2 
 PCOD9272569
Probable space group: C 2/C
;
_chemical_formula_sum "Si O2"
_cell_formula_units_Z 56
_cell_length_a 7.404959
_cell_length_b 23.268100
_cell_length_c 17.621818
_cell_angle_alpha 90.000000
_cell_angle_beta 56.237845
_cell_angle_gamma 90.000000
_cell_volume 2524.172886
_symmetry_space_group_name_H-M "C 2/C"
_symmetry_group_IT_number 15
_symmetry_cell_setting 'monoclinic'
loop_
_space_group_symop_operation_xyz
x,y,z
-x,y,1/2-z
-x,-y,-z
x,-y,1/2+z
1/2+x,1/2+y,z
1/2-x,1/2+y,1/2-z
1/2-x,1/2-y,-z
1/2+x,1/2-y,1/2+z
loop_
_atom_site_type_symbol
_atom_site_label
_atom_site_fract_x
_atom_site_fract_y
_atom_site_fract_z
Si Si1 0.328318 0.068505 0.359479
Si Si2 0.239824 0.300434 0.922920
Si Si3 0.094644 0.076028 0.144911
Si Si4 0.311151 0.940279 0.356459
Si Si5 0.831966 0.182032 0.570245
Si Si6 0.202093 0.646353 0.985826
Si Si7 0.622487 0.453059 0.140672
O O1 0.500000 0.075643 0.250000
O O2 0.348474 0.112912 0.423426
O O3 0.092975 0.076387 0.375046
O O4 0.348993 0.002743 0.384879
O O5 0.300173 0.361866 0.874442
O O6 0.284747 0.239795 0.871820
O O7 0.979342 0.307024 0.990481
O O8 0.360129 0.302001 0.975539
O O9 0.000000 0.066349 0.250000
O O10 0.223386 0.016307 0.104710
O O11 0.500000 0.935500 0.250000
O O12 0.294299 0.878681 0.400539
O O13 0.075919 0.947696 0.372426
O O14 0.059025 0.172931 0.559379
O O15 0.215973 0.598262 0.916725
O O16 0.500000 0.446247 0.250000
#
# Coordination Sequence:
#
# PCOD9272569 Si02
#       7
#     8   8   8   8   8   8   8
#     4  10  20  37  60  92 122 149 192 243 303 353
#     4  11  23  38  61  84 116 160 199 242 291 342
#     4  10  20  37  58  87 124 151 192 245 293 356
#     4   9  20  36  61  82 118 154 188 244 299 345
#     4  10  23  41  57  85 117 156 204 243 282 350
#     4  11  22  39  65  86 119 158 193 246 300 347
#     4   9  21  36  57  92 122 148 191 245 296 356
#
# _framework density 22.185485
#
# number of rings (size 3 to 8) (size 9 to 14) (size 15 to 20)
#    0.000    2.000    1.429    1.286    4.000    4.000 
#    0.000    0.000    0.000    1.714    0.000    0.000 
#    0.000    0.000    0.000    0.000    0.000    0.000 
#
# Total GULP energy -156155.560053 kJ/mol
# GULP energy per Si atom -5576.984288 kJ/mol
# Density = 2.213499 g / cm^3
# Si number density = 22.185485 Si / 1000 Ang^3
#
#
#
# Elastic Constant Matrix: (Units=GPa)
#
#
# Indices 1 2 3 4 5 6 
#
# 1 78.2670 32.2203 -2.1750 0.0000 -1.1025 0.0000
# 2 32.2203 166.6377 29.3358 0.0000 6.2452 0.0000
# 3 -2.1750 29.3358 42.3715 0.0000 7.7857 0.0000
# 4 0.0000 0.0000 0.0000 10.0534 0.0000 -10.4678
# 5 -1.1025 6.2452 7.7857 0.0000 22.3657 0.0000
# 6 0.0000 0.0000 0.0000 -10.4678 0.0000 16.6318
#
#
#
# Elastic Compliance Matrix: (Units=1/GPa)
#
#
# Indices 1 2 3 4 5 6 
#
# 1 0.014216 -0.003280 0.002888 0.000000 0.000611 0.000000
# 2 -0.003280 0.007592 -0.005348 0.000000 -0.000420 0.000000
# 3 0.002888 -0.005348 0.029006 0.000000 -0.008462 0.000000
# 4 0.000000 0.000000 0.000000 0.288590 0.000000 0.181634
# 5 0.000611 -0.000420 -0.008462 0.000000 0.047804 0.000000
# 6 0.000000 0.000000 0.000000 0.181634 0.000000 0.174443
#
#
# Mechanical properties :
#
#
# Convention : Reuss Voigt Hill
#
# Bulk Modulus (GPa) = 25.42212 45.11536 35.26874
# Shear Modulus (GPa) = 8.52888 25.00318 16.76603
#
# Velocity S-wave (km/s) = 1.96283 3.36073 2.75202
# Velocity P-wave (km/s) = 4.07685 5.95307 5.10195
#
# Compressibility (1/GPa) = 0.03933581
#
# Stress axis : x y z
#
# Youngs Moduli (GPa) = 70.34333 131.70937 34.47516
#
# Poissons Ratio (x) = 0.43202 -0.09958
# Poissons Ratio (y) = 0.23074 0.18437
# Poissons Ratio (z) = -0.20318 0.70436
#
# Static dielectric constant tensor:
#      x y z
#    x 1.819620 0.000000 -0.028400 
#    y 0.000000 1.918300 0.000000 
#    z -0.028400 0.000000 1.848090 
# 
# From -- ./inp_files/233762.got.cif
#   From: 2010.05.17/outbox.cif.g08.bks.cpg/sg15_117_cif.got.tgz:233762.got - 2010.06.03 18:47:42.
