data_PCOD9272006
_publ_section_title
;
Structure prediction by ZEFSAII (Michael W. Deem and Ramdas Pophale) SiO2 
 PCOD9272006
Probable space group: C 2/C
;
_chemical_formula_sum "Si O2"
_cell_formula_units_Z 52
_cell_length_a 17.260265
_cell_length_b 9.244392
_cell_length_c 27.319428
_cell_angle_alpha 90.000000
_cell_angle_beta 140.549616
_cell_angle_gamma 90.000000
_cell_volume 2769.818503
_symmetry_space_group_name_H-M "C 2/C"
_symmetry_group_IT_number 15
_symmetry_cell_setting 'monoclinic'
loop_
_space_group_symop_operation_xyz
x,y,z
-x,y,1/2-z
-x,-y,-z
x,-y,1/2+z
1/2+x,1/2+y,z
1/2-x,1/2+y,1/2-z
1/2-x,1/2-y,-z
1/2+x,1/2-y,1/2+z
loop_
_atom_site_type_symbol
_atom_site_label
_atom_site_fract_x
_atom_site_fract_y
_atom_site_fract_z
Si Si1 0.666240 0.607339 0.907205
Si Si2 0.139230 0.860359 0.504158
Si Si3 0.500000 0.757984 0.250000
Si Si4 0.199259 0.519957 0.838355
Si Si5 0.807376 0.954941 0.677082
Si Si6 0.405271 0.253864 0.268423
Si Si7 0.368149 0.265925 0.365513
O O1 0.781697 0.713618 0.961277
O O2 0.685802 0.480322 0.877893
O O3 0.546521 0.698637 0.832757
O O4 0.644506 0.566317 0.952993
O O5 0.000903 0.816888 0.447833
O O6 0.204366 0.957422 0.576258
O O7 0.394427 0.868524 0.181333
O O8 0.577496 0.648926 0.253519
O O9 0.127983 0.389240 0.777595
O O10 0.272817 0.608466 0.832967
O O11 0.685557 0.875655 0.634335
O O12 0.827287 0.110977 0.710432
O O13 0.377742 0.236905 0.312434
#
# Coordination Sequence:
#
# PCOD9272006 Si02
#       7
#     8   8   4   8   8   8   8
#     4  10  20  36  63  87 113 153 205 244 286 359
#     4  10  21  38  59  87 119 159 196 236 301 367
#     4  10  22  34  60  92 114 142 206 256 288 334
#     4  11  21  38  61  86 120 158 194 248 299 351
#     4  11  20  39  62  88 119 154 199 256 296 341
#     4  11  20  38  65  86 113 161 204 243 300 355
#     4  10  24  37  57  88 128 151 198 245 298 360
#
# _framework density 18.773793999999999
#
# number of rings (size 3 to 8) (size 9 to 14) (size 15 to 20)
#    0.000    1.538    3.077    2.308    0.000    0.615 
#    0.000    3.077    3.385    0.000    0.000    0.000 
#    0.000    0.000    0.000    0.000    0.000    0.000 
#
# Total GULP energy -145046.431107 kJ/mol
# GULP energy per Si atom -5578.708889 kJ/mol
# Density = 1.873106 g / cm^3
# Si number density = 18.773794 Si / 1000 Ang^3
#
#
#
# Elastic Constant Matrix: (Units=GPa)
#
#
# Indices 1 2 3 4 5 6 
#
# 1 105.6441 36.8495 33.1224 0.0000 6.2642 0.0000
# 2 36.8495 89.0949 23.2865 0.0000 0.1224 0.0000
# 3 33.1224 23.2865 68.3694 0.0000 -5.1947 0.0000
# 4 0.0000 0.0000 0.0000 19.0212 0.0000 7.7202
# 5 6.2642 0.1224 -5.1947 0.0000 28.4956 0.0000
# 6 0.0000 0.0000 0.0000 7.7202 0.0000 29.8453
#
#
#
# Elastic Compliance Matrix: (Units=1/GPa)
#
#
# Indices 1 2 3 4 5 6 
#
# 1 0.012633 -0.003894 -0.005074 0.000000 -0.003685 0.000000
# 2 -0.003894 0.013540 -0.002702 0.000000 0.000305 0.000000
# 3 -0.005074 -0.002702 0.018345 0.000000 0.004471 0.000000
# 4 0.000000 0.000000 0.000000 0.058740 0.000000 -0.015195
# 5 -0.003685 0.000305 0.004471 0.000000 0.036717 0.000000
# 6 0.000000 0.000000 0.000000 -0.015195 0.000000 0.037437
#
#
# Mechanical properties :
#
#
# Convention : Reuss Voigt Hill
#
# Bulk Modulus (GPa) = 47.21879 49.95835 48.58857
# Shear Modulus (GPa) = 24.06021 26.79574 25.42797
#
# Velocity S-wave (km/s) = 3.58381 3.78205 3.68426
# Velocity P-wave (km/s) = 6.50622 6.76316 6.63594
#
# Compressibility (1/GPa) = 0.02117801
#
# Stress axis : x y z
#
# Youngs Moduli (GPa) = 79.15535 73.85344 54.51147
#
# Poissons Ratio (x) = 0.28757 0.27660
# Poissons Ratio (y) = 0.30822 0.14730
# Poissons Ratio (z) = 0.40165 0.19957
#
# Static dielectric constant tensor:
#      x y z
#    x 1.662290 0.000000 -0.004170 
#    y 0.000000 1.647970 0.000000 
#    z -0.004170 0.000000 1.654680 
# 
# From -- ./inp_files/209037.got.cif
#   From: 2010.05.17/outbox.cif.g08.bks.cpg/sg15_105_cif.got.tgz:209037.got - 2010.06.03 18:47:42.
