data_PCOD9272850
_publ_section_title
;
Structure prediction by ZEFSAII (Michael W. Deem and Ramdas Pophale) SiO2 
 PCOD9272850
Probable space group: C 2/C
;
_chemical_formula_sum "Si O2"
_cell_formula_units_Z 52
_cell_length_a 8.123206
_cell_length_b 30.150173
_cell_length_c 11.597313
_cell_angle_alpha 90.000000
_cell_angle_beta 120.569298
_cell_angle_gamma 90.000000
_cell_volume 2445.598767
_symmetry_space_group_name_H-M "C 2/C"
_symmetry_group_IT_number 15
_symmetry_cell_setting 'monoclinic'
loop_
_space_group_symop_operation_xyz
x,y,z
-x,y,1/2-z
-x,-y,-z
x,-y,1/2+z
1/2+x,1/2+y,z
1/2-x,1/2+y,1/2-z
1/2-x,1/2-y,-z
1/2+x,1/2-y,1/2+z
loop_
_atom_site_type_symbol
_atom_site_label
_atom_site_fract_x
_atom_site_fract_y
_atom_site_fract_z
Si Si1 0.500000 0.750783 0.250000
Si Si2 0.068676 0.669544 0.625046
Si Si3 0.000000 0.592817 0.750000
Si Si4 0.385876 0.673262 0.048742
Si Si5 0.886286 0.156111 0.589922
Si Si6 0.730815 0.537959 0.499403
Si Si7 0.082301 0.052701 0.908764
Si Si8 0.500000 0.596103 0.250000
O O1 0.388732 0.785553 0.290496
O O2 0.392442 0.717445 0.127366
O O3 0.839735 0.662555 0.536922
O O4 0.134393 0.626770 0.724728
O O5 0.172984 0.672496 0.541132
O O6 0.909588 0.561821 0.620688
O O7 0.502970 0.632316 0.147874
O O8 0.494629 0.679261 0.967704
O O9 0.862621 0.103697 0.559611
O O10 0.000000 0.162108 0.750000
O O11 0.571696 0.544667 0.544019
O O12 0.741161 0.485472 0.481346
O O13 0.661865 0.562922 0.358007
O O14 0.000000 0.046619 0.750000
#
# Coordination Sequence:
#
# PCOD9272850 Si02
#       8
#     4   8   4   8   8   8   8   4
#     4  10  24  42  70  96 128 172 210 272 346 398
#     4  11  22  41  67  97 127 166 222 271 322 400
#     4  11  20  39  62  94 128 174 218 269 320 385
#     4  11  23  44  68  94 132 171 217 268 338 398
#     4  11  22  39  66  98 131 174 218 271 330 389
#     4  11  21  37  66  89 132 181 221 264 329 382
#     4  10  20  37  60  93 127 177 225 262 318 390
#     4  11  20  41  64  94 126 186 212 261 340 387
#
# _framework density 21.262687
#
# number of rings (size 3 to 8) (size 9 to 14) (size 15 to 20)
#    0.000    1.231    3.846    4.154    0.000    0.615 
#    0.000   10.769    0.000    0.000    0.000    0.000 
#    0.000    0.000    0.000    0.000    0.000    0.000 
#
# Total GULP energy -144901.927000 kJ/mol
# GULP energy per Si atom -5573.151038 kJ/mol
# Density = 2.121429 g / cm^3
# Si number density = 21.262687 Si / 1000 Ang^3
#
#
#
# Elastic Constant Matrix: (Units=GPa)
#
#
# Indices 1 2 3 4 5 6 
#
# 1 102.6733 6.4324 32.0020 0.0000 -16.0542 0.0000
# 2 6.4324 98.3691 36.3035 0.0000 7.0932 0.0000
# 3 32.0020 36.3035 104.4085 0.0000 0.6247 0.0000
# 4 0.0000 0.0000 0.0000 24.7706 0.0000 -4.0290
# 5 -16.0542 7.0932 0.6247 0.0000 19.9085 0.0000
# 6 0.0000 0.0000 0.0000 -4.0290 0.0000 15.2128
#
#
#
# Elastic Compliance Matrix: (Units=1/GPa)
#
#
# Indices 1 2 3 4 5 6 
#
# 1 0.012564 -0.000138 -0.003864 0.000000 0.010302 0.000000
# 2 -0.000138 0.011996 -0.004103 0.000000 -0.004257 0.000000
# 3 -0.003864 -0.004103 0.012201 0.000000 -0.002037 0.000000
# 4 0.000000 0.000000 0.000000 0.042188 0.000000 0.011173
# 5 0.010302 -0.004257 -0.002037 0.000000 0.060118 0.000000
# 6 0.000000 0.000000 0.000000 0.011173 0.000000 0.068693
#
#
# Mechanical properties :
#
#
# Convention : Reuss Voigt Hill
#
# Bulk Modulus (GPa) = 48.66408 50.54741 49.60575
# Shear Modulus (GPa) = 21.66182 27.35926 24.51054
#
# Velocity S-wave (km/s) = 3.19528 3.59099 3.39890
# Velocity P-wave (km/s) = 6.04565 6.40453 6.22768
#
# Compressibility (1/GPa) = 0.02054904
#
# Stress axis : x y z
#
# Youngs Moduli (GPa) = 79.59515 83.36035 81.95934
#
# Poissons Ratio (x) = 0.01152 0.31673
# Poissons Ratio (y) = 0.01100 0.33630
# Poissons Ratio (z) = 0.30759 0.34205
#
# Static dielectric constant tensor:
#      x y z
#    x 1.848340 0.000000 0.021640 
#    y 0.000000 1.797320 0.000000 
#    z 0.021640 0.000000 1.824690 
# 
# From -- ./inp_files/82339.got.cif
#   From: 2010.05.17/outbox.cif.g08.bks.cpg/sg15_42_cif.got.tgz:82339.got - 2010.06.03 18:47:42.
