data_PCOD9272651
_publ_section_title
;
Structure prediction by ZEFSAII (Michael W. Deem and Ramdas Pophale) SiO2 
 PCOD9272651
Probable space group: C 2/C
;
_chemical_formula_sum "Si O2"
_cell_formula_units_Z 40
_cell_length_a 8.887720
_cell_length_b 19.159563
_cell_length_c 10.475391
_cell_angle_alpha 90.000000
_cell_angle_beta 92.427265
_cell_angle_gamma 90.000000
_cell_volume 1782.199745
_symmetry_space_group_name_H-M "C 2/C"
_symmetry_group_IT_number 15
_symmetry_cell_setting 'monoclinic'
loop_
_space_group_symop_operation_xyz
x,y,z
-x,y,1/2-z
-x,-y,-z
x,-y,1/2+z
1/2+x,1/2+y,z
1/2-x,1/2+y,1/2-z
1/2-x,1/2-y,-z
1/2+x,1/2-y,1/2+z
loop_
_atom_site_type_symbol
_atom_site_label
_atom_site_fract_x
_atom_site_fract_y
_atom_site_fract_z
Si Si1 0.815678 0.922163 0.736246
Si Si2 0.675728 0.513892 0.530916
Si Si3 0.726610 0.664153 0.629095
Si Si4 0.995506 0.261911 0.024377
Si Si5 0.712039 0.782382 0.816839
O O1 0.767655 0.967885 0.610609
O O2 0.743151 0.845486 0.721911
O O3 0.000000 0.918476 0.750000
O O4 0.767011 0.952838 0.873116
O O5 0.500000 0.500000 0.500000
O O6 0.696635 0.583133 0.617242
O O7 0.618178 0.702011 0.523946
O O8 0.688049 0.705955 0.755914
O O9 0.898230 0.684079 0.602118
O O10 0.131553 0.225520 0.102557
O O11 0.074146 0.296859 0.905239
#
# Coordination Sequence:
#
# PCOD9272651 Si02
#       5
#     8   8   8   8   8
#     4  10  20  37  59  86 123 164 207 262 319 379
#     4  10  22  37  60  89 122 162 207 260 321 384
#     4  11  21  39  63  91 125 168 216 265 318 383
#     4  10  22  36  60  94 128 166 216 269 321 378
#     4  11  22  38  63  94 129 168 216 269 323 384
#
# _framework density 22.444171999999998
#
# number of rings (size 3 to 8) (size 9 to 14) (size 15 to 20)
#    0.000    1.600    0.000    7.200    0.000    8.000 
#    0.000    1.000    0.000    4.800    0.000    0.000 
#    0.000    0.000    0.000    0.000    0.000    0.000 
#
# Total GULP energy -111706.117351 kJ/mol
# GULP energy per Si atom -5585.305868 kJ/mol
# Density = 2.239309 g / cm^3
# Si number density = 22.444172 Si / 1000 Ang^3
#
#
#
# Elastic Constant Matrix: (Units=GPa)
#
#
# Indices 1 2 3 4 5 6 
#
# 1 82.7229 17.7970 15.0251 0.0000 -9.3893 0.0000
# 2 17.7970 49.9265 2.2674 0.0000 -5.2746 0.0000
# 3 15.0251 2.2674 94.2676 0.0000 -6.6362 0.0000
# 4 0.0000 0.0000 0.0000 37.0818 0.0000 0.7064
# 5 -9.3893 -5.2746 -6.6362 0.0000 26.9513 0.0000
# 6 0.0000 0.0000 0.0000 0.7064 0.0000 20.9413
#
#
#
# Elastic Compliance Matrix: (Units=1/GPa)
#
#
# Indices 1 2 3 4 5 6 
#
# 1 0.013777 -0.004460 -0.001844 0.000000 0.003473 0.000000
# 2 -0.004460 0.021901 0.000383 0.000000 0.002827 0.000000
# 3 -0.001844 0.000383 0.011044 0.000000 0.002152 0.000000
# 4 0.000000 0.000000 0.000000 0.026985 0.000000 -0.000910
# 5 0.003473 0.002827 0.002152 0.000000 0.039397 0.000000
# 6 0.000000 0.000000 0.000000 -0.000910 0.000000 0.047783
#
#
# Mechanical properties :
#
#
# Convention : Reuss Voigt Hill
#
# Bulk Modulus (GPa) = 28.67031 33.01067 30.84049
# Shear Modulus (GPa) = 27.12137 29.78339 28.45238
#
# Velocity S-wave (km/s) = 3.47997 3.64675 3.56433
# Velocity P-wave (km/s) = 5.38040 5.69838 5.54167
#
# Compressibility (1/GPa) = 0.03487929
#
# Stress axis : x y z
#
# Youngs Moduli (GPa) = 72.58313 45.66070 90.54433
#
# Poissons Ratio (x) = 0.20367 0.16698
# Poissons Ratio (y) = 0.32376 -0.03469
# Poissons Ratio (z) = 0.13386 -0.01750
#
# Static dielectric constant tensor:
#      x y z
#    x 1.811830 0.000000 0.017800 
#    y 0.000000 1.833150 0.000000 
#    z 0.017800 0.000000 1.953160 
# 
# From -- ./inp_files/76806.got.cif
#   From: 2010.05.17/outbox.cif.g08.bks.cpg/sg15_39_cif.got.tgz:76806.got - 2010.06.03 18:47:42.
