data_PCOD9272080
_publ_section_title
;
Structure prediction by ZEFSAII (Michael W. Deem and Ramdas Pophale) SiO2 
 PCOD9272080
Probable space group: C 2/C
;
_chemical_formula_sum "Si O2"
_cell_formula_units_Z 60
_cell_length_a 11.246637
_cell_length_b 16.302933
_cell_length_c 15.529240
_cell_angle_alpha 90.000000
_cell_angle_beta 55.908661
_cell_angle_gamma 90.000000
_cell_volume 2358.006761
_symmetry_space_group_name_H-M "C 2/C"
_symmetry_group_IT_number 15
_symmetry_cell_setting 'monoclinic'
loop_
_space_group_symop_operation_xyz
x,y,z
-x,y,1/2-z
-x,-y,-z
x,-y,1/2+z
1/2+x,1/2+y,z
1/2-x,1/2+y,1/2-z
1/2-x,1/2-y,-z
1/2+x,1/2-y,1/2+z
loop_
_atom_site_type_symbol
_atom_site_label
_atom_site_fract_x
_atom_site_fract_y
_atom_site_fract_z
Si Si1 0.865380 0.819150 0.471591
Si Si2 0.241795 0.955189 0.390842
Si Si3 0.000000 0.267109 0.250000
Si Si4 0.302128 0.625768 0.311712
Si Si5 0.638918 0.868551 0.328517
Si Si6 0.532331 0.401578 0.916242
Si Si7 0.884907 0.734912 0.223258
Si Si8 0.700008 0.970874 0.463422
O O1 0.750000 0.750000 0.500000
O O2 0.879964 0.834088 0.566683
O O3 0.017935 0.787138 0.380961
O O4 0.822077 0.904010 0.441708
O O5 0.310129 0.921537 0.275717
O O6 0.132844 0.896730 0.488723
O O7 0.121480 0.018451 0.406749
O O8 0.343869 0.996591 0.422825
O O9 0.143644 0.213862 0.177018
O O10 0.013747 0.318067 0.332743
O O11 0.436714 0.603231 0.195997
O O12 0.174430 0.653838 0.299025
O O13 0.255988 0.550095 0.388709
O O14 0.764448 0.802182 0.297916
O O15 0.609438 0.920481 0.427599
O O16 0.000000 0.712641 0.250000
#
# Coordination Sequence:
#
# PCOD9272080 Si02
#       8
#     8   8   4   8   8   8   8   8
#     4  11  23  40  65 103 137 174 228 285 346 410
#     4  10  21  38  66 100 130 171 236 286 336 402
#     4  10  26  42  68  96 138 188 220 286 344 412
#     4  11  23  44  65  98 133 177 229 275 345 411
#     4  11  22  46  66  99 140 177 234 283 347 414
#     4  10  20  36  63  98 135 170 220 293 332 397
#     4  11  22  40  69  97 132 181 227 284 344 411
#     4  11  24  43  72  98 132 186 227 281 342 410
#
# _framework density 25.445219999999999
#
# number of rings (size 3 to 8) (size 9 to 14) (size 15 to 20)
#    0.000    1.333    4.000    1.600    1.867    2.133 
#    3.600    3.333    0.000    0.000    0.000    0.000 
#    0.000    0.000    0.000    0.000    0.000    0.000 
#
# Total GULP energy -167510.398943 kJ/mol
# GULP energy per Si atom -5583.679965 kJ/mol
# Density = 2.538731 g / cm^3
# Si number density = 25.445220 Si / 1000 Ang^3
#
#
#
# Elastic Constant Matrix: (Units=GPa)
#
#
# Indices 1 2 3 4 5 6 
#
# 1 103.6283 33.4938 34.6076 0.0000 39.0090 0.0000
# 2 33.4938 97.4558 43.4244 0.0000 13.1068 0.0000
# 3 34.6076 43.4244 107.6754 0.0000 37.8792 0.0000
# 4 0.0000 0.0000 0.0000 45.3386 0.0000 20.7549
# 5 39.0090 13.1068 37.8792 0.0000 43.0202 0.0000
# 6 0.0000 0.0000 0.0000 20.7549 0.0000 41.3783
#
#
#
# Elastic Compliance Matrix: (Units=1/GPa)
#
#
# Indices 1 2 3 4 5 6 
#
# 1 0.016009 -0.004314 0.001794 0.000000 -0.014782 0.000000
# 2 -0.004314 0.013696 -0.005860 0.000000 0.004899 0.000000
# 3 0.001794 -0.005860 0.015963 0.000000 -0.013897 0.000000
# 4 0.000000 0.000000 0.000000 0.028630 0.000000 -0.014361
# 5 -0.014782 0.004899 -0.013897 0.000000 0.047393 0.000000
# 6 0.000000 0.000000 0.000000 -0.014361 0.000000 0.031370
#
#
# Mechanical properties :
#
#
# Convention : Reuss Voigt Hill
#
# Bulk Modulus (GPa) = 34.59142 59.09012 46.84077
# Shear Modulus (GPa) = 27.86190 39.09633 33.47912
#
# Velocity S-wave (km/s) = 3.31263 3.92406 3.63124
# Velocity P-wave (km/s) = 5.31558 6.61845 6.00247
#
# Compressibility (1/GPa) = 0.02890890
#
# Stress axis : x y z
#
# Youngs Moduli (GPa) = 62.46341 73.01401 62.64648
#
# Poissons Ratio (x) = 0.31495 -0.11242
# Poissons Ratio (y) = 0.26944 0.36713
# Poissons Ratio (z) = -0.11209 0.42789
#
# Static dielectric constant tensor:
#      x y z
#    x 2.069390 0.000000 0.061240 
#    y 0.000000 2.103960 0.000000 
#    z 0.061240 0.000000 2.108360 
# 
# From -- ./inp_files/146042.got.cif
#   From: 2010.05.17/outbox.cif.g08.bks.cpg/sg15_74_cif.got.tgz:146042.got - 2010.06.03 18:47:42.
