data_PCOD9272591
_publ_section_title
;
Structure prediction by ZEFSAII (Michael W. Deem and Ramdas Pophale) SiO2 
 PCOD9272591
Probable space group: C 2/C
;
_chemical_formula_sum "Si O2"
_cell_formula_units_Z 44
_cell_length_a 8.978640
_cell_length_b 21.072416
_cell_length_c 12.808423
_cell_angle_alpha 90.000000
_cell_angle_beta 115.284665
_cell_angle_gamma 90.000000
_cell_volume 2191.207797
_symmetry_space_group_name_H-M "C 2/C"
_symmetry_group_IT_number 15
_symmetry_cell_setting 'monoclinic'
loop_
_space_group_symop_operation_xyz
x,y,z
-x,y,1/2-z
-x,-y,-z
x,-y,1/2+z
1/2+x,1/2+y,z
1/2-x,1/2+y,1/2-z
1/2-x,1/2-y,-z
1/2+x,1/2-y,1/2+z
loop_
_atom_site_type_symbol
_atom_site_label
_atom_site_fract_x
_atom_site_fract_y
_atom_site_fract_z
Si Si1 0.000000 0.370053 0.250000
Si Si2 0.694506 0.216796 0.322400
Si Si3 0.706173 0.173990 0.105768
Si Si4 0.159219 0.817408 0.070282
Si Si5 0.949335 0.570862 0.958145
Si Si6 0.832507 0.845860 0.072164
O O1 0.158795 0.328471 0.328871
O O2 0.031069 0.412843 0.157883
O O3 0.500000 0.205302 0.250000
O O4 0.774082 0.188130 0.241387
O O5 0.761149 0.181415 0.442818
O O6 0.707670 0.291817 0.353132
O O7 0.620728 0.242286 0.055726
O O8 0.831361 0.161653 0.047794
O O9 0.570444 0.119110 0.056630
O O10 0.025604 0.850373 0.104265
O O11 0.763207 0.590245 0.930844
O O12 0.000000 0.500000 0.000000
#
# Coordination Sequence:
#
# PCOD9272591 Si02
#       6
#     4   8   8   8   8   8
#     4  10  24  42  64  90 126 164 208 266 332 362
#     4  11  19  35  61  96 129 158 206 275 326 373
#     4  10  20  37  58  90 128 159 204 258 337 363
#     4  10  21  38  63  95 124 158 209 277 326 377
#     4  11  24  41  62  91 126 172 214 253 310 393
#     4  11  22  36  62  96 124 166 219 253 322 392
#
# _framework density 20.080251000000001
#
# number of rings (size 3 to 8) (size 9 to 14) (size 15 to 20)
#    0.000    1.455    3.636    2.182    0.000    5.091 
#    0.000    3.636    0.000    6.545    0.000    0.000 
#    0.000    0.000    0.000    0.000    0.000    0.000 
#
# Total GULP energy -122832.750384 kJ/mol
# GULP energy per Si atom -5583.306836 kJ/mol
# Density = 2.003455 g / cm^3
# Si number density = 20.080251 Si / 1000 Ang^3
#
#
#
# Elastic Constant Matrix: (Units=GPa)
#
#
# Indices 1 2 3 4 5 6 
#
# 1 118.7579 64.3244 43.1641 0.0000 -5.7228 0.0000
# 2 64.3244 112.8539 34.9652 0.0000 -1.6141 0.0000
# 3 43.1641 34.9652 142.1115 0.0000 -16.9724 0.0000
# 4 0.0000 0.0000 0.0000 26.9419 0.0000 7.8976
# 5 -5.7228 -1.6141 -16.9724 0.0000 40.8813 0.0000
# 6 0.0000 0.0000 0.0000 7.8976 0.0000 23.2361
#
#
#
# Elastic Compliance Matrix: (Units=1/GPa)
#
#
# Indices 1 2 3 4 5 6 
#
# 1 0.012839 -0.006629 -0.002194 0.000000 0.000625 0.000000
# 2 -0.006629 0.013031 -0.001307 0.000000 -0.000956 0.000000
# 3 -0.002194 -0.001307 0.008398 0.000000 0.003128 0.000000
# 4 0.000000 0.000000 0.000000 0.041224 0.000000 -0.014011
# 5 0.000625 -0.000956 0.003128 0.000000 0.025809 0.000000
# 6 0.000000 0.000000 0.000000 -0.014011 0.000000 0.047799
#
#
# Mechanical properties :
#
#
# Convention : Reuss Voigt Hill
#
# Bulk Modulus (GPa) = 71.38806 73.18118 72.28462
# Shear Modulus (GPa) = 28.73092 33.62982 31.18037
#
# Velocity S-wave (km/s) = 3.78670 4.09684 3.94482
# Velocity P-wave (km/s) = 7.39915 7.67478 7.53822
#
# Compressibility (1/GPa) = 0.01400794
#
# Stress axis : x y z
#
# Youngs Moduli (GPa) = 77.89021 76.74220 119.07354
#
# Poissons Ratio (x) = 0.50873 0.26124
# Poissons Ratio (y) = 0.51634 0.15560
# Poissons Ratio (z) = 0.17088 0.10028
#
# Static dielectric constant tensor:
#      x y z
#    x 1.802500 0.000000 -0.022120 
#    y 0.000000 1.656800 0.000000 
#    z -0.022120 0.000000 1.763210 
# 
# From -- ./inp_files/88598.got.cif
#   From: 2010.05.17/outbox.cif.g08.bks.cpg/sg15_45_cif.got.tgz:88598.got - 2010.06.03 18:47:42.
