data_PCOD9272282
_publ_section_title
;
Structure prediction by ZEFSAII (Michael W. Deem and Ramdas Pophale) SiO2 
 PCOD9272282
Probable space group: C 2/C
;
_chemical_formula_sum "Si O2"
_cell_formula_units_Z 48
_cell_length_a 9.405950
_cell_length_b 10.160488
_cell_length_c 24.037507
_cell_angle_alpha 90.000000
_cell_angle_beta 111.194536
_cell_angle_gamma 90.000000
_cell_volume 2141.852158
_symmetry_space_group_name_H-M "C 2/C"
_symmetry_group_IT_number 15
_symmetry_cell_setting 'monoclinic'
loop_
_space_group_symop_operation_xyz
x,y,z
-x,y,1/2-z
-x,-y,-z
x,-y,1/2+z
1/2+x,1/2+y,z
1/2-x,1/2+y,1/2-z
1/2-x,1/2-y,-z
1/2+x,1/2-y,1/2+z
loop_
_atom_site_type_symbol
_atom_site_label
_atom_site_fract_x
_atom_site_fract_y
_atom_site_fract_z
Si Si1 0.996565 0.863814 0.313680
Si Si2 0.184628 0.246312 0.613987
Si Si3 0.483224 0.667774 0.311217
Si Si4 0.874899 0.635009 0.502749
Si Si5 0.325594 0.790450 0.390625
Si Si6 0.673772 0.480839 0.544155
O O1 0.166461 0.865195 0.363566
O O2 0.000000 0.820241 0.250000
O O3 0.895234 0.770456 0.338126
O O4 0.938071 0.014311 0.305823
O O5 0.348284 0.313960 0.640175
O O6 0.090170 0.331597 0.556051
O O7 0.203610 0.098853 0.592083
O O8 0.500000 0.712342 0.250000
O O9 0.371862 0.749930 0.334420
O O10 0.750000 0.750000 0.500000
O O11 0.782621 0.505363 0.506767
O O12 0.026328 0.643342 0.560849
O O13 0.303795 0.657480 0.423224
O O14 0.500000 0.500000 0.500000
#
# Coordination Sequence:
#
# PCOD9272282 Si02
#       6
#     8   8   8   8   8   8
#     4  11  27  44  62  95 129 167 220 265 315 376
#     4  11  21  41  66  93 129 167 214 260 316 387
#     4  11  23  43  67  87 125 177 217 265 313 371
#     4  10  20  36  66  99 123 167 217 249 318 400
#     4  12  22  42  67  91 131 171 205 268 327 370
#     4  11  19  37  67  94 132 168 200 258 331 379
#
# _framework density 22.410508
#
# number of rings (size 3 to 8) (size 9 to 14) (size 15 to 20)
#    0.000    1.000    8.333    1.000    0.000    2.000 
#    0.000    2.500    0.000    0.000    0.000    0.000 
#    0.000    0.000    0.000    0.000    0.000    0.000 
#
# Total GULP energy -134253.677239 kJ/mol
# GULP energy per Si atom -5593.903218 kJ/mol
# Density = 2.235950 g / cm^3
# Si number density = 22.410508 Si / 1000 Ang^3
#
#
#
# Elastic Constant Matrix: (Units=GPa)
#
#
# Indices 1 2 3 4 5 6 
#
# 1 55.5181 12.1602 -5.5580 0.0000 -11.9338 0.0000
# 2 12.1602 48.7031 4.0003 0.0000 -9.9575 0.0000
# 3 -5.5580 4.0003 76.0211 0.0000 -13.9926 0.0000
# 4 0.0000 0.0000 0.0000 11.7035 0.0000 9.8739
# 5 -11.9338 -9.9575 -13.9926 0.0000 47.4961 0.0000
# 6 0.0000 0.0000 0.0000 9.8739 0.0000 27.8122
#
#
#
# Elastic Compliance Matrix: (Units=1/GPa)
#
#
# Indices 1 2 3 4 5 6 
#
# 1 0.020277 -0.004261 0.002622 0.000000 0.004974 0.000000
# 2 -0.004261 0.022355 -0.000869 0.000000 0.003360 0.000000
# 3 0.002622 -0.000869 0.014252 0.000000 0.004675 0.000000
# 4 0.000000 0.000000 0.000000 0.121980 0.000000 -0.043306
# 5 0.004974 0.003360 0.004675 0.000000 0.024386 0.000000
# 6 0.000000 0.000000 0.000000 -0.043306 0.000000 0.051330
#
#
# Mechanical properties :
#
#
# Convention : Reuss Voigt Hill
#
# Bulk Modulus (GPa) = 19.27994 22.38303 20.83148
# Shear Modulus (GPa) = 18.05797 28.71169 23.38483
#
# Velocity S-wave (km/s) = 2.84171 3.58323 3.23379
# Velocity P-wave (km/s) = 4.40327 5.20853 4.82274
#
# Compressibility (1/GPa) = 0.05186739
#
# Stress axis : x y z
#
# Youngs Moduli (GPa) = 49.31656 44.73300 70.16433
#
# Poissons Ratio (x) = 0.19062 -0.18399
# Poissons Ratio (y) = 0.21015 0.06100
# Poissons Ratio (z) = -0.12932 0.03889
#
# Static dielectric constant tensor:
#      x y z
#    x 1.839410 0.000000 -0.033180 
#    y 0.000000 1.828110 0.000000 
#    z -0.033180 0.000000 1.860160 
# 
# From -- ./inp_files/263485.got.cif
#   From: 2010.05.17/outbox.cif.g08.bks.cpg/sg15_132_cif.got.tgz:263485.got - 2010.06.03 18:47:42.
