data_PCOD9272201
_publ_section_title
;
Structure prediction by ZEFSAII (Michael W. Deem and Ramdas Pophale) SiO2 
 PCOD9272201
Probable space group: C 2/C
;
_chemical_formula_sum "Si O2"
_cell_formula_units_Z 44
_cell_length_a 7.215673
_cell_length_b 22.944985
_cell_length_c 13.135660
_cell_angle_alpha 90.000000
_cell_angle_beta 108.958198
_cell_angle_gamma 90.000000
_cell_volume 2056.816550
_symmetry_space_group_name_H-M "C 2/C"
_symmetry_group_IT_number 15
_symmetry_cell_setting 'monoclinic'
loop_
_space_group_symop_operation_xyz
x,y,z
-x,y,1/2-z
-x,-y,-z
x,-y,1/2+z
1/2+x,1/2+y,z
1/2-x,1/2+y,1/2-z
1/2-x,1/2-y,-z
1/2+x,1/2-y,1/2+z
loop_
_atom_site_type_symbol
_atom_site_label
_atom_site_fract_x
_atom_site_fract_y
_atom_site_fract_z
Si Si1 0.500000 0.495064 0.250000
Si Si2 0.790709 0.569655 0.169373
Si Si3 0.111273 0.664779 0.986513
Si Si4 0.466783 0.281512 0.625266
Si Si5 0.643728 0.053719 0.552968
Si Si6 0.128796 0.302214 0.854914
O O1 0.616345 0.535814 0.191481
O O2 0.674126 0.460234 0.340009
O O3 0.805600 0.638481 0.193073
O O4 0.000000 0.545636 0.250000
O O5 0.774167 0.567914 0.044750
O O6 0.336450 0.664269 0.063438
O O7 0.995449 0.683996 0.068303
O O8 0.123726 0.717092 0.907478
O O9 0.998021 0.606348 0.934263
O O10 0.500000 0.288473 0.750000
O O11 0.661472 0.274909 0.592503
O O12 0.500000 0.000000 0.500000
O O13 0.000000 0.267472 0.750000
#
# Coordination Sequence:
#
# PCOD9272201 Si02
#       6
#     4   8   8   8   8   8
#     4  12  24  42  68  96 136 178 216 282 346 382
#     4  10  22  39  65  98 126 170 225 274 324 389
#     4  10  24  44  59  97 132 166 219 269 328 397
#     4  11  22  40  68  94 125 173 214 268 337 387
#     4  11  24  45  66  96 136 175 224 273 328 407
#     4  10  20  36  65  93 124 160 220 275 314 389
#
# _framework density 21.392282000000002
#
# number of rings (size 3 to 8) (size 9 to 14) (size 15 to 20)
#    0.000    1.455    3.636    1.091    3.818    0.000 
#    4.909    1.818    0.000    0.000    0.000    0.000 
#    0.000    0.000    0.000    0.000    0.000    0.000 
#
# Total GULP energy -122566.234188 kJ/mol
# GULP energy per Si atom -5571.192463 kJ/mol
# Density = 2.134359 g / cm^3
# Si number density = 21.392282 Si / 1000 Ang^3
#
#
#
# Elastic Constant Matrix: (Units=GPa)
#
#
# Indices 1 2 3 4 5 6 
#
# 1 92.1937 14.9079 26.7779 0.0000 19.7303 0.0000
# 2 14.9079 65.3765 24.9921 0.0000 21.3616 0.0000
# 3 26.7779 24.9921 82.7384 0.0000 26.4640 0.0000
# 4 0.0000 0.0000 0.0000 18.7279 0.0000 -4.0875
# 5 19.7303 21.3616 26.4640 0.0000 41.9930 0.0000
# 6 0.0000 0.0000 0.0000 -4.0875 0.0000 29.1970
#
#
#
# Elastic Compliance Matrix: (Units=1/GPa)
#
#
# Indices 1 2 3 4 5 6 
#
# 1 0.012547 -0.000566 -0.002626 0.000000 -0.003953 0.000000
# 2 -0.000566 0.019074 -0.003206 0.000000 -0.007416 0.000000
# 3 -0.002626 -0.003206 0.016267 0.000000 -0.007387 0.000000
# 4 0.000000 0.000000 0.000000 0.055079 0.000000 0.007711
# 5 -0.003953 -0.007416 -0.007387 0.000000 0.034099 0.000000
# 6 0.000000 0.000000 0.000000 0.007711 0.000000 0.035330
#
#
# Mechanical properties :
#
#
# Convention : Reuss Voigt Hill
#
# Bulk Modulus (GPa) = 28.49591 41.51824 35.00708
# Shear Modulus (GPa) = 25.39510 29.55896 27.47703
#
# Velocity S-wave (km/s) = 3.44919 3.72123 3.58779
# Velocity P-wave (km/s) = 5.40483 6.15740 5.79335
#
# Compressibility (1/GPa) = 0.03509275
#
# Stress axis : x y z
#
# Youngs Moduli (GPa) = 79.70220 52.42737 61.47320
#
# Poissons Ratio (x) = 0.02967 0.16140
# Poissons Ratio (y) = 0.04510 0.19710
# Poissons Ratio (z) = 0.20926 0.16809
#
# Static dielectric constant tensor:
#      x y z
#    x 1.920420 0.000000 0.136500 
#    y 0.000000 1.834610 0.000000 
#    z 0.136500 0.000000 1.866120 
# 
# From -- ./inp_files/129456.got.cif
#   From: 2010.05.17/outbox.cif.g08.bks.cpg/sg15_65_cif.got.tgz:129456.got - 2010.06.03 18:47:42.
