data_PCOD9272113
_publ_section_title
;
Structure prediction by ZEFSAII (Michael W. Deem and Ramdas Pophale) SiO2 
 PCOD9272113
Probable space group: C 2/C
;
_chemical_formula_sum "Si O2"
_cell_formula_units_Z 60
_cell_length_a 26.642821
_cell_length_b 19.157671
_cell_length_c 8.795390
_cell_angle_alpha 90.000000
_cell_angle_beta 134.938597
_cell_angle_gamma 90.000000
_cell_volume 3177.810163
_symmetry_space_group_name_H-M "C 2/C"
_symmetry_group_IT_number 15
_symmetry_cell_setting 'monoclinic'
loop_
_space_group_symop_operation_xyz
x,y,z
-x,y,1/2-z
-x,-y,-z
x,-y,1/2+z
1/2+x,1/2+y,z
1/2-x,1/2+y,1/2-z
1/2-x,1/2-y,-z
1/2+x,1/2-y,1/2+z
loop_
_atom_site_type_symbol
_atom_site_label
_atom_site_fract_x
_atom_site_fract_y
_atom_site_fract_z
Si Si1 0.216730 0.171925 0.613037
Si Si2 0.709022 0.164267 0.040276
Si Si3 0.897858 0.449092 0.279364
Si Si4 0.710185 0.564268 0.092252
Si Si5 0.000000 0.505201 0.250000
Si Si6 0.071054 0.095724 0.339108
Si Si7 0.428469 0.444135 0.018050
Si Si8 0.227179 0.442829 0.082882
O O1 0.236202 0.152025 0.481334
O O2 0.210468 0.255319 0.590130
O O3 0.141138 0.141631 0.500049
O O4 0.275373 0.134311 0.847466
O O5 0.639571 0.124936 0.829173
O O6 0.732624 0.121125 0.236526
O O7 0.938044 0.453974 0.526487
O O8 0.958559 0.459942 0.284580
O O9 0.840256 0.513003 0.128624
O O10 0.740467 0.491037 0.216485
O O11 0.638631 0.582170 0.028116
O O12 0.713223 0.559785 0.919823
O O13 0.000000 0.132641 0.250000
O O14 0.073719 0.026822 0.450347
O O15 0.069372 0.071582 0.157249
O O16 0.500000 0.416847 0.250000
#
# Coordination Sequence:
#
# PCOD9272113 Si02
#       8
#     8   8   8   8   4   8   8   8
#     4  11  22  38  60  83 118 164 198 242 305 362
#     4  10  22  40  59  84 120 156 200 248 303 361
#     4  10  20  37  60  92 115 149 195 252 304 359
#     4  11  20  35  58  88 116 149 199 253 297 348
#     4  10  20  36  64  88 116 146 194 250 310 366
#     4  11  22  36  56  87 116 156 198 242 294 359
#     4  11  21  33  56  85 117 150 193 243 295 343
#     4  11  21  34  63  89 117 149 199 253 302 354
#
# _framework density 18.880927
#
# number of rings (size 3 to 8) (size 9 to 14) (size 15 to 20)
#    0.000    1.333    2.667    6.400    1.867    0.533 
#    1.200    0.000    1.467    0.000    0.000    0.000 
#    0.000    0.000    0.000    0.000    0.000    0.000 
#
# Total GULP energy -167155.650639 kJ/mol
# GULP energy per Si atom -5571.855021 kJ/mol
# Density = 1.883795 g / cm^3
# Si number density = 18.880927 Si / 1000 Ang^3
#
#
#
# Elastic Constant Matrix: (Units=GPa)
#
#
# Indices 1 2 3 4 5 6 
#
# 1 99.7270 20.7561 19.8542 0.0000 -7.2432 0.0000
# 2 20.7561 75.4028 44.2758 0.0000 -7.8117 0.0000
# 3 19.8542 44.2758 83.5043 0.0000 1.5720 0.0000
# 4 0.0000 0.0000 0.0000 13.3100 0.0000 -2.8002
# 5 -7.2432 -7.8117 1.5720 0.0000 31.8675 0.0000
# 6 0.0000 0.0000 0.0000 -2.8002 0.0000 23.2887
#
#
#
# Elastic Compliance Matrix: (Units=1/GPa)
#
#
# Indices 1 2 3 4 5 6 
#
# 1 0.010888 -0.001792 -0.001678 0.000000 0.002118 0.000000
# 2 -0.001792 0.020465 -0.010521 0.000000 0.005128 0.000000
# 3 -0.001678 -0.010521 0.018026 0.000000 -0.003850 0.000000
# 4 0.000000 0.000000 0.000000 0.077082 0.000000 0.009268
# 5 0.002118 0.005128 -0.003850 0.000000 0.033308 0.000000
# 6 0.000000 0.000000 0.000000 0.009268 0.000000 0.044054
#
#
# Mechanical properties :
#
#
# Convention : Reuss Voigt Hill
#
# Bulk Modulus (GPa) = 46.74026 47.60069 47.17048
# Shear Modulus (GPa) = 20.92596 25.27645 23.10121
#
# Velocity S-wave (km/s) = 3.33274 3.66283 3.50168
# Velocity P-wave (km/s) = 6.29433 6.56919 6.43323
#
# Compressibility (1/GPa) = 0.02139483
#
# Stress axis : x y z
#
# Youngs Moduli (GPa) = 91.84090 48.86463 55.47678
#
# Poissons Ratio (x) = 0.08758 0.09312
# Poissons Ratio (y) = 0.16460 0.58368
# Poissons Ratio (z) = 0.15415 0.51412
#
# Static dielectric constant tensor:
#      x y z
#    x 1.692280 0.000000 0.036090 
#    y 0.000000 1.666950 0.000000 
#    z 0.036090 0.000000 1.701520 
# 
# From -- ./inp_files/67043.got.cif
#   From: 2010.05.17/outbox.cif.g08.bks.cpg/sg15_34_cif.got.tgz:67043.got - 2010.06.03 18:47:42.
