data_PCOD9272669
_publ_section_title
;
Structure prediction by ZEFSAII (Michael W. Deem and Ramdas Pophale) SiO2 
 PCOD9272669
Probable space group: C 2/C
;
_chemical_formula_sum "Si O2"
_cell_formula_units_Z 64
_cell_length_a 22.134785
_cell_length_b 20.016541
_cell_length_c 18.779474
_cell_angle_alpha 90.000000
_cell_angle_beta 22.236595
_cell_angle_gamma 90.000000
_cell_volume 3148.731952
_symmetry_space_group_name_H-M "C 2/C"
_symmetry_group_IT_number 15
_symmetry_cell_setting 'monoclinic'
loop_
_space_group_symop_operation_xyz
x,y,z
-x,y,1/2-z
-x,-y,-z
x,-y,1/2+z
1/2+x,1/2+y,z
1/2-x,1/2+y,1/2-z
1/2-x,1/2-y,-z
1/2+x,1/2-y,1/2+z
loop_
_atom_site_type_symbol
_atom_site_label
_atom_site_fract_x
_atom_site_fract_y
_atom_site_fract_z
Si Si1 0.095467 0.726126 0.771693
Si Si2 0.483074 0.905648 0.345894
Si Si3 0.701380 0.263951 0.325167
Si Si4 0.504707 0.308293 0.067076
Si Si5 0.620996 0.796729 0.679783
Si Si6 0.134885 0.118840 0.194512
Si Si7 0.312058 0.441938 0.022008
Si Si8 0.376027 0.598767 0.948197
O O1 0.245704 0.706881 0.656445
O O2 0.121404 0.800640 0.714385
O O3 0.045314 0.670842 0.771065
O O4 0.953531 0.722668 0.984069
O O5 0.500000 0.939851 0.250000
O O6 0.292600 0.903058 0.567389
O O7 0.622085 0.933766 0.245960
O O8 0.640581 0.313000 0.330110
O O9 0.837675 0.216091 0.146256
O O10 0.462666 0.249586 0.169476
O O11 0.542694 0.374845 0.068488
O O12 0.500000 0.818755 0.750000
O O13 0.750000 0.750000 0.500000
O O14 0.716632 0.857786 0.610029
O O15 0.962573 0.087516 0.402372
O O16 0.167730 0.093515 0.077955
O O17 0.343279 0.520617 0.982240
O O18 0.500000 0.615547 0.750000
#
# Coordination Sequence:
#
# PCOD9272669 Si02
#       8
#     8   8   8   8   8   8   8   8
#     4  11  20  37  61  94 118 161 203 272 314 363
#     4  10  22  36  61  92 128 154 208 258 330 380
#     4  10  22  35  58  89 123 158 210 259 310 358
#     4  11  20  37  58  89 123 159 205 261 307 376
#     4  12  20  33  59  93 124 151 199 262 325 379
#     4  10  20  37  59  88 126 162 203 251 318 377
#     4  10  23  39  57  90 132 163 197 253 312 403
#     4  12  22  39  61  89 128 164 199 248 332 377
#
# _framework density 20.325641999999998
#
# number of rings (size 3 to 8) (size 9 to 14) (size 15 to 20)
#    0.000    1.250    6.250    0.750    1.750    2.500 
#    0.000    0.000    0.000    7.500    0.000    0.000 
#    0.000    0.000    0.000    0.000    0.000    0.000 
#
# Total GULP energy -178296.420099 kJ/mol
# GULP energy per Si atom -5571.763128 kJ/mol
# Density = 2.027938 g / cm^3
# Si number density = 20.325642 Si / 1000 Ang^3
#
#
#
# Elastic Constant Matrix: (Units=GPa)
#
#
# Indices 1 2 3 4 5 6 
#
# 1 96.2151 35.3808 9.1039 -0.0008 -30.0082 -0.0038
# 2 35.3808 91.6679 31.5247 -0.0148 -6.1490 0.0035
# 3 9.1039 31.5247 96.4602 -0.0157 -28.0051 -0.0038
# 4 -0.0008 -0.0148 -0.0157 14.2461 0.0044 -12.6014
# 5 -30.0082 -6.1490 -28.0051 0.0044 43.6524 0.0033
# 6 -0.0038 0.0035 -0.0038 -12.6014 0.0033 7.5798
#
#
#
# Elastic Compliance Matrix: (Units=1/GPa)
#
#
# Indices 1 2 3 4 5 6 
#
# 1 0.016831 -0.007205 0.004707 -0.000003 0.013576 0.000002
# 2 -0.007205 0.015413 -0.006347 -0.000002 -0.006853 -0.000015
# 3 0.004707 -0.006347 0.015579 -0.000029 0.012336 -0.000041
# 4 -0.000003 -0.000002 -0.000029 -0.149172 0.000013 -0.247999
# 5 0.013576 -0.006853 0.012336 0.000013 0.039189 0.000020
# 6 0.000002 -0.000015 -0.000041 -0.247999 0.000020 -0.280367
#
#
# Mechanical properties :
#
#
# Convention : Reuss Voigt Hill
#
# Bulk Modulus (GPa) = 33.18467 48.48465 40.83466
# Shear Modulus (GPa) = -15.88337 26.98457 5.55060
#
# Velocity S-wave (km/s) = -2.79847 3.64759 1.65432
# Velocity P-wave (km/s) = 2.43312 6.45334 4.87677
#
# Compressibility (1/GPa) = 0.03013440
#
# Stress axis : x y z
#
# Youngs Moduli (GPa) = 59.41311 64.88178 64.19095
#
# Poissons Ratio (x) = 0.46744 -0.30217
# Poissons Ratio (y) = 0.42805 0.40741
# Poissons Ratio (z) = -0.27968 0.41180
#
# Static dielectric constant tensor:
#      x y z
#    x 1.818360 0.000000 -0.052030 
#    y 0.000000 1.702210 0.000010 
#    z -0.052030 0.000010 1.796590 
# 
# From -- ./inp_files/256007.got.cif
#   From: 2010.05.17/outbox.cif.g08.bks.cpg/sg15_129_cif.got.tgz:256007.got - 2010.06.03 18:47:42.
