data_PCOD9272616
_publ_section_title
;
Structure prediction by ZEFSAII (Michael W. Deem and Ramdas Pophale) SiO2 
 PCOD9272616
Probable space group: C 2/C
;
_chemical_formula_sum "Si O2"
_cell_formula_units_Z 36
_cell_length_a 13.673145
_cell_length_b 5.812963
_cell_length_c 19.095432
_cell_angle_alpha 90.000000
_cell_angle_beta 95.303959
_cell_angle_gamma 90.000000
_cell_volume 1511.234852
_symmetry_space_group_name_H-M "C 2/C"
_symmetry_group_IT_number 15
_symmetry_cell_setting 'monoclinic'
loop_
_space_group_symop_operation_xyz
x,y,z
-x,y,1/2-z
-x,-y,-z
x,-y,1/2+z
1/2+x,1/2+y,z
1/2-x,1/2+y,1/2-z
1/2-x,1/2-y,-z
1/2+x,1/2-y,1/2+z
loop_
_atom_site_type_symbol
_atom_site_label
_atom_site_fract_x
_atom_site_fract_y
_atom_site_fract_z
Si Si1 0.000000 0.877524 0.250000
Si Si2 0.786978 0.836229 0.426806
Si Si3 0.607600 0.323525 0.849682
Si Si4 0.403688 0.364130 0.019380
Si Si5 0.025483 0.436145 0.614620
O O1 0.985519 0.720394 0.316716
O O2 0.910147 0.045454 0.223586
O O3 0.750000 0.750000 0.500000
O O4 0.700837 0.842175 0.363944
O O5 0.871049 0.655857 0.408200
O O6 0.829068 0.088350 0.451329
O O7 0.628128 0.510501 0.911343
O O8 0.507019 0.189578 0.863387
O O9 0.443254 0.123299 0.049795
O O10 0.500000 0.500000 0.000000
#
# Coordination Sequence:
#
# PCOD9272616 Si02
#       5
#     4   8   8   8   8
#     4  10  22  42  52  80 118 156 216 250 288 360
#     4   9  19  36  59  95 116 145 202 247 304 374
#     4  10  20  37  59  82 115 159 200 245 303 361
#     4   8  17  33  55  86 121 140 186 248 295 364
#     4  10  20  38  60  83 119 165 193 253 312 353
#
# _framework density 23.821577999999999
#
# number of rings (size 3 to 8) (size 9 to 14) (size 15 to 20)
#    0.000    2.667    0.000    0.667    0.000    8.889 
#    8.000   15.556    0.000    0.000    0.000    0.000 
#    0.000    0.000    0.000    0.000    0.000    0.000 
#
# Total GULP energy -100313.056438 kJ/mol
# GULP energy per Si atom -5572.947580 kJ/mol
# Density = 2.376736 g / cm^3
# Si number density = 23.821578 Si / 1000 Ang^3
#
#
#
# Elastic Constant Matrix: (Units=GPa)
#
#
# Indices 1 2 3 4 5 6 
#
# 1 84.2279 13.5486 45.2289 0.0000 4.7566 0.0000
# 2 13.5486 61.2846 42.8440 0.0000 1.0739 0.0000
# 3 45.2289 42.8440 105.7792 0.0000 29.0977 0.0000
# 4 0.0000 0.0000 0.0000 48.0823 0.0000 -4.5289
# 5 4.7566 1.0739 29.0977 0.0000 36.7804 0.0000
# 6 0.0000 0.0000 0.0000 -4.5289 0.0000 21.7267
#
#
#
# Elastic Compliance Matrix: (Units=1/GPa)
#
#
# Indices 1 2 3 4 5 6 
#
# 1 0.016292 0.003113 -0.009743 0.000000 0.005510 0.000000
# 2 0.003113 0.025630 -0.014565 0.000000 0.010372 0.000000
# 3 -0.009743 -0.014565 0.024355 0.000000 -0.017583 0.000000
# 4 0.000000 0.000000 0.000000 0.021214 0.000000 0.004422
# 5 0.005510 0.010372 -0.017583 0.000000 0.040083 0.000000
# 6 0.000000 0.000000 0.000000 0.004422 0.000000 0.046948
#
#
# Mechanical properties :
#
#
# Convention : Reuss Voigt Hill
#
# Bulk Modulus (GPa) = 41.86241 50.50386 46.18313
# Shear Modulus (GPa) = 22.23465 31.29590 26.76528
#
# Velocity S-wave (km/s) = 3.05845 3.62852 3.35561
# Velocity P-wave (km/s) = 5.48485 6.22911 5.86879
#
# Compressibility (1/GPa) = 0.02388778
#
# Stress axis : x y z
#
# Youngs Moduli (GPa) = 61.37863 39.01737 41.05903
#
# Poissons Ratio (x) = -0.12145 0.40002
# Poissons Ratio (y) = -0.19105 0.59801
# Poissons Ratio (z) = 0.59798 0.56828
#
# Static dielectric constant tensor:
#      x y z
#    x 2.033470 0.000000 0.035110 
#    y 0.000000 2.019560 0.000000 
#    z 0.035110 0.000000 1.874860 
# 
# From -- ./inp_files/241438.got.cif
#   From: 2010.05.17/outbox.cif.g08.bks.cpg/sg15_121_cif.got.tgz:241438.got - 2010.06.03 18:47:42.
