data_PCOD9272014
_publ_section_title
;
Structure prediction by ZEFSAII (Michael W. Deem and Ramdas Pophale) SiO2 
 PCOD9272014
Probable space group: C 2/C
;
_chemical_formula_sum "Si O2"
_cell_formula_units_Z 60
_cell_length_a 12.081541
_cell_length_b 16.819065
_cell_length_c 23.276403
_cell_angle_alpha 90.000000
_cell_angle_beta 36.746415
_cell_angle_gamma 90.000000
_cell_volume 2829.700789
_symmetry_space_group_name_H-M "C 2/C"
_symmetry_group_IT_number 15
_symmetry_cell_setting 'monoclinic'
loop_
_space_group_symop_operation_xyz
x,y,z
-x,y,1/2-z
-x,-y,-z
x,-y,1/2+z
1/2+x,1/2+y,z
1/2-x,1/2+y,1/2-z
1/2-x,1/2-y,-z
1/2+x,1/2-y,1/2+z
loop_
_atom_site_type_symbol
_atom_site_label
_atom_site_fract_x
_atom_site_fract_y
_atom_site_fract_z
Si Si1 0.214869 0.215153 0.168073
Si Si2 0.605003 0.821105 0.031711
Si Si3 0.951739 0.989531 0.663999
Si Si4 0.106889 0.409687 0.826476
Si Si5 0.022837 0.161589 0.056352
Si Si6 0.176940 0.895457 0.379183
Si Si7 0.874088 0.494566 0.497926
Si Si8 0.000000 0.520441 0.250000
O O1 0.312460 0.188382 0.067567
O O2 0.315498 0.171502 0.179091
O O3 0.229679 0.310037 0.170667
O O4 0.000000 0.192808 0.250000
O O5 0.763841 0.819027 0.014845
O O6 0.451610 0.751124 0.097748
O O7 0.555522 0.912626 0.059713
O O8 0.768835 0.973207 0.776719
O O9 0.955210 0.907433 0.625405
O O10 0.157311 0.992604 0.603002
O O11 0.915856 0.063777 0.637227
O O12 0.060911 0.425788 0.778756
O O13 0.920309 0.433305 0.936886
O O14 0.028556 0.125640 0.990562
O O15 0.329288 0.960783 0.335849
O O16 0.000000 0.500000 0.500000
#
# Coordination Sequence:
#
# PCOD9272014 Si02
#       8
#     8   8   8   8   8   8   8   4
#     4  11  20  36  61  95 124 163 213 275 313 377
#     4   9  18  32  55  91 117 154 202 253 322 364
#     4  10  22  39  58  94 121 169 211 261 321 378
#     4  11  24  38  65  93 129 167 215 262 326 386
#     4   9  17  32  56  85 119 149 199 258 307 369
#     4  10  20  36  63  88 122 166 217 262 315 377
#     4  11  21  39  63  87 129 165 208 262 320 387
#     4  10  20  40  58  94 124 170 212 264 318 390
#
# _framework density 21.203655999999999
#
# number of rings (size 3 to 8) (size 9 to 14) (size 15 to 20)
#    0.000    1.867    2.000    3.600    0.000    1.067 
#    4.800    0.667    5.867    0.000    0.000    0.000 
#    0.000    0.000    0.000    0.000    0.000    0.000 
#
# Total GULP energy -167116.971688 kJ/mol
# GULP energy per Si atom -5570.565723 kJ/mol
# Density = 2.115540 g / cm^3
# Si number density = 21.203656 Si / 1000 Ang^3
#
#
#
# Elastic Constant Matrix: (Units=GPa)
#
#
# Indices 1 2 3 4 5 6 
#
# 1 106.2844 33.3325 15.7801 -0.0002 -3.4458 0.0001
# 2 33.3325 83.4677 -0.6491 -0.0010 1.0635 -0.0001
# 3 15.7801 -0.6491 38.6143 -0.0025 -6.7477 -0.0006
# 4 -0.0002 -0.0010 -0.0025 23.4663 0.0001 3.4983
# 5 -3.4458 1.0635 -6.7477 0.0001 25.8813 0.0002
# 6 0.0001 -0.0001 -0.0006 3.4983 0.0002 37.3828
#
#
#
# Elastic Compliance Matrix: (Units=1/GPa)
#
#
# Indices 1 2 3 4 5 6 
#
# 1 0.011592 -0.004673 -0.004728 -0.000001 0.000503 0.000000
# 2 -0.004673 0.013871 0.002027 0.000001 -0.000664 0.000000
# 3 -0.004728 0.002027 0.029063 0.000003 0.006864 0.000000
# 4 -0.000001 0.000001 0.000003 0.043217 0.000000 -0.004044
# 5 0.000503 -0.000664 0.006864 0.000000 0.040522 0.000000
# 6 0.000000 0.000000 0.000000 -0.004044 0.000000 0.027129
#
#
# Mechanical properties :
#
#
# Convention : Reuss Voigt Hill
#
# Bulk Modulus (GPa) = 25.13931 36.14370 30.64150
# Shear Modulus (GPa) = 25.85298 29.33959 27.59629
#
# Velocity S-wave (km/s) = 3.49559 3.72385 3.61153
# Velocity P-wave (km/s) = 5.30793 5.96426 5.64564
#
# Compressibility (1/GPa) = 0.03977835
#
# Stress axis : x y z
#
# Youngs Moduli (GPa) = 86.26355 72.09361 34.40812
#
# Poissons Ratio (x) = 0.33686 0.16268
# Poissons Ratio (y) = 0.40307 -0.06973
# Poissons Ratio (z) = 0.40786 -0.14611
#
# Static dielectric constant tensor:
#      x y z
#    x 1.774630 0.000000 0.029680 
#    y 0.000000 0.712870 0.000010 
#    z 0.029680 0.000010 1.860440 
# 
# From -- ./inp_files/270588.got.cif
#   From: 2010.05.17/outbox.cif.g08.bks.cpg/sg15_136_cif.got.tgz:270588.got - 2010.06.03 18:47:42.
