data_PCOD9272484
_publ_section_title
;
Structure prediction by ZEFSAII (Michael W. Deem and Ramdas Pophale) SiO2 
 PCOD9272484
Probable space group: C 2/C
;
_chemical_formula_sum "Si O2"
_cell_formula_units_Z 48
_cell_length_a 20.039756
_cell_length_b 23.389860
_cell_length_c 8.642460
_cell_angle_alpha 90.000000
_cell_angle_beta 30.711897
_cell_angle_gamma 90.000000
_cell_volume 2068.909657
_symmetry_space_group_name_H-M "C 2/C"
_symmetry_group_IT_number 15
_symmetry_cell_setting 'monoclinic'
loop_
_space_group_symop_operation_xyz
x,y,z
-x,y,1/2-z
-x,-y,-z
x,-y,1/2+z
1/2+x,1/2+y,z
1/2-x,1/2+y,1/2-z
1/2-x,1/2-y,-z
1/2+x,1/2-y,1/2+z
loop_
_atom_site_type_symbol
_atom_site_label
_atom_site_fract_x
_atom_site_fract_y
_atom_site_fract_z
Si Si1 0.428317 0.887879 0.174504
Si Si2 0.607455 0.554577 0.169310
Si Si3 0.712804 0.543185 0.276818
Si Si4 0.249012 0.655518 0.705819
Si Si5 0.354995 0.225796 0.015276
Si Si6 0.272167 0.867365 0.900504
O O1 0.343853 0.937811 0.423532
O O2 0.383851 0.872958 0.090327
O O3 0.383168 0.829131 0.351190
O O4 0.582234 0.895028 0.885921
O O5 0.500000 0.552206 0.250000
O O6 0.605100 0.536856 0.354452
O O7 0.717131 0.514050 0.869455
O O8 0.646257 0.620964 0.103440
O O9 0.688543 0.593632 0.450629
O O10 0.261658 0.722743 0.653700
O O11 0.275380 0.639644 0.830842
O O12 0.294676 0.195479 0.285803
O O13 0.500000 0.251436 0.750000
#
# Coordination Sequence:
#
# PCOD9272484 Si02
#       6
#     8   8   8   8   8   8
#     4   9  20  37  58  82 115 151 188 234 280 326
#     4  11  23  39  59  83 113 145 183 232 281 337
#     4  10  21  39  59  80 108 148 185 225 283 332
#     4  11  20  34  57  86 114 151 190 228 279 336
#     4   9  18  34  56  81 115 153 188 231 278 328
#     4  10  20  37  57  84 116 148 188 234 277 329
#
# _framework density 23.200624999999999
#
# number of rings (size 3 to 8) (size 9 to 14) (size 15 to 20)
#    0.000    2.000    0.000    5.000    0.000    0.000 
#    0.000   15.000    0.000    8.000    0.000    0.000 
#    0.000    0.000    0.000    0.000    0.000    0.000 
#
# Total GULP energy -133818.720445 kJ/mol
# GULP energy per Si atom -5575.780019 kJ/mol
# Density = 2.314782 g / cm^3
# Si number density = 23.200625 Si / 1000 Ang^3
#
#
#
# Elastic Constant Matrix: (Units=GPa)
#
#
# Indices 1 2 3 4 5 6 
#
# 1 142.6624 20.8895 11.0340 0.0028 11.4820 -0.0012
# 2 20.8895 71.6912 11.9484 -0.0006 -3.1029 0.0002
# 3 11.0340 11.9484 22.9381 0.0036 1.1659 -0.0012
# 4 0.0028 -0.0006 0.0036 11.4550 -0.0024 6.6884
# 5 11.4820 -3.1029 1.1659 -0.0024 33.3267 0.0011
# 6 -0.0012 0.0002 -0.0012 6.6884 0.0011 39.7724
#
#
#
# Elastic Compliance Matrix: (Units=1/GPa)
#
#
# Indices 1 2 3 4 5 6 
#
# 1 0.007713 -0.001940 -0.002560 -0.000002 -0.002748 0.000001
# 2 -0.001940 0.015860 -0.007451 0.000005 0.002406 -0.000001
# 3 -0.002560 -0.007451 0.048785 -0.000018 -0.001518 0.000005
# 4 -0.000002 0.000005 -0.000018 0.096803 0.000009 -0.016279
# 5 -0.002748 0.002406 -0.001518 0.000009 0.031230 -0.000003
# 6 0.000001 -0.000001 0.000005 -0.016279 -0.000003 0.027881
#
#
# Mechanical properties :
#
#
# Convention : Reuss Voigt Hill
#
# Bulk Modulus (GPa) = 20.63676 36.11507 28.37591
# Shear Modulus (GPa) = 18.63415 29.80548 24.21981
#
# Velocity S-wave (km/s) = 2.83711 3.58814 3.23449
# Velocity P-wave (km/s) = 4.43243 5.72420 5.11923
#
# Compressibility (1/GPa) = 0.04845722
#
# Stress axis : x y z
#
# Youngs Moduli (GPa) = 129.65516 63.05266 20.49801
#
# Poissons Ratio (x) = 0.12230 0.05248
# Poissons Ratio (y) = 0.25148 0.15272
# Poissons Ratio (z) = 0.33193 0.46978
#
# Static dielectric constant tensor:
#      x y z
#    x 1.966410 0.000000 -0.028230 
#    y 0.000000 1.833270 0.000000 
#    z -0.028230 0.000000 1.866860 
# 
# From -- ./inp_files/59085.got.cif
#   From: 2010.05.17/outbox.cif.g08.bks.cpg/sg15_30_cif.got.tgz:59085.got - 2010.06.03 18:47:42.
