data_PCOD9272643
_publ_section_title
;
Structure prediction by ZEFSAII (Michael W. Deem and Ramdas Pophale) SiO2 
 PCOD9272643
Probable space group: C 2/C
;
_chemical_formula_sum "Si O2"
_cell_formula_units_Z 44
_cell_length_a 25.596806
_cell_length_b 6.097548
_cell_length_c 25.699578
_cell_angle_alpha 90.000000
_cell_angle_beta 31.240212
_cell_angle_gamma 90.000000
_cell_volume 2080.282376
_symmetry_space_group_name_H-M "C 2/C"
_symmetry_group_IT_number 15
_symmetry_cell_setting 'monoclinic'
loop_
_space_group_symop_operation_xyz
x,y,z
-x,y,1/2-z
-x,-y,-z
x,-y,1/2+z
1/2+x,1/2+y,z
1/2-x,1/2+y,1/2-z
1/2-x,1/2-y,-z
1/2+x,1/2-y,1/2+z
loop_
_atom_site_type_symbol
_atom_site_label
_atom_site_fract_x
_atom_site_fract_y
_atom_site_fract_z
Si Si1 0.675332 0.330004 0.635357
Si Si2 0.849777 0.436564 0.130216
Si Si3 0.000000 0.166292 0.750000
Si Si4 0.642275 0.615923 0.277761
Si Si5 0.666225 0.936488 0.560468
Si Si6 0.982477 0.818783 0.058769
O O1 0.588319 0.508492 0.696426
O O2 0.656113 0.267713 0.711256
O O3 0.785635 0.437851 0.530330
O O4 0.666443 0.121628 0.605269
O O5 0.738817 0.462577 0.203777
O O6 0.856760 0.282771 0.174923
O O7 0.893012 0.667796 0.112896
O O8 0.921061 0.336998 0.024756
O O9 0.942478 0.319218 0.841700
O O10 0.547040 0.454207 0.365119
O O11 0.750000 0.750000 0.500000
O O12 0.000000 0.000000 0.000000
#
# Coordination Sequence:
#
# PCOD9272643 Si02
#       6
#     8   8   4   8   8   8
#     4  10  22  38  63  92 122 157 208 250 310 371
#     4  10  20  37  59  85 129 163 202 247 287 354
#     4  10  20  40  66  84 122 158 196 264 304 368
#     4  11  21  37  62  90 123 166 199 246 298 357
#     4   9  20  41  60  88 122 153 200 261 307 368
#     4   9  20  38  56  82 118 161 203 246 287 343
#
# _framework density 21.150976
#
# number of rings (size 3 to 8) (size 9 to 14) (size 15 to 20)
#    0.000    2.182    1.818    0.545    0.000    4.364 
#    0.000   20.000    0.000    0.000    0.000    0.000 
#    0.000    0.000    0.000    0.000    0.000    0.000 
#
# Total GULP energy -122625.547326 kJ/mol
# GULP energy per Si atom -5573.888515 kJ/mol
# Density = 2.110284 g / cm^3
# Si number density = 21.150976 Si / 1000 Ang^3
#
#
#
# Elastic Constant Matrix: (Units=GPa)
#
#
# Indices 1 2 3 4 5 6 
#
# 1 26.4658 5.5085 27.3976 0.0492 9.9099 -0.0384
# 2 5.5085 68.9017 34.7070 -0.0800 -4.4303 0.0588
# 3 27.3976 34.7070 131.7785 -0.0170 2.2371 0.0173
# 4 0.0492 -0.0800 -0.0170 42.5163 -0.0381 -2.4049
# 5 9.9099 -4.4303 2.2371 -0.0381 27.6682 0.0181
# 6 -0.0384 0.0588 0.0173 -2.4049 0.0181 11.3374
#
#
#
# Elastic Compliance Matrix: (Units=1/GPa)
#
#
# Indices 1 2 3 4 5 6 
#
# 1 0.057010 -0.000009 -0.011520 -0.000075 -0.019489 0.000226
# 2 -0.000009 0.016993 -0.004526 0.000028 0.003090 -0.000080
# 3 -0.011520 -0.004526 0.011133 0.000010 0.002501 -0.000035
# 4 -0.000075 0.000028 0.000010 0.023806 0.000060 0.005049
# 5 -0.019489 0.003090 0.002501 0.000060 0.043416 -0.000142
# 6 0.000226 -0.000080 -0.000035 0.005049 -0.000142 0.089277
#
#
# Mechanical properties :
#
#
# Convention : Reuss Voigt Hill
#
# Bulk Modulus (GPa) = 18.85835 40.26359 29.56097
# Shear Modulus (GPa) = 17.15748 26.93990 22.04869
#
# Velocity S-wave (km/s) = 2.85123 3.57276 3.23219
# Velocity P-wave (km/s) = 4.44688 6.00808 5.28545
#
# Compressibility (1/GPa) = 0.05302691
#
# Stress axis : x y z
#
# Youngs Moduli (GPa) = 17.54092 58.84849 89.82227
#
# Poissons Ratio (x) = 0.00050 1.03472
# Poissons Ratio (y) = 0.00015 0.40655
# Poissons Ratio (z) = 0.20206 0.26636
#
# Static dielectric constant tensor:
#      x y z
#    x 1.728810 0.000390 -0.015240 
#    y 0.000390 1.824350 -0.000610 
#    z -0.015240 -0.000610 1.838390 
# 
# From -- ./inp_files/175390.got.cif
#   From: 2010.05.17/outbox.cif.g08.bks.cpg/sg15_88_cif.got.tgz:175390.got - 2010.06.03 18:47:42.
