data_PCOD9272685
_publ_section_title
;
Structure prediction by ZEFSAII (Michael W. Deem and Ramdas Pophale) SiO2 
 PCOD9272685
Probable space group: C 2/C
;
_chemical_formula_sum "Si O2"
_cell_formula_units_Z 56
_cell_length_a 21.827273
_cell_length_b 20.249088
_cell_length_c 11.139638
_cell_angle_alpha 90.000000
_cell_angle_beta 146.239639
_cell_angle_gamma 90.000000
_cell_volume 2736.103412
_symmetry_space_group_name_H-M "C 2/C"
_symmetry_group_IT_number 15
_symmetry_cell_setting 'monoclinic'
loop_
_space_group_symop_operation_xyz
x,y,z
-x,y,1/2-z
-x,-y,-z
x,-y,1/2+z
1/2+x,1/2+y,z
1/2-x,1/2+y,1/2-z
1/2-x,1/2-y,-z
1/2+x,1/2-y,1/2+z
loop_
_atom_site_type_symbol
_atom_site_label
_atom_site_fract_x
_atom_site_fract_y
_atom_site_fract_z
Si Si1 0.330161 0.346982 0.136472
Si Si2 0.628008 0.413313 0.919071
Si Si3 0.774117 0.948612 0.858516
Si Si4 0.631058 0.141268 0.966604
Si Si5 0.718485 0.250368 0.644971
Si Si6 0.710615 0.809941 0.354198
Si Si7 0.956749 0.927919 0.968812
O O1 0.269404 0.305488 0.140442
O O2 0.443064 0.377698 0.366854
O O3 0.266305 0.409377 0.971690
O O4 0.346206 0.297657 0.051111
O O5 0.500000 0.419762 0.750000
O O6 0.625025 0.410550 0.770664
O O7 0.703559 0.473862 0.085794
O O8 0.686913 0.345240 0.045320
O O9 0.678451 0.923236 0.613619
O O10 0.889372 0.928243 0.981656
O O11 0.500000 0.147877 0.750000
O O12 0.657679 0.143168 0.867252
O O13 0.691553 0.201272 0.140458
O O14 0.646463 0.219793 0.636049
O O15 0.750000 0.750000 0.500000
O O16 0.000000 0.000000 0.000000
#
# Coordination Sequence:
#
# PCOD9272685 Si02
#       7
#     8   8   8   8   8   8   8
#     4  10  20  37  59  90 133 166 201 258 333 390
#     4  12  22  35  64 102 130 162 201 261 329 395
#     4  11  22  39  60  95 132 162 207 267 331 387
#     4  10  22  43  63  85 121 174 225 264 313 375
#     4   9  21  39  61  90 125 168 217 262 313 384
#     4  10  22  40  61  91 125 167 216 260 311 381
#     4  12  21  35  59  98 134 160 198 253 338 401
#
# _framework density 20.467063
#
# number of rings (size 3 to 8) (size 9 to 14) (size 15 to 20)
#    0.000    1.429    4.286    1.286    0.000    4.571 
#    2.571    0.714    0.000    0.000    3.714    0.000 
#    0.000    0.000    0.000    0.000    0.000    0.000 
#
# Total GULP energy -155982.462178 kJ/mol
# GULP energy per Si atom -5570.802221 kJ/mol
# Density = 2.042048 g / cm^3
# Si number density = 20.467063 Si / 1000 Ang^3
#
#
#
# Elastic Constant Matrix: (Units=GPa)
#
#
# Indices 1 2 3 4 5 6 
#
# 1 84.8977 36.3753 35.4572 0.0000 -21.0029 0.0000
# 2 36.3753 106.4945 30.9985 0.0000 -4.3521 0.0000
# 3 35.4572 30.9985 66.1042 0.0000 -8.4343 0.0000
# 4 0.0000 0.0000 0.0000 23.4392 0.0000 -7.5372
# 5 -21.0029 -4.3521 -8.4343 0.0000 33.0695 0.0000
# 6 0.0000 0.0000 0.0000 -7.5372 0.0000 24.4668
#
#
#
# Elastic Compliance Matrix: (Units=1/GPa)
#
#
# Indices 1 2 3 4 5 6 
#
# 1 0.018784 -0.003992 -0.006975 0.000000 0.009625 0.000000
# 2 -0.003992 0.011724 -0.003600 0.000000 -0.001911 0.000000
# 3 -0.006975 -0.003600 0.020602 0.000000 0.000351 0.000000
# 4 0.000000 0.000000 0.000000 0.047355 0.000000 0.014588
# 5 0.009625 -0.001911 0.000351 0.000000 0.036191 0.000000
# 6 0.000000 0.000000 0.000000 0.014588 0.000000 0.045366
#
#
# Mechanical properties :
#
#
# Convention : Reuss Voigt Hill
#
# Bulk Modulus (GPa) = 45.50726 51.46204 48.48465
# Shear Modulus (GPa) = 23.09685 26.50612 24.80148
#
# Velocity S-wave (km/s) = 3.36294 3.60260 3.48483
# Velocity P-wave (km/s) = 6.11243 6.51946 6.31923
#
# Compressibility (1/GPa) = 0.02197452
#
# Stress axis : x y z
#
# Youngs Moduli (GPa) = 53.23739 85.29799 48.53928
#
# Poissons Ratio (x) = 0.34053 0.33857
# Poissons Ratio (y) = 0.21254 0.17474
# Poissons Ratio (z) = 0.37134 0.30707
#
# Static dielectric constant tensor:
#      x y z
#    x 1.773110 0.000000 -0.008510 
#    y 0.000000 1.769020 0.000000 
#    z -0.008510 0.000000 1.768500 
# 
# From -- ./inp_files/119869.got.cif
#   From: 2010.05.17/outbox.cif.g08.bks.cpg/sg15_60_cif.got.tgz:119869.got - 2010.06.03 18:47:42.
