data_PCOD9272220
_publ_section_title
;
Structure prediction by ZEFSAII (Michael W. Deem and Ramdas Pophale) SiO2 
 PCOD9272220
Probable space group: C 2/C
;
_chemical_formula_sum "Si O2"
_cell_formula_units_Z 56
_cell_length_a 26.238771
_cell_length_b 12.841288
_cell_length_c 13.459970
_cell_angle_alpha 90.000000
_cell_angle_beta 32.609831
_cell_angle_gamma 90.000000
_cell_volume 2444.087239
_symmetry_space_group_name_H-M "C 2/C"
_symmetry_group_IT_number 15
_symmetry_cell_setting 'monoclinic'
loop_
_space_group_symop_operation_xyz
x,y,z
-x,y,1/2-z
-x,-y,-z
x,-y,1/2+z
1/2+x,1/2+y,z
1/2-x,1/2+y,1/2-z
1/2-x,1/2-y,-z
1/2+x,1/2-y,1/2+z
loop_
_atom_site_type_symbol
_atom_site_label
_atom_site_fract_x
_atom_site_fract_y
_atom_site_fract_z
Si Si1 0.107473 0.653645 0.164749
Si Si2 0.626771 0.344229 0.680922
Si Si3 0.061286 0.797110 0.425738
Si Si4 0.659134 0.808459 0.952861
Si Si5 0.801996 0.948837 0.389754
Si Si6 0.000000 0.520540 0.750000
Si Si7 0.500000 0.507702 0.250000
Si Si8 0.151643 0.850732 0.972604
O O1 0.094591 0.715995 0.287670
O O2 0.032493 0.560650 0.280884
O O3 0.210390 0.601353 0.991440
O O4 0.107909 0.739620 0.076284
O O5 0.665501 0.257097 0.543742
O O6 0.700630 0.426798 0.602387
O O7 0.560121 0.419765 0.723109
O O8 0.551816 0.297475 0.880972
O O9 0.107435 0.763191 0.454287
O O10 0.106037 0.906565 0.318706
O O11 0.761571 0.837900 0.743500
O O12 0.588635 0.906035 0.080484
O O13 0.808341 0.901233 0.490510
O O14 0.430348 0.430325 0.423850
#
# Coordination Sequence:
#
# PCOD9272220 Si02
#       8
#     8   8   8   8   8   4   4   8
#     4  11  23  44  64  92 129 178 228 264 326 396
#     4  11  22  39  68 101 131 169 219 272 327 390
#     4  11  19  42  70  93 133 174 213 272 331 389
#     4  12  22  43  66  94 138 175 209 268 340 384
#     4  10  21  39  69  96 124 171 224 269 328 388
#     4  12  28  42  64  96 132 180 224 266 334 400
#     4  10  20  36  66 100 128 160 228 264 314 392
#     4  10  21  40  65  96 132 172 211 274 321 385
#
# _framework density 22.912437000000001
#
# number of rings (size 3 to 8) (size 9 to 14) (size 15 to 20)
#    0.000    1.143    5.714    1.714    0.000    4.000 
#    0.000    2.143    6.286    0.000    0.000    0.000 
#    0.000    0.000    0.000    0.000    0.000    0.000 
#
# Total GULP energy -156751.971289 kJ/mol
# GULP energy per Si atom -5598.284689 kJ/mol
# Density = 2.286029 g / cm^3
# Si number density = 22.912437 Si / 1000 Ang^3
#
#
#
# Elastic Constant Matrix: (Units=GPa)
#
#
# Indices 1 2 3 4 5 6 
#
# 1 34.7953 34.8552 7.3168 0.0000 5.4400 0.0000
# 2 34.8552 123.6204 59.2443 0.0000 -0.4094 0.0000
# 3 7.3168 59.2443 141.8997 0.0000 4.0838 0.0000
# 4 0.0000 0.0000 0.0000 -4.3874 0.0000 -1.4770
# 5 5.4400 -0.4094 4.0838 0.0000 26.9146 0.0000
# 6 0.0000 0.0000 0.0000 -1.4770 0.0000 37.7458
#
#
#
# Elastic Compliance Matrix: (Units=1/GPa)
#
#
# Indices 1 2 3 4 5 6 
#
# 1 0.043695 -0.014258 0.003978 0.000000 -0.009652 0.000000
# 2 -0.014258 0.014782 -0.005550 0.000000 0.003949 0.000000
# 3 0.003978 -0.005550 0.009225 0.000000 -0.002288 0.000000
# 4 0.000000 0.000000 0.000000 -0.224960 0.000000 -0.008803
# 5 -0.009652 0.003949 -0.002288 0.000000 0.039513 0.000000
# 6 0.000000 0.000000 0.000000 -0.008803 0.000000 0.026149
#
#
# Mechanical properties :
#
#
# Convention : Reuss Voigt Hill
#
# Bulk Modulus (GPa) = 27.74617 55.90532 41.82574
# Shear Modulus (GPa) = -104.33839 25.31454 -39.51193
#
# Velocity S-wave (km/s) = -6.75550 3.32752 -4.15718
# Velocity P-wave (km/s) = 6.97947 6.26224 2.17915
#
# Compressibility (1/GPa) = 0.03604102
#
# Stress axis : x y z
#
# Youngs Moduli (GPa) = 22.88602 67.64802 108.39809
#
# Poissons Ratio (x) = 0.96453 -0.43117
# Poissons Ratio (y) = 0.32631 0.60163
# Poissons Ratio (z) = -0.09103 0.37546
#
# Static dielectric constant tensor:
#      x y z
#    x 1.900550 0.000000 -0.023340 
#    y 0.000000 1.840170 0.000000 
#    z -0.023340 0.000000 1.821760 
# 
# From -- ./inp_files/181944.got.cif
#   From: 2010.05.17/outbox.cif.g08.bks.cpg/sg15_91_cif.got.tgz:181944.got - 2010.06.03 18:47:42.
