data_PCOD9272092
_publ_section_title
;
Structure prediction by ZEFSAII (Michael W. Deem and Ramdas Pophale) SiO2 
 PCOD9272092
Probable space group: C 2/C
;
_chemical_formula_sum "Si O2"
_cell_formula_units_Z 40
_cell_length_a 17.429919
_cell_length_b 6.741916
_cell_length_c 14.436946
_cell_angle_alpha 90.000000
_cell_angle_beta 101.933033
_cell_angle_gamma 90.000000
_cell_volume 1659.839196
_symmetry_space_group_name_H-M "C 2/C"
_symmetry_group_IT_number 15
_symmetry_cell_setting 'monoclinic'
loop_
_space_group_symop_operation_xyz
x,y,z
-x,y,1/2-z
-x,-y,-z
x,-y,1/2+z
1/2+x,1/2+y,z
1/2-x,1/2+y,1/2-z
1/2-x,1/2-y,-z
1/2+x,1/2-y,1/2+z
loop_
_atom_site_type_symbol
_atom_site_label
_atom_site_fract_x
_atom_site_fract_y
_atom_site_fract_z
Si Si1 0.349203 0.681150 0.853467
Si Si2 0.090153 0.202709 0.096096
Si Si3 0.023489 0.926442 0.384954
Si Si4 0.672283 0.754009 0.850513
Si Si5 0.808395 0.489040 0.970817
O O1 0.342910 0.441479 0.846807
O O2 0.444118 0.701488 0.874992
O O3 0.312222 0.781107 0.754095
O O4 0.312495 0.763523 0.938968
O O5 0.122943 0.413573 0.077660
O O6 0.070058 0.102736 0.992047
O O7 0.011218 0.150022 0.133022
O O8 0.085708 0.847423 0.328184
O O9 0.730950 0.599321 0.914665
O O10 0.673581 0.943434 0.919811
#
# Coordination Sequence:
#
# PCOD9272092 Si02
#       5
#     8   8   8   8   8
#     4  10  20  36  64  80 116 157 189 235 292 339
#     4   8  18  36  61  81 111 151 189 229 293 338
#     4   8  17  38  59  80 113 147 187 238 283 333
#     4  10  21  37  59  85 119 148 193 243 286 332
#     4  10  22  39  58  86 117 152 190 240 286 344
#
# _framework density 24.09872
#
# number of rings (size 3 to 8) (size 9 to 14) (size 15 to 20)
#    1.200    1.600    0.000    0.600    2.800    3.200 
#    0.000   13.000    8.800    0.000    0.000    0.000 
#    0.000    0.000    0.000    0.000    0.000    0.000 
#
# Total GULP energy -111353.499102 kJ/mol
# GULP energy per Si atom -5567.674955 kJ/mol
# Density = 2.404387 g / cm^3
# Si number density = 24.098720 Si / 1000 Ang^3
#
#
#
# Elastic Constant Matrix: (Units=GPa)
#
#
# Indices 1 2 3 4 5 6 
#
# 1 85.1909 2.2001 8.9002 0.0000 16.6049 0.0000
# 2 2.2001 28.8684 5.5492 0.0000 5.8825 0.0000
# 3 8.9002 5.5492 130.5169 0.0000 10.0174 0.0000
# 4 0.0000 0.0000 0.0000 18.4731 0.0000 1.9848
# 5 16.6049 5.8825 10.0174 0.0000 20.7737 0.0000
# 6 0.0000 0.0000 0.0000 1.9848 0.0000 24.2320
#
#
#
# Elastic Compliance Matrix: (Units=1/GPa)
#
#
# Indices 1 2 3 4 5 6 
#
# 1 0.013951 0.001296 -0.000127 0.000000 -0.011457 0.000000
# 2 0.001296 0.036961 -0.000807 0.000000 -0.011113 0.000000
# 3 -0.000127 -0.000807 0.007975 0.000000 -0.003515 0.000000
# 4 0.000000 0.000000 0.000000 0.054613 0.000000 -0.004473
# 5 -0.011457 -0.011113 -0.003515 0.000000 0.062138 0.000000
# 6 0.000000 0.000000 0.000000 -0.004473 0.000000 0.041634
#
#
# Mechanical properties :
#
#
# Convention : Reuss Voigt Hill
#
# Bulk Modulus (GPa) = 16.77562 30.87503 23.82532
# Shear Modulus (GPa) = 21.14893 27.89087 24.51990
#
# Velocity S-wave (km/s) = 2.96564 3.40569 3.19325
# Velocity P-wave (km/s) = 4.32470 5.32021 4.84807
#
# Compressibility (1/GPa) = 0.05961031
#
# Stress axis : x y z
#
# Youngs Moduli (GPa) = 71.67777 27.05571 125.39771
#
# Poissons Ratio (x) = -0.03506 0.01594
# Poissons Ratio (y) = -0.09288 0.10119
# Poissons Ratio (z) = 0.00911 0.02183
#
# Static dielectric constant tensor:
#      x y z
#    x 1.996670 0.000000 -0.079030 
#    y 0.000000 2.015220 0.000000 
#    z -0.079030 0.000000 1.961740 
# 
# From -- ./inp_files/158817.got.cif
#   From: 2010.05.17/outbox.cif.g08.bks.cpg/sg15_80_cif.got.tgz:158817.got - 2010.06.03 18:47:42.
