data_PCOD9272771
_publ_section_title
;
Structure prediction by ZEFSAII (Michael W. Deem and Ramdas Pophale) SiO2 
 PCOD9272771
Probable space group: C 2/C
;
_chemical_formula_sum "Si O2"
_cell_formula_units_Z 48
_cell_length_a 8.435409
_cell_length_b 18.006018
_cell_length_c 15.071897
_cell_angle_alpha 90.000000
_cell_angle_beta 94.941613
_cell_angle_gamma 90.000000
_cell_volume 2280.733074
_symmetry_space_group_name_H-M "C 2/C"
_symmetry_group_IT_number 15
_symmetry_cell_setting 'monoclinic'
loop_
_space_group_symop_operation_xyz
x,y,z
-x,y,1/2-z
-x,-y,-z
x,-y,1/2+z
1/2+x,1/2+y,z
1/2-x,1/2+y,1/2-z
1/2-x,1/2-y,-z
1/2+x,1/2-y,1/2+z
loop_
_atom_site_type_symbol
_atom_site_label
_atom_site_fract_x
_atom_site_fract_y
_atom_site_fract_z
Si Si1 0.150994 0.553520 0.400835
Si Si2 0.718259 0.989242 0.593331
Si Si3 0.603120 0.343837 0.846116
Si Si4 0.804369 0.786455 0.911632
Si Si5 0.180709 0.225775 0.730483
Si Si6 0.188395 0.573918 0.763603
O O1 0.223934 0.523224 0.495973
O O2 0.204816 0.637890 0.389534
O O3 0.204668 0.499667 0.324084
O O4 0.960522 0.543226 0.399873
O O5 0.837645 0.922669 0.617533
O O6 0.743759 0.052363 0.668047
O O7 0.500000 0.351379 0.750000
O O8 0.488749 0.308259 0.914352
O O9 0.748727 0.289461 0.828953
O O10 0.776452 0.732062 0.827630
O O11 0.750000 0.750000 0.000000
O O12 0.216560 0.144134 0.694982
O O13 0.000000 0.236758 0.750000
O O14 0.000000 0.592272 0.750000
#
# Coordination Sequence:
#
# PCOD9272771 Si02
#       6
#     8   8   8   8   8   8
#     4  10  22  38  62  90 119 159 201 245 302 362
#     4  10  21  39  61  88 122 158 199 249 303 359
#     4  10  22  39  61  86 120 162 201 248 302 359
#     4  11  23  40  61  88 122 157 199 250 300 354
#     4  11  23  39  61  87 118 159 202 245 299 361
#     4  10  20  37  60  87 121 156 195 246 301 358
#
# _framework density 21.045864000000002
#
# number of rings (size 3 to 8) (size 9 to 14) (size 15 to 20)
#    0.000    1.667    0.000    5.500    0.000    8.000 
#    0.000    2.500    0.000    0.000    0.000    0.000 
#    0.000    0.000    0.000    0.000    0.000    0.000 
#
# Total GULP energy -134221.582771 kJ/mol
# GULP energy per Si atom -5592.565949 kJ/mol
# Density = 2.099796 g / cm^3
# Si number density = 21.045864 Si / 1000 Ang^3
#
#
#
# Elastic Constant Matrix: (Units=GPa)
#
#
# Indices 1 2 3 4 5 6 
#
# 1 56.7162 26.7625 -3.9208 0.0000 -11.2359 0.0000
# 2 26.7625 97.1377 7.7271 0.0000 -0.6385 0.0000
# 3 -3.9208 7.7271 62.6815 0.0000 -7.1180 0.0000
# 4 0.0000 0.0000 0.0000 29.8491 0.0000 3.8449
# 5 -11.2359 -0.6385 -7.1180 0.0000 19.9733 0.0000
# 6 0.0000 0.0000 0.0000 3.8449 0.0000 24.8524
#
#
#
# Elastic Compliance Matrix: (Units=1/GPa)
#
#
# Indices 1 2 3 4 5 6 
#
# 1 0.024067 -0.006854 0.004026 0.000000 0.014754 0.000000
# 2 -0.006854 0.012349 -0.002443 0.000000 -0.004332 0.000000
# 3 0.004026 -0.002443 0.017462 0.000000 0.008410 0.000000
# 4 0.000000 0.000000 0.000000 0.034183 0.000000 -0.005288
# 5 0.014754 -0.004332 0.008410 0.000000 0.061225 0.000000
# 6 0.000000 0.000000 0.000000 -0.005288 0.000000 0.041056
#
#
# Mechanical properties :
#
#
# Convention : Reuss Voigt Hill
#
# Bulk Modulus (GPa) = 23.07584 30.85257 26.96421
# Shear Modulus (GPa) = 23.22028 27.33273 25.27651
#
# Velocity S-wave (km/s) = 3.32523 3.60769 3.46933
# Velocity P-wave (km/s) = 5.07259 5.66087 5.37478
#
# Compressibility (1/GPa) = 0.04333536
#
# Stress axis : x y z
#
# Youngs Moduli (GPa) = 41.55056 80.97897 57.26846
#
# Poissons Ratio (x) = 0.55503 -0.23055
# Poissons Ratio (y) = 0.28479 0.13990
# Poissons Ratio (z) = -0.16728 0.19783
#
# Static dielectric constant tensor:
#      x y z
#    x 1.780660 0.000000 0.006530 
#    y 0.000000 1.718270 0.000000 
#    z 0.006530 0.000000 1.733530 
# 
# From -- ./inp_files/134821.got.cif
#   From: 2010.05.17/outbox.cif.g08.bks.cpg/sg15_68_cif.got.tgz:134821.got - 2010.06.03 18:47:42.
