data_PCOD9272346
_publ_section_title
;
Structure prediction by ZEFSAII (Michael W. Deem and Ramdas Pophale) SiO2 
 PCOD9272346
Probable space group: C 2/C
;
_chemical_formula_sum "Si O2"
_cell_formula_units_Z 52
_cell_length_a 9.203244
_cell_length_b 27.339282
_cell_length_c 13.635647
_cell_angle_alpha 90.000000
_cell_angle_beta 131.831901
_cell_angle_gamma 90.000000
_cell_volume 2556.354839
_symmetry_space_group_name_H-M "C 2/C"
_symmetry_group_IT_number 15
_symmetry_cell_setting 'monoclinic'
loop_
_space_group_symop_operation_xyz
x,y,z
-x,y,1/2-z
-x,-y,-z
x,-y,1/2+z
1/2+x,1/2+y,z
1/2-x,1/2+y,1/2-z
1/2-x,1/2-y,-z
1/2+x,1/2-y,1/2+z
loop_
_atom_site_type_symbol
_atom_site_label
_atom_site_fract_x
_atom_site_fract_y
_atom_site_fract_z
Si Si1 0.162950 0.794347 0.396648
Si Si2 0.071723 0.860189 0.531700
Si Si3 0.461385 0.848651 0.950490
Si Si4 0.500000 0.147291 0.250000
Si Si5 0.120209 0.792239 0.896659
Si Si6 0.501896 0.539780 0.414983
Si Si7 0.335814 0.040106 0.400114
O O1 0.250000 0.750000 0.500000
O O2 0.059630 0.833800 0.421929
O O3 0.340047 0.823272 0.423062
O O4 0.000000 0.775427 0.250000
O O5 0.296124 0.878221 0.637528
O O6 0.961594 0.908466 0.513898
O O7 0.017115 0.818520 0.586023
O O8 0.456252 0.828947 0.835708
O O9 0.271800 0.831500 0.922403
O O10 0.445243 0.907260 0.942954
O O11 0.000000 0.773219 0.750000
O O12 0.250000 0.750000 0.000000
O O13 0.500000 0.500000 0.500000
O O14 0.677405 0.536055 0.416129
O O15 0.300733 0.536698 0.259706
O O16 0.500000 0.000000 0.500000
#
# Coordination Sequence:
#
# PCOD9272346 Si02
#       7
#     8   8   8   4   8   8   8
#     4  11  28  45  70 103 142 182 237 286 349 417
#     4  11  23  43  71  96 137 180 232 278 347 402
#     4  11  23  43  71  96 137 180 232 278 347 402
#     4  10  20  36  72  94 122 180 222 276 334 406
#     4  12  24  42  68  98 136 177 233 280 336 409
#     4  11  25  44  70 102 136 180 230 283 346 418
#     4  11  25  44  70 102 136 180 230 283 346 418
#
# _framework density 20.341466
#
# number of rings (size 3 to 8) (size 9 to 14) (size 15 to 20)
#    0.000    0.923    4.615    0.923    8.615    5.538 
#    0.000    0.000    0.000    0.000    0.000    0.000 
#    0.000    0.000    0.000    0.000    0.000    0.000 
#
# Total GULP energy -144932.375407 kJ/mol
# GULP energy per Si atom -5574.322131 kJ/mol
# Density = 2.029517 g / cm^3
# Si number density = 20.341466 Si / 1000 Ang^3
#
#
#
# Elastic Constant Matrix: (Units=GPa)
#
#
# Indices 1 2 3 4 5 6 
#
# 1 98.1137 22.0008 29.4486 0.0000 8.3649 0.0000
# 2 22.0008 129.9227 66.3745 0.0000 5.7707 0.0000
# 3 29.4486 66.3745 116.0953 0.0000 13.0870 0.0000
# 4 0.0000 0.0000 0.0000 18.4285 0.0000 0.1293
# 5 8.3649 5.7707 13.0870 0.0000 30.6114 0.0000
# 6 0.0000 0.0000 0.0000 0.1293 0.0000 27.5684
#
#
#
# Elastic Compliance Matrix: (Units=1/GPa)
#
#
# Indices 1 2 3 4 5 6 
#
# 1 0.011180 -0.000664 -0.002233 0.000000 -0.001975 0.000000
# 2 -0.000664 0.010924 -0.006162 0.000000 0.000757 0.000000
# 3 -0.002233 -0.006162 0.013137 0.000000 -0.003844 0.000000
# 4 0.000000 0.000000 0.000000 0.054266 0.000000 -0.000254
# 5 -0.001975 0.000757 -0.003844 0.000000 0.034708 0.000000
# 6 0.000000 0.000000 0.000000 -0.000254 0.000000 0.036275
#
#
# Mechanical properties :
#
#
# Convention : Reuss Voigt Hill
#
# Bulk Modulus (GPa) = 58.41017 64.41995 61.41506
# Shear Modulus (GPa) = 27.12736 30.40884 28.76810
#
# Velocity S-wave (km/s) = 3.65581 3.87061 3.76474
# Velocity P-wave (km/s) = 6.82621 7.19121 7.01109
#
# Compressibility (1/GPa) = 0.01712031
#
# Stress axis : x y z
#
# Youngs Moduli (GPa) = 89.44554 91.54209 76.12343
#
# Poissons Ratio (x) = 0.06083 0.17001
# Poissons Ratio (y) = 0.05944 0.46909
# Poissons Ratio (z) = 0.19976 0.56410
#
# Static dielectric constant tensor:
#      x y z
#    x 1.730800 0.000000 0.016060 
#    y 0.000000 1.769710 0.000000 
#    z 0.016060 0.000000 1.754340 
# 
# From -- ./inp_files/138742.got.cif
#   From: 2010.05.17/outbox.cif.g08.bks.cpg/sg15_70_cif.got.tgz:138742.got - 2010.06.03 18:47:42.
