data_PCOD9272602
_publ_section_title
;
Structure prediction by ZEFSAII (Michael W. Deem and Ramdas Pophale) SiO2 
 PCOD9272602
Probable space group: C 2/C
;
_chemical_formula_sum "Si O2"
_cell_formula_units_Z 40
_cell_length_a 9.719430
_cell_length_b 18.359882
_cell_length_c 13.362160
_cell_angle_alpha 90.000000
_cell_angle_beta 118.633365
_cell_angle_gamma 90.000000
_cell_volume 2092.837276
_symmetry_space_group_name_H-M "C 2/C"
_symmetry_group_IT_number 15
_symmetry_cell_setting 'monoclinic'
loop_
_space_group_symop_operation_xyz
x,y,z
-x,y,1/2-z
-x,-y,-z
x,-y,1/2+z
1/2+x,1/2+y,z
1/2-x,1/2+y,1/2-z
1/2-x,1/2-y,-z
1/2+x,1/2-y,1/2+z
loop_
_atom_site_type_symbol
_atom_site_label
_atom_site_fract_x
_atom_site_fract_y
_atom_site_fract_z
Si Si1 0.397138 0.466372 0.811676
Si Si2 0.097570 0.621275 0.183162
Si Si3 0.346368 0.718511 0.769923
Si Si4 0.293588 0.830141 0.467001
Si Si5 0.510279 0.608045 0.541252
O O1 0.500000 0.478563 0.750000
O O2 0.225420 0.441130 0.717299
O O3 0.401263 0.539214 0.879744
O O4 0.475852 0.406439 0.913261
O O5 0.190657 0.697378 0.228071
O O6 0.000000 0.607336 0.250000
O O7 0.962830 0.640178 0.056499
O O8 0.500000 0.716888 0.750000
O O9 0.221317 0.678253 0.657155
O O10 0.393470 0.678310 0.888052
O O11 0.250000 0.750000 0.500000
O O12 0.160081 0.882875 0.465407
#
# Coordination Sequence:
#
# PCOD9272602 Si02
#       5
#     8   8   8   8   8
#     4  11  23  38  56  83 119 157 179 224 296 356
#     4  11  19  33  60  88 113 141 196 244 274 330
#     4   9  17  30  57  87 109 141 194 244 276 315
#     4  11  16  31  61  94 106 137 200 255 272 307
#     4  10  20  37  59  78 118 151 188 229 289 336
#
# _framework density 19.11281
#
# number of rings (size 3 to 8) (size 9 to 14) (size 15 to 20)
#    0.000    1.600    8.000    1.800    0.000    0.000 
#    0.000    5.000    0.000    0.000    0.000    0.000 
#    0.000    0.000    0.000    0.000    0.000    0.000 
#
# Total GULP energy -111486.385512 kJ/mol
# GULP energy per Si atom -5574.319276 kJ/mol
# Density = 1.906931 g / cm^3
# Si number density = 19.112810 Si / 1000 Ang^3
#
#
#
# Elastic Constant Matrix: (Units=GPa)
#
#
# Indices 1 2 3 4 5 6 
#
# 1 15.7287 5.8107 14.2188 0.0000 15.1723 0.0000
# 2 5.8107 42.5824 -0.8060 0.0000 18.4735 0.0000
# 3 14.2188 -0.8060 85.8848 0.0000 27.4000 0.0000
# 4 0.0000 0.0000 0.0000 34.1810 0.0000 12.9229
# 5 15.1723 18.4735 27.4000 0.0000 28.3886 0.0000
# 6 0.0000 0.0000 0.0000 12.9229 0.0000 14.7049
#
#
#
# Elastic Compliance Matrix: (Units=1/GPa)
#
#
# Indices 1 2 3 4 5 6 
#
# 1 0.144833 0.024586 0.008745 0.000000 -0.101845 0.000000
# 2 0.024586 0.044630 0.014169 0.000000 -0.055858 0.000000
# 3 0.008745 0.014169 0.021329 0.000000 -0.034480 0.000000
# 4 0.000000 0.000000 0.000000 0.043813 0.000000 -0.038504
# 5 -0.101845 -0.055858 -0.034480 0.000000 0.159285 0.000000
# 6 0.000000 0.000000 0.000000 -0.038504 0.000000 0.101842
#
#
# Mechanical properties :
#
#
# Convention : Reuss Voigt Hill
#
# Bulk Modulus (GPa) = 3.27021 20.29364 11.78193
# Shear Modulus (GPa) = 9.56636 23.78640 16.67638
#
# Velocity S-wave (km/s) = 2.23966 3.53161 2.95706
# Velocity P-wave (km/s) = 2.89876 5.22212 4.22335
#
# Compressibility (1/GPa) = 0.30579076
#
# Stress axis : x y z
#
# Youngs Moduli (GPa) = 6.90450 22.40639 46.88441
#
# Poissons Ratio (x) = -0.55088 -0.40998
# Poissons Ratio (y) = -0.16975 -0.66431
# Poissons Ratio (z) = -0.06038 -0.31748
#
# Static dielectric constant tensor:
#      x y z
#    x 1.624640 0.000000 0.027690 
#    y 0.000000 1.706450 0.000000 
#    z 0.027690 0.000000 1.751220 
# 
# From -- ./inp_files/134605.got.cif
#   From: 2010.05.17/outbox.cif.g08.bks.cpg/sg15_68_cif.got.tgz:134605.got - 2010.06.03 18:47:42.
