data_PCOD9272849
_publ_section_title
;
Structure prediction by ZEFSAII (Michael W. Deem and Ramdas Pophale) SiO2 
 PCOD9272849
Probable space group: C 2/C
;
_chemical_formula_sum "Si O2"
_cell_formula_units_Z 60
_cell_length_a 16.439663
_cell_length_b 12.389517
_cell_length_c 16.745227
_cell_angle_alpha 90.000000
_cell_angle_beta 120.163998
_cell_angle_gamma 90.000000
_cell_volume 2948.824243
_symmetry_space_group_name_H-M "C 2/C"
_symmetry_group_IT_number 15
_symmetry_cell_setting 'monoclinic'
loop_
_space_group_symop_operation_xyz
x,y,z
-x,y,1/2-z
-x,-y,-z
x,-y,1/2+z
1/2+x,1/2+y,z
1/2-x,1/2+y,1/2-z
1/2-x,1/2-y,-z
1/2+x,1/2-y,1/2+z
loop_
_atom_site_type_symbol
_atom_site_label
_atom_site_fract_x
_atom_site_fract_y
_atom_site_fract_z
Si Si1 0.111494 0.782798 0.311801
Si Si2 0.887259 0.737943 0.009842
Si Si3 0.031304 0.074924 0.590136
Si Si4 0.284479 0.059971 0.877115
Si Si5 0.000000 0.958179 0.750000
Si Si6 0.194114 0.152334 0.316373
Si Si7 0.746273 0.106713 0.818221
Si Si8 0.753524 0.374809 0.667006
O O1 0.131168 0.729213 0.406193
O O2 0.180773 0.886429 0.344105
O O3 0.154634 0.697777 0.271048
O O4 0.000000 0.795448 0.250000
O O5 0.980831 0.809728 0.052676
O O6 0.867321 0.621057 0.963593
O O7 0.811760 0.813354 0.927671
O O8 0.141761 0.098033 0.639322
O O9 0.006658 0.021609 0.665728
O O10 0.000000 0.000000 0.500000
O O11 0.299257 0.089432 0.791569
O O12 0.271114 0.933557 0.886168
O O13 0.093012 0.884126 0.798615
O O14 0.217014 0.278163 0.338637
O O15 0.196849 0.126769 0.222393
O O16 0.722690 0.994547 0.850609
#
# Coordination Sequence:
#
# PCOD9272849 Si02
#       8
#     8   8   8   8   4   8   8   8
#     4  11  22  36  64  95 125 167 226 280 330 391
#     4  11  21  35  64  97 129 162 218 287 327 391
#     4  12  24  42  71 102 134 170 234 285 334 402
#     4  10  20  37  60  93 127 167 217 266 336 395
#     4  12  24  42  70 106 130 182 238 282 322 420
#     4  11  22  39  67  92 134 172 223 268 338 405
#     4  11  21  41  65  89 134 178 211 276 344 400
#     4  10  20  40  60  92 128 172 216 271 346 390
#
# _framework density 20.347093999999998
#
# number of rings (size 3 to 8) (size 9 to 14) (size 15 to 20)
#    0.000    1.067    6.667    3.200    1.867    0.000 
#    1.200    1.333    0.000    0.000    0.000    0.000 
#    0.000    0.000    0.000    0.000    0.000    0.000 
#
# Total GULP energy -167182.002315 kJ/mol
# GULP energy per Si atom -5572.733410 kJ/mol
# Density = 2.030078 g / cm^3
# Si number density = 20.347094 Si / 1000 Ang^3
#
#
#
# Elastic Constant Matrix: (Units=GPa)
#
#
# Indices 1 2 3 4 5 6 
#
# 1 74.8238 23.5476 2.8869 0.0000 1.7639 0.0000
# 2 23.5476 136.8614 -1.1438 0.0000 1.2073 0.0000
# 3 2.8869 -1.1438 67.7704 0.0000 -9.6654 0.0000
# 4 0.0000 0.0000 0.0000 22.3736 0.0000 -0.6961
# 5 1.7639 1.2073 -9.6654 0.0000 13.5743 0.0000
# 6 0.0000 0.0000 0.0000 -0.6961 0.0000 27.8779
#
#
#
# Elastic Compliance Matrix: (Units=1/GPa)
#
#
# Indices 1 2 3 4 5 6 
#
# 1 0.014224 -0.002435 -0.000979 0.000000 -0.002329 0.000000
# 2 -0.002435 0.007729 0.000202 0.000000 -0.000227 0.000000
# 3 -0.000979 0.000202 0.016491 0.000000 0.011852 0.000000
# 4 0.000000 0.000000 0.000000 0.044730 0.000000 0.001117
# 5 -0.002329 -0.000227 0.011852 0.000000 0.082430 0.000000
# 6 0.000000 0.000000 0.000000 0.001117 0.000000 0.035899
#
#
# Mechanical properties :
#
#
# Convention : Reuss Voigt Hill
#
# Bulk Modulus (GPa) = 31.23100 36.67077 33.95089
# Shear Modulus (GPa) = 22.87271 29.70948 26.29109
#
# Velocity S-wave (km/s) = 3.35644 3.82532 3.59852
# Velocity P-wave (km/s) = 5.51392 6.12964 5.82991
#
# Compressibility (1/GPa) = 0.03201946
#
# Stress axis : x y z
#
# Youngs Moduli (GPa) = 70.30526 129.37811 60.63878
#
# Poissons Ratio (x) = 0.31502 0.05938
# Poissons Ratio (y) = 0.17118 -0.01223
# Poissons Ratio (z) = 0.06884 -0.02610
#
# Static dielectric constant tensor:
#      x y z
#    x 1.782980 0.000000 -0.016260 
#    y 0.000000 1.834360 0.000000 
#    z -0.016260 0.000000 1.751930 
# 
# From -- ./inp_files/210639.got.cif
#   From: 2010.05.17/outbox.cif.g08.bks.cpg/sg15_106_cif.got.tgz:210639.got - 2010.06.03 18:47:42.
