data_PCOD9272225
_publ_section_title
;
Structure prediction by ZEFSAII (Michael W. Deem and Ramdas Pophale) SiO2 
 PCOD9272225
Probable space group: C 2/C
;
_chemical_formula_sum "Si O2"
_cell_formula_units_Z 60
_cell_length_a 11.461531
_cell_length_b 15.708122
_cell_length_c 18.945832
_cell_angle_alpha 90.000000
_cell_angle_beta 62.955807
_cell_angle_gamma 90.000000
_cell_volume 3038.019960
_symmetry_space_group_name_H-M "C 2/C"
_symmetry_group_IT_number 15
_symmetry_cell_setting 'monoclinic'
loop_
_space_group_symop_operation_xyz
x,y,z
-x,y,1/2-z
-x,-y,-z
x,-y,1/2+z
1/2+x,1/2+y,z
1/2-x,1/2+y,1/2-z
1/2-x,1/2-y,-z
1/2+x,1/2-y,1/2+z
loop_
_atom_site_type_symbol
_atom_site_label
_atom_site_fract_x
_atom_site_fract_y
_atom_site_fract_z
Si Si1 0.057763 0.347675 0.655342
Si Si2 0.415387 0.975494 0.590806
Si Si3 0.614977 0.701551 0.861861
Si Si4 0.773329 0.950109 0.250839
Si Si5 0.301179 0.549172 0.103261
Si Si6 0.792998 0.166466 0.394511
Si Si7 0.000000 0.070089 0.250000
Si Si8 0.907376 0.899767 0.994280
O O1 0.212406 0.367958 0.614858
O O2 0.000000 0.349814 0.750000
O O3 0.000785 0.424630 0.624425
O O4 0.998966 0.262766 0.635723
O O5 0.308981 0.909690 0.590241
O O6 0.500000 0.000000 0.500000
O O7 0.338007 0.045931 0.658462
O O8 0.677097 0.643371 0.783616
O O9 0.728558 0.755858 0.869879
O O10 0.563005 0.639153 0.937077
O O11 0.737961 0.997825 0.186718
O O12 0.892552 0.007713 0.246133
O O13 0.316878 0.482533 0.034147
O O14 0.452545 0.573357 0.075842
O O15 0.924788 0.133193 0.322402
O O16 0.831355 0.167052 0.466146
#
# Coordination Sequence:
#
# PCOD9272225 Si02
#       8
#     8   8   8   8   8   8   4   8
#     4  11  22  40  61  88 132 171 196 254 322 378
#     4  10  21  39  66  94 120 161 216 259 311 370
#     4  10  24  38  59  96 129 161 201 256 321 364
#     4  10  20  40  62  94 119 161 209 258 299 376
#     4  10  20  37  64  90 119 166 215 250 304 373
#     4  10  20  39  62  89 124 162 200 263 311 366
#     4  10  20  36  66  84 112 164 216 238 302 370
#     4  10  20  38  64  90 123 161 215 259 302 367
#
# _framework density 19.749704999999999
#
# number of rings (size 3 to 8) (size 9 to 14) (size 15 to 20)
#    0.000    1.867    2.667    1.200    0.933    0.533 
#    0.000    9.333    0.000    0.000    0.000    0.000 
#    0.000    0.000    0.000    0.000    0.000    0.000 
#
# Total GULP energy -167203.428893 kJ/mol
# GULP energy per Si atom -5573.447630 kJ/mol
# Density = 1.970475 g / cm^3
# Si number density = 19.749705 Si / 1000 Ang^3
#
#
#
# Elastic Constant Matrix: (Units=GPa)
#
#
# Indices 1 2 3 4 5 6 
#
# 1 38.9884 10.5362 29.0908 0.0000 1.7270 0.0000
# 2 10.5362 82.7259 39.2282 0.0000 -6.6107 0.0000
# 3 29.0908 39.2282 130.3546 0.0000 -10.0204 0.0000
# 4 0.0000 0.0000 0.0000 23.8124 0.0000 4.1474
# 5 1.7270 -6.6107 -10.0204 0.0000 26.5737 0.0000
# 6 0.0000 0.0000 0.0000 4.1474 0.0000 27.0796
#
#
#
# Elastic Compliance Matrix: (Units=1/GPa)
#
#
# Indices 1 2 3 4 5 6 
#
# 1 0.031436 -0.001042 -0.007084 0.000000 -0.004974 0.000000
# 2 -0.001042 0.014235 -0.003887 0.000000 0.002143 0.000000
# 3 -0.007084 -0.003887 0.010693 0.000000 0.003526 0.000000
# 4 0.000000 0.000000 0.000000 0.043146 0.000000 -0.006608
# 5 -0.004974 0.002143 0.003526 0.000000 0.039817 0.000000
# 6 0.000000 0.000000 0.000000 -0.006608 0.000000 0.037940
#
#
# Mechanical properties :
#
#
# Convention : Reuss Voigt Hill
#
# Bulk Modulus (GPa) = 30.92253 45.53105 38.22679
# Shear Modulus (GPa) = 23.57680 27.04072 25.30876
#
# Velocity S-wave (km/s) = 3.45886 3.70425 3.58365
# Velocity P-wave (km/s) = 5.62520 6.43423 6.04327
#
# Compressibility (1/GPa) = 0.03233888
#
# Stress axis : x y z
#
# Youngs Moduli (GPa) = 31.81026 70.24900 93.51936
#
# Poissons Ratio (x) = 0.07319 0.66252
# Poissons Ratio (y) = 0.03314 0.36347
# Poissons Ratio (z) = 0.22535 0.27303
#
# Static dielectric constant tensor:
#      x y z
#    x 1.728920 0.000000 0.011160 
#    y 0.000000 1.693120 0.000000 
#    z 0.011160 0.000000 1.739380 
# 
# From -- ./inp_files/238706.got.cif
#   From: 2010.05.17/outbox.cif.g08.bks.cpg/sg15_120_cif.got.tgz:238706.got - 2010.06.03 18:47:42.
