data_PCOD9272057
_publ_section_title
;
Structure prediction by ZEFSAII (Michael W. Deem and Ramdas Pophale) SiO2 
 PCOD9272057
Probable space group: C 2/C
;
_chemical_formula_sum "Si O2"
_cell_formula_units_Z 56
_cell_length_a 20.741265
_cell_length_b 11.781852
_cell_length_c 24.342522
_cell_angle_alpha 90.000000
_cell_angle_beta 155.734837
_cell_angle_gamma 90.000000
_cell_volume 2444.635226
_symmetry_space_group_name_H-M "C 2/C"
_symmetry_group_IT_number 15
_symmetry_cell_setting 'monoclinic'
loop_
_space_group_symop_operation_xyz
x,y,z
-x,y,1/2-z
-x,-y,-z
x,-y,1/2+z
1/2+x,1/2+y,z
1/2-x,1/2+y,1/2-z
1/2-x,1/2-y,-z
1/2+x,1/2-y,1/2+z
loop_
_atom_site_type_symbol
_atom_site_label
_atom_site_fract_x
_atom_site_fract_y
_atom_site_fract_z
Si Si1 0.414928 0.873037 0.820121
Si Si2 0.438548 0.668671 0.919940
Si Si3 0.824964 0.680811 0.132477
Si Si4 0.251713 0.427486 0.037126
Si Si5 0.630121 0.575200 0.163732
Si Si6 0.377934 0.762284 0.265069
Si Si7 0.265098 0.817094 0.955458
O O1 0.463874 0.760765 0.892211
O O2 0.309739 0.849803 0.684254
O O3 0.570411 0.927737 0.916549
O O4 0.307838 0.938850 0.780546
O O5 0.452860 0.544162 0.905622
O O6 0.264132 0.686733 0.809290
O O7 0.550150 0.665644 0.059874
O O8 0.726946 0.612470 0.010090
O O9 0.000000 0.649612 0.250000
O O10 0.815206 0.816908 0.118347
O O11 0.302574 0.555474 0.089493
O O12 0.617353 0.630715 0.212662
O O13 0.546039 0.817421 0.407670
O O14 0.323447 0.755687 0.159890
O O15 0.250000 0.750000 0.000000
#
# Coordination Sequence:
#
# PCOD9272057 Si02
#       7
#     8   8   8   8   8   8   8
#     4  10  20  36  63  94 126 167 211 262 325 393
#     4  10  21  39  64  94 133 168 212 260 325 390
#     4   9  20  38  61  93 127 164 214 271 332 385
#     4  10  22  41  61  93 127 169 216 276 324 389
#     4  10  21  39  62  94 128 174 206 263 322 383
#     4  11  24  46  63  99 130 170 221 274 321 396
#     4  12  27  45  68  93 131 175 226 271 334 390
#
# _framework density 22.907304
#
# number of rings (size 3 to 8) (size 9 to 14) (size 15 to 20)
#    0.000    1.714    1.429    2.143    2.000    5.714 
#    5.143    2.143    0.000    0.000    0.000    0.000 
#    0.000    0.000    0.000    0.000    0.000    0.000 
#
# Total GULP energy -156293.387664 kJ/mol
# GULP energy per Si atom -5581.906702 kJ/mol
# Density = 2.285517 g / cm^3
# Si number density = 22.907304 Si / 1000 Ang^3
#
#
#
# Elastic Constant Matrix: (Units=GPa)
#
#
# Indices 1 2 3 4 5 6 
#
# 1 63.8360 15.8964 0.8943 -0.0002 -5.7066 -0.0005
# 2 15.8964 75.1138 -13.6383 -0.0008 -11.6166 0.0038
# 3 0.8943 -13.6383 45.0693 -0.0021 1.3489 0.0013
# 4 -0.0002 -0.0008 -0.0021 14.6069 -0.0005 1.0835
# 5 -5.7066 -11.6166 1.3489 -0.0005 36.1491 0.0008
# 6 -0.0005 0.0038 0.0013 1.0835 0.0008 8.7263
#
#
#
# Elastic Compliance Matrix: (Units=1/GPa)
#
#
# Indices 1 2 3 4 5 6 
#
# 1 0.016711 -0.003561 -0.001456 0.000000 0.001548 0.000003
# 2 -0.003561 0.015572 0.004655 0.000002 0.004268 -0.000008
# 3 -0.001456 0.004655 0.023614 0.000004 0.000385 -0.000006
# 4 0.000000 0.000002 0.000004 0.069097 0.000002 -0.008579
# 5 0.001548 0.004268 0.000385 0.000002 0.029265 -0.000005
# 6 0.000003 -0.000008 -0.000006 -0.008579 -0.000005 0.115661
#
#
# Mechanical properties :
#
#
# Convention : Reuss Voigt Hill
#
# Bulk Modulus (GPa) = 18.12471 21.14709 19.63590
# Shear Modulus (GPa) = 17.29899 23.95426 20.62662
#
# Velocity S-wave (km/s) = 2.75102 3.23724 3.00399
# Velocity P-wave (km/s) = 4.24502 4.81919 4.54119
#
# Compressibility (1/GPa) = 0.05517329
#
# Stress axis : x y z
#
# Youngs Moduli (GPa) = 59.84167 64.21712 42.34759
#
# Poissons Ratio (x) = 0.22870 0.06164
# Poissons Ratio (y) = 0.21312 -0.19713
# Poissons Ratio (z) = 0.08711 -0.29894
#
# Static dielectric constant tensor:
#      x y z
#    x 1.852660 0.000000 0.028270 
#    y 0.000000 1.838070 0.000000 
#    z 0.028270 0.000000 1.964830 
# 
# From -- ./inp_files/279986.got.cif
#   From: 2010.05.17/outbox.cif.g08.bks.cpg/sg15_140_cif.got.tgz:279986.got - 2010.06.03 18:47:42.
