data_PCOD9272048
_publ_section_title
;
Structure prediction by ZEFSAII (Michael W. Deem and Ramdas Pophale) SiO2 
 PCOD9272048
Probable space group: C 2/C
;
_chemical_formula_sum "Si O2"
_cell_formula_units_Z 60
_cell_length_a 27.102959
_cell_length_b 21.748870
_cell_length_c 9.671475
_cell_angle_alpha 90.000000
_cell_angle_beta 148.189982
_cell_angle_gamma 90.000000
_cell_volume 3004.988063
_symmetry_space_group_name_H-M "C 2/C"
_symmetry_group_IT_number 15
_symmetry_cell_setting 'monoclinic'
loop_
_space_group_symop_operation_xyz
x,y,z
-x,y,1/2-z
-x,-y,-z
x,-y,1/2+z
1/2+x,1/2+y,z
1/2-x,1/2+y,1/2-z
1/2-x,1/2-y,-z
1/2+x,1/2-y,1/2+z
loop_
_atom_site_type_symbol
_atom_site_label
_atom_site_fract_x
_atom_site_fract_y
_atom_site_fract_z
Si Si1 0.111277 0.725355 0.509248
Si Si2 0.890962 0.333278 0.997592
Si Si3 0.000000 0.005541 0.750000
Si Si4 0.245488 0.624479 0.777155
Si Si5 0.617840 0.269657 0.815796
Si Si6 0.226637 0.900693 0.466403
Si Si7 0.602791 0.280594 0.197479
Si Si8 0.626996 0.528338 0.298122
O O1 0.151279 0.656904 0.601208
O O2 0.144214 0.764397 0.718504
O O3 0.136848 0.758061 0.427894
O O4 0.000000 0.723130 0.250000
O O5 0.874936 0.298759 0.104229
O O6 0.000000 0.353461 0.250000
O O7 0.814335 0.383362 0.772912
O O8 0.879028 0.276227 0.861764
O O9 0.935171 0.969207 0.707826
O O10 0.934407 0.041968 0.485317
O O11 0.237999 0.595098 0.607535
O O12 0.318360 0.681609 0.954279
O O13 0.288753 0.575061 0.982843
O O14 0.509341 0.289451 0.570665
O O15 0.155902 0.843155 0.294876
O O16 0.169308 0.960288 0.378242
#
# Coordination Sequence:
#
# PCOD9272048 Si02
#       8
#     8   8   4   8   8   8   8   8
#     4  10  22  41  61  94 128 160 197 259 322 366
#     4  10  20  38  64  93 121 155 204 259 306 366
#     4  10  24  46  60  88 134 162 204 256 298 354
#     4  12  23  41  65  88 127 166 208 257 303 369
#     4  10  22  35  60  98 125 156 200 250 320 371
#     4  12  23  40  66  90 122 168 212 254 301 367
#     4  10  20  36  63  93 124 157 202 248 313 379
#     4  11  26  42  66  92 127 166 214 245 308 365
#
# _framework density 19.966802000000001
#
# number of rings (size 3 to 8) (size 9 to 14) (size 15 to 20)
#    0.000    1.333    4.000    1.600    3.733    2.133 
#    2.400    0.667    0.000    1.600    0.000    0.000 
#    0.000    0.000    0.000    0.000    0.000    0.000 
#
# Total GULP energy -167563.979512 kJ/mol
# GULP energy per Si atom -5585.465984 kJ/mol
# Density = 1.992136 g / cm^3
# Si number density = 19.966802 Si / 1000 Ang^3
#
#
#
# Elastic Constant Matrix: (Units=GPa)
#
#
# Indices 1 2 3 4 5 6 
#
# 1 56.9361 13.3248 14.1923 0.0000 -17.6866 0.0000
# 2 13.3248 57.8477 26.9403 0.0000 5.9686 0.0000
# 3 14.1923 26.9403 102.2604 0.0000 -6.0190 0.0000
# 4 0.0000 0.0000 0.0000 22.8833 0.0000 -1.5069
# 5 -17.6866 5.9686 -6.0190 0.0000 30.8709 0.0000
# 6 0.0000 0.0000 0.0000 -1.5069 0.0000 9.0951
#
#
#
# Elastic Compliance Matrix: (Units=1/GPa)
#
#
# Indices 1 2 3 4 5 6 
#
# 1 0.023930 -0.006735 -0.000671 0.000000 0.014881 0.000000
# 2 -0.006735 0.022354 -0.005499 0.000000 -0.009253 0.000000
# 3 -0.000671 -0.005499 0.011493 0.000000 0.002920 0.000000
# 4 0.000000 0.000000 0.000000 0.044182 0.000000 0.007320
# 5 0.014881 -0.009253 0.002920 0.000000 0.043277 0.000000
# 6 0.000000 0.000000 0.000000 0.007320 0.000000 0.111162
#
#
# Mechanical properties :
#
#
# Convention : Reuss Voigt Hill
#
# Bulk Modulus (GPa) = 31.28293 36.21768 33.75031
# Shear Modulus (GPa) = 17.07289 23.40899 20.24094
#
# Velocity S-wave (km/s) = 2.92732 3.42774 3.18737
# Velocity P-wave (km/s) = 5.20837 5.81758 5.52138
#
# Compressibility (1/GPa) = 0.03196632
#
# Stress axis : x y z
#
# Youngs Moduli (GPa) = 41.78922 44.73527 87.01259
#
# Poissons Ratio (x) = 0.30129 0.05837
# Poissons Ratio (y) = 0.28145 0.47848
# Poissons Ratio (z) = 0.02803 0.24600
#
# Static dielectric constant tensor:
#      x y z
#    x 1.744220 0.000000 -0.005870 
#    y 0.000000 1.661010 0.000000 
#    z -0.005870 0.000000 1.748820 
# 
# From -- ./inp_files/67735.got.cif
#   From: 2010.05.17/outbox.cif.g08.bks.cpg/sg15_34_cif.got.tgz:67735.got - 2010.06.03 18:47:42.
