data_PCOD9272362
_publ_section_title
;
Structure prediction by ZEFSAII (Michael W. Deem and Ramdas Pophale) SiO2 
 PCOD9272362
Probable space group: C 2/C
;
_chemical_formula_sum "Si O2"
_cell_formula_units_Z 36
_cell_length_a 25.627976
_cell_length_b 11.617629
_cell_length_c 20.431797
_cell_angle_alpha 90.000000
_cell_angle_beta 164.316059
_cell_angle_gamma 90.000000
_cell_volume 1644.498952
_symmetry_space_group_name_H-M "C 2/C"
_symmetry_group_IT_number 15
_symmetry_cell_setting 'monoclinic'
loop_
_space_group_symop_operation_xyz
x,y,z
-x,y,1/2-z
-x,-y,-z
x,-y,1/2+z
1/2+x,1/2+y,z
1/2-x,1/2+y,1/2-z
1/2-x,1/2-y,-z
1/2+x,1/2-y,1/2+z
loop_
_atom_site_type_symbol
_atom_site_label
_atom_site_fract_x
_atom_site_fract_y
_atom_site_fract_z
Si Si1 0.500000 0.061874 0.750000
Si Si2 0.416547 0.399412 0.719224
Si Si3 0.359225 0.458847 0.387973
Si Si4 0.523898 0.881851 0.892542
Si Si5 0.874785 0.125788 0.515745
O O1 0.307209 0.126969 0.539987
O O2 0.440472 0.979976 0.617945
O O3 0.500000 0.359768 0.750000
O O4 0.540398 0.377261 0.935189
O O5 0.449093 0.539001 0.756957
O O6 0.500000 0.500000 0.500000
O O7 0.175576 0.400010 0.134057
O O8 0.306991 0.575905 0.363661
O O9 0.559038 0.756070 0.905576
O O10 0.308603 0.890065 0.659754
#
# Coordination Sequence:
#
# PCOD9272362 Si02
#       5
#     4   8   8   8   8
#     4  12  20  32  58  78 118 146 176 224 278 334
#     4  10  21  36  53  84 114 144 184 220 279 330
#     4  10  20  37  53  80 113 144 186 224 268 334
#     4  12  21  35  55  83 112 149 181 224 278 325
#     4  10  23  34  54  83 113 145 181 225 273 335
#
# _framework density 21.891166999999999
#
# number of rings (size 3 to 8) (size 9 to 14) (size 15 to 20)
#    1.333    0.000    4.444    3.333    1.556    1.778 
#    0.000    0.000    0.000    0.000    2.889    4.667 
#    0.000    0.000    0.000    0.000    0.000    0.000 
#
# Total GULP energy -100431.400140 kJ/mol
# GULP energy per Si atom -5579.522230 kJ/mol
# Density = 2.184134 g / cm^3
# Si number density = 21.891167 Si / 1000 Ang^3
#
#
#
# Elastic Constant Matrix: (Units=GPa)
#
#
# Indices 1 2 3 4 5 6 
#
# 1 150.6716 18.1755 67.6568 -0.0006 15.8354 0.0002
# 2 18.1755 57.4120 24.2643 0.0008 9.7743 0.0007
# 3 67.6568 24.2643 145.4894 -0.0024 5.5022 0.0011
# 4 -0.0006 0.0008 -0.0024 19.2148 -0.0009 18.9621
# 5 15.8354 9.7743 5.5022 -0.0009 56.3043 -0.0003
# 6 0.0002 0.0007 0.0011 18.9621 -0.0003 1.1451
#
#
#
# Elastic Compliance Matrix: (Units=1/GPa)
#
#
# Indices 1 2 3 4 5 6 
#
# 1 0.008649 -0.000798 -0.003816 0.000000 -0.001921 0.000000
# 2 -0.000798 0.019317 -0.002742 -0.000001 -0.002861 -0.000001
# 3 -0.003816 -0.002742 0.009080 0.000000 0.000662 0.000002
# 4 0.000000 -0.000001 0.000000 -0.003392 0.000000 0.056174
# 5 -0.001921 -0.002861 0.000662 0.000000 0.018733 0.000001
# 6 0.000000 -0.000001 0.000002 0.056174 0.000001 -0.056923
#
#
# Mechanical properties :
#
#
# Convention : Reuss Voigt Hill
#
# Bulk Modulus (GPa) = 44.77756 63.75183 54.26469
# Shear Modulus (GPa) = 283.76419 31.56460 157.66439
#
# Velocity S-wave (km/s) = 11.39765 3.80134 8.49578
# Velocity P-wave (km/s) = 13.91789 6.96077 11.00363
#
# Compressibility (1/GPa) = 0.02233262
#
# Stress axis : x y z
#
# Youngs Moduli (GPa) = 115.62429 51.76881 110.12875
#
# Poissons Ratio (x) = 0.04132 0.42027
# Poissons Ratio (y) = 0.09228 0.30200
# Poissons Ratio (z) = 0.44124 0.14196
#
# Static dielectric constant tensor:
#      x y z
#    x 1.939160 0.000000 -0.065200 
#    y 0.000000 1.776390 0.000000 
#    z -0.065200 0.000000 1.799970 
# 
# From -- ./inp_files/206856.got.cif
#   From: 2010.05.17/outbox.cif.g08.bks.cpg/sg15_104_cif.got.tgz:206856.got - 2010.06.03 18:47:42.
