data_PCOD9272055
_publ_section_title
;
Structure prediction by ZEFSAII (Michael W. Deem and Ramdas Pophale) SiO2 
 PCOD9272055
Probable space group: C 2/C
;
_chemical_formula_sum "Si O2"
_cell_formula_units_Z 60
_cell_length_a 18.013451
_cell_length_b 13.575331
_cell_length_c 13.241205
_cell_angle_alpha 90.000000
_cell_angle_beta 66.309238
_cell_angle_gamma 90.000000
_cell_volume 2965.111733
_symmetry_space_group_name_H-M "C 2/C"
_symmetry_group_IT_number 15
_symmetry_cell_setting 'monoclinic'
loop_
_space_group_symop_operation_xyz
x,y,z
-x,y,1/2-z
-x,-y,-z
x,-y,1/2+z
1/2+x,1/2+y,z
1/2-x,1/2+y,1/2-z
1/2-x,1/2-y,-z
1/2+x,1/2-y,1/2+z
loop_
_atom_site_type_symbol
_atom_site_label
_atom_site_fract_x
_atom_site_fract_y
_atom_site_fract_z
Si Si1 0.069320 0.934402 0.408825
Si Si2 0.000000 0.022820 0.250000
Si Si3 0.381902 0.774799 0.672255
Si Si4 0.961047 0.415741 0.381065
Si Si5 0.040263 0.629539 0.044583
Si Si6 0.660330 0.283958 0.077984
Si Si7 0.792043 0.660326 0.033288
Si Si8 0.653963 0.517908 0.048015
O O1 0.072440 0.816591 0.407864
O O2 0.148213 0.963627 0.430521
O O3 0.000000 0.000000 0.500000
O O4 0.053338 0.962367 0.301790
O O5 0.926554 0.069091 0.356694
O O6 0.451440 0.856093 0.642497
O O7 0.353935 0.740117 0.796640
O O8 0.310732 0.813540 0.639487
O O9 0.931289 0.524932 0.428955
O O10 0.879894 0.352603 0.435018
O O11 0.000000 0.413400 0.250000
O O12 0.023747 0.380642 0.433933
O O13 0.097536 0.718279 0.047554
O O14 0.649038 0.400479 0.065897
O O15 0.750000 0.250000 0.000000
O O16 0.733748 0.566497 0.050753
O O17 0.750000 0.750000 0.000000
#
# Coordination Sequence:
#
# PCOD9272055 Si02
#       8
#     8   4   8   8   8   8   8   8
#     4  10  20  36  63  94 122 169 211 264 327 395
#     4  10  20  38  62  94 126 166 214 264 332 392
#     4  11  22  42  67  90 133 176 214 277 341 394
#     4  10  22  43  69  96 130 179 224 273 329 406
#     4  10  22  41  69  98 129 173 225 272 335 399
#     4  12  25  40  64 102 135 172 225 286 335 404
#     4  11  24  44  63  95 136 175 218 274 341 400
#     4  11  23  41  66  94 135 171 222 277 336 404
#
# _framework density 20.235326000000001
#
# number of rings (size 3 to 8) (size 9 to 14) (size 15 to 20)
#    0.000    1.333    2.667    3.600    0.000    2.133 
#    1.200    1.333    0.000    0.000    0.000    0.000 
#    0.000    0.000    0.000    0.000    0.000    0.000 
#
# Total GULP energy -167302.939353 kJ/mol
# GULP energy per Si atom -5576.764645 kJ/mol
# Density = 2.018927 g / cm^3
# Si number density = 20.235326 Si / 1000 Ang^3
#
#
#
# Elastic Constant Matrix: (Units=GPa)
#
#
# Indices 1 2 3 4 5 6 
#
# 1 115.8761 47.5481 52.7804 0.0000 25.1804 0.0000
# 2 47.5481 95.6013 35.6779 0.0000 14.2538 0.0000
# 3 52.7804 35.6779 109.0816 0.0000 13.3068 0.0000
# 4 0.0000 0.0000 0.0000 -0.1761 0.0000 -3.8923
# 5 25.1804 14.2538 13.3068 0.0000 30.0432 0.0000
# 6 0.0000 0.0000 0.0000 -3.8923 0.0000 42.0723
#
#
#
# Elastic Compliance Matrix: (Units=1/GPa)
#
#
# Indices 1 2 3 4 5 6 
#
# 1 0.014091 -0.004159 -0.004501 0.000000 -0.007843 0.000000
# 2 -0.004159 0.013653 -0.002207 0.000000 -0.002014 0.000000
# 3 -0.004501 -0.002207 0.012135 0.000000 -0.000555 0.000000
# 4 0.000000 0.000000 0.000000 -1.865135 0.000000 -0.172554
# 5 -0.007843 -0.002014 -0.000555 0.000000 0.041061 0.000000
# 6 0.000000 0.000000 0.000000 -0.172554 0.000000 0.007805
#
#
# Mechanical properties :
#
#
# Convention : Reuss Voigt Hill
#
# Bulk Modulus (GPa) = 55.11508 65.84132 60.47820
# Shear Modulus (GPa) = -2.85942 26.69140 11.91599
#
# Velocity S-wave (km/s) = -1.19002 3.63581 2.42930
# Velocity P-wave (km/s) = 5.04063 7.08759 6.14988
#
# Compressibility (1/GPa) = 0.01814386
#
# Stress axis : x y z
#
# Youngs Moduli (GPa) = 70.96657 73.24548 82.40628
#
# Poissons Ratio (x) = 0.30464 0.37091
# Poissons Ratio (y) = 0.29516 0.18190
# Poissons Ratio (z) = 0.31942 0.16168
#
# Static dielectric constant tensor:
#      x y z
#    x 1.759960 0.000000 -0.008540 
#    y 0.000000 1.740190 0.000000 
#    z -0.008540 0.000000 1.765360 
# 
# From -- ./inp_files/161296.got.cif
#   From: 2010.05.17/outbox.cif.g08.bks.cpg/sg15_81_cif.got.tgz:161296.got - 2010.06.03 18:47:42.
