data_PCOD9272557
_publ_section_title
;
Structure prediction by ZEFSAII (Michael W. Deem and Ramdas Pophale) SiO2 
 PCOD9272557
Probable space group: C 2/C
;
_chemical_formula_sum "Si O2"
_cell_formula_units_Z 36
_cell_length_a 7.869434
_cell_length_b 9.918961
_cell_length_c 22.118499
_cell_angle_alpha 90.000000
_cell_angle_beta 113.605831
_cell_angle_gamma 90.000000
_cell_volume 1582.025343
_symmetry_space_group_name_H-M "C 2/C"
_symmetry_group_IT_number 15
_symmetry_cell_setting 'monoclinic'
loop_
_space_group_symop_operation_xyz
x,y,z
-x,y,1/2-z
-x,-y,-z
x,-y,1/2+z
1/2+x,1/2+y,z
1/2-x,1/2+y,1/2-z
1/2-x,1/2-y,-z
1/2+x,1/2-y,1/2+z
loop_
_atom_site_type_symbol
_atom_site_label
_atom_site_fract_x
_atom_site_fract_y
_atom_site_fract_z
Si Si1 0.604793 0.382374 0.704019
Si Si2 0.500000 0.787917 0.750000
Si Si3 0.665970 0.786993 0.401421
Si Si4 0.310576 0.525845 0.009718
Si Si5 0.021961 0.856371 0.378326
O O1 0.500000 0.419818 0.750000
O O2 0.820796 0.368382 0.745150
O O3 0.507021 0.245433 0.666302
O O4 0.571416 0.501025 0.652012
O O5 0.435628 0.710335 0.679935
O O6 0.671829 0.660564 0.447820
O O7 0.662132 0.927973 0.437919
O O8 0.859560 0.781082 0.391834
O O9 0.304045 0.397630 0.053996
O O10 0.500000 0.500000 0.000000
#
# Coordination Sequence:
#
# PCOD9272557 Si02
#       5
#     8   4   8   8   8
#     4  11  22  37  56  84 119 157 199 244 297 355
#     4  12  24  36  58  88 118 160 204 244 298 362
#     4   9  17  35  60  85 119 158 194 248 304 348
#     4   8  16  32  62  90 114 157 198 244 305 350
#     4  10  20  37  58  85 119 156 199 247 299 357
#
# _framework density 22.755638999999999
#
# number of rings (size 3 to 8) (size 9 to 14) (size 15 to 20)
#    0.000    2.222    3.333    0.000    0.000    1.778 
#    0.000    1.111    0.000   45.333    0.000    0.000 
#    0.000    0.000    0.000    0.000    0.000    0.000 
#
# Total GULP energy -100309.324415 kJ/mol
# GULP energy per Si atom -5572.740245 kJ/mol
# Density = 2.270385 g / cm^3
# Si number density = 22.755639 Si / 1000 Ang^3
#
#
#
# Elastic Constant Matrix: (Units=GPa)
#
#
# Indices 1 2 3 4 5 6 
#
# 1 102.8334 36.4001 24.8444 0.0000 -18.0724 0.0000
# 2 36.4001 42.3222 18.1686 0.0000 -10.5563 0.0000
# 3 24.8444 18.1686 64.7804 0.0000 -31.7087 0.0000
# 4 0.0000 0.0000 0.0000 -54.5127 0.0000 63.5682
# 5 -18.0724 -10.5563 -31.7087 0.0000 33.3522 0.0000
# 6 0.0000 0.0000 0.0000 63.5682 0.0000 -47.8184
#
#
#
# Elastic Compliance Matrix: (Units=1/GPa)
#
#
# Indices 1 2 3 4 5 6 
#
# 1 0.014525 -0.011316 -0.000556 0.000000 0.003760 0.000000
# 2 -0.011316 0.035791 -0.005900 0.000000 -0.000413 0.000000
# 3 -0.000556 -0.005900 0.030382 0.000000 0.026715 0.000000
# 4 0.000000 0.000000 0.000000 0.033341 0.000000 0.044323
# 5 0.003760 -0.000413 0.026715 0.000000 0.057289 0.000000
# 6 0.000000 0.000000 0.000000 0.044323 0.000000 0.038009
#
#
# Mechanical properties :
#
#
# Convention : Reuss Voigt Hill
#
# Bulk Modulus (GPa) = 22.14748 40.97357 31.56053
# Shear Modulus (GPa) = 19.23571 -5.09424 7.07073
#
# Velocity S-wave (km/s) = 2.91059 -1.49784 1.76465
# Velocity P-wave (km/s) = 4.58794 3.87990 4.24870
#
# Compressibility (1/GPa) = 0.04515186
#
# Stress axis : x y z
#
# Youngs Moduli (GPa) = 68.84558 27.94019 32.91459
#
# Poissons Ratio (x) = 0.31617 0.01832
# Poissons Ratio (y) = 0.77906 0.19421
# Poissons Ratio (z) = 0.03831 0.16486
#
# Static dielectric constant tensor:
#      x y z
#    x 1.829640 0.000000 0.024990 
#    y 0.000000 1.881460 0.000000 
#    z 0.024990 0.000000 1.994300 
# 
# From -- ./inp_files/229547.got.cif
#   From: 2010.05.17/outbox.cif.g08.bks.cpg/sg15_115_cif.got.tgz:229547.got - 2010.06.03 18:47:42.
