data_PCOD9272838
_publ_section_title
;
Structure prediction by ZEFSAII (Michael W. Deem and Ramdas Pophale) SiO2 
 PCOD9272838
Probable space group: C 2/C
;
_chemical_formula_sum "Si O2"
_cell_formula_units_Z 44
_cell_length_a 25.570884
_cell_length_b 14.354720
_cell_length_c 10.493127
_cell_angle_alpha 90.000000
_cell_angle_beta 29.078616
_cell_angle_gamma 90.000000
_cell_volume 1871.931359
_symmetry_space_group_name_H-M "C 2/C"
_symmetry_group_IT_number 15
_symmetry_cell_setting 'monoclinic'
loop_
_space_group_symop_operation_xyz
x,y,z
-x,y,1/2-z
-x,-y,-z
x,-y,1/2+z
1/2+x,1/2+y,z
1/2-x,1/2+y,1/2-z
1/2-x,1/2-y,-z
1/2+x,1/2-y,1/2+z
loop_
_atom_site_type_symbol
_atom_site_label
_atom_site_fract_x
_atom_site_fract_y
_atom_site_fract_z
Si Si1 0.381037 0.515442 0.535743
Si Si2 0.257444 0.983387 0.911569
Si Si3 0.279062 0.774997 0.798090
Si Si4 0.148003 0.801201 0.857186
Si Si5 0.113742 0.355396 0.252709
Si Si6 0.500000 0.798469 0.250000
O O1 0.310274 0.531833 0.558431
O O2 0.316678 0.539129 0.804722
O O3 0.396626 0.403254 0.522717
O O4 0.500000 0.551422 0.250000
O O5 0.291528 0.886917 0.774528
O O6 0.357529 0.047585 0.740756
O O7 0.180842 0.749545 0.916600
O O8 0.394049 0.738684 0.508191
O O9 0.250000 0.750000 0.000000
O O10 0.081654 0.730633 0.912072
O O11 0.266664 0.824382 0.548135
O O12 0.035006 0.356345 0.300407
#
# Coordination Sequence:
#
# PCOD9272838 Si02
#       6
#     8   8   8   8   8   4
#     4  10  20  37  60  91 129 164 213 258 319 386
#     4  10  22  38  61  89 128 172 202 267 323 367
#     4  10  22  40  60  91 127 160 211 263 315 375
#     4   8  18  36  59  82 125 163 194 261 316 360
#     4   9  18  37  63  87 120 168 206 250 318 365
#     4  10  22  42  64  92 122 164 216 262 304 386
#
# _framework density 23.505134000000002
#
# number of rings (size 3 to 8) (size 9 to 14) (size 15 to 20)
#    0.000    2.545    0.000    1.636    2.545    3.636 
#    1.636    0.000    2.000    0.000    0.000    0.000 
#    0.000    0.000    0.000    0.000    0.000    0.000 
#
# Total GULP energy -122736.879537 kJ/mol
# GULP energy per Si atom -5578.949070 kJ/mol
# Density = 2.345164 g / cm^3
# Si number density = 23.505134 Si / 1000 Ang^3
#
#
#
# Elastic Constant Matrix: (Units=GPa)
#
#
# Indices 1 2 3 4 5 6 
#
# 1 154.5685 45.5946 16.6886 0.0000 1.3222 0.0000
# 2 45.5946 63.7543 10.2483 0.0000 -14.4440 0.0000
# 3 16.6886 10.2483 83.5211 0.0000 3.4133 0.0000
# 4 0.0000 0.0000 0.0000 20.9506 0.0000 10.5556
# 5 1.3222 -14.4440 3.4133 0.0000 31.0995 0.0000
# 6 0.0000 0.0000 0.0000 10.5556 0.0000 27.4683
#
#
#
# Elastic Compliance Matrix: (Units=1/GPa)
#
#
# Indices 1 2 3 4 5 6 
#
# 1 0.008585 -0.006801 -0.000740 0.000000 -0.003442 0.000000
# 2 -0.006801 0.023450 -0.001984 0.000000 0.011398 0.000000
# 3 -0.000740 -0.001984 0.012457 0.000000 -0.002257 0.000000
# 4 0.000000 0.000000 0.000000 0.059192 0.000000 -0.022746
# 5 -0.003442 0.011398 -0.002257 0.000000 0.037843 0.000000
# 6 0.000000 0.000000 0.000000 -0.022746 0.000000 0.045147
#
#
# Mechanical properties :
#
#
# Convention : Reuss Voigt Hill
#
# Bulk Modulus (GPa) = 39.30610 49.65634 44.48122
# Shear Modulus (GPa) = 23.34229 31.19116 27.26672
#
# Velocity S-wave (km/s) = 3.15472 3.64674 3.40962
# Velocity P-wave (km/s) = 5.47981 6.23725 5.87076
#
# Compressibility (1/GPa) = 0.02544134
#
# Stress axis : x y z
#
# Youngs Moduli (GPa) = 116.48200 42.64392 80.27823
#
# Poissons Ratio (x) = 0.29000 0.05943
# Poissons Ratio (y) = 0.79214 0.15930
# Poissons Ratio (z) = 0.08623 0.08462
#
# Static dielectric constant tensor:
#      x y z
#    x 1.964010 0.000000 0.020280 
#    y 0.000000 1.935930 0.000000 
#    z 0.020280 0.000000 1.921770 
# 
# From -- ./inp_files/123242.got.cif
#   From: 2010.05.17/outbox.cif.g08.bks.cpg/sg15_62_cif.got.tgz:123242.got - 2010.06.03 18:47:42.
