data_PCOD9272306
_publ_section_title
;
Structure prediction by ZEFSAII (Michael W. Deem and Ramdas Pophale) SiO2 
 PCOD9272306
Probable space group: C 2/C
;
_chemical_formula_sum "Si O2"
_cell_formula_units_Z 60
_cell_length_a 26.938550
_cell_length_b 9.578327
_cell_length_c 11.052254
_cell_angle_alpha 90.000000
_cell_angle_beta 70.663122
_cell_angle_gamma 90.000000
_cell_volume 2690.897481
_symmetry_space_group_name_H-M "C 2/C"
_symmetry_group_IT_number 15
_symmetry_cell_setting 'monoclinic'
loop_
_space_group_symop_operation_xyz
x,y,z
-x,y,1/2-z
-x,-y,-z
x,-y,1/2+z
1/2+x,1/2+y,z
1/2-x,1/2+y,1/2-z
1/2-x,1/2-y,-z
1/2+x,1/2-y,1/2+z
loop_
_atom_site_type_symbol
_atom_site_label
_atom_site_fract_x
_atom_site_fract_y
_atom_site_fract_z
Si Si1 0.368041 0.532990 0.959742
Si Si2 0.500000 0.931387 0.250000
Si Si3 0.175093 0.553782 0.592809
Si Si4 0.087162 0.445810 0.844592
Si Si5 0.803898 0.972706 0.261472
Si Si6 0.088068 0.749087 0.546946
Si Si7 0.768167 0.735546 0.786939
Si Si8 0.362621 0.831204 0.046515
O O1 0.334393 0.495371 0.108769
O O2 0.383645 0.694755 0.962720
O O3 0.337862 0.522498 0.856200
O O4 0.411745 0.412417 0.926905
O O5 0.464003 0.024422 0.192087
O O6 0.460539 0.831283 0.354648
O O7 0.138365 0.480012 0.723814
O O8 0.140846 0.679428 0.561485
O O9 0.226562 0.626996 0.606004
O O10 0.177451 0.427146 0.497152
O O11 0.092071 0.564286 0.945648
O O12 0.088926 0.296359 0.906269
O O13 0.774599 0.825991 0.268549
O O14 0.762256 0.100429 0.308708
O O15 0.827284 0.723193 0.685636
#
# Coordination Sequence:
#
# PCOD9272306 Si02
#       8
#     8   4   8   8   8   8   8   8
#     4  11  25  42  62  90 127 169 208 260 315 373
#     4  10  20  36  68  92 126 150 204 266 316 372
#     4   9  18  36  60  85 121 163 205 252 303 367
#     4   9  19  36  62  95 117 161 199 257 307 379
#     4  11  26  40  62  90 127 168 214 265 309 370
#     4  10  20  39  63  88 122 160 207 250 321 371
#     4  10  22  38  56  89 126 161 213 259 311 353
#     4   9  21  37  60  84 126 165 206 248 315 366
#
# _framework density 22.297393
#
# number of rings (size 3 to 8) (size 9 to 14) (size 15 to 20)
#    0.000    2.133    1.333    0.400    7.467    3.733 
#    0.000    0.667    0.000    4.000    0.000    0.000 
#    0.000    0.000    0.000    0.000    0.000    0.000 
#
# Total GULP energy -167498.483769 kJ/mol
# GULP energy per Si atom -5583.282792 kJ/mol
# Density = 2.224664 g / cm^3
# Si number density = 22.297393 Si / 1000 Ang^3
#
#
#
# Elastic Constant Matrix: (Units=GPa)
#
#
# Indices 1 2 3 4 5 6 
#
# 1 69.9664 20.7509 29.0909 0.0000 22.4856 0.0000
# 2 20.7509 90.8548 12.9969 0.0000 16.7651 0.0000
# 3 29.0909 12.9969 79.8995 0.0000 20.9788 0.0000
# 4 0.0000 0.0000 0.0000 13.8288 0.0000 -0.1214
# 5 22.4856 16.7651 20.9788 0.0000 27.5882 0.0000
# 6 0.0000 0.0000 0.0000 -0.1214 0.0000 21.5350
#
#
#
# Elastic Compliance Matrix: (Units=1/GPa)
#
#
# Indices 1 2 3 4 5 6 
#
# 1 0.020502 -0.001789 -0.003838 0.000000 -0.012704 0.000000
# 2 -0.001789 0.012553 0.000287 0.000000 -0.006388 0.000000
# 3 -0.003838 0.000287 0.016357 0.000000 -0.009484 0.000000
# 4 0.000000 0.000000 0.000000 0.072316 0.000000 0.000408
# 5 -0.012704 -0.006388 -0.009484 0.000000 0.057696 0.000000
# 6 0.000000 0.000000 0.000000 0.000408 0.000000 0.046438
#
#
# Mechanical properties :
#
#
# Convention : Reuss Voigt Hill
#
# Bulk Modulus (GPa) = 25.81925 40.71090 33.26507
# Shear Modulus (GPa) = 20.04387 24.44921 22.24654
#
# Velocity S-wave (km/s) = 3.00147 3.31494 3.16210
# Velocity P-wave (km/s) = 4.85967 5.74017 5.31818
#
# Compressibility (1/GPa) = 0.03873080
#
# Stress axis : x y z
#
# Youngs Moduli (GPa) = 48.77625 79.66240 61.13716
#
# Poissons Ratio (x) = 0.14254 0.23464
# Poissons Ratio (y) = 0.08727 -0.01754
# Poissons Ratio (z) = 0.18720 -0.02285
#
# Static dielectric constant tensor:
#      x y z
#    x 1.774750 0.000000 0.014090 
#    y 0.000000 1.844100 0.000000 
#    z 0.014090 0.000000 1.939570 
# 
# From -- ./inp_files/121956.got.cif
#   From: 2010.05.17/outbox.cif.g08.bks.cpg/sg15_61_cif.got.tgz:121956.got - 2010.06.03 18:47:42.
