data_PCOD9272100
_publ_section_title
;
Structure prediction by ZEFSAII (Michael W. Deem and Ramdas Pophale) SiO2 
 PCOD9272100
Probable space group: C 2/C
;
_chemical_formula_sum "Si O2"
_cell_formula_units_Z 40
_cell_length_a 15.791708
_cell_length_b 24.005243
_cell_length_c 9.357213
_cell_angle_alpha 90.000000
_cell_angle_beta 146.542389
_cell_angle_gamma 90.000000
_cell_volume 1955.624177
_symmetry_space_group_name_H-M "C 2/C"
_symmetry_group_IT_number 15
_symmetry_cell_setting 'monoclinic'
loop_
_space_group_symop_operation_xyz
x,y,z
-x,y,1/2-z
-x,-y,-z
x,-y,1/2+z
1/2+x,1/2+y,z
1/2-x,1/2+y,1/2-z
1/2-x,1/2-y,-z
1/2+x,1/2-y,1/2+z
loop_
_atom_site_type_symbol
_atom_site_label
_atom_site_fract_x
_atom_site_fract_y
_atom_site_fract_z
Si Si1 0.678083 0.477549 0.462652
Si Si2 0.000000 0.793245 0.250000
Si Si3 0.762710 0.361665 0.461368
Si Si4 0.667844 0.947740 0.526412
Si Si5 0.068048 0.308859 0.035387
Si Si6 0.500000 0.838496 0.250000
O O1 0.500000 0.472471 0.250000
O O2 0.732480 0.426733 0.438350
O O3 0.773707 0.470403 0.741882
O O4 0.716486 0.533967 0.433971
O O5 0.121988 0.829867 0.336938
O O6 0.076010 0.751351 0.472031
O O7 0.794348 0.344149 0.342215
O O8 0.913654 0.339798 0.759373
O O9 0.635772 0.881691 0.486109
O O10 0.500000 0.971820 0.250000
O O11 0.054586 0.306604 0.186310
#
# Coordination Sequence:
#
# PCOD9272100 Si02
#       6
#     8   4   8   8   8   4
#     4  12  23  39  62  90 130 163 203 258 319 357
#     4  10  20  40  61  92 118 153 212 258 308 366
#     4  10  20  37  62  88 115 162 207 255 299 372
#     4  10  24  39  62  88 125 166 212 250 296 381
#     4  10  20  36  64  84 119 159 207 255 301 358
#     4  10  22  38  61  92 124 153 216 250 298 360
#
# _framework density 20.453828000000001
#
# number of rings (size 3 to 8) (size 9 to 14) (size 15 to 20)
#    0.600    1.200    3.000    3.600    5.600    0.000 
#    0.000    4.000    0.000    0.000    0.000    0.000 
#    0.000    0.000    0.000    0.000    0.000    0.000 
#
# Total GULP energy -111621.234922 kJ/mol
# GULP energy per Si atom -5581.061746 kJ/mol
# Density = 2.040727 g / cm^3
# Si number density = 20.453828 Si / 1000 Ang^3
#
#
#
# Elastic Constant Matrix: (Units=GPa)
#
#
# Indices 1 2 3 4 5 6 
#
# 1 147.0611 18.3118 47.1353 0.0000 -17.7229 0.0000
# 2 18.3118 35.2100 13.8458 0.0000 -2.6408 0.0000
# 3 47.1353 13.8458 33.9390 0.0000 -8.9409 0.0000
# 4 0.0000 0.0000 0.0000 -5.7950 0.0000 3.1015
# 5 -17.7229 -2.6408 -8.9409 0.0000 48.6044 0.0000
# 6 0.0000 0.0000 0.0000 3.1015 0.0000 11.5667
#
#
#
# Elastic Compliance Matrix: (Units=1/GPa)
#
#
# Indices 1 2 3 4 5 6 
#
# 1 0.012351 0.000335 -0.016918 0.000000 0.001410 0.000000
# 2 0.000335 0.033862 -0.014464 0.000000 -0.000699 0.000000
# 3 -0.016918 -0.014464 0.059934 0.000000 0.004070 0.000000
# 4 0.000000 0.000000 0.000000 -0.150907 0.000000 0.040464
# 5 0.001410 -0.000699 0.004070 0.000000 0.021799 0.000000
# 6 0.000000 0.000000 0.000000 0.040464 0.000000 0.075605
#
#
# Mechanical properties :
#
#
# Convention : Reuss Voigt Hill
#
# Bulk Modulus (GPa) = 22.70016 41.64400 32.17208
# Shear Modulus (GPa) = 38.63315 20.00304 29.31809
#
# Velocity S-wave (km/s) = 4.35075 3.13063 3.79011
# Velocity P-wave (km/s) = 6.03001 5.78550 5.90902
#
# Compressibility (1/GPa) = 0.04405256
#
# Stress axis : x y z
#
# Youngs Moduli (GPa) = 80.96797 29.53159 16.68497
#
# Poissons Ratio (x) = -0.00990 0.28228
# Poissons Ratio (y) = -0.02715 0.24134
# Poissons Ratio (z) = 1.36984 0.42715
#
# Static dielectric constant tensor:
#      x y z
#    x 1.714580 0.000000 -0.003420 
#    y 0.000000 1.735800 0.000000 
#    z -0.003420 0.000000 1.735830 
# 
# From -- ./inp_files/43307.got.cif
#   From: 2010.05.17/outbox.cif.g08.bks.cpg/sg15_22_cif.got.tgz:43307.got - 2010.06.03 18:47:42.
