data_PCOD9272895
_publ_section_title
;
Structure prediction by ZEFSAII (Michael W. Deem and Ramdas Pophale) SiO2 
 PCOD9272895
Probable space group: C 2/C
;
_chemical_formula_sum "Si O2"
_cell_formula_units_Z 40
_cell_length_a 5.113281
_cell_length_b 24.302855
_cell_length_c 13.687826
_cell_angle_alpha 90.000000
_cell_angle_beta 91.958852
_cell_angle_gamma 90.000000
_cell_volume 1699.955567
_symmetry_space_group_name_H-M "C 2/C"
_symmetry_group_IT_number 15
_symmetry_cell_setting 'monoclinic'
loop_
_space_group_symop_operation_xyz
x,y,z
-x,y,1/2-z
-x,-y,-z
x,-y,1/2+z
1/2+x,1/2+y,z
1/2-x,1/2+y,1/2-z
1/2-x,1/2-y,-z
1/2+x,1/2-y,1/2+z
loop_
_atom_site_type_symbol
_atom_site_label
_atom_site_fract_x
_atom_site_fract_y
_atom_site_fract_z
Si Si1 0.880092 0.785968 0.647765
Si Si2 0.956458 0.372770 0.435328
Si Si3 0.851466 0.399504 0.848539
Si Si4 0.022938 0.799271 0.071719
Si Si5 0.247085 0.989163 0.431387
O O1 0.859688 0.851590 0.652538
O O2 0.997006 0.778920 0.540977
O O3 0.605804 0.753818 0.633966
O O4 0.000000 0.766026 0.750000
O O5 0.746265 0.327217 0.405157
O O6 0.823599 0.428962 0.391101
O O7 0.975282 0.385906 0.552282
O O8 0.242647 0.345907 0.416390
O O9 0.738928 0.460832 0.855365
O O10 0.000000 0.393777 0.750000
O O11 0.500000 0.000000 0.500000
O O12 0.000000 0.000000 0.500000
#
# Coordination Sequence:
#
# PCOD9272895 Si02
#       5
#     8   8   8   8   8
#     4  10  21  37  59  88 122 156 201 258 310 366
#     4  10  20  39  60  85 119 160 205 247 300 372
#     4  10  21  35  61  94 125 159 206 264 317 363
#     4  10  22  38  62  87 116 162 206 246 308 374
#     4  10  20  37  61  87 120 161 203 250 310 376
#
# _framework density 23.530028000000001
#
# number of rings (size 3 to 8) (size 9 to 14) (size 15 to 20)
#    0.000    2.000    0.000    4.800    0.000   10.400 
#    0.000    1.000    0.000    4.800    0.000    0.000 
#    0.000    0.000    0.000    0.000    0.000    0.000 
#
# Total GULP energy -111566.184081 kJ/mol
# GULP energy per Si atom -5578.309204 kJ/mol
# Density = 2.347647 g / cm^3
# Si number density = 23.530028 Si / 1000 Ang^3
#
#
#
# Elastic Constant Matrix: (Units=GPa)
#
#
# Indices 1 2 3 4 5 6 
#
# 1 108.2280 18.3535 5.6323 0.0000 7.3644 0.0000
# 2 18.3535 138.7556 2.2056 0.0000 19.5039 0.0000
# 3 5.6323 2.2056 60.8825 0.0000 22.4889 0.0000
# 4 0.0000 0.0000 0.0000 12.8455 0.0000 2.6471
# 5 7.3644 19.5039 22.4889 0.0000 27.6573 0.0000
# 6 0.0000 0.0000 0.0000 2.6471 0.0000 36.7163
#
#
#
# Elastic Compliance Matrix: (Units=1/GPa)
#
#
# Indices 1 2 3 4 5 6 
#
# 1 0.009537 -0.001031 -0.000251 0.000000 -0.001608 0.000000
# 2 -0.001031 0.008402 0.002684 0.000000 -0.007833 0.000000
# 3 -0.000251 0.002684 0.024335 0.000000 -0.021613 0.000000
# 4 0.000000 0.000000 0.000000 0.079022 0.000000 -0.005697
# 5 -0.001608 -0.007833 -0.021613 0.000000 0.059683 0.000000
# 6 0.000000 0.000000 0.000000 -0.005697 0.000000 0.027647
#
#
# Mechanical properties :
#
#
# Convention : Reuss Voigt Hill
#
# Bulk Modulus (GPa) = 22.18402 40.02767 31.10584
# Shear Modulus (GPa) = 22.64005 34.22212 28.43109
#
# Velocity S-wave (km/s) = 3.10526 3.81780 3.47982
# Velocity P-wave (km/s) = 4.72285 6.04006 5.42161
#
# Compressibility (1/GPa) = 0.04507749
#
# Stress axis : x y z
#
# Youngs Moduli (GPa) = 104.85309 119.02339 41.09370
#
# Poissons Ratio (x) = 0.12277 0.01031
# Poissons Ratio (y) = 0.10815 -0.11031
# Poissons Ratio (z) = 0.02631 -0.31951
#
# Static dielectric constant tensor:
#      x y z
#    x 1.940380 0.000000 -0.029760 
#    y 0.000000 1.773550 0.000000 
#    z -0.029760 0.000000 1.634310 
# 
# From -- ./inp_files/129106.got.cif
#   From: 2010.05.17/outbox.cif.g08.bks.cpg/sg15_65_cif.got.tgz:129106.got - 2010.06.03 18:47:42.
