data_PCOD9272379
_publ_section_title
;
Structure prediction by ZEFSAII (Michael W. Deem and Ramdas Pophale) SiO2 
 PCOD9272379
Probable space group: C 2/C
;
_chemical_formula_sum "Si O2"
_cell_formula_units_Z 64
_cell_length_a 26.086498
_cell_length_b 11.301464
_cell_length_c 10.859202
_cell_angle_alpha 90.000000
_cell_angle_beta 83.759143
_cell_angle_gamma 90.000000
_cell_volume 3182.489516
_symmetry_space_group_name_H-M "C 2/C"
_symmetry_group_IT_number 15
_symmetry_cell_setting 'monoclinic'
loop_
_space_group_symop_operation_xyz
x,y,z
-x,y,1/2-z
-x,-y,-z
x,-y,1/2+z
1/2+x,1/2+y,z
1/2-x,1/2+y,1/2-z
1/2-x,1/2-y,-z
1/2+x,1/2-y,1/2+z
loop_
_atom_site_type_symbol
_atom_site_label
_atom_site_fract_x
_atom_site_fract_y
_atom_site_fract_z
Si Si1 0.488232 0.596681 0.896355
Si Si2 0.712229 0.822302 0.611788
Si Si3 0.655332 0.939473 0.861165
Si Si4 0.305873 0.812159 0.210311
Si Si5 0.125466 0.860772 0.145202
Si Si6 0.761835 0.577730 0.963714
Si Si7 0.586441 0.260509 0.412565
Si Si8 0.346107 0.366791 0.888696
O O1 0.500000 0.556350 0.750000
O O2 0.429012 0.638066 0.911711
O O3 0.527256 0.703921 0.913935
O O4 0.500000 0.500000 0.000000
O O5 0.683008 0.887397 0.733150
O O6 0.762213 0.749215 0.640019
O O7 0.667767 0.730279 0.580604
O O8 0.735635 0.935586 0.535425
O O9 0.600345 0.877700 0.894075
O O10 0.659901 0.081276 0.854230
O O11 0.689736 0.890772 0.964040
O O12 0.271963 0.874792 0.325827
O O13 0.340089 0.712903 0.268722
O O14 0.114563 0.822727 0.288906
O O15 0.143140 0.996384 0.142280
O O16 0.709739 0.629361 0.031579
O O17 0.611155 0.314443 0.530026
#
# Coordination Sequence:
#
# PCOD9272379 Si02
#       8
#     8   8   8   8   8   8   8   8
#     4  10  20  40  65  96 124 159 205 271 324 380
#     4  10  22  36  53  84 120 161 202 246 297 367
#     4  10  20  37  54  78 114 163 204 240 298 365
#     4  11  22  34  53  83 120 162 204 245 295 368
#     4  10  22  37  57  89 121 154 199 253 313 377
#     4  11  21  35  54  78 120 159 199 240 294 368
#     4  10  21  38  61  84 116 157 198 249 322 369
#     4  12  21  33  57  86 119 158 196 244 312 363
#
# _framework density 20.110040999999999
#
# number of rings (size 3 to 8) (size 9 to 14) (size 15 to 20)
#    0.000    1.500    3.750    2.625    3.500    2.000 
#    0.000    0.000    0.000    0.750    6.500    0.000 
#    0.000    0.000    0.000    0.000    0.000    0.000 
#
# Total GULP energy -178622.641757 kJ/mol
# GULP energy per Si atom -5581.957555 kJ/mol
# Density = 2.006427 g / cm^3
# Si number density = 20.110041 Si / 1000 Ang^3
#
#
#
# Elastic Constant Matrix: (Units=GPa)
#
#
# Indices 1 2 3 4 5 6 
#
# 1 98.6681 58.3598 29.6631 0.0000 20.9762 0.0000
# 2 58.3598 146.0652 20.9166 0.0000 13.2044 0.0000
# 3 29.6631 20.9166 49.3013 0.0000 18.7745 0.0000
# 4 0.0000 0.0000 0.0000 27.9738 0.0000 26.0359
# 5 20.9762 13.2044 18.7745 0.0000 23.2652 0.0000
# 6 0.0000 0.0000 0.0000 26.0359 0.0000 -36.5237
#
#
#
# Elastic Compliance Matrix: (Units=1/GPa)
#
#
# Indices 1 2 3 4 5 6 
#
# 1 0.016235 -0.005108 -0.004520 0.000000 -0.008091 0.000000
# 2 -0.005108 0.008988 -0.000796 0.000000 0.000146 0.000000
# 3 -0.004520 -0.000796 0.031207 0.000000 -0.020656 0.000000
# 4 0.000000 0.000000 0.000000 0.021490 0.000000 0.015319
# 5 -0.008091 0.000146 -0.020656 0.000000 0.066864 0.000000
# 6 0.000000 0.000000 0.000000 0.015319 0.000000 -0.016459
#
#
# Mechanical properties :
#
#
# Convention : Reuss Voigt Hill
#
# Bulk Modulus (GPa) = 28.10346 56.87929 42.49138
# Shear Modulus (GPa) = 31.04968 15.28273 23.16621
#
# Velocity S-wave (km/s) = 3.93363 2.75972 3.39775
# Velocity P-wave (km/s) = 5.88527 6.20485 6.04717
#
# Compressibility (1/GPa) = 0.03558281
#
# Stress axis : x y z
#
# Youngs Moduli (GPa) = 61.59430 111.26131 32.04453
#
# Poissons Ratio (x) = 0.56833 0.14484
# Poissons Ratio (y) = 0.31463 0.02549
# Poissons Ratio (z) = 0.27840 0.08851
#
# Static dielectric constant tensor:
#      x y z
#    x 1.682060 0.000000 -0.006170 
#    y 0.000000 1.718110 0.000000 
#    z -0.006170 0.000000 1.791450 
# 
# From -- ./inp_files/117602.got.cif
#   From: 2010.05.17/outbox.cif.g08.bks.cpg/sg15_59_cif.got.tgz:117602.got - 2010.06.03 18:47:42.
