data_PCOD9272526
_publ_section_title
;
Structure prediction by ZEFSAII (Michael W. Deem and Ramdas Pophale) SiO2 
 PCOD9272526
Probable space group: C 2/C
;
_chemical_formula_sum "Si O2"
_cell_formula_units_Z 56
_cell_length_a 14.826928
_cell_length_b 21.316600
_cell_length_c 10.101605
_cell_angle_alpha 90.000000
_cell_angle_beta 88.368170
_cell_angle_gamma 90.000000
_cell_volume 3191.415373
_symmetry_space_group_name_H-M "C 2/C"
_symmetry_group_IT_number 15
_symmetry_cell_setting 'monoclinic'
loop_
_space_group_symop_operation_xyz
x,y,z
-x,y,1/2-z
-x,-y,-z
x,-y,1/2+z
1/2+x,1/2+y,z
1/2-x,1/2+y,1/2-z
1/2-x,1/2-y,-z
1/2+x,1/2-y,1/2+z
loop_
_atom_site_type_symbol
_atom_site_label
_atom_site_fract_x
_atom_site_fract_y
_atom_site_fract_z
Si Si1 0.890517 0.192175 0.750905
Si Si2 0.204821 0.496885 0.026787
Si Si3 0.182442 0.121558 0.485712
Si Si4 0.672815 0.373992 0.515940
Si Si5 0.203557 0.326415 0.758097
Si Si6 0.896521 0.457515 0.716512
Si Si7 0.004028 0.944072 0.895554
O O1 0.850125 0.157613 0.882146
O O2 0.853566 0.159116 0.619626
O O3 0.852427 0.262761 0.747723
O O4 0.000000 0.190073 0.750000
O O5 0.257955 0.559991 0.984650
O O6 0.269631 0.436834 0.015349
O O7 0.125120 0.484475 0.926559
O O8 0.165904 0.506856 0.174365
O O9 0.238802 0.162915 0.378557
O O10 0.094713 0.094613 0.415224
O O11 0.729487 0.332093 0.617817
O O12 0.580458 0.398089 0.584944
O O13 0.136285 0.385523 0.775103
O O14 0.000000 0.463314 0.750000
O O15 0.000000 0.972649 0.750000
O O16 0.000000 0.000000 0.000000
#
# Coordination Sequence:
#
# PCOD9272526 Si02
#       7
#     8   8   8   8   8   8   8
#     4  12  24  37  60  87 111 157 210 243 288 354
#     4  10  21  35  58  86 114 146 182 233 305 354
#     4  11  22  39  59  87 122 153 190 245 301 357
#     4  11  22  39  59  87 122 153 190 245 301 357
#     4  10  23  41  58  78 118 160 198 243 287 350
#     4  10  20  37  58  81 111 147 190 241 284 340
#     4  12  24  36  62  94 130 154 188 239 304 368
#
# _framework density 17.547073000000001
#
# number of rings (size 3 to 8) (size 9 to 14) (size 15 to 20)
#    0.000    1.143    4.286    2.571    2.000    0.000 
#    0.000    0.000    0.000    0.000    0.000    0.000 
#    0.000    0.000    0.000    0.000    0.000    0.000 
#
# Total GULP energy -156408.522927 kJ/mol
# GULP energy per Si atom -5586.018676 kJ/mol
# Density = 1.750714 g / cm^3
# Si number density = 17.547073 Si / 1000 Ang^3
#
#
#
# Elastic Constant Matrix: (Units=GPa)
#
#
# Indices 1 2 3 4 5 6 
#
# 1 87.7471 31.5941 18.3386 0.0000 17.5206 0.0000
# 2 31.5941 77.2621 53.4192 0.0000 6.0452 0.0000
# 3 18.3386 53.4192 117.0682 0.0000 9.7481 0.0000
# 4 0.0000 0.0000 0.0000 15.9850 0.0000 0.6064
# 5 17.5206 6.0452 9.7481 0.0000 27.2771 0.0000
# 6 0.0000 0.0000 0.0000 0.6064 0.0000 22.4907
#
#
#
# Elastic Compliance Matrix: (Units=1/GPa)
#
#
# Indices 1 2 3 4 5 6 
#
# 1 0.015192 -0.006406 0.001276 0.000000 -0.008795 0.000000
# 2 -0.006406 0.021644 -0.009087 0.000000 0.002565 0.000000
# 3 0.001276 -0.009087 0.012769 0.000000 -0.003369 0.000000
# 4 0.000000 0.000000 0.000000 0.062623 0.000000 -0.001688
# 5 -0.008795 0.002565 -0.003369 0.000000 0.042945 0.000000
# 6 0.000000 0.000000 0.000000 -0.001688 0.000000 0.044508
#
#
# Mechanical properties :
#
#
# Convention : Reuss Voigt Hill
#
# Bulk Modulus (GPa) = 47.23372 54.30900 50.77136
# Shear Modulus (GPa) = 21.26087 25.06559 23.16323
#
# Velocity S-wave (km/s) = 3.48465 3.78362 3.63721
# Velocity P-wave (km/s) = 6.57017 7.07851 6.82907
#
# Compressibility (1/GPa) = 0.02117132
#
# Stress axis : x y z
#
# Youngs Moduli (GPa) = 65.82201 46.20119 78.31458
#
# Poissons Ratio (x) = 0.29599 -0.09991
# Poissons Ratio (y) = 0.42169 0.71161
# Poissons Ratio (z) = -0.08397 0.41981
#
# Static dielectric constant tensor:
#      x y z
#    x 1.580890 0.000000 -0.001690 
#    y 0.000000 1.569240 0.000000 
#    z -0.001690 0.000000 1.602760 
# 
# From -- ./inp_files/41231.got.cif
#   From: 2010.05.17/outbox.cif.g08.bks.cpg/sg15_21_cif.got.tgz:41231.got - 2010.06.03 18:47:42.
