data_PCOD9272186
_publ_section_title
;
Structure prediction by ZEFSAII (Michael W. Deem and Ramdas Pophale) SiO2 
 PCOD9272186
Probable space group: C 2/C
;
_chemical_formula_sum "Si O2"
_cell_formula_units_Z 56
_cell_length_a 13.302697
_cell_length_b 10.513681
_cell_length_c 19.003114
_cell_angle_alpha 90.000000
_cell_angle_beta 67.377409
_cell_angle_gamma 90.000000
_cell_volume 2453.288099
_symmetry_space_group_name_H-M "C 2/C"
_symmetry_group_IT_number 15
_symmetry_cell_setting 'monoclinic'
loop_
_space_group_symop_operation_xyz
x,y,z
-x,y,1/2-z
-x,-y,-z
x,-y,1/2+z
1/2+x,1/2+y,z
1/2-x,1/2+y,1/2-z
1/2-x,1/2-y,-z
1/2+x,1/2-y,1/2+z
loop_
_atom_site_type_symbol
_atom_site_label
_atom_site_fract_x
_atom_site_fract_y
_atom_site_fract_z
Si Si1 0.245527 0.053321 0.109308
Si Si2 0.610056 0.756052 0.736814
Si Si3 0.844828 0.202542 0.921938
Si Si4 0.411796 0.020735 0.689514
Si Si5 0.559553 0.105460 0.534840
Si Si6 0.043705 0.136900 0.963961
Si Si7 0.261741 0.819913 0.322750
O O1 0.202470 0.184303 0.154183
O O2 0.170817 0.940373 0.102999
O O3 0.323914 0.995432 0.149312
O O4 0.316409 0.087728 0.021354
O O5 0.500000 0.677469 0.750000
O O6 0.662056 0.784869 0.647229
O O7 0.695258 0.698558 0.767591
O O8 0.569927 0.880147 0.787972
O O9 0.961293 0.197852 0.928463
O O10 0.750000 0.250000 0.000000
O O11 0.517947 0.075712 0.623292
O O12 0.361487 0.097370 0.768034
O O13 0.536591 0.252990 0.524576
O O14 0.500000 0.000000 0.500000
O O15 0.166760 0.127962 0.900372
O O16 0.000000 0.000000 0.000000
#
# Coordination Sequence:
#
# PCOD9272186 Si02
#       7
#     8   8   8   8   8   8   8
#     4   9  20  37  61  90 124 163 203 262 316 375
#     4  11  23  39  60  96 122 159 213 268 306 366
#     4  12  24  39  65  94 123 166 219 257 316 387
#     4  10  20  36  65  87 121 165 212 256 313 385
#     4   9  19  40  63  90 124 171 212 252 321 378
#     4  11  25  41  63  96 131 169 212 269 320 378
#     4  10  21  41  62  88 129 164 204 260 326 371
#
# _framework density 22.826509000000001
#
# number of rings (size 3 to 8) (size 9 to 14) (size 15 to 20)
#    0.000    1.714    2.857    2.571    4.000    1.143 
#    0.000    4.286    0.000    0.000    0.000    0.000 
#    0.000    0.000    0.000    0.000    0.000    0.000 
#
# Total GULP energy -156307.605883 kJ/mol
# GULP energy per Si atom -5582.414496 kJ/mol
# Density = 2.277455 g / cm^3
# Si number density = 22.826509 Si / 1000 Ang^3
#
#
#
# Elastic Constant Matrix: (Units=GPa)
#
#
# Indices 1 2 3 4 5 6 
#
# 1 27.8462 9.7576 24.3814 0.0000 6.7176 0.0000
# 2 9.7576 121.4907 68.8627 0.0000 -20.4653 0.0000
# 3 24.3814 68.8627 163.8381 0.0000 -21.4087 0.0000
# 4 0.0000 0.0000 0.0000 32.6472 0.0000 -12.5937
# 5 6.7176 -20.4653 -21.4087 0.0000 29.1929 0.0000
# 6 0.0000 0.0000 0.0000 -12.5937 0.0000 13.4763
#
#
#
# Elastic Compliance Matrix: (Units=1/GPa)
#
#
# Indices 1 2 3 4 5 6 
#
# 1 0.049174 -0.002141 -0.008950 0.000000 -0.019380 0.000000
# 2 -0.002141 0.011513 -0.003762 0.000000 0.005805 0.000000
# 3 -0.008950 -0.003762 0.009889 0.000000 0.006674 0.000000
# 4 0.000000 0.000000 0.000000 0.047897 0.000000 0.044760
# 5 -0.019380 0.005805 0.006674 0.000000 0.047678 0.000000
# 6 0.000000 0.000000 0.000000 0.044760 0.000000 0.116033
#
#
# Mechanical properties :
#
#
# Convention : Reuss Voigt Hill
#
# Bulk Modulus (GPa) = 24.46815 57.68650 41.07733
# Shear Modulus (GPa) = 15.36036 29.07483 22.21759
#
# Velocity S-wave (km/s) = 2.59688 3.57281 3.12320
# Velocity P-wave (km/s) = 4.44232 6.50742 5.57139
#
# Compressibility (1/GPa) = 0.04086945
#
# Stress axis : x y z
#
# Youngs Moduli (GPa) = 20.33609 86.85645 101.12412
#
# Poissons Ratio (x) = 0.18595 0.90509
# Poissons Ratio (y) = 0.04354 0.38043
# Poissons Ratio (z) = 0.18201 0.32675
#
# Static dielectric constant tensor:
#      x y z
#    x 2.090320 0.000000 0.101560 
#    y 0.000000 1.803630 0.000000 
#    z 0.101560 0.000000 1.917930 
# 
# From -- ./inp_files/203943.got.cif
#   From: 2010.05.17/outbox.cif.g08.bks.cpg/sg15_102_cif.got.tgz:203943.got - 2010.06.03 18:47:42.
