data_PCOD9272462
_publ_section_title
;
Structure prediction by ZEFSAII (Michael W. Deem and Ramdas Pophale) SiO2 
 PCOD9272462
Probable space group: C 2/C
;
_chemical_formula_sum "Si O2"
_cell_formula_units_Z 48
_cell_length_a 10.363214
_cell_length_b 33.392077
_cell_length_c 16.470902
_cell_angle_alpha 90.000000
_cell_angle_beta 156.608340
_cell_angle_gamma 90.000000
_cell_volume 2262.879510
_symmetry_space_group_name_H-M "C 2/C"
_symmetry_group_IT_number 15
_symmetry_cell_setting 'monoclinic'
loop_
_space_group_symop_operation_xyz
x,y,z
-x,y,1/2-z
-x,-y,-z
x,-y,1/2+z
1/2+x,1/2+y,z
1/2-x,1/2+y,1/2-z
1/2-x,1/2-y,-z
1/2+x,1/2-y,1/2+z
loop_
_atom_site_type_symbol
_atom_site_label
_atom_site_fract_x
_atom_site_fract_y
_atom_site_fract_z
Si Si1 0.126859 0.705890 0.062065
Si Si2 0.173608 0.957526 0.614553
Si Si3 0.792318 0.128323 0.354070
Si Si4 0.248883 0.714673 0.318172
Si Si5 0.621921 0.875970 0.052788
Si Si6 0.664674 0.042555 0.103765
O O1 0.500000 0.705308 0.250000
O O2 0.081764 0.709544 0.133818
O O3 0.957722 0.745350 0.930502
O O4 0.972901 0.663013 0.950160
O O5 0.500000 0.957833 0.750000
O O6 0.017137 0.912733 0.513701
O O7 0.266956 0.956067 0.761824
O O8 0.000000 0.000000 0.500000
O O9 0.500000 0.130221 0.250000
O O10 0.944887 0.172794 0.444629
O O11 0.614439 0.125124 0.163313
O O12 0.000000 0.719096 0.250000
O O13 0.000000 0.873207 0.250000
O O14 0.551158 0.919693 0.048477
O O15 0.000000 0.044301 0.250000
O O16 0.500000 0.000000 0.000000
#
# Coordination Sequence:
#
# PCOD9272462 Si02
#       6
#     8   8   8   8   8   8
#     4  11  22  37  56  84 116 146 182 234 285 331
#     4  10  20  37  57  79 110 149 184 223 273 328
#     4   8  18  35  55  78 107 140 182 229 270 320
#     4  10  20  37  58  80 109 150 190 228 275 336
#     4  10  21  37  58  82 110 148 189 228 277 334
#     4  11  22  37  57  85 115 145 183 232 278 327
#
# _framework density 21.211912000000002
#
# number of rings (size 3 to 8) (size 9 to 14) (size 15 to 20)
#    0.000    2.000    0.000    3.500    0.000    5.333 
#    0.000    0.833    0.000    0.000    0.000    0.000 
#    0.000    0.000    0.000    0.000    0.000    0.000 
#
# Total GULP energy -133734.165781 kJ/mol
# GULP energy per Si atom -5572.256908 kJ/mol
# Density = 2.116363 g / cm^3
# Si number density = 21.211912 Si / 1000 Ang^3
#
#
#
# Elastic Constant Matrix: (Units=GPa)
#
#
# Indices 1 2 3 4 5 6 
#
# 1 64.7526 -9.7522 -2.7214 -0.0001 8.6581 0.0000
# 2 -9.7522 270.6256 56.6649 0.0000 13.3637 0.0000
# 3 -2.7214 56.6649 47.1257 -0.0003 25.0929 -0.0001
# 4 -0.0001 0.0000 -0.0003 107.8815 -0.0001 27.0042
# 5 8.6581 13.3637 25.0929 -0.0001 27.1885 0.0000
# 6 0.0000 0.0000 -0.0001 27.0042 0.0000 32.6950
#
#
#
# Elastic Compliance Matrix: (Units=1/GPa)
#
#
# Indices 1 2 3 4 5 6 
#
# 1 0.017537 -0.000559 0.008873 0.000000 -0.013499 0.000000
# 2 -0.000559 0.005511 -0.010443 0.000000 0.007107 0.000000
# 3 0.008873 -0.010443 0.065006 0.000000 -0.057688 0.000000
# 4 0.000000 0.000000 0.000000 0.011685 0.000000 -0.009651
# 5 -0.013499 0.007107 -0.057688 0.000000 0.090827 0.000000
# 6 0.000000 0.000000 0.000000 -0.009651 0.000000 0.038557
#
#
# Mechanical properties :
#
#
# Convention : Reuss Voigt Hill
#
# Bulk Modulus (GPa) = 11.93394 52.32071 32.12733
# Shear Modulus (GPa) = 19.13419 56.10719 37.62069
#
# Velocity S-wave (km/s) = 3.00667 5.14861 4.21594
# Velocity P-wave (km/s) = 4.20615 7.75007 6.23519
#
# Compressibility (1/GPa) = 0.08379461
#
# Stress axis : x y z
#
# Youngs Moduli (GPa) = 57.02237 181.46926 15.38329
#
# Poissons Ratio (x) = 0.10149 -0.13649
# Poissons Ratio (y) = 0.03189 0.16064
# Poissons Ratio (z) = -0.50595 1.89504
#
# Static dielectric constant tensor:
#      x y z
#    x 1.768240 0.000000 -0.051280 
#    y 0.000000 1.917130 0.000000 
#    z -0.051280 0.000000 1.753470 
# 
# From -- ./inp_files/241120.got.cif
#   From: 2010.05.17/outbox.cif.g08.bks.cpg/sg15_121_cif.got.tgz:241120.got - 2010.06.03 18:47:42.
