data_PCOD9272617
_publ_section_title
;
Structure prediction by ZEFSAII (Michael W. Deem and Ramdas Pophale) SiO2 
 PCOD9272617
Probable space group: C 2/C
;
_chemical_formula_sum "Si O2"
_cell_formula_units_Z 48
_cell_length_a 26.116610
_cell_length_b 12.364716
_cell_length_c 19.233630
_cell_angle_alpha 90.000000
_cell_angle_beta 18.029563
_cell_angle_gamma 90.000000
_cell_volume 1922.355146
_symmetry_space_group_name_H-M "C 2/C"
_symmetry_group_IT_number 15
_symmetry_cell_setting 'monoclinic'
loop_
_space_group_symop_operation_xyz
x,y,z
-x,y,1/2-z
-x,-y,-z
x,-y,1/2+z
1/2+x,1/2+y,z
1/2-x,1/2+y,1/2-z
1/2-x,1/2-y,-z
1/2+x,1/2-y,1/2+z
loop_
_atom_site_type_symbol
_atom_site_label
_atom_site_fract_x
_atom_site_fract_y
_atom_site_fract_z
Si Si1 0.275438 0.831319 0.405849
Si Si2 0.894511 0.616870 0.085091
Si Si3 0.152954 0.845686 0.793704
Si Si4 0.694009 0.587286 0.705973
Si Si5 0.158019 0.932174 0.090510
Si Si6 0.521711 0.882963 0.563614
O O1 0.250000 0.750000 0.500000
O O2 0.261093 0.754972 0.356499
O O3 0.170583 0.938193 0.557361
O O4 0.467085 0.863902 0.151836
O O5 0.720344 0.660932 0.285338
O O6 0.963783 0.670922 0.065720
O O7 0.886451 0.486347 0.093692
O O8 0.226854 0.957740 0.667295
O O9 0.960147 0.879984 0.045670
O O10 0.649420 0.602777 0.682422
O O11 0.855504 0.641946 0.531695
O O12 0.000000 0.892423 0.250000
O O13 0.339988 0.897451 0.830432
#
# Coordination Sequence:
#
# PCOD9272617 Si02
#       6
#     8   8   8   8   8   8
#     4  11  23  36  55  93 131 162 196 252 318 371
#     4   9  20  36  55  80 119 162 203 256 303 366
#     4  10  21  35  57  83 120 162 211 248 304 373
#     4  10  20  37  59  82 115 165 210 254 301 366
#     4  11  22  36  62  92 125 160 206 255 307 365
#     4   9  19  38  58  81 115 161 215 254 302 360
#
# _framework density 24.969372
#
# number of rings (size 3 to 8) (size 9 to 14) (size 15 to 20)
#    0.000    2.000    1.667    1.500    2.333    5.333 
#    0.000    0.000    0.000    1.000    0.000    0.000 
#    0.000    0.000    0.000    0.000    0.000    0.000 
#
# Total GULP energy -133635.284997 kJ/mol
# GULP energy per Si atom -5568.136875 kJ/mol
# Density = 2.491254 g / cm^3
# Si number density = 24.969372 Si / 1000 Ang^3
#
#
#
# Elastic Constant Matrix: (Units=GPa)
#
#
# Indices 1 2 3 4 5 6 
#
# 1 175.9878 -2.1819 64.4860 0.0007 -31.2341 -0.0004
# 2 -2.1819 46.0654 -23.4713 0.0011 0.3609 -0.0008
# 3 64.4860 -23.4713 83.5520 0.0014 -28.9927 -0.0013
# 4 0.0007 0.0011 0.0014 10.2547 -0.0010 11.1681
# 5 -31.2341 0.3609 -28.9927 -0.0010 55.1951 0.0007
# 6 -0.0004 -0.0008 -0.0013 11.1681 0.0007 32.3898
#
#
#
# Elastic Compliance Matrix: (Units=1/GPa)
#
#
# Indices 1 2 3 4 5 6 
#
# 1 0.008401 -0.003174 -0.006993 0.000002 0.001101 -0.000001
# 2 -0.003174 0.027426 0.011579 -0.000008 0.004107 0.000004
# 3 -0.006993 0.011579 0.023503 -0.000007 0.008313 0.000003
# 4 0.000002 -0.000008 -0.000007 0.156155 0.000001 -0.053843
# 5 0.001101 0.004107 0.008313 0.000001 0.023080 0.000000
# 6 -0.000001 0.000004 0.000003 -0.053843 0.000000 0.049439
#
#
# Mechanical properties :
#
#
# Convention : Reuss Voigt Hill
#
# Bulk Modulus (GPa) = 16.08920 42.58564 29.33742
# Shear Modulus (GPa) = 16.34529 37.35276 26.84902
#
# Velocity S-wave (km/s) = 2.56132 3.87194 3.28270
# Velocity P-wave (km/s) = 3.89932 6.08945 5.11303
#
# Compressibility (1/GPa) = 0.06215348
#
# Stress axis : x y z
#
# Youngs Moduli (GPa) = 119.03612 36.46232 42.54709
#
# Poissons Ratio (x) = 0.11573 0.29754
# Poissons Ratio (y) = 0.37782 -0.49266
# Poissons Ratio (z) = 0.83245 -0.42220
#
# Static dielectric constant tensor:
#      x y z
#    x 2.089920 0.000000 0.015920 
#    y 0.000000 2.369210 0.000000 
#    z 0.015920 0.000000 2.087770 
# 
# From -- ./inp_files/219948.got.cif
#   From: 2010.05.17/outbox.cif.g08.bks.cpg/sg15_110_cif.got.tgz:219948.got - 2010.06.03 18:47:42.
