data_PCOD9272442
_publ_section_title
;
Structure prediction by ZEFSAII (Michael W. Deem and Ramdas Pophale) SiO2 
 PCOD9272442
Probable space group: C 2/C
;
_chemical_formula_sum "Si O2"
_cell_formula_units_Z 60
_cell_length_a 26.540172
_cell_length_b 20.490705
_cell_length_c 13.871457
_cell_angle_alpha 90.000000
_cell_angle_beta 156.579481
_cell_angle_gamma 90.000000
_cell_volume 2998.432036
_symmetry_space_group_name_H-M "C 2/C"
_symmetry_group_IT_number 15
_symmetry_cell_setting 'monoclinic'
loop_
_space_group_symop_operation_xyz
x,y,z
-x,y,1/2-z
-x,-y,-z
x,-y,1/2+z
1/2+x,1/2+y,z
1/2-x,1/2+y,1/2-z
1/2-x,1/2-y,-z
1/2+x,1/2-y,1/2+z
loop_
_atom_site_type_symbol
_atom_site_label
_atom_site_fract_x
_atom_site_fract_y
_atom_site_fract_z
Si Si1 0.000000 0.015504 0.250000
Si Si2 0.183855 0.171506 0.835082
Si Si3 0.016640 0.929446 0.578979
Si Si4 0.440623 0.768391 0.741552
Si Si5 0.782291 0.513942 0.305587
Si Si6 0.778077 0.565940 0.508367
Si Si7 0.911326 0.395912 0.433157
Si Si8 0.668631 0.065814 0.303175
O O1 0.958627 0.059563 0.265861
O O2 0.129376 0.980449 0.515851
O O3 0.088901 0.221978 0.719365
O O4 0.104026 0.116107 0.642716
O O5 0.297930 0.202919 0.974055
O O6 0.258023 0.132249 0.048982
O O7 0.143034 0.899705 0.755415
O O8 0.000000 0.000000 0.500000
O O9 0.500000 0.736440 0.750000
O O10 0.538182 0.826862 0.939196
O O11 0.819550 0.541662 0.475339
O O12 0.827108 0.439381 0.359227
O O13 0.851256 0.555528 0.344073
O O14 0.852820 0.606011 0.721872
O O15 0.756719 0.496958 0.526931
O O16 0.041142 0.434889 0.640812
#
# Coordination Sequence:
#
# PCOD9272442 Si02
#       8
#     4   8   8   8   8   8   8   8
#     4  12  20  32  56  88 120 164 192 232 304 372
#     4  10  22  42  62  89 119 157 209 262 302 348
#     4  12  21  36  59  92 129 153 190 255 316 363
#     4  10  24  42  66  84 114 167 218 254 291 360
#     4  11  21  32  57  90 127 161 193 242 314 369
#     4  11  21  34  55  94 127 159 187 247 317 361
#     4  10  23  38  56  86 126 160 209 245 293 372
#     4  10  20  37  56  84 124 152 197 254 296 365
#
# _framework density 20.010456999999999
#
# number of rings (size 3 to 8) (size 9 to 14) (size 15 to 20)
#    0.000    1.333    5.333    1.600    5.600    2.667 
#    1.200    0.667    0.000    4.800    0.000    0.000 
#    0.000    0.000    0.000    0.000    0.000    0.000 
#
# Total GULP energy -167033.340101 kJ/mol
# GULP energy per Si atom -5567.778003 kJ/mol
# Density = 1.996491 g / cm^3
# Si number density = 20.010457 Si / 1000 Ang^3
#
#
#
# Elastic Constant Matrix: (Units=GPa)
#
#
# Indices 1 2 3 4 5 6 
#
# 1 115.6942 7.7109 11.1443 0.0000 -8.8529 0.0000
# 2 7.7109 18.9768 6.4177 0.0000 9.1747 0.0000
# 3 11.1443 6.4177 72.1215 0.0000 2.6960 0.0000
# 4 0.0000 0.0000 0.0000 25.6094 0.0000 6.1182
# 5 -8.8529 9.1747 2.6960 0.0000 30.6323 0.0000
# 6 0.0000 0.0000 0.0000 6.1182 0.0000 13.6050
#
#
#
# Elastic Compliance Matrix: (Units=1/GPa)
#
#
# Indices 1 2 3 4 5 6 
#
# 1 0.009476 -0.005660 -0.001130 0.000000 0.004534 0.000000
# 2 -0.005660 0.066708 -0.004267 0.000000 -0.021240 0.000000
# 3 -0.001130 -0.004267 0.014432 0.000000 -0.000319 0.000000
# 4 0.000000 0.000000 0.000000 0.043748 0.000000 -0.019674
# 5 0.004534 -0.021240 -0.000319 0.000000 0.040345 0.000000
# 6 0.000000 0.000000 0.000000 -0.019674 0.000000 0.082350
#
#
# Mechanical properties :
#
#
# Convention : Reuss Voigt Hill
#
# Bulk Modulus (GPa) = 14.59841 28.59314 21.59577
# Shear Modulus (GPa) = 16.55585 26.07065 21.31325
#
# Velocity S-wave (km/s) = 2.87951 3.61342 3.26714
# Velocity P-wave (km/s) = 4.28563 5.63287 5.00479
#
# Compressibility (1/GPa) = 0.06850063
#
# Stress axis : x y z
#
# Youngs Moduli (GPa) = 105.52431 14.99075 69.29160
#
# Poissons Ratio (x) = 0.08485 0.07831
# Poissons Ratio (y) = 0.59729 0.29569
# Poissons Ratio (z) = 0.11925 0.06397
#
# Static dielectric constant tensor:
#      x y z
#    x 1.770430 0.000000 0.019460 
#    y 0.000000 1.719460 0.000000 
#    z 0.019460 0.000000 1.825210 
# 
# From -- ./inp_files/183098.got.cif
#   From: 2010.05.17/outbox.cif.g08.bks.cpg/sg15_92_cif.got.tgz:183098.got - 2010.06.03 18:47:42.
