data_PCOD9272331
_publ_section_title
;
Structure prediction by ZEFSAII (Michael W. Deem and Ramdas Pophale) SiO2 
 PCOD9272331
Probable space group: C 2/C
;
_chemical_formula_sum "Si O2"
_cell_formula_units_Z 44
_cell_length_a 7.325664
_cell_length_b 18.507112
_cell_length_c 19.437031
_cell_angle_alpha 90.000000
_cell_angle_beta 129.735129
_cell_angle_gamma 90.000000
_cell_volume 2026.498583
_symmetry_space_group_name_H-M "C 2/C"
_symmetry_group_IT_number 15
_symmetry_cell_setting 'monoclinic'
loop_
_space_group_symop_operation_xyz
x,y,z
-x,y,1/2-z
-x,-y,-z
x,-y,1/2+z
1/2+x,1/2+y,z
1/2-x,1/2+y,1/2-z
1/2-x,1/2-y,-z
1/2+x,1/2-y,1/2+z
loop_
_atom_site_type_symbol
_atom_site_label
_atom_site_fract_x
_atom_site_fract_y
_atom_site_fract_z
Si Si1 0.826687 0.846360 0.970877
Si Si2 0.000000 0.123261 0.750000
Si Si3 0.525561 0.513436 0.349117
Si Si4 0.273011 0.929326 0.038540
Si Si5 0.591553 0.051858 0.173446
Si Si6 0.623178 0.808859 0.071479
O O1 0.597682 0.884778 0.881604
O O2 0.909198 0.776297 0.947117
O O3 0.750499 0.828600 0.030195
O O4 0.056061 0.896561 0.027483
O O5 0.214853 0.174009 0.823387
O O6 0.980009 0.066825 0.808599
O O7 0.656522 0.519707 0.452551
O O8 0.267353 0.551169 0.281432
O O9 0.714981 0.549983 0.342230
O O10 0.407340 0.864041 0.031877
O O11 0.449437 0.976883 0.127152
#
# Coordination Sequence:
#
# PCOD9272331 Si02
#       6
#     8   4   8   8   8   8
#     4  11  25  39  65 102 125 175 219 268 328 402
#     4  10  20  40  68  88 122 188 202 264 334 386
#     4  10  20  36  70  89 119 175 216 258 341 372
#     4  12  21  41  69  91 133 172 215 277 329 385
#     4  10  20  39  61  96 127 159 222 275 311 385
#     4  11  23  44  64  90 142 173 215 262 341 399
#
# _framework density 21.712326999999998
#
# number of rings (size 3 to 8) (size 9 to 14) (size 15 to 20)
#    0.000    1.455    5.455    2.727    0.000    2.182 
#    0.000    2.727    0.000    0.000    0.000    0.000 
#    0.000    0.000    0.000    0.000    0.000    0.000 
#
# Total GULP energy -122844.462991 kJ/mol
# GULP energy per Si atom -5583.839227 kJ/mol
# Density = 2.166291 g / cm^3
# Si number density = 21.712327 Si / 1000 Ang^3
#
#
#
# Elastic Constant Matrix: (Units=GPa)
#
#
# Indices 1 2 3 4 5 6 
#
# 1 68.7637 37.2983 36.5307 0.0000 5.5776 0.0000
# 2 37.2983 109.9248 41.0503 0.0000 7.3849 0.0000
# 3 36.5307 41.0503 110.3426 0.0000 31.2153 0.0000
# 4 0.0000 0.0000 0.0000 23.1866 0.0000 1.0749
# 5 5.5776 7.3849 31.2153 0.0000 22.8326 0.0000
# 6 0.0000 0.0000 0.0000 1.0749 0.0000 29.3345
#
#
#
# Elastic Compliance Matrix: (Units=1/GPa)
#
#
# Indices 1 2 3 4 5 6 
#
# 1 0.020104 -0.004795 -0.006394 0.000000 0.005382 0.000000
# 2 -0.004795 0.011853 -0.003374 0.000000 0.001950 0.000000
# 3 -0.006394 -0.003374 0.019053 0.000000 -0.023395 0.000000
# 4 0.000000 0.000000 0.000000 0.043202 0.000000 -0.001583
# 5 0.005382 0.001950 -0.023395 0.000000 0.073836 0.000000
# 6 0.000000 0.000000 0.000000 -0.001583 0.000000 0.034148
#
#
# Mechanical properties :
#
#
# Convention : Reuss Voigt Hill
#
# Bulk Modulus (GPa) = 45.69631 57.64329 51.66980
# Shear Modulus (GPa) = 20.95417 26.68086 23.81752
#
# Velocity S-wave (km/s) = 3.10995 3.50928 3.31563
# Velocity P-wave (km/s) = 5.82989 6.55944 6.20540
#
# Compressibility (1/GPa) = 0.02188360
#
# Stress axis : x y z
#
# Youngs Moduli (GPa) = 49.74159 84.36650 52.48500
#
# Poissons Ratio (x) = 0.40454 0.33560
# Poissons Ratio (y) = 0.23851 0.17708
# Poissons Ratio (z) = 0.31806 0.28464
#
# Static dielectric constant tensor:
#      x y z
#    x 1.847910 0.000000 -0.019180 
#    y 0.000000 1.842090 0.000000 
#    z -0.019180 0.000000 1.790540 
# 
# From -- ./inp_files/265640.got.cif
#   From: 2010.05.17/outbox.cif.g08.bks.cpg/sg15_133_cif.got.tgz:265640.got - 2010.06.03 18:47:42.
