data_PCOD9272894
_publ_section_title
;
Structure prediction by ZEFSAII (Michael W. Deem and Ramdas Pophale) SiO2 
 PCOD9272894
Probable space group: C 2/C
;
_chemical_formula_sum "Si O2"
_cell_formula_units_Z 36
_cell_length_a 11.743358
_cell_length_b 12.264854
_cell_length_c 12.288671
_cell_angle_alpha 90.000000
_cell_angle_beta 120.217921
_cell_angle_gamma 90.000000
_cell_volume 1529.439715
_symmetry_space_group_name_H-M "C 2/C"
_symmetry_group_IT_number 15
_symmetry_cell_setting 'monoclinic'
loop_
_space_group_symop_operation_xyz
x,y,z
-x,y,1/2-z
-x,-y,-z
x,-y,1/2+z
1/2+x,1/2+y,z
1/2-x,1/2+y,1/2-z
1/2-x,1/2-y,-z
1/2+x,1/2-y,1/2+z
loop_
_atom_site_type_symbol
_atom_site_label
_atom_site_fract_x
_atom_site_fract_y
_atom_site_fract_z
Si Si1 0.506304 0.342048 0.020661
Si Si2 0.771016 0.326716 0.617418
Si Si3 0.511863 0.110595 0.572755
Si Si4 0.500000 0.674001 0.750000
Si Si5 0.701411 0.924481 0.359067
O O1 0.474685 0.389298 0.126380
O O2 0.646522 0.389650 0.054798
O O3 0.367609 0.356742 0.890181
O O4 0.500740 0.210995 0.015087
O O5 0.750000 0.250000 0.500000
O O6 0.824474 0.447937 0.626189
O O7 0.878576 0.251444 0.725519
O O8 0.393087 0.132587 0.599620
O O9 0.643480 0.102006 0.710957
O O10 0.500000 0.000000 0.500000
#
# Coordination Sequence:
#
# PCOD9272894 Si02
#       5
#     8   8   8   4   8
#     4  11  22  38  61  92 127 164 208 272 322 367
#     4  10  20  37  61  87 120 160 205 258 312 377
#     4  11  23  40  64  89 122 171 216 259 321 389
#     4  10  20  38  62  88 122 170 218 256 310 392
#     4  11  23  40  61  92 125 161 212 266 323 384
#
# _framework density 23.538031
#
# number of rings (size 3 to 8) (size 9 to 14) (size 15 to 20)
#    0.000    1.333    0.000    8.000    0.000    1.778 
#    0.000    0.000    0.000   10.667    0.000    0.000 
#    0.000    0.000    0.000    0.000    0.000    0.000 
#
# Total GULP energy -100246.226365 kJ/mol
# GULP energy per Si atom -5569.234798 kJ/mol
# Density = 2.348446 g / cm^3
# Si number density = 23.538031 Si / 1000 Ang^3
#
#
#
# Elastic Constant Matrix: (Units=GPa)
#
#
# Indices 1 2 3 4 5 6 
#
# 1 127.6627 -3.5587 32.2175 0.0000 34.6433 0.0000
# 2 -3.5587 84.7357 14.1214 0.0000 -7.0502 0.0000
# 3 32.2175 14.1214 98.1824 0.0000 6.0009 0.0000
# 4 0.0000 0.0000 0.0000 26.1282 0.0000 2.9001
# 5 34.6433 -7.0502 6.0009 0.0000 40.2857 0.0000
# 6 0.0000 0.0000 0.0000 2.9001 0.0000 29.2540
#
#
#
# Elastic Compliance Matrix: (Units=1/GPa)
#
#
# Indices 1 2 3 4 5 6 
#
# 1 0.011073 0.000234 -0.003116 0.000000 -0.009017 0.000000
# 2 0.000234 0.012330 -0.001988 0.000000 0.002253 0.000000
# 3 -0.003116 -0.001988 0.011455 0.000000 0.000625 0.000000
# 4 0.000000 0.000000 0.000000 0.038699 0.000000 -0.003836
# 5 -0.009017 0.002253 0.000625 0.000000 0.032878 0.000000
# 6 0.000000 0.000000 0.000000 -0.003836 0.000000 0.034564
#
#
# Mechanical properties :
#
#
# Convention : Reuss Voigt Hill
#
# Bulk Modulus (GPa) = 39.81120 44.01569 41.91345
# Shear Modulus (GPa) = 31.42465 36.98696 34.20581
#
# Velocity S-wave (km/s) = 3.65781 3.96835 3.81624
# Velocity P-wave (km/s) = 5.89828 6.30377 6.10439
#
# Compressibility (1/GPa) = 0.02511856
#
# Stress axis : x y z
#
# Youngs Moduli (GPa) = 90.31038 81.10340 87.29577
#
# Poissons Ratio (x) = -0.01899 0.27201
# Poissons Ratio (y) = -0.02114 0.17353
# Poissons Ratio (z) = 0.28141 0.16122
#
# Static dielectric constant tensor:
#      x y z
#    x 2.027770 0.000000 -0.023760 
#    y 0.000000 1.977520 0.000000 
#    z -0.023760 0.000000 2.114960 
# 
# From -- ./inp_files/112886.got.cif
#   From: 2010.05.17/outbox.cif.g08.bks.cpg/sg15_57_cif.got.tgz:112886.got - 2010.06.03 18:47:42.
