data_PCOD9272017
_publ_section_title
;
Structure prediction by ZEFSAII (Michael W. Deem and Ramdas Pophale) SiO2 
 PCOD9272017
Probable space group: C 2/C
;
_chemical_formula_sum "Si O2"
_cell_formula_units_Z 48
_cell_length_a 28.581709
_cell_length_b 8.570308
_cell_length_c 15.188638
_cell_angle_alpha 90.000000
_cell_angle_beta 140.469372
_cell_angle_gamma 90.000000
_cell_volume 2368.075009
_symmetry_space_group_name_H-M "C 2/C"
_symmetry_group_IT_number 15
_symmetry_cell_setting 'monoclinic'
loop_
_space_group_symop_operation_xyz
x,y,z
-x,y,1/2-z
-x,-y,-z
x,-y,1/2+z
1/2+x,1/2+y,z
1/2-x,1/2+y,1/2-z
1/2-x,1/2-y,-z
1/2+x,1/2-y,1/2+z
loop_
_atom_site_type_symbol
_atom_site_label
_atom_site_fract_x
_atom_site_fract_y
_atom_site_fract_z
Si Si1 0.673370 0.973174 0.591175
Si Si2 0.581500 0.455036 0.640640
Si Si3 0.579920 0.916049 0.104266
Si Si4 0.177635 0.369598 0.408174
Si Si5 0.677969 0.606066 0.634224
Si Si6 0.416685 0.588280 0.163281
O O1 0.688886 0.981958 0.508833
O O2 0.673289 0.790461 0.614785
O O3 0.602720 0.043529 0.537167
O O4 0.739157 0.055749 0.737557
O O5 0.500000 0.500000 0.500000
O O6 0.582587 0.270757 0.621090
O O7 0.637304 0.546701 0.661257
O O8 0.593001 0.498209 0.758993
O O9 0.643127 0.954639 0.271566
O O10 0.500000 0.000000 0.000000
O O11 0.250000 0.250000 0.500000
O O12 0.111841 0.259776 0.349995
O O13 0.636170 0.531494 0.490485
O O14 0.500000 0.590644 0.250000
#
# Coordination Sequence:
#
# PCOD9272017 Si02
#       6
#     8   8   8   8   8   8
#     4  11  23  41  65  92 126 170 213 266 318 387
#     4  11  21  39  62  89 125 164 211 264 319 381
#     4  11  24  40  62  96 130 164 217 272 321 382
#     4  10  22  41  66  89 127 175 220 250 319 410
#     4  11  22  40  64  91 122 164 217 256 319 380
#     4  10  20  36  63  89 118 166 214 249 311 401
#
# _framework density 20.269628000000001
#
# number of rings (size 3 to 8) (size 9 to 14) (size 15 to 20)
#    0.000    1.333    1.667    6.000    7.000    0.000 
#    0.000   10.000    0.000    0.000    0.000    0.000 
#    0.000    0.000    0.000    0.000    0.000    0.000 
#
# Total GULP energy -133655.081853 kJ/mol
# GULP energy per Si atom -5568.961744 kJ/mol
# Density = 2.022349 g / cm^3
# Si number density = 20.269628 Si / 1000 Ang^3
#
#
#
# Elastic Constant Matrix: (Units=GPa)
#
#
# Indices 1 2 3 4 5 6 
#
# 1 106.4956 11.2798 10.4021 0.0000 -18.6390 0.0000
# 2 11.2798 37.2253 -2.2888 0.0000 -7.4516 0.0000
# 3 10.4021 -2.2888 68.3971 0.0000 -22.2808 0.0000
# 4 0.0000 0.0000 0.0000 734.5358 0.0000 -81.0602
# 5 -18.6390 -7.4516 -22.2808 0.0000 37.8830 0.0000
# 6 0.0000 0.0000 0.0000 -81.0602 0.0000 47.5791
#
#
#
# Elastic Compliance Matrix: (Units=1/GPa)
#
#
# Indices 1 2 3 4 5 6 
#
# 1 0.010450 -0.002256 -0.000166 0.000000 0.004600 0.000000
# 2 -0.002256 0.029096 0.003488 0.000000 0.006664 0.000000
# 3 -0.000166 0.003488 0.018505 0.000000 0.011488 0.000000
# 4 0.000000 0.000000 0.000000 0.001677 0.000000 0.002856
# 5 0.004600 0.006664 0.011488 0.000000 0.036728 0.000000
# 6 0.000000 0.000000 0.000000 0.002856 0.000000 0.025884
#
#
# Mechanical properties :
#
#
# Convention : Reuss Voigt Hill
#
# Bulk Modulus (GPa) = 16.61639 27.87822 22.24731
# Shear Modulus (GPa) = 35.64584 176.84791 106.24687
#
# Velocity S-wave (km/s) = 4.19810 9.35078 7.24780
# Velocity P-wave (km/s) = 5.63153 11.41781 9.00224
#
# Compressibility (1/GPa) = 0.06018153
#
# Stress axis : x y z
#
# Youngs Moduli (GPa) = 95.69025 34.36951 54.04030
#
# Poissons Ratio (x) = 0.07754 0.00899
# Poissons Ratio (y) = 0.21588 -0.18848
# Poissons Ratio (z) = 0.01591 -0.11987
#
# Static dielectric constant tensor:
#      x y z
#    x 1.786020 0.000000 0.023140 
#    y 0.000000 1.729220 0.000000 
#    z 0.023140 0.000000 1.894790 
# 
# From -- ./inp_files/180891.got.cif
#   From: 2010.05.17/outbox.cif.g08.bks.cpg/sg15_91_cif.got.tgz:180891.got - 2010.06.03 18:47:42.
