data_PCOD9272410
_publ_section_title
;
Structure prediction by ZEFSAII (Michael W. Deem and Ramdas Pophale) SiO2 
 PCOD9272410
Probable space group: C 2/C
;
_chemical_formula_sum "Si O2"
_cell_formula_units_Z 48
_cell_length_a 23.932602
_cell_length_b 12.403681
_cell_length_c 7.204238
_cell_angle_alpha 90.000000
_cell_angle_beta 101.820619
_cell_angle_gamma 90.000000
_cell_volume 2093.243441
_symmetry_space_group_name_H-M "C 2/C"
_symmetry_group_IT_number 15
_symmetry_cell_setting 'monoclinic'
loop_
_space_group_symop_operation_xyz
x,y,z
-x,y,1/2-z
-x,-y,-z
x,-y,1/2+z
1/2+x,1/2+y,z
1/2-x,1/2+y,1/2-z
1/2-x,1/2-y,-z
1/2+x,1/2-y,1/2+z
loop_
_atom_site_type_symbol
_atom_site_label
_atom_site_fract_x
_atom_site_fract_y
_atom_site_fract_z
Si Si1 0.438387 0.531487 0.226412
Si Si2 0.211267 0.163721 0.576577
Si Si3 0.510445 0.124717 0.475415
Si Si4 0.916172 0.787488 0.437093
Si Si5 0.599425 0.711509 0.019551
Si Si6 0.314975 0.426683 0.065942
O O1 0.500000 0.474780 0.250000
O O2 0.434760 0.621854 0.385469
O O3 0.376496 0.473335 0.182583
O O4 0.437973 0.599516 0.032611
O O5 0.250000 0.250000 0.500000
O O6 0.147354 0.213927 0.522751
O O7 0.214547 0.039300 0.506622
O O8 0.218373 0.140147 0.801349
O O9 0.500000 0.138676 0.250000
O O10 0.460304 0.196600 0.530885
O O11 0.572569 0.174978 0.566218
O O12 0.500000 0.000000 0.500000
O O13 0.911290 0.781481 0.210520
O O14 0.663673 0.661455 0.071757
#
# Coordination Sequence:
#
# PCOD9272410 Si02
#       6
#     8   8   8   8   8   8
#     4  11  20  31  61  92 121 159 193 235 304 381
#     4  10  21  41  65  85 119 155 206 269 318 367
#     4  10  21  35  55  82 122 166 200 240 289 364
#     4   9  21  37  56  84 120 158 202 247 297 357
#     4  10  20  37  55  87 126 159 197 242 301 371
#     4  10  21  39  62  90 120 156 201 254 323 370
#
# _framework density 22.930921000000001
#
# number of rings (size 3 to 8) (size 9 to 14) (size 15 to 20)
#    0.000    2.000    3.333    0.000    2.333    4.000 
#    0.000    5.833    0.000    0.000    0.000    0.000 
#    0.000    0.000    0.000    0.000    0.000    0.000 
#
# Total GULP energy -133601.530792 kJ/mol
# GULP energy per Si atom -5566.730450 kJ/mol
# Density = 2.287873 g / cm^3
# Si number density = 22.930921 Si / 1000 Ang^3
#
#
#
# Elastic Constant Matrix: (Units=GPa)
#
#
# Indices 1 2 3 4 5 6 
#
# 1 72.0522 36.7113 25.3257 0.0000 -29.1825 0.0000
# 2 36.7113 147.2188 -5.7908 0.0000 -20.2973 0.0000
# 3 25.3257 -5.7908 61.0153 0.0000 -29.2432 0.0000
# 4 0.0000 0.0000 0.0000 35.8601 0.0000 -15.4532
# 5 -29.1825 -20.2973 -29.2432 0.0000 32.0864 0.0000
# 6 0.0000 0.0000 0.0000 -15.4532 0.0000 50.6452
#
#
#
# Elastic Compliance Matrix: (Units=1/GPa)
#
#
# Indices 1 2 3 4 5 6 
#
# 1 0.023313 -0.003451 -0.001577 0.000000 0.017582 0.000000
# 2 -0.003451 0.009043 0.006264 0.000000 0.008290 0.000000
# 3 -0.001577 0.006264 0.033470 0.000000 0.033032 0.000000
# 4 0.000000 0.000000 0.000000 0.032108 0.000000 0.009797
# 5 0.017582 0.008290 0.033032 0.000000 0.082506 0.000000
# 6 0.000000 0.000000 0.000000 0.009797 0.000000 0.022735
#
#
# Mechanical properties :
#
#
# Convention : Reuss Voigt Hill
#
# Bulk Modulus (GPa) = 14.64209 43.64208 29.14209
# Shear Modulus (GPa) = 22.37444 38.65433 30.51438
#
# Velocity S-wave (km/s) = 3.12706 4.11016 3.65185
# Velocity P-wave (km/s) = 4.40876 6.44964 5.52427
#
# Compressibility (1/GPa) = 0.06829627
#
# Stress axis : x y z
#
# Youngs Moduli (GPa) = 42.89484 110.58699 29.87733
#
# Poissons Ratio (x) = 0.38168 0.04713
# Poissons Ratio (y) = 0.14805 -0.18715
# Poissons Ratio (z) = 0.06766 -0.69273
#
# Static dielectric constant tensor:
#      x y z
#    x 1.867000 0.000000 0.007470 
#    y 0.000000 2.090160 0.000000 
#    z 0.007470 0.000000 2.129480 
# 
# From -- ./inp_files/60627.got.cif
#   From: 2010.05.17/outbox.cif.g08.bks.cpg/sg15_31_cif.got.tgz:60627.got - 2010.06.03 18:47:42.
