data_PCOD9272835
_publ_section_title
;
Structure prediction by ZEFSAII (Michael W. Deem and Ramdas Pophale) SiO2 
 PCOD9272835
Probable space group: C 2/C
;
_chemical_formula_sum "Si O2"
_cell_formula_units_Z 56
_cell_length_a 14.986711
_cell_length_b 26.950310
_cell_length_c 13.035406
_cell_angle_alpha 90.000000
_cell_angle_beta 29.367674
_cell_angle_gamma 90.000000
_cell_volume 2581.997831
_symmetry_space_group_name_H-M "C 2/C"
_symmetry_group_IT_number 15
_symmetry_cell_setting 'monoclinic'
loop_
_space_group_symop_operation_xyz
x,y,z
-x,y,1/2-z
-x,-y,-z
x,-y,1/2+z
1/2+x,1/2+y,z
1/2-x,1/2+y,1/2-z
1/2-x,1/2-y,-z
1/2+x,1/2-y,1/2+z
loop_
_atom_site_type_symbol
_atom_site_label
_atom_site_fract_x
_atom_site_fract_y
_atom_site_fract_z
Si Si1 0.331337 0.388209 0.543775
Si Si2 0.603295 0.952125 0.040891
Si Si3 0.221349 0.137540 0.620924
Si Si4 0.866889 0.132543 0.237869
Si Si5 0.007333 0.559101 0.077775
Si Si6 0.214544 0.186691 0.833835
Si Si7 0.583368 0.788811 0.059165
O O1 0.282860 0.353474 0.495857
O O2 0.545904 0.397796 0.317819
O O3 0.307216 0.362969 0.678002
O O4 0.202364 0.436379 0.675408
O O5 0.500000 0.940042 0.250000
O O6 0.609570 0.011550 0.020858
O O7 0.791366 0.921018 0.847980
O O8 0.494301 0.939504 0.044357
O O9 0.398985 0.107686 0.472764
O O10 0.201438 0.180443 0.724262
O O11 0.750761 0.174381 0.411263
O O12 0.079381 0.146333 0.021952
O O13 0.421447 0.182539 0.663475
O O14 0.146656 0.240930 0.933944
O O15 0.500000 0.771911 0.250000
#
# Coordination Sequence:
#
# PCOD9272835 Si02
#       7
#     8   8   8   8   8   8   8
#     4   9  19  37  61  87 118 156 193 238 289 349
#     4  10  20  37  60  91 126 156 195 245 290 341
#     4  10  20  37  62  87 116 155 200 237 293 353
#     4  10  22  39  59  86 122 152 195 248 292 354
#     4  10  20  37  62  89 121 162 197 233 289 355
#     4  11  23  39  61  86 113 152 200 247 294 355
#     4  12  24  41  61  84 114 157 204 243 302 363
#
# _framework density 21.688631999999998
#
# number of rings (size 3 to 8) (size 9 to 14) (size 15 to 20)
#    0.000    1.714    1.429    3.857    0.000    0.000 
#    0.000   13.571    3.143    8.571    0.000    0.000 
#    0.000    0.000    0.000    0.000    0.000    0.000 
#
# Total GULP energy -156237.428832 kJ/mol
# GULP energy per Si atom -5579.908173 kJ/mol
# Density = 2.163927 g / cm^3
# Si number density = 21.688632 Si / 1000 Ang^3
#
#
#
# Elastic Constant Matrix: (Units=GPa)
#
#
# Indices 1 2 3 4 5 6 
#
# 1 67.3615 -1.2687 28.4563 -0.0028 14.0345 0.0021
# 2 -1.2687 56.4295 10.2288 -0.0008 1.3728 0.0000
# 3 28.4563 10.2288 77.4615 -0.0082 12.5699 0.0049
# 4 -0.0028 -0.0008 -0.0082 20.2220 0.0025 8.3097
# 5 14.0345 1.3728 12.5699 0.0025 39.4102 -0.0012
# 6 0.0021 0.0000 0.0049 8.3097 -0.0012 10.1624
#
#
#
# Elastic Compliance Matrix: (Units=1/GPa)
#
#
# Indices 1 2 3 4 5 6 
#
# 1 0.018488 0.001663 -0.006257 0.000002 -0.004646 -0.000003
# 2 0.001663 0.018306 -0.002983 -0.000001 -0.000278 0.000002
# 3 -0.006257 -0.002983 0.016055 0.000013 -0.002788 -0.000017
# 4 0.000002 -0.000001 0.000013 0.074476 -0.000011 -0.060898
# 5 -0.004646 -0.000278 -0.002788 -0.000011 0.027928 0.000015
# 6 -0.000003 0.000002 -0.000017 -0.060898 0.000015 0.148198
#
#
# Mechanical properties :
#
#
# Convention : Reuss Voigt Hill
#
# Bulk Modulus (GPa) = 26.52957 30.67615 28.60286
# Shear Modulus (GPa) = 15.09799 24.88132 19.98966
#
# Velocity S-wave (km/s) = 2.64128 3.39072 3.03919
# Velocity P-wave (km/s) = 4.64332 5.43175 5.05293
#
# Compressibility (1/GPa) = 0.03769379
#
# Stress axis : x y z
#
# Youngs Moduli (GPa) = 54.08924 54.62657 62.28678
#
# Poissons Ratio (x) = -0.09084 0.38976
# Poissons Ratio (y) = -0.08995 0.18580
# Poissons Ratio (z) = 0.33846 0.16295
#
# Static dielectric constant tensor:
#      x y z
#    x 1.825640 0.000000 0.012160 
#    y 0.000000 1.774790 0.000000 
#    z 0.012160 0.000000 1.808830 
# 
# From -- ./inp_files/101771.got.cif
#   From: 2010.05.17/outbox.cif.g08.bks.cpg/sg15_51_cif.got.tgz:101771.got - 2010.06.03 18:47:42.
