data_PCOD9272796
_publ_section_title
;
Structure prediction by ZEFSAII (Michael W. Deem and Ramdas Pophale) SiO2 
 PCOD9272796
Probable space group: C 2/C
;
_chemical_formula_sum "Si O2"
_cell_formula_units_Z 56
_cell_length_a 24.325687
_cell_length_b 13.560787
_cell_length_c 10.218800
_cell_angle_alpha 90.000000
_cell_angle_beta 134.984863
_cell_angle_gamma 90.000000
_cell_volume 2384.238061
_symmetry_space_group_name_H-M "C 2/C"
_symmetry_group_IT_number 15
_symmetry_cell_setting 'monoclinic'
loop_
_space_group_symop_operation_xyz
x,y,z
-x,y,1/2-z
-x,-y,-z
x,-y,1/2+z
1/2+x,1/2+y,z
1/2-x,1/2+y,1/2-z
1/2-x,1/2-y,-z
1/2+x,1/2-y,1/2+z
loop_
_atom_site_type_symbol
_atom_site_label
_atom_site_fract_x
_atom_site_fract_y
_atom_site_fract_z
Si Si1 0.593510 0.497038 0.396952
Si Si2 0.161571 0.361548 0.732816
Si Si3 0.759708 0.003996 0.544514
Si Si4 0.343578 0.178219 0.705013
Si Si5 0.089468 0.221776 0.440904
Si Si6 0.553015 0.035267 0.469397
Si Si7 0.693639 0.641875 0.184933
O O1 0.500000 0.503387 0.250000
O O2 0.654670 0.482376 0.376947
O O3 0.615564 0.608228 0.480640
O O4 0.610463 0.394299 0.499401
O O5 0.194279 0.410898 0.920590
O O6 0.105382 0.270172 0.609657
O O7 0.119046 0.449844 0.580321
O O8 0.243906 0.324907 0.814342
O O9 0.717487 0.910539 0.406030
O O10 0.773950 0.964080 0.712277
O O11 0.370729 0.211032 0.605600
O O12 0.311577 0.276583 0.715280
O O13 0.409353 0.136184 0.914175
O O14 0.000000 0.225545 0.250000
O O15 0.500000 0.040862 0.250000
O O16 0.500000 0.000000 0.500000
#
# Coordination Sequence:
#
# PCOD9272796 Si02
#       7
#     8   8   8   8   8   8   8
#     4  10  23  38  57  85 118 154 208 261 315 377
#     4  10  21  35  63  89 124 159 207 263 316 386
#     4  10  20  37  60  89 114 159 206 258 317 383
#     4  11  21  38  67  88 120 170 217 253 318 402
#     4  11  20  38  60  90 120 163 208 263 320 389
#     4  11  24  41  66 102 137 170 212 274 336 388
#     4  11  21  38  62  86 118 163 212 262 311 384
#
# _framework density 23.487586
#
# number of rings (size 3 to 8) (size 9 to 14) (size 15 to 20)
#    0.000    1.429    2.857    3.429    2.000    1.143 
#    0.000    0.714    6.286    0.000    0.000    0.000 
#    0.000    0.000    0.000    0.000    0.000    0.000 
#
# Total GULP energy -155877.625301 kJ/mol
# GULP energy per Si atom -5567.058046 kJ/mol
# Density = 2.343413 g / cm^3
# Si number density = 23.487586 Si / 1000 Ang^3
#
#
#
# Elastic Constant Matrix: (Units=GPa)
#
#
# Indices 1 2 3 4 5 6 
#
# 1 61.5067 12.8597 13.8899 0.0000 18.8694 0.0000
# 2 12.8597 47.5430 14.2607 0.0000 8.8418 0.0000
# 3 13.8899 14.2607 55.8696 0.0000 20.2429 0.0000
# 4 0.0000 0.0000 0.0000 22.0229 0.0000 -7.8574
# 5 18.8694 8.8418 20.2429 0.0000 29.6938 0.0000
# 6 0.0000 0.0000 0.0000 -7.8574 0.0000 15.9792
#
#
#
# Elastic Compliance Matrix: (Units=1/GPa)
#
#
# Indices 1 2 3 4 5 6 
#
# 1 0.020684 -0.003363 0.000154 0.000000 -0.012247 0.000000
# 2 -0.003363 0.023642 -0.004545 0.000000 -0.001804 0.000000
# 3 0.000154 -0.004545 0.024656 0.000000 -0.015553 0.000000
# 4 0.000000 0.000000 0.000000 0.055068 0.000000 0.027078
# 5 -0.012247 -0.001804 -0.015553 0.000000 0.052600 0.000000
# 6 0.000000 0.000000 0.000000 0.027078 0.000000 0.075897
#
#
# Mechanical properties :
#
#
# Convention : Reuss Voigt Hill
#
# Bulk Modulus (GPa) = 18.70087 27.43776 23.06931
# Shear Modulus (GPa) = 17.48987 21.79978 19.64483
#
# Velocity S-wave (km/s) = 2.73178 3.04985 2.89518
# Velocity P-wave (km/s) = 4.23432 4.91012 4.58469
#
# Compressibility (1/GPa) = 0.05347346
#
# Stress axis : x y z
#
# Youngs Moduli (GPa) = 48.34607 42.29754 40.55848
#
# Poissons Ratio (x) = 0.14225 -0.00623
# Poissons Ratio (y) = 0.16259 0.18433
# Poissons Ratio (z) = -0.00743 0.19223
#
# Static dielectric constant tensor:
#      x y z
#    x 1.962780 0.000000 0.052460 
#    y 0.000000 1.989730 0.000000 
#    z 0.052460 0.000000 2.114980 
# 
# From -- ./inp_files/123295.got.cif
#   From: 2010.05.17/outbox.cif.g08.bks.cpg/sg15_62_cif.got.tgz:123295.got - 2010.06.03 18:47:42.
