data_PCOD9272995
_publ_section_title
;
Structure prediction by ZEFSAII (Michael W. Deem and Ramdas Pophale) SiO2 
 PCOD9272995
Probable space group: C 2/C
;
_chemical_formula_sum "Si O2"
_cell_formula_units_Z 56
_cell_length_a 19.205560
_cell_length_b 8.911008
_cell_length_c 26.825652
_cell_angle_alpha 90.000000
_cell_angle_beta 145.016313
_cell_angle_gamma 90.000000
_cell_volume 2632.199193
_symmetry_space_group_name_H-M "C 2/C"
_symmetry_group_IT_number 15
_symmetry_cell_setting 'monoclinic'
loop_
_space_group_symop_operation_xyz
x,y,z
-x,y,1/2-z
-x,-y,-z
x,-y,1/2+z
1/2+x,1/2+y,z
1/2-x,1/2+y,1/2-z
1/2-x,1/2-y,-z
1/2+x,1/2-y,1/2+z
loop_
_atom_site_type_symbol
_atom_site_label
_atom_site_fract_x
_atom_site_fract_y
_atom_site_fract_z
Si Si1 0.823402 0.296218 0.435228
Si Si2 0.472518 0.604768 0.599061
Si Si3 0.752684 0.579640 0.520523
Si Si4 0.651341 0.143872 0.218181
Si Si5 0.055051 0.463018 0.445727
Si Si6 0.415756 0.326141 0.884679
Si Si7 0.359024 0.940548 0.678324
O O1 0.892163 0.223455 0.522071
O O2 0.858929 0.470064 0.460467
O O3 0.881362 0.222418 0.420255
O O4 0.688559 0.229706 0.360039
O O5 0.372201 0.503833 0.568143
O O6 0.575396 0.704418 0.685796
O O7 0.536660 0.492196 0.597741
O O8 0.750000 0.750000 0.500000
O O9 0.868235 0.511059 0.559506
O O10 0.780104 0.547015 0.595158
O O11 0.786460 0.185685 0.280546
O O12 0.572679 0.050762 0.132565
O O13 0.661193 0.043860 0.274222
O O14 0.018558 0.290402 0.428561
O O15 0.500000 0.960094 0.750000
#
# Coordination Sequence:
#
# PCOD9272995 Si02
#       7
#     8   8   8   8   8   8   8
#     4   9  22  35  59  89 115 162 203 245 298 359
#     4  10  21  37  61  88 119 154 204 248 300 369
#     4  11  22  39  63  91 121 163 202 249 319 361
#     4  10  22  37  61  89 117 159 204 252 302 356
#     4  11  21  37  62  87 123 163 200 247 302 370
#     4  11  20  38  58  85 126 154 201 247 303 351
#     4  10  20  37  62  85 119 154 205 254 302 356
#
# _framework density 21.274985000000001
#
# number of rings (size 3 to 8) (size 9 to 14) (size 15 to 20)
#    0.000    1.714    2.857    1.714    2.000    1.714 
#    0.000    0.000   12.571    0.000    0.000    0.000 
#    0.000    0.000    0.000    0.000    0.000    0.000 
#
# Total GULP energy -156016.008423 kJ/mol
# GULP energy per Si atom -5572.000301 kJ/mol
# Density = 2.122656 g / cm^3
# Si number density = 21.274985 Si / 1000 Ang^3
#
#
#
# Elastic Constant Matrix: (Units=GPa)
#
#
# Indices 1 2 3 4 5 6 
#
# 1 37.9383 0.9093 -14.0087 0.0000 2.7669 0.0000
# 2 0.9093 73.0236 12.2472 0.0000 -5.8051 0.0000
# 3 -14.0087 12.2472 53.0815 0.0000 6.6404 0.0000
# 4 0.0000 0.0000 0.0000 29.1203 0.0000 4.7700
# 5 2.7669 -5.8051 6.6404 0.0000 32.0329 0.0000
# 6 0.0000 0.0000 0.0000 4.7700 0.0000 18.5389
#
#
#
# Elastic Compliance Matrix: (Units=1/GPa)
#
#
# Indices 1 2 3 4 5 6 
#
# 1 0.030129 -0.002290 0.009093 0.000000 -0.004902 0.000000
# 2 -0.002290 0.014778 -0.004490 0.000000 0.003807 0.000000
# 3 0.009093 -0.004490 0.023073 0.000000 -0.006382 0.000000
# 4 0.000000 0.000000 0.000000 0.035851 0.000000 -0.009224
# 5 -0.004902 0.003807 -0.006382 0.000000 0.033654 0.000000
# 6 0.000000 0.000000 0.000000 -0.009224 0.000000 0.056314
#
#
# Mechanical properties :
#
#
# Convention : Reuss Voigt Hill
#
# Bulk Modulus (GPa) = 13.77312 18.03768 15.90540
# Shear Modulus (GPa) = 23.43281 26.93146 25.18214
#
# Velocity S-wave (km/s) = 3.32237 3.56177 3.44415
# Velocity P-wave (km/s) = 4.60494 5.04100 4.82790
#
# Compressibility (1/GPa) = 0.07260517
#
# Stress axis : x y z
#
# Youngs Moduli (GPa) = 33.19115 67.66613 43.34062
#
# Poissons Ratio (x) = 0.15495 -0.39409
# Poissons Ratio (y) = 0.07600 0.19461
# Poissons Ratio (z) = -0.30180 0.30384
#
# Static dielectric constant tensor:
#      x y z
#    x 1.789270 0.000000 0.003650 
#    y 0.000000 1.840010 0.000000 
#    z 0.003650 0.000000 1.809540 
# 
# From -- ./inp_files/317546.got.cif
#   From: 2010.05.17/outbox.cif.g08.bks.cpg/sg15_159_cif.got.tgz:317546.got - 2010.06.03 18:47:42.
