data_PCOD9272571
_publ_section_title
;
Structure prediction by ZEFSAII (Michael W. Deem and Ramdas Pophale) SiO2 
 PCOD9272571
Probable space group: C 2/C
;
_chemical_formula_sum "Si O2"
_cell_formula_units_Z 60
_cell_length_a 10.581612
_cell_length_b 32.459366
_cell_length_c 9.929613
_cell_angle_alpha 90.000000
_cell_angle_beta 122.415241
_cell_angle_gamma 90.000000
_cell_volume 2879.134848
_symmetry_space_group_name_H-M "C 2/C"
_symmetry_group_IT_number 15
_symmetry_cell_setting 'monoclinic'
loop_
_space_group_symop_operation_xyz
x,y,z
-x,y,1/2-z
-x,-y,-z
x,-y,1/2+z
1/2+x,1/2+y,z
1/2-x,1/2+y,1/2-z
1/2-x,1/2-y,-z
1/2+x,1/2-y,1/2+z
loop_
_atom_site_type_symbol
_atom_site_label
_atom_site_fract_x
_atom_site_fract_y
_atom_site_fract_z
Si Si1 0.357294 0.055285 0.960253
Si Si2 0.785337 0.833159 0.798357
Si Si3 0.378198 0.420768 0.789730
Si Si4 0.670167 0.751693 0.808151
Si Si5 0.072262 0.834528 0.151085
Si Si6 0.346121 0.037762 0.508226
Si Si7 0.645102 0.420049 0.122182
Si Si8 0.000000 0.619216 0.250000
O O1 0.201051 0.063802 0.797111
O O2 0.347614 0.011124 0.025664
O O3 0.483827 0.051672 0.915604
O O4 0.417953 0.090348 0.093583
O O5 0.837003 0.872641 0.739137
O O6 0.737476 0.785931 0.745393
O O7 0.634818 0.852522 0.774802
O O8 0.928454 0.826689 0.976209
O O9 0.500000 0.433593 0.750000
O O10 0.235638 0.448993 0.679507
O O11 0.469845 0.425440 0.981164
O O12 0.500000 0.762117 0.750000
O O13 0.662831 0.706654 0.736843
O O14 0.750000 0.750000 0.000000
O O15 0.167232 0.870820 0.139810
O O16 0.000000 0.849735 0.250000
O O17 0.249711 0.059590 0.568337
#
# Coordination Sequence:
#
# PCOD9272571 Si02
#       8
#     8   8   8   8   8   8   8   4
#     4  11  24  37  61  90 124 160 208 263 315 367
#     4  11  20  35  58  88 121 159 196 250 318 366
#     4   9  20  41  62  85 120 168 211 249 306 373
#     4  11  20  33  57  89 126 153 193 255 313 372
#     4  10  20  37  58  87 124 158 204 250 309 367
#     4  10  22  41  61  88 122 163 207 261 315 367
#     4  10  22  39  65  85 121 166 210 256 303 373
#     4  12  24  36  60  94 130 162 204 266 318 374
#
# _framework density 20.839594000000002
#
# number of rings (size 3 to 8) (size 9 to 14) (size 15 to 20)
#    0.000    1.600    4.667    1.200    3.733    0.533 
#    0.000    8.667    0.000    8.800    0.000    0.000 
#    0.000    0.000    0.000    0.000    0.000    0.000 
#
# Total GULP energy -167202.144747 kJ/mol
# GULP energy per Si atom -5573.404825 kJ/mol
# Density = 2.079216 g / cm^3
# Si number density = 20.839594 Si / 1000 Ang^3
#
#
#
# Elastic Constant Matrix: (Units=GPa)
#
#
# Indices 1 2 3 4 5 6 
#
# 1 38.8647 23.2517 1.4998 0.0000 7.4197 0.0000
# 2 23.2517 100.5992 27.3732 0.0000 3.3158 0.0000
# 3 1.4998 27.3732 101.1678 0.0000 18.5701 0.0000
# 4 0.0000 0.0000 0.0000 27.2137 0.0000 7.6196
# 5 7.4197 3.3158 18.5701 0.0000 22.7420 0.0000
# 6 0.0000 0.0000 0.0000 7.6196 0.0000 48.6759
#
#
#
# Elastic Compliance Matrix: (Units=1/GPa)
#
#
# Indices 1 2 3 4 5 6 
#
# 1 0.033027 -0.008334 0.004141 0.000000 -0.012941 0.000000
# 2 -0.008334 0.012851 -0.004127 0.000000 0.004215 0.000000
# 3 0.004141 -0.004127 0.013031 0.000000 -0.011389 0.000000
# 4 0.000000 0.000000 0.000000 0.038430 0.000000 -0.006016
# 5 -0.012941 0.004215 -0.011389 0.000000 0.056879 0.000000
# 6 0.000000 0.000000 0.000000 -0.006016 0.000000 0.021486
#
#
# Mechanical properties :
#
#
# Convention : Reuss Voigt Hill
#
# Bulk Modulus (GPa) = 23.65874 38.32013 30.98943
# Shear Modulus (GPa) = 24.22088 32.29345 28.25717
#
# Velocity S-wave (km/s) = 3.41288 3.94079 3.68630
# Velocity P-wave (km/s) = 5.18727 6.25576 5.74640
#
# Compressibility (1/GPa) = 0.04226768
#
# Stress axis : x y z
#
# Youngs Moduli (GPa) = 30.27828 77.81664 76.74298
#
# Poissons Ratio (x) = 0.64850 -0.31777
# Poissons Ratio (y) = 0.25233 0.31674
# Poissons Ratio (z) = -0.12537 0.32117
#
# Static dielectric constant tensor:
#      x y z
#    x 1.752010 0.000000 -0.010070 
#    y 0.000000 1.775050 0.000000 
#    z -0.010070 0.000000 1.808130 
# 
# From -- ./inp_files/92625.got.cif
#   From: 2010.05.17/outbox.cif.g08.bks.cpg/sg15_47_cif.got.tgz:92625.got - 2010.06.03 18:47:42.
