data_PCOD9272747
_publ_section_title
;
Structure prediction by ZEFSAII (Michael W. Deem and Ramdas Pophale) SiO2 
 PCOD9272747
Probable space group: C 2/C
;
_chemical_formula_sum "Si O2"
_cell_formula_units_Z 48
_cell_length_a 4.900329
_cell_length_b 27.814222
_cell_length_c 14.105719
_cell_angle_alpha 90.000000
_cell_angle_beta 109.089028
_cell_angle_gamma 90.000000
_cell_volume 1816.872715
_symmetry_space_group_name_H-M "C 2/C"
_symmetry_group_IT_number 15
_symmetry_cell_setting 'monoclinic'
loop_
_space_group_symop_operation_xyz
x,y,z
-x,y,1/2-z
-x,-y,-z
x,-y,1/2+z
1/2+x,1/2+y,z
1/2-x,1/2+y,1/2-z
1/2-x,1/2-y,-z
1/2+x,1/2-y,1/2+z
loop_
_atom_site_type_symbol
_atom_site_label
_atom_site_fract_x
_atom_site_fract_y
_atom_site_fract_z
Si Si1 0.207779 0.029678 0.388698
Si Si2 0.501824 0.373124 0.060097
Si Si3 0.670047 0.035117 0.885493
Si Si4 0.215847 0.282461 0.852655
Si Si5 0.995298 0.692103 0.961313
Si Si6 0.199350 0.110191 0.165187
O O1 0.368092 0.041456 0.505259
O O2 0.087453 0.080719 0.342587
O O3 0.377682 0.995272 0.334938
O O4 0.926169 0.000643 0.389143
O O5 0.705791 0.413197 0.132064
O O6 0.269658 0.344071 0.094688
O O7 0.714377 0.334488 0.035405
O O8 0.313152 0.396343 0.951979
O O9 0.450854 0.242467 0.903522
O O10 0.327469 0.332840 0.824031
O O11 0.000000 0.261967 0.750000
O O12 0.054075 0.296492 0.932738
O O13 0.500000 0.095939 0.250000
#
# Coordination Sequence:
#
# PCOD9272747 Si02
#       6
#     8   8   8   8   8   8
#     4   9  17  30  50  78 108 141 185 230 285 355
#     4  10  20  37  60  86 117 154 203 253 297 358
#     4   9  17  31  53  78 106 143 186 237 288 340
#     4   9  20  39  60  88 123 161 201 251 310 365
#     4  10  21  38  61  89 120 157 205 254 300 363
#     4   9  19  35  54  83 119 156 193 243 306 362
#
# _framework density 26.419021999999998
#
# number of rings (size 3 to 8) (size 9 to 14) (size 15 to 20)
#    0.000    2.667    0.000    1.000    0.000   14.000 
#    0.000   25.000    0.000    4.000    0.000    0.000 
#    0.000    0.000    0.000    0.000    0.000    3.167 
#
# Total GULP energy -134159.134869 kJ/mol
# GULP energy per Si atom -5589.963953 kJ/mol
# Density = 2.635889 g / cm^3
# Si number density = 26.419022 Si / 1000 Ang^3
#
#
#
# Elastic Constant Matrix: (Units=GPa)
#
#
# Indices 1 2 3 4 5 6 
#
# 1 160.8610 57.9865 11.7556 0.0000 21.6872 0.0000
# 2 57.9865 132.2628 35.2583 0.0000 23.9572 0.0000
# 3 11.7556 35.2583 82.7479 0.0000 18.8367 0.0000
# 4 0.0000 0.0000 0.0000 -111.3952 0.0000 132.9769
# 5 21.6872 23.9572 18.8367 0.0000 25.8007 0.0000
# 6 0.0000 0.0000 0.0000 132.9769 0.0000 -51.9353
#
#
#
# Elastic Compliance Matrix: (Units=1/GPa)
#
#
# Indices 1 2 3 4 5 6 
#
# 1 0.007810 -0.002881 0.001204 0.000000 -0.004768 0.000000
# 2 -0.002881 0.010547 -0.002886 0.000000 -0.005264 0.000000
# 3 0.001204 -0.002886 0.015308 0.000000 -0.009508 0.000000
# 4 0.000000 0.000000 0.000000 0.004365 0.000000 0.011177
# 5 -0.004768 -0.005264 -0.009508 0.000000 0.054596 0.000000
# 6 0.000000 0.000000 0.000000 0.011177 0.000000 0.009363
#
#
# Mechanical properties :
#
#
# Convention : Reuss Voigt Hill
#
# Bulk Modulus (GPa) = 40.75466 65.09694 52.92580
# Shear Modulus (GPa) = 41.91253 -9.44787 16.23233
#
# Velocity S-wave (km/s) = 3.98735 -1.89313 2.48144
# Velocity P-wave (km/s) = 6.05462 4.46263 5.31853
#
# Compressibility (1/GPa) = 0.02453707
#
# Stress axis : x y z
#
# Youngs Moduli (GPa) = 128.04015 94.81534 65.32488
#
# Poissons Ratio (x) = 0.27319 -0.07862
# Poissons Ratio (y) = 0.36891 0.18855
# Poissons Ratio (z) = -0.15410 0.27366
#
# Static dielectric constant tensor:
#      x y z
#    x 2.045940 0.000000 0.019940 
#    y 0.000000 2.098190 0.000000 
#    z 0.019940 0.000000 2.065740 
# 
# From -- ./inp_files/185983.got.cif
#   From: 2010.05.17/outbox.cif.g08.bks.cpg/sg15_93_cif.got.tgz:185983.got - 2010.06.03 18:47:42.
