data_PCOD9272865
_publ_section_title
;
Structure prediction by ZEFSAII (Michael W. Deem and Ramdas Pophale) SiO2 
 PCOD9272865
Probable space group: C 2/C
;
_chemical_formula_sum "Si O2"
_cell_formula_units_Z 40
_cell_length_a 17.401307
_cell_length_b 5.025701
_cell_length_c 26.473370
_cell_angle_alpha 90.000000
_cell_angle_beta 63.243725
_cell_angle_gamma 90.000000
_cell_volume 2067.307054
_symmetry_space_group_name_H-M "C 2/C"
_symmetry_group_IT_number 15
_symmetry_cell_setting 'monoclinic'
loop_
_space_group_symop_operation_xyz
x,y,z
-x,y,1/2-z
-x,-y,-z
x,-y,1/2+z
1/2+x,1/2+y,z
1/2-x,1/2+y,1/2-z
1/2-x,1/2-y,-z
1/2+x,1/2-y,1/2+z
loop_
_atom_site_type_symbol
_atom_site_label
_atom_site_fract_x
_atom_site_fract_y
_atom_site_fract_z
Si Si1 0.355898 0.220889 0.917175
Si Si2 0.966372 0.034145 0.138024
Si Si3 0.186362 0.546423 0.967129
Si Si4 0.903894 0.951296 0.048722
Si Si5 0.006365 0.509739 0.188575
O O1 0.439643 0.382106 0.911603
O O2 0.280662 0.428438 0.927947
O O3 0.396307 0.069283 0.857269
O O4 0.328814 0.016782 0.969124
O O5 0.905114 0.001763 0.108447
O O6 0.948642 0.270379 0.182840
O O7 0.979129 0.769096 0.166101
O O8 0.162181 0.843989 0.958482
O O9 0.122475 0.349367 0.955932
O O10 0.000000 0.000000 0.000000
O O11 0.000000 0.538629 0.250000
#
# Coordination Sequence:
#
# PCOD9272865 Si02
#       5
#     8   8   8   8   8
#     4   9  23  36  57  88 113 149 192 232 282 342
#     4  10  21  35  58  84 111 140 198 227 281 342
#     4  11  23  34  59  84 125 147 182 232 292 344
#     4  12  21  36  54  86 119 157 178 227 288 349
#     4  10  20  37  61  84 105 148 197 247 273 330
#
# _framework density 19.348842999999999
#
# number of rings (size 3 to 8) (size 9 to 14) (size 15 to 20)
#    1.200    0.400    2.000    3.600    2.800    1.600 
#    0.000    0.000    0.000    4.800    0.000    0.000 
#    0.000    0.000    0.000    0.000    0.000    0.000 
#
# Total GULP energy -111587.447983 kJ/mol
# GULP energy per Si atom -5579.372399 kJ/mol
# Density = 1.930480 g / cm^3
# Si number density = 19.348843 Si / 1000 Ang^3
#
#
#
# Elastic Constant Matrix: (Units=GPa)
#
#
# Indices 1 2 3 4 5 6 
#
# 1 51.9253 2.4199 32.9530 -0.0294 15.2073 0.0246
# 2 2.4199 92.1234 31.7327 -0.0925 7.4811 0.0404
# 3 32.9530 31.7327 120.7685 -0.0573 17.8182 0.0230
# 4 -0.0294 -0.0925 -0.0573 3.5575 0.0187 27.8331
# 5 15.2073 7.4811 17.8182 0.0187 22.4979 -0.0078
# 6 0.0246 0.0404 0.0230 27.8331 -0.0078 27.2019
#
#
#
# Elastic Compliance Matrix: (Units=1/GPa)
#
#
# Indices 1 2 3 4 5 6 
#
# 1 0.027147 0.002505 -0.005928 -0.000069 -0.014488 0.000043
# 2 0.002505 0.012223 -0.003449 -0.000063 -0.003026 0.000046
# 3 -0.005928 -0.003449 0.011373 -0.000010 -0.003853 0.000009
# 4 -0.000069 -0.000063 -0.000010 -0.040125 0.000123 0.041057
# 5 -0.014488 -0.003026 -0.003853 0.000123 0.058299 -0.000088
# 6 0.000043 0.000046 0.000009 0.041057 -0.000088 -0.005247
#
#
# Mechanical properties :
#
#
# Convention : Reuss Voigt Hill
#
# Bulk Modulus (GPa) = 27.02781 44.33647 35.68214
# Shear Modulus (GPa) = 55.71379 23.83224 39.77302
#
# Velocity S-wave (km/s) = 5.37186 3.51339 4.53876
# Velocity P-wave (km/s) = 7.24395 6.27874 6.77855
#
# Compressibility (1/GPa) = 0.03699893
#
# Stress axis : x y z
#
# Youngs Moduli (GPa) = 36.83693 81.81410 87.93137
#
# Poissons Ratio (x) = -0.20497 0.52127
# Poissons Ratio (y) = -0.09229 0.30325
# Poissons Ratio (z) = 0.21837 0.28216
#
# Static dielectric constant tensor:
#      x y z
#    x 1.690500 0.000000 -0.007010 
#    y 0.000000 1.703020 -0.000010 
#    z -0.007010 -0.000010 1.666590 
# 
# From -- ./inp_files/246182.got.cif
#   From: 2010.05.17/outbox.cif.g08.bks.cpg/sg15_124_cif.got.tgz:246182.got - 2010.06.03 18:47:42.
