data_PCOD9272583
_publ_section_title
;
Structure prediction by ZEFSAII (Michael W. Deem and Ramdas Pophale) SiO2 
 PCOD9272583
Probable space group: C 2/C
;
_chemical_formula_sum "Si O2"
_cell_formula_units_Z 44
_cell_length_a 19.718522
_cell_length_b 14.067557
_cell_length_c 6.859112
_cell_angle_alpha 90.000000
_cell_angle_beta 61.978530
_cell_angle_gamma 90.000000
_cell_volume 1679.613260
_symmetry_space_group_name_H-M "C 2/C"
_symmetry_group_IT_number 15
_symmetry_cell_setting 'monoclinic'
loop_
_space_group_symop_operation_xyz
x,y,z
-x,y,1/2-z
-x,-y,-z
x,-y,1/2+z
1/2+x,1/2+y,z
1/2-x,1/2+y,1/2-z
1/2-x,1/2-y,-z
1/2+x,1/2-y,1/2+z
loop_
_atom_site_type_symbol
_atom_site_label
_atom_site_fract_x
_atom_site_fract_y
_atom_site_fract_z
Si Si1 0.215331 0.392238 0.809574
Si Si2 0.545815 0.907687 0.009553
Si Si3 0.245471 0.902263 0.336408
Si Si4 0.860468 0.705646 0.413978
Si Si5 0.000000 0.931820 0.750000
Si Si6 0.904170 0.104387 0.726445
O O1 0.130045 0.426515 0.988959
O O2 0.244444 0.483909 0.656226
O O3 0.200552 0.306288 0.683814
O O4 0.263813 0.365702 0.931547
O O5 0.500000 0.139230 0.750000
O O6 0.568795 0.848330 0.787293
O O7 0.500000 0.000000 0.000000
O O8 0.320200 0.851433 0.141687
O O9 0.172468 0.894932 0.297659
O O10 0.888309 0.812897 0.403973
O O11 0.029117 0.874771 0.523508
O O12 0.068461 0.004985 0.718903
#
# Coordination Sequence:
#
# PCOD9272583 Si02
#       6
#     8   8   8   8   4   8
#     4  10  22  37  65 102 135 179 221 262 339 417
#     4  10  20  37  58  88 140 177 203 256 325 397
#     4  12  20  43  69 101 137 177 219 280 345 391
#     4  10  25  41  66 103 135 168 236 273 326 416
#     4  10  26  50  70  94 126 184 234 270 364 394
#     4  11  25  49  70  95 130 175 230 292 332 405
#
# _framework density 26.196507
#
# number of rings (size 3 to 8) (size 9 to 14) (size 15 to 20)
#    1.091    0.364    1.818    3.818    1.273    0.727 
#   14.727    0.000    0.000    0.000    0.000    0.000 
#    0.000    0.000    0.000    0.000    0.000    0.000 
#
# Total GULP energy -123019.097450 kJ/mol
# GULP energy per Si atom -5591.777157 kJ/mol
# Density = 2.613688 g / cm^3
# Si number density = 26.196507 Si / 1000 Ang^3
#
#
#
# Elastic Constant Matrix: (Units=GPa)
#
#
# Indices 1 2 3 4 5 6 
#
# 1 105.9153 34.2665 27.9845 0.0000 10.8694 0.0000
# 2 34.2665 108.0039 36.3718 0.0000 -18.3133 0.0000
# 3 27.9845 36.3718 137.9711 0.0000 -13.6405 0.0000
# 4 0.0000 0.0000 0.0000 36.6672 0.0000 -9.1217
# 5 10.8694 -18.3133 -13.6405 0.0000 42.2502 0.0000
# 6 0.0000 0.0000 0.0000 -9.1217 0.0000 24.0241
#
#
#
# Elastic Compliance Matrix: (Units=1/GPa)
#
#
# Indices 1 2 3 4 5 6 
#
# 1 0.011787 -0.004025 -0.001862 0.000000 -0.005378 0.000000
# 2 -0.004025 0.012113 -0.001813 0.000000 0.005700 0.000000
# 3 -0.001862 -0.001813 0.008339 0.000000 0.002385 0.000000
# 4 0.000000 0.000000 0.000000 0.030117 0.000000 0.011435
# 5 -0.005378 0.005700 0.002385 0.000000 0.028293 0.000000
# 6 0.000000 0.000000 0.000000 0.011435 0.000000 0.045967
#
#
# Mechanical properties :
#
#
# Convention : Reuss Voigt Hill
#
# Bulk Modulus (GPa) = 59.38056 61.01511 60.19784
# Shear Modulus (GPa) = 31.72000 37.47280 34.59640
#
# Velocity S-wave (km/s) = 3.48350 3.78623 3.63802
# Velocity P-wave (km/s) = 6.23669 6.51582 6.37778
#
# Compressibility (1/GPa) = 0.01684053
#
# Stress axis : x y z
#
# Youngs Moduli (GPa) = 84.83635 82.55510 119.91401
#
# Poissons Ratio (x) = 0.33227 0.22322
# Poissons Ratio (y) = 0.34145 0.21744
# Poissons Ratio (z) = 0.15792 0.14970
#
# Static dielectric constant tensor:
#      x y z
#    x 2.145910 0.000000 -0.016850 
#    y 0.000000 2.030350 0.000000 
#    z -0.016850 0.000000 2.055620 
# 
# From -- ./inp_files/54932.got.cif
#   From: 2010.05.17/outbox.cif.g08.bks.cpg/sg15_28_cif.got.tgz:54932.got - 2010.06.03 18:47:42.
