data_PCOD9272961
_publ_section_title
;
Structure prediction by ZEFSAII (Michael W. Deem and Ramdas Pophale) SiO2 
 PCOD9272961
Probable space group: C 2/C
;
_chemical_formula_sum "Si O2"
_cell_formula_units_Z 48
_cell_length_a 8.411721
_cell_length_b 17.760228
_cell_length_c 20.039868
_cell_angle_alpha 90.000000
_cell_angle_beta 36.964405
_cell_angle_gamma 90.000000
_cell_volume 1800.250758
_symmetry_space_group_name_H-M "C 2/C"
_symmetry_group_IT_number 15
_symmetry_cell_setting 'monoclinic'
loop_
_space_group_symop_operation_xyz
x,y,z
-x,y,1/2-z
-x,-y,-z
x,-y,1/2+z
1/2+x,1/2+y,z
1/2-x,1/2+y,1/2-z
1/2-x,1/2-y,-z
1/2+x,1/2-y,1/2+z
loop_
_atom_site_type_symbol
_atom_site_label
_atom_site_fract_x
_atom_site_fract_y
_atom_site_fract_z
Si Si1 0.353169 0.565793 0.917663
Si Si2 0.187397 0.897608 0.552172
Si Si3 0.943098 0.596313 0.695655
Si Si4 0.561765 0.794397 0.943851
Si Si5 0.571374 0.778938 0.655011
Si Si6 0.728581 0.936528 0.607185
O O1 0.628125 0.589004 0.791652
O O2 0.134045 0.631419 0.985498
O O3 0.267596 0.480271 0.928795
O O4 0.399544 0.562483 0.982073
O O5 0.404987 0.876157 0.421853
O O6 0.184115 0.828602 0.605391
O O7 0.920087 0.915337 0.602689
O O8 0.000000 0.632103 0.750000
O O9 0.062432 0.512175 0.662239
O O10 0.385538 0.733917 0.041683
O O11 0.570021 0.759189 0.867066
O O12 0.500000 0.745549 0.750000
O O13 0.527986 0.867866 0.669103
#
# Coordination Sequence:
#
# PCOD9272961 Si02
#       6
#     8   8   8   8   8   8
#     4  10  20  37  61  93 133 165 205 254 321 388
#     4  11  21  35  61  97 130 156 206 274 312 367
#     4  11  18  33  62  96 125 173 206 241 324 397
#     4  10  24  42  62  94 127 161 214 271 312 366
#     4  10  23  44  66  81 122 179 214 250 316 387
#     4  10  20  37  62  91 125 168 214 251 308 388
#
# _framework density 26.662953000000002
#
# number of rings (size 3 to 8) (size 9 to 14) (size 15 to 20)
#    0.000    1.667    3.333    2.000    2.333    0.667 
#    0.000    0.833    0.000    0.000    0.000    0.000 
#    0.000    0.000    0.000    0.000    0.000    0.000 
#
# Total GULP energy -134123.886780 kJ/mol
# GULP energy per Si atom -5588.495283 kJ/mol
# Density = 2.660227 g / cm^3
# Si number density = 26.662953 Si / 1000 Ang^3
#
#
#
# Elastic Constant Matrix: (Units=GPa)
#
#
# Indices 1 2 3 4 5 6 
#
# 1 87.2835 27.2100 19.2308 0.0139 4.4078 -0.0027
# 2 27.2100 90.7357 3.8621 0.0837 7.1806 -0.0264
# 3 19.2308 3.8621 130.4786 0.0469 14.7434 0.0065
# 4 0.0139 0.0837 0.0469 14.7386 0.0084 -13.3906
# 5 4.4078 7.1806 14.7434 0.0084 31.8950 -0.0169
# 6 -0.0027 -0.0264 0.0065 -13.3906 -0.0169 40.7160
#
#
#
# Elastic Compliance Matrix: (Units=1/GPa)
#
#
# Indices 1 2 3 4 5 6 
#
# 1 0.013052 -0.003829 -0.001798 0.000020 -0.000111 0.000005
# 2 -0.003829 0.012345 0.000478 -0.000086 -0.002471 -0.000022
# 3 -0.001798 0.000478 0.008334 -0.000040 -0.003712 -0.000016
# 4 0.000020 -0.000086 -0.000040 0.096762 0.000026 0.031823
# 5 -0.000111 -0.002471 -0.003712 0.000026 0.033640 0.000022
# 6 0.000005 -0.000022 -0.000016 0.031823 0.000022 0.035026
#
#
# Mechanical properties :
#
#
# Convention : Reuss Voigt Hill
#
# Bulk Modulus (GPa) = 42.67314 45.45594 44.06454
# Shear Modulus (GPa) = 23.01308 34.68292 28.84800
#
# Velocity S-wave (km/s) = 2.94106 3.61056 3.29287
# Velocity P-wave (km/s) = 5.25095 5.87085 5.56953
#
# Compressibility (1/GPa) = 0.02343394
#
# Stress axis : x y z
#
# Youngs Moduli (GPa) = 76.61520 81.00772 119.98553
#
# Poissons Ratio (x) = 0.31017 0.21572
# Poissons Ratio (y) = 0.29335 -0.05737
# Poissons Ratio (z) = 0.13775 -0.03874
#
# Static dielectric constant tensor:
#      x y z
#    x 2.153890 -0.000010 0.020530 
#    y -0.000010 2.149920 0.000020 
#    z 0.020530 0.000020 2.174080 
# 
# From -- ./inp_files/233719.got.cif
#   From: 2010.05.17/outbox.cif.g08.bks.cpg/sg15_117_cif.got.tgz:233719.got - 2010.06.03 18:47:42.
