data_PCOD9272734
_publ_section_title
;
Structure prediction by ZEFSAII (Michael W. Deem and Ramdas Pophale) SiO2 
 PCOD9272734
Probable space group: C 2/C
;
_chemical_formula_sum "Si O2"
_cell_formula_units_Z 48
_cell_length_a 13.023788
_cell_length_b 13.563897
_cell_length_c 20.905677
_cell_angle_alpha 90.000000
_cell_angle_beta 35.131063
_cell_angle_gamma 90.000000
_cell_volume 2125.165087
_symmetry_space_group_name_H-M "C 2/C"
_symmetry_group_IT_number 15
_symmetry_cell_setting 'monoclinic'
loop_
_space_group_symop_operation_xyz
x,y,z
-x,y,1/2-z
-x,-y,-z
x,-y,1/2+z
1/2+x,1/2+y,z
1/2-x,1/2+y,1/2-z
1/2-x,1/2-y,-z
1/2+x,1/2-y,1/2+z
loop_
_atom_site_type_symbol
_atom_site_label
_atom_site_fract_x
_atom_site_fract_y
_atom_site_fract_z
Si Si1 0.966666 0.275252 0.966538
Si Si2 0.284323 0.596807 0.475707
Si Si3 0.526524 0.427925 0.309916
Si Si4 0.410806 0.196868 0.360092
Si Si5 0.802287 0.271272 0.366718
Si Si6 0.072859 0.429653 0.406428
O O1 0.957750 0.342662 0.906916
O O2 0.169763 0.242072 0.874305
O O3 0.802211 0.200293 0.040860
O O4 0.914856 0.328855 0.058972
O O5 0.398299 0.498155 0.415188
O O6 0.301126 0.657017 0.532116
O O7 0.329288 0.669333 0.392932
O O8 0.075961 0.576281 0.571236
O O9 0.500000 0.459478 0.250000
O O10 0.478654 0.311657 0.333414
O O11 0.732229 0.449192 0.219739
O O12 0.500000 0.156827 0.250000
O O13 0.000000 0.307096 0.250000
O O14 0.000000 0.500000 0.500000
#
# Coordination Sequence:
#
# PCOD9272734 Si02
#       6
#     8   8   8   8   8   8
#     4  10  21  36  58  87 117 152 204 243 302 363
#     4  10  22  38  58  89 121 151 210 249 298 364
#     4  11  19  36  60  85 114 154 200 254 303 344
#     4  10  20  37  60  85 115 153 194 255 303 359
#     4  10  23  38  58  86 123 164 193 250 305 363
#     4  11  20  35  60  88 115 155 205 257 291 350
#
# _framework density 22.586480999999999
#
# number of rings (size 3 to 8) (size 9 to 14) (size 15 to 20)
#    0.000    1.667    5.000    0.500    4.667    1.333 
#    0.000    0.833    0.000    2.000    0.000    0.000 
#    0.000    0.000    0.000    0.000    0.000    0.000 
#
# Total GULP energy -133987.147352 kJ/mol
# GULP energy per Si atom -5582.797806 kJ/mol
# Density = 2.253507 g / cm^3
# Si number density = 22.586481 Si / 1000 Ang^3
#
#
#
# Elastic Constant Matrix: (Units=GPa)
#
#
# Indices 1 2 3 4 5 6 
#
# 1 106.0801 -3.0886 42.0769 -0.0001 -13.9948 0.0000
# 2 -3.0886 58.3012 2.4999 -0.0005 -3.2044 0.0001
# 3 42.0769 2.4999 100.1445 -0.0021 -19.2600 0.0005
# 4 -0.0001 -0.0005 -0.0021 26.5299 0.0003 1.1315
# 5 -13.9948 -3.2044 -19.2600 0.0003 31.1630 0.0000
# 6 0.0000 0.0001 0.0005 1.1315 0.0000 8.1080
#
#
#
# Elastic Compliance Matrix: (Units=1/GPa)
#
#
# Indices 1 2 3 4 5 6 
#
# 1 0.011528 0.000940 -0.004372 0.000000 0.002571 0.000000
# 2 0.000940 0.017327 -0.000458 0.000000 0.001921 0.000000
# 3 -0.004372 -0.000458 0.012992 0.000001 0.006019 -0.000001
# 4 0.000000 0.000000 0.000001 0.037919 0.000000 -0.005292
# 5 0.002571 0.001921 0.006019 0.000000 0.037161 0.000000
# 6 0.000000 0.000000 -0.000001 -0.005292 0.000000 0.124073
#
#
# Mechanical properties :
#
#
# Convention : Reuss Voigt Hill
#
# Bulk Modulus (GPa) = 29.35570 38.61136 33.98353
# Shear Modulus (GPa) = 19.22063 28.02936 23.62500
#
# Velocity S-wave (km/s) = 2.92032 3.52658 3.23767
# Velocity P-wave (km/s) = 4.93926 5.80640 5.39030
#
# Compressibility (1/GPa) = 0.03406494
#
# Stress axis : x y z
#
# Youngs Moduli (GPa) = 86.74720 57.71253 76.97231
#
# Poissons Ratio (x) = -0.05422 0.33656
# Poissons Ratio (y) = -0.08150 0.03525
# Poissons Ratio (z) = 0.37930 0.02643
#
# Static dielectric constant tensor:
#      x y z
#    x 1.875590 0.000000 -0.002590 
#    y 0.000000 1.919440 0.000000 
#    z -0.002590 0.000000 1.864560 
# 
# From -- ./inp_files/144388.got.cif
#   From: 2010.05.17/outbox.cif.g08.bks.cpg/sg15_73_cif.got.tgz:144388.got - 2010.06.03 18:47:42.
