data_PCOD9272897
_publ_section_title
;
Structure prediction by ZEFSAII (Michael W. Deem and Ramdas Pophale) SiO2 
 PCOD9272897
Probable space group: C 2/C
;
_chemical_formula_sum "Si O2"
_cell_formula_units_Z 36
_cell_length_a 7.110409
_cell_length_b 8.911745
_cell_length_c 27.160284
_cell_angle_alpha 90.000000
_cell_angle_beta 122.749353
_cell_angle_gamma 90.000000
_cell_volume 1447.474551
_symmetry_space_group_name_H-M "C 2/C"
_symmetry_group_IT_number 15
_symmetry_cell_setting 'monoclinic'
loop_
_space_group_symop_operation_xyz
x,y,z
-x,y,1/2-z
-x,-y,-z
x,-y,1/2+z
1/2+x,1/2+y,z
1/2-x,1/2+y,1/2-z
1/2-x,1/2-y,-z
1/2+x,1/2-y,1/2+z
loop_
_atom_site_type_symbol
_atom_site_label
_atom_site_fract_x
_atom_site_fract_y
_atom_site_fract_z
Si Si1 0.234620 0.169609 0.050202
Si Si2 0.903095 0.328783 0.075292
Si Si3 0.000000 0.457468 0.250000
Si Si4 0.288822 0.764882 0.856587
Si Si5 0.280337 0.552756 0.700069
O O1 0.011682 0.229108 0.047198
O O2 0.446507 0.219973 0.113656
O O3 0.288456 0.991941 0.049169
O O4 0.250000 0.250000 0.000000
O O5 0.108548 0.356710 0.142618
O O6 0.733189 0.248128 0.087779
O O7 0.821264 0.362763 0.192086
O O8 0.849652 0.522705 0.272194
O O9 0.152353 0.912928 0.823503
O O10 0.500000 0.635824 0.750000
#
# Coordination Sequence:
#
# PCOD9272897 Si02
#       5
#     8   8   4   8   8
#     4  11  24  43  66  93 125 168 219 272 331 397
#     4  10  24  41  64  94 126 169 214 274 331 398
#     4  10  20  38  58  90 118 164 206 254 314 378
#     4  10  22  40  61  92 126 163 210 261 326 386
#     4  10  20  37  61  87 123 163 208 259 314 391
#
# _framework density 24.870903999999999
#
# number of rings (size 3 to 8) (size 9 to 14) (size 15 to 20)
#    0.000    1.778    1.111    2.000    0.000   10.667 
#    2.000    0.000    0.000    0.000    0.000    0.000 
#    0.000    0.000    0.000    0.000    0.000    0.000 
#
# Total GULP energy -100432.922122 kJ/mol
# GULP energy per Si atom -5579.606785 kJ/mol
# Density = 2.481430 g / cm^3
# Si number density = 24.870904 Si / 1000 Ang^3
#
#
#
# Elastic Constant Matrix: (Units=GPa)
#
#
# Indices 1 2 3 4 5 6 
#
# 1 127.0986 62.4795 39.8813 0.0000 -16.6108 0.0000
# 2 62.4795 61.4334 43.5302 0.0000 -1.2852 0.0000
# 3 39.8813 43.5302 125.7872 0.0000 -11.6981 0.0000
# 4 0.0000 0.0000 0.0000 39.2387 0.0000 -11.8564
# 5 -16.6108 -1.2852 -11.6981 0.0000 47.1182 0.0000
# 6 0.0000 0.0000 0.0000 -11.8564 0.0000 19.0103
#
#
#
# Elastic Compliance Matrix: (Units=1/GPa)
#
#
# Indices 1 2 3 4 5 6 
#
# 1 0.017269 -0.018483 0.001475 0.000000 0.005950 0.000000
# 2 -0.018483 0.041426 -0.009189 0.000000 -0.007667 0.000000
# 3 0.001475 -0.009189 0.010940 0.000000 0.002985 0.000000
# 4 0.000000 0.000000 0.000000 0.031403 0.000000 0.019585
# 5 0.005950 -0.007667 0.002985 0.000000 0.023853 0.000000
# 6 0.000000 0.000000 0.000000 0.019585 0.000000 0.064818
#
#
# Mechanical properties :
#
#
# Convention : Reuss Voigt Hill
#
# Bulk Modulus (GPa) = 58.00506 67.34456 62.67481
# Shear Modulus (GPa) = 20.17341 32.30199 26.23770
#
# Velocity S-wave (km/s) = 2.85112 3.60778 3.25153
# Velocity P-wave (km/s) = 5.84907 6.67017 6.27307
#
# Compressibility (1/GPa) = 0.01723988
#
# Stress axis : x y z
#
# Youngs Moduli (GPa) = 57.90774 24.13922 91.40748
#
# Poissons Ratio (x) = 0.44617 -0.13478
# Poissons Ratio (y) = 1.07032 0.83994
# Poissons Ratio (z) = -0.08539 0.22181
#
# Static dielectric constant tensor:
#      x y z
#    x 2.132330 0.000000 0.110250 
#    y 0.000000 2.001050 0.000000 
#    z 0.110250 0.000000 2.051750 
# 
# From -- ./inp_files/259888.got.cif
#   From: 2010.05.17/outbox.cif.g08.bks.cpg/sg15_130_cif.got.tgz:259888.got - 2010.06.03 18:47:42.
