data_PCOD9272357
_publ_section_title
;
Structure prediction by ZEFSAII (Michael W. Deem and Ramdas Pophale) SiO2 
 PCOD9272357
Probable space group: C 2/C
;
_chemical_formula_sum "Si O2"
_cell_formula_units_Z 64
_cell_length_a 12.390198
_cell_length_b 21.647358
_cell_length_c 21.031829
_cell_angle_alpha 90.000000
_cell_angle_beta 143.323056
_cell_angle_gamma 90.000000
_cell_volume 3369.414905
_symmetry_space_group_name_H-M "C 2/C"
_symmetry_group_IT_number 15
_symmetry_cell_setting 'monoclinic'
loop_
_space_group_symop_operation_xyz
x,y,z
-x,y,1/2-z
-x,-y,-z
x,-y,1/2+z
1/2+x,1/2+y,z
1/2-x,1/2+y,1/2-z
1/2-x,1/2-y,-z
1/2+x,1/2-y,1/2+z
loop_
_atom_site_type_symbol
_atom_site_label
_atom_site_fract_x
_atom_site_fract_y
_atom_site_fract_z
Si Si1 0.713672 0.163402 0.358147
Si Si2 0.800790 0.035544 0.021945
Si Si3 0.316262 0.389210 0.041144
Si Si4 0.203152 0.541874 0.833852
Si Si5 0.183286 0.068752 0.199782
Si Si6 0.734565 0.380808 0.252413
Si Si7 0.926117 0.488596 0.395814
Si Si8 0.221171 0.196185 0.860449
O O1 0.500000 0.166981 0.250000
O O2 0.746413 0.126094 0.438163
O O3 0.787296 0.128200 0.330606
O O4 0.780293 0.233509 0.399148
O O5 0.982059 0.067166 0.134704
O O6 0.808045 0.962988 0.043407
O O7 0.800574 0.050060 0.946602
O O8 0.593584 0.048527 0.943155
O O9 0.525316 0.370767 0.140291
O O10 0.230204 0.349770 0.058241
O O11 0.308853 0.490130 0.844231
O O12 0.187259 0.600755 0.779586
O O13 0.000000 0.517983 0.750000
O O14 0.349789 0.050736 0.325678
O O15 0.760398 0.441451 0.309264
O O16 0.798299 0.326800 0.329090
O O17 0.000000 0.500000 0.500000
O O18 0.000000 0.194303 0.750000
#
# Coordination Sequence:
#
# PCOD9272357 Si02
#       8
#     8   8   8   8   8   8   8   8
#     4  11  21  35  56  85 119 156 196 243 298 353
#     4  12  20  33  59  88 117 146 187 242 300 356
#     4  11  19  34  58  84 119 148 189 241 295 358
#     4  11  18  33  54  82 113 143 185 236 283 341
#     4  11  21  35  54  87 118 147 187 238 298 348
#     4  10  20  37  52  79 116 148 193 234 288 347
#     4  11  23  37  55  85 116 152 189 236 303 360
#     4   9  21  36  55  82 116 157 197 238 294 357
#
# _framework density 18.994395999999998
#
# number of rings (size 3 to 8) (size 9 to 14) (size 15 to 20)
#    0.000    1.250    6.250    3.375    0.000    0.500 
#    0.000    0.000    0.000    0.750    3.250    0.000 
#    0.000    0.000    0.000    0.000    0.000    0.000 
#
# Total GULP energy -178189.079186 kJ/mol
# GULP energy per Si atom -5568.408725 kJ/mol
# Density = 1.895116 g / cm^3
# Si number density = 18.994396 Si / 1000 Ang^3
#
#
#
# Elastic Constant Matrix: (Units=GPa)
#
#
# Indices 1 2 3 4 5 6 
#
# 1 53.6769 18.5142 33.3624 -0.0003 -11.1402 0.0000
# 2 18.5142 63.3939 -0.6181 -0.0001 -5.3295 0.0000
# 3 33.3624 -0.6181 88.2950 -0.0011 -10.0240 -0.0007
# 4 -0.0003 -0.0001 -0.0011 12.6933 -0.0004 -0.2346
# 5 -11.1402 -5.3295 -10.0240 -0.0004 29.7998 -0.0001
# 6 0.0000 0.0000 -0.0007 -0.2346 -0.0001 19.2085
#
#
#
# Elastic Compliance Matrix: (Units=1/GPa)
#
#
# Indices 1 2 3 4 5 6 
#
# 1 0.029111 -0.008104 -0.010382 0.000000 0.005941 0.000000
# 2 -0.008104 0.018289 0.003345 0.000000 0.001367 0.000000
# 3 -0.010382 0.003345 0.015491 0.000001 0.001928 0.000001
# 4 0.000000 0.000000 0.000001 0.078800 0.000002 0.000963
# 5 0.005941 0.001367 0.001928 0.000002 0.036671 0.000000
# 6 0.000000 0.000000 0.000001 0.000963 0.000000 0.052072
#
#
# Mechanical properties :
#
#
# Convention : Reuss Voigt Hill
#
# Bulk Modulus (GPa) = 30.66583 34.20919 32.43751
# Shear Modulus (GPa) = 18.41055 22.61414 20.51235
#
# Velocity S-wave (km/s) = 3.11668 3.45421 3.28977
# Velocity P-wave (km/s) = 5.39734 5.82735 5.61646
#
# Compressibility (1/GPa) = 0.03260959
#
# Stress axis : x y z
#
# Youngs Moduli (GPa) = 34.35151 54.67902 64.55472
#
# Poissons Ratio (x) = 0.44310 0.67019
# Poissons Ratio (y) = 0.27837 -0.21594
# Poissons Ratio (z) = 0.35663 -0.18291
#
# Static dielectric constant tensor:
#      x y z
#    x 1.752540 0.000000 0.012400 
#    y 0.000000 1.683640 0.000000 
#    z 0.012400 0.000000 1.701870 
# 
# From -- ./inp_files/240451.got.cif
#   From: 2010.05.17/outbox.cif.g08.bks.cpg/sg15_121_cif.got.tgz:240451.got - 2010.06.03 18:47:42.
