data_PCOD9272200
_publ_section_title
;
Structure prediction by ZEFSAII (Michael W. Deem and Ramdas Pophale) SiO2 
 PCOD9272200
Probable space group: C 2/C
;
_chemical_formula_sum "Si O2"
_cell_formula_units_Z 60
_cell_length_a 30.102038
_cell_length_b 17.080778
_cell_length_c 18.668701
_cell_angle_alpha 90.000000
_cell_angle_beta 18.037977
_cell_angle_gamma 90.000000
_cell_volume 2972.247417
_symmetry_space_group_name_H-M "C 2/C"
_symmetry_group_IT_number 15
_symmetry_cell_setting 'monoclinic'
loop_
_space_group_symop_operation_xyz
x,y,z
-x,y,1/2-z
-x,-y,-z
x,-y,1/2+z
1/2+x,1/2+y,z
1/2-x,1/2+y,1/2-z
1/2-x,1/2-y,-z
1/2+x,1/2-y,1/2+z
loop_
_atom_site_type_symbol
_atom_site_label
_atom_site_fract_x
_atom_site_fract_y
_atom_site_fract_z
Si Si1 0.500000 0.161873 0.250000
Si Si2 0.168614 0.904357 0.013236
Si Si3 0.821227 0.947448 0.815885
Si Si4 0.257172 0.751504 0.796181
Si Si5 0.362061 0.940051 0.838107
Si Si6 0.857606 0.641786 0.016912
Si Si7 0.340209 0.010144 0.647436
Si Si8 0.121154 0.090652 0.879750
O O1 0.401815 0.214066 0.452654
O O2 0.593928 0.107391 0.158134
O O3 0.000000 0.905283 0.250000
O O4 0.241994 0.827042 0.868995
O O5 0.222025 0.906297 0.013102
O O6 0.249152 0.977214 0.852741
O O7 0.957700 0.924156 0.652860
O O8 0.855908 0.027260 0.718498
O O9 0.775177 0.880680 0.831279
O O10 0.684197 0.972196 0.070987
O O11 0.314481 0.784873 0.632908
O O12 0.357003 0.681428 0.671321
O O13 0.509179 0.947612 0.567707
O O14 0.000000 0.652334 0.750000
O O15 0.869164 0.564381 0.050146
O O16 0.237423 0.068276 0.760988
#
# Coordination Sequence:
#
# PCOD9272200 Si02
#       8
#     4   8   8   8   8   8   8   8
#     4  12  22  42  64 100 124 168 216 258 326 388
#     4  11  25  40  59  98 139 169 203 264 336 380
#     4  10  20  36  65  93 114 165 219 261 307 368
#     4  11  23  41  60  92 138 166 209 260 329 392
#     4  12  21  39  70  93 124 166 221 272 309 378
#     4  10  20  39  65  88 124 170 215 264 312 378
#     4  10  20  39  65  89 125 165 217 264 309 378
#     4  10  20  38  60  91 124 158 213 262 308 378
#
# _framework density 20.186744999999998
#
# number of rings (size 3 to 8) (size 9 to 14) (size 15 to 20)
#    0.000    1.333    4.667    2.000    0.000    2.667 
#    0.000    2.667    0.000    0.000    0.000    0.000 
#    0.000    0.000    0.000    0.000    0.000    0.000 
#
# Total GULP energy -167180.231085 kJ/mol
# GULP energy per Si atom -5572.674369 kJ/mol
# Density = 2.014080 g / cm^3
# Si number density = 20.186745 Si / 1000 Ang^3
#
#
#
# Elastic Constant Matrix: (Units=GPa)
#
#
# Indices 1 2 3 4 5 6 
#
# 1 91.0262 22.7270 40.1683 -0.0001 -17.5879 -0.0001
# 2 22.7270 68.7994 32.4101 -0.0011 -4.3004 0.0004
# 3 40.1683 32.4101 89.3774 -0.0009 -6.7123 0.0000
# 4 -0.0001 -0.0011 -0.0009 36.7291 0.0004 7.2220
# 5 -17.5879 -4.3004 -6.7123 0.0004 32.6658 0.0000
# 6 -0.0001 0.0004 0.0000 7.2220 0.0000 6.3596
#
#
#
# Elastic Compliance Matrix: (Units=1/GPa)
#
#
# Indices 1 2 3 4 5 6 
#
# 1 0.015283 -0.001964 -0.005645 0.000000 0.006810 0.000001
# 2 -0.001964 0.017815 -0.005567 0.000001 0.000144 -0.000002
# 3 -0.005645 -0.005567 0.015703 0.000000 -0.000546 0.000000
# 4 0.000000 0.000001 0.000000 0.035054 0.000000 -0.039807
# 5 0.006810 0.000144 -0.000546 0.000000 0.034187 0.000000
# 6 0.000001 -0.000002 0.000000 -0.039807 0.000000 0.202447
#
#
# Mechanical properties :
#
#
# Convention : Reuss Voigt Hill
#
# Bulk Modulus (GPa) = 44.54262 48.86822 46.70542
# Shear Modulus (GPa) = 14.11143 25.41074 19.76108
#
# Velocity S-wave (km/s) = 2.64681 3.55178 3.13215
# Velocity P-wave (km/s) = 5.60839 6.40943 6.02224
#
# Compressibility (1/GPa) = 0.02245041
#
# Stress axis : x y z
#
# Youngs Moduli (GPa) = 65.43199 56.13219 63.68125
#
# Poissons Ratio (x) = 0.11022 0.35949
# Poissons Ratio (y) = 0.12848 0.35450
# Poissons Ratio (z) = 0.36937 0.31248
#
# Static dielectric constant tensor:
#      x y z
#    x 1.758820 0.000000 0.030140 
#    y 0.000000 1.713200 0.000000 
#    z 0.030140 0.000000 1.777690 
# 
# From -- ./inp_files/225780.got.cif
#   From: 2010.05.17/outbox.cif.g08.bks.cpg/sg15_113_cif.got.tgz:225780.got - 2010.06.03 18:47:42.
