data_PCOD9272237
_publ_section_title
;
Structure prediction by ZEFSAII (Michael W. Deem and Ramdas Pophale) SiO2 
 PCOD9272237
Probable space group: C 2/C
;
_chemical_formula_sum "Si O2"
_cell_formula_units_Z 44
_cell_length_a 6.748985
_cell_length_b 12.836908
_cell_length_c 21.808832
_cell_angle_alpha 90.000000
_cell_angle_beta 76.819687
_cell_angle_gamma 90.000000
_cell_volume 1839.659410
_symmetry_space_group_name_H-M "C 2/C"
_symmetry_group_IT_number 15
_symmetry_cell_setting 'monoclinic'
loop_
_space_group_symop_operation_xyz
x,y,z
-x,y,1/2-z
-x,-y,-z
x,-y,1/2+z
1/2+x,1/2+y,z
1/2-x,1/2+y,1/2-z
1/2-x,1/2-y,-z
1/2+x,1/2-y,1/2+z
loop_
_atom_site_type_symbol
_atom_site_label
_atom_site_fract_x
_atom_site_fract_y
_atom_site_fract_z
Si Si1 0.500000 0.361514 0.250000
Si Si2 0.017427 0.193245 0.612098
Si Si3 0.739764 0.057418 0.239226
Si Si4 0.679994 0.092319 0.373258
Si Si5 0.259284 0.487593 0.608190
Si Si6 0.725878 0.953416 0.474047
O O1 0.454113 0.302160 0.316166
O O2 0.314950 0.439927 0.247744
O O3 0.221121 0.154884 0.563273
O O4 0.927200 0.302402 0.597363
O O5 0.852868 0.102569 0.609223
O O6 0.500000 0.068473 0.250000
O O7 0.791138 0.112535 0.300302
O O8 0.813912 0.079422 0.164946
O O9 0.489736 0.013696 0.373298
O O10 0.806374 0.036943 0.417811
O O11 0.500000 0.000000 0.500000
O O12 0.312536 0.448584 0.536456
#
# Coordination Sequence:
#
# PCOD9272237 Si02
#       6
#     4   8   8   8   8   8
#     4  10  20  36  66  90 120 166 214 268 320 380
#     4  11  22  38  64  92 119 166 214 254 323 376
#     4   9  18  37  63  86 124 167 203 266 315 370
#     4  10  21  39  65  86 123 165 210 257 321 369
#     4   9  21  37  60  88 124 158 204 254 312 373
#     4  10  21  40  63  90 129 167 201 262 315 381
#
# _framework density 23.917469000000001
#
# number of rings (size 3 to 8) (size 9 to 14) (size 15 to 20)
#    0.000    2.182    1.818    0.545    3.818    3.636 
#    0.000    3.636   16.000    0.000    0.000    0.000 
#    0.000    0.000    0.000    0.000    0.000    0.000 
#
# Total GULP energy -122554.594024 kJ/mol
# GULP energy per Si atom -5570.663365 kJ/mol
# Density = 2.386303 g / cm^3
# Si number density = 23.917469 Si / 1000 Ang^3
#
#
#
# Elastic Constant Matrix: (Units=GPa)
#
#
# Indices 1 2 3 4 5 6 
#
# 1 73.8741 17.8848 33.6813 0.0000 -0.5990 0.0000
# 2 17.8848 95.8607 23.2129 0.0000 2.2586 0.0000
# 3 33.6813 23.2129 227.7043 0.0000 9.7959 0.0000
# 4 0.0000 0.0000 0.0000 -10.2743 0.0000 13.1622
# 5 -0.5990 2.2586 9.7959 0.0000 49.5957 0.0000
# 6 0.0000 0.0000 0.0000 13.1622 0.0000 18.4657
#
#
#
# Elastic Compliance Matrix: (Units=1/GPa)
#
#
# Indices 1 2 3 4 5 6 
#
# 1 0.015025 -0.002332 -0.002014 0.000000 0.000685 0.000000
# 2 -0.002332 0.011061 -0.000766 0.000000 -0.000381 0.000000
# 3 -0.002014 -0.000766 0.004808 0.000000 -0.000939 0.000000
# 4 0.000000 0.000000 0.000000 -0.050874 0.000000 0.036263
# 5 0.000685 -0.000381 -0.000939 0.000000 0.020374 0.000000
# 6 0.000000 0.000000 0.000000 0.036263 0.000000 0.028306
#
#
# Mechanical properties :
#
#
# Convention : Reuss Voigt Hill
#
# Bulk Modulus (GPa) = 48.37936 60.77745 54.57841
# Shear Modulus (GPa) = 109.13424 33.06809 71.10117
#
# Velocity S-wave (km/s) = 6.76229 3.72236 5.45823
# Velocity P-wave (km/s) = 9.01349 6.62881 7.91151
#
# Compressibility (1/GPa) = 0.02066997
#
# Stress axis : x y z
#
# Youngs Moduli (GPa) = 66.55607 90.40482 207.98119
#
# Poissons Ratio (x) = 0.21079 0.41892
# Poissons Ratio (y) = 0.15518 0.15939
# Poissons Ratio (z) = 0.13406 0.06928
#
# Static dielectric constant tensor:
#      x y z
#    x -5.765690 0.000000 5.167190 
#    y 0.000000 1.855110 0.000000 
#    z 5.167190 0.000000 -1.450500 
# 
# From -- ./inp_files/188816.got.cif
#   From: 2010.05.17/outbox.cif.g08.bks.cpg/sg15_95_cif.got.tgz:188816.got - 2010.06.03 18:47:42.
