data_PCOD9272854
_publ_section_title
;
Structure prediction by ZEFSAII (Michael W. Deem and Ramdas Pophale) SiO2 
 PCOD9272854
Probable space group: C 2/C
;
_chemical_formula_sum "Si O2"
_cell_formula_units_Z 64
_cell_length_a 14.213368
_cell_length_b 18.355221
_cell_length_c 17.242314
_cell_angle_alpha 90.000000
_cell_angle_beta 136.506583
_cell_angle_gamma 90.000000
_cell_volume 3096.077220
_symmetry_space_group_name_H-M "C 2/C"
_symmetry_group_IT_number 15
_symmetry_cell_setting 'monoclinic'
loop_
_space_group_symop_operation_xyz
x,y,z
-x,y,1/2-z
-x,-y,-z
x,-y,1/2+z
1/2+x,1/2+y,z
1/2-x,1/2+y,1/2-z
1/2-x,1/2-y,-z
1/2+x,1/2-y,1/2+z
loop_
_atom_site_type_symbol
_atom_site_label
_atom_site_fract_x
_atom_site_fract_y
_atom_site_fract_z
Si Si1 0.358281 0.692812 0.134052
Si Si2 0.172848 0.090546 0.162336
Si Si3 0.891909 0.674859 0.396468
Si Si4 0.622744 0.991037 0.285558
Si Si5 0.048730 0.161575 0.578133
Si Si6 0.279361 0.851697 0.094574
Si Si7 0.406575 0.937420 0.408341
Si Si8 0.408505 0.463129 0.271908
O O1 0.500000 0.665380 0.250000
O O2 0.227530 0.684883 0.110815
O O3 0.368090 0.780204 0.129994
O O4 0.330052 0.652081 0.038381
O O5 0.305978 0.129659 0.280562
O O6 0.238575 0.035860 0.138984
O O7 0.102239 0.037504 0.183582
O O8 0.067860 0.143311 0.055511
O O9 0.946330 0.752725 0.398749
O O10 0.016194 0.634406 0.514799
O O11 0.500000 0.036781 0.250000
O O12 0.640565 0.925824 0.356916
O O13 0.597217 0.955768 0.185655
O O14 0.196229 0.150664 0.624914
O O15 0.039743 0.103321 0.642159
O O16 0.249985 0.943890 0.342504
O O17 0.500000 0.000000 0.500000
O O18 0.500000 0.470720 0.250000
#
# Coordination Sequence:
#
# PCOD9272854 Si02
#       8
#     8   8   8   8   8   8   8   8
#     4  10  21  36  59 101 139 172 220 262 350 422
#     4  11  24  45  66 103 133 174 234 281 349 411
#     4  11  24  42  68  98 140 185 219 291 345 410
#     4  11  22  38  66  93 132 175 222 278 339 408
#     4  11  24  43  69  98 136 180 221 284 351 408
#     4  10  20  37  60  94 133 174 214 269 332 418
#     4  11  22  46  67  99 134 178 237 279 342 412
#     4  11  25  46  74 101 137 184 237 287 340 401
#
# _framework density 20.671317999999999
#
# number of rings (size 3 to 8) (size 9 to 14) (size 15 to 20)
#    0.000    1.250    5.000    2.250    1.750    4.500 
#    0.000    1.250    0.000    0.750    0.000    0.000 
#    0.000    0.000    0.000    0.000    0.000    0.000 
#
# Total GULP energy -178571.443533 kJ/mol
# GULP energy per Si atom -5580.357610 kJ/mol
# Density = 2.062427 g / cm^3
# Si number density = 20.671318 Si / 1000 Ang^3
#
#
#
# Elastic Constant Matrix: (Units=GPa)
#
#
# Indices 1 2 3 4 5 6 
#
# 1 113.0363 22.8030 29.2783 0.0000 10.5211 0.0000
# 2 22.8030 106.1545 46.8060 0.0000 0.8250 0.0000
# 3 29.2783 46.8060 107.5806 0.0001 10.3743 0.0000
# 4 0.0000 0.0000 0.0001 6.6766 0.0000 -39.4333
# 5 10.5211 0.8250 10.3743 0.0000 24.1624 0.0000
# 6 0.0000 0.0000 0.0000 -39.4333 0.0000 -54.7327
#
#
#
# Elastic Compliance Matrix: (Units=1/GPa)
#
#
# Indices 1 2 3 4 5 6 
#
# 1 0.009900 -0.001312 -0.001786 0.000000 -0.003499 0.000000
# 2 -0.001312 0.011911 -0.005050 0.000000 0.002333 0.000000
# 3 -0.001786 -0.005050 0.012400 0.000000 -0.004374 0.000000
# 4 0.000000 0.000000 0.000000 0.028500 0.000000 -0.020534
# 5 -0.003499 0.002333 -0.004374 0.000000 0.044709 0.000000
# 6 0.000000 0.000000 0.000000 -0.020534 0.000000 -0.003477
#
#
# Mechanical properties :
#
#
# Convention : Reuss Voigt Hill
#
# Bulk Modulus (GPa) = 55.81952 58.28288 57.05120
# Shear Modulus (GPa) = 39.61646 10.41354 25.01500
#
# Velocity S-wave (km/s) = 4.38253 2.24691 3.48247
# Velocity P-wave (km/s) = 7.25746 5.91504 6.62036
#
# Compressibility (1/GPa) = 0.01791488
#
# Stress axis : x y z
#
# Youngs Moduli (GPa) = 101.01370 83.95932 80.64288
#
# Poissons Ratio (x) = 0.11014 0.14403
# Poissons Ratio (y) = 0.13251 0.40724
# Poissons Ratio (z) = 0.18042 0.42399
#
# Static dielectric constant tensor:
#      x y z
#    x 2.660180 0.000000 0.690200 
#    y 0.000000 1.799300 0.000000 
#    z 0.690200 0.000000 2.275610 
# 
# From -- ./inp_files/206485.got.cif
#   From: 2010.05.17/outbox.cif.g08.bks.cpg/sg15_104_cif.got.tgz:206485.got - 2010.06.03 18:47:42.
