data_PCOD9272272
_publ_section_title
;
Structure prediction by ZEFSAII (Michael W. Deem and Ramdas Pophale) SiO2 
 PCOD9272272
Probable space group: C 2/C
;
_chemical_formula_sum "Si O2"
_cell_formula_units_Z 64
_cell_length_a 16.457236
_cell_length_b 24.564272
_cell_length_c 13.759034
_cell_angle_alpha 90.000000
_cell_angle_beta 146.786872
_cell_angle_gamma 90.000000
_cell_volume 3046.737493
_symmetry_space_group_name_H-M "C 2/C"
_symmetry_group_IT_number 15
_symmetry_cell_setting 'monoclinic'
loop_
_space_group_symop_operation_xyz
x,y,z
-x,y,1/2-z
-x,-y,-z
x,-y,1/2+z
1/2+x,1/2+y,z
1/2-x,1/2+y,1/2-z
1/2-x,1/2-y,-z
1/2+x,1/2-y,1/2+z
loop_
_atom_site_type_symbol
_atom_site_label
_atom_site_fract_x
_atom_site_fract_y
_atom_site_fract_z
Si Si1 0.284539 0.971682 0.344058
Si Si2 0.631121 0.064684 0.205781
Si Si3 0.220403 0.147082 0.726712
Si Si4 0.561994 0.181940 0.076908
Si Si5 0.157891 0.297204 0.460498
Si Si6 0.327271 0.009578 0.590913
Si Si7 0.842705 0.114154 0.043438
Si Si8 0.623408 0.728926 0.799254
O O1 0.458246 0.952582 0.519890
O O2 0.202416 0.915786 0.240637
O O3 0.274471 0.021384 0.260072
O O4 0.250546 0.999030 0.412419
O O5 0.646817 0.126283 0.189261
O O6 0.668434 0.048921 0.352716
O O7 0.146485 0.148665 0.545819
O O8 0.167456 0.184670 0.762282
O O9 0.393102 0.164076 0.884321
O O10 0.566416 0.221065 0.174766
O O11 0.633395 0.208178 0.051706
O O12 0.250000 0.250000 0.500000
O O13 0.243163 0.352679 0.520549
O O14 0.000000 0.299166 0.250000
O O15 0.500000 0.026385 0.750000
O O16 0.244361 0.057911 0.563431
O O17 0.000000 0.104492 0.250000
O O18 0.500000 0.707701 0.750000
O O19 0.750000 0.750000 0.000000
#
# Coordination Sequence:
#
# PCOD9272272 Si02
#       8
#     8   8   8   8   8   8   8   8
#     4   9  18  34  64  99 130 171 224 281 334 403
#     4   9  18  34  61 101 130 166 226 280 334 397
#     4  11  23  45  71  99 139 182 236 290 342 410
#     4  11  24  41  72 102 137 179 234 288 341 414
#     4  12  25  43  70 101 135 176 225 281 351 415
#     4  10  20  36  66  97 134 175 224 279 343 404
#     4  12  25  43  67 100 142 180 227 280 346 418
#     4  12  27  47  71 101 139 182 233 288 345 404
#
# _framework density 21.006076
#
# number of rings (size 3 to 8) (size 9 to 14) (size 15 to 20)
#    0.000    1.250    3.750    2.250    3.500    1.500 
#    0.000    1.250    0.000    0.000    0.000    0.000 
#    0.000    0.000    0.000    0.000    0.000    0.000 
#
# Total GULP energy -178651.484247 kJ/mol
# GULP energy per Si atom -5582.858883 kJ/mol
# Density = 2.095827 g / cm^3
# Si number density = 21.006076 Si / 1000 Ang^3
#
#
#
# Elastic Constant Matrix: (Units=GPa)
#
#
# Indices 1 2 3 4 5 6 
#
# 1 114.9982 39.8872 32.7716 0.0000 -20.7799 0.0000
# 2 39.8872 101.7900 13.4701 0.0000 -4.3237 0.0000
# 3 32.7716 13.4701 76.1408 0.0000 -7.6397 0.0000
# 4 0.0000 0.0000 0.0000 13.8750 0.0000 -13.3038
# 5 -20.7799 -4.3237 -7.6397 0.0000 32.4348 0.0000
# 6 0.0000 0.0000 0.0000 -13.3038 0.0000 29.9671
#
#
#
# Elastic Compliance Matrix: (Units=1/GPa)
#
#
# Indices 1 2 3 4 5 6 
#
# 1 0.012405 -0.004061 -0.003972 0.000000 0.006471 0.000000
# 2 -0.004061 0.011417 -0.000390 0.000000 -0.001171 0.000000
# 3 -0.003972 -0.000390 0.015006 0.000000 0.000938 0.000000
# 4 0.000000 0.000000 0.000000 0.125489 0.000000 0.055710
# 5 0.006471 -0.001171 0.000938 0.000000 0.035042 0.000000
# 6 0.000000 0.000000 0.000000 0.055710 0.000000 0.058102
#
#
# Mechanical properties :
#
#
# Convention : Reuss Voigt Hill
#
# Bulk Modulus (GPa) = 45.48641 51.68742 48.58691
# Shear Modulus (GPa) = 17.75357 29.04206 23.39782
#
# Velocity S-wave (km/s) = 2.91032 3.72231 3.34107
# Velocity P-wave (km/s) = 5.74406 6.56761 6.16959
#
# Compressibility (1/GPa) = 0.02198459
#
# Stress axis : x y z
#
# Youngs Moduli (GPa) = 80.61037 87.58745 66.63969
#
# Poissons Ratio (x) = 0.35567 0.26467
# Poissons Ratio (y) = 0.32733 0.02596
# Poissons Ratio (z) = 0.32016 0.03412
#
# Static dielectric constant tensor:
#      x y z
#    x 1.785990 0.000000 -0.003080 
#    y 0.000000 1.755110 0.000000 
#    z -0.003080 0.000000 1.759340 
# 
# From -- ./inp_files/101358.got.cif
#   From: 2010.05.17/outbox.cif.g08.bks.cpg/sg15_51_cif.got.tgz:101358.got - 2010.06.03 18:47:42.
