data_PCOD9272126
_publ_section_title
;
Structure prediction by ZEFSAII (Michael W. Deem and Ramdas Pophale) SiO2 
 PCOD9272126
Probable space group: C 2/C
;
_chemical_formula_sum "Si O2"
_cell_formula_units_Z 44
_cell_length_a 9.450435
_cell_length_b 27.814671
_cell_length_c 8.000684
_cell_angle_alpha 90.000000
_cell_angle_beta 110.485921
_cell_angle_gamma 90.000000
_cell_volume 1970.064091
_symmetry_space_group_name_H-M "C 2/C"
_symmetry_group_IT_number 15
_symmetry_cell_setting 'monoclinic'
loop_
_space_group_symop_operation_xyz
x,y,z
-x,y,1/2-z
-x,-y,-z
x,-y,1/2+z
1/2+x,1/2+y,z
1/2-x,1/2+y,1/2-z
1/2-x,1/2-y,-z
1/2+x,1/2-y,1/2+z
loop_
_atom_site_type_symbol
_atom_site_label
_atom_site_fract_x
_atom_site_fract_y
_atom_site_fract_z
Si Si1 0.923930 0.643420 0.037656
Si Si2 0.883221 0.457074 0.405621
Si Si3 0.000000 0.080317 0.250000
Si Si4 0.931759 0.853007 0.036530
Si Si5 0.327500 0.511062 0.980370
Si Si6 0.572148 0.753230 0.961691
O O1 0.965150 0.695114 0.972504
O O2 0.000000 0.638272 0.250000
O O3 0.954904 0.595364 0.946023
O O4 0.746259 0.646006 0.003469
O O5 0.753869 0.462997 0.492605
O O6 0.787175 0.465243 0.197975
O O7 0.000000 0.500000 0.500000
O O8 0.978165 0.111187 0.408387
O O9 0.144730 0.046698 0.351108
O O10 0.975956 0.798951 0.992196
O O11 0.000000 0.862558 0.250000
O O12 0.500000 0.500000 0.000000
O O13 0.500000 0.756370 0.750000
O O14 0.750000 0.750000 0.000000
#
# Coordination Sequence:
#
# PCOD9272126 Si02
#       6
#     8   8   4   8   8   8
#     4  10  20  36  64  90 123 171 208 252 326 388
#     4  12  25  41  62  92 128 167 214 264 323 388
#     4  12  24  38  70  98 126 164 220 268 324 380
#     4  10  21  40  66  95 126 162 214 268 321 378
#     4  12  24  44  63  89 128 169 216 269 324 384
#     4   8  16  33  60  88 117 159 207 252 311 382
#
# _framework density 22.334298
#
# number of rings (size 3 to 8) (size 9 to 14) (size 15 to 20)
#    0.000    1.455    1.818    3.818    2.545    0.000 
#    0.000    0.000    4.000   38.182    0.000    0.000 
#    0.000    0.000    0.000    0.000    0.000    0.000 
#
# Total GULP energy -122752.658780 kJ/mol
# GULP energy per Si atom -5579.666308 kJ/mol
# Density = 2.228346 g / cm^3
# Si number density = 22.334298 Si / 1000 Ang^3
#
#
#
# Elastic Constant Matrix: (Units=GPa)
#
#
# Indices 1 2 3 4 5 6 
#
# 1 53.6933 6.9255 29.2154 0.0000 13.4632 0.0000
# 2 6.9255 189.5616 51.4428 0.0000 -0.2677 0.0000
# 3 29.2154 51.4428 162.4868 0.0000 38.1165 0.0000
# 4 0.0000 0.0000 0.0000 39.1011 0.0000 -2.3957
# 5 13.4632 -0.2677 38.1165 0.0000 43.8973 0.0000
# 6 0.0000 0.0000 0.0000 -2.3957 0.0000 23.1426
#
#
#
# Elastic Compliance Matrix: (Units=1/GPa)
#
#
# Indices 1 2 3 4 5 6 
#
# 1 0.021191 -0.000001 -0.002870 0.000000 -0.004007 0.000000
# 2 -0.000001 0.005920 -0.002364 0.000000 0.002089 0.000000
# 3 -0.002870 -0.002364 0.009061 0.000000 -0.007002 0.000000
# 4 0.000000 0.000000 0.000000 0.025738 0.000000 0.002664
# 5 -0.004007 0.002089 -0.007002 0.000000 0.030103 0.000000
# 6 0.000000 0.000000 0.000000 0.002664 0.000000 0.043486
#
#
# Mechanical properties :
#
#
# Convention : Reuss Voigt Hill
#
# Bulk Modulus (GPa) = 38.90717 64.54546 51.72631
# Shear Modulus (GPa) = 32.35493 42.43873 37.39683
#
# Velocity S-wave (km/s) = 3.81026 4.36381 4.09640
# Velocity P-wave (km/s) = 6.06759 7.37244 6.75161
#
# Compressibility (1/GPa) = 0.02570221
#
# Stress axis : x y z
#
# Youngs Moduli (GPa) = 47.19048 168.92212 110.35765
#
# Poissons Ratio (x) = 0.00018 0.31670
# Poissons Ratio (y) = 0.00005 0.26090
# Poissons Ratio (z) = 0.13542 0.39935
#
# Static dielectric constant tensor:
#      x y z
#    x 1.804010 0.000000 -0.060490 
#    y 0.000000 1.952960 0.000000 
#    z -0.060490 0.000000 1.851340 
# 
# From -- ./inp_files/32735.got.cif
#   From: 2010.05.17/outbox.cif.g08.bks.cpg/sg15_17_cif.got.tgz:32735.got - 2010.06.03 18:47:42.
