data_PCOD9272019
_publ_section_title
;
Structure prediction by ZEFSAII (Michael W. Deem and Ramdas Pophale) SiO2 
 PCOD9272019
Probable space group: C 2/C
;
_chemical_formula_sum "Si O2"
_cell_formula_units_Z 48
_cell_length_a 8.326211
_cell_length_b 17.843576
_cell_length_c 17.949572
_cell_angle_alpha 90.000000
_cell_angle_beta 45.579973
_cell_angle_gamma 90.000000
_cell_volume 1904.672555
_symmetry_space_group_name_H-M "C 2/C"
_symmetry_group_IT_number 15
_symmetry_cell_setting 'monoclinic'
loop_
_space_group_symop_operation_xyz
x,y,z
-x,y,1/2-z
-x,-y,-z
x,-y,1/2+z
1/2+x,1/2+y,z
1/2-x,1/2+y,1/2-z
1/2-x,1/2-y,-z
1/2+x,1/2-y,1/2+z
loop_
_atom_site_type_symbol
_atom_site_label
_atom_site_fract_x
_atom_site_fract_y
_atom_site_fract_z
Si Si1 0.892452 0.615704 0.980503
Si Si2 0.271673 0.956123 0.023613
Si Si3 0.000000 0.023888 0.250000
Si Si4 0.888042 0.844924 0.684325
Si Si5 0.500000 0.787793 0.250000
Si Si6 0.472280 0.326100 0.089575
Si Si7 0.226672 0.264601 0.387422
O O1 0.012063 0.590517 0.019539
O O2 0.076385 0.674345 0.890834
O O3 0.843224 0.533799 0.962147
O O4 0.648940 0.651861 0.072024
O O5 0.107573 0.902757 0.031600
O O6 0.144408 0.977206 0.143384
O O7 0.140950 0.079692 0.259061
O O8 0.743138 0.814859 0.662977
O O9 0.868861 0.774134 0.744154
O O10 0.710863 0.837273 0.157509
O O11 0.556979 0.302714 0.145444
O O12 0.561297 0.259582 0.008586
#
# Coordination Sequence:
#
# PCOD9272019 Si02
#       7
#     8   8   4   8   4   8   8
#     4   9  17  34  62  87 113 168 211 250 310 386
#     4   9  19  36  59  87 124 168 208 250 318 394
#     4   9  20  38  56  88 126 173 208 254 323 396
#     4  10  20  36  63  89 119 167 216 260 316 375
#     4  11  22  36  60  92 130 163 204 274 329 364
#     4  10  22  37  60  96 128 162 212 270 320 381
#     4  10  20  38  63  93 123 158 222 270 311 379
#
# _framework density 25.201183
#
# number of rings (size 3 to 8) (size 9 to 14) (size 15 to 20)
#    0.000    2.333    1.667    0.500    0.000    3.333 
#    0.000    3.333    0.000   12.000    0.000    0.000 
#    0.000    0.000    0.000    0.000    0.000    0.000 
#
# Total GULP energy -133839.068957 kJ/mol
# GULP energy per Si atom -5576.627873 kJ/mol
# Density = 2.514382 g / cm^3
# Si number density = 25.201183 Si / 1000 Ang^3
#
#
#
# Elastic Constant Matrix: (Units=GPa)
#
#
# Indices 1 2 3 4 5 6 
#
# 1 85.9151 35.5151 28.8959 0.0004 -30.5673 -0.0007
# 2 35.5151 129.7328 22.4030 0.0001 -12.7116 -0.0002
# 3 28.8959 22.4030 62.5693 0.0005 -21.4694 -0.0004
# 4 0.0004 0.0001 0.0005 30.8377 -0.0004 2.6375
# 5 -30.5673 -12.7116 -21.4694 -0.0004 49.6739 0.0004
# 6 -0.0007 -0.0002 -0.0004 2.6375 0.0004 43.7121
#
#
#
# Elastic Compliance Matrix: (Units=1/GPa)
#
#
# Indices 1 2 3 4 5 6 
#
# 1 0.017174 -0.003221 -0.004033 0.000000 0.008001 0.000000
# 2 -0.003221 0.008861 -0.001863 0.000000 -0.000520 0.000000
# 3 -0.004033 -0.001863 0.020543 0.000000 0.005921 0.000000
# 4 0.000000 0.000000 0.000000 0.032596 0.000000 -0.001967
# 5 0.008001 -0.000520 0.005921 0.000000 0.027481 0.000000
# 6 0.000000 0.000000 0.000000 -0.001967 0.000000 0.022996
#
#
# Mechanical properties :
#
#
# Convention : Reuss Voigt Hill
#
# Bulk Modulus (GPa) = 35.28132 50.20504 42.74318
# Shear Modulus (GPa) = 31.77985 37.60496 34.69240
#
# Velocity S-wave (km/s) = 3.55497 3.86708 3.71431
# Velocity P-wave (km/s) = 5.55704 6.31696 5.94915
#
# Compressibility (1/GPa) = 0.02834361
#
# Stress axis : x y z
#
# Youngs Moduli (GPa) = 58.22829 112.85679 48.67744
#
# Poissons Ratio (x) = 0.36352 0.19630
# Poissons Ratio (y) = 0.18756 0.09071
# Poissons Ratio (z) = 0.23481 0.21031
#
# Static dielectric constant tensor:
#      x y z
#    x 2.078720 0.000000 0.032840 
#    y 0.000000 1.963540 0.000000 
#    z 0.032840 0.000000 2.101390 
# 
# From -- ./inp_files/232529.got.cif
#   From: 2010.05.17/outbox.cif.g08.bks.cpg/sg15_117_cif.got.tgz:232529.got - 2010.06.03 18:47:42.
