data_PCOD9272609
_publ_section_title
;
Structure prediction by ZEFSAII (Michael W. Deem and Ramdas Pophale) SiO2 
 PCOD9272609
Probable space group: C 2/C
;
_chemical_formula_sum "Si O2"
_cell_formula_units_Z 52
_cell_length_a 26.376818
_cell_length_b 8.039738
_cell_length_c 11.738776
_cell_angle_alpha 90.000000
_cell_angle_beta 95.079345
_cell_angle_gamma 90.000000
_cell_volume 2479.581017
_symmetry_space_group_name_H-M "C 2/C"
_symmetry_group_IT_number 15
_symmetry_cell_setting 'monoclinic'
loop_
_space_group_symop_operation_xyz
x,y,z
-x,y,1/2-z
-x,-y,-z
x,-y,1/2+z
1/2+x,1/2+y,z
1/2-x,1/2+y,1/2-z
1/2-x,1/2-y,-z
1/2+x,1/2-y,1/2+z
loop_
_atom_site_type_symbol
_atom_site_label
_atom_site_fract_x
_atom_site_fract_y
_atom_site_fract_z
Si Si1 0.500000 0.832111 0.250000
Si Si2 0.702959 0.799848 0.247135
Si Si3 0.455753 0.623851 0.028752
Si Si4 0.246491 0.960889 0.580085
Si Si5 0.343797 0.623661 0.059139
Si Si6 0.949762 0.540329 0.419054
Si Si7 0.660073 0.014957 0.049210
O O1 0.474952 0.720499 0.146099
O O2 0.458216 0.952258 0.300191
O O3 0.743611 0.874795 0.342477
O O4 0.728961 0.683125 0.159913
O O5 0.663551 0.692295 0.314269
O O6 0.677529 0.955102 0.177074
O O7 0.399840 0.552300 0.046105
O O8 0.500000 0.500000 0.000000
O O9 0.447146 0.760325 0.926802
O O10 0.202291 0.001948 0.481243
O O11 0.300337 0.930709 0.529431
O O12 0.337422 0.789686 0.979847
O O13 0.899329 0.470924 0.469930
O O14 0.000000 0.500000 0.500000
#
# Coordination Sequence:
#
# PCOD9272609 Si02
#       7
#     4   8   8   8   8   8   8
#     4  10  20  40  62  84 116 158 194 242 304 362
#     4  11  21  37  60  87 117 158 196 238 294 350
#     4  10  22  39  61  89 119 154 199 251 301 354
#     4  11  22  37  57  86 119 154 195 241 289 346
#     4  10  22  39  57  85 121 152 191 243 293 347
#     4   9  20  38  59  84 113 152 197 240 294 358
#     4  10  20  37  59  81 113 151 192 238 285 345
#
# _framework density 20.971285000000002
#
# number of rings (size 3 to 8) (size 9 to 14) (size 15 to 20)
#    0.000    1.846    0.000    5.077    0.000    5.538 
#    0.000    1.538    0.000    0.000    0.000    0.000 
#    0.000    0.000    0.000    0.000    0.000    0.000 
#
# Total GULP energy -145080.197172 kJ/mol
# GULP energy per Si atom -5580.007584 kJ/mol
# Density = 2.092355 g / cm^3
# Si number density = 20.971285 Si / 1000 Ang^3
#
#
#
# Elastic Constant Matrix: (Units=GPa)
#
#
# Indices 1 2 3 4 5 6 
#
# 1 174.9834 46.1151 53.6019 0.0000 -30.1974 0.0000
# 2 46.1151 48.5226 35.5567 0.0000 -23.3168 0.0000
# 3 53.6019 35.5567 94.0534 0.0000 -18.5050 0.0000
# 4 0.0000 0.0000 0.0000 32.7754 0.0000 -16.1929
# 5 -30.1974 -23.3168 -18.5050 0.0000 28.2085 0.0000
# 6 0.0000 0.0000 0.0000 -16.1929 0.0000 17.0503
#
#
#
# Elastic Compliance Matrix: (Units=1/GPa)
#
#
# Indices 1 2 3 4 5 6 
#
# 1 0.008199 -0.004329 -0.002312 0.000000 0.003683 0.000000
# 2 -0.004329 0.043543 -0.008984 0.000000 0.025465 0.000000
# 3 -0.002312 -0.008984 0.015384 0.000000 0.000191 0.000000
# 4 0.000000 0.000000 0.000000 0.057482 0.000000 0.054592
# 5 0.003683 0.025465 0.000191 0.000000 0.060567 0.000000
# 6 0.000000 0.000000 0.000000 0.054592 0.000000 0.110497
#
#
# Mechanical properties :
#
#
# Convention : Reuss Voigt Hill
#
# Bulk Modulus (GPa) = 27.87327 65.34517 46.60922
# Shear Modulus (GPa) = 14.75446 27.75921 21.25684
#
# Velocity S-wave (km/s) = 2.65534 3.64218 3.18719
# Velocity P-wave (km/s) = 4.76667 6.99388 5.98479
#
# Compressibility (1/GPa) = 0.03587666
#
# Stress axis : x y z
#
# Youngs Moduli (GPa) = 121.96103 22.96577 65.00348
#
# Poissons Ratio (x) = 0.09941 0.15028
# Poissons Ratio (y) = 0.52794 0.58401
# Poissons Ratio (z) = 0.28195 0.20633
#
# Static dielectric constant tensor:
#      x y z
#    x 1.763270 0.000000 -0.006680 
#    y 0.000000 1.798590 0.000000 
#    z -0.006680 0.000000 1.767050 
# 
# From -- ./inp_files/121518.got.cif
#   From: 2010.05.17/outbox.cif.g08.bks.cpg/sg15_61_cif.got.tgz:121518.got - 2010.06.03 18:47:42.
