data_PCOD9272465
_publ_section_title
;
Structure prediction by ZEFSAII (Michael W. Deem and Ramdas Pophale) SiO2 
 PCOD9272465
Probable space group: C 2/C
;
_chemical_formula_sum "Si O2"
_cell_formula_units_Z 64
_cell_length_a 15.687348
_cell_length_b 8.628103
_cell_length_c 23.029482
_cell_angle_alpha 90.000000
_cell_angle_beta 91.159295
_cell_angle_gamma 90.000000
_cell_volume 3116.449661
_symmetry_space_group_name_H-M "C 2/C"
_symmetry_group_IT_number 15
_symmetry_cell_setting 'monoclinic'
loop_
_space_group_symop_operation_xyz
x,y,z
-x,y,1/2-z
-x,-y,-z
x,-y,1/2+z
1/2+x,1/2+y,z
1/2-x,1/2+y,1/2-z
1/2-x,1/2-y,-z
1/2+x,1/2-y,1/2+z
loop_
_atom_site_type_symbol
_atom_site_label
_atom_site_fract_x
_atom_site_fract_y
_atom_site_fract_z
Si Si1 0.658875 0.257661 0.791749
Si Si2 0.825708 0.119428 0.836863
Si Si3 0.967915 0.778903 0.606379
Si Si4 0.052864 0.352545 0.518497
Si Si5 0.991019 0.851189 0.125131
Si Si6 0.268635 0.163567 0.440684
Si Si7 0.187741 0.066614 0.854137
Si Si8 0.641656 0.744657 0.162331
O O1 0.751162 0.173783 0.792332
O O2 0.597750 0.216997 0.845396
O O3 0.675237 0.440440 0.803085
O O4 0.615582 0.234238 0.729303
O O5 0.790357 0.203985 0.894055
O O6 0.925361 0.172366 0.832800
O O7 0.831599 0.935415 0.843779
O O8 0.061642 0.712878 0.621336
O O9 0.936893 0.741222 0.541529
O O10 0.983154 0.963527 0.614152
O O11 0.141193 0.414924 0.545325
O O12 0.000000 0.500000 0.500000
O O13 0.010200 0.243696 0.566804
O O14 0.894638 0.821994 0.145416
O O15 0.250000 0.250000 0.500000
O O16 0.202561 0.042146 0.411914
O O17 0.275265 0.155861 0.848674
#
# Coordination Sequence:
#
# PCOD9272465 Si02
#       8
#     8   8   8   8   8   8   8   8
#     4  10  20  38  58  78 108 148 184 225 278 328
#     4   9  20  36  57  81 109 145 183 224 277 332
#     4  10  21  37  57  80 107 146 189 223 269 334
#     4  11  21  35  55  82 114 144 177 227 280 328
#     4   9  20  37  56  79 112 147 182 222 271 334
#     4  10  20  37  57  79 111 151 183 220 280 340
#     4  10  21  36  57  84 111 143 189 230 269 329
#     4  11  21  36  56  83 110 140 186 239 271 311
#
# _framework density 20.536189
#
# number of rings (size 3 to 8) (size 9 to 14) (size 15 to 20)
#    0.000    2.000    0.000    4.500    0.000    4.000 
#    0.000    3.750    0.000    0.000    0.000    1.750 
#    0.000    0.000    0.000    0.000    0.000    0.000 
#
# Total GULP energy -178362.441431 kJ/mol
# GULP energy per Si atom -5573.826295 kJ/mol
# Density = 2.048945 g / cm^3
# Si number density = 20.536189 Si / 1000 Ang^3
#
#
#
# Elastic Constant Matrix: (Units=GPa)
#
#
# Indices 1 2 3 4 5 6 
#
# 1 121.7446 24.3093 7.7361 0.0000 1.5779 0.0000
# 2 24.3093 26.9431 5.3673 0.0000 -3.1325 0.0000
# 3 7.7361 5.3673 39.8790 0.0000 10.8908 0.0000
# 4 0.0000 0.0000 0.0000 18.4818 0.0000 5.0963
# 5 1.5779 -3.1325 10.8908 0.0000 23.8287 0.0000
# 6 0.0000 0.0000 0.0000 5.0963 0.0000 35.5043
#
#
#
# Elastic Compliance Matrix: (Units=1/GPa)
#
#
# Indices 1 2 3 4 5 6 
#
# 1 0.010104 -0.009280 -0.000223 0.000000 -0.001787 0.000000
# 2 -0.009280 0.048194 -0.007523 0.000000 0.010388 0.000000
# 3 -0.000223 -0.007523 0.030163 0.000000 -0.014760 0.000000
# 4 0.000000 0.000000 0.000000 0.056337 0.000000 -0.008087
# 5 -0.001787 0.010388 -0.014760 0.000000 0.050196 0.000000
# 6 0.000000 0.000000 0.000000 -0.008087 0.000000 0.029326
#
#
# Mechanical properties :
#
#
# Convention : Reuss Voigt Hill
#
# Bulk Modulus (GPa) = 18.37941 29.26578 23.82260
# Shear Modulus (GPa) = 18.08259 25.63991 21.86125
#
# Velocity S-wave (km/s) = 2.97058 3.53728 3.26624
# Velocity P-wave (km/s) = 4.55357 5.56461 5.08428
#
# Compressibility (1/GPa) = 0.05440871
#
# Stress axis : x y z
#
# Youngs Moduli (GPa) = 98.96889 20.74933 33.15374
#
# Poissons Ratio (x) = 0.19255 0.00740
# Poissons Ratio (y) = 0.91841 0.24942
# Poissons Ratio (z) = 0.02209 0.15610
#
# Static dielectric constant tensor:
#      x y z
#    x 1.807870 0.000000 -0.000280 
#    y 0.000000 1.716140 0.000000 
#    z -0.000280 0.000000 1.756370 
# 
# From -- ./inp_files/295184.got.cif
#   From: 2010.05.17/outbox.cif.g08.bks.cpg/sg15_148_cif.got.tgz:295184.got - 2010.06.03 18:47:42.
