data_PCOD9272153
_publ_section_title
;
Structure prediction by ZEFSAII (Michael W. Deem and Ramdas Pophale) SiO2 
 PCOD9272153
Probable space group: C 2/C
;
_chemical_formula_sum "Si O2"
_cell_formula_units_Z 44
_cell_length_a 22.165116
_cell_length_b 9.531765
_cell_length_c 23.161053
_cell_angle_alpha 90.000000
_cell_angle_beta 160.397011
_cell_angle_gamma 90.000000
_cell_volume 1641.704863
_symmetry_space_group_name_H-M "C 2/C"
_symmetry_group_IT_number 15
_symmetry_cell_setting 'monoclinic'
loop_
_space_group_symop_operation_xyz
x,y,z
-x,y,1/2-z
-x,-y,-z
x,-y,1/2+z
1/2+x,1/2+y,z
1/2-x,1/2+y,1/2-z
1/2-x,1/2-y,-z
1/2+x,1/2-y,1/2+z
loop_
_atom_site_type_symbol
_atom_site_label
_atom_site_fract_x
_atom_site_fract_y
_atom_site_fract_z
Si Si1 0.219838 0.697788 0.340551
Si Si2 0.212860 0.113904 0.502645
Si Si3 0.926191 0.024970 0.806462
Si Si4 0.088681 0.459669 0.139711
Si Si5 0.000000 0.610302 0.250000
Si Si6 0.231328 0.742174 0.142285
O O1 0.406952 0.619785 0.522181
O O2 0.082812 0.693724 0.271618
O O3 0.134448 0.600508 0.214691
O O4 0.232063 0.862648 0.340344
O O5 0.250000 0.250000 0.500000
O O6 0.270047 0.161258 0.620011
O O7 0.012177 0.052677 0.328055
O O8 0.336695 0.993003 0.587780
O O9 0.858209 0.887264 0.777944
O O10 0.265083 0.357662 0.303321
O O11 0.941328 0.350089 0.032572
O O12 0.000000 0.500000 0.000000
#
# Coordination Sequence:
#
# PCOD9272153 Si02
#       6
#     8   8   8   8   4   8
#     4  11  24  44  64 107 140 192 231 292 365 416
#     4  11  21  38  70 102 139 187 235 286 359 419
#     4  11  24  43  71  99 152 182 238 297 350 436
#     4  12  26  47  73 101 142 185 240 299 359 427
#     4  10  20  36  64  94 148 174 228 286 342 424
#     4  12  23  48  70 103 137 184 245 295 355 433
#
# _framework density 26.801407000000001
#
# number of rings (size 3 to 8) (size 9 to 14) (size 15 to 20)
#    0.000    0.727    5.455    3.273    0.000    7.273 
#    0.000    2.727    0.000    0.000    0.000    0.000 
#    0.000    0.000    0.000    0.000    0.000    0.000 
#
# Total GULP energy -122925.417436 kJ/mol
# GULP energy per Si atom -5587.518974 kJ/mol
# Density = 2.674041 g / cm^3
# Si number density = 26.801407 Si / 1000 Ang^3
#
#
#
# Elastic Constant Matrix: (Units=GPa)
#
#
# Indices 1 2 3 4 5 6 
#
# 1 60.3627 30.5300 12.9678 0.0019 -12.6655 0.0016
# 2 30.5300 216.9331 23.9876 0.0027 -13.2086 0.0015
# 3 12.9678 23.9876 74.7036 0.0044 -5.7037 0.0023
# 4 0.0019 0.0027 0.0044 57.2850 0.0022 -6.1651
# 5 -12.6655 -13.2086 -5.7037 0.0022 42.0314 0.0012
# 6 0.0016 0.0015 0.0023 -6.1651 0.0012 40.5697
#
#
#
# Elastic Compliance Matrix: (Units=1/GPa)
#
#
# Indices 1 2 3 4 5 6 
#
# 1 0.019146 -0.002152 -0.002267 -0.000001 0.004785 -0.000001
# 2 -0.002152 0.005094 -0.001202 0.000000 0.000789 0.000000
# 3 -0.002267 -0.001202 0.014232 -0.000001 0.000871 -0.000001
# 4 -0.000001 0.000000 -0.000001 0.017747 -0.000001 0.002697
# 5 0.004785 0.000789 0.000871 -0.000001 0.025600 -0.000001
# 6 -0.000001 0.000000 -0.000001 0.002697 -0.000001 0.025059
#
#
# Mechanical properties :
#
#
# Convention : Reuss Voigt Hill
#
# Bulk Modulus (GPa) = 36.72489 54.10780 45.41635
# Shear Modulus (GPa) = 39.30931 46.94481 43.12706
#
# Velocity S-wave (km/s) = 3.83389 4.18973 4.01575
# Velocity P-wave (km/s) = 5.77327 6.60586 6.20355
#
# Compressibility (1/GPa) = 0.02722949
#
# Stress axis : x y z
#
# Youngs Moduli (GPa) = 52.22940 196.32623 70.26371
#
# Poissons Ratio (x) = 0.42259 0.15929
# Poissons Ratio (y) = 0.11242 0.08443
# Poissons Ratio (z) = 0.11841 0.23592
#
# Static dielectric constant tensor:
#      x y z
#    x 2.233620 0.000000 0.123770 
#    y 0.000000 2.074910 -0.000010 
#    z 0.123770 -0.000010 2.337620 
# 
# From -- ./inp_files/303167.got.cif
#   From: 2010.05.17/outbox.cif.g08.bks.cpg/sg15_152_cif.got.tgz:303167.got - 2010.06.03 18:47:42.
