data_PCOD9272875
_publ_section_title
;
Structure prediction by ZEFSAII (Michael W. Deem and Ramdas Pophale) SiO2 
 PCOD9272875
Probable space group: C 2/C
;
_chemical_formula_sum "Si O2"
_cell_formula_units_Z 64
_cell_length_a 12.243702
_cell_length_b 22.313108
_cell_length_c 11.811146
_cell_angle_alpha 90.000000
_cell_angle_beta 80.409878
_cell_angle_gamma 90.000000
_cell_volume 3181.652051
_symmetry_space_group_name_H-M "C 2/C"
_symmetry_group_IT_number 15
_symmetry_cell_setting 'monoclinic'
loop_
_space_group_symop_operation_xyz
x,y,z
-x,y,1/2-z
-x,-y,-z
x,-y,1/2+z
1/2+x,1/2+y,z
1/2-x,1/2+y,1/2-z
1/2-x,1/2-y,-z
1/2+x,1/2-y,1/2+z
loop_
_atom_site_type_symbol
_atom_site_label
_atom_site_fract_x
_atom_site_fract_y
_atom_site_fract_z
Si Si1 0.291427 0.839692 0.401610
Si Si2 0.033734 0.325789 0.440749
Si Si3 0.733008 0.051533 0.265769
Si Si4 0.884926 0.337335 0.822926
Si Si5 0.114760 0.564410 0.771808
Si Si6 0.121348 0.136190 0.111170
Si Si7 0.538109 0.468407 0.874313
Si Si8 0.827531 0.764553 0.718768
O O1 0.400187 0.825683 0.459443
O O2 0.314974 0.904151 0.340168
O O3 0.178769 0.838042 0.490260
O O4 0.289293 0.790201 0.304436
O O5 0.087234 0.339852 0.550681
O O6 0.074013 0.379877 0.353532
O O7 0.083701 0.264258 0.382011
O O8 0.647519 0.098358 0.225217
O O9 0.792517 0.086201 0.357233
O O10 0.829803 0.035715 0.159253
O O11 0.681972 0.989201 0.315176
O O12 0.779190 0.294974 0.819525
O O13 0.000000 0.314629 0.750000
O O14 0.000000 0.536069 0.750000
O O15 0.120377 0.186510 0.206782
O O16 0.010412 0.099064 0.110680
O O17 0.500000 0.490045 0.750000
O O18 0.500000 0.500000 0.000000
#
# Coordination Sequence:
#
# PCOD9272875 Si02
#       8
#     8   8   8   8   8   8   8   8
#     4  10  20  37  61  85 112 148 191 240 286 343
#     4  10  21  37  60  85 114 148 190 243 293 346
#     4  10  21  37  57  83 119 156 189 235 291 355
#     4  11  23  39  57  85 117 150 190 240 296 348
#     4   9  19  34  55  85 114 148 188 228 283 345
#     4  10  21  37  59  86 112 151 196 239 290 348
#     4  10  22  39  60  87 120 160 202 246 296 358
#     4  10  21  38  59  84 113 151 193 239 293 353
#
# _framework density 20.115335000000002
#
# number of rings (size 3 to 8) (size 9 to 14) (size 15 to 20)
#    0.000    2.000    0.000    4.500    0.000    8.000 
#    0.000    4.375    0.000    9.000    0.000    0.000 
#    0.000    0.000    0.000    0.000    0.000    0.000 
#
# Total GULP energy -178532.434009 kJ/mol
# GULP energy per Si atom -5579.138563 kJ/mol
# Density = 2.006955 g / cm^3
# Si number density = 20.115335 Si / 1000 Ang^3
#
#
#
# Elastic Constant Matrix: (Units=GPa)
#
#
# Indices 1 2 3 4 5 6 
#
# 1 37.7553 3.0415 -3.2392 0.0000 -5.9433 0.0000
# 2 3.0415 59.4357 -15.3407 0.0000 -1.8426 0.0000
# 3 -3.2392 -15.3407 44.9205 0.0000 -0.1270 0.0000
# 4 0.0000 0.0000 0.0000 19.3537 0.0000 -3.5837
# 5 -5.9433 -1.8426 -0.1270 0.0000 27.2943 0.0000
# 6 0.0000 0.0000 0.0000 -3.5837 0.0000 27.9059
#
#
#
# Elastic Compliance Matrix: (Units=1/GPa)
#
#
# Indices 1 2 3 4 5 6 
#
# 1 0.027639 -0.000779 0.001744 0.000000 0.005974 0.000000
# 2 -0.000779 0.018518 0.006271 0.000000 0.001110 0.000000
# 3 0.001744 0.006271 0.024531 0.000000 0.000917 0.000000
# 4 0.000000 0.000000 0.000000 0.052928 0.000000 0.006797
# 5 0.005974 0.001110 0.000917 0.000000 0.038018 0.000000
# 6 0.000000 0.000000 0.000000 0.006797 0.000000 0.036708
#
#
# Mechanical properties :
#
#
# Convention : Reuss Voigt Hill
#
# Bulk Modulus (GPa) = 11.74262 12.33717 12.03989
# Shear Modulus (GPa) = 23.55636 25.42079 24.48858
#
# Velocity S-wave (km/s) = 3.42580 3.55879 3.49292
# Velocity P-wave (km/s) = 4.63664 4.79928 4.71866
#
# Compressibility (1/GPa) = 0.08515990
#
# Stress axis : x y z
#
# Youngs Moduli (GPa) = 36.18055 54.00230 40.76394
#
# Poissons Ratio (x) = 0.04207 -0.07109
# Poissons Ratio (y) = 0.02819 -0.25563
# Poissons Ratio (z) = -0.06310 -0.33864
#
# Static dielectric constant tensor:
#      x y z
#    x 1.719980 0.000000 -0.011020 
#    y 0.000000 1.713750 0.000000 
#    z -0.011020 0.000000 1.634780 
# 
# From -- ./inp_files/91266.got.cif
#   From: 2010.05.17/outbox.cif.g08.bks.cpg/sg15_46_cif.got.tgz:91266.got - 2010.06.03 18:47:42.
