data_PCOD9272297
_publ_section_title
;
Structure prediction by ZEFSAII (Michael W. Deem and Ramdas Pophale) SiO2 
 PCOD9272297
Probable space group: C 2/C
;
_chemical_formula_sum "Si O2"
_cell_formula_units_Z 52
_cell_length_a 10.455326
_cell_length_b 17.395165
_cell_length_c 24.974203
_cell_angle_alpha 90.000000
_cell_angle_beta 143.303759
_cell_angle_gamma 90.000000
_cell_volume 2714.240984
_symmetry_space_group_name_H-M "C 2/C"
_symmetry_group_IT_number 15
_symmetry_cell_setting 'monoclinic'
loop_
_space_group_symop_operation_xyz
x,y,z
-x,y,1/2-z
-x,-y,-z
x,-y,1/2+z
1/2+x,1/2+y,z
1/2-x,1/2+y,1/2-z
1/2-x,1/2-y,-z
1/2+x,1/2-y,1/2+z
loop_
_atom_site_type_symbol
_atom_site_label
_atom_site_fract_x
_atom_site_fract_y
_atom_site_fract_z
Si Si1 0.500000 0.597009 0.250000
Si Si2 0.531767 0.873340 0.594316
Si Si3 0.511104 0.555719 0.453007
Si Si4 0.882710 0.974048 0.301653
Si Si5 0.263636 0.653686 0.601459
Si Si6 0.994879 0.447390 0.399910
Si Si7 0.644007 0.828304 0.848379
O O1 0.717794 0.644303 0.329381
O O2 0.464142 0.540389 0.288253
O O3 0.381125 0.835271 0.499868
O O4 0.459125 0.853710 0.629897
O O5 0.508499 0.965474 0.578506
O O6 0.500000 0.500000 0.500000
O O7 0.409381 0.509473 0.369033
O O8 0.371647 0.630599 0.418197
O O9 0.758847 0.574189 0.524765
O O10 0.645157 0.952634 0.201537
O O11 0.036135 0.900738 0.345708
O O12 0.126895 0.608603 0.600292
O O13 0.334780 0.736712 0.645047
O O14 0.500000 0.853637 0.750000
#
# Coordination Sequence:
#
# PCOD9272297 Si02
#       7
#     4   8   8   8   8   8   8
#     4  10  20  36  68 100 114 160 226 270 308 364
#     4  11  21  40  65  94 125 166 214 266 312 383
#     4  12  25  40  61  93 130 172 212 258 322 384
#     4  11  20  38  66  93 124 162 219 268 308 379
#     4  12  22  41  67  96 125 165 215 267 323 374
#     4  11  21  39  66  94 123 165 217 265 306 376
#     4  12  26  42  61  94 135 169 202 260 334 387
#
# _framework density 19.15821
#
# number of rings (size 3 to 8) (size 9 to 14) (size 15 to 20)
#    0.000    0.615    6.154    4.615    0.000    0.615 
#    0.000    1.538    0.000    0.000    0.000    0.000 
#    0.000    0.000    0.000    0.000    0.000    0.000 
#
# Total GULP energy -145387.241180 kJ/mol
# GULP energy per Si atom -5591.816968 kJ/mol
# Density = 1.911461 g / cm^3
# Si number density = 19.158210 Si / 1000 Ang^3
#
#
#
# Elastic Constant Matrix: (Units=GPa)
#
#
# Indices 1 2 3 4 5 6 
#
# 1 56.3696 15.0644 36.9067 0.0000 -11.4043 0.0000
# 2 15.0644 62.1866 4.0167 0.0000 1.7488 0.0000
# 3 36.9067 4.0167 136.5472 0.0001 -2.4469 0.0000
# 4 0.0000 0.0000 0.0001 20.0043 0.0001 -0.7286
# 5 -11.4043 1.7488 -2.4469 0.0001 51.3518 0.0000
# 6 0.0000 0.0000 0.0000 -0.7286 0.0000 18.7771
#
#
#
# Elastic Compliance Matrix: (Units=1/GPa)
#
#
# Indices 1 2 3 4 5 6 
#
# 1 0.024498 -0.005674 -0.006359 0.000000 0.005331 0.000000
# 2 -0.005674 0.017442 0.000988 0.000000 -0.001807 0.000000
# 3 -0.006359 0.000988 0.008995 0.000000 -0.001017 0.000000
# 4 0.000000 0.000000 0.000000 0.050060 0.000000 0.001942
# 5 0.005331 -0.001807 -0.001017 0.000000 0.020670 0.000000
# 6 0.000000 0.000000 0.000000 0.001942 0.000000 0.053332
#
#
# Mechanical properties :
#
#
# Convention : Reuss Voigt Hill
#
# Bulk Modulus (GPa) = 34.66716 40.78656 37.72686
# Shear Modulus (GPa) = 24.18934 31.30099 27.74517
#
# Velocity S-wave (km/s) = 3.55718 4.04643 3.80967
# Velocity P-wave (km/s) = 5.91657 6.57016 6.25192
#
# Compressibility (1/GPa) = 0.02884574
#
# Stress axis : x y z
#
# Youngs Moduli (GPa) = 40.81913 57.33264 111.17344
#
# Poissons Ratio (x) = 0.32529 0.70696
# Poissons Ratio (y) = 0.23160 -0.10985
# Poissons Ratio (z) = 0.25957 -0.05665
#
# Static dielectric constant tensor:
#      x y z
#    x 1.664960 0.000000 0.020870 
#    y 0.000000 1.634340 0.000000 
#    z 0.020870 0.000000 1.729470 
# 
# From -- ./inp_files/182844.got.cif
#   From: 2010.05.17/outbox.cif.g08.bks.cpg/sg15_92_cif.got.tgz:182844.got - 2010.06.03 18:47:42.
