data_PCOD9272412
_publ_section_title
;
Structure prediction by ZEFSAII (Michael W. Deem and Ramdas Pophale) SiO2 
 PCOD9272412
Probable space group: C 2/C
;
_chemical_formula_sum "Si O2"
_cell_formula_units_Z 40
_cell_length_a 24.454608
_cell_length_b 5.079945
_cell_length_c 25.294457
_cell_angle_alpha 90.000000
_cell_angle_beta 135.663986
_cell_angle_gamma 90.000000
_cell_volume 2196.030517
_symmetry_space_group_name_H-M "C 2/C"
_symmetry_group_IT_number 15
_symmetry_cell_setting 'monoclinic'
loop_
_space_group_symop_operation_xyz
x,y,z
-x,y,1/2-z
-x,-y,-z
x,-y,1/2+z
1/2+x,1/2+y,z
1/2-x,1/2+y,1/2-z
1/2-x,1/2-y,-z
1/2+x,1/2-y,1/2+z
loop_
_atom_site_type_symbol
_atom_site_label
_atom_site_fract_x
_atom_site_fract_y
_atom_site_fract_z
Si Si1 0.241082 0.340049 0.053429
Si Si2 0.397055 0.063581 0.484547
Si Si3 0.739234 0.830573 0.372865
Si Si4 0.203994 0.098829 0.236413
Si Si5 0.549122 0.694743 0.071516
O O1 0.278884 0.621781 0.093101
O O2 0.275075 0.122143 0.116955
O O3 0.250000 0.250000 0.000000
O O4 0.149972 0.383450 0.006598
O O5 0.333355 0.292806 0.429844
O O6 0.481561 0.167500 0.559675
O O7 0.411739 0.908034 0.440400
O O8 0.701923 0.725008 0.293345
O O9 0.251398 0.319986 0.235399
O O10 0.117827 0.067730 0.152762
O O11 0.500000 0.500000 0.000000
#
# Coordination Sequence:
#
# PCOD9272412 Si02
#       5
#     8   8   8   8   8
#     4  10  20  37  61  84 109 149 201 250 284 337
#     4   9  20  34  53  87 112 151 190 234 288 356
#     4  10  20  37  55  89 111 145 200 237 290 347
#     4  12  22  36  56  85 123 155 187 240 298 363
#     4  11  21  35  56  86 125 154 190 234 302 365
#
# _framework density 18.214683000000001
#
# number of rings (size 3 to 8) (size 9 to 14) (size 15 to 20)
#    1.200    0.400    2.000    5.400    2.800    0.000 
#    0.000    0.000    0.000    1.200    0.000    0.000 
#    0.000    0.000    0.000    0.000    0.000    0.000 
#
# Total GULP energy -111432.560510 kJ/mol
# GULP energy per Si atom -5571.628026 kJ/mol
# Density = 1.817323 g / cm^3
# Si number density = 18.214683 Si / 1000 Ang^3
#
#
#
# Elastic Constant Matrix: (Units=GPa)
#
#
# Indices 1 2 3 4 5 6 
#
# 1 63.2461 7.0079 30.9159 -0.0028 -3.9467 -0.0124
# 2 7.0079 62.7040 0.6310 0.0154 7.3096 0.0138
# 3 30.9159 0.6310 91.9722 0.0045 11.6175 0.0074
# 4 -0.0028 0.0154 0.0045 20.1276 0.0002 -4.9378
# 5 -3.9467 7.3096 11.6175 0.0002 27.2560 0.0034
# 6 -0.0124 0.0138 0.0074 -4.9378 0.0034 24.3820
#
#
#
# Elastic Compliance Matrix: (Units=1/GPa)
#
#
# Indices 1 2 3 4 5 6 
#
# 1 0.020355 -0.003018 -0.007711 0.000011 0.007044 0.000016
# 2 -0.003018 0.016929 0.001614 -0.000017 -0.005665 -0.000014
# 3 -0.007711 0.001614 0.014426 -0.000008 -0.007698 -0.000010
# 4 0.000011 -0.000017 -0.000008 0.052280 0.000008 0.010588
# 5 0.007044 -0.005665 -0.007698 0.000008 0.042510 0.000005
# 6 0.000016 -0.000014 -0.000010 0.010588 0.000005 0.043158
#
#
# Mechanical properties :
#
#
# Convention : Reuss Voigt Hill
#
# Bulk Modulus (GPa) = 29.86902 32.78133 31.32517
# Shear Modulus (GPa) = 22.82594 26.31094 24.56844
#
# Velocity S-wave (km/s) = 3.54384 3.80477 3.67662
# Velocity P-wave (km/s) = 5.76012 6.11048 5.93789
#
# Compressibility (1/GPa) = 0.03347950
#
# Stress axis : x y z
#
# Youngs Moduli (GPa) = 49.12909 59.06867 69.31825
#
# Poissons Ratio (x) = 0.17829 0.53452
# Poissons Ratio (y) = 0.14829 -0.11188
# Poissons Ratio (z) = 0.37884 -0.09534
#
# Static dielectric constant tensor:
#      x y z
#    x 1.632710 -0.000020 0.004330 
#    y -0.000020 1.695780 0.000020 
#    z 0.004330 0.000020 1.619280 
# 
# From -- ./inp_files/251149.got.cif
#   From: 2010.05.17/outbox.cif.g08.bks.cpg/sg15_126_cif.got.tgz:251149.got - 2010.06.03 18:47:42.
