data_PCOD9272087
_publ_section_title
;
Structure prediction by ZEFSAII (Michael W. Deem and Ramdas Pophale) SiO2 
 PCOD9272087
Probable space group: C 2/C
;
_chemical_formula_sum "Si O2"
_cell_formula_units_Z 40
_cell_length_a 19.803976
_cell_length_b 17.688328
_cell_length_c 7.715417
_cell_angle_alpha 90.000000
_cell_angle_beta 140.032413
_cell_angle_gamma 90.000000
_cell_volume 1736.093491
_symmetry_space_group_name_H-M "C 2/C"
_symmetry_group_IT_number 15
_symmetry_cell_setting 'monoclinic'
loop_
_space_group_symop_operation_xyz
x,y,z
-x,y,1/2-z
-x,-y,-z
x,-y,1/2+z
1/2+x,1/2+y,z
1/2-x,1/2+y,1/2-z
1/2-x,1/2-y,-z
1/2+x,1/2-y,1/2+z
loop_
_atom_site_type_symbol
_atom_site_label
_atom_site_fract_x
_atom_site_fract_y
_atom_site_fract_z
Si Si1 0.855771 0.159415 0.203559
Si Si2 0.045192 0.080088 0.649292
Si Si3 0.744282 0.999823 0.923560
Si Si4 0.216860 0.731475 0.634015
Si Si5 0.387525 0.073681 0.108390
O O1 0.834108 0.204789 0.340087
O O2 0.979716 0.143120 0.419281
O O3 0.810032 0.201883 0.944748
O O4 0.793307 0.078807 0.093535
O O5 0.000000 0.090309 0.750000
O O6 0.168807 0.066246 0.895481
O O7 0.000000 0.000000 0.500000
O O8 0.630931 0.962105 0.741847
O O9 0.714724 0.030233 0.673241
O O10 0.250000 0.750000 0.500000
O O11 0.136371 0.661785 0.456796
O O12 0.500000 0.059287 0.250000
#
# Coordination Sequence:
#
# PCOD9272087 Si02
#       5
#     8   8   8   8   8
#     4   9  21  43  68 100 145 174 230 292 346 425
#     4  10  20  36  64 101 139 173 221 286 359 417
#     4  10  21  40  69  98 131 174 223 294 352 407
#     4  10  23  43  71  97 138 192 229 280 354 427
#     4  11  24  42  66  96 131 178 238 285 350 419
#
# _framework density 23.040234000000002
#
# number of rings (size 3 to 8) (size 9 to 14) (size 15 to 20)
#    0.000    2.000    0.000    3.000    5.600    0.800 
#    0.000    0.000    8.800    0.000    0.000    0.000 
#    0.000    0.000    0.000    0.000    0.000    0.000 
#
# Total GULP energy -111347.745404 kJ/mol
# GULP energy per Si atom -5567.387270 kJ/mol
# Density = 2.298779 g / cm^3
# Si number density = 23.040234 Si / 1000 Ang^3
#
#
#
# Elastic Constant Matrix: (Units=GPa)
#
#
# Indices 1 2 3 4 5 6 
#
# 1 152.6566 53.9773 68.4385 0.0000 14.1144 0.0000
# 2 53.9773 105.7704 57.8813 0.0000 3.7139 0.0000
# 3 68.4385 57.8813 96.3269 0.0000 9.8803 0.0000
# 4 0.0000 0.0000 0.0000 37.1730 0.0000 8.3088
# 5 14.1144 3.7139 9.8803 0.0000 40.2812 0.0000
# 6 0.0000 0.0000 0.0000 8.3088 0.0000 33.9625
#
#
#
# Elastic Compliance Matrix: (Units=1/GPa)
#
#
# Indices 1 2 3 4 5 6 
#
# 1 0.009973 -0.001865 -0.005769 0.000000 -0.001907 0.000000
# 2 -0.001865 0.014460 -0.007482 0.000000 0.001156 0.000000
# 3 -0.005769 -0.007482 0.019180 0.000000 -0.001993 0.000000
# 4 0.000000 0.000000 0.000000 0.028457 0.000000 -0.006962
# 5 -0.001907 0.001156 -0.001993 0.000000 0.025876 0.000000
# 6 0.000000 0.000000 0.000000 -0.006962 0.000000 0.031147
#
#
# Mechanical properties :
#
#
# Convention : Reuss Voigt Hill
#
# Bulk Modulus (GPa) = 74.73569 79.48314 77.10941
# Shear Modulus (GPa) = 30.52719 33.91378 32.22048
#
# Velocity S-wave (km/s) = 3.64394 3.84075 3.74363
# Velocity P-wave (km/s) = 7.08603 7.36484 7.22678
#
# Compressibility (1/GPa) = 0.01338049
#
# Stress axis : x y z
#
# Youngs Moduli (GPa) = 100.27107 69.15451 52.13631
#
# Poissons Ratio (x) = 0.12901 0.30078
# Poissons Ratio (y) = 0.18705 0.39009
# Poissons Ratio (z) = 0.57847 0.51743
#
# Static dielectric constant tensor:
#      x y z
#    x 1.999200 0.000000 -0.197650 
#    y 0.000000 2.184120 0.000000 
#    z -0.197650 0.000000 2.003100 
# 
# From -- ./inp_files/56853.got.cif
#   From: 2010.05.17/outbox.cif.g08.bks.cpg/sg15_29_cif.got.tgz:56853.got - 2010.06.03 18:47:42.
