data_PCOD9272490
_publ_section_title
;
Structure prediction by ZEFSAII (Michael W. Deem and Ramdas Pophale) SiO2 
 PCOD9272490
Probable space group: C 2/C
;
_chemical_formula_sum "Si O2"
_cell_formula_units_Z 40
_cell_length_a 13.904707
_cell_length_b 20.918855
_cell_length_c 13.372976
_cell_angle_alpha 90.000000
_cell_angle_beta 146.188534
_cell_angle_gamma 90.000000
_cell_volume 2164.528215
_symmetry_space_group_name_H-M "C 2/C"
_symmetry_group_IT_number 15
_symmetry_cell_setting 'monoclinic'
loop_
_space_group_symop_operation_xyz
x,y,z
-x,y,1/2-z
-x,-y,-z
x,-y,1/2+z
1/2+x,1/2+y,z
1/2-x,1/2+y,1/2-z
1/2-x,1/2-y,-z
1/2+x,1/2-y,1/2+z
loop_
_atom_site_type_symbol
_atom_site_label
_atom_site_fract_x
_atom_site_fract_y
_atom_site_fract_z
Si Si1 0.099423 0.468902 0.234930
Si Si2 0.082704 0.161351 0.718940
Si Si3 0.466150 0.570518 0.013240
Si Si4 0.025320 0.306712 0.888223
Si Si5 0.157368 0.408442 0.641459
O O1 0.284235 0.435140 0.412942
O O2 0.131129 0.533201 0.197800
O O3 0.000000 0.485062 0.250000
O O4 0.976878 0.423280 0.062609
O O5 0.056924 0.116129 0.602496
O O6 0.000000 0.134569 0.750000
O O7 0.996455 0.230407 0.625025
O O8 0.284221 0.173026 0.913605
O O9 0.643134 0.590688 0.220265
O O10 0.500000 0.500000 0.000000
O O11 0.000000 0.324207 0.750000
O O12 0.890721 0.344084 0.841374
#
# Coordination Sequence:
#
# PCOD9272490 Si02
#       5
#     8   8   8   8   8
#     4  10  21  37  58  82 115 156 196 237 286 339
#     4  11  21  35  57  90 120 154 191 238 297 356
#     4  10  21  39  54  84 117 153 195 233 287 344
#     4  11  20  34  58  90 121 153 188 237 301 358
#     4  10  20  37  57  85 117 148 192 241 290 344
#
# _framework density 18.479778
#
# number of rings (size 3 to 8) (size 9 to 14) (size 15 to 20)
#    0.000    1.600    2.000    5.400    0.000    2.400 
#    0.000    0.000    0.000    1.200    0.000    0.000 
#    0.000    0.000    0.000    0.000    0.000    0.000 
#
# Total GULP energy -111677.442636 kJ/mol
# GULP energy per Si atom -5583.872132 kJ/mol
# Density = 1.843772 g / cm^3
# Si number density = 18.479778 Si / 1000 Ang^3
#
#
#
# Elastic Constant Matrix: (Units=GPa)
#
#
# Indices 1 2 3 4 5 6 
#
# 1 63.2809 -1.0868 32.3370 0.0000 24.8621 0.0000
# 2 -1.0868 39.8871 14.8005 0.0000 -3.8829 0.0000
# 3 32.3370 14.8005 96.3671 0.0000 31.9582 0.0000
# 4 0.0000 0.0000 0.0000 25.9478 0.0000 3.9015
# 5 24.8621 -3.8829 31.9582 0.0000 33.9813 0.0000
# 6 0.0000 0.0000 0.0000 3.9015 0.0000 15.8325
#
#
#
# Elastic Compliance Matrix: (Units=1/GPa)
#
#
# Indices 1 2 3 4 5 6 
#
# 1 0.022797 0.000490 -0.003215 0.000000 -0.013600 0.000000
# 2 0.000490 0.029158 -0.008180 0.000000 0.010666 0.000000
# 3 -0.003215 -0.008180 0.017791 0.000000 -0.015314 0.000000
# 4 0.000000 0.000000 0.000000 0.040022 0.000000 -0.009862
# 5 -0.013600 0.010666 -0.015314 0.000000 0.054999 0.000000
# 6 0.000000 0.000000 0.000000 -0.009862 0.000000 0.065591
#
#
# Mechanical properties :
#
#
# Convention : Reuss Voigt Hill
#
# Bulk Modulus (GPa) = 20.86109 32.40403 26.63256
# Shear Modulus (GPa) = 18.64664 25.38462 22.01563
#
# Velocity S-wave (km/s) = 3.17997 3.71029 3.45532
# Velocity P-wave (km/s) = 4.97956 5.99399 5.51017
#
# Compressibility (1/GPa) = 0.04793614
#
# Stress axis : x y z
#
# Youngs Moduli (GPa) = 43.86561 34.29640 56.20935
#
# Poissons Ratio (x) = -0.01681 0.18071
# Poissons Ratio (y) = -0.02151 0.45978
# Poissons Ratio (z) = 0.14103 0.28054
#
# Static dielectric constant tensor:
#      x y z
#    x 1.623490 0.000000 0.033450 
#    y 0.000000 1.615320 0.000000 
#    z 0.033450 0.000000 1.649810 
# 
# From -- ./inp_files/30527.got.cif
#   From: 2010.05.17/outbox.cif.g08.bks.cpg/sg15_16_cif.got.tgz:30527.got - 2010.06.03 18:47:42.
