data_PCOD9272977
_publ_section_title
;
Structure prediction by ZEFSAII (Michael W. Deem and Ramdas Pophale) SiO2 
 PCOD9272977
Probable space group: C 2/C
;
_chemical_formula_sum "Si O2"
_cell_formula_units_Z 60
_cell_length_a 22.524645
_cell_length_b 11.320489
_cell_length_c 11.772096
_cell_angle_alpha 90.000000
_cell_angle_beta 101.739266
_cell_angle_gamma 90.000000
_cell_volume 2938.980577
_symmetry_space_group_name_H-M "C 2/C"
_symmetry_group_IT_number 15
_symmetry_cell_setting 'monoclinic'
loop_
_space_group_symop_operation_xyz
x,y,z
-x,y,1/2-z
-x,-y,-z
x,-y,1/2+z
1/2+x,1/2+y,z
1/2-x,1/2+y,1/2-z
1/2-x,1/2-y,-z
1/2+x,1/2-y,1/2+z
loop_
_atom_site_type_symbol
_atom_site_label
_atom_site_fract_x
_atom_site_fract_y
_atom_site_fract_z
Si Si1 0.884612 0.222742 0.813074
Si Si2 0.811046 0.357713 0.127803
Si Si3 0.312992 0.827761 0.391627
Si Si4 0.583846 0.018550 0.096370
Si Si5 0.682060 0.367443 0.431724
Si Si6 0.674678 0.378437 0.993605
Si Si7 0.500000 0.771430 0.750000
Si Si8 0.931117 0.495230 0.656149
O O1 0.883305 0.359300 0.854038
O O2 0.847105 0.203254 0.683863
O O3 0.857699 0.140073 0.898986
O O4 0.955388 0.200699 0.813401
O O5 0.797381 0.325405 0.252753
O O6 0.747225 0.383783 0.043317
O O7 0.860192 0.462798 0.137831
O O8 0.838212 0.239365 0.082782
O O9 0.328455 0.703274 0.455705
O O10 0.253904 0.871916 0.435517
O O11 0.368824 0.917388 0.418314
O O12 0.551455 0.977680 0.202697
O O13 0.552222 0.045514 0.962813
O O14 0.656864 0.499503 0.428404
O O15 0.454431 0.858949 0.662973
#
# Coordination Sequence:
#
# PCOD9272977 Si02
#       8
#     8   8   8   8   8   8   4   8
#     4  11  23  43  63  95 123 176 219 273 330 396
#     4  10  21  38  61  94 134 172 218 262 342 391
#     4  10  21  35  58  95 130 174 203 273 318 403
#     4  10  20  38  63  91 135 159 217 262 341 379
#     4  11  24  37  59  93 133 169 226 253 333 395
#     4  11  23  39  62  93 133 178 212 270 328 406
#     4  10  24  42  72  92 134 170 232 274 334 378
#     4  10  20  37  61  97 125 174 206 278 319 395
#
# _framework density 20.415241999999999
#
# number of rings (size 3 to 8) (size 9 to 14) (size 15 to 20)
#    0.000    1.600    2.667    2.400    3.733    6.400 
#    0.000    0.667    0.000    0.800    0.000    0.000 
#    0.000    0.000    0.000    0.000    0.000    0.000 
#
# Total GULP energy -167121.760455 kJ/mol
# GULP energy per Si atom -5570.725349 kJ/mol
# Density = 2.036878 g / cm^3
# Si number density = 20.415242 Si / 1000 Ang^3
#
#
#
# Elastic Constant Matrix: (Units=GPa)
#
#
# Indices 1 2 3 4 5 6 
#
# 1 66.4629 29.6799 6.2150 0.0000 -13.7798 0.0000
# 2 29.6799 67.9561 32.5271 0.0000 -3.0289 0.0000
# 3 6.2150 32.5271 106.0375 0.0000 -6.4475 0.0000
# 4 0.0000 0.0000 0.0000 26.9639 0.0000 -4.0459
# 5 -13.7798 -3.0289 -6.4475 0.0000 36.9492 0.0000
# 6 0.0000 0.0000 0.0000 -4.0459 0.0000 26.5932
#
#
#
# Elastic Compliance Matrix: (Units=1/GPa)
#
#
# Indices 1 2 3 4 5 6 
#
# 1 0.020729 -0.009797 0.002235 0.000000 0.007318 0.000000
# 2 -0.009797 0.021887 -0.006320 0.000000 -0.002962 0.000000
# 3 0.002235 -0.006320 0.011378 0.000000 0.002301 0.000000
# 4 0.000000 0.000000 0.000000 0.037953 0.000000 0.005774
# 5 0.007318 -0.002962 0.002301 0.000000 0.029952 0.000000
# 6 0.000000 0.000000 0.000000 0.005774 0.000000 0.038482
#
#
# Mechanical properties :
#
#
# Convention : Reuss Voigt Hill
#
# Bulk Modulus (GPa) = 38.12275 41.92226 40.02251
# Shear Modulus (GPa) = 25.39504 29.57025 27.48265
#
# Velocity S-wave (km/s) = 3.53076 3.80997 3.67302
# Velocity P-wave (km/s) = 5.94440 6.31932 6.13473
#
# Compressibility (1/GPa) = 0.02623105
#
# Stress axis : x y z
#
# Youngs Moduli (GPa) = 48.24104 45.68865 87.88784
#
# Poissons Ratio (x) = 0.44762 -0.19646
# Poissons Ratio (y) = 0.47263 0.55544
# Poissons Ratio (z) = -0.10783 0.28874
#
# Static dielectric constant tensor:
#      x y z
#    x 1.805510 0.000000 0.007990 
#    y 0.000000 1.701700 0.000000 
#    z 0.007990 0.000000 1.784420 
# 
# From -- ./inp_files/122477.got.cif
#   From: 2010.05.17/outbox.cif.g08.bks.cpg/sg15_62_cif.got.tgz:122477.got - 2010.06.03 18:47:42.
