data_PCOD9272890
_publ_section_title
;
Structure prediction by ZEFSAII (Michael W. Deem and Ramdas Pophale) SiO2 
 PCOD9272890
Probable space group: C 2/C
;
_chemical_formula_sum "Si O2"
_cell_formula_units_Z 60
_cell_length_a 11.758697
_cell_length_b 19.356342
_cell_length_c 29.436650
_cell_angle_alpha 90.000000
_cell_angle_beta 150.749929
_cell_angle_gamma 90.000000
_cell_volume 3273.739921
_symmetry_space_group_name_H-M "C 2/C"
_symmetry_group_IT_number 15
_symmetry_cell_setting 'monoclinic'
loop_
_space_group_symop_operation_xyz
x,y,z
-x,y,1/2-z
-x,-y,-z
x,-y,1/2+z
1/2+x,1/2+y,z
1/2-x,1/2+y,1/2-z
1/2-x,1/2-y,-z
1/2+x,1/2-y,1/2+z
loop_
_atom_site_type_symbol
_atom_site_label
_atom_site_fract_x
_atom_site_fract_y
_atom_site_fract_z
Si Si1 0.826147 0.500116 0.297711
Si Si2 0.263072 0.338593 0.757911
Si Si3 0.307096 0.676703 0.143222
Si Si4 0.979812 0.236532 0.897549
Si Si5 0.264872 0.501192 0.388926
Si Si6 0.999005 0.459571 0.952462
Si Si7 0.500000 0.125432 0.250000
Si Si8 0.532297 0.576902 0.626392
O O1 0.769396 0.580455 0.266255
O O2 0.623482 0.453898 0.205714
O O3 0.056783 0.478656 0.349875
O O4 0.872196 0.499550 0.367400
O O5 0.534422 0.320776 0.846183
O O6 0.115813 0.290720 0.672707
O O7 0.155594 0.331231 0.769953
O O8 0.500000 0.665637 0.250000
O O9 0.165655 0.744834 0.107748
O O10 0.134212 0.612336 0.085157
O O11 0.942869 0.158826 0.868596
O O12 0.250000 0.250000 0.000000
O O13 0.500000 0.500000 0.500000
O O14 0.175137 0.575272 0.339014
O O15 0.318046 0.456945 0.362308
O O16 0.261327 0.443515 0.027330
O O17 0.000000 0.500000 0.000000
#
# Coordination Sequence:
#
# PCOD9272890 Si02
#       8
#     8   8   8   8   8   8   4   8
#     4  11  21  40  59  92 131 159 217 270 318 381
#     4  10  20  39  65  85 119 169 211 253 320 379
#     4  10  20  37  61  87 117 162 218 254 304 379
#     4  11  22  39  63  92 127 169 219 260 315 388
#     4  11  21  34  62  95 125 157 209 266 329 370
#     4  12  24  36  62  93 128 173 207 268 319 380
#     4  10  22  40  62  92 126 164 202 268 324 394
#     4  12  23  39  65  96 129 167 215 273 325 375
#
# _framework density 18.327662
#
# number of rings (size 3 to 8) (size 9 to 14) (size 15 to 20)
#    0.000    1.067    8.000    0.800    1.867    3.200 
#    0.000    1.333    0.000    0.800    0.000    0.000 
#    0.000    0.000    0.000    0.000    0.000    0.000 
#
# Total GULP energy -167409.366042 kJ/mol
# GULP energy per Si atom -5580.312201 kJ/mol
# Density = 1.828595 g / cm^3
# Si number density = 18.327662 Si / 1000 Ang^3
#
#
#
# Elastic Constant Matrix: (Units=GPa)
#
#
# Indices 1 2 3 4 5 6 
#
# 1 127.1285 33.7346 27.2344 0.0003 3.1683 0.0001
# 2 33.7346 98.0055 31.4972 0.0001 -1.6292 0.0000
# 3 27.2344 31.4972 90.9240 0.0010 1.0576 0.0003
# 4 0.0003 0.0001 0.0010 30.0660 0.0003 4.6213
# 5 3.1683 -1.6292 1.0576 0.0003 34.9153 0.0000
# 6 0.0001 0.0000 0.0003 4.6213 0.0000 25.0082
#
#
#
# Elastic Compliance Matrix: (Units=1/GPa)
#
#
# Indices 1 2 3 4 5 6 
#
# 1 0.008940 -0.002514 -0.001797 0.000000 -0.000874 0.000000
# 2 -0.002514 0.012204 -0.003485 0.000000 0.000903 0.000000
# 3 -0.001797 -0.003485 0.012748 0.000000 -0.000386 0.000000
# 4 0.000000 0.000000 0.000000 0.034232 0.000000 -0.006326
# 5 -0.000874 0.000903 -0.000386 0.000000 0.028774 0.000000
# 6 0.000000 0.000000 0.000000 -0.006326 0.000000 0.041156
#
#
# Mechanical properties :
#
#
# Convention : Reuss Voigt Hill
#
# Bulk Modulus (GPa) = 54.64455 55.66560 55.15508
# Shear Modulus (GPa) = 31.29966 32.90403 32.10184
#
# Velocity S-wave (km/s) = 4.13702 4.24172 4.18969
# Velocity P-wave (km/s) = 7.25947 7.37753 7.31874
#
# Compressibility (1/GPa) = 0.01830009
#
# Stress axis : x y z
#
# Youngs Moduli (GPa) = 111.85771 81.94028 78.44328
#
# Poissons Ratio (x) = 0.20603 0.14093
# Poissons Ratio (y) = 0.28125 0.27338
# Poissons Ratio (z) = 0.20096 0.28556
#
# Static dielectric constant tensor:
#      x y z
#    x 1.696150 0.000000 0.006970 
#    y 0.000000 1.604160 0.000000 
#    z 0.006970 0.000000 1.636300 
# 
# From -- ./inp_files/311577.got.cif
#   From: 2010.05.17/outbox.cif.g08.bks.cpg/sg15_156_cif.got.tgz:311577.got - 2010.06.03 18:47:42.
