data_PCOD9272008
_publ_section_title
;
Structure prediction by ZEFSAII (Michael W. Deem and Ramdas Pophale) SiO2 
 PCOD9272008
Probable space group: C 2/C
;
_chemical_formula_sum "Si O2"
_cell_formula_units_Z 48
_cell_length_a 18.296426
_cell_length_b 8.665050
_cell_length_c 22.064887
_cell_angle_alpha 90.000000
_cell_angle_beta 48.558445
_cell_angle_gamma 90.000000
_cell_volume 2622.326249
_symmetry_space_group_name_H-M "C 2/C"
_symmetry_group_IT_number 15
_symmetry_cell_setting 'monoclinic'
loop_
_space_group_symop_operation_xyz
x,y,z
-x,y,1/2-z
-x,-y,-z
x,-y,1/2+z
1/2+x,1/2+y,z
1/2-x,1/2+y,1/2-z
1/2-x,1/2-y,-z
1/2+x,1/2-y,1/2+z
loop_
_atom_site_type_symbol
_atom_site_label
_atom_site_fract_x
_atom_site_fract_y
_atom_site_fract_z
Si Si1 0.861286 0.926034 0.333690
Si Si2 0.858542 0.819555 0.935751
Si Si3 0.572904 0.431247 0.008222
Si Si4 0.496739 0.268004 0.339327
Si Si5 0.494657 0.957030 0.399940
Si Si6 0.641731 0.879617 0.423747
O O1 0.889855 0.794639 0.367967
O O2 0.752730 0.930049 0.368240
O O3 0.931320 0.872252 0.240531
O O4 0.875765 0.083573 0.364237
O O5 0.939735 0.687760 0.900518
O O6 0.871174 0.939275 0.984517
O O7 0.750000 0.750000 0.000000
O O8 0.506864 0.340989 0.092852
O O9 0.500000 0.500000 0.000000
O O10 0.638412 0.301818 0.940856
O O11 0.518922 0.088560 0.336990
O O12 0.587657 0.910925 0.389833
O O13 0.418954 0.031860 0.490272
#
# Coordination Sequence:
#
# PCOD9272008 Si02
#       6
#     8   8   8   8   8   8
#     4  10  21  41  58  86 126 163 195 246 314 364
#     4  11  21  34  64  95 117 149 208 255 296 356
#     4  10  20  37  60  84 119 160 199 245 300 353
#     4   9  22  39  59  80 127 162 195 244 307 363
#     4  10  20  37  60  94 116 154 202 257 294 361
#     4  10  20  36  63  87 123 155 201 249 304 359
#
# _framework density 18.304358000000001
#
# number of rings (size 3 to 8) (size 9 to 14) (size 15 to 20)
#    0.000    2.000    3.333    0.000    2.333    2.000 
#    3.000    6.667    0.000    0.000    0.000    0.000 
#    0.000    0.000    0.000    0.000    0.000    0.000 
#
# Total GULP energy -133681.141270 kJ/mol
# GULP energy per Si atom -5570.047553 kJ/mol
# Density = 1.826270 g / cm^3
# Si number density = 18.304358 Si / 1000 Ang^3
#
#
#
# Elastic Constant Matrix: (Units=GPa)
#
#
# Indices 1 2 3 4 5 6 
#
# 1 146.4017 76.5385 45.0077 0.0000 -13.1571 0.0000
# 2 76.5385 135.8734 32.5552 0.0000 1.1260 0.0000
# 3 45.0077 32.5552 46.9713 0.0000 -2.4433 0.0000
# 4 0.0000 0.0000 0.0000 22.4672 0.0000 3.3273
# 5 -13.1571 1.1260 -2.4433 0.0000 22.5554 0.0000
# 6 0.0000 0.0000 0.0000 3.3273 0.0000 28.3088
#
#
#
# Elastic Compliance Matrix: (Units=1/GPa)
#
#
# Indices 1 2 3 4 5 6 
#
# 1 0.012699 -0.005251 -0.008176 0.000000 0.006784 0.000000
# 2 -0.005251 0.011024 -0.002813 0.000000 -0.003918 0.000000
# 3 -0.008176 -0.002813 0.031007 0.000000 -0.001270 0.000000
# 4 0.000000 0.000000 0.000000 0.045298 0.000000 -0.005324
# 5 0.006784 -0.003918 -0.001270 0.000000 0.048350 0.000000
# 6 0.000000 0.000000 0.000000 -0.005324 0.000000 0.035950
#
#
# Mechanical properties :
#
#
# Convention : Reuss Voigt Hill
#
# Bulk Modulus (GPa) = 44.94243 70.82770 57.88506
# Shear Modulus (GPa) = 22.29904 26.34263 24.32083
#
# Velocity S-wave (km/s) = 3.49411 3.79772 3.64908
# Velocity P-wave (km/s) = 6.39410 7.61634 7.03183
#
# Compressibility (1/GPa) = 0.02225069
#
# Stress axis : x y z
#
# Youngs Moduli (GPa) = 78.74886 90.71116 32.25034
#
# Poissons Ratio (x) = 0.47628 0.26367
# Poissons Ratio (y) = 0.41347 0.09073
# Poissons Ratio (z) = 0.64383 0.25520
#
# Static dielectric constant tensor:
#      x y z
#    x 1.636310 0.000000 0.017960 
#    y 0.000000 1.678420 0.000000 
#    z 0.017960 0.000000 1.651910 
# 
# From -- ./inp_files/208707.got.cif
#   From: 2010.05.17/outbox.cif.g08.bks.cpg/sg15_105_cif.got.tgz:208707.got - 2010.06.03 18:47:42.
