data_PCOD9272154
_publ_section_title
;
Structure prediction by ZEFSAII (Michael W. Deem and Ramdas Pophale) SiO2 
 PCOD9272154
Probable space group: C 2/C
;
_chemical_formula_sum "Si O2"
_cell_formula_units_Z 52
_cell_length_a 12.820866
_cell_length_b 33.022172
_cell_length_c 8.619611
_cell_angle_alpha 90.000000
_cell_angle_beta 45.915706
_cell_angle_gamma 90.000000
_cell_volume 2621.360972
_symmetry_space_group_name_H-M "C 2/C"
_symmetry_group_IT_number 15
_symmetry_cell_setting 'monoclinic'
loop_
_space_group_symop_operation_xyz
x,y,z
-x,y,1/2-z
-x,-y,-z
x,-y,1/2+z
1/2+x,1/2+y,z
1/2-x,1/2+y,1/2-z
1/2-x,1/2-y,-z
1/2+x,1/2-y,1/2+z
loop_
_atom_site_type_symbol
_atom_site_label
_atom_site_fract_x
_atom_site_fract_y
_atom_site_fract_z
Si Si1 0.046513 0.230002 0.870598
Si Si2 0.178636 0.276826 0.209277
Si Si3 0.251554 0.362464 0.017717
Si Si4 0.667183 0.953117 0.092218
Si Si5 0.977332 0.140801 0.029709
Si Si6 0.500000 0.426400 0.250000
Si Si7 0.661009 0.485364 0.884368
O O1 0.212846 0.225812 0.753732
O O2 0.000000 0.245975 0.750000
O O3 0.969689 0.257283 0.080188
O O4 0.983464 0.184567 0.945032
O O5 0.166403 0.322335 0.156726
O O6 0.250000 0.250000 0.000000
O O7 0.173701 0.405189 0.117918
O O8 0.394114 0.360459 0.978343
O O9 0.321100 0.361914 0.773976
O O10 0.500000 0.965983 0.250000
O O11 0.746333 0.977292 0.147944
O O12 0.757811 0.963537 0.841866
O O13 0.013594 0.103751 0.880093
O O14 0.368333 0.455350 0.439547
O O15 0.500000 0.500000 0.000000
#
# Coordination Sequence:
#
# PCOD9272154 Si02
#       7
#     8   8   8   8   8   4   8
#     4  11  22  39  61  92 131 168 208 273 328 384
#     4  11  22  39  64  93 123 168 221 261 321 395
#     4  10  22  39  62  89 124 167 212 266 318 390
#     4  12  26  43  64  95 137 169 209 271 340 389
#     4  10  20  36  64  95 121 159 221 270 312 375
#     4  12  20  36  68  96 118 158 226 270 312 372
#     4  12  24  42  68  97 122 171 224 267 317 396
#
# _framework density 19.837022999999999
#
# number of rings (size 3 to 8) (size 9 to 14) (size 15 to 20)
#    0.000    0.923    5.385    2.308    2.154    1.231 
#    0.000    0.000    0.000    0.000    0.000    0.000 
#    0.000    0.000    0.000    0.000    0.000    0.000 
#
# Total GULP energy -145160.406433 kJ/mol
# GULP energy per Si atom -5583.092555 kJ/mol
# Density = 1.979187 g / cm^3
# Si number density = 19.837023 Si / 1000 Ang^3
#
#
#
# Elastic Constant Matrix: (Units=GPa)
#
#
# Indices 1 2 3 4 5 6 
#
# 1 76.6113 29.0798 27.7933 0.0000 -7.6990 0.0000
# 2 29.0798 138.7213 38.7342 0.0000 -3.8139 0.0000
# 3 27.7933 38.7342 85.9784 0.0000 0.4159 0.0000
# 4 0.0000 0.0000 0.000031738.9924 0.0000**********
# 5 -7.6990 -3.8139 0.4159 0.0000 33.7543 0.0000
# 6 0.0000 0.0000 0.0000********** 0.0000 4353.2397
#
#
#
# Elastic Compliance Matrix: (Units=1/GPa)
#
#
# Indices 1 2 3 4 5 6 
#
# 1 0.015677 -0.002029 -0.004170 0.000000 0.003398 0.000000
# 2 -0.002029 0.008541 -0.003195 0.000000 0.000542 0.000000
# 3 -0.004170 -0.003195 0.014425 0.000000 -0.001490 0.000000
# 4 0.000000 0.000000 0.000000 0.003720 0.000000 0.010003
# 5 0.003398 0.000542 -0.001490 0.000000 0.030480 0.000000
# 6 0.000000 0.000000 0.000000 0.010003 0.000000 0.027126
#
#
# Mechanical properties :
#
#
# Convention : Reuss Voigt Hill
#
# Bulk Modulus (GPa) = 50.36148 54.72507 52.54327
# Shear Modulus (GPa) = 39.88004 7238.91087 3639.39546
#
# Velocity S-wave (km/s) = 4.48860 60.47408 42.87926
# Velocity P-wave (km/s) = 7.23229 70.02713 49.78004
#
# Compressibility (1/GPa) = 0.01985645
#
# Stress axis : x y z
#
# Youngs Moduli (GPa) = 63.78639 117.08456 69.32228
#
# Poissons Ratio (x) = 0.23751 0.28910
# Poissons Ratio (y) = 0.12939 0.22146
# Poissons Ratio (z) = 0.26602 0.37404
#
# Static dielectric constant tensor:
#      x y z
#    x 1.703150 0.000000 0.039250 
#    y 0.000000 1.698020 0.000000 
#    z 0.039250 0.000000 1.701570 
# 
# From -- ./inp_files/44749.got.cif
#   From: 2010.05.17/outbox.cif.g08.bks.cpg/sg15_23_cif.got.tgz:44749.got - 2010.06.03 18:47:42.
