data_PCOD9272786
_publ_section_title
;
Structure prediction by ZEFSAII (Michael W. Deem and Ramdas Pophale) SiO2 
 PCOD9272786
Probable space group: C 2/C
;
_chemical_formula_sum "Si O2"
_cell_formula_units_Z 56
_cell_length_a 17.525474
_cell_length_b 22.433026
_cell_length_c 8.973524
_cell_angle_alpha 90.000000
_cell_angle_beta 140.433116
_cell_angle_gamma 90.000000
_cell_volume 2247.219331
_symmetry_space_group_name_H-M "C 2/C"
_symmetry_group_IT_number 15
_symmetry_cell_setting 'monoclinic'
loop_
_space_group_symop_operation_xyz
x,y,z
-x,y,1/2-z
-x,-y,-z
x,-y,1/2+z
1/2+x,1/2+y,z
1/2-x,1/2+y,1/2-z
1/2-x,1/2-y,-z
1/2+x,1/2-y,1/2+z
loop_
_atom_site_type_symbol
_atom_site_label
_atom_site_fract_x
_atom_site_fract_y
_atom_site_fract_z
Si Si1 0.300602 0.651629 0.660251
Si Si2 0.496025 0.261954 0.075899
Si Si3 0.617349 0.228653 0.855656
Si Si4 0.273354 0.354104 0.769128
Si Si5 0.112109 0.577378 0.523625
Si Si6 0.073006 0.959079 0.218298
Si Si7 0.293356 0.965769 0.028040
O O1 0.261506 0.641121 0.429580
O O2 0.201133 0.633042 0.627144
O O3 0.393934 0.598626 0.825059
O O4 0.373368 0.712947 0.773620
O O5 0.445293 0.211799 0.892674
O O6 0.395396 0.315584 0.922784
O O7 0.500000 0.242013 0.250000
O O8 0.500000 0.264177 0.750000
O O9 0.750000 0.250000 0.000000
O O10 0.657299 0.180355 0.033248
O O11 0.266637 0.414372 0.663450
O O12 0.152774 0.515599 0.501404
O O13 0.119411 0.560578 0.711195
O O14 0.000000 0.592928 0.250000
O O15 0.186277 0.997275 0.444782
O O16 0.000000 0.938136 0.250000
O O17 0.000000 0.000000 0.000000
#
# Coordination Sequence:
#
# PCOD9272786 Si02
#       7
#     8   8   8   8   8   8   8
#     4  10  20  37  60  88 120 161 205 254 317 382
#     4   9  19  40  67  92 124 160 202 265 333 390
#     4  10  23  43  66  94 125 164 214 270 331 392
#     4  10  21  39  62  89 122 164 207 253 317 388
#     4  11  24  39  56  85 122 167 214 259 309 376
#     4  11  19  31  54  88 124 156 195 245 303 372
#     4  11  22  37  57  84 124 168 208 254 309 376
#
# _framework density 24.919684
#
# number of rings (size 3 to 8) (size 9 to 14) (size 15 to 20)
#    0.000    1.714    0.000    6.857    0.000    4.000 
#    0.000   10.000    0.000    0.000    0.000    0.000 
#    0.000    0.000    0.000    0.000    0.000    0.000 
#
# Total GULP energy -156173.601043 kJ/mol
# GULP energy per Si atom -5577.628609 kJ/mol
# Density = 2.486297 g / cm^3
# Si number density = 24.919684 Si / 1000 Ang^3
#
#
#
# Elastic Constant Matrix: (Units=GPa)
#
#
# Indices 1 2 3 4 5 6 
#
# 1 83.0865 30.3330 16.9400 0.0000 3.9834 0.0000
# 2 30.3330 53.0756 27.5109 0.0000 1.4097 0.0000
# 3 16.9400 27.5109 139.5776 0.0000 -25.2113 0.0000
# 4 0.0000 0.0000 0.0000 47.4942 0.0000 -4.0302
# 5 3.9834 1.4097 -25.2113 0.0000 38.4348 0.0000
# 6 0.0000 0.0000 0.0000 -4.0302 0.0000 17.4800
#
#
#
# Elastic Compliance Matrix: (Units=1/GPa)
#
#
# Indices 1 2 3 4 5 6 
#
# 1 0.015294 -0.008451 -0.000477 0.000000 -0.001588 0.000000
# 2 -0.008451 0.026197 -0.004711 0.000000 -0.003175 0.000000
# 3 -0.000477 -0.004711 0.009292 0.000000 0.006317 0.000000
# 4 0.000000 0.000000 0.000000 0.021475 0.000000 0.004951
# 5 -0.001588 -0.003175 0.006317 0.000000 0.030443 0.000000
# 6 0.000000 0.000000 0.000000 0.004951 0.000000 0.058350
#
#
# Mechanical properties :
#
#
# Convention : Reuss Voigt Hill
#
# Bulk Modulus (GPa) = 42.54602 47.25638 44.90120
# Shear Modulus (GPa) = 25.48848 34.07887 29.78367
#
# Velocity S-wave (km/s) = 3.20163 3.70205 3.46090
# Velocity P-wave (km/s) = 5.54776 6.10559 5.83334
#
# Compressibility (1/GPa) = 0.02350396
#
# Stress axis : x y z
#
# Youngs Moduli (GPa) = 65.38302 38.17170 107.61803
#
# Poissons Ratio (x) = 0.32260 0.05137
# Poissons Ratio (y) = 0.55257 0.50703
# Poissons Ratio (z) = 0.03121 0.17984
#
# Static dielectric constant tensor:
#      x y z
#    x 2.060100 0.000000 0.131380 
#    y 0.000000 2.003970 0.000000 
#    z 0.131380 0.000000 2.000800 
# 
# From -- ./inp_files/52369.got.cif
#   From: 2010.05.17/outbox.cif.g08.bks.cpg/sg15_27_cif.got.tgz:52369.got - 2010.06.03 18:47:42.
