data_PCOD9272891
_publ_section_title
;
Structure prediction by ZEFSAII (Michael W. Deem and Ramdas Pophale) SiO2 
 PCOD9272891
Probable space group: C 2/C
;
_chemical_formula_sum "Si O2"
_cell_formula_units_Z 64
_cell_length_a 13.880033
_cell_length_b 16.691056
_cell_length_c 22.960859
_cell_angle_alpha 90.000000
_cell_angle_beta 146.954450
_cell_angle_gamma 90.000000
_cell_volume 2900.697264
_symmetry_space_group_name_H-M "C 2/C"
_symmetry_group_IT_number 15
_symmetry_cell_setting 'monoclinic'
loop_
_space_group_symop_operation_xyz
x,y,z
-x,y,1/2-z
-x,-y,-z
x,-y,1/2+z
1/2+x,1/2+y,z
1/2-x,1/2+y,1/2-z
1/2-x,1/2-y,-z
1/2+x,1/2-y,1/2+z
loop_
_atom_site_type_symbol
_atom_site_label
_atom_site_fract_x
_atom_site_fract_y
_atom_site_fract_z
Si Si1 0.834642 0.976654 0.084608
Si Si2 0.181436 0.506059 0.126339
Si Si3 0.140186 0.143926 0.735093
Si Si4 0.988964 0.612638 0.371767
Si Si5 0.751542 0.812960 0.835926
Si Si6 0.920989 0.141139 0.079474
Si Si7 0.672768 0.232919 0.871246
Si Si8 0.521356 0.272813 0.064545
O O1 0.954459 0.898590 0.153129
O O2 0.810146 0.012648 0.136794
O O3 0.923824 0.046642 0.092419
O O4 0.653415 0.947136 0.962537
O O5 0.217976 0.423550 0.178179
O O6 0.163975 0.575650 0.164292
O O7 0.000000 0.500000 0.000000
O O8 0.181044 0.222712 0.792682
O O9 0.128272 0.169569 0.661957
O O10 0.906860 0.630234 0.266767
O O11 0.037934 0.697411 0.426561
O O12 0.906781 0.827567 0.867075
O O13 0.854412 0.815975 0.949358
O O14 0.890361 0.191491 0.122654
O O15 0.753226 0.165816 0.954709
O O16 0.500000 0.203989 0.750000
O O17 0.837358 0.254609 0.912570
#
# Coordination Sequence:
#
# PCOD9272891 Si02
#       8
#     8   8   8   8   8   8   8   8
#     4  11  23  39  60  92 122 152 199 259 309 351
#     4  10  21  37  62  90 117 151 194 250 307 351
#     4  11  23  39  61  88 122 158 199 247 298 360
#     4  10  21  38  62  88 118 157 201 247 303 362
#     4  10  21  40  60  84 120 164 203 243 297 364
#     4  10  22  38  60  91 120 148 202 255 298 357
#     4  10  20  37  61  87 118 158 197 245 299 358
#     4  10  22  39  59  87 121 162 203 242 299 364
#
# _framework density 22.063661
#
# number of rings (size 3 to 8) (size 9 to 14) (size 15 to 20)
#    0.000    1.750    0.000    4.875    0.000   10.000 
#    0.000    8.750    0.000    0.000    0.000    0.000 
#    0.000    0.000    0.000    0.000    0.000    0.000 
#
# Total GULP energy -178780.874573 kJ/mol
# GULP energy per Si atom -5586.902330 kJ/mol
# Density = 2.201344 g / cm^3
# Si number density = 22.063661 Si / 1000 Ang^3
#
#
#
# Elastic Constant Matrix: (Units=GPa)
#
#
# Indices 1 2 3 4 5 6 
#
# 1 39.5847 7.7496 8.7984 0.0000 -1.2287 0.0000
# 2 7.7496 81.9896 34.0100 0.0000 -3.5419 0.0000
# 3 8.7984 34.0100 139.7119 -0.0002 -7.6659 0.0000
# 4 0.0000 0.0000 -0.0002 41.2448 -0.0001 4.2024
# 5 -1.2287 -3.5419 -7.6659 -0.0001 34.4591 0.0000
# 6 0.0000 0.0000 0.0000 4.2024 0.0000 14.8225
#
#
#
# Elastic Compliance Matrix: (Units=1/GPa)
#
#
# Indices 1 2 3 4 5 6 
#
# 1 0.025912 -0.001961 -0.001129 0.000000 0.000471 0.000000
# 2 -0.001961 0.013730 -0.003184 0.000000 0.000633 0.000000
# 3 -0.001129 -0.003184 0.008082 0.000000 0.001430 0.000000
# 4 0.000000 0.000000 0.000000 0.024967 0.000000 -0.007078
# 5 0.000471 0.000633 0.001430 0.000000 0.029420 0.000000
# 6 0.000000 0.000000 0.000000 -0.007078 0.000000 0.069472
#
#
# Mechanical properties :
#
#
# Convention : Reuss Voigt Hill
#
# Bulk Modulus (GPa) = 28.42750 40.26692 34.34721
# Shear Modulus (GPa) = 25.52910 32.15382 28.84146
#
# Velocity S-wave (km/s) = 3.40526 3.82163 3.61943
# Velocity P-wave (km/s) = 5.32666 6.14517 5.75049
#
# Compressibility (1/GPa) = 0.03517720
#
# Stress axis : x y z
#
# Youngs Moduli (GPa) = 38.59275 72.83255 123.72778
#
# Poissons Ratio (x) = 0.14280 0.13965
# Poissons Ratio (y) = 0.07567 0.39396
# Poissons Ratio (z) = 0.04356 0.23191
#
# Static dielectric constant tensor:
#      x y z
#    x 1.867350 0.000000 0.007120 
#    y 0.000000 1.776200 0.000000 
#    z 0.007120 0.000000 1.836400 
# 
# From -- ./inp_files/274870.got.cif
#   From: 2010.05.17/outbox.cif.g08.bks.cpg/sg15_138_cif.got.tgz:274870.got - 2010.06.03 18:47:42.
