data_PCOD9272582
_publ_section_title
;
Structure prediction by ZEFSAII (Michael W. Deem and Ramdas Pophale) SiO2 
 PCOD9272582
Probable space group: C 2/C
;
_chemical_formula_sum "Si O2"
_cell_formula_units_Z 48
_cell_length_a 14.260745
_cell_length_b 30.935851
_cell_length_c 7.798771
_cell_angle_alpha 90.000000
_cell_angle_beta 38.573380
_cell_angle_gamma 90.000000
_cell_volume 2145.252177
_symmetry_space_group_name_H-M "C 2/C"
_symmetry_group_IT_number 15
_symmetry_cell_setting 'monoclinic'
loop_
_space_group_symop_operation_xyz
x,y,z
-x,y,1/2-z
-x,-y,-z
x,-y,1/2+z
1/2+x,1/2+y,z
1/2-x,1/2+y,1/2-z
1/2-x,1/2-y,-z
1/2+x,1/2-y,1/2+z
loop_
_atom_site_type_symbol
_atom_site_label
_atom_site_fract_x
_atom_site_fract_y
_atom_site_fract_z
Si Si1 0.934568 0.844028 0.648499
Si Si2 0.666914 0.940406 0.776906
Si Si3 0.681836 0.706135 0.666764
Si Si4 0.500000 0.409979 0.250000
Si Si5 0.500000 0.997582 0.250000
Si Si6 0.578014 0.154350 0.329250
Si Si7 0.681721 0.203638 0.653070
O O1 0.000000 0.850002 0.750000
O O2 0.007287 0.801211 0.452960
O O3 0.980555 0.881873 0.453532
O O4 0.760776 0.833223 0.925960
O O5 0.574565 0.970169 0.778461
O O6 0.588738 0.893340 0.888858
O O7 0.841404 0.935591 0.474278
O O8 0.634408 0.965829 0.998177
O O9 0.750000 0.750000 0.500000
O O10 0.752016 0.669671 0.446512
O O11 0.751400 0.699129 0.753128
O O12 0.500000 0.152328 0.250000
O O13 0.491322 0.190626 0.566641
O O14 0.750000 0.250000 0.500000
#
# Coordination Sequence:
#
# PCOD9272582 Si02
#       7
#     8   8   8   4   4   8   8
#     4  10  23  41  58  96 138 183 237 291 341 404
#     4  11  24  48  73 111 136 183 228 286 367 434
#     4  10  20  37  58  88 135 187 229 289 345 397
#     4  12  26  44  76 105 140 182 233 282 360 438
#     4  10  26  48  78 103 144 168 225 300 358 442
#     4  10  20  39  67  92 134 187 228 280 348 413
#     4  10  22  35  58  95 133 182 244 292 335 395
#
# _framework density 22.374991999999999
#
# number of rings (size 3 to 8) (size 9 to 14) (size 15 to 20)
#    0.000    1.667    2.500    1.000    4.667    0.667 
#    3.000    0.000    0.000    0.000    0.000    0.000 
#    0.000    0.000    0.000    0.000    0.000    0.000 
#
# Total GULP energy -133895.241396 kJ/mol
# GULP energy per Si atom -5578.968391 kJ/mol
# Density = 2.232407 g / cm^3
# Si number density = 22.374992 Si / 1000 Ang^3
#
#
#
# Elastic Constant Matrix: (Units=GPa)
#
#
# Indices 1 2 3 4 5 6 
#
# 1 54.7729 12.8444 31.6440 0.0000 4.7944 0.0000
# 2 12.8444 125.2216 54.1295 0.0000 8.2966 0.0000
# 3 31.6440 54.1295 150.0842 0.0000 -11.5665 0.0000
# 4 0.0000 0.0000 0.0000 30.5937 0.0000 -12.0733
# 5 4.7944 8.2966 -11.5665 0.0000 43.2653 0.0000
# 6 0.0000 0.0000 0.0000 -12.0733 0.0000 5.3408
#
#
#
# Elastic Compliance Matrix: (Units=1/GPa)
#
#
# Indices 1 2 3 4 5 6 
#
# 1 0.021339 0.000146 -0.004836 0.000000 -0.003685 0.000000
# 2 0.000146 0.009802 -0.003790 0.000000 -0.002909 0.000000
# 3 -0.004836 -0.003790 0.009339 0.000000 0.003759 0.000000
# 4 0.000000 0.000000 0.000000 0.302922 0.000000 0.684780
# 5 -0.003685 -0.002909 0.003759 0.000000 0.025084 0.000000
# 6 0.000000 0.000000 0.000000 0.684780 0.000000 1.735237
#
#
# Mechanical properties :
#
#
# Convention : Reuss Voigt Hill
#
# Bulk Modulus (GPa) = 42.51671 58.59051 50.55361
# Shear Modulus (GPa) = 2.34904 31.27068 16.80986
#
# Velocity S-wave (km/s) = 1.02573 3.74247 2.74392
# Velocity P-wave (km/s) = 4.52172 6.70204 5.71679
#
# Compressibility (1/GPa) = 0.02352016
#
# Stress axis : x y z
#
# Youngs Moduli (GPa) = 46.86162 102.02013 107.07577
#
# Poissons Ratio (x) = -0.01486 0.51780
# Poissons Ratio (y) = -0.00683 0.40583
# Poissons Ratio (z) = 0.22661 0.38667
#
# Static dielectric constant tensor:
#      x y z
#    x 1.874110 0.000000 0.029440 
#    y 0.000000 1.868820 0.000000 
#    z 0.029440 0.000000 1.866580 
# 
# From -- ./inp_files/52765.got.cif
#   From: 2010.05.17/outbox.cif.g08.bks.cpg/sg15_27_cif.got.tgz:52765.got - 2010.06.03 18:47:42.
