data_PCOD9272054
_publ_section_title
;
Structure prediction by ZEFSAII (Michael W. Deem and Ramdas Pophale) SiO2 
 PCOD9272054
Probable space group: C 2/C
;
_chemical_formula_sum "Si O2"
_cell_formula_units_Z 56
_cell_length_a 26.570136
_cell_length_b 16.625217
_cell_length_c 16.765889
_cell_angle_alpha 90.000000
_cell_angle_beta 19.387834
_cell_angle_gamma 90.000000
_cell_volume 2458.524531
_symmetry_space_group_name_H-M "C 2/C"
_symmetry_group_IT_number 15
_symmetry_cell_setting 'monoclinic'
loop_
_space_group_symop_operation_xyz
x,y,z
-x,y,1/2-z
-x,-y,-z
x,-y,1/2+z
1/2+x,1/2+y,z
1/2-x,1/2+y,1/2-z
1/2-x,1/2-y,-z
1/2+x,1/2-y,1/2+z
loop_
_atom_site_type_symbol
_atom_site_label
_atom_site_fract_x
_atom_site_fract_y
_atom_site_fract_z
Si Si1 0.157242 0.627289 0.139344
Si Si2 0.463518 0.175716 0.687030
Si Si3 0.173344 0.241259 0.490626
Si Si4 0.368200 0.492964 0.890867
Si Si5 0.771837 0.791434 0.775728
Si Si6 0.388212 0.647981 0.246169
Si Si7 0.873642 0.615876 0.664337
O O1 0.170536 0.669448 0.033479
O O2 0.984158 0.606708 0.423519
O O3 0.215568 0.692529 0.117324
O O4 0.269806 0.553795 0.985430
O O5 0.608993 0.166318 0.524399
O O6 0.461980 0.271126 0.669901
O O7 0.482532 0.123201 0.578708
O O8 0.292915 0.155212 0.967877
O O9 0.212556 0.227136 0.340586
O O10 0.000000 0.213018 0.750000
O O11 0.500000 0.527268 0.750000
O O12 0.436749 0.427390 0.726379
O O13 0.250113 0.449999 0.128300
O O14 0.895440 0.845013 0.638917
O O15 0.788685 0.702555 0.788722
#
# Coordination Sequence:
#
# PCOD9272054 Si02
#       7
#     8   8   8   8   8   8   8
#     4  11  23  41  63  91 124 171 222 261 309 385
#     4   9  17  33  56  94 124 158 203 257 312 375
#     4  11  23  41  65  90 119 165 223 268 315 361
#     4  11  23  42  62  91 134 172 205 260 327 385
#     4  11  19  35  64  92 126 158 211 264 317 364
#     4   9  20  33  59  93 129 159 205 252 318 386
#     4  10  20  36  63  94 122 168 213 257 317 385
#
# _framework density 22.777888999999998
#
# number of rings (size 3 to 8) (size 9 to 14) (size 15 to 20)
#    0.000    1.714    2.857    3.000    0.000    0.000 
#    0.000    4.286    0.000    3.429    0.000    0.000 
#    0.000    0.000    0.000    0.000    0.000    0.000 
#
# Total GULP energy -156197.941500 kJ/mol
# GULP energy per Si atom -5578.497911 kJ/mol
# Density = 2.272605 g / cm^3
# Si number density = 22.777889 Si / 1000 Ang^3
#
#
#
# Elastic Constant Matrix: (Units=GPa)
#
#
# Indices 1 2 3 4 5 6 
#
# 1 106.2370 10.0244 13.2720 -0.0001 3.4873 -0.0005
# 2 10.0244 56.8509 6.6900 -0.0003 2.7708 -0.0005
# 3 13.2720 6.6900 68.6953 0.0001 -0.8330 -0.0008
# 4 -0.0001 -0.0003 0.0001 9.5954 -0.0002 -18.3307
# 5 3.4873 2.7708 -0.8330 -0.0002 38.2785 0.0002
# 6 -0.0005 -0.0005 -0.0008 -18.3307 0.0002 -23.9199
#
#
#
# Elastic Compliance Matrix: (Units=1/GPa)
#
#
# Indices 1 2 3 4 5 6 
#
# 1 0.009799 -0.001481 -0.001759 0.000000 -0.000824 0.000000
# 2 -0.001481 0.018085 -0.001490 0.000000 -0.001207 0.000000
# 3 -0.001759 -0.001490 0.015049 0.000000 0.000596 0.000000
# 4 0.000000 0.000000 0.000000 0.042296 0.000000 -0.032413
# 5 -0.000824 -0.001207 0.000596 0.000000 0.026300 0.000000
# 6 0.000000 0.000000 0.000000 -0.032413 0.000000 -0.016967
#
#
# Mechanical properties :
#
#
# Convention : Reuss Voigt Hill
#
# Bulk Modulus (GPa) = 29.87348 32.41735 31.14542
# Shear Modulus (GPa) = 43.41028 18.24391 30.82710
#
# Velocity S-wave (km/s) = 4.37029 2.83317 3.68282
# Velocity P-wave (km/s) = 6.21366 4.99653 5.63803
#
# Compressibility (1/GPa) = 0.03347450
#
# Stress axis : x y z
#
# Youngs Moduli (GPa) = 102.04664 55.29418 66.44870
#
# Poissons Ratio (x) = 0.08188 0.11689
# Poissons Ratio (y) = 0.15111 0.09899
# Poissons Ratio (z) = 0.17951 0.08238
#
# Static dielectric constant tensor:
#      x y z
#    x 2.156650 0.000000 0.303340 
#    y 0.000000 1.855790 0.000000 
#    z 0.303340 0.000000 2.148550 
# 
# From -- ./inp_files/222922.got.cif
#   From: 2010.05.17/outbox.cif.g08.bks.cpg/sg15_112_cif.got.tgz:222922.got - 2010.06.03 18:47:42.
