data_PCOD9272243
_publ_section_title
;
Structure prediction by ZEFSAII (Michael W. Deem and Ramdas Pophale) SiO2 
 PCOD9272243
Probable space group: C 2/C
;
_chemical_formula_sum "Si O2"
_cell_formula_units_Z 48
_cell_length_a 10.885110
_cell_length_b 17.590940
_cell_length_c 12.889671
_cell_angle_alpha 90.000000
_cell_angle_beta 104.005107
_cell_angle_gamma 90.000000
_cell_volume 2394.738889
_symmetry_space_group_name_H-M "C 2/C"
_symmetry_group_IT_number 15
_symmetry_cell_setting 'monoclinic'
loop_
_space_group_symop_operation_xyz
x,y,z
-x,y,1/2-z
-x,-y,-z
x,-y,1/2+z
1/2+x,1/2+y,z
1/2-x,1/2+y,1/2-z
1/2-x,1/2-y,-z
1/2+x,1/2-y,1/2+z
loop_
_atom_site_type_symbol
_atom_site_label
_atom_site_fract_x
_atom_site_fract_y
_atom_site_fract_z
Si Si1 0.728184 0.895710 0.539771
Si Si2 0.735509 0.673613 0.064379
Si Si3 0.504348 0.164116 0.868276
Si Si4 0.625079 0.794632 0.705838
Si Si5 0.630103 0.950302 0.034834
Si Si6 0.039493 0.812629 0.013189
O O1 0.633900 0.879499 0.424006
O O2 0.661956 0.855577 0.625063
O O3 0.857793 0.856585 0.533543
O O4 0.735207 0.984910 0.563186
O O5 0.762693 0.700016 0.187339
O O6 0.750000 0.750000 0.000000
O O7 0.834401 0.608018 0.050068
O O8 0.594272 0.644750 0.009949
O O9 0.500000 0.188443 0.750000
O O10 0.392537 0.105679 0.873428
O O11 0.504393 0.235836 0.943728
O O12 0.500000 0.809044 0.750000
O O13 0.596792 0.717636 0.634175
O O14 0.500000 0.000000 0.000000
#
# Coordination Sequence:
#
# PCOD9272243 Si02
#       6
#     8   8   8   8   8   8
#     4  10  24  39  58  95 138 169 206 270 335 385
#     4  12  23  40  68  96 127 170 223 271 318 390
#     4  10  20  36  66  91 122 167 224 268 311 382
#     4  11  21  40  66  94 131 171 217 270 324 380
#     4  10  22  42  62  95 131 170 222 263 322 399
#     4  11  24  39  62  99 131 169 216 273 330 385
#
# _framework density 20.043938000000001
#
# number of rings (size 3 to 8) (size 9 to 14) (size 15 to 20)
#    0.000    1.333    3.333    4.000    4.667    4.000 
#    0.000    0.000    0.000    2.000    0.000    0.000 
#    0.000    0.000    0.000    0.000    0.000    0.000 
#
# Total GULP energy -133778.680352 kJ/mol
# GULP energy per Si atom -5574.111681 kJ/mol
# Density = 1.999832 g / cm^3
# Si number density = 20.043938 Si / 1000 Ang^3
#
#
#
# Elastic Constant Matrix: (Units=GPa)
#
#
# Indices 1 2 3 4 5 6 
#
# 1 109.2231 51.0873 22.3850 0.0000 -18.5938 0.0000
# 2 51.0873 94.2475 26.9923 0.0000 -10.2973 0.0000
# 3 22.3850 26.9923 111.1995 0.0000 -4.9015 0.0000
# 4 0.0000 0.0000 0.0000 10.8407 0.0000 -10.0836
# 5 -18.5938 -10.2973 -4.9015 0.0000 27.2127 0.0000
# 6 0.0000 0.0000 0.0000 -10.0836 0.0000 30.1604
#
#
#
# Elastic Compliance Matrix: (Units=1/GPa)
#
#
# Indices 1 2 3 4 5 6 
#
# 1 0.013406 -0.006291 -0.000880 0.000000 0.006621 0.000000
# 2 -0.006291 0.014770 -0.002280 0.000000 0.000879 0.000000
# 3 -0.000880 -0.002280 0.009736 0.000000 0.000290 0.000000
# 4 0.000000 0.000000 0.000000 0.133879 0.000000 0.044760
# 5 0.006621 0.000879 0.000290 0.000000 0.041656 0.000000
# 6 0.000000 0.000000 0.000000 0.044760 0.000000 0.048121
#
#
# Mechanical properties :
#
#
# Convention : Reuss Voigt Hill
#
# Bulk Modulus (GPa) = 52.60485 57.28883 54.94684
# Shear Modulus (GPa) = 17.43339 27.92312 22.67825
#
# Velocity S-wave (km/s) = 2.95237 3.73647 3.36732
# Velocity P-wave (km/s) = 6.15822 6.87449 6.52619
#
# Compressibility (1/GPa) = 0.01900965
#
# Stress axis : x y z
#
# Youngs Moduli (GPa) = 74.59583 67.70655 102.71029
#
# Poissons Ratio (x) = 0.42596 0.09035
# Poissons Ratio (y) = 0.46930 0.23417
# Poissons Ratio (z) = 0.06562 0.15436
#
# Static dielectric constant tensor:
#      x y z
#    x 1.821890 0.000000 0.020960 
#    y 0.000000 1.727110 0.000000 
#    z 0.020960 0.000000 1.714130 
# 
# From -- ./inp_files/87480.got.cif
#   From: 2010.05.17/outbox.cif.g08.bks.cpg/sg15_44_cif.got.tgz:87480.got - 2010.06.03 18:47:42.
