data_PCOD9272265
_publ_section_title
;
Structure prediction by ZEFSAII (Michael W. Deem and Ramdas Pophale) SiO2 
 PCOD9272265
Probable space group: C 2/C
;
_chemical_formula_sum "Si O2"
_cell_formula_units_Z 44
_cell_length_a 5.742659
_cell_length_b 18.453752
_cell_length_c 20.245238
_cell_angle_alpha 90.000000
_cell_angle_beta 114.501884
_cell_angle_gamma 90.000000
_cell_volume 1952.257030
_symmetry_space_group_name_H-M "C 2/C"
_symmetry_group_IT_number 15
_symmetry_cell_setting 'monoclinic'
loop_
_space_group_symop_operation_xyz
x,y,z
-x,y,1/2-z
-x,-y,-z
x,-y,1/2+z
1/2+x,1/2+y,z
1/2-x,1/2+y,1/2-z
1/2-x,1/2-y,-z
1/2+x,1/2-y,1/2+z
loop_
_atom_site_type_symbol
_atom_site_label
_atom_site_fract_x
_atom_site_fract_y
_atom_site_fract_z
Si Si1 0.263801 0.040417 0.671154
Si Si2 0.705777 0.394221 0.588961
Si Si3 0.285917 0.331726 0.770759
Si Si4 0.496020 0.198772 0.032990
Si Si5 0.500000 0.528013 0.250000
Si Si6 0.750705 0.154136 0.940911
O O1 0.500000 0.040124 0.750000
O O2 0.275123 0.113213 0.630476
O O3 0.261498 0.975567 0.617423
O O4 0.016238 0.022847 0.687985
O O5 0.618139 0.351816 0.644601
O O6 0.953595 0.354741 0.588225
O O7 0.488223 0.382826 0.508206
O O8 0.500000 0.293423 0.750000
O O9 0.274771 0.412490 0.735453
O O10 0.000000 0.301878 0.750000
O O11 0.710213 0.260053 0.066144
O O12 0.250000 0.250000 0.000000
O O13 0.527848 0.153610 0.969477
#
# Coordination Sequence:
#
# PCOD9272265 Si02
#       6
#     8   8   8   8   4   8
#     4  11  23  38  63  96 137 170 217 284 353 408
#     4  10  20  36  66  96 124 170 223 285 338 404
#     4   9  19  34  59  91 135 169 209 270 346 394
#     4   9  21  41  65  86 128 172 229 279 338 403
#     4   8  18  34  56  80 130 164 210 250 344 384
#     4  10  22  40  64  92 129 177 227 279 341 417
#
# _framework density 22.538015999999999
#
# number of rings (size 3 to 8) (size 9 to 14) (size 15 to 20)
#    0.545    1.818    0.000    2.727    2.545    5.091 
#    0.000    0.000   28.000    0.000    0.000    0.000 
#    0.000    0.000    0.000    0.000    0.000    0.000 
#
# Total GULP energy -122552.785525 kJ/mol
# GULP energy per Si atom -5570.581160 kJ/mol
# Density = 2.248672 g / cm^3
# Si number density = 22.538016 Si / 1000 Ang^3
#
#
#
# Elastic Constant Matrix: (Units=GPa)
#
#
# Indices 1 2 3 4 5 6 
#
# 1 99.2796 23.5478 35.2914 0.0000 -34.7854 0.0000
# 2 23.5478 68.1645 39.7307 0.0000 -20.5151 0.0000
# 3 35.2914 39.7307 105.2535 0.0000 -14.3640 0.0000
# 4 0.0000 0.0000 0.0000 19.7062 0.0000 -11.1012
# 5 -34.7854 -20.5151 -14.3640 0.0000 50.1436 0.0000
# 6 0.0000 0.0000 0.0000 -11.1012 0.0000 18.1978
#
#
#
# Elastic Compliance Matrix: (Units=1/GPa)
#
#
# Indices 1 2 3 4 5 6 
#
# 1 0.014537 -0.000252 -0.003556 0.000000 0.008963 0.000000
# 2 -0.000252 0.020649 -0.006849 0.000000 0.006312 0.000000
# 3 -0.003556 -0.006849 0.013070 0.000000 -0.001525 0.000000
# 4 0.000000 0.000000 0.000000 0.077315 0.000000 0.047164
# 5 0.008963 0.006312 -0.001525 0.000000 0.028306 0.000000
# 6 0.000000 0.000000 0.000000 0.047164 0.000000 0.083723
#
#
# Mechanical properties :
#
#
# Convention : Reuss Voigt Hill
#
# Bulk Modulus (GPa) = 37.11529 52.20415 44.65972
# Shear Modulus (GPa) = 18.66414 29.21803 23.94109
#
# Velocity S-wave (km/s) = 2.88083 3.60445 3.26276
# Velocity P-wave (km/s) = 5.25063 6.36677 5.83545
#
# Compressibility (1/GPa) = 0.02694308
#
# Stress axis : x y z
#
# Youngs Moduli (GPa) = 68.79160 48.42915 76.50912
#
# Poissons Ratio (x) = 0.01219 0.27207
# Poissons Ratio (y) = 0.01731 0.52399
# Poissons Ratio (z) = 0.24462 0.33168
#
# Static dielectric constant tensor:
#      x y z
#    x 1.975570 0.000000 0.041030 
#    y 0.000000 1.821910 0.000000 
#    z 0.041030 0.000000 1.857450 
# 
# From -- ./inp_files/184980.got.cif
#   From: 2010.05.17/outbox.cif.g08.bks.cpg/sg15_93_cif.got.tgz:184980.got - 2010.06.03 18:47:42.
