data_PCOD9272942
_publ_section_title
;
Structure prediction by ZEFSAII (Michael W. Deem and Ramdas Pophale) SiO2 
 PCOD9272942
Probable space group: C 2/C
;
_chemical_formula_sum "Si O2"
_cell_formula_units_Z 48
_cell_length_a 22.493447
_cell_length_b 9.446008
_cell_length_c 10.871879
_cell_angle_alpha 90.000000
_cell_angle_beta 116.646431
_cell_angle_gamma 90.000000
_cell_volume 2064.642936
_symmetry_space_group_name_H-M "C 2/C"
_symmetry_group_IT_number 15
_symmetry_cell_setting 'monoclinic'
loop_
_space_group_symop_operation_xyz
x,y,z
-x,y,1/2-z
-x,-y,-z
x,-y,1/2+z
1/2+x,1/2+y,z
1/2-x,1/2+y,1/2-z
1/2-x,1/2-y,-z
1/2+x,1/2-y,1/2+z
loop_
_atom_site_type_symbol
_atom_site_label
_atom_site_fract_x
_atom_site_fract_y
_atom_site_fract_z
Si Si1 0.166626 0.349844 0.363329
Si Si2 0.698882 0.941195 0.075172
Si Si3 0.582552 0.572835 0.083657
Si Si4 0.929958 0.132583 0.149475
Si Si5 0.229426 0.165832 0.210448
Si Si6 0.061687 0.393231 0.058033
O O1 0.209324 0.473410 0.461300
O O2 0.129112 0.244786 0.423672
O O3 0.211468 0.253000 0.318231
O O4 0.105013 0.403957 0.223333
O O5 0.718606 0.048301 0.203115
O O6 0.739175 0.796079 0.126699
O O7 0.619325 0.920212 0.010379
O O8 0.585226 0.548375 0.235103
O O9 0.659397 0.593232 0.114786
O O10 0.547090 0.725602 0.031661
O O11 0.557816 0.460220 0.960858
O O12 0.000000 0.205309 0.250000
O O13 0.000000 0.500000 0.000000
#
# Coordination Sequence:
#
# PCOD9272942 Si02
#       6
#     8   8   8   8   8   8
#     4   9  21  37  61  85 118 165 202 259 323 389
#     4  10  20  38  63  85 117 164 202 258 322 379
#     4   9  21  40  59  92 125 163 206 271 312 389
#     4  10  20  37  61  91 123 162 212 252 329 377
#     4   9  21  40  57  87 121 154 213 256 322 384
#     4   9  21  41  59  88 124 160 214 258 320 386
#
# _framework density 23.248571999999999
#
# number of rings (size 3 to 8) (size 9 to 14) (size 15 to 20)
#    0.000    3.333    0.000    1.000    7.000    0.000 
#    9.000    6.667    0.000    0.000    0.000    0.000 
#    0.000    0.000    0.000    0.000    0.000    0.000 
#
# Total GULP energy -133766.882430 kJ/mol
# GULP energy per Si atom -5573.620101 kJ/mol
# Density = 2.319566 g / cm^3
# Si number density = 23.248572 Si / 1000 Ang^3
#
#
#
# Elastic Constant Matrix: (Units=GPa)
#
#
# Indices 1 2 3 4 5 6 
#
# 1 47.0857 26.9984 9.8843 0.0000 2.7040 0.0000
# 2 26.9984 60.5760 29.8975 0.0000 3.7313 0.0000
# 3 9.8843 29.8975 57.0292 0.0000 -13.3263 0.0000
# 4 0.0000 0.0000 0.0000 47.7345 0.0000 8.9485
# 5 2.7040 3.7313 -13.3263 0.0000 25.1152 0.0000
# 6 0.0000 0.0000 0.0000 8.9485 0.0000 34.7636
#
#
#
# Elastic Compliance Matrix: (Units=1/GPa)
#
#
# Indices 1 2 3 4 5 6 
#
# 1 0.028760 -0.014042 0.002444 0.000000 0.000286 0.000000
# 2 -0.014042 0.032057 -0.017273 0.000000 -0.012416 0.000000
# 3 0.002444 -0.017273 0.030485 0.000000 0.018478 0.000000
# 4 0.000000 0.000000 0.000000 0.022011 0.000000 -0.005666
# 5 0.000286 -0.012416 0.018478 0.000000 0.051435 0.000000
# 6 0.000000 0.000000 0.000000 -0.005666 0.000000 0.030224
#
#
# Mechanical properties :
#
#
# Convention : Reuss Voigt Hill
#
# Bulk Modulus (GPa) = 29.79875 33.13906 31.46890
# Shear Modulus (GPa) = 18.94651 28.05003 23.49827
#
# Velocity S-wave (km/s) = 2.85784 3.47728 3.18266
# Velocity P-wave (km/s) = 4.87185 5.51427 5.20298
#
# Compressibility (1/GPa) = 0.03355846
#
# Stress axis : x y z
#
# Youngs Moduli (GPa) = 34.77061 31.19478 32.80330
#
# Poissons Ratio (x) = 0.43803 -0.08016
# Poissons Ratio (y) = 0.48825 0.56662
# Poissons Ratio (z) = -0.08497 0.53883
#
# Static dielectric constant tensor:
#      x y z
#    x 1.992200 0.000000 -0.056500 
#    y 0.000000 1.896060 0.000000 
#    z -0.056500 0.000000 1.925210 
# 
# From -- ./inp_files/121642.got.cif
#   From: 2010.05.17/outbox.cif.g08.bks.cpg/sg15_61_cif.got.tgz:121642.got - 2010.06.03 18:47:42.
