data_PCOD9272419
_publ_section_title
;
Structure prediction by ZEFSAII (Michael W. Deem and Ramdas Pophale) SiO2 
 PCOD9272419
Probable space group: C 2/C
;
_chemical_formula_sum "Si O2"
_cell_formula_units_Z 40
_cell_length_a 5.041781
_cell_length_b 26.271875
_cell_length_c 12.454046
_cell_angle_alpha 90.000000
_cell_angle_beta 91.080084
_cell_angle_gamma 90.000000
_cell_volume 1649.332974
_symmetry_space_group_name_H-M "C 2/C"
_symmetry_group_IT_number 15
_symmetry_cell_setting 'monoclinic'
loop_
_space_group_symop_operation_xyz
x,y,z
-x,y,1/2-z
-x,-y,-z
x,-y,1/2+z
1/2+x,1/2+y,z
1/2-x,1/2+y,1/2-z
1/2-x,1/2-y,-z
1/2+x,1/2-y,1/2+z
loop_
_atom_site_type_symbol
_atom_site_label
_atom_site_fract_x
_atom_site_fract_y
_atom_site_fract_z
Si Si1 0.548035 0.200565 0.593316
Si Si2 0.754997 0.082640 0.180812
Si Si3 0.461450 0.763476 0.862014
Si Si4 0.158281 0.592685 0.930054
Si Si5 0.367074 0.526816 0.602503
O O1 0.553108 0.204178 0.464128
O O2 0.336545 0.243645 0.625672
O O3 0.434494 0.145844 0.620176
O O4 0.836870 0.215281 0.637412
O O5 0.500000 0.092605 0.250000
O O6 0.000000 0.104153 0.250000
O O7 0.789530 0.021041 0.174522
O O8 0.741824 0.100166 0.056342
O O9 0.500000 0.790670 0.750000
O O10 0.400812 0.566869 0.867922
O O11 0.902126 0.556164 0.927989
O O12 0.500000 0.500000 0.500000
#
# Coordination Sequence:
#
# PCOD9272419 Si02
#       5
#     8   8   8   8   8
#     4  10  22  39  63  90 116 153 195 237 294 352
#     4  11  21  35  55  82 113 148 193 239 283 331
#     4  10  21  41  63  86 120 154 188 237 297 356
#     4  11  21  38  59  81 112 150 192 235 283 340
#     4  10  20  37  56  75 110 154 182 219 281 336
#
# _framework density 24.252229
#
# number of rings (size 3 to 8) (size 9 to 14) (size 15 to 20)
#    0.000    1.600    0.000    7.800    0.000    0.800 
#    0.000   14.000    0.000    0.000    0.000    0.000 
#    0.000    0.000    0.000    0.000    0.000    0.000 
#
# Total GULP energy -111937.813406 kJ/mol
# GULP energy per Si atom -5596.890670 kJ/mol
# Density = 2.419703 g / cm^3
# Si number density = 24.252229 Si / 1000 Ang^3
#
#
#
# Elastic Constant Matrix: (Units=GPa)
#
#
# Indices 1 2 3 4 5 6 
#
# 1 158.0196 10.4174 29.3145 0.0000 5.9579 0.0000
# 2 10.4174 77.4103 4.1169 0.0000 5.9837 0.0000
# 3 29.3145 4.1169 102.7662 0.0000 -14.9692 0.0000
# 4 0.0000 0.0000 0.0000 -7.4003 0.0000 8.0814
# 5 5.9579 5.9837 -14.9692 0.0000 31.3710 0.0000
# 6 0.0000 0.0000 0.0000 8.0814 0.0000 15.5025
#
#
#
# Elastic Compliance Matrix: (Units=1/GPa)
#
#
# Indices 1 2 3 4 5 6 
#
# 1 0.006876 -0.000630 -0.002266 0.000000 -0.002267 0.000000
# 2 -0.000630 0.013257 -0.000755 0.000000 -0.002769 0.000000
# 3 -0.002266 -0.000755 0.011275 0.000000 0.005954 0.000000
# 4 0.000000 0.000000 0.000000 -0.086110 0.000000 0.044889
# 5 -0.002267 -0.002769 0.005954 0.000000 0.035677 0.000000
# 6 0.000000 0.000000 0.000000 0.044889 0.000000 0.041106
#
#
# Mechanical properties :
#
#
# Convention : Reuss Voigt Hill
#
# Bulk Modulus (GPa) = 41.48312 47.32152 44.40232
# Shear Modulus (GPa) = 133.62862 27.51778 80.57320
#
# Velocity S-wave (km/s) = 7.43096 3.37211 5.77019
# Velocity P-wave (km/s) = 9.52720 5.89204 7.92097
#
# Compressibility (1/GPa) = 0.02410619
#
# Stress axis : x y z
#
# Youngs Moduli (GPa) = 145.43870 75.43121 88.69259
#
# Poissons Ratio (x) = 0.04748 0.20101
# Poissons Ratio (y) = 0.09156 0.06695
# Poissons Ratio (z) = 0.32962 0.05694
#
# Static dielectric constant tensor:
#      x y z
#    x 2.007150 0.000000 0.086320 
#    y 0.000000 1.954680 0.000000 
#    z 0.086320 0.000000 2.032600 
# 
# From -- ./inp_files/73348.got.cif
#   From: 2010.05.17/outbox.cif.g08.bks.cpg/sg15_37_cif.got.tgz:73348.got - 2010.06.03 18:47:42.
