data_PCOD9272634
_publ_section_title
;
Structure prediction by ZEFSAII (Michael W. Deem and Ramdas Pophale) SiO2 
 PCOD9272634
Probable space group: C 2/C
;
_chemical_formula_sum "Si O2"
_cell_formula_units_Z 60
_cell_length_a 18.604207
_cell_length_b 8.062571
_cell_length_c 16.354732
_cell_angle_alpha 90.000000
_cell_angle_beta 83.010629
_cell_angle_gamma 90.000000
_cell_volume 2434.942677
_symmetry_space_group_name_H-M "C 2/C"
_symmetry_group_IT_number 15
_symmetry_cell_setting 'monoclinic'
loop_
_space_group_symop_operation_xyz
x,y,z
-x,y,1/2-z
-x,-y,-z
x,-y,1/2+z
1/2+x,1/2+y,z
1/2-x,1/2+y,1/2-z
1/2-x,1/2-y,-z
1/2+x,1/2-y,1/2+z
loop_
_atom_site_type_symbol
_atom_site_label
_atom_site_fract_x
_atom_site_fract_y
_atom_site_fract_z
Si Si1 0.275467 0.975670 0.347269
Si Si2 0.149573 0.831134 0.457171
Si Si3 0.859825 0.476790 0.006847
Si Si4 0.209854 0.997176 0.107298
Si Si5 0.330050 0.708473 0.228269
Si Si6 0.500000 0.743760 0.750000
Si Si7 0.077728 0.788524 0.090787
Si Si8 0.049402 0.015446 0.359979
O O1 0.213079 0.841500 0.381068
O O2 0.324058 0.998969 0.421317
O O3 0.317662 0.891184 0.266248
O O4 0.229629 0.137170 0.326978
O O5 0.110691 0.655411 0.470329
O O6 0.186899 0.881457 0.535971
O O7 0.094472 0.967341 0.432993
O O8 0.915667 0.326211 0.989751
O O9 0.792955 0.450395 0.077974
O O10 0.186061 0.085079 0.193364
O O11 0.158519 0.840851 0.100413
O O12 0.411466 0.675390 0.183173
O O13 0.459155 0.822104 0.831949
O O14 0.441575 0.623689 0.713121
O O15 0.032256 0.962110 0.104333
#
# Coordination Sequence:
#
# PCOD9272634 Si02
#       8
#     8   8   8   8   8   4   8   8
#     4  10  22  35  59  93 118 154 194 249 300 351
#     4  10  20  37  59  84 123 154 185 244 302 350
#     4  11  21  37  59  90 122 152 190 244 304 347
#     4  11  19  37  60  86 121 152 192 245 298 347
#     4  11  19  37  63  86 120 152 200 246 300 353
#     4   8  18  38  54  80 108 156 196 238 278 338
#     4  10  21  37  61  81 117 158 200 238 286 353
#     4   9  20  38  60  82 111 163 197 230 294 343
#
# _framework density 24.641235999999999
#
# number of rings (size 3 to 8) (size 9 to 14) (size 15 to 20)
#    0.800    1.067    4.000    1.200    1.867    1.067 
#    2.400    0.000    2.933    0.000    0.000    0.000 
#    0.000    0.000    0.000    0.000    0.000    0.000 
#
# Total GULP energy -167225.539012 kJ/mol
# GULP energy per Si atom -5574.184634 kJ/mol
# Density = 2.458515 g / cm^3
# Si number density = 24.641236 Si / 1000 Ang^3
#
#
#
# Elastic Constant Matrix: (Units=GPa)
#
#
# Indices 1 2 3 4 5 6 
#
# 1 55.5746 13.9589 23.7959 0.0000 -23.0775 0.0000
# 2 13.9589 79.7150 16.2773 0.0000 -16.8163 0.0000
# 3 23.7959 16.2773 100.0082 0.0000 -14.3199 0.0000
# 4 0.0000 0.0000 0.0000 44.9445 0.0000 -6.0723
# 5 -23.0775 -16.8163 -14.3199 0.0000 44.2533 0.0000
# 6 0.0000 0.0000 0.0000 -6.0723 0.0000 -0.5629
#
#
#
# Elastic Compliance Matrix: (Units=1/GPa)
#
#
# Indices 1 2 3 4 5 6 
#
# 1 0.024636 -0.001139 -0.004088 0.000000 0.011092 0.000000
# 2 -0.001139 0.013924 -0.001387 0.000000 0.004248 0.000000
# 3 -0.004088 -0.001387 0.011342 0.000000 0.001011 0.000000
# 4 0.000000 0.000000 0.000000 0.009054 0.000000 -0.097667
# 5 0.011092 0.004248 0.001011 0.000000 0.030323 0.000000
# 6 0.000000 0.000000 0.000000 -0.097667 0.000000 -0.722888
#
#
# Mechanical properties :
#
#
# Convention : Reuss Voigt Hill
#
# Bulk Modulus (GPa) = 27.26784 38.15134 32.70959
# Shear Modulus (GPa) = -8.22159 29.81135 10.79488
#
# Velocity S-wave (km/s) = -1.82860 3.48201 2.09531
# Velocity P-wave (km/s) = 2.57519 5.62870 4.37686
#
# Compressibility (1/GPa) = 0.03667324
#
# Stress axis : x y z
#
# Youngs Moduli (GPa) = 40.59036 71.82082 88.16412
#
# Poissons Ratio (x) = 0.08184 0.36045
# Poissons Ratio (y) = 0.04625 0.12227
# Poissons Ratio (z) = 0.16595 0.09960
#
# Static dielectric constant tensor:
#      x y z
#    x 2.002430 0.000000 0.018650 
#    y 0.000000 2.001480 0.000000 
#    z 0.018650 0.000000 2.057920 
# 
# From -- ./inp_files/213870.got.cif
#   From: 2010.05.17/outbox.cif.g08.bks.cpg/sg15_107_cif.got.tgz:213870.got - 2010.06.03 18:47:42.
