data_PCOD9272538
_publ_section_title
;
Structure prediction by ZEFSAII (Michael W. Deem and Ramdas Pophale) SiO2 
 PCOD9272538
Probable space group: C 2/C
;
_chemical_formula_sum "Si O2"
_cell_formula_units_Z 56
_cell_length_a 14.351486
_cell_length_b 11.227236
_cell_length_c 27.304706
_cell_angle_alpha 90.000000
_cell_angle_beta 42.096345
_cell_angle_gamma 90.000000
_cell_volume 2949.360194
_symmetry_space_group_name_H-M "C 2/C"
_symmetry_group_IT_number 15
_symmetry_cell_setting 'monoclinic'
loop_
_space_group_symop_operation_xyz
x,y,z
-x,y,1/2-z
-x,-y,-z
x,-y,1/2+z
1/2+x,1/2+y,z
1/2-x,1/2+y,1/2-z
1/2-x,1/2-y,-z
1/2+x,1/2-y,1/2+z
loop_
_atom_site_type_symbol
_atom_site_label
_atom_site_fract_x
_atom_site_fract_y
_atom_site_fract_z
Si Si1 0.417686 0.562432 0.602699
Si Si2 0.160176 0.151177 0.562741
Si Si3 0.674246 0.028669 0.562335
Si Si4 0.456997 0.069050 0.568053
Si Si5 0.159446 0.161799 0.677701
Si Si6 0.842389 0.437215 0.820834
Si Si7 0.584125 0.329648 0.502978
O O1 0.498902 0.637468 0.611423
O O2 0.259292 0.523388 0.669376
O O3 0.494651 0.436016 0.562522
O O4 0.428668 0.640417 0.549335
O O5 0.250000 0.250000 0.500000
O O6 0.174520 0.168797 0.613720
O O7 0.230008 0.031285 0.516203
O O8 0.527909 0.026167 0.591372
O O9 0.754803 0.151282 0.544078
O O10 0.682776 0.956930 0.610681
O O11 0.290871 0.080649 0.640967
O O12 0.520030 0.201843 0.537649
O O13 0.500000 0.000000 0.500000
O O14 0.176298 0.299598 0.687675
O O15 0.000000 0.122799 0.750000
O O16 0.000000 0.470552 0.750000
#
# Coordination Sequence:
#
# PCOD9272538 Si02
#       7
#     8   8   8   8   8   8   8
#     4   9  18  32  59  80 111 145 182 250 277 335
#     4  11  19  34  58  88 113 143 199 234 283 342
#     4  10  21  34  58  84 111 149 189 246 277 343
#     4  12  22  35  58  87 119 152 193 242 289 351
#     4  11  23  38  56  82 121 155 193 244 293 349
#     4  10  20  37  58  83 112 151 195 239 292 348
#     4   9  18  34  53  87 111 139 190 236 295 327
#
# _framework density 18.987169999999999
#
# number of rings (size 3 to 8) (size 9 to 14) (size 15 to 20)
#    0.000    1.714    4.286    2.143    0.000    1.143 
#    0.000    0.000    0.000    3.429    0.000    0.000 
#    0.000    0.000    0.000    0.000    0.000    0.000 
#
# Total GULP energy -155869.851795 kJ/mol
# GULP energy per Si atom -5566.780421 kJ/mol
# Density = 1.894395 g / cm^3
# Si number density = 18.987170 Si / 1000 Ang^3
#
#
#
# Elastic Constant Matrix: (Units=GPa)
#
#
# Indices 1 2 3 4 5 6 
#
# 1 102.9384 8.9049 5.8329 0.0000 -30.8187 0.0000
# 2 8.9049 23.0603 -11.2465 0.0000 -5.9415 0.0000
# 3 5.8329 -11.2465 49.4283 0.0000 -26.9370 0.0000
# 4 0.0000 0.0000 0.0000 22.1165 0.0000 -7.1033
# 5 -30.8187 -5.9415 -26.9370 0.0000 35.5886 0.0000
# 6 0.0000 0.0000 0.0000 -7.1033 0.0000 15.9435
#
#
#
# Elastic Compliance Matrix: (Units=1/GPa)
#
#
# Indices 1 2 3 4 5 6 
#
# 1 0.015800 0.006683 0.013142 0.000000 0.024745 0.000000
# 2 0.006683 0.076720 0.045619 0.000000 0.053125 0.000000
# 3 0.013142 0.045619 0.067084 0.000000 0.069772 0.000000
# 4 0.000000 0.000000 0.000000 0.052765 0.000000 0.023509
# 5 0.024745 0.053125 0.069772 0.000000 0.111207 0.000000
# 6 0.000000 0.000000 0.000000 0.023509 0.000000 0.073195
#
#
# Mechanical properties :
#
#
# Convention : Reuss Voigt Hill
#
# Bulk Modulus (GPa) = 3.44243 20.26773 11.85508
# Shear Modulus (GPa) = 13.78492 26.19210 19.98851
#
# Velocity S-wave (km/s) = 2.69738 3.71814 3.24811
# Velocity P-wave (km/s) = 3.39384 5.39726 4.50824
#
# Compressibility (1/GPa) = 0.29049246
#
# Stress axis : x y z
#
# Youngs Moduli (GPa) = 63.29043 13.03444 14.90661
#
# Poissons Ratio (x) = -0.08711 -0.19590
# Poissons Ratio (y) = -0.42299 -0.68003
# Poissons Ratio (z) = -0.83173 -0.59462
#
# Static dielectric constant tensor:
#      x y z
#    x 1.773260 0.000000 -0.058640 
#    y 0.000000 1.687050 0.000000 
#    z -0.058640 0.000000 1.665380 
# 
# From -- ./inp_files/295908.got.cif
#   From: 2010.05.17/outbox.cif.g08.bks.cpg/sg15_148_cif.got.tgz:295908.got - 2010.06.03 18:47:42.
