data_PCOD9272963
_publ_section_title
;
Structure prediction by ZEFSAII (Michael W. Deem and Ramdas Pophale) SiO2 
 PCOD9272963
Probable space group: C 2/C
;
_chemical_formula_sum "Si O2"
_cell_formula_units_Z 56
_cell_length_a 26.237401
_cell_length_b 11.487979
_cell_length_c 10.596661
_cell_angle_alpha 90.000000
_cell_angle_beta 120.123075
_cell_angle_gamma 90.000000
_cell_volume 2762.639238
_symmetry_space_group_name_H-M "C 2/C"
_symmetry_group_IT_number 15
_symmetry_cell_setting 'monoclinic'
loop_
_space_group_symop_operation_xyz
x,y,z
-x,y,1/2-z
-x,-y,-z
x,-y,1/2+z
1/2+x,1/2+y,z
1/2-x,1/2+y,1/2-z
1/2-x,1/2-y,-z
1/2+x,1/2-y,1/2+z
loop_
_atom_site_type_symbol
_atom_site_label
_atom_site_fract_x
_atom_site_fract_y
_atom_site_fract_z
Si Si1 0.663005 0.275620 0.143693
Si Si2 0.078543 0.587621 0.130640
Si Si3 0.783277 0.782300 0.916108
Si Si4 0.801332 0.970979 0.773684
Si Si5 0.534547 0.864152 0.168442
Si Si6 0.652853 0.746289 0.330032
Si Si7 0.674676 0.077863 0.654208
O O1 0.619883 0.200887 0.180068
O O2 0.729833 0.234026 0.250236
O O3 0.661668 0.410739 0.180963
O O4 0.652474 0.257839 0.981181
O O5 0.064387 0.492877 0.221575
O O6 0.118606 0.504710 0.089787
O O7 0.015207 0.624397 0.999439
O O8 0.806386 0.910111 0.918152
O O9 0.832373 0.687266 0.946796
O O10 0.750000 0.750000 0.000000
O O11 0.821446 0.871852 0.699665
O O12 0.733163 0.011963 0.680483
O O13 0.500000 0.830753 0.250000
O O14 0.585657 0.772224 0.204979
O O15 0.684280 0.859888 0.303964
#
# Coordination Sequence:
#
# PCOD9272963 Si02
#       7
#     8   8   8   8   8   8   8
#     4  11  22  37  61  87 120 168 201 245 307 369
#     4  10  20  37  61  94 114 146 207 249 309 355
#     4  10  22  36  52  84 124 159 200 244 299 362
#     4  10  22  36  56  87 123 164 197 245 297 372
#     4  10  20  38  66  89 116 153 200 267 296 351
#     4  10  22  40  61  88 124 160 212 246 306 368
#     4   9  20  37  57  88 119 158 196 251 306 361
#
# _framework density 20.270471000000001
#
# number of rings (size 3 to 8) (size 9 to 14) (size 15 to 20)
#    0.000    2.000    2.857    0.000    4.000    7.429 
#    0.000    0.714    0.000    0.000    0.000    0.000 
#    0.000    0.000    0.000    0.000    0.000    0.000 
#
# Total GULP energy -155921.882356 kJ/mol
# GULP energy per Si atom -5568.638656 kJ/mol
# Density = 2.022433 g / cm^3
# Si number density = 20.270471 Si / 1000 Ang^3
#
#
#
# Elastic Constant Matrix: (Units=GPa)
#
#
# Indices 1 2 3 4 5 6 
#
# 1 93.7363 34.1051 11.8297 0.0000 16.7495 0.0000
# 2 34.1051 114.2729 7.1840 0.0000 13.7754 0.0000
# 3 11.8297 7.1840 45.1441 0.0000 6.3601 0.0000
# 4 0.0000 0.0000 0.0000 14.3036 0.0000 4.0847
# 5 16.7495 13.7754 6.3601 0.0000 26.0956 0.0000
# 6 0.0000 0.0000 0.0000 4.0847 0.0000 38.1119
#
#
#
# Elastic Compliance Matrix: (Units=1/GPa)
#
#
# Indices 1 2 3 4 5 6 
#
# 1 0.013168 -0.003035 -0.002074 0.000000 -0.006344 0.000000
# 2 -0.003035 0.010075 -0.000345 0.000000 -0.003286 0.000000
# 3 -0.002074 -0.000345 0.023338 0.000000 -0.004175 0.000000
# 4 0.000000 0.000000 0.000000 0.072120 0.000000 -0.007730
# 5 -0.006344 -0.003286 -0.004175 0.000000 0.045145 0.000000
# 6 0.000000 0.000000 0.000000 -0.007730 0.000000 0.027067
#
#
# Mechanical properties :
#
#
# Convention : Reuss Voigt Hill
#
# Bulk Modulus (GPa) = 28.03243 39.93232 33.98237
# Shear Modulus (GPa) = 23.39619 29.03784 26.21702
#
# Velocity S-wave (km/s) = 3.40104 3.78897 3.60023
# Velocity P-wave (km/s) = 5.41128 6.23572 5.83807
#
# Compressibility (1/GPa) = 0.03567297
#
# Stress axis : x y z
#
# Youngs Moduli (GPa) = 75.94295 99.25995 42.84897
#
# Poissons Ratio (x) = 0.30123 0.08886
# Poissons Ratio (y) = 0.23047 0.01478
# Poissons Ratio (z) = 0.15749 0.03425
#
# Static dielectric constant tensor:
#      x y z
#    x 1.750330 0.000000 -0.030150 
#    y 0.000000 1.802340 0.000000 
#    z -0.030150 0.000000 1.789450 
# 
# From -- ./inp_files/117663.got.cif
#   From: 2010.05.17/outbox.cif.g08.bks.cpg/sg15_59_cif.got.tgz:117663.got - 2010.06.03 18:47:42.
