data_PCOD9272889
_publ_section_title
;
Structure prediction by ZEFSAII (Michael W. Deem and Ramdas Pophale) SiO2 
 PCOD9272889
Probable space group: C 2/C
;
_chemical_formula_sum "Si O2"
_cell_formula_units_Z 64
_cell_length_a 16.782556
_cell_length_b 17.850110
_cell_length_c 25.646771
_cell_angle_alpha 90.000000
_cell_angle_beta 158.726212
_cell_angle_gamma 90.000000
_cell_volume 2787.589682
_symmetry_space_group_name_H-M "C 2/C"
_symmetry_group_IT_number 15
_symmetry_cell_setting 'monoclinic'
loop_
_space_group_symop_operation_xyz
x,y,z
-x,y,1/2-z
-x,-y,-z
x,-y,1/2+z
1/2+x,1/2+y,z
1/2-x,1/2+y,1/2-z
1/2-x,1/2-y,-z
1/2+x,1/2-y,1/2+z
loop_
_atom_site_type_symbol
_atom_site_label
_atom_site_fract_x
_atom_site_fract_y
_atom_site_fract_z
Si Si1 0.127543 0.835031 0.280475
Si Si2 0.346452 0.519473 0.967878
Si Si3 0.480260 0.015332 0.156393
Si Si4 0.452605 0.818676 0.804157
Si Si5 0.195846 0.916992 0.827491
Si Si6 0.385894 0.786082 0.883160
Si Si7 0.674776 0.045869 0.668436
Si Si8 0.514999 0.372262 0.489790
O O1 0.977363 0.762799 0.173899
O O2 0.367764 0.811297 0.448899
O O3 0.182134 0.882613 0.262626
O O4 0.000000 0.875707 0.250000
O O5 0.160334 0.498985 0.811240
O O6 0.458706 0.591557 0.011704
O O7 0.230967 0.529225 0.952393
O O8 0.485871 0.442988 0.049626
O O9 0.415604 0.103359 0.113568
O O10 0.593090 0.986094 0.173685
O O11 0.367653 0.803450 0.810791
O O12 0.258402 0.840377 0.645652
O O13 0.217158 0.835570 0.813647
O O14 0.000000 0.922513 0.750000
O O15 0.198266 0.978238 0.782977
O O16 0.433192 0.934292 0.997708
O O17 0.367262 0.697551 0.883474
#
# Coordination Sequence:
#
# PCOD9272889 Si02
#       8
#     8   8   8   8   8   8   8   8
#     4  10  23  39  60  88 124 159 201 259 304 362
#     4   9  20  38  61  87 118 159 203 255 307 358
#     4  10  20  37  61  87 117 158 195 255 312 362
#     4  10  21  37  60  84 122 158 196 248 320 359
#     4  10  21  40  61  85 125 166 198 253 310 359
#     4  10  21  39  58  88 122 159 201 252 305 371
#     4  10  21  40  60  91 122 154 215 253 295 372
#     4   9  20  39  58  86 122 156 204 255 298 368
#
# _framework density 22.958902999999999
#
# number of rings (size 3 to 8) (size 9 to 14) (size 15 to 20)
#    0.000    2.250    1.250    0.375    7.000    1.500 
#    4.500    0.000    0.000    4.500    0.000    0.000 
#    0.000    0.000    0.000    0.000    0.000    0.000 
#
# Total GULP energy -178537.185040 kJ/mol
# GULP energy per Si atom -5579.287033 kJ/mol
# Density = 2.290665 g / cm^3
# Si number density = 22.958903 Si / 1000 Ang^3
#
#
#
# Elastic Constant Matrix: (Units=GPa)
#
#
# Indices 1 2 3 4 5 6 
#
# 1 167.8975 37.5426 5.7888 0.0055 25.1769 0.0019
# 2 37.5426 92.2559 4.7491 -0.0067 11.0951 0.0016
# 3 5.7888 4.7491 30.1081 -0.0362 5.4667 -0.0065
# 4 0.0055 -0.0067 -0.0362 14.2105 -0.0038 -4.8209
# 5 25.1769 11.0951 5.4667 -0.0038 34.5496 0.0067
# 6 0.0019 0.0016 -0.0065 -4.8209 0.0067 34.1967
#
#
#
# Elastic Compliance Matrix: (Units=1/GPa)
#
#
# Indices 1 2 3 4 5 6 
#
# 1 0.007156 -0.002370 -0.000199 -0.000006 -0.004422 0.000000
# 2 -0.002370 0.012099 -0.001092 0.000003 -0.001986 0.000000
# 3 -0.000199 -0.001092 0.034320 0.000093 -0.004935 0.000021
# 4 -0.000006 0.000003 0.000093 0.073906 -0.000005 0.010419
# 5 -0.004422 -0.001986 -0.004935 -0.000005 0.033585 -0.000008
# 6 0.000000 0.000000 0.000021 0.010419 -0.000008 0.030711
#
#
# Mechanical properties :
#
#
# Convention : Reuss Voigt Hill
#
# Bulk Modulus (GPa) = 21.62047 42.93582 32.27814
# Shear Modulus (GPa) = 23.30818 32.73675 28.02247
#
# Velocity S-wave (km/s) = 3.18970 3.78019 3.49743
# Velocity P-wave (km/s) = 4.79615 6.14775 5.51352
#
# Compressibility (1/GPa) = 0.04625247
#
# Stress axis : x y z
#
# Youngs Moduli (GPa) = 139.74453 82.65242 29.13729
#
# Poissons Ratio (x) = 0.19588 0.00580
# Poissons Ratio (y) = 0.33119 0.03182
# Poissons Ratio (z) = 0.02783 0.09027
#
# Static dielectric constant tensor:
#      x y z
#    x 1.843210 0.000000 -0.041960 
#    y 0.000000 1.882370 -0.000010 
#    z -0.041960 -0.000010 1.984300 
# 
# From -- ./inp_files/274864.got.cif
#   From: 2010.05.17/outbox.cif.g08.bks.cpg/sg15_138_cif.got.tgz:274864.got - 2010.06.03 18:47:42.
