data_PCOD9272185
_publ_section_title
;
Structure prediction by ZEFSAII (Michael W. Deem and Ramdas Pophale) SiO2 
 PCOD9272185
Probable space group: C 2/C
;
_chemical_formula_sum "Si O2"
_cell_formula_units_Z 48
_cell_length_a 21.878184
_cell_length_b 8.467119
_cell_length_c 19.910315
_cell_angle_alpha 90.000000
_cell_angle_beta 39.223797
_cell_angle_gamma 90.000000
_cell_volume 2332.294299
_symmetry_space_group_name_H-M "C 2/C"
_symmetry_group_IT_number 15
_symmetry_cell_setting 'monoclinic'
loop_
_space_group_symop_operation_xyz
x,y,z
-x,y,1/2-z
-x,-y,-z
x,-y,1/2+z
1/2+x,1/2+y,z
1/2-x,1/2+y,1/2-z
1/2-x,1/2-y,-z
1/2+x,1/2-y,1/2+z
loop_
_atom_site_type_symbol
_atom_site_label
_atom_site_fract_x
_atom_site_fract_y
_atom_site_fract_z
Si Si1 0.956773 0.865346 0.583375
Si Si2 0.249078 0.607170 0.052706
Si Si3 0.339012 0.849694 0.452768
Si Si4 0.740104 0.450981 0.805479
Si Si5 0.149398 0.307115 0.904599
Si Si6 0.041176 0.946575 0.646470
O O1 0.034357 0.725792 0.508679
O O2 0.964754 0.937052 0.651427
O O3 0.848793 0.849394 0.649617
O O4 0.000000 0.000000 0.500000
O O5 0.357972 0.531108 0.958617
O O6 0.250000 0.750000 0.000000
O O7 0.165989 0.499136 0.090380
O O8 0.229955 0.621115 0.148173
O O9 0.250000 0.750000 0.500000
O O10 0.321414 0.874725 0.547101
O O11 0.429685 0.736098 0.367947
O O12 0.822196 0.422932 0.679880
O O13 0.701758 0.632781 0.849616
O O14 0.000000 0.014873 0.750000
#
# Coordination Sequence:
#
# PCOD9272185 Si02
#       6
#     8   8   8   8   8   8
#     4   9  18  38  58  83 119 147 205 246 278 365
#     4  11  23  38  58  89 128 154 197 250 302 371
#     4   9  18  39  58  80 117 152 201 243 283 359
#     4  11  22  38  62  89 117 159 199 250 306 353
#     4  10  21  37  62  89 114 158 200 250 298 355
#     4  10  20  36  65  87 109 161 203 246 305 353
#
# _framework density 20.580591999999999
#
# number of rings (size 3 to 8) (size 9 to 14) (size 15 to 20)
#    0.000    2.000    6.667    0.000    7.000    1.333 
#    0.000    1.667    0.000    0.000    0.000    0.000 
#    0.000    0.000    0.000    0.000    0.000    0.000 
#
# Total GULP energy -133635.921739 kJ/mol
# GULP energy per Si atom -5568.163406 kJ/mol
# Density = 2.053375 g / cm^3
# Si number density = 20.580592 Si / 1000 Ang^3
#
#
#
# Elastic Constant Matrix: (Units=GPa)
#
#
# Indices 1 2 3 4 5 6 
#
# 1 118.5365 27.0281 41.9005 0.0000 45.4646 -0.0001
# 2 27.0281 24.6176 -11.1013 -0.0001 8.6923 -0.0001
# 3 41.9005 -11.1013 104.9125 -0.0001 34.7858 0.0001
# 4 0.0000 -0.0001 -0.0001 25.2449 0.0000 6.9040
# 5 45.4646 8.6923 34.7858 0.0000 36.9229 0.0000
# 6 -0.0001 -0.0001 0.0001 6.9040 0.0000 8.2477
#
#
#
# Elastic Compliance Matrix: (Units=1/GPa)
#
#
# Indices 1 2 3 4 5 6 
#
# 1 0.020964 -0.019354 -0.004904 0.000000 -0.016637 0.000000
# 2 -0.019354 0.075296 0.019884 0.000000 -0.012628 0.000001
# 3 -0.004904 0.019884 0.019116 0.000000 -0.016651 0.000000
# 4 0.000000 0.000000 0.000000 0.051372 0.000000 -0.043003
# 5 -0.016637 -0.012628 -0.016651 0.000000 0.066230 -0.000001
# 6 0.000000 0.000001 0.000000 -0.043003 -0.000001 0.157243
#
#
# Mechanical properties :
#
#
# Convention : Reuss Voigt Hill
#
# Bulk Modulus (GPa) = 9.37845 40.41348 24.89596
# Shear Modulus (GPa) = 11.50720 26.76570 19.13645
#
# Velocity S-wave (km/s) = 2.36716 3.61020 3.05262
# Velocity P-wave (km/s) = 3.46959 6.08748 4.95457
#
# Compressibility (1/GPa) = 0.10662740
#
# Stress axis : x y z
#
# Youngs Moduli (GPa) = 47.70119 13.28096 52.31341
#
# Poissons Ratio (x) = 0.25704 0.25656
# Poissons Ratio (y) = 0.92320 -1.04020
# Poissons Ratio (z) = 0.23394 -0.26408
#
# Static dielectric constant tensor:
#      x y z
#    x 1.749050 0.000000 -0.005600 
#    y 0.000000 1.797980 0.000000 
#    z -0.005600 0.000000 1.761850 
# 
# From -- ./inp_files/218137.got.cif
#   From: 2010.05.17/outbox.cif.g08.bks.cpg/sg15_110_cif.got.tgz:218137.got - 2010.06.03 18:47:42.
