data_PCOD9272827
_publ_section_title
;
Structure prediction by ZEFSAII (Michael W. Deem and Ramdas Pophale) SiO2 
 PCOD9272827
Probable space group: C 2/C
;
_chemical_formula_sum "Si O2"
_cell_formula_units_Z 60
_cell_length_a 18.673433
_cell_length_b 23.086442
_cell_length_c 15.481377
_cell_angle_alpha 90.000000
_cell_angle_beta 155.629795
_cell_angle_gamma 90.000000
_cell_volume 2753.926860
_symmetry_space_group_name_H-M "C 2/C"
_symmetry_group_IT_number 15
_symmetry_cell_setting 'monoclinic'
loop_
_space_group_symop_operation_xyz
x,y,z
-x,y,1/2-z
-x,-y,-z
x,-y,1/2+z
1/2+x,1/2+y,z
1/2-x,1/2+y,1/2-z
1/2-x,1/2-y,-z
1/2+x,1/2-y,1/2+z
loop_
_atom_site_type_symbol
_atom_site_label
_atom_site_fract_x
_atom_site_fract_y
_atom_site_fract_z
Si Si1 0.710166 0.883284 0.636796
Si Si2 0.000000 0.815198 0.250000
Si Si3 0.765947 0.830378 0.253342
Si Si4 0.290347 0.022763 0.504987
Si Si5 0.809067 0.185904 0.083005
Si Si6 0.872254 0.792955 0.926708
Si Si7 0.814468 0.402517 0.179047
Si Si8 0.690699 0.111708 0.498277
O O1 0.775674 0.938066 0.648462
O O2 0.772995 0.831694 0.641645
O O3 0.756979 0.850488 0.778677
O O4 0.511183 0.904143 0.428951
O O5 0.092492 0.782344 0.432061
O O6 0.155938 0.852884 0.380082
O O7 0.675872 0.768509 0.169439
O O8 0.792492 0.872480 0.363075
O O9 0.947311 0.811587 0.414618
O O10 0.675491 0.867102 0.079605
O O11 0.500000 0.030638 0.750000
O O12 0.229773 0.044021 0.534113
O O13 0.260279 0.955918 0.453785
O O14 0.000000 0.176963 0.250000
O O15 0.750000 0.250000 0.000000
O O16 0.678670 0.144638 0.888785
O O17 0.500000 0.119889 0.250000
#
# Coordination Sequence:
#
# PCOD9272827 Si02
#       8
#     8   4   8   8   8   8   8   8
#     4  10  20  37  61  85 125 164 203 259 313 375
#     4  10  26  44  62  96 124 170 218 274 322 380
#     4  11  24  39  63  95 125 166 213 261 320 385
#     4   8  18  41  63  90 126 166 211 258 308 388
#     4  11  20  32  52  81 122 162 202 247 310 371
#     4  11  24  41  61  92 132 159 218 261 320 385
#     4  10  20  37  60  90 122 163 206 252 318 373
#     4  10  23  44  67  91 127 167 223 263 324 376
#
# _framework density 21.787071000000001
#
# number of rings (size 3 to 8) (size 9 to 14) (size 15 to 20)
#    0.000    1.867    0.000    4.400    4.667    1.067 
#    9.600    3.333    0.000    0.000    0.000    0.000 
#    0.000    0.000    0.000    0.000    0.000    0.000 
#
# Total GULP energy -167009.038255 kJ/mol
# GULP energy per Si atom -5566.967942 kJ/mol
# Density = 2.173748 g / cm^3
# Si number density = 21.787071 Si / 1000 Ang^3
#
#
#
# Elastic Constant Matrix: (Units=GPa)
#
#
# Indices 1 2 3 4 5 6 
#
# 1 73.4837 2.6831 3.4110 0.0000 -8.1858 0.0000
# 2 2.6831 77.4495 14.6939 0.0000 -5.5465 0.0000
# 3 3.4110 14.6939 46.8475 0.0000 -12.8557 0.0000
# 4 0.0000 0.0000 0.0000 19.8904 0.0000 -6.3576
# 5 -8.1858 -5.5465 -12.8557 0.0000 32.3079 0.0000
# 6 0.0000 0.0000 0.0000 -6.3576 0.0000 21.6657
#
#
#
# Elastic Compliance Matrix: (Units=1/GPa)
#
#
# Indices 1 2 3 4 5 6 
#
# 1 0.014008 -0.000237 0.000019 0.000000 0.003516 0.000000
# 2 -0.000237 0.013748 -0.004113 0.000000 0.000664 0.000000
# 3 0.000019 -0.004113 0.025193 0.000000 0.009323 0.000000
# 4 0.000000 0.000000 0.000000 0.055479 0.000000 0.016280
# 5 0.003516 0.000664 0.009323 0.000000 0.035667 0.000000
# 6 0.000000 0.000000 0.000000 0.016280 0.000000 0.050933
#
#
# Mechanical properties :
#
#
# Convention : Reuss Voigt Hill
#
# Bulk Modulus (GPa) = 22.57970 26.59520 24.58745
# Shear Modulus (GPa) = 22.88844 26.57232 24.73038
#
# Velocity S-wave (km/s) = 3.24474 3.49612 3.37277
# Velocity P-wave (km/s) = 4.94207 5.34140 5.14561
#
# Compressibility (1/GPa) = 0.04428756
#
# Stress axis : x y z
#
# Youngs Moduli (GPa) = 71.38824 72.73977 39.69377
#
# Poissons Ratio (x) = 0.01725 -0.00077
# Poissons Ratio (y) = 0.01693 0.16325
# Poissons Ratio (z) = -0.00138 0.29915
#
# Static dielectric constant tensor:
#      x y z
#    x 1.722740 0.000000 0.059000 
#    y 0.000000 1.690760 0.000000 
#    z 0.059000 0.000000 1.841990 
# 
# From -- ./inp_files/164129.got.cif
#   From: 2010.05.17/outbox.cif.g08.bks.cpg/sg15_83_cif.got.tgz:164129.got - 2010.06.03 18:47:42.
