data_PCOD9272065
_publ_section_title
;
Structure prediction by ZEFSAII (Michael W. Deem and Ramdas Pophale) SiO2 
 PCOD9272065
Probable space group: C 2/C
;
_chemical_formula_sum "Si O2"
_cell_formula_units_Z 56
_cell_length_a 10.780447
_cell_length_b 19.561644
_cell_length_c 13.770910
_cell_angle_alpha 90.000000
_cell_angle_beta 58.225846
_cell_angle_gamma 90.000000
_cell_volume 2468.824752
_symmetry_space_group_name_H-M "C 2/C"
_symmetry_group_IT_number 15
_symmetry_cell_setting 'monoclinic'
loop_
_space_group_symop_operation_xyz
x,y,z
-x,y,1/2-z
-x,-y,-z
x,-y,1/2+z
1/2+x,1/2+y,z
1/2-x,1/2+y,1/2-z
1/2-x,1/2-y,-z
1/2+x,1/2-y,1/2+z
loop_
_atom_site_type_symbol
_atom_site_label
_atom_site_fract_x
_atom_site_fract_y
_atom_site_fract_z
Si Si1 0.818548 0.957199 0.976177
Si Si2 0.969544 0.205204 0.651883
Si Si3 0.990581 0.644133 0.096842
Si Si4 0.200067 0.887956 0.950479
Si Si5 0.988189 0.438326 0.083917
Si Si6 0.301151 0.427927 0.194196
Si Si7 0.676301 0.573229 0.239954
O O1 0.650545 0.933868 0.054560
O O2 0.872986 0.935279 0.058878
O O3 0.818092 0.040018 0.983031
O O4 0.871818 0.920349 0.855012
O O5 0.845353 0.147528 0.705736
O O6 0.000000 0.221801 0.750000
O O7 0.936875 0.278182 0.618835
O O8 0.107856 0.170214 0.542337
O O9 0.125967 0.629509 0.113775
O O10 0.848049 0.596024 0.165878
O O11 0.054434 0.625690 0.964967
O O12 0.147099 0.895478 0.859928
O O13 0.870060 0.442159 0.217250
O O14 0.000000 0.500000 0.000000
O O15 0.358463 0.492884 0.230664
#
# Coordination Sequence:
#
# PCOD9272065 Si02
#       7
#     8   8   8   8   8   8   8
#     4  10  20  36  63  96 116 156 217 274 305 357
#     4  12  26  39  57  91 135 169 198 254 327 389
#     4  11  21  38  64  95 123 157 214 262 313 365
#     4  11  21  37  62  88 127 169 207 253 322 374
#     4  11  18  37  68  93 117 154 216 268 307 358
#     4  11  22  39  61  90 129 163 206 259 320 374
#     4  10  20  37  62  89 116 159 218 265 302 364
#
# _framework density 22.682856999999998
#
# number of rings (size 3 to 8) (size 9 to 14) (size 15 to 20)
#    0.000    1.143    4.286    3.857    0.000    5.714 
#    0.000    5.000    0.000    3.429    0.000    2.000 
#    0.000    0.000    0.000    0.000    0.000    0.000 
#
# Total GULP energy -155984.070235 kJ/mol
# GULP energy per Si atom -5570.859651 kJ/mol
# Density = 2.263123 g / cm^3
# Si number density = 22.682857 Si / 1000 Ang^3
#
#
#
# Elastic Constant Matrix: (Units=GPa)
#
#
# Indices 1 2 3 4 5 6 
#
# 1 47.2033 19.6466 24.6946 0.0000 8.4069 0.0000
# 2 19.6466 118.3982 18.5681 0.0000 -2.2246 0.0000
# 3 24.6946 18.5681 157.5586 0.0000 2.1274 0.0000
# 4 0.0000 0.0000 0.0000 11.7940 0.0000 -2.2787
# 5 8.4069 -2.2246 2.1274 0.0000 43.7899 0.0000
# 6 0.0000 0.0000 0.0000 -2.2787 0.0000 22.2659
#
#
#
# Elastic Compliance Matrix: (Units=1/GPa)
#
#
# Indices 1 2 3 4 5 6 
#
# 1 0.025448 -0.003769 -0.003478 0.000000 -0.004908 0.000000
# 2 -0.003769 0.009174 -0.000507 0.000000 0.001214 0.000000
# 3 -0.003478 -0.000507 0.006948 0.000000 0.000304 0.000000
# 4 0.000000 0.000000 0.000000 0.086499 0.000000 0.008852
# 5 -0.004908 0.001214 0.000304 0.000000 0.023825 0.000000
# 6 0.000000 0.000000 0.000000 0.008852 0.000000 0.045818
#
#
# Mechanical properties :
#
#
# Convention : Reuss Voigt Hill
#
# Bulk Modulus (GPa) = 38.37207 49.88652 44.12929
# Shear Modulus (GPa) = 22.53200 32.92001 27.72601
#
# Velocity S-wave (km/s) = 3.15516 3.81375 3.49998
# Velocity P-wave (km/s) = 5.49790 6.43690 5.98584
#
# Compressibility (1/GPa) = 0.02606062
#
# Stress axis : x y z
#
# Youngs Moduli (GPa) = 39.29659 109.00544 143.93542
#
# Poissons Ratio (x) = 0.41089 0.50060
# Poissons Ratio (y) = 0.14813 0.07294
# Poissons Ratio (z) = 0.13667 0.05524
#
# Static dielectric constant tensor:
#      x y z
#    x 2.016410 0.000000 0.021400 
#    y 0.000000 1.832380 0.000000 
#    z 0.021400 0.000000 1.908280 
# 
# From -- ./inp_files/145975.got.cif
#   From: 2010.05.17/outbox.cif.g08.bks.cpg/sg15_73_cif.got.tgz:145975.got - 2010.06.03 18:47:42.
