data_PCOD9272667
_publ_section_title
;
Structure prediction by ZEFSAII (Michael W. Deem and Ramdas Pophale) SiO2 
 PCOD9272667
Probable space group: C 2/C
;
_chemical_formula_sum "Si O2"
_cell_formula_units_Z 56
_cell_length_a 16.127621
_cell_length_b 11.135693
_cell_length_c 16.133349
_cell_angle_alpha 90.000000
_cell_angle_beta 84.944858
_cell_angle_gamma 90.000000
_cell_volume 2886.154280
_symmetry_space_group_name_H-M "C 2/C"
_symmetry_group_IT_number 15
_symmetry_cell_setting 'monoclinic'
loop_
_space_group_symop_operation_xyz
x,y,z
-x,y,1/2-z
-x,-y,-z
x,-y,1/2+z
1/2+x,1/2+y,z
1/2-x,1/2+y,1/2-z
1/2-x,1/2-y,-z
1/2+x,1/2-y,1/2+z
loop_
_atom_site_type_symbol
_atom_site_label
_atom_site_fract_x
_atom_site_fract_y
_atom_site_fract_z
Si Si1 0.749808 0.621118 0.539623
Si Si2 0.674623 0.219835 0.389152
Si Si3 0.229097 0.106040 0.739203
Si Si4 0.341982 0.391361 0.958830
Si Si5 0.416188 0.986290 0.057467
Si Si6 0.086974 0.359554 0.278652
Si Si7 0.088998 0.913284 0.719635
O O1 0.750000 0.750000 0.500000
O O2 0.738023 0.635394 0.640298
O O3 0.680016 0.527832 0.515888
O O4 0.836235 0.553015 0.511609
O O5 0.693773 0.289859 0.302349
O O6 0.642359 0.312168 0.462038
O O7 0.761114 0.165347 0.418164
O O8 0.611432 0.107978 0.392439
O O9 0.325218 0.082002 0.757528
O O10 0.165757 0.994160 0.744057
O O11 0.408599 0.395759 0.879855
O O12 0.423615 0.881515 0.123530
O O13 0.500000 0.000000 0.000000
O O14 0.094571 0.219292 0.257422
O O15 0.000000 0.406557 0.250000
O O16 0.000000 0.968742 0.750000
#
# Coordination Sequence:
#
# PCOD9272667 Si02
#       7
#     8   8   8   8   8   8   8
#     4   9  20  41  62  90 122 161 204 253 310 367
#     4  10  20  37  59  88 121 165 201 255 312 366
#     4  10  21  40  64  91 129 158 210 258 310 377
#     4   9  19  37  62  87 117 161 206 245 307 373
#     4  10  23  40  56  88 127 154 209 264 303 373
#     4  10  22  38  65  90 117 165 210 252 316 365
#     4  10  21  39  63  89 124 159 211 255 304 377
#
# _framework density 19.402982000000002
#
# number of rings (size 3 to 8) (size 9 to 14) (size 15 to 20)
#    0.000    2.286    1.429    0.857    4.000    3.429 
#    7.714    0.714    0.000    0.000    0.000    0.000 
#    0.000    0.000    0.000    0.000    0.000    0.000 
#
# Total GULP energy -156056.648196 kJ/mol
# GULP energy per Si atom -5573.451721 kJ/mol
# Density = 1.935882 g / cm^3
# Si number density = 19.402982 Si / 1000 Ang^3
#
#
#
# Elastic Constant Matrix: (Units=GPa)
#
#
# Indices 1 2 3 4 5 6 
#
# 1 116.2936 30.4560 35.2728 0.0000 -28.7709 0.0000
# 2 30.4560 92.4398 39.0862 0.0000 -15.3738 0.0000
# 3 35.2728 39.0862 43.2213 0.0000 -26.2476 0.0000
# 4 0.0000 0.0000 0.0000 33.0879 0.0000 -1.7441
# 5 -28.7709 -15.3738 -26.2476 0.0000 32.1617 0.0000
# 6 0.0000 0.0000 0.0000 -1.7441 0.0000 15.9541
#
#
#
# Elastic Compliance Matrix: (Units=1/GPa)
#
#
# Indices 1 2 3 4 5 6 
#
# 1 0.011894 -0.000529 -0.005790 0.000000 0.005662 0.000000
# 2 -0.000529 0.018969 -0.022807 0.000000 -0.010019 0.000000
# 3 -0.005790 -0.022807 0.076768 0.000000 0.046569 0.000000
# 4 0.000000 0.000000 0.000000 0.030398 0.000000 0.003323
# 5 0.005662 -0.010019 0.046569 0.000000 0.069375 0.000000
# 6 0.000000 0.000000 0.000000 0.003323 0.000000 0.063043
#
#
# Mechanical properties :
#
#
# Convention : Reuss Voigt Hill
#
# Bulk Modulus (GPa) = 20.25132 51.28721 35.76926
# Shear Modulus (GPa) = 14.48605 26.05005 20.26805
#
# Velocity S-wave (km/s) = 2.73534 3.66810 3.23551
# Velocity P-wave (km/s) = 4.52062 6.66558 5.69500
#
# Compressibility (1/GPa) = 0.04937951
#
# Stress axis : x y z
#
# Youngs Moduli (GPa) = 84.07273 52.71663 13.02627
#
# Poissons Ratio (x) = 0.02788 0.07543
# Poissons Ratio (y) = 0.04447 0.29709
# Poissons Ratio (z) = 0.48680 1.20231
#
# Static dielectric constant tensor:
#      x y z
#    x 1.802900 0.000000 0.045300 
#    y 0.000000 1.699220 0.000000 
#    z 0.045300 0.000000 1.700950 
# 
# From -- ./inp_files/152601.got.cif
#   From: 2010.05.17/outbox.cif.g08.bks.cpg/sg15_77_cif.got.tgz:152601.got - 2010.06.03 18:47:42.
