data_PCOD9272344
_publ_section_title
;
Structure prediction by ZEFSAII (Michael W. Deem and Ramdas Pophale) SiO2 
 PCOD9272344
Probable space group: C 2/C
;
_chemical_formula_sum "Si O2"
_cell_formula_units_Z 40
_cell_length_a 9.632243
_cell_length_b 17.306310
_cell_length_c 8.525149
_cell_angle_alpha 90.000000
_cell_angle_beta 105.688503
_cell_angle_gamma 90.000000
_cell_volume 1368.187511
_symmetry_space_group_name_H-M "C 2/C"
_symmetry_group_IT_number 15
_symmetry_cell_setting 'monoclinic'
loop_
_space_group_symop_operation_xyz
x,y,z
-x,y,1/2-z
-x,-y,-z
x,-y,1/2+z
1/2+x,1/2+y,z
1/2-x,1/2+y,1/2-z
1/2-x,1/2-y,-z
1/2+x,1/2-y,1/2+z
loop_
_atom_site_type_symbol
_atom_site_label
_atom_site_fract_x
_atom_site_fract_y
_atom_site_fract_z
Si Si1 0.201179 0.163568 0.037690
Si Si2 0.398416 0.612275 0.044748
Si Si3 0.196944 0.028847 0.786631
Si Si4 0.410142 0.176266 0.557848
Si Si5 0.000000 0.500000 0.000000
Si Si6 0.500000 0.174546 0.250000
O O1 0.053218 0.154946 0.089486
O O2 0.349395 0.133221 0.162355
O O3 0.250000 0.250000 0.000000
O O4 0.179509 0.104605 0.889399
O O5 0.364203 0.550762 0.168614
O O6 0.380089 0.554210 0.893187
O O7 0.264627 0.672035 0.984863
O O8 0.366257 0.014127 0.834383
O O9 0.500000 0.193822 0.750000
O O10 0.457591 0.214839 0.403302
O O11 0.443468 0.087109 0.524688
#
# Coordination Sequence:
#
# PCOD9272344 Si02
#       6
#     8   8   8   8   4   4
#     4  12  29  51  79 117 169 229 286 359 451 526
#     4  11  26  47  85 125 174 220 289 379 437 525
#     4  11  24  45  84 125 166 216 285 365 440 519
#     4  11  23  44  78 124 171 217 283 352 439 527
#     4  10  20  36  72 118 162 212 258 354 428 500
#     4  12  28  50  84 106 164 240 282 348 444 536
#
# _framework density 29.235759000000002
#
# number of rings (size 3 to 8) (size 9 to 14) (size 15 to 20)
#    0.000    0.800    4.000    1.200    9.800    0.800 
#    0.000    1.000    4.400    0.000    0.000    0.000 
#    0.000    0.000    0.000    0.000    0.000    0.000 
#
# Total GULP energy -111398.166377 kJ/mol
# GULP energy per Si atom -5569.908319 kJ/mol
# Density = 2.916922 g / cm^3
# Si number density = 29.235759 Si / 1000 Ang^3
#
#
#
# Elastic Constant Matrix: (Units=GPa)
#
#
# Indices 1 2 3 4 5 6 
#
# 1 299.7836 57.1094 72.5016 0.0000 30.3476 0.0000
# 2 57.1094 186.7439 52.7126 0.0000 -27.5096 0.0000
# 3 72.5016 52.7126 164.2395 0.0000 -5.9448 0.0000
# 4 0.0000 0.0000 0.0000 28.8788 0.0000 -22.9679
# 5 30.3476 -27.5096 -5.9448 0.0000 55.6694 0.0000
# 6 0.0000 0.0000 0.0000 -22.9679 0.0000 38.7242
#
#
#
# Elastic Compliance Matrix: (Units=1/GPa)
#
#
# Indices 1 2 3 4 5 6 
#
# 1 0.004293 -0.001333 -0.001582 0.000000 -0.003168 0.000000
# 2 -0.001333 0.006743 -0.001434 0.000000 0.003906 0.000000
# 3 -0.001582 -0.001434 0.007281 0.000000 0.000931 0.000000
# 4 0.000000 0.000000 0.000000 0.065547 0.000000 0.038877
# 5 -0.003168 0.003906 0.000931 0.000000 0.021720 0.000000
# 6 0.000000 0.000000 0.000000 0.038877 0.000000 0.048882
#
#
# Mechanical properties :
#
#
# Convention : Reuss Voigt Hill
#
# Bulk Modulus (GPa) = 103.96800 112.82379 108.39589
# Shear Modulus (GPa) = 30.05357 55.88403 42.96880
#
# Velocity S-wave (km/s) = 3.20968 4.37681 3.83787
# Velocity P-wave (km/s) = 7.02675 8.01353 7.53631
#
# Compressibility (1/GPa) = 0.00961834
#
# Stress axis : x y z
#
# Youngs Moduli (GPa) = 232.94010 148.30706 137.34327
#
# Poissons Ratio (x) = 0.19769 0.21727
# Poissons Ratio (y) = 0.31051 0.19699
# Poissons Ratio (z) = 0.36849 0.21272
#
# Static dielectric constant tensor:
#      x y z
#    x 2.346590 0.000000 -0.090400 
#    y 0.000000 2.384880 0.000000 
#    z -0.090400 0.000000 2.399980 
# 
# From -- ./inp_files/55063.got.cif
#   From: 2010.05.17/outbox.cif.g08.bks.cpg/sg15_28_cif.got.tgz:55063.got - 2010.06.03 18:47:42.
