data_PCOD9272992
_publ_section_title
;
Structure prediction by ZEFSAII (Michael W. Deem and Ramdas Pophale) SiO2 
 PCOD9272992
Probable space group: C 2/C
;
_chemical_formula_sum "Si O2"
_cell_formula_units_Z 64
_cell_length_a 8.776694
_cell_length_b 21.772589
_cell_length_c 16.156306
_cell_angle_alpha 90.000000
_cell_angle_beta 88.095342
_cell_angle_gamma 90.000000
_cell_volume 3085.624648
_symmetry_space_group_name_H-M "C 2/C"
_symmetry_group_IT_number 15
_symmetry_cell_setting 'monoclinic'
loop_
_space_group_symop_operation_xyz
x,y,z
-x,y,1/2-z
-x,-y,-z
x,-y,1/2+z
1/2+x,1/2+y,z
1/2-x,1/2+y,1/2-z
1/2-x,1/2-y,-z
1/2+x,1/2-y,1/2+z
loop_
_atom_site_type_symbol
_atom_site_label
_atom_site_fract_x
_atom_site_fract_y
_atom_site_fract_z
Si Si1 0.869160 0.074554 0.941293
Si Si2 0.297398 0.594078 0.624917
Si Si3 0.820752 0.218002 0.238010
Si Si4 0.146901 0.600618 0.205181
Si Si5 0.313826 0.265955 0.090808
Si Si6 0.868131 0.517398 0.440291
Si Si7 0.665772 0.490258 0.226871
Si Si8 0.821717 0.216946 0.918188
O O1 0.821741 0.031123 0.866441
O O2 0.808308 0.143625 0.930524
O O3 0.051605 0.080804 0.932784
O O4 0.791502 0.042643 0.020353
O O5 0.261052 0.664818 0.614468
O O6 0.167328 0.546963 0.602365
O O7 0.332143 0.571576 0.717261
O O8 0.778585 0.150911 0.202576
O O9 0.744082 0.225949 0.330210
O O10 0.755283 0.262915 0.167379
O O11 0.000000 0.226080 0.250000
O O12 0.088417 0.573012 0.120284
O O13 0.209292 0.540192 0.250973
O O14 0.000000 0.629775 0.250000
O O15 0.498087 0.266599 0.087161
O O16 0.250000 0.250000 0.000000
O O17 0.000000 0.500000 0.500000
O O18 0.500000 0.518436 0.250000
O O19 0.750000 0.250000 0.000000
#
# Coordination Sequence:
#
# PCOD9272992 Si02
#       8
#     8   8   8   8   8   8   8   8
#     4  10  20  37  62  85 113 153 195 241 300 366
#     4   9  21  39  59  84 117 154 196 240 297 371
#     4  12  26  43  64  92 126 170 218 267 321 383
#     4  11  23  40  59  85 121 158 199 252 312 372
#     4  11  24  42  65  93 125 168 213 261 318 381
#     4  11  23  37  59  91 123 155 198 254 313 369
#     4   9  18  36  60  84 110 147 191 238 293 360
#     4  11  23  42  65  92 126 165 210 261 318 382
#
# _framework density 20.741343000000001
#
# number of rings (size 3 to 8) (size 9 to 14) (size 15 to 20)
#    0.000    1.500    0.000    4.875    0.000    8.000 
#    0.000    3.125    0.000    0.000    0.000    0.000 
#    0.000    0.000    0.000    0.000    0.000    0.000 
#
# Total GULP energy -178609.548603 kJ/mol
# GULP energy per Si atom -5581.548394 kJ/mol
# Density = 2.069413 g / cm^3
# Si number density = 20.741343 Si / 1000 Ang^3
#
#
#
# Elastic Constant Matrix: (Units=GPa)
#
#
# Indices 1 2 3 4 5 6 
#
# 1 54.1747 10.7816 20.2173 0.0000 15.6057 0.0000
# 2 10.7816 85.8293 5.2174 0.0000 14.9463 0.0000
# 3 20.2173 5.2174 65.7321 0.0000 12.2792 0.0000
# 4 0.0000 0.0000 0.0000 36.4013 0.0000 -17.4359
# 5 15.6057 14.9463 12.2792 0.0000 39.6340 0.0000
# 6 0.0000 0.0000 0.0000 -17.4359 0.0000 49.1496
#
#
#
# Elastic Compliance Matrix: (Units=1/GPa)
#
#
# Indices 1 2 3 4 5 6 
#
# 1 0.022765 -0.001349 -0.005642 0.000000 -0.006707 0.000000
# 2 -0.001349 0.012551 0.000216 0.000000 -0.004269 0.000000
# 3 -0.005642 0.000216 0.017547 0.000000 -0.003296 0.000000
# 4 0.000000 0.000000 0.000000 0.033095 0.000000 0.011741
# 5 -0.006707 -0.004269 -0.003296 0.000000 0.030503 0.000000
# 6 0.000000 0.000000 0.000000 0.011741 0.000000 0.024511
#
#
# Mechanical properties :
#
#
# Convention : Reuss Voigt Hill
#
# Bulk Modulus (GPa) = 25.43644 30.90764 28.17204
# Shear Modulus (GPa) = 29.82846 36.33829 33.08337
#
# Velocity S-wave (km/s) = 3.79636 4.19020 3.99813
# Velocity P-wave (km/s) = 5.61309 6.19227 5.90978
#
# Compressibility (1/GPa) = 0.03931368
#
# Stress axis : x y z
#
# Youngs Moduli (GPa) = 43.92764 79.67680 56.98916
#
# Poissons Ratio (x) = 0.10746 0.32152
# Poissons Ratio (y) = 0.05925 -0.01231
# Poissons Ratio (z) = 0.24783 -0.01722
#
# Static dielectric constant tensor:
#      x y z
#    x 1.752460 0.000000 -0.009700 
#    y 0.000000 1.718410 0.000000 
#    z -0.009700 0.000000 1.769300 
# 
# From -- ./inp_files/137838.got.cif
#   From: 2010.05.17/outbox.cif.g08.bks.cpg/sg15_69_cif.got.tgz:137838.got - 2010.06.03 18:47:42.
