data_PCOD9272868
_publ_section_title
;
Structure prediction by ZEFSAII (Michael W. Deem and Ramdas Pophale) SiO2 
 PCOD9272868
Probable space group: C 2/C
;
_chemical_formula_sum "Si O2"
_cell_formula_units_Z 64
_cell_length_a 28.778240
_cell_length_b 17.888178
_cell_length_c 9.195495
_cell_angle_alpha 90.000000
_cell_angle_beta 38.177847
_cell_angle_gamma 90.000000
_cell_volume 2925.953084
_symmetry_space_group_name_H-M "C 2/C"
_symmetry_group_IT_number 15
_symmetry_cell_setting 'monoclinic'
loop_
_space_group_symop_operation_xyz
x,y,z
-x,y,1/2-z
-x,-y,-z
x,-y,1/2+z
1/2+x,1/2+y,z
1/2-x,1/2+y,1/2-z
1/2-x,1/2-y,-z
1/2+x,1/2-y,1/2+z
loop_
_atom_site_type_symbol
_atom_site_label
_atom_site_fract_x
_atom_site_fract_y
_atom_site_fract_z
Si Si1 0.440973 0.019308 0.520369
Si Si2 0.920316 0.358107 0.514348
Si Si3 0.292762 0.510343 0.603312
Si Si4 0.950963 0.205262 0.518373
Si Si5 0.219550 0.306962 0.787406
Si Si6 0.210386 0.847220 0.185331
Si Si7 0.786754 0.418720 0.476317
Si Si8 0.540823 0.563703 0.805492
O O1 0.500000 0.041765 0.250000
O O2 0.373510 0.077404 0.714245
O O3 0.500000 0.000000 0.500000
O O4 0.394759 0.940558 0.620808
O O5 0.936612 0.292822 0.592024
O O6 0.869363 0.319876 0.516169
O O7 0.000000 0.376331 0.250000
O O8 0.299699 0.580482 0.693911
O O9 0.267200 0.544387 0.511792
O O10 0.370259 0.461489 0.414845
O O11 0.224920 0.465625 0.846505
O O12 0.871014 0.176286 0.664779
O O13 0.973190 0.144903 0.585516
O O14 0.000000 0.203285 0.250000
O O15 0.242619 0.221625 0.701061
O O16 0.246689 0.350043 0.573686
O O17 0.239714 0.338585 0.895373
O O18 0.500000 0.563121 0.750000
O O19 0.500000 0.500000 0.000000
#
# Coordination Sequence:
#
# PCOD9272868 Si02
#       8
#     8   8   8   8   8   8   8   8
#     4  11  22  38  60  88 119 156 199 245 298 358
#     4   9  18  35  59  83 112 152 196 236 288 353
#     4  12  24  38  60  88 121 160 202 252 308 366
#     4  10  20  37  61  84 111 153 199 244 295 356
#     4  10  21  38  62  87 117 156 198 247 299 361
#     4  10  21  39  61  87 118 155 200 245 301 367
#     4  12  23  38  61  91 125 160 204 253 305 365
#     4  12  24  39  59  86 120 158 202 251 303 361
#
# _framework density 21.873215999999999
#
# number of rings (size 3 to 8) (size 9 to 14) (size 15 to 20)
#    0.000    1.250    0.000    8.625    0.000    0.500 
#    0.000    0.625    0.000   16.500    0.000    0.875 
#    0.000    0.000    0.000    0.000    0.000    0.000 
#
# Total GULP energy -178317.996149 kJ/mol
# GULP energy per Si atom -5572.437380 kJ/mol
# Density = 2.182343 g / cm^3
# Si number density = 21.873216 Si / 1000 Ang^3
#
#
#
# Elastic Constant Matrix: (Units=GPa)
#
#
# Indices 1 2 3 4 5 6 
#
# 1 74.5660 0.7780 27.3590 0.0000 6.2395 0.0000
# 2 0.7780 77.9153 22.1359 0.0000 16.6346 0.0000
# 3 27.3590 22.1359 115.9351 0.0000 0.6017 0.0000
# 4 0.0000 0.0000 0.0000 24.9495 0.0000 5.1750
# 5 6.2395 16.6346 0.6017 0.0000 32.4061 0.0000
# 6 0.0000 0.0000 0.0000 5.1750 0.0000 29.5026
#
#
#
# Elastic Compliance Matrix: (Units=1/GPa)
#
#
# Indices 1 2 3 4 5 6 
#
# 1 0.015131 0.001751 -0.003886 0.000000 -0.003740 0.000000
# 2 0.001751 0.015524 -0.003335 0.000000 -0.008244 0.000000
# 3 -0.003886 -0.003335 0.010167 0.000000 0.002271 0.000000
# 4 0.000000 0.000000 0.000000 0.041594 0.000000 -0.007296
# 5 -0.003740 -0.008244 0.002271 0.000000 0.035768 0.000000
# 6 0.000000 0.000000 0.000000 -0.007296 0.000000 0.035175
#
#
# Mechanical properties :
#
#
# Convention : Reuss Voigt Hill
#
# Bulk Modulus (GPa) = 33.46141 40.99579 37.22860
# Shear Modulus (GPa) = 28.69267 31.91456 30.30361
#
# Velocity S-wave (km/s) = 3.62577 3.82392 3.72616
# Velocity P-wave (km/s) = 5.73231 6.18706 5.96402
#
# Compressibility (1/GPa) = 0.02988517
#
# Stress axis : x y z
#
# Youngs Moduli (GPa) = 66.08794 64.41454 98.35350
#
# Poissons Ratio (x) = -0.11282 0.38218
# Poissons Ratio (y) = -0.11575 0.32797
# Poissons Ratio (z) = 0.25680 0.21480
#
# Static dielectric constant tensor:
#      x y z
#    x 1.822330 0.000000 -0.005350 
#    y 0.000000 2.012550 0.000000 
#    z -0.005350 0.000000 1.781420 
# 
# From -- ./inp_files/70591.got.cif
#   From: 2010.05.17/outbox.cif.g08.bks.cpg/sg15_36_cif.got.tgz:70591.got - 2010.06.03 18:47:42.
