data_PCOD9272226
_publ_section_title
;
Structure prediction by ZEFSAII (Michael W. Deem and Ramdas Pophale) SiO2 
 PCOD9272226
Probable space group: C 2/C
;
_chemical_formula_sum "Si O2"
_cell_formula_units_Z 44
_cell_length_a 6.401320
_cell_length_b 14.220749
_cell_length_c 22.896324
_cell_angle_alpha 90.000000
_cell_angle_beta 55.317991
_cell_angle_gamma 90.000000
_cell_volume 1713.957621
_symmetry_space_group_name_H-M "C 2/C"
_symmetry_group_IT_number 15
_symmetry_cell_setting 'monoclinic'
loop_
_space_group_symop_operation_xyz
x,y,z
-x,y,1/2-z
-x,-y,-z
x,-y,1/2+z
1/2+x,1/2+y,z
1/2-x,1/2+y,1/2-z
1/2-x,1/2-y,-z
1/2+x,1/2-y,1/2+z
loop_
_atom_site_type_symbol
_atom_site_label
_atom_site_fract_x
_atom_site_fract_y
_atom_site_fract_z
Si Si1 0.446541 0.674477 0.604396
Si Si2 0.612236 0.701401 0.443923
Si Si3 0.050966 0.177100 0.151424
Si Si4 0.251693 0.008256 0.683843
Si Si5 0.234148 0.002806 0.917700
Si Si6 0.500000 0.893798 0.750000
O O1 0.506998 0.695923 0.526143
O O2 0.701076 0.710567 0.594282
O O3 0.204557 0.739042 0.657559
O O4 0.381929 0.564429 0.616870
O O5 0.410426 0.686576 0.424614
O O6 0.785585 0.608406 0.408627
O O7 0.148049 0.079147 0.162382
O O8 0.746851 0.172713 0.204876
O O9 0.403532 0.965343 0.715173
O O10 0.000000 0.058638 0.750000
O O11 0.495394 0.051734 0.611138
O O12 0.000000 0.000000 0.000000
#
# Coordination Sequence:
#
# PCOD9272226 Si02
#       6
#     8   8   8   8   8   4
#     4  10  21  36  60  88 123 162 205 266 324 391
#     4  10  20  39  59  86 126 160 204 266 329 392
#     4  11  19  37  62  87 116 158 213 256 326 387
#     4  10  21  39  66  86 121 170 215 268 331 404
#     4  10  20  40  62  89 127 170 213 267 332 398
#     4  10  20  36  66  84 116 170 208 258 336 396
#
# _framework density 25.671579999999999
#
# number of rings (size 3 to 8) (size 9 to 14) (size 15 to 20)
#    0.000    1.818    3.636    0.545    0.000    0.000 
#    4.909    1.818    6.000    0.000    0.000    0.000 
#    0.000    0.000    0.000    0.000    0.000    0.000 
#
# Total GULP energy -122576.303240 kJ/mol
# GULP energy per Si atom -5571.650147 kJ/mol
# Density = 2.561315 g / cm^3
# Si number density = 25.671580 Si / 1000 Ang^3
#
#
#
# Elastic Constant Matrix: (Units=GPa)
#
#
# Indices 1 2 3 4 5 6 
#
# 1 127.2967 37.3487 46.7554 -0.0004 -7.4033 -0.0009
# 2 37.3487 66.8014 6.9529 0.0001 -19.5605 -0.0004
# 3 46.7554 6.9529 77.3816 -0.0002 -31.7608 -0.0006
# 4 -0.0004 0.0001 -0.0002 14.8460 0.0001 -7.6363
# 5 -7.4033 -19.5605 -31.7608 0.0001 55.4661 0.0006
# 6 -0.0009 -0.0004 -0.0006 -7.6363 0.0006 50.2243
#
#
#
# Elastic Compliance Matrix: (Units=1/GPa)
#
#
# Indices 1 2 3 4 5 6 
#
# 1 0.013925 -0.008829 -0.010635 0.000000 -0.007345 0.000000
# 2 -0.008829 0.022377 0.007947 0.000000 0.011264 0.000000
# 3 -0.010635 0.007947 0.025102 0.000000 0.015757 0.000000
# 4 0.000000 0.000000 0.000000 0.073073 0.000000 0.011110
# 5 -0.007345 0.011264 0.015757 0.000000 0.030044 0.000000
# 6 0.000000 0.000000 0.000000 0.011110 0.000000 0.021600
#
#
# Mechanical properties :
#
#
# Convention : Reuss Voigt Hill
#
# Bulk Modulus (GPa) = 26.06175 50.39929 38.23052
# Shear Modulus (GPa) = 22.52791 36.13546 29.33168
#
# Velocity S-wave (km/s) = 2.96555 3.75588 3.38387
# Velocity P-wave (km/s) = 4.67974 6.20353 5.49471
#
# Compressibility (1/GPa) = 0.03837041
#
# Stress axis : x y z
#
# Youngs Moduli (GPa) = 71.81155 44.68805 39.83684
#
# Poissons Ratio (x) = 0.39457 0.42368
# Poissons Ratio (y) = 0.63406 -0.31660
# Poissons Ratio (z) = 0.76374 -0.35516
#
# Static dielectric constant tensor:
#      x y z
#    x 2.061890 0.000000 -0.011210 
#    y 0.000000 2.065050 0.000000 
#    z -0.011210 0.000000 2.315900 
# 
# From -- ./inp_files/285529.got.cif
#   From: 2010.05.17/outbox.cif.g08.bks.cpg/sg15_143_cif.got.tgz:285529.got - 2010.06.03 18:47:42.
