data_PCOD9272274
_publ_section_title
;
Structure prediction by ZEFSAII (Michael W. Deem and Ramdas Pophale) SiO2 
 PCOD9272274
Probable space group: C 2/C
;
_chemical_formula_sum "Si O2"
_cell_formula_units_Z 44
_cell_length_a 19.877913
_cell_length_b 9.786154
_cell_length_c 14.256536
_cell_angle_alpha 90.000000
_cell_angle_beta 53.008841
_cell_angle_gamma 90.000000
_cell_volume 2215.113343
_symmetry_space_group_name_H-M "C 2/C"
_symmetry_group_IT_number 15
_symmetry_cell_setting 'monoclinic'
loop_
_space_group_symop_operation_xyz
x,y,z
-x,y,1/2-z
-x,-y,-z
x,-y,1/2+z
1/2+x,1/2+y,z
1/2-x,1/2+y,1/2-z
1/2-x,1/2-y,-z
1/2+x,1/2-y,1/2+z
loop_
_atom_site_type_symbol
_atom_site_label
_atom_site_fract_x
_atom_site_fract_y
_atom_site_fract_z
Si Si1 0.220557 0.844218 0.939131
Si Si2 0.740603 0.666282 0.912204
Si Si3 0.000000 0.529664 0.250000
Si Si4 0.459632 0.762097 0.936428
Si Si5 0.643585 0.212847 0.329746
Si Si6 0.602902 0.902766 0.328512
O O1 0.276292 0.783868 0.806883
O O2 0.240108 0.004548 0.934275
O O3 0.250000 0.750000 0.000000
O O4 0.119865 0.836574 0.007816
O O5 0.663223 0.716764 0.912401
O O6 0.819770 0.683770 0.775920
O O7 0.750000 0.750000 0.000000
O O8 0.052452 0.628456 0.137256
O O9 0.051854 0.439868 0.278298
O O10 0.559035 0.724644 0.852235
O O11 0.448269 0.827962 0.048284
O O12 0.628947 0.049404 0.350605
#
# Coordination Sequence:
#
# PCOD9272274 Si02
#       6
#     8   8   4   8   8   8
#     4  11  24  42  66  94 127 171 213 263 322 382
#     4  11  25  40  64  96 129 170 212 262 324 382
#     4  10  20  36  66  98 118 170 222 260 314 376
#     4  11  21  40  65  92 127 168 213 264 316 376
#     4  10  22  40  63  93 126 164 212 265 312 380
#     4  10  22  38  65  94 126 165 210 267 313 377
#
# _framework density 19.863544999999998
#
# number of rings (size 3 to 8) (size 9 to 14) (size 15 to 20)
#    0.000    1.455    1.818    5.455    7.636    0.727 
#    0.000    0.000    8.000    0.000    0.000    0.000 
#    0.000    0.000    0.000    0.000    0.000    0.000 
#
# Total GULP energy -122657.397436 kJ/mol
# GULP energy per Si atom -5575.336247 kJ/mol
# Density = 1.981833 g / cm^3
# Si number density = 19.863545 Si / 1000 Ang^3
#
#
#
# Elastic Constant Matrix: (Units=GPa)
#
#
# Indices 1 2 3 4 5 6 
#
# 1 95.1983 49.0190 57.4786 0.0000 16.8899 0.0000
# 2 49.0190 51.7698 46.3044 0.0000 21.1353 0.0000
# 3 57.4786 46.3044 98.0387 0.0000 9.1453 0.0000
# 4 0.0000 0.0000 0.0000 26.2404 0.0000 9.1570
# 5 16.8899 21.1353 9.1453 0.0000 44.1471 0.0000
# 6 0.0000 0.0000 0.0000 9.1570 0.0000 24.6000
#
#
#
# Elastic Compliance Matrix: (Units=1/GPa)
#
#
# Indices 1 2 3 4 5 6 
#
# 1 0.021986 -0.016365 -0.005208 0.000000 0.000502 0.000000
# 2 -0.016365 0.054974 -0.014785 0.000000 -0.016995 0.000000
# 3 -0.005208 -0.014785 0.019772 0.000000 0.004975 0.000000
# 4 0.000000 0.000000 0.000000 0.043799 0.000000 -0.016303
# 5 0.000502 -0.016995 0.004975 0.000000 0.029565 0.000000
# 6 0.000000 0.000000 0.000000 -0.016303 0.000000 0.046719
#
#
# Mechanical properties :
#
#
# Convention : Reuss Voigt Hill
#
# Bulk Modulus (GPa) = 41.63646 61.17897 51.40771
# Shear Modulus (GPa) = 16.80475 25.14449 20.97462
#
# Velocity S-wave (km/s) = 2.91178 3.56175 3.25304
# Velocity P-wave (km/s) = 5.68431 6.91240 6.32822
#
# Compressibility (1/GPa) = 0.02401741
#
# Stress axis : x y z
#
# Youngs Moduli (GPa) = 45.48321 18.19055 50.57633
#
# Poissons Ratio (x) = 0.29769 0.26339
# Poissons Ratio (y) = 0.74433 0.74775
# Poissons Ratio (z) = 0.23686 0.26894
#
# Static dielectric constant tensor:
#      x y z
#    x 1.768250 0.000000 -0.037730 
#    y 0.000000 1.688540 0.000000 
#    z -0.037730 0.000000 1.722970 
# 
# From -- ./inp_files/110715.got.cif
#   From: 2010.05.17/outbox.cif.g08.bks.cpg/sg15_56_cif.got.tgz:110715.got - 2010.06.03 18:47:42.
