data_PCOD9272541
_publ_section_title
;
Structure prediction by ZEFSAII (Michael W. Deem and Ramdas Pophale) SiO2 
 PCOD9272541
Probable space group: C 2/C
;
_chemical_formula_sum "Si O2"
_cell_formula_units_Z 44
_cell_length_a 16.983125
_cell_length_b 22.613596
_cell_length_c 7.937601
_cell_angle_alpha 90.000000
_cell_angle_beta 130.178596
_cell_angle_gamma 90.000000
_cell_volume 2329.115077
_symmetry_space_group_name_H-M "C 2/C"
_symmetry_group_IT_number 15
_symmetry_cell_setting 'monoclinic'
loop_
_space_group_symop_operation_xyz
x,y,z
-x,y,1/2-z
-x,-y,-z
x,-y,1/2+z
1/2+x,1/2+y,z
1/2-x,1/2+y,1/2-z
1/2-x,1/2-y,-z
1/2+x,1/2-y,1/2+z
loop_
_atom_site_type_symbol
_atom_site_label
_atom_site_fract_x
_atom_site_fract_y
_atom_site_fract_z
Si Si1 0.058165 0.555476 0.159745
Si Si2 0.920420 0.972190 0.521487
Si Si3 0.928410 0.320694 0.992172
Si Si4 0.000000 0.253989 0.750000
Si Si5 0.215083 0.800085 0.584417
Si Si6 0.210913 0.066205 0.948171
O O1 0.063605 0.609238 0.034930
O O2 0.174676 0.540639 0.375142
O O3 0.000000 0.574491 0.250000
O O4 0.000000 0.500000 0.000000
O O5 0.834505 0.936927 0.302148
O O6 0.863218 0.025493 0.539543
O O7 0.000000 0.000000 0.500000
O O8 0.000000 0.936876 0.750000
O O9 0.963720 0.291341 0.863218
O O10 0.807930 0.302593 0.848879
O O11 0.000000 0.305284 0.250000
O O12 0.903474 0.216176 0.546168
O O13 0.250000 0.750000 0.500000
O O14 0.214672 0.865945 0.508254
#
# Coordination Sequence:
#
# PCOD9272541 Si02
#       6
#     8   8   8   4   8   8
#     4  11  21  35  58  86 118 157 197 243 314 363
#     4   9  19  34  56  84 115 153 195 242 299 362
#     4  10  21  39  60  88 122 153 204 258 296 371
#     4  10  20  40  64  80 120 164 200 250 312 354
#     4   9  21  38  62  86 114 163 202 248 308 360
#     4  10  20  37  58  83 122 153 195 253 301 364
#
# _framework density 18.891293999999998
#
# number of rings (size 3 to 8) (size 9 to 14) (size 15 to 20)
#    0.000    2.182    0.909    1.636    3.818    2.182 
#    0.000    3.636    0.000    0.000    0.000    0.000 
#    0.000    0.000    0.000    0.000    0.000    0.000 
#
# Total GULP energy -122485.208465 kJ/mol
# GULP energy per Si atom -5567.509476 kJ/mol
# Density = 1.884830 g / cm^3
# Si number density = 18.891294 Si / 1000 Ang^3
#
#
#
# Elastic Constant Matrix: (Units=GPa)
#
#
# Indices 1 2 3 4 5 6 
#
# 1 65.5470 6.9422 39.2985 0.0000 21.8012 0.0000
# 2 6.9422 67.6288 49.3137 0.0000 16.4587 0.0000
# 3 39.2985 49.3137 208.0437 0.0000 23.1824 0.0000
# 4 0.0000 0.0000 0.0000 27.6335 0.0000 3.8058
# 5 21.8012 16.4587 23.1824 0.0000 37.1056 0.0000
# 6 0.0000 0.0000 0.0000 3.8058 0.0000 13.8238
#
#
#
# Elastic Compliance Matrix: (Units=1/GPa)
#
#
# Indices 1 2 3 4 5 6 
#
# 1 0.020773 0.003131 -0.003387 0.000000 -0.011478 0.000000
# 2 0.003131 0.019535 -0.004354 0.000000 -0.007784 0.000000
# 3 -0.003387 -0.004354 0.006494 0.000000 -0.000136 0.000000
# 4 0.000000 0.000000 0.000000 0.037614 0.000000 -0.010356
# 5 -0.011478 -0.007784 -0.000136 0.000000 0.037231 0.000000
# 6 0.000000 0.000000 0.000000 -0.010356 0.000000 0.075190
#
#
# Mechanical properties :
#
#
# Convention : Reuss Voigt Hill
#
# Bulk Modulus (GPa) = 26.61013 59.14761 42.87887
# Shear Modulus (GPa) = 22.87443 32.09026 27.48234
#
# Velocity S-wave (km/s) = 3.48349 4.12598 3.81827
# Velocity P-wave (km/s) = 5.50419 7.35362 6.49507
#
# Compressibility (1/GPa) = 0.03757968
#
# Stress axis : x y z
#
# Youngs Moduli (GPa) = 48.13987 51.19086 153.99454
#
# Poissons Ratio (x) = -0.16026 0.52158
# Poissons Ratio (y) = -0.15071 0.67056
# Poissons Ratio (z) = 0.16305 0.22291
#
# Static dielectric constant tensor:
#      x y z
#    x 1.682000 0.000000 0.002410 
#    y 0.000000 1.638690 0.000000 
#    z 0.002410 0.000000 1.726600 
# 
# From -- ./inp_files/40206.got.cif
#   From: 2010.05.17/outbox.cif.g08.bks.cpg/sg15_21_cif.got.tgz:40206.got - 2010.06.03 18:47:42.
