data_PCOD9272228
_publ_section_title
;
Structure prediction by ZEFSAII (Michael W. Deem and Ramdas Pophale) SiO2 
 PCOD9272228
Probable space group: C 2/C
;
_chemical_formula_sum "Si O2"
_cell_formula_units_Z 48
_cell_length_a 15.209115
_cell_length_b 19.780723
_cell_length_c 13.844507
_cell_angle_alpha 90.000000
_cell_angle_beta 141.667196
_cell_angle_gamma 90.000000
_cell_volume 2583.301760
_symmetry_space_group_name_H-M "C 2/C"
_symmetry_group_IT_number 15
_symmetry_cell_setting 'monoclinic'
loop_
_space_group_symop_operation_xyz
x,y,z
-x,y,1/2-z
-x,-y,-z
x,-y,1/2+z
1/2+x,1/2+y,z
1/2-x,1/2+y,1/2-z
1/2-x,1/2-y,-z
1/2+x,1/2-y,1/2+z
loop_
_atom_site_type_symbol
_atom_site_label
_atom_site_fract_x
_atom_site_fract_y
_atom_site_fract_z
Si Si1 0.839848 0.478090 0.078296
Si Si2 0.937110 0.899281 0.596014
Si Si3 0.198973 0.008485 0.263156
Si Si4 0.413294 0.638084 0.861976
Si Si5 0.853143 0.263290 0.678169
Si Si6 0.271866 0.597202 0.400483
O O1 0.792520 0.553826 0.068082
O O2 0.000000 0.465053 0.250000
O O3 0.719751 0.428598 0.019813
O O4 0.816013 0.474281 0.943431
O O5 0.936565 0.854949 0.497936
O O6 0.000000 0.868620 0.750000
O O7 0.046944 0.961021 0.667919
O O8 0.231744 0.046744 0.192920
O O9 0.181164 0.928892 0.232592
O O10 0.353558 0.703143 0.756318
O O11 0.565519 0.619788 0.945993
O O12 0.750000 0.250000 0.500000
O O13 0.813833 0.334622 0.691521
O O14 0.000000 0.268188 0.750000
#
# Coordination Sequence:
#
# PCOD9272228 Si02
#       6
#     8   8   8   8   8   8
#     4  11  21  34  54  90 127 147 192 256 310 350
#     4   9  18  36  63  88 111 151 207 255 297 348
#     4  10  20  36  66  85 112 164 210 253 291 352
#     4  11  20  39  64  87 117 161 213 252 289 361
#     4  12  25  40  60  90 130 166 194 239 311 374
#     4  11  21  40  59  90 121 158 209 245 304 358
#
# _framework density 18.580871999999999
#
# number of rings (size 3 to 8) (size 9 to 14) (size 15 to 20)
#    0.000    1.333    5.000    2.500    0.000    0.667 
#    3.000    0.000    0.000   10.000    0.000    0.000 
#    0.000    0.000    0.000    0.000    0.000    0.000 
#
# Total GULP energy -133959.564515 kJ/mol
# GULP energy per Si atom -5581.648521 kJ/mol
# Density = 1.853858 g / cm^3
# Si number density = 18.580872 Si / 1000 Ang^3
#
#
#
# Elastic Constant Matrix: (Units=GPa)
#
#
# Indices 1 2 3 4 5 6 
#
# 1 40.9592 23.9397 32.3215 0.0000 -2.6918 0.0000
# 2 23.9397 95.0984 27.0759 0.0000 -0.3505 0.0000
# 3 32.3215 27.0759 122.5826 0.0000 5.9988 0.0000
# 4 0.0000 0.0000 0.0000 28.8746 0.0000 -2.1224
# 5 -2.6918 -0.3505 5.9988 0.0000 26.7354 0.0000
# 6 0.0000 0.0000 0.0000 -2.1224 0.0000 17.9026
#
#
#
# Elastic Compliance Matrix: (Units=1/GPa)
#
#
# Indices 1 2 3 4 5 6 
#
# 1 0.034872 -0.006476 -0.008020 0.000000 0.005226 0.000000
# 2 -0.006476 0.012437 -0.001027 0.000000 -0.000259 0.000000
# 3 -0.008020 -0.001027 0.010656 0.000000 -0.003212 0.000000
# 4 0.000000 0.000000 0.000000 0.034937 0.000000 0.004142
# 5 0.005226 -0.000259 -0.003212 0.000000 0.038647 0.000000
# 6 0.000000 0.000000 0.000000 0.004142 0.000000 0.056349
#
#
# Mechanical properties :
#
#
# Convention : Reuss Voigt Hill
#
# Bulk Modulus (GPa) = 37.14760 47.25713 42.20236
# Shear Modulus (GPa) = 21.93784 26.38938 24.16361
#
# Velocity S-wave (km/s) = 3.43981 3.77270 3.61010
# Velocity P-wave (km/s) = 5.98433 6.66829 6.33555
#
# Compressibility (1/GPa) = 0.02691964
#
# Stress axis : x y z
#
# Youngs Moduli (GPa) = 28.67663 80.40498 93.84011
#
# Poissons Ratio (x) = 0.52068 0.75260
# Poissons Ratio (y) = 0.18570 0.09637
# Poissons Ratio (z) = 0.22999 0.08257
#
# Static dielectric constant tensor:
#      x y z
#    x 1.663970 0.000000 -0.014640 
#    y 0.000000 1.627850 0.000000 
#    z -0.014640 0.000000 1.649510 
# 
# From -- ./inp_files/48366.got.cif
#   From: 2010.05.17/outbox.cif.g08.bks.cpg/sg15_25_cif.got.tgz:48366.got - 2010.06.03 18:47:42.
