data_PCOD9272191
_publ_section_title
;
Structure prediction by ZEFSAII (Michael W. Deem and Ramdas Pophale) SiO2 
 PCOD9272191
Probable space group: C 2/C
;
_chemical_formula_sum "Si O2"
_cell_formula_units_Z 60
_cell_length_a 29.975567
_cell_length_b 19.959585
_cell_length_c 8.729609
_cell_angle_alpha 90.000000
_cell_angle_beta 148.011593
_cell_angle_gamma 90.000000
_cell_volume 2766.831779
_symmetry_space_group_name_H-M "C 2/C"
_symmetry_group_IT_number 15
_symmetry_cell_setting 'monoclinic'
loop_
_space_group_symop_operation_xyz
x,y,z
-x,y,1/2-z
-x,-y,-z
x,-y,1/2+z
1/2+x,1/2+y,z
1/2-x,1/2+y,1/2-z
1/2-x,1/2-y,-z
1/2+x,1/2-y,1/2+z
loop_
_atom_site_type_symbol
_atom_site_label
_atom_site_fract_x
_atom_site_fract_y
_atom_site_fract_z
Si Si1 0.216805 0.835128 0.122599
Si Si2 0.142892 0.220801 0.968382
Si Si3 0.850354 0.253513 0.842148
Si Si4 0.423877 0.001499 0.627820
Si Si5 0.500000 0.773779 0.750000
Si Si6 0.798167 0.544899 0.003253
Si Si7 0.264415 0.401547 0.647021
Si Si8 0.916345 0.364110 0.253752
O O1 0.284276 0.776097 0.284747
O O2 0.141432 0.797390 0.990230
O O3 0.251312 0.885917 0.350987
O O4 0.207726 0.879023 0.942483
O O5 0.183265 0.147124 0.089962
O O6 0.106925 0.236254 0.694666
O O7 0.076053 0.229505 0.908161
O O8 0.750000 0.250000 0.500000
O O9 0.884321 0.322095 0.013412
O O10 0.500000 0.973071 0.750000
O O11 0.353437 0.033602 0.312929
O O12 0.456800 0.065943 0.817676
O O13 0.366605 0.955286 0.566028
O O14 0.473659 0.820234 0.530848
O O15 0.735822 0.480546 0.816683
O O16 0.166546 0.382871 0.389193
#
# Coordination Sequence:
#
# PCOD9272191 Si02
#       8
#     8   8   8   8   4   8   8   8
#     4  11  20  37  62  87 120 157 213 264 309 361
#     4  11  23  39  64  92 123 165 209 267 323 376
#     4  10  20  36  65  89 117 156 213 272 315 355
#     4  11  24  39  55  80 131 173 212 245 310 376
#     4  12  26  38  60  96 134 168 208 256 328 392
#     4  11  24  39  58  88 123 167 216 260 313 376
#     4  11  21  41  60  86 124 167 219 265 310 370
#     4  11  23  39  59  90 125 171 211 260 309 376
#
# _framework density 21.685452000000002
#
# number of rings (size 3 to 8) (size 9 to 14) (size 15 to 20)
#    0.000    1.067    5.333    3.200    5.600    0.000 
#    6.000    0.000    0.000    0.000    0.000    8.400 
#    0.000    0.000    0.000    0.000    0.000    0.000 
#
# Total GULP energy -167683.800762 kJ/mol
# GULP energy per Si atom -5589.460025 kJ/mol
# Density = 2.163610 g / cm^3
# Si number density = 21.685452 Si / 1000 Ang^3
#
#
#
# Elastic Constant Matrix: (Units=GPa)
#
#
# Indices 1 2 3 4 5 6 
#
# 1 88.7598 18.6241 -5.4696 0.0000 -8.4804 0.0000
# 2 18.6241 105.8705 10.5277 0.0000 12.1414 0.0000
# 3 -5.4696 10.5277 34.6323 0.0000 -14.8534 0.0000
# 4 0.0000 0.0000 0.0000 22.6802 0.0000 -11.4285
# 5 -8.4804 12.1414 -14.8534 0.0000 29.1979 0.0000
# 6 0.0000 0.0000 0.0000 -11.4285 0.0000 21.1977
#
#
#
# Elastic Compliance Matrix: (Units=1/GPa)
#
#
# Indices 1 2 3 4 5 6 
#
# 1 0.013516 -0.004209 0.007481 0.000000 0.009482 0.000000
# 2 -0.004209 0.012358 -0.009145 0.000000 -0.011014 0.000000
# 3 0.007481 -0.009145 0.045278 0.000000 0.029009 0.000000
# 4 0.000000 0.000000 0.000000 0.060537 0.000000 0.032638
# 5 0.009482 -0.011014 0.029009 0.000000 0.056340 0.000000
# 6 0.000000 0.000000 0.000000 0.032638 0.000000 0.064771
#
#
# Mechanical properties :
#
#
# Convention : Reuss Voigt Hill
#
# Bulk Modulus (GPa) = 16.83334 30.73631 23.78483
# Shear Modulus (GPa) = 17.58391 28.32052 22.95222
#
# Velocity S-wave (km/s) = 2.85065 3.61774 3.25686
# Velocity P-wave (km/s) = 4.31443 5.62629 5.01346
#
# Compressibility (1/GPa) = 0.05940591
#
# Stress axis : x y z
#
# Youngs Moduli (GPa) = 73.98415 80.91660 22.08576
#
# Poissons Ratio (x) = 0.34058 -0.16522
# Poissons Ratio (y) = 0.31140 0.20198
# Poissons Ratio (z) = -0.55345 0.74000
#
# Static dielectric constant tensor:
#      x y z
#    x 1.834850 0.000000 -0.057460 
#    y 0.000000 1.792910 0.000000 
#    z -0.057460 0.000000 1.858850 
# 
# From -- ./inp_files/70778.got.cif
#   From: 2010.05.17/outbox.cif.g08.bks.cpg/sg15_36_cif.got.tgz:70778.got - 2010.06.03 18:47:42.
