data_PCOD9272620
_publ_section_title
;
Structure prediction by ZEFSAII (Michael W. Deem and Ramdas Pophale) SiO2 
 PCOD9272620
Probable space group: C 2/C
;
_chemical_formula_sum "Si O2"
_cell_formula_units_Z 48
_cell_length_a 32.012150
_cell_length_b 13.886257
_cell_length_c 8.164041
_cell_angle_alpha 90.000000
_cell_angle_beta 146.955691
_cell_angle_gamma 90.000000
_cell_volume 1978.931309
_symmetry_space_group_name_H-M "C 2/C"
_symmetry_group_IT_number 15
_symmetry_cell_setting 'monoclinic'
loop_
_space_group_symop_operation_xyz
x,y,z
-x,y,1/2-z
-x,-y,-z
x,-y,1/2+z
1/2+x,1/2+y,z
1/2-x,1/2+y,1/2-z
1/2-x,1/2-y,-z
1/2+x,1/2-y,1/2+z
loop_
_atom_site_type_symbol
_atom_site_label
_atom_site_fract_x
_atom_site_fract_y
_atom_site_fract_z
Si Si1 0.726726 0.117209 0.114965
Si Si2 0.095054 0.619166 0.304686
Si Si3 0.088348 0.901293 0.738687
Si Si4 0.500000 0.243222 0.250000
Si Si5 0.857757 0.447439 0.858389
Si Si6 0.775422 0.160139 0.956542
Si Si7 0.000000 0.937730 0.750000
O O1 0.709303 0.099144 0.249678
O O2 0.704092 0.229311 0.013530
O O3 0.796641 0.123218 0.210974
O O4 0.678872 0.030064 0.877272
O O5 0.087128 0.509474 0.343496
O O6 0.094709 0.621157 0.106327
O O7 0.184435 0.648895 0.632015
O O8 0.039835 0.682108 0.236623
O O9 0.056096 0.883393 0.812349
O O10 0.060313 0.814519 0.532414
O O11 0.179226 0.905413 0.021733
O O12 0.052359 0.996030 0.539047
#
# Coordination Sequence:
#
# PCOD9272620 Si02
#       7
#     8   8   8   4   8   8   4
#     4   9  18  33  54  80 111 141 181 229 274 318
#     4  10  22  38  57  83 113 147 187 229 277 329
#     4  10  21  39  60  82 113 149 185 227 278 332
#     4  11  22  38  58  81 114 150 184 229 280 330
#     4   9  19  36  54  79 111 145 183 226 275 326
#     4  10  20  37  59  83 112 146 186 231 274 327
#     4   9  22  40  58  85 114 146 184 227 280 334
#
# _framework density 24.255514999999999
#
# number of rings (size 3 to 8) (size 9 to 14) (size 15 to 20)
#    0.000    2.333    0.000    3.000    0.000    8.000 
#    0.000    8.333    0.000    0.000    0.000    0.000 
#    0.000    0.000    0.000    0.000    0.000    0.000 
#
# Total GULP energy -133633.476781 kJ/mol
# GULP energy per Si atom -5568.061533 kJ/mol
# Density = 2.420031 g / cm^3
# Si number density = 24.255515 Si / 1000 Ang^3
#
#
#
# Elastic Constant Matrix: (Units=GPa)
#
#
# Indices 1 2 3 4 5 6 
#
# 1 209.7100 42.8143 22.0089 0.0000 -9.4793 0.0000
# 2 42.8143 58.0502 6.7586 0.0000 -5.0414 0.0000
# 3 22.0089 6.7586 43.1501 0.0000 11.6083 0.0000
# 4 0.0000 0.0000 0.0000 -23.3266 0.0000 -0.4949
# 5 -9.4793 -5.0414 11.6083 0.0000 34.0419 0.0000
# 6 0.0000 0.0000 0.0000 -0.4949 0.0000 34.6681
#
#
#
# Elastic Compliance Matrix: (Units=1/GPa)
#
#
# Indices 1 2 3 4 5 6 
#
# 1 0.005970 -0.003869 -0.003008 0.000000 0.002115 0.000000
# 2 -0.003869 0.020535 -0.001950 0.000000 0.002629 0.000000
# 3 -0.003008 -0.001950 0.027875 0.000000 -0.010632 0.000000
# 4 0.000000 0.000000 0.000000 -0.042857 0.000000 -0.000612
# 5 0.002115 0.002629 -0.010632 0.000000 0.033979 0.000000
# 6 0.000000 0.000000 0.000000 -0.000612 0.000000 0.028836
#
#
# Mechanical properties :
#
#
# Convention : Reuss Voigt Hill
#
# Bulk Modulus (GPa) = 27.22902 50.45267 38.84085
# Shear Modulus (GPa) = 47.96870 25.03191 36.50030
#
# Velocity S-wave (km/s) = 4.45189 3.21598 3.88342
# Velocity P-wave (km/s) = 6.13808 5.88521 6.01297
#
# Compressibility (1/GPa) = 0.03672552
#
# Stress axis : x y z
#
# Youngs Moduli (GPa) = 167.51394 48.69651 35.87482
#
# Poissons Ratio (x) = 0.18841 0.10791
# Poissons Ratio (y) = 0.64811 0.06997
# Poissons Ratio (z) = 0.50385 0.09497
#
# Static dielectric constant tensor:
#      x y z
#    x 2.098870 0.000000 0.005370 
#    y 0.000000 1.960860 0.000000 
#    z 0.005370 0.000000 2.038220 
# 
# From -- ./inp_files/70036.got.cif
#   From: 2010.05.17/outbox.cif.g08.bks.cpg/sg15_36_cif.got.tgz:70036.got - 2010.06.03 18:47:42.
