data_PCOD9272762
_publ_section_title
;
Structure prediction by ZEFSAII (Michael W. Deem and Ramdas Pophale) SiO2 
 PCOD9272762
Probable space group: C 2/C
;
_chemical_formula_sum "Si O2"
_cell_formula_units_Z 56
_cell_length_a 20.573539
_cell_length_b 8.860581
_cell_length_c 17.826813
_cell_angle_alpha 90.000000
_cell_angle_beta 115.661234
_cell_angle_gamma 90.000000
_cell_volume 2929.193904
_symmetry_space_group_name_H-M "C 2/C"
_symmetry_group_IT_number 15
_symmetry_cell_setting 'monoclinic'
loop_
_space_group_symop_operation_xyz
x,y,z
-x,y,1/2-z
-x,-y,-z
x,-y,1/2+z
1/2+x,1/2+y,z
1/2-x,1/2+y,1/2-z
1/2-x,1/2-y,-z
1/2+x,1/2-y,1/2+z
loop_
_atom_site_type_symbol
_atom_site_label
_atom_site_fract_x
_atom_site_fract_y
_atom_site_fract_z
Si Si1 0.302869 0.521838 0.871184
Si Si2 0.614231 0.243603 0.603026
Si Si3 0.917288 0.444435 0.551506
Si Si4 0.209110 0.325058 0.549883
Si Si5 0.730485 0.422326 0.316650
Si Si6 0.453323 0.092109 0.796821
Si Si7 0.842014 0.365790 0.660645
O O1 0.371732 0.414645 0.914020
O O2 0.311526 0.691011 0.903771
O O3 0.283240 0.517875 0.773442
O O4 0.235428 0.448578 0.881812
O O5 0.572564 0.151774 0.518281
O O6 0.692860 0.164209 0.645332
O O7 0.580740 0.219841 0.668008
O O8 0.862680 0.583747 0.509104
O O9 0.876351 0.350104 0.595779
O O10 0.991617 0.500370 0.623362
O O11 0.250000 0.250000 0.500000
O O12 0.260628 0.443107 0.619318
O O13 0.671937 0.296573 0.309647
O O14 0.500000 0.150209 0.750000
O O15 0.393439 0.977023 0.734303
#
# Coordination Sequence:
#
# PCOD9272762 Si02
#       7
#     8   8   8   8   8   8   8
#     4  11  21  36  60  89 123 152 199 255 309 367
#     4  10  21  36  60  87 115 154 200 251 304 355
#     4  10  22  37  60  85 119 162 203 249 305 375
#     4  11  22  36  59  94 123 159 196 258 313 359
#     4  10  22  34  61  87 122 153 199 252 310 367
#     4  10  21  39  63  84 118 165 212 248 302 378
#     4  10  20  37  60  87 116 156 203 252 304 361
#
# _framework density 19.117887
#
# number of rings (size 3 to 8) (size 9 to 14) (size 15 to 20)
#    0.000    1.714    2.857    2.143    4.000    1.714 
#    0.000    0.714    0.000    0.857    0.000    0.000 
#    0.000    0.000    0.000    0.000    0.000    0.000 
#
# Total GULP energy -156344.842581 kJ/mol
# GULP energy per Si atom -5583.744378 kJ/mol
# Density = 1.907437 g / cm^3
# Si number density = 19.117887 Si / 1000 Ang^3
#
#
#
# Elastic Constant Matrix: (Units=GPa)
#
#
# Indices 1 2 3 4 5 6 
#
# 1 69.3010 25.6567 15.7632 0.0000 -16.9303 0.0000
# 2 25.6567 69.6078 5.1719 0.0000 -9.5097 0.0000
# 3 15.7632 5.1719 58.7693 0.0000 -11.5044 0.0000
# 4 0.0000 0.0000 0.0000 20.9560 0.0000 -9.9361
# 5 -16.9303 -9.5097 -11.5044 0.0000 24.5650 0.0000
# 6 0.0000 0.0000 0.0000 -9.9361 0.0000 18.0185
#
#
#
# Elastic Compliance Matrix: (Units=1/GPa)
#
#
# Indices 1 2 3 4 5 6 
#
# 1 0.019605 -0.005650 -0.002801 0.000000 0.010013 0.000000
# 2 -0.005650 0.016799 0.000603 0.000000 0.002892 0.000000
# 3 -0.002801 0.000603 0.019136 0.000000 0.007265 0.000000
# 4 0.000000 0.000000 0.000000 0.064613 0.000000 0.035630
# 5 0.010013 0.002892 0.007265 0.000000 0.052131 0.000000
# 6 0.000000 0.000000 0.000000 0.035630 0.000000 0.075146
#
#
# Mechanical properties :
#
#
# Convention : Reuss Voigt Hill
#
# Bulk Modulus (GPa) = 25.09810 32.31798 28.70804
# Shear Modulus (GPa) = 18.08925 22.78031 20.43478
#
# Velocity S-wave (km/s) = 3.07937 3.45566 3.27292
# Velocity P-wave (km/s) = 5.07936 5.73266 5.41587
#
# Compressibility (1/GPa) = 0.03984365
#
# Stress axis : x y z
#
# Youngs Moduli (GPa) = 51.00789 59.52722 52.25730
#
# Poissons Ratio (x) = 0.33634 0.14638
# Poissons Ratio (y) = 0.28820 -0.03152
# Poissons Ratio (z) = 0.14288 -0.03591
#
# Static dielectric constant tensor:
#      x y z
#    x 1.668670 0.000000 -0.012420 
#    y 0.000000 1.654920 0.000000 
#    z -0.012420 0.000000 1.666660 
# 
# From -- ./inp_files/209624.got.cif
#   From: 2010.05.17/outbox.cif.g08.bks.cpg/sg15_105_cif.got.tgz:209624.got - 2010.06.03 18:47:42.
