data_PCOD9272638
_publ_section_title
;
Structure prediction by ZEFSAII (Michael W. Deem and Ramdas Pophale) SiO2 
 PCOD9272638
Probable space group: C 2/C
;
_chemical_formula_sum "Si O2"
_cell_formula_units_Z 40
_cell_length_a 8.547095
_cell_length_b 27.544305
_cell_length_c 8.478041
_cell_angle_alpha 90.000000
_cell_angle_beta 85.622383
_cell_angle_gamma 90.000000
_cell_volume 1990.109717
_symmetry_space_group_name_H-M "C 2/C"
_symmetry_group_IT_number 15
_symmetry_cell_setting 'monoclinic'
loop_
_space_group_symop_operation_xyz
x,y,z
-x,y,1/2-z
-x,-y,-z
x,-y,1/2+z
1/2+x,1/2+y,z
1/2-x,1/2+y,1/2-z
1/2-x,1/2-y,-z
1/2+x,1/2-y,1/2+z
loop_
_atom_site_type_symbol
_atom_site_label
_atom_site_fract_x
_atom_site_fract_y
_atom_site_fract_z
Si Si1 0.058895 0.050336 0.925940
Si Si2 0.431928 0.951089 0.430557
Si Si3 0.056699 0.350961 0.429600
Si Si4 0.429502 0.349513 0.430362
Si Si5 0.564618 0.749165 0.062837
O O1 0.245288 0.050371 0.930587
O O2 0.000000 0.050577 0.750000
O O3 0.990654 0.100363 0.003235
O O4 0.000000 0.000000 0.000000
O O5 0.500000 0.950758 0.250000
O O6 0.488670 0.900811 0.505824
O O7 0.500000 0.000000 0.500000
O O8 0.243149 0.351826 0.427978
O O9 0.000000 0.351005 0.250000
O O10 0.998440 0.299963 0.503508
O O11 0.500000 0.348259 0.250000
O O12 0.489466 0.300298 0.504523
O O13 0.500000 0.750330 0.250000
O O14 0.750000 0.750000 0.000000
#
# Coordination Sequence:
#
# PCOD9272638 Si02
#       5
#     8   8   8   8   8
#     4  11  22  38  60  87 118 158 202 249 301 361
#     4  11  21  38  59  84 116 154 195 243 297 356
#     4  10  20  37  59  85 116 155 196 242 298 360
#     4  11  21  38  62  89 119 159 202 250 306 364
#     4  11  23  41  63  91 124 162 204 254 307 365
#
# _framework density 20.099394
#
# number of rings (size 3 to 8) (size 9 to 14) (size 15 to 20)
#    0.000    1.200    0.000   11.400    0.000    0.800 
#    0.000    7.000    0.000    0.000    0.000    0.000 
#    0.000    0.000    0.000    0.000    0.000    0.000 
#
# Total GULP energy -111573.440029 kJ/mol
# GULP energy per Si atom -5578.672001 kJ/mol
# Density = 2.005365 g / cm^3
# Si number density = 20.099394 Si / 1000 Ang^3
#
#
#
# Elastic Constant Matrix: (Units=GPa)
#
#
# Indices 1 2 3 4 5 6 
#
# 1 260.3402 112.7824 24.6182 0.0000 -2.7312 0.0000
# 2 112.7824 269.2435 45.1916 0.0000 8.3142 0.0000
# 3 24.6182 45.1916 33.7656 0.0000 -3.7491 0.0000
# 4 0.0000 0.0000 0.0000 32.1062 0.0000 3.3269
# 5 -2.7312 8.3142 -3.7491 0.0000 26.8065 0.0000
# 6 0.0000 0.0000 0.0000 3.3269 0.0000 47.9484
#
#
#
# Elastic Compliance Matrix: (Units=1/GPa)
#
#
# Indices 1 2 3 4 5 6 
#
# 1 0.004743 -0.001874 -0.000844 0.000000 0.000946 0.000000
# 2 -0.001874 0.005691 -0.006569 0.000000 -0.002875 0.000000
# 3 -0.000844 -0.006569 0.039859 0.000000 0.007526 0.000000
# 4 0.000000 0.000000 0.000000 0.031372 0.000000 -0.002177
# 5 0.000946 -0.002875 0.007526 0.000000 0.039345 0.000000
# 6 0.000000 0.000000 0.000000 -0.002177 0.000000 0.021007
#
#
# Mechanical properties :
#
#
# Convention : Reuss Voigt Hill
#
# Bulk Modulus (GPa) = 31.52854 103.17040 67.34947
# Shear Modulus (GPa) = 29.21179 46.75601 37.98390
#
# Velocity S-wave (km/s) = 3.81644 4.82834 4.35190
# Velocity P-wave (km/s) = 5.92796 9.08435 7.67027
#
# Compressibility (1/GPa) = 0.03171729
#
# Stress axis : x y z
#
# Youngs Moduli (GPa) = 210.84443 175.73127 25.08844
#
# Poissons Ratio (x) = 0.32935 0.02119
# Poissons Ratio (y) = 0.39516 0.16480
# Poissons Ratio (z) = 0.17805 1.15435
#
# Static dielectric constant tensor:
#      x y z
#    x 1.690820 0.000000 -0.022380 
#    y 0.000000 1.794150 0.000000 
#    z -0.022380 0.000000 1.717100 
# 
# From -- ./inp_files/23622.got.cif
#   From: 2010.05.17/outbox.cif.g08.bks.cpg/sg15_12_cif.got.tgz:23622.got - 2010.06.03 18:47:42.
