data_PCOD9272664
_publ_section_title
;
Structure prediction by ZEFSAII (Michael W. Deem and Ramdas Pophale) SiO2 
 PCOD9272664
Probable space group: C 2/C
;
_chemical_formula_sum "Si O2"
_cell_formula_units_Z 64
_cell_length_a 14.190319
_cell_length_b 30.967952
_cell_length_c 12.046801
_cell_angle_alpha 90.000000
_cell_angle_beta 36.035862
_cell_angle_gamma 90.000000
_cell_volume 3114.361057
_symmetry_space_group_name_H-M "C 2/C"
_symmetry_group_IT_number 15
_symmetry_cell_setting 'monoclinic'
loop_
_space_group_symop_operation_xyz
x,y,z
-x,y,1/2-z
-x,-y,-z
x,-y,1/2+z
1/2+x,1/2+y,z
1/2-x,1/2+y,1/2-z
1/2-x,1/2-y,-z
1/2+x,1/2-y,1/2+z
loop_
_atom_site_type_symbol
_atom_site_label
_atom_site_fract_x
_atom_site_fract_y
_atom_site_fract_z
Si Si1 0.330077 0.925709 0.738817
Si Si2 0.257274 0.199852 0.024272
Si Si3 0.591566 0.141052 0.051467
Si Si4 0.181137 0.073543 0.614636
Si Si5 0.189463 0.987960 0.316253
Si Si6 0.916992 0.336911 0.177575
Si Si7 0.769506 0.912409 0.067183
Si Si8 0.616763 0.623057 0.274509
O O1 0.495865 0.901391 0.599206
O O2 0.216363 0.889621 0.788640
O O3 0.299172 0.969591 0.701740
O O4 0.278784 0.937987 0.911837
O O5 0.422185 0.184697 0.928036
O O6 0.270023 0.181133 0.888420
O O7 0.250000 0.250000 0.000000
O O8 0.130360 0.172909 0.219319
O O9 0.500000 0.155835 0.250000
O O10 0.766531 0.122664 0.909162
O O11 0.591459 0.171134 0.944626
O O12 0.209906 0.043039 0.691584
O O13 0.000000 0.070551 0.750000
O O14 0.232873 0.960929 0.385575
O O15 0.000000 0.000000 0.500000
O O16 0.887824 0.387208 0.238355
O O17 0.800163 0.903359 0.907534
O O18 0.935784 0.893250 0.960514
#
# Coordination Sequence:
#
# PCOD9272664 Si02
#       8
#     8   8   8   8   8   8   8   8
#     4  11  23  36  58  86 122 173 216 276 322 371
#     4  10  22  39  67  98 127 157 201 262 332 409
#     4  10  22  41  61  88 121 170 218 261 314 381
#     4  11  22  38  58  82 119 160 228 267 315 373
#     4  12  22  34  57  86 124 168 223 281 318 361
#     4  10  20  40  64  89 128 161 200 251 319 391
#     4  10  21  34  55  87 121 168 212 256 315 381
#     4  10  20  37  59  87 126 167 211 258 330 392
#
# _framework density 20.549961
#
# number of rings (size 3 to 8) (size 9 to 14) (size 15 to 20)
#    0.000    1.500    5.000    0.000    1.750    4.500 
#    0.000    0.000    5.500    0.750    0.000    0.000 
#    0.000    0.000    0.000    0.000    0.000    0.000 
#
# Total GULP energy -178323.683417 kJ/mol
# GULP energy per Si atom -5572.615107 kJ/mol
# Density = 2.050319 g / cm^3
# Si number density = 20.549961 Si / 1000 Ang^3
#
#
#
# Elastic Constant Matrix: (Units=GPa)
#
#
# Indices 1 2 3 4 5 6 
#
# 1 66.6027 12.5731 14.2320 0.0000 16.8391 0.0000
# 2 12.5731 86.3600 6.1813 0.0000 4.8695 0.0000
# 3 14.2320 6.1813 56.5805 0.0000 21.4025 0.0000
# 4 0.0000 0.0000 0.0000 15.0466 0.0000 1.9107
# 5 16.8391 4.8695 21.4025 0.0000 42.3828 0.0000
# 6 0.0000 0.0000 0.0000 1.9107 0.0000 17.1111
#
#
#
# Elastic Compliance Matrix: (Units=1/GPa)
#
#
# Indices 1 2 3 4 5 6 
#
# 1 0.017246 -0.002052 -0.001991 0.000000 -0.005610 0.000000
# 2 -0.002052 0.011940 -0.000714 0.000000 -0.000196 0.000000
# 3 -0.001991 -0.000714 0.022154 0.000000 -0.010314 0.000000
# 4 0.000000 0.000000 0.000000 0.067416 0.000000 -0.007528
# 5 -0.005610 -0.000196 -0.010314 0.000000 0.031055 0.000000
# 6 0.000000 0.000000 0.000000 -0.007528 0.000000 0.059282
#
#
# Mechanical properties :
#
#
# Convention : Reuss Voigt Hill
#
# Bulk Modulus (GPa) = 23.90896 30.61290 27.26093
# Shear Modulus (GPa) = 21.50073 26.67857 24.08965
#
# Velocity S-wave (km/s) = 3.23811 3.60700 3.42753
# Velocity P-wave (km/s) = 5.06363 5.68124 5.38130
#
# Compressibility (1/GPa) = 0.04182533
#
# Stress axis : x y z
#
# Youngs Moduli (GPa) = 57.98512 83.74969 45.13770
#
# Poissons Ratio (x) = 0.17185 0.08989
# Poissons Ratio (y) = 0.11898 0.03224
# Poissons Ratio (z) = 0.11548 0.05981
#
# Static dielectric constant tensor:
#      x y z
#    x 1.802750 0.000000 -0.018270 
#    y 0.000000 1.889650 0.000000 
#    z -0.018270 0.000000 1.788080 
# 
# From -- ./inp_files/101646.got.cif
#   From: 2010.05.17/outbox.cif.g08.bks.cpg/sg15_51_cif.got.tgz:101646.got - 2010.06.03 18:47:42.
