data_PCOD9272449
_publ_section_title
;
Structure prediction by ZEFSAII (Michael W. Deem and Ramdas Pophale) SiO2 
 PCOD9272449
Probable space group: C 2/C
;
_chemical_formula_sum "Si O2"
_cell_formula_units_Z 56
_cell_length_a 24.177658
_cell_length_b 9.753561
_cell_length_c 10.535282
_cell_angle_alpha 90.000000
_cell_angle_beta 106.560430
_cell_angle_gamma 90.000000
_cell_volume 2381.357617
_symmetry_space_group_name_H-M "C 2/C"
_symmetry_group_IT_number 15
_symmetry_cell_setting 'monoclinic'
loop_
_space_group_symop_operation_xyz
x,y,z
-x,y,1/2-z
-x,-y,-z
x,-y,1/2+z
1/2+x,1/2+y,z
1/2-x,1/2+y,1/2-z
1/2-x,1/2-y,-z
1/2+x,1/2-y,1/2+z
loop_
_atom_site_type_symbol
_atom_site_label
_atom_site_fract_x
_atom_site_fract_y
_atom_site_fract_z
Si Si1 0.236103 0.423649 0.115370
Si Si2 0.165242 0.097148 0.636703
Si Si3 0.417593 0.779632 0.752791
Si Si4 0.914593 0.390236 0.225594
Si Si5 0.187606 0.690043 0.968362
Si Si6 0.008362 0.340997 0.470879
Si Si7 0.341786 0.663871 0.497592
O O1 0.269530 0.419291 0.270478
O O2 0.290822 0.410947 0.051433
O O3 0.197709 0.558691 0.065581
O O4 0.193348 0.297279 0.067950
O O5 0.134787 0.206860 0.707630
O O6 0.155663 0.176394 0.500030
O O7 0.143391 0.943884 0.603024
O O8 0.400727 0.711421 0.606907
O O9 0.417953 0.944068 0.736908
O O10 0.470699 0.762165 0.888432
O O11 0.847588 0.357560 0.175214
O O12 0.943739 0.346923 0.110319
O O13 0.948892 0.312022 0.358256
O O14 0.250000 0.750000 0.000000
O O15 0.000000 0.500000 0.500000
#
# Coordination Sequence:
#
# PCOD9272449 Si02
#       7
#     8   8   8   8   8   8   8
#     4  10  21  36  54  81 127 175 216 260 317 392
#     4  11  22  36  58  88 129 175 217 264 334 399
#     4  10  20  38  66  91 130 172 219 276 342 385
#     4  10  20  38  64 102 130 162 220 284 329 396
#     4  12  22  36  58  95 129 168 215 270 328 394
#     4   9  19  38  66 100 123 164 221 284 329 380
#     4  10  20  37  56  86 128 173 217 261 319 399
#
# _framework density 23.515998
#
# number of rings (size 3 to 8) (size 9 to 14) (size 15 to 20)
#    0.000    1.714    4.286    0.857    0.000    1.143 
#    0.000    0.000    0.000    0.857   14.857    0.000 
#    0.000    0.000    0.000    0.000    0.000    0.000 
#
# Total GULP energy -155923.441804 kJ/mol
# GULP energy per Si atom -5568.694350 kJ/mol
# Density = 2.346247 g / cm^3
# Si number density = 23.515998 Si / 1000 Ang^3
#
#
#
# Elastic Constant Matrix: (Units=GPa)
#
#
# Indices 1 2 3 4 5 6 
#
# 1 67.6916 22.0938 44.0449 0.0000 28.7702 0.0000
# 2 22.0938 110.4132 38.5604 0.0000 13.3897 0.0000
# 3 44.0449 38.5604 151.5377 0.0000 47.9292 0.0000
# 4 0.0000 0.0000 0.0000 -76.5643 0.0000 12.3320
# 5 28.7702 13.3897 47.9292 0.0000 41.6391 0.0000
# 6 0.0000 0.0000 0.0000 12.3320 0.0000 21.3192
#
#
#
# Elastic Compliance Matrix: (Units=1/GPa)
#
#
# Indices 1 2 3 4 5 6 
#
# 1 0.021961 -0.002232 -0.001954 0.000000 -0.012206 0.000000
# 2 -0.002232 0.010172 -0.002190 0.000000 0.000792 0.000000
# 3 -0.001954 -0.002190 0.011125 0.000000 -0.010750 0.000000
# 4 0.000000 0.000000 0.000000 -0.011948 0.000000 0.006911
# 5 -0.012206 0.000792 -0.010750 0.000000 0.044570 0.000000
# 6 0.000000 0.000000 0.000000 0.006911 0.000000 0.042908
#
#
# Mechanical properties :
#
#
# Convention : Reuss Voigt Hill
#
# Bulk Modulus (GPa) = 32.78137 59.89340 46.33739
# Shear Modulus (GPa) = 35.28352 12.27501 23.77927
#
# Velocity S-wave (km/s) = 3.87771 2.28718 3.18338
# Velocity P-wave (km/s) = 5.83259 5.70083 5.76709
#
# Compressibility (1/GPa) = 0.03050513
#
# Stress axis : x y z
#
# Youngs Moduli (GPa) = 45.53549 98.30586 89.89050
#
# Poissons Ratio (x) = 0.21938 0.17568
# Poissons Ratio (y) = 0.10162 0.19689
# Poissons Ratio (z) = 0.08900 0.21532
#
# Static dielectric constant tensor:
#      x y z
#    x 2.098660 0.000000 -0.114730 
#    y 0.000000 1.861680 0.000000 
#    z -0.114730 0.000000 2.013250 
# 
# From -- ./inp_files/125994.got.cif
#   From: 2010.05.17/outbox.cif.g08.bks.cpg/sg15_63_cif.got.tgz:125994.got - 2010.06.03 18:47:42.
