data_PCOD9272491
_publ_section_title
;
Structure prediction by ZEFSAII (Michael W. Deem and Ramdas Pophale) SiO2 
 PCOD9272491
Probable space group: C 2/C
;
_chemical_formula_sum "Si O2"
_cell_formula_units_Z 64
_cell_length_a 16.088303
_cell_length_b 12.356504
_cell_length_c 25.996466
_cell_angle_alpha 90.000000
_cell_angle_beta 146.839403
_cell_angle_gamma 90.000000
_cell_volume 2826.816894
_symmetry_space_group_name_H-M "C 2/C"
_symmetry_group_IT_number 15
_symmetry_cell_setting 'monoclinic'
loop_
_space_group_symop_operation_xyz
x,y,z
-x,y,1/2-z
-x,-y,-z
x,-y,1/2+z
1/2+x,1/2+y,z
1/2-x,1/2+y,1/2-z
1/2-x,1/2-y,-z
1/2+x,1/2-y,1/2+z
loop_
_atom_site_type_symbol
_atom_site_label
_atom_site_fract_x
_atom_site_fract_y
_atom_site_fract_z
Si Si1 0.805621 0.164342 0.455902
Si Si2 0.163360 0.884636 0.411847
Si Si3 0.805144 0.153271 0.733430
Si Si4 0.639337 0.043684 0.162472
Si Si5 0.314727 0.384388 0.854544
Si Si6 0.338225 0.327916 0.475012
Si Si7 0.158366 0.213688 0.635024
Si Si8 0.327601 0.914820 0.011165
O O1 0.773094 0.124889 0.496562
O O2 0.740572 0.286685 0.421042
O O3 0.763102 0.087708 0.385942
O O4 0.986667 0.170761 0.545307
O O5 0.985374 0.856386 0.320137
O O6 0.201763 0.008399 0.418251
O O7 0.733274 0.258778 0.672133
O O8 0.768115 0.167945 0.775132
O O9 0.731021 0.043246 0.676916
O O10 0.725552 0.062554 0.261404
O O11 0.641016 0.158155 0.134801
O O12 0.476391 0.990126 0.087470
O O13 0.496397 0.387234 0.939817
O O14 0.272968 0.322224 0.383418
O O15 0.360442 0.200887 0.501633
O O16 0.234252 0.381972 0.464483
#
# Coordination Sequence:
#
# PCOD9272491 Si02
#       8
#     8   8   8   8   8   8   8   8
#     4   9  19  36  60  85 115 151 199 250 297 361
#     4  10  20  37  57  85 119 155 197 250 307 360
#     4  10  21  37  59  84 121 153 198 257 307 357
#     4  11  21  38  62  89 119 161 206 249 311 372
#     4  10  21  38  61  88 118 156 200 252 307 361
#     4  10  22  41  63  87 122 162 207 249 300 370
#     4   9  20  39  62  86 116 163 202 248 305 366
#     4  11  22  38  63  89 120 162 204 250 303 367
#
# _framework density 22.640305999999999
#
# number of rings (size 3 to 8) (size 9 to 14) (size 15 to 20)
#    0.000    2.000    2.500    0.750    1.750    3.000 
#    0.000    5.625    0.000    0.000    0.000    0.000 
#    0.000    0.000    0.000    0.000    0.000    0.000 
#
# Total GULP energy -178713.009814 kJ/mol
# GULP energy per Si atom -5584.781557 kJ/mol
# Density = 2.258878 g / cm^3
# Si number density = 22.640306 Si / 1000 Ang^3
#
#
#
# Elastic Constant Matrix: (Units=GPa)
#
#
# Indices 1 2 3 4 5 6 
#
# 1 87.6671 7.4472 15.1521 0.0000 -11.7923 0.0000
# 2 7.4472 114.7151 -5.6720 0.0000 -1.3848 0.0000
# 3 15.1521 -5.6720 23.3834 0.0000 -3.2024 0.0000
# 4 0.0000 0.0000 0.0000 0.2047 0.0000 9.3456
# 5 -11.7923 -1.3848 -3.2024 0.0000 8.0606 0.0000
# 6 0.0000 0.0000 0.0000 9.3456 0.0000 8.5768
#
#
#
# Elastic Compliance Matrix: (Units=1/GPa)
#
#
# Indices 1 2 3 4 5 6 
#
# 1 0.015423 -0.001145 -0.007623 0.000000 0.019338 0.000000
# 2 -0.001145 0.008956 0.003062 0.000000 0.001081 0.000000
# 3 -0.007623 0.003062 0.049696 0.000000 0.009118 0.000000
# 4 0.000000 0.000000 0.000000 -0.100214 0.000000 0.109197
# 5 0.019338 0.001081 0.009118 0.000000 0.156159 0.000000
# 6 0.000000 0.000000 0.000000 0.109197 0.000000 -0.002392
#
#
# Mechanical properties :
#
#
# Convention : Reuss Voigt Hill
#
# Bulk Modulus (GPa) = 15.95810 28.84667 22.40239
# Shear Modulus (GPa) = 31.26432 17.29097 24.27765
#
# Velocity S-wave (km/s) = 3.72010 2.76656 3.27818
# Velocity P-wave (km/s) = 5.05134 4.79313 4.92392
#
# Compressibility (1/GPa) = 0.06266410
#
# Stress axis : x y z
#
# Youngs Moduli (GPa) = 64.83946 111.65679 20.12219
#
# Poissons Ratio (x) = 0.12781 0.15339
# Poissons Ratio (y) = 0.07422 -0.06162
# Poissons Ratio (z) = 0.49427 -0.34191
#
# Static dielectric constant tensor:
#      x y z
#    x 1.893820 0.000000 -0.066960 
#    y 0.000000 1.862920 0.000000 
#    z -0.066960 0.000000 1.840810 
# 
# From -- ./inp_files/316219.got.cif
#   From: 2010.05.17/outbox.cif.g08.bks.cpg/sg15_159_cif.got.tgz:316219.got - 2010.06.03 18:47:42.
