data_PCOD9272428
_publ_section_title
;
Structure prediction by ZEFSAII (Michael W. Deem and Ramdas Pophale) SiO2 
 PCOD9272428
Probable space group: C 2/C
;
_chemical_formula_sum "Si O2"
_cell_formula_units_Z 44
_cell_length_a 4.905711
_cell_length_b 30.179706
_cell_length_c 13.777231
_cell_angle_alpha 90.000000
_cell_angle_beta 78.635735
_cell_angle_gamma 90.000000
_cell_volume 1999.768234
_symmetry_space_group_name_H-M "C 2/C"
_symmetry_group_IT_number 15
_symmetry_cell_setting 'monoclinic'
loop_
_space_group_symop_operation_xyz
x,y,z
-x,y,1/2-z
-x,-y,-z
x,-y,1/2+z
1/2+x,1/2+y,z
1/2-x,1/2+y,1/2-z
1/2-x,1/2-y,-z
1/2+x,1/2-y,1/2+z
loop_
_atom_site_type_symbol
_atom_site_label
_atom_site_fract_x
_atom_site_fract_y
_atom_site_fract_z
Si Si1 0.401063 0.502005 0.164517
Si Si2 0.233947 0.555413 0.507328
Si Si3 0.000000 0.418929 0.750000
Si Si4 0.275551 0.889462 0.963689
Si Si5 0.022648 0.761389 0.365394
Si Si6 0.460491 0.197522 0.969534
O O1 0.500000 0.475156 0.250000
O O2 0.230198 0.469496 0.108862
O O3 0.245095 0.544825 0.220009
O O4 0.640337 0.522101 0.080440
O O5 0.449004 0.597695 0.486872
O O6 0.926616 0.568323 0.499476
O O7 0.076207 0.388121 0.652807
O O8 0.383909 0.848349 0.018524
O O9 0.218346 0.798852 0.404864
O O10 0.125086 0.718161 0.419345
O O11 0.000000 0.758611 0.250000
O O12 0.704452 0.770866 0.414274
#
# Coordination Sequence:
#
# PCOD9272428 Si02
#       6
#     8   8   4   8   8   8
#     4  10  20  37  56  82 111 157 196 243 286 369
#     4  10  23  36  59  79 120 151 195 240 304 336
#     4  10  22  34  64  82 118 148 204 248 312 332
#     4  11  22  40  56  92 116 154 190 261 293 346
#     4  10  21  41  65  93 120 172 195 235 296 371
#     4  10  22  39  65  92 129 152 206 246 295 356
#
# _framework density 22.002548999999998
#
# number of rings (size 3 to 8) (size 9 to 14) (size 15 to 20)
#    0.000    1.818    1.818    1.636    3.818    2.182 
#    0.000    5.455    0.000    0.000    0.000    0.000 
#    0.000    0.000    0.000    0.000    0.000    0.000 
#
# Total GULP energy -122503.899461 kJ/mol
# GULP energy per Si atom -5568.359066 kJ/mol
# Density = 2.195247 g / cm^3
# Si number density = 22.002549 Si / 1000 Ang^3
#
#
#
# Elastic Constant Matrix: (Units=GPa)
#
#
# Indices 1 2 3 4 5 6 
#
# 1 87.5515 6.6602 35.1972 0.0000 7.3952 0.0000
# 2 6.6602 27.9064 -2.5160 0.0000 0.4742 0.0000
# 3 35.1972 -2.5160 121.9601 0.0000 31.5409 0.0000
# 4 0.0000 0.0000 0.0000 12.9555 0.0000 6.0292
# 5 7.3952 0.4742 31.5409 0.0000 28.7271 0.0000
# 6 0.0000 0.0000 0.0000 6.0292 0.0000 33.2510
#
#
#
# Elastic Compliance Matrix: (Units=1/GPa)
#
#
# Indices 1 2 3 4 5 6 
#
# 1 0.013291 -0.003577 -0.004245 0.000000 0.001299 0.000000
# 2 -0.003577 0.036943 0.002394 0.000000 -0.002317 0.000000
# 3 -0.004245 0.002394 0.012850 0.000000 -0.013056 0.000000
# 4 0.000000 0.000000 0.000000 0.084301 0.000000 -0.015286
# 5 0.001299 -0.002317 -0.013056 0.000000 0.048849 0.000000
# 6 0.000000 0.000000 0.000000 -0.015286 0.000000 0.032846
#
#
# Mechanical properties :
#
#
# Convention : Reuss Voigt Hill
#
# Bulk Modulus (GPa) = 19.14720 35.12232 27.13476
# Shear Modulus (GPa) = 19.42904 28.19181 23.81042
#
# Velocity S-wave (km/s) = 2.97482 3.58340 3.29320
# Velocity P-wave (km/s) = 4.52996 5.75487 5.17876
#
# Compressibility (1/GPa) = 0.05222695
#
# Stress axis : x y z
#
# Youngs Moduli (GPa) = 75.23905 27.06883 77.81847
#
# Poissons Ratio (x) = 0.09682 0.33037
# Poissons Ratio (y) = 0.26912 -0.18627
# Poissons Ratio (z) = 0.31942 -0.06479
#
# Static dielectric constant tensor:
#      x y z
#    x 1.835780 0.000000 -0.000400 
#    y 0.000000 1.858530 0.000000 
#    z -0.000400 0.000000 3.227730 
# 
# From -- ./inp_files/73834.got.cif
#   From: 2010.05.17/outbox.cif.g08.bks.cpg/sg15_37_cif.got.tgz:73834.got - 2010.06.03 18:47:42.
