data_PCOD9272360
_publ_section_title
;
Structure prediction by ZEFSAII (Michael W. Deem and Ramdas Pophale) SiO2 
 PCOD9272360
Probable space group: C 2/C
;
_chemical_formula_sum "Si O2"
_cell_formula_units_Z 44
_cell_length_a 11.018208
_cell_length_b 28.419159
_cell_length_c 8.439251
_cell_angle_alpha 90.000000
_cell_angle_beta 50.364420
_cell_angle_gamma 90.000000
_cell_volume 2035.086860
_symmetry_space_group_name_H-M "C 2/C"
_symmetry_group_IT_number 15
_symmetry_cell_setting 'monoclinic'
loop_
_space_group_symop_operation_xyz
x,y,z
-x,y,1/2-z
-x,-y,-z
x,-y,1/2+z
1/2+x,1/2+y,z
1/2-x,1/2+y,1/2-z
1/2-x,1/2-y,-z
1/2+x,1/2-y,1/2+z
loop_
_atom_site_type_symbol
_atom_site_label
_atom_site_fract_x
_atom_site_fract_y
_atom_site_fract_z
Si Si1 0.500000 0.273096 0.750000
Si Si2 0.840564 0.975714 0.483896
Si Si3 0.678372 0.806546 0.906274
Si Si4 0.000000 0.614265 0.750000
Si Si5 0.964680 0.077239 0.452321
Si Si6 0.500000 0.837732 0.750000
Si Si7 0.688609 0.910737 0.382291
O O1 0.594899 0.239069 0.551886
O O2 0.365871 0.301229 0.766607
O O3 0.707587 0.956038 0.479916
O O4 0.000000 0.968966 0.250000
O O5 0.872668 0.941990 0.607143
O O6 0.856362 0.029850 0.518464
O O7 0.608236 0.811457 0.788620
O O8 0.623392 0.850908 0.059738
O O9 0.075524 0.584055 0.826273
O O10 0.857608 0.104883 0.666191
O O11 0.000000 0.096821 0.250000
O O12 0.616134 0.870092 0.549890
#
# Coordination Sequence:
#
# PCOD9272360 Si02
#       7
#     4   8   8   4   8   4   8
#     4   9  18  38  66  88 115 152 200 234 279 334
#     4   8  16  33  54  77 103 140 195 254 294 334
#     4   9  19  38  61  88 118 157 192 235 280 347
#     4   9  20  38  53  78 124 156 184 228 298 360
#     4   9  17  32  56  79 102 139 198 256 294 332
#     4  10  22  38  57  82 131 160 184 232 293 360
#     4  10  20  37  53  75 115 159 188 234 302 351
#
# _framework density 21.620698000000001
#
# number of rings (size 3 to 8) (size 9 to 14) (size 15 to 20)
#    0.000    2.909    0.000    1.091    0.000    3.636 
#   11.455    2.727    0.000    0.000    0.000    0.000 
#    0.000    0.000    0.000    0.000    0.000    0.000 
#
# Total GULP energy -122683.329079 kJ/mol
# GULP energy per Si atom -5576.514958 kJ/mol
# Density = 2.157149 g / cm^3
# Si number density = 21.620698 Si / 1000 Ang^3
#
#
#
# Elastic Constant Matrix: (Units=GPa)
#
#
# Indices 1 2 3 4 5 6 
#
# 1 189.1926 65.7721 46.8295 0.0000 21.2811 0.0000
# 2 65.7721 38.3815 14.6484 0.0000 2.4469 0.0000
# 3 46.8295 14.6484 96.6819 0.0000 9.9098 0.0000
# 4 0.0000 0.0000 0.0000 66.7143 0.0000 -2.0899
# 5 21.2811 2.4469 9.9098 0.0000 40.2981 0.0000
# 6 0.0000 0.0000 0.0000 -2.0899 0.0000 32.5295
#
#
#
# Elastic Compliance Matrix: (Units=1/GPa)
#
#
# Indices 1 2 3 4 5 6 
#
# 1 0.015242 -0.024580 -0.003064 0.000000 -0.005803 0.000000
# 2 -0.024580 0.067309 0.000816 0.000000 0.008693 0.000000
# 3 -0.003064 0.000816 0.011841 0.000000 -0.001344 0.000000
# 4 0.000000 0.000000 0.000000 0.015020 0.000000 0.000965
# 5 -0.005803 0.008693 -0.001344 0.000000 0.027682 0.000000
# 6 0.000000 0.000000 0.000000 0.000965 0.000000 0.030803
#
#
# Mechanical properties :
#
#
# Convention : Reuss Voigt Hill
#
# Bulk Modulus (GPa) = 24.54688 64.30621 44.42654
# Shear Modulus (GPa) = 21.26479 41.04211 31.15345
#
# Velocity S-wave (km/s) = 3.13954 4.36165 3.80005
# Velocity P-wave (km/s) = 4.95181 7.42784 6.31242
#
# Compressibility (1/GPa) = 0.04073838
#
# Stress axis : x y z
#
# Youngs Moduli (GPa) = 65.60929 14.85680 84.45133
#
# Poissons Ratio (x) = 0.36518 0.25873
# Poissons Ratio (y) = 1.61265 -0.06895
# Poissons Ratio (z) = 0.20100 -0.01213
#
# Static dielectric constant tensor:
#      x y z
#    x 1.850320 0.000000 0.007730 
#    y 0.000000 1.824430 0.000000 
#    z 0.007730 0.000000 1.815230 
# 
# From -- ./inp_files/35073.got.cif
#   From: 2010.05.17/outbox.cif.g08.bks.cpg/sg15_18_cif.got.tgz:35073.got - 2010.06.03 18:47:42.
