data_PCOD9272971
_publ_section_title
;
Structure prediction by ZEFSAII (Michael W. Deem and Ramdas Pophale) SiO2 
 PCOD9272971
Probable space group: C 2/C
;
_chemical_formula_sum "Si O2"
_cell_formula_units_Z 52
_cell_length_a 15.629190
_cell_length_b 7.896483
_cell_length_c 16.678984
_cell_angle_alpha 90.000000
_cell_angle_beta 88.638051
_cell_angle_gamma 90.000000
_cell_volume 2057.865849
_symmetry_space_group_name_H-M "C 2/C"
_symmetry_group_IT_number 15
_symmetry_cell_setting 'monoclinic'
loop_
_space_group_symop_operation_xyz
x,y,z
-x,y,1/2-z
-x,-y,-z
x,-y,1/2+z
1/2+x,1/2+y,z
1/2-x,1/2+y,1/2-z
1/2-x,1/2-y,-z
1/2+x,1/2-y,1/2+z
loop_
_atom_site_type_symbol
_atom_site_label
_atom_site_fract_x
_atom_site_fract_y
_atom_site_fract_z
Si Si1 0.000000 0.360527 0.250000
Si Si2 0.693881 0.523809 0.668956
Si Si3 0.865781 0.502021 0.876151
Si Si4 0.211475 0.817785 0.323697
Si Si5 0.589801 0.343813 0.039806
Si Si6 0.090956 0.323084 0.962342
Si Si7 0.377383 0.181966 0.616788
O O1 0.934738 0.469465 0.305000
O O2 0.937963 0.265576 0.189036
O O3 0.723482 0.337217 0.693484
O O4 0.659587 0.629509 0.745868
O O5 0.627900 0.513553 0.596406
O O6 0.783294 0.615339 0.641370
O O7 0.772711 0.527255 0.842445
O O8 0.874689 0.320661 0.914885
O O9 0.878647 0.634054 0.948980
O O10 0.158426 0.761123 0.401496
O O11 0.489478 0.303636 0.036021
O O12 0.625779 0.327655 0.949631
O O13 0.076863 0.512920 0.924296
#
# Coordination Sequence:
#
# PCOD9272971 Si02
#       7
#     4   8   8   8   8   8   8
#     4  12  18  34  68  94 118 158 210 252 284 366
#     4  11  24  38  62  89 126 158 203 253 306 360
#     4  11  21  39  66  92 118 159 206 253 299 357
#     4  11  24  41  62  90 125 164 202 249 308 361
#     4  11  21  39  65  93 119 157 207 253 299 359
#     4  10  21  38  63  91 122 160 205 246 300 367
#     4  10  20  37  61  95 115 158 208 249 293 360
#
# _framework density 25.268896000000002
#
# number of rings (size 3 to 8) (size 9 to 14) (size 15 to 20)
#    0.000    1.231    4.615    2.769    2.154    0.615 
#    0.000    3.846    0.000    0.000    0.000    0.000 
#    0.000    0.000    0.000    0.000    0.000    0.000 
#
# Total GULP energy -145631.827615 kJ/mol
# GULP energy per Si atom -5601.224139 kJ/mol
# Density = 2.521138 g / cm^3
# Si number density = 25.268896 Si / 1000 Ang^3
#
#
#
# Elastic Constant Matrix: (Units=GPa)
#
#
# Indices 1 2 3 4 5 6 
#
# 1 66.8868 -8.0423 30.2785 0.0000 1.7404 0.0000
# 2 -8.0423 64.6579 21.4556 0.0000 -6.6615 0.0000
# 3 30.2785 21.4556 149.6939 0.0000 12.3698 0.0000
# 4 0.0000 0.0000 0.0000 14.9092 0.0000 1.1250
# 5 1.7404 -6.6615 12.3698 0.0000 49.4983 0.0000
# 6 0.0000 0.0000 0.0000 1.1250 0.0000 24.1882
#
#
#
# Elastic Compliance Matrix: (Units=1/GPa)
#
#
# Indices 1 2 3 4 5 6 
#
# 1 0.017198 0.003580 -0.004066 0.000000 0.000893 0.000000
# 2 0.003580 0.017380 -0.003470 0.000000 0.003080 0.000000
# 3 -0.004066 -0.003470 0.008196 0.000000 -0.002372 0.000000
# 4 0.000000 0.000000 0.000000 0.067309 0.000000 -0.003131
# 5 0.000893 0.003080 -0.002372 0.000000 0.021179 0.000000
# 6 0.000000 0.000000 0.000000 -0.003131 0.000000 0.041488
#
#
# Mechanical properties :
#
#
# Convention : Reuss Voigt Hill
#
# Bulk Modulus (GPa) = 28.68278 40.95801 34.82039
# Shear Modulus (GPa) = 26.00349 33.55559 29.77954
#
# Velocity S-wave (km/s) = 3.21139 3.64804 3.43666
# Velocity P-wave (km/s) = 5.01262 5.82995 5.43667
#
# Compressibility (1/GPa) = 0.03486412
#
# Stress axis : x y z
#
# Youngs Moduli (GPa) = 58.14512 57.53711 122.01054
#
# Poissons Ratio (x) = -0.20600 0.49605
# Poissons Ratio (y) = -0.20818 0.42335
# Poissons Ratio (z) = 0.23640 0.19964
#
# Static dielectric constant tensor:
#      x y z
#    x 1.978550 0.000000 0.004210 
#    y 0.000000 2.018800 0.000000 
#    z 0.004210 0.000000 2.016150 
# 
# From -- ./inp_files/209130.got.cif
#   From: 2010.05.17/outbox.cif.g08.bks.cpg/sg15_105_cif.got.tgz:209130.got - 2010.06.03 18:47:42.
