data_PCOD9272478
_publ_section_title
;
Structure prediction by ZEFSAII (Michael W. Deem and Ramdas Pophale) SiO2 
 PCOD9272478
Probable space group: C 2/C
;
_chemical_formula_sum "Si O2"
_cell_formula_units_Z 64
_cell_length_a 12.483855
_cell_length_b 8.947458
_cell_length_c 26.739569
_cell_angle_alpha 90.000000
_cell_angle_beta 74.681788
_cell_angle_gamma 90.000000
_cell_volume 2880.667177
_symmetry_space_group_name_H-M "C 2/C"
_symmetry_group_IT_number 15
_symmetry_cell_setting 'monoclinic'
loop_
_space_group_symop_operation_xyz
x,y,z
-x,y,1/2-z
-x,-y,-z
x,-y,1/2+z
1/2+x,1/2+y,z
1/2-x,1/2+y,1/2-z
1/2-x,1/2-y,-z
1/2+x,1/2-y,1/2+z
loop_
_atom_site_type_symbol
_atom_site_label
_atom_site_fract_x
_atom_site_fract_y
_atom_site_fract_z
Si Si1 0.659587 0.807120 0.974539
Si Si2 0.718164 0.051324 0.701187
Si Si3 0.267538 0.894538 0.699553
Si Si4 0.022042 0.323986 0.694871
Si Si5 0.193755 0.965875 0.413310
Si Si6 0.088314 0.362779 0.581651
Si Si7 0.646622 0.040561 0.905675
Si Si8 0.417716 0.288379 0.523278
O O1 0.674246 0.709933 0.922538
O O2 0.679407 0.973670 0.955450
O O3 0.750000 0.750000 0.000000
O O4 0.540950 0.775545 0.011922
O O5 0.708672 0.232341 0.703457
O O6 0.764901 0.991119 0.747924
O O7 0.603087 0.963440 0.701245
O O8 0.801716 0.008834 0.646140
O O9 0.397879 0.865100 0.693994
O O10 0.271580 0.992996 0.648641
O O11 0.073903 0.270870 0.635554
O O12 0.000000 0.236698 0.750000
O O13 0.310584 0.023215 0.421328
O O14 0.102555 0.041205 0.460032
O O15 0.111485 0.260862 0.529977
O O16 0.975568 0.462570 0.587758
O O17 0.642823 0.212792 0.921007
#
# Coordination Sequence:
#
# PCOD9272478 Si02
#       8
#     8   8   8   8   8   8   8   8
#     4  11  21  37  57  80 118 158 200 243 300 367
#     4  10  21  37  64  91 116 162 205 251 316 381
#     4  10  20  38  64  89 119 156 209 256 310 369
#     4   8  17  35  60  87 111 157 202 246 305 364
#     4  11  21  36  56  88 120 149 199 252 311 362
#     4   9  18  34  57  81 111 156 198 237 295 371
#     4  10  20  37  57  83 113 154 204 243 295 367
#     4  11  22  34  55  87 118 156 199 247 304 366
#
# _framework density 22.217077
#
# number of rings (size 3 to 8) (size 9 to 14) (size 15 to 20)
#    0.000    2.000    1.250    3.750    1.750    0.000 
#    0.000    0.000    0.000    6.750    0.000    0.000 
#    0.000    0.000    0.000    0.000    0.000    0.000 
#
# Total GULP energy -178234.580085 kJ/mol
# GULP energy per Si atom -5569.830628 kJ/mol
# Density = 2.216651 g / cm^3
# Si number density = 22.217077 Si / 1000 Ang^3
#
#
#
# Elastic Constant Matrix: (Units=GPa)
#
#
# Indices 1 2 3 4 5 6 
#
# 1 42.2345 1.5223 20.1792 0.0000 3.4842 0.0000
# 2 1.5223 38.4925 30.2875 0.0000 -4.2344 0.0000
# 3 20.1792 30.2875 154.7791 0.0000 -9.1021 0.0000
# 4 0.0000 0.0000 0.0000 31.7660 0.0000 -1.3930
# 5 3.4842 -4.2344 -9.1021 0.0000 22.9780 0.0000
# 6 0.0000 0.0000 0.0000 -1.3930 0.0000 14.7913
#
#
#
# Elastic Compliance Matrix: (Units=1/GPa)
#
#
# Indices 1 2 3 4 5 6 
#
# 1 0.025962 0.001540 -0.003994 0.000000 -0.005235 0.000000
# 2 0.001540 0.031053 -0.006097 0.000000 0.003074 0.000000
# 3 -0.003994 -0.006097 0.008338 0.000000 0.002785 0.000000
# 4 0.000000 0.000000 0.000000 0.031611 0.000000 0.002977
# 5 -0.005235 0.003074 0.002785 0.000000 0.045983 0.000000
# 6 0.000000 0.000000 0.000000 0.002977 0.000000 0.067888
#
#
# Mechanical properties :
#
#
# Convention : Reuss Voigt Hill
#
# Bulk Modulus (GPa) = 20.72427 37.72044 29.22236
# Shear Modulus (GPa) = 20.49006 26.14154 23.31580
#
# Velocity S-wave (km/s) = 3.04018 3.43394 3.24304
# Velocity P-wave (km/s) = 4.65531 5.72168 5.21582
#
# Compressibility (1/GPa) = 0.04825259
#
# Stress axis : x y z
#
# Youngs Moduli (GPa) = 38.51787 32.20258 119.92835
#
# Poissons Ratio (x) = -0.04959 0.47899
# Poissons Ratio (y) = -0.05932 0.73116
# Poissons Ratio (z) = 0.15384 0.19633
#
# Static dielectric constant tensor:
#      x y z
#    x 1.824500 0.000000 -0.006820 
#    y 0.000000 1.804640 0.000000 
#    z -0.006820 0.000000 1.895080 
# 
# From -- ./inp_files/295154.got.cif
#   From: 2010.05.17/outbox.cif.g08.bks.cpg/sg15_148_cif.got.tgz:295154.got - 2010.06.03 18:47:42.
