data_PCOD9272041
_publ_section_title
;
Structure prediction by ZEFSAII (Michael W. Deem and Ramdas Pophale) SiO2 
 PCOD9272041
Probable space group: C 2/C
;
_chemical_formula_sum "Si O2"
_cell_formula_units_Z 56
_cell_length_a 5.208260
_cell_length_b 17.894959
_cell_length_c 31.696385
_cell_angle_alpha 90.000000
_cell_angle_beta 117.358507
_cell_angle_gamma 90.000000
_cell_volume 2623.727015
_symmetry_space_group_name_H-M "C 2/C"
_symmetry_group_IT_number 15
_symmetry_cell_setting 'monoclinic'
loop_
_space_group_symop_operation_xyz
x,y,z
-x,y,1/2-z
-x,-y,-z
x,-y,1/2+z
1/2+x,1/2+y,z
1/2-x,1/2+y,1/2-z
1/2-x,1/2-y,-z
1/2+x,1/2-y,1/2+z
loop_
_atom_site_type_symbol
_atom_site_label
_atom_site_fract_x
_atom_site_fract_y
_atom_site_fract_z
Si Si1 0.360229 0.439059 0.038378
Si Si2 0.649132 0.773980 0.888934
Si Si3 0.289133 0.952122 0.377012
Si Si4 0.191829 0.428535 0.936355
Si Si5 0.827736 0.912582 0.279565
Si Si6 0.833792 0.731918 0.280328
Si Si7 0.690498 0.174588 0.904764
O O1 0.239397 0.427767 0.076121
O O2 0.531589 0.517657 0.050163
O O3 0.597755 0.373236 0.049066
O O4 0.142323 0.433636 0.983010
O O5 0.717092 0.844817 0.922902
O O6 0.511475 0.797912 0.833751
O O7 0.402427 0.721857 0.891211
O O8 0.946937 0.728902 0.904893
O O9 0.497879 0.891985 0.369640
O O10 0.987381 0.949397 0.331025
O O11 0.437090 0.031988 0.391131
O O12 0.500000 0.936503 0.250000
O O13 0.835623 0.822501 0.285906
O O14 0.000000 0.930125 0.250000
O O15 0.500000 0.708709 0.250000
O O16 0.000000 0.714283 0.250000
#
# Coordination Sequence:
#
# PCOD9272041 Si02
#       7
#     8   8   8   8   8   8   8
#     4  10  22  47  68  99 128 192 224 272 326 413
#     4  12  24  43  65 104 133 173 216 286 338 391
#     4  11  22  44  70  95 139 175 225 279 327 404
#     4  10  26  41  70  97 140 181 224 266 349 402
#     4  10  22  35  65  98 122 164 224 275 324 383
#     4  10  20  36  63  92 125 166 216 268 329 398
#     4  11  23  40  70  95 137 166 225 277 331 381
#
# _framework density 21.343685000000001
#
# number of rings (size 3 to 8) (size 9 to 14) (size 15 to 20)
#    0.000    1.429    2.857    1.286   10.000    1.143 
#    0.000    0.714    0.000    0.000    0.000    0.000 
#    0.000    0.000    0.000    0.000    0.000    0.000 
#
# Total GULP energy -156464.517864 kJ/mol
# GULP energy per Si atom -5588.018495 kJ/mol
# Density = 2.129511 g / cm^3
# Si number density = 21.343685 Si / 1000 Ang^3
#
#
#
# Elastic Constant Matrix: (Units=GPa)
#
#
# Indices 1 2 3 4 5 6 
#
# 1 131.4908 34.2499 37.8274 0.0000 -1.5117 0.0000
# 2 34.2499 55.6326 35.2659 0.0000 -4.3133 0.0000
# 3 37.8274 35.2659 107.1923 0.0000 7.0315 0.0000
# 4 0.0000 0.0000 0.0000 -30.0935 0.0000 3.4202
# 5 -1.5117 -4.3133 7.0315 0.0000 25.6833 0.0000
# 6 0.0000 0.0000 0.0000 3.4202 0.0000 0.6878
#
#
#
# Elastic Compliance Matrix: (Units=1/GPa)
#
#
# Indices 1 2 3 4 5 6 
#
# 1 0.009318 -0.004573 -0.001802 0.000000 0.000274 0.000000
# 2 -0.004573 0.025891 -0.007303 0.000000 0.006078 0.000000
# 3 -0.001802 -0.007303 0.012683 0.000000 -0.004805 0.000000
# 4 0.000000 0.000000 0.000000 -0.021230 0.000000 0.105579
# 5 0.000274 0.006078 -0.004805 0.000000 0.041288 0.000000
# 6 0.000000 0.000000 0.000000 0.105579 0.000000 0.928959
#
#
# Mechanical properties :
#
#
# Convention : Reuss Voigt Hill
#
# Bulk Modulus (GPa) = 48.69473 56.55580 52.62526
# Shear Modulus (GPa) = 4.84914 11.72035 8.28475
#
# Velocity S-wave (km/s) = 1.50893 2.34588 1.97231
# Velocity P-wave (km/s) = 5.08920 5.82175 5.46776
#
# Compressibility (1/GPa) = 0.02053610
#
# Stress axis : x y z
#
# Youngs Moduli (GPa) = 107.32268 38.62306 78.84801
#
# Poissons Ratio (x) = 0.17663 0.14205
# Poissons Ratio (y) = 0.49080 0.57583
# Poissons Ratio (z) = 0.19335 0.28207
#
# Static dielectric constant tensor:
#      x y z
#    x 1.731170 0.000000 0.086820 
#    y 0.000000 1.747820 0.000000 
#    z 0.086820 0.000000 1.687200 
# 
# From -- ./inp_files/286032.got.cif
#   From: 2010.05.17/outbox.cif.g08.bks.cpg/sg15_144_cif.got.tgz:286032.got - 2010.06.03 18:47:42.
