data_PCOD9272916
_publ_section_title
;
Structure prediction by ZEFSAII (Michael W. Deem and Ramdas Pophale) SiO2 
 PCOD9272916
Probable space group: C 2/C
;
_chemical_formula_sum "Si O2"
_cell_formula_units_Z 40
_cell_length_a 13.536665
_cell_length_b 11.654994
_cell_length_c 13.281875
_cell_angle_alpha 90.000000
_cell_angle_beta 65.451103
_cell_angle_gamma 90.000000
_cell_volume 1906.061611
_symmetry_space_group_name_H-M "C 2/C"
_symmetry_group_IT_number 15
_symmetry_cell_setting 'monoclinic'
loop_
_space_group_symop_operation_xyz
x,y,z
-x,y,1/2-z
-x,-y,-z
x,-y,1/2+z
1/2+x,1/2+y,z
1/2-x,1/2+y,1/2-z
1/2-x,1/2-y,-z
1/2+x,1/2-y,1/2+z
loop_
_atom_site_type_symbol
_atom_site_label
_atom_site_fract_x
_atom_site_fract_y
_atom_site_fract_z
Si Si1 0.872407 0.082535 0.833383
Si Si2 0.109998 0.151497 0.261528
Si Si3 0.821962 0.043767 0.083513
Si Si4 0.706070 0.723660 0.903912
Si Si5 0.617348 0.173645 0.254596
O O1 0.838327 0.203223 0.803102
O O2 0.000000 0.076362 0.750000
O O3 0.829743 0.962062 0.808573
O O4 0.844271 0.081644 0.961435
O O5 0.094179 0.113892 0.382282
O O6 0.185433 0.258355 0.208088
O O7 0.000000 0.169020 0.250000
O O8 0.703617 0.081471 0.175952
O O9 0.834394 0.906796 0.083412
O O10 0.622456 0.806056 0.874876
O O11 0.750000 0.750000 0.000000
O O12 0.500000 0.156671 0.250000
#
# Coordination Sequence:
#
# PCOD9272916 Si02
#       5
#     8   8   8   8   8
#     4  10  20  37  61  89 119 155 211 250 304 362
#     4  10  22  37  59  92 122 156 207 253 313 367
#     4  11  22  39  66  87 126 166 202 259 311 365
#     4  11  22  39  62  90 126 159 205 260 310 357
#     4  10  23  42  61  91 126 167 208 251 305 384
#
# _framework density 20.985679999999999
#
# number of rings (size 3 to 8) (size 9 to 14) (size 15 to 20)
#    0.000    1.600    4.000    0.600    0.000    7.200 
#    0.000    1.000    0.000    0.000    0.000    0.000 
#    0.000    0.000    0.000    0.000    0.000    0.000 
#
# Total GULP energy -111375.394515 kJ/mol
# GULP energy per Si atom -5568.769726 kJ/mol
# Density = 2.093792 g / cm^3
# Si number density = 20.985680 Si / 1000 Ang^3
#
#
#
# Elastic Constant Matrix: (Units=GPa)
#
#
# Indices 1 2 3 4 5 6 
#
# 1 137.8696 17.8822 41.0340 0.0000 19.0355 0.0000
# 2 17.8822 34.2529 20.9394 0.0000 -8.9265 0.0000
# 3 41.0340 20.9394 124.3615 0.0000 28.4009 0.0000
# 4 0.0000 0.0000 0.0000 64.4401 0.0000 27.1414
# 5 19.0355 -8.9265 28.4009 0.0000 26.5171 0.0000
# 6 0.0000 0.0000 0.0000 27.1414 0.0000 28.7731
#
#
#
# Elastic Compliance Matrix: (Units=1/GPa)
#
#
# Indices 1 2 3 4 5 6 
#
# 1 0.009508 -0.007834 0.000454 0.000000 -0.009948 0.000000
# 2 -0.007834 0.053302 -0.015584 0.000000 0.040258 0.000000
# 3 0.000454 -0.015584 0.015605 0.000000 -0.022285 0.000000
# 4 0.000000 0.000000 0.000000 0.025748 0.000000 -0.024288
# 5 -0.009948 0.040258 -0.022285 0.000000 0.082273 0.000000
# 6 0.000000 0.000000 0.000000 -0.024288 0.000000 0.057665
#
#
# Mechanical properties :
#
#
# Convention : Reuss Voigt Hill
#
# Bulk Modulus (GPa) = 30.78127 50.68835 40.73481
# Shear Modulus (GPa) = 16.61914 38.38794 27.50354
#
# Velocity S-wave (km/s) = 2.81717 4.28161 3.62413
# Velocity P-wave (km/s) = 5.02808 6.97489 6.07991
#
# Compressibility (1/GPa) = 0.03248729
#
# Stress axis : x y z
#
# Youngs Moduli (GPa) = 105.17706 18.76090 64.08370
#
# Poissons Ratio (x) = 0.14697 -0.02908
# Poissons Ratio (y) = 0.82392 0.99867
# Poissons Ratio (z) = -0.04772 0.29237
#
# Static dielectric constant tensor:
#      x y z
#    x 1.830870 0.000000 0.098250 
#    y 0.000000 1.772720 0.000000 
#    z 0.098250 0.000000 1.705270 
# 
# From -- ./inp_files/94480.got.cif
#   From: 2010.05.17/outbox.cif.g08.bks.cpg/sg15_48_cif.got.tgz:94480.got - 2010.06.03 18:47:42.
