data_PCOD9272589
_publ_section_title
;
Structure prediction by ZEFSAII (Michael W. Deem and Ramdas Pophale) SiO2 
 PCOD9272589
Probable space group: C 2/C
;
_chemical_formula_sum "Si O2"
_cell_formula_units_Z 56
_cell_length_a 15.963279
_cell_length_b 11.924649
_cell_length_c 17.933435
_cell_angle_alpha 90.000000
_cell_angle_beta 56.804889
_cell_angle_gamma 90.000000
_cell_volume 2856.660236
_symmetry_space_group_name_H-M "C 2/C"
_symmetry_group_IT_number 15
_symmetry_cell_setting 'monoclinic'
loop_
_space_group_symop_operation_xyz
x,y,z
-x,y,1/2-z
-x,-y,-z
x,-y,1/2+z
1/2+x,1/2+y,z
1/2-x,1/2+y,1/2-z
1/2-x,1/2-y,-z
1/2+x,1/2-y,1/2+z
loop_
_atom_site_type_symbol
_atom_site_label
_atom_site_fract_x
_atom_site_fract_y
_atom_site_fract_z
Si Si1 0.338509 0.812015 0.097674
Si Si2 0.289010 0.966907 0.346063
Si Si3 0.086308 0.085195 0.479364
Si Si4 0.025108 0.167811 0.656950
Si Si5 0.619996 0.106363 0.072936
Si Si6 0.190739 0.231239 0.804947
Si Si7 0.599950 0.962181 0.853459
O O1 0.419459 0.712393 0.048264
O O2 0.254230 0.772799 0.197129
O O3 0.379338 0.926023 0.111917
O O4 0.309814 0.844561 0.026833
O O5 0.249599 0.845296 0.336803
O O6 0.188353 0.039562 0.395536
O O7 0.336691 0.002108 0.402024
O O8 0.368116 0.010104 0.246845
O O9 0.087894 0.094385 0.568200
O O10 0.000000 0.000000 0.500000
O O11 0.083931 0.285976 0.639232
O O12 0.000000 0.119649 0.750000
O O13 0.919604 0.186577 0.664688
O O14 0.515564 0.069414 0.086968
O O15 0.169344 0.357270 0.842691
#
# Coordination Sequence:
#
# PCOD9272589 Si02
#       7
#     8   8   8   8   8   8   8
#     4  10  22  36  64  88 120 163 205 251 307 372
#     4  11  21  36  61  89 122 158 201 255 311 362
#     4  11  22  39  59  90 126 156 199 251 313 362
#     4  10  21  34  59  88 123 156 202 259 305 354
#     4  10  21  36  59  92 118 155 209 261 302 364
#     4  10  20  37  58  90 121 162 202 252 310 360
#     4  10  20  40  62  86 121 159 210 248 305 373
#
# _framework density 19.603311000000001
#
# number of rings (size 3 to 8) (size 9 to 14) (size 15 to 20)
#    0.000    1.714    2.857    2.571    2.000    1.143 
#    0.000    0.714    0.000    1.714    0.000    0.000 
#    0.000    0.000    0.000    0.000    0.000    0.000 
#
# Total GULP energy -156059.827774 kJ/mol
# GULP energy per Si atom -5573.565278 kJ/mol
# Density = 1.955869 g / cm^3
# Si number density = 19.603311 Si / 1000 Ang^3
#
#
#
# Elastic Constant Matrix: (Units=GPa)
#
#
# Indices 1 2 3 4 5 6 
#
# 1 63.9015 46.9158 29.2416 0.0000 -4.3873 0.0000
# 2 46.9158 124.6814 43.9751 0.0000 7.8356 0.0000
# 3 29.2416 43.9751 104.4717 0.0000 4.0784 0.0000
# 4 0.0000 0.0000 0.0000 20.1008 0.0000 -8.3038
# 5 -4.3873 7.8356 4.0784 0.0000 25.5425 0.0000
# 6 0.0000 0.0000 0.0000 -8.3038 0.0000 21.0277
#
#
#
# Elastic Compliance Matrix: (Units=1/GPa)
#
#
# Indices 1 2 3 4 5 6 
#
# 1 0.023711 -0.008139 -0.003489 0.000000 0.007127 0.000000
# 2 -0.008139 0.012346 -0.002733 0.000000 -0.004749 0.000000
# 3 -0.003489 -0.002733 0.011763 0.000000 -0.001639 0.000000
# 4 0.000000 0.000000 0.000000 0.059447 0.000000 0.023475
# 5 0.007127 -0.004749 -0.001639 0.000000 0.042093 0.000000
# 6 0.000000 0.000000 0.000000 0.023475 0.000000 0.056826
#
#
# Mechanical properties :
#
#
# Convention : Reuss Voigt Hill
#
# Bulk Modulus (GPa) = 52.36463 59.25774 55.81118
# Shear Modulus (GPa) = 20.72338 24.86235 22.79286
#
# Velocity S-wave (km/s) = 3.25489 3.56515 3.41355
# Velocity P-wave (km/s) = 6.39499 6.87321 6.63841
#
# Compressibility (1/GPa) = 0.01909686
#
# Stress axis : x y z
#
# Youngs Moduli (GPa) = 42.17512 81.00089 85.01338
#
# Poissons Ratio (x) = 0.65930 0.29659
# Poissons Ratio (y) = 0.34328 0.23234
# Poissons Ratio (z) = 0.14714 0.22138
#
# Static dielectric constant tensor:
#      x y z
#    x 1.702700 0.000000 0.011150 
#    y 0.000000 1.706840 0.000000 
#    z 0.011150 0.000000 1.723140 
# 
# From -- ./inp_files/204382.got.cif
#   From: 2010.05.17/outbox.cif.g08.bks.cpg/sg15_103_cif.got.tgz:204382.got - 2010.06.03 18:47:42.
