data_PCOD9272736
_publ_section_title
;
Structure prediction by ZEFSAII (Michael W. Deem and Ramdas Pophale) SiO2 
 PCOD9272736
Probable space group: C 2/C
;
_chemical_formula_sum "Si O2"
_cell_formula_units_Z 56
_cell_length_a 8.677013
_cell_length_b 15.967849
_cell_length_c 17.454931
_cell_angle_alpha 90.000000
_cell_angle_beta 72.589442
_cell_angle_gamma 90.000000
_cell_volume 2307.636933
_symmetry_space_group_name_H-M "C 2/C"
_symmetry_group_IT_number 15
_symmetry_cell_setting 'monoclinic'
loop_
_space_group_symop_operation_xyz
x,y,z
-x,y,1/2-z
-x,-y,-z
x,-y,1/2+z
1/2+x,1/2+y,z
1/2-x,1/2+y,1/2-z
1/2-x,1/2-y,-z
1/2+x,1/2-y,1/2+z
loop_
_atom_site_type_symbol
_atom_site_label
_atom_site_fract_x
_atom_site_fract_y
_atom_site_fract_z
Si Si1 0.147486 0.985125 0.552094
Si Si2 0.309111 0.901649 0.660540
Si Si3 0.500000 0.709722 0.250000
Si Si4 0.841191 0.766697 0.618927
Si Si5 0.000945 0.240365 0.656954
Si Si6 0.284334 0.461522 0.616221
Si Si7 0.876155 0.807254 0.026719
Si Si8 0.000000 0.503523 0.750000
O O1 0.275701 0.965570 0.597759
O O2 0.137904 0.898367 0.506363
O O3 0.964613 0.996409 0.611338
O O4 0.204743 0.047385 0.478120
O O5 0.451463 0.833460 0.635913
O O6 0.361139 0.957071 0.723380
O O7 0.144845 0.848139 0.696144
O O8 0.572874 0.758513 0.313049
O O9 0.685303 0.714987 0.618286
O O10 0.784984 0.863462 0.642674
O O11 0.958840 0.768902 0.530195
O O12 0.000000 0.239044 0.750000
O O13 0.881650 0.190508 0.618104
O O14 0.131409 0.521473 0.661003
O O15 0.750000 0.750000 0.000000
#
# Coordination Sequence:
#
# PCOD9272736 Si02
#       8
#     8   8   4   8   8   8   8   4
#     4  10  22  38  60  85 118 157 196 230 296 358
#     4  12  18  33  58  88 113 142 197 242 286 337
#     4  12  16  32  58  89 109 148 190 250 286 330
#     4  11  21  36  60  92 116 145 198 247 299 337
#     4  12  21  36  59  88 117 148 196 251 287 339
#     4  10  20  37  60  85 116 149 186 249 287 349
#     4  11  22  38  60  84 117 162 194 236 292 357
#     4  12  20  34  60  91 117 142 194 254 296 332
#
# _framework density 24.267250000000001
#
# number of rings (size 3 to 8) (size 9 to 14) (size 15 to 20)
#    0.000    0.857    9.286    0.429    0.000    0.571 
#    0.000    0.000   14.143    0.000    0.000    0.000 
#    0.000    0.000    0.000    0.000    0.000    0.000 
#
# Total GULP energy -155874.998384 kJ/mol
# GULP energy per Si atom -5566.964228 kJ/mol
# Density = 2.421202 g / cm^3
# Si number density = 24.267250 Si / 1000 Ang^3
#
#
#
# Elastic Constant Matrix: (Units=GPa)
#
#
# Indices 1 2 3 4 5 6 
#
# 1 136.5972 4.0794 43.5906 0.0000 17.1312 0.0000
# 2 4.0794 11.8242 -1.2650 0.0000 7.2196 0.0000
# 3 43.5906 -1.2650 74.9419 0.0000 13.1213 0.0000
# 4 0.0000 0.0000 0.0000 42.0871 0.0000 11.4273
# 5 17.1312 7.2196 13.1213 0.0000 65.9694 0.0000
# 6 0.0000 0.0000 0.0000 11.4273 0.0000 24.2031
#
#
#
# Elastic Compliance Matrix: (Units=1/GPa)
#
#
# Indices 1 2 3 4 5 6 
#
# 1 0.009211 -0.003121 -0.005233 0.000000 -0.001009 0.000000
# 2 -0.003121 0.092522 0.005189 0.000000 -0.010347 0.000000
# 3 -0.005233 0.005189 0.016926 0.000000 -0.002575 0.000000
# 4 0.000000 0.000000 0.000000 0.027254 0.000000 -0.012868
# 5 -0.001009 -0.010347 -0.002575 0.000000 0.017065 0.000000
# 6 0.000000 0.000000 0.000000 -0.012868 0.000000 0.047393
#
#
# Mechanical properties :
#
#
# Convention : Reuss Voigt Hill
#
# Bulk Modulus (GPa) = 8.90260 35.13037 22.01648
# Shear Modulus (GPa) = 19.67385 38.24913 28.96149
#
# Velocity S-wave (km/s) = 2.85040 3.97440 3.45837
# Velocity P-wave (km/s) = 3.80914 5.96398 5.00393
#
# Compressibility (1/GPa) = 0.11232676
#
# Stress axis : x y z
#
# Youngs Moduli (GPa) = 108.56968 10.80829 59.07980
#
# Poissons Ratio (x) = 0.03374 0.30919
# Poissons Ratio (y) = 0.33888 -0.30656
# Poissons Ratio (z) = 0.56819 -0.05608
#
# Static dielectric constant tensor:
#      x y z
#    x 1.971850 0.000000 -0.049070 
#    y 0.000000 2.010720 0.000000 
#    z -0.049070 0.000000 2.154820 
# 
# From -- ./inp_files/190943.got.cif
#   From: 2010.05.17/outbox.cif.g08.bks.cpg/sg15_96_cif.got.tgz:190943.got - 2010.06.03 18:47:42.
