data_PCOD9272637
_publ_section_title
;
Structure prediction by ZEFSAII (Michael W. Deem and Ramdas Pophale) SiO2 
 PCOD9272637
Probable space group: C 2/C
;
_chemical_formula_sum "Si O2"
_cell_formula_units_Z 52
_cell_length_a 17.532312
_cell_length_b 9.306296
_cell_length_c 17.086596
_cell_angle_alpha 90.000000
_cell_angle_beta 123.682476
_cell_angle_gamma 90.000000
_cell_volume 2319.848043
_symmetry_space_group_name_H-M "C 2/C"
_symmetry_group_IT_number 15
_symmetry_cell_setting 'monoclinic'
loop_
_space_group_symop_operation_xyz
x,y,z
-x,y,1/2-z
-x,-y,-z
x,-y,1/2+z
1/2+x,1/2+y,z
1/2-x,1/2+y,1/2-z
1/2-x,1/2-y,-z
1/2+x,1/2-y,1/2+z
loop_
_atom_site_type_symbol
_atom_site_label
_atom_site_fract_x
_atom_site_fract_y
_atom_site_fract_z
Si Si1 0.593665 0.667361 0.562115
Si Si2 0.795925 0.092820 0.431964
Si Si3 0.874010 0.016414 0.755628
Si Si4 0.000000 0.769645 0.250000
Si Si5 0.377279 0.858166 0.570093
Si Si6 0.093521 0.233574 0.136561
Si Si7 0.657939 0.988214 0.611663
O O1 0.656625 0.562757 0.544678
O O2 0.590081 0.584610 0.642408
O O3 0.495820 0.692635 0.465456
O O4 0.636764 0.821362 0.604353
O O5 0.691615 0.088204 0.401242
O O6 0.843209 0.203655 0.518591
O O7 0.818437 0.168011 0.361232
O O8 0.765581 0.015256 0.683925
O O9 0.916602 0.121519 0.716423
O O10 0.907471 0.851426 0.782440
O O11 0.975639 0.669900 0.163191
O O12 0.372404 0.960040 0.492303
O O13 0.106794 0.403943 0.142165
#
# Coordination Sequence:
#
# PCOD9272637 Si02
#       7
#     8   8   8   4   8   8   8
#     4  11  22  38  62  88 120 159 199 245 297 358
#     4   9  18  37  59  83 112 149 195 239 290 350
#     4  11  22  38  62  86 115 157 205 248 295 363
#     4  12  22  38  64  88 112 158 212 252 302 360
#     4  10  21  38  61  86 119 156 196 248 299 355
#     4  10  20  37  59  85 115 152 198 244 290 349
#     4  11  23  38  58  90 125 157 193 247 307 354
#
# _framework density 22.415261000000001
#
# number of rings (size 3 to 8) (size 9 to 14) (size 15 to 20)
#    0.000    1.538    0.000    8.769    0.000    1.846 
#    0.000    1.538    0.000    1.846    0.000    0.000 
#    0.000    0.000    0.000    0.000    0.000    0.000 
#
# Total GULP energy -145274.475479 kJ/mol
# GULP energy per Si atom -5587.479826 kJ/mol
# Density = 2.236424 g / cm^3
# Si number density = 22.415261 Si / 1000 Ang^3
#
#
#
# Elastic Constant Matrix: (Units=GPa)
#
#
# Indices 1 2 3 4 5 6 
#
# 1 50.1266 29.7718 -10.4445 0.0000 6.2745 0.0000
# 2 29.7718 141.9724 -2.6113 0.0000 14.7398 0.0000
# 3 -10.4445 -2.6113 45.5006 0.0000 13.3517 0.0000
# 4 0.0000 0.0000 0.0000 24.4712 0.0000 -5.0073
# 5 6.2745 14.7398 13.3517 0.0000 17.4930 0.0000
# 6 0.0000 0.0000 0.0000 -5.0073 0.0000 30.0399
#
#
#
# Elastic Compliance Matrix: (Units=1/GPa)
#
#
# Indices 1 2 3 4 5 6 
#
# 1 0.025944 -0.003868 0.009674 0.000000 -0.013430 0.000000
# 2 -0.003868 0.008634 0.001721 0.000000 -0.007201 0.000000
# 3 0.009674 0.001721 0.033170 0.000000 -0.030237 0.000000
# 4 0.000000 0.000000 0.000000 0.042307 0.000000 0.007052
# 5 -0.013430 -0.007201 -0.030237 0.000000 0.091129 0.000000
# 6 0.000000 0.000000 0.000000 0.007052 0.000000 0.034465
#
#
# Mechanical properties :
#
#
# Convention : Reuss Voigt Hill
#
# Bulk Modulus (GPa) = 12.07713 30.11464 21.09588
# Shear Modulus (GPa) = 20.14537 29.12638 24.63587
#
# Velocity S-wave (km/s) = 3.00114 3.60863 3.31881
# Velocity P-wave (km/s) = 4.17238 5.55221 4.91099
#
# Compressibility (1/GPa) = 0.08280115
#
# Stress axis : x y z
#
# Youngs Moduli (GPa) = 38.54496 115.82055 30.14780
#
# Poissons Ratio (x) = 0.44801 -0.29166
# Poissons Ratio (y) = 0.14910 -0.05187
# Poissons Ratio (z) = -0.37289 -0.19929
#
# Static dielectric constant tensor:
#      x y z
#    x 1.890610 0.000000 -0.021420 
#    y 0.000000 1.854930 0.000000 
#    z -0.021420 0.000000 1.834740 
# 
# From -- ./inp_files/214353.got.cif
#   From: 2010.05.17/outbox.cif.g08.bks.cpg/sg15_108_cif.got.tgz:214353.got - 2010.06.03 18:47:42.
