data_PCOD9272413
_publ_section_title
;
Structure prediction by ZEFSAII (Michael W. Deem and Ramdas Pophale) SiO2 
 PCOD9272413
Probable space group: C 2/C
;
_chemical_formula_sum "Si O2"
_cell_formula_units_Z 60
_cell_length_a 17.366121
_cell_length_b 9.090787
_cell_length_c 22.645385
_cell_angle_alpha 90.000000
_cell_angle_beta 122.235463
_cell_angle_gamma 90.000000
_cell_volume 3024.016354
_symmetry_space_group_name_H-M "C 2/C"
_symmetry_group_IT_number 15
_symmetry_cell_setting 'monoclinic'
loop_
_space_group_symop_operation_xyz
x,y,z
-x,y,1/2-z
-x,-y,-z
x,-y,1/2+z
1/2+x,1/2+y,z
1/2-x,1/2+y,1/2-z
1/2-x,1/2-y,-z
1/2+x,1/2-y,1/2+z
loop_
_atom_site_type_symbol
_atom_site_label
_atom_site_fract_x
_atom_site_fract_y
_atom_site_fract_z
Si Si1 0.266768 0.087703 0.430201
Si Si2 0.869480 0.849195 0.272222
Si Si3 0.671986 0.008637 0.372199
Si Si4 0.777276 0.277263 0.390454
Si Si5 0.380462 0.746011 0.060286
Si Si6 0.500000 0.826551 0.750000
Si Si7 0.772190 0.724467 0.694557
Si Si8 0.091952 0.827538 0.658199
O O1 0.346823 0.199196 0.482701
O O2 0.185346 0.115708 0.443603
O O3 0.226880 0.145294 0.352106
O O4 0.300714 0.922304 0.437031
O O5 0.800754 0.832007 0.188199
O O6 0.816682 0.761125 0.301637
O O7 0.961237 0.775773 0.286336
O O8 0.887365 0.009817 0.307164
O O9 0.733874 0.148835 0.412666
O O10 0.580023 0.073081 0.307396
O O11 0.645014 0.887448 0.409371
O O12 0.725256 0.923784 0.342031
O O13 0.857580 0.211172 0.382621
O O14 0.484993 0.702807 0.108695
O O15 0.859464 0.725376 0.772807
#
# Coordination Sequence:
#
# PCOD9272413 Si02
#       8
#     8   8   8   8   8   4   8   8
#     4  10  22  42  60  85 121 168 189 247 297 357
#     4  10  21  35  57  95 119 149 191 251 299 351
#     4  10  20  37  55  89 114 160 188 251 290 352
#     4  10  21  37  61  83 121 155 199 235 307 350
#     4  10  24  39  62  86 123 153 210 239 297 345
#     4  10  22  32  58  88 128 140 196 248 304 332
#     4  10  20  38  63  83 124 151 198 237 303 345
#     4  11  21  36  63  92 111 156 201 249 284 362
#
# _framework density 19.841163000000002
#
# number of rings (size 3 to 8) (size 9 to 14) (size 15 to 20)
#    0.000    1.867    2.667    0.800    3.733    3.733 
#    0.000    0.667    0.000    0.000    0.000    0.000 
#    0.000    0.000    0.000    0.000    0.000    0.000 
#
# Total GULP energy -167317.077458 kJ/mol
# GULP energy per Si atom -5577.235915 kJ/mol
# Density = 1.979600 g / cm^3
# Si number density = 19.841163 Si / 1000 Ang^3
#
#
#
# Elastic Constant Matrix: (Units=GPa)
#
#
# Indices 1 2 3 4 5 6 
#
# 1 94.1890 37.5535 24.2606 0.0000 11.9685 0.0000
# 2 37.5535 76.8360 0.7567 0.0000 1.3145 0.0000
# 3 24.2606 0.7567 35.6483 0.0000 10.5591 0.0000
# 4 0.0000 0.0000 0.0000 23.2906 0.0000 -3.9505
# 5 11.9685 1.3145 10.5591 0.0000 21.7262 0.0000
# 6 0.0000 0.0000 0.0000 -3.9505 0.0000 19.9205
#
#
#
# Elastic Compliance Matrix: (Units=1/GPa)
#
#
# Indices 1 2 3 4 5 6 
#
# 1 0.016994 -0.008138 -0.010239 0.000000 -0.003893 0.000000
# 2 -0.008138 0.016926 0.004853 0.000000 0.001100 0.000000
# 3 -0.010239 0.004853 0.038939 0.000000 -0.013578 0.000000
# 4 0.000000 0.000000 0.000000 0.044430 0.000000 0.008811
# 5 -0.003893 0.001100 -0.013578 0.000000 0.054704 0.000000
# 6 0.000000 0.000000 0.000000 0.008811 0.000000 0.051947
#
#
# Mechanical properties :
#
#
# Convention : Reuss Voigt Hill
#
# Bulk Modulus (GPa) = 21.82945 36.86832 29.34889
# Shear Modulus (GPa) = 18.77879 22.59430 20.68655
#
# Velocity S-wave (km/s) = 3.07979 3.37821 3.23245
# Velocity P-wave (km/s) = 4.86547 5.81709 5.36243
#
# Compressibility (1/GPa) = 0.04580967
#
# Stress axis : x y z
#
# Youngs Moduli (GPa) = 58.84539 59.08199 25.68123
#
# Poissons Ratio (x) = 0.48082 0.26296
# Poissons Ratio (y) = 0.47890 -0.12464
# Poissons Ratio (z) = 0.60254 -0.28674
#
# Static dielectric constant tensor:
#      x y z
#    x 1.675270 0.000000 -0.019360 
#    y 0.000000 1.724680 0.000000 
#    z -0.019360 0.000000 1.713650 
# 
# From -- ./inp_files/247419.got.cif
#   From: 2010.05.17/outbox.cif.g08.bks.cpg/sg15_124_cif.got.tgz:247419.got - 2010.06.03 18:47:42.
