data_PCOD9272256
_publ_section_title
;
Structure prediction by ZEFSAII (Michael W. Deem and Ramdas Pophale) SiO2 
 PCOD9272256
Probable space group: C 2/C
;
_chemical_formula_sum "Si O2"
_cell_formula_units_Z 56
_cell_length_a 9.078801
_cell_length_b 12.637773
_cell_length_c 26.986340
_cell_angle_alpha 90.000000
_cell_angle_beta 59.158109
_cell_angle_gamma 90.000000
_cell_volume 2658.437660
_symmetry_space_group_name_H-M "C 2/C"
_symmetry_group_IT_number 15
_symmetry_cell_setting 'monoclinic'
loop_
_space_group_symop_operation_xyz
x,y,z
-x,y,1/2-z
-x,-y,-z
x,-y,1/2+z
1/2+x,1/2+y,z
1/2-x,1/2+y,1/2-z
1/2-x,1/2-y,-z
1/2+x,1/2-y,1/2+z
loop_
_atom_site_type_symbol
_atom_site_label
_atom_site_fract_x
_atom_site_fract_y
_atom_site_fract_z
Si Si1 0.038137 0.843774 0.863297
Si Si2 0.278680 0.565939 0.686806
Si Si3 0.090597 0.148717 0.574366
Si Si4 0.844409 0.155887 0.046241
Si Si5 0.931724 0.379002 0.186214
Si Si6 0.299187 0.927756 0.551854
Si Si7 0.913914 0.519984 0.934186
O O1 0.062604 0.830215 0.918056
O O2 0.088173 0.744563 0.821772
O O3 0.834194 0.859393 0.894477
O O4 0.148924 0.947126 0.830986
O O5 0.427610 0.638924 0.637945
O O6 0.226014 0.584784 0.752742
O O7 0.106084 0.590811 0.685589
O O8 0.046530 0.154156 0.523331
O O9 0.208110 0.249163 0.565407
O O10 0.203462 0.042110 0.562970
O O11 0.739606 0.045290 0.064089
O O12 0.959849 0.432218 0.128018
O O13 0.342678 0.898211 0.487575
O O14 0.473940 0.939870 0.551780
#
# Coordination Sequence:
#
# PCOD9272256 Si02
#       7
#     8   8   8   8   8   8   8
#     4  11  23  42  66  93 121 168 214 261 324 387
#     4  10  24  45  60  94 129 165 211 273 306 389
#     4   9  20  38  61  90 132 161 212 264 317 386
#     4  10  20  36  66  94 123 168 208 261 333 373
#     4  11  24  42  65  92 128 169 216 258 321 392
#     4   9  21  37  60  94 129 162 209 263 327 372
#     4  10  20  38  60  93 133 164 205 269 311 384
#
# _framework density 21.065003000000001
#
# number of rings (size 3 to 8) (size 9 to 14) (size 15 to 20)
#    0.000    2.000    1.429    0.857    4.000    4.571 
#    2.571    5.000    0.000    0.000    0.000    0.000 
#    0.000    0.000    0.000    0.000    0.000    0.000 
#
# Total GULP energy -156405.091597 kJ/mol
# GULP energy per Si atom -5585.896128 kJ/mol
# Density = 2.101706 g / cm^3
# Si number density = 21.065003 Si / 1000 Ang^3
#
#
#
# Elastic Constant Matrix: (Units=GPa)
#
#
# Indices 1 2 3 4 5 6 
#
# 1 40.2661 -2.1537 17.2464 0.0000 -11.5812 0.0000
# 2 -2.1537 62.7805 45.6456 0.0000 -0.8068 0.0000
# 3 17.2464 45.6456 156.4516 0.0000 -23.8695 0.0000
# 4 0.0000 0.0000 0.0000 28.5996 0.0000 2.7777
# 5 -11.5812 -0.8068 -23.8695 0.0000 25.9914 0.0000
# 6 0.0000 0.0000 0.0000 2.7777 0.0000 16.8063
#
#
#
# Elastic Compliance Matrix: (Units=1/GPa)
#
#
# Indices 1 2 3 4 5 6 
#
# 1 0.029142 0.002879 -0.002393 0.000000 0.010877 0.000000
# 2 0.002879 0.021220 -0.007224 0.000000 -0.004693 0.000000
# 3 -0.002393 -0.007224 0.009962 0.000000 0.007858 0.000000
# 4 0.000000 0.000000 0.000000 0.035536 0.000000 -0.005873
# 5 0.010877 -0.004693 0.007858 0.000000 0.050392 0.000000
# 6 0.000000 0.000000 0.000000 -0.005873 0.000000 0.060472
#
#
# Mechanical properties :
#
#
# Convention : Reuss Voigt Hill
#
# Bulk Modulus (GPa) = 21.34567 42.33054 31.83810
# Shear Modulus (GPa) = 21.20300 27.53012 24.36656
#
# Velocity S-wave (km/s) = 3.17606 3.61905 3.40477
# Velocity P-wave (km/s) = 4.85850 6.13206 5.53205
#
# Compressibility (1/GPa) = 0.04684791
#
# Stress axis : x y z
#
# Youngs Moduli (GPa) = 34.31460 47.12643 100.37929
#
# Poissons Ratio (x) = -0.13570 0.24022
# Poissons Ratio (y) = -0.09881 0.72517
# Poissons Ratio (z) = 0.08212 0.34046
#
# Static dielectric constant tensor:
#      x y z
#    x 1.768780 0.000000 0.011610 
#    y 0.000000 1.772500 0.000000 
#    z 0.011610 0.000000 1.759750 
# 
# From -- ./inp_files/264585.got.cif
#   From: 2010.05.17/outbox.cif.g08.bks.cpg/sg15_133_cif.got.tgz:264585.got - 2010.06.03 18:47:42.
