data_PCOD9272217
_publ_section_title
;
Structure prediction by ZEFSAII (Michael W. Deem and Ramdas Pophale) SiO2 
 PCOD9272217
Probable space group: C 2/C
;
_chemical_formula_sum "Si O2"
_cell_formula_units_Z 44
_cell_length_a 11.431676
_cell_length_b 20.184542
_cell_length_c 9.753351
_cell_angle_alpha 90.000000
_cell_angle_beta 81.580238
_cell_angle_gamma 90.000000
_cell_volume 2226.262534
_symmetry_space_group_name_H-M "C 2/C"
_symmetry_group_IT_number 15
_symmetry_cell_setting 'monoclinic'
loop_
_space_group_symop_operation_xyz
x,y,z
-x,y,1/2-z
-x,-y,-z
x,-y,1/2+z
1/2+x,1/2+y,z
1/2-x,1/2+y,1/2-z
1/2-x,1/2-y,-z
1/2+x,1/2-y,1/2+z
loop_
_atom_site_type_symbol
_atom_site_label
_atom_site_fract_x
_atom_site_fract_y
_atom_site_fract_z
Si Si1 0.500000 0.197899 0.750000
Si Si2 0.000000 0.140325 0.750000
Si Si3 0.302595 0.870981 0.444398
Si Si4 0.692463 0.466815 0.265341
Si Si5 0.424093 0.038636 0.125239
Si Si6 0.000000 0.923444 0.750000
Si Si7 0.937963 0.809703 0.971377
O O1 0.613164 0.152327 0.695536
O O2 0.493615 0.247645 0.881399
O O3 0.885780 0.092307 0.786757
O O4 0.983009 0.183431 0.617759
O O5 0.231678 0.935811 0.403765
O O6 0.378792 0.893832 0.561411
O O7 0.204412 0.816541 0.497159
O O8 0.811699 0.492412 0.176389
O O9 0.605976 0.529405 0.279847
O O10 0.500000 0.048953 0.250000
O O11 0.500000 0.000000 0.000000
O O12 0.028105 0.875079 0.619852
#
# Coordination Sequence:
#
# PCOD9272217 Si02
#       7
#     4   4   8   8   8   4   8
#     4  11  24  45  64  82 123 175 224 250 306 363
#     4   9  22  37  64  98 121 154 207 272 314 353
#     4  11  22  41  64  91 125 169 206 261 312 369
#     4  10  21  37  64  95 134 154 204 253 324 382
#     4  12  23  37  59  94 133 166 196 244 317 394
#     4  10  20  36  66 100 122 165 201 260 314 376
#     4  10  22  41  66  90 123 165 216 260 306 361
#
# _framework density 19.764064999999999
#
# number of rings (size 3 to 8) (size 9 to 14) (size 15 to 20)
#    0.000    1.455    3.636    1.636    2.545    2.182 
#    1.636    3.636    0.000    0.000    0.000    0.000 
#    0.000    0.000    0.000    0.000    0.000    0.000 
#
# Total GULP energy -122727.564608 kJ/mol
# GULP energy per Si atom -5578.525664 kJ/mol
# Density = 1.971908 g / cm^3
# Si number density = 19.764065 Si / 1000 Ang^3
#
#
#
# Elastic Constant Matrix: (Units=GPa)
#
#
# Indices 1 2 3 4 5 6 
#
# 1 123.3888 32.9531 69.5511 0.0000 5.1220 0.0000
# 2 32.9531 70.5710 49.3212 0.0000 14.3939 0.0000
# 3 69.5511 49.3212 130.7030 0.0000 9.3564 0.0000
# 4 0.0000 0.0000 0.0000 30.0956 0.0000 -9.5916
# 5 5.1220 14.3939 9.3564 0.0000 37.5982 0.0000
# 6 0.0000 0.0000 0.0000 -9.5916 0.0000 -0.5574
#
#
#
# Elastic Compliance Matrix: (Units=1/GPa)
#
#
# Indices 1 2 3 4 5 6 
#
# 1 0.011700 -0.001599 -0.005653 0.000000 0.000425 0.000000
# 2 -0.001599 0.020726 -0.006534 0.000000 -0.006091 0.000000
# 3 -0.005653 -0.006534 0.013124 0.000000 0.000005 0.000000
# 4 0.000000 0.000000 0.000000 0.005124 0.000000 -0.088179
# 5 0.000425 -0.006091 0.000005 0.000000 0.028869 0.000000
# 6 0.000000 0.000000 0.000000 -0.088179 0.000000 -0.276681
#
#
# Mechanical properties :
#
#
# Convention : Reuss Voigt Hill
#
# Bulk Modulus (GPa) = 55.62405 69.81262 62.71833
# Shear Modulus (GPa) = -30.56758 24.94979 -2.80889
#
# Velocity S-wave (km/s) = -3.93698 3.55686 -1.19344
# Velocity P-wave (km/s) = 2.74567 7.22966 5.46840
#
# Compressibility (1/GPa) = 0.01797784
#
# Stress axis : x y z
#
# Youngs Moduli (GPa) = 85.46684 48.24950 76.19474
#
# Poissons Ratio (x) = 0.07717 0.43073
# Poissons Ratio (y) = 0.13669 0.49784
# Poissons Ratio (z) = 0.48315 0.31525
#
# Static dielectric constant tensor:
#      x y z
#    x 1.733360 0.000000 -0.019240 
#    y 0.000000 1.717910 0.000000 
#    z -0.019240 0.000000 1.687320 
# 
# From -- ./inp_files/30885.got.cif
#   From: 2010.05.17/outbox.cif.g08.bks.cpg/sg15_16_cif.got.tgz:30885.got - 2010.06.03 18:47:42.
