data_PCOD9272181
_publ_section_title
;
Structure prediction by ZEFSAII (Michael W. Deem and Ramdas Pophale) SiO2 
 PCOD9272181
Probable space group: C 2/C
;
_chemical_formula_sum "Si O2"
_cell_formula_units_Z 56
_cell_length_a 17.710337
_cell_length_b 18.124090
_cell_length_c 16.415334
_cell_angle_alpha 90.000000
_cell_angle_beta 154.974059
_cell_angle_gamma 90.000000
_cell_volume 2228.960860
_symmetry_space_group_name_H-M "C 2/C"
_symmetry_group_IT_number 15
_symmetry_cell_setting 'monoclinic'
loop_
_space_group_symop_operation_xyz
x,y,z
-x,y,1/2-z
-x,-y,-z
x,-y,1/2+z
1/2+x,1/2+y,z
1/2-x,1/2+y,1/2-z
1/2-x,1/2-y,-z
1/2+x,1/2-y,1/2+z
loop_
_atom_site_type_symbol
_atom_site_label
_atom_site_fract_x
_atom_site_fract_y
_atom_site_fract_z
Si Si1 0.447599 0.207043 0.841886
Si Si2 0.820270 0.140897 0.784818
Si Si3 0.323922 0.933010 0.921107
Si Si4 0.580898 0.533522 0.473640
Si Si5 0.040598 0.413305 0.885279
Si Si6 0.700622 0.622762 0.123974
Si Si7 0.639191 0.671245 0.455431
O O1 0.326592 0.183330 0.801530
O O2 0.534626 0.287583 0.928117
O O3 0.324087 0.212084 0.641230
O O4 0.589824 0.142889 0.963306
O O5 0.717950 0.121485 0.600823
O O6 0.872316 0.066709 0.889923
O O7 0.021005 0.170170 0.960595
O O8 0.123169 0.952063 0.751783
O O9 0.284721 0.908937 0.789810
O O10 0.447893 0.004013 0.061196
O O11 0.630724 0.450256 0.510429
O O12 0.693883 0.588051 0.528798
O O13 0.000000 0.425217 0.750000
O O14 0.880252 0.356726 0.753314
O O15 0.500000 0.667296 0.250000
#
# Coordination Sequence:
#
# PCOD9272181 Si02
#       7
#     8   8   8   8   8   8   8
#     4  11  23  40  66  84 129 179 227 270 317 375
#     4  10  20  40  58  90 116 168 218 266 325 380
#     4  11  20  37  62  88 125 173 222 263 318 388
#     4  10  20  36  65  85 124 177 215 263 313 377
#     4  12  23  34  57  95 131 161 202 264 334 396
#     4  11  20  39  64  89 129 168 221 271 318 398
#     4  11  24  40  57  93 134 178 224 268 312 380
#
# _framework density 25.123813999999999
#
# number of rings (size 3 to 8) (size 9 to 14) (size 15 to 20)
#    0.000    1.143    4.286    4.286    0.000    3.429 
#    0.000    0.000    0.000    0.000    0.000    4.000 
#    0.000    0.000    0.000    0.000    0.000    0.000 
#
# Total GULP energy -155966.779403 kJ/mol
# GULP energy per Si atom -5570.242122 kJ/mol
# Density = 2.506663 g / cm^3
# Si number density = 25.123814 Si / 1000 Ang^3
#
#
#
# Elastic Constant Matrix: (Units=GPa)
#
#
# Indices 1 2 3 4 5 6 
#
# 1 36.9682 0.8446 48.0079 0.0042 -4.7763 0.0011
# 2 0.8446 52.1158 27.4442 0.0084 -2.3919 0.0028
# 3 48.0079 27.4442 187.7472 0.0125 -10.5991 0.0056
# 4 0.0042 0.0084 0.0125 32.0342 0.0073 7.3589
# 5 -4.7763 -2.3919 -10.5991 0.0073 37.4868 0.0028
# 6 0.0011 0.0028 0.0056 7.3589 0.0028 18.8898
#
#
#
# Elastic Compliance Matrix: (Units=1/GPa)
#
#
# Indices 1 2 3 4 5 6 
#
# 1 0.042066 0.005442 -0.011412 -0.000003 0.002480 0.000001
# 2 0.005442 0.021500 -0.004489 -0.000005 0.000796 -0.000001
# 3 -0.011412 -0.004489 0.008945 -0.000001 0.000789 -0.000001
# 4 -0.000003 -0.000005 -0.000001 0.034285 -0.000007 -0.013356
# 5 0.002480 0.000796 0.000789 -0.000007 0.027266 -0.000002
# 6 0.000001 -0.000001 -0.000001 -0.013356 -0.000002 0.058142
#
#
# Mechanical properties :
#
#
# Convention : Reuss Voigt Hill
#
# Bulk Modulus (GPa) = 19.38268 47.71385 33.54826
# Shear Modulus (GPa) = 21.70879 31.05112 26.37996
#
# Velocity S-wave (km/s) = 2.94270 3.51938 3.24388
# Velocity P-wave (km/s) = 4.39062 5.96217 5.23570
#
# Compressibility (1/GPa) = 0.05159246
#
# Stress axis : x y z
#
# Youngs Moduli (GPa) = 23.77200 46.51063 111.79213
#
# Poissons Ratio (x) = -0.25309 1.27577
# Poissons Ratio (y) = -0.12936 0.50188
# Poissons Ratio (z) = 0.27129 0.20880
#
# Static dielectric constant tensor:
#      x y z
#    x 2.137480 0.000000 0.012460 
#    y 0.000000 2.008290 0.000000 
#    z 0.012460 0.000000 2.019530 
# 
# From -- ./inp_files/216661.got.cif
#   From: 2010.05.17/outbox.cif.g08.bks.cpg/sg15_109_cif.got.tgz:216661.got - 2010.06.03 18:47:42.
