data_PCOD9272784
_publ_section_title
;
Structure prediction by ZEFSAII (Michael W. Deem and Ramdas Pophale) SiO2 
 PCOD9272784
Probable space group: C 2/C
;
_chemical_formula_sum "Si O2"
_cell_formula_units_Z 48
_cell_length_a 20.524502
_cell_length_b 8.474937
_cell_length_c 27.163042
_cell_angle_alpha 90.000000
_cell_angle_beta 150.502117
_cell_angle_gamma 90.000000
_cell_volume 2326.472762
_symmetry_space_group_name_H-M "C 2/C"
_symmetry_group_IT_number 15
_symmetry_cell_setting 'monoclinic'
loop_
_space_group_symop_operation_xyz
x,y,z
-x,y,1/2-z
-x,-y,-z
x,-y,1/2+z
1/2+x,1/2+y,z
1/2-x,1/2+y,1/2-z
1/2-x,1/2-y,-z
1/2+x,1/2-y,1/2+z
loop_
_atom_site_type_symbol
_atom_site_label
_atom_site_fract_x
_atom_site_fract_y
_atom_site_fract_z
Si Si1 0.125850 0.770473 0.853850
Si Si2 0.866643 0.113260 0.688488
Si Si3 0.107155 0.974702 0.615917
Si Si4 0.364571 0.241828 0.290873
Si Si5 0.151245 0.753911 0.480935
Si Si6 0.901358 0.122775 0.051655
O O1 0.095647 0.812974 0.890817
O O2 0.000000 0.677953 0.750000
O O3 0.136786 0.932808 0.830817
O O4 0.265582 0.688590 0.940640
O O5 0.868654 0.137727 0.747539
O O6 0.736882 0.195914 0.582538
O O7 0.000000 0.179643 0.750000
O O8 0.247491 0.882755 0.702599
O O9 0.029219 0.857061 0.602272
O O10 0.139630 0.145539 0.663123
O O11 0.000000 0.000000 0.500000
O O12 0.511612 0.163430 0.386145
O O13 0.250000 0.750000 0.500000
O O14 0.114852 0.935605 0.460121
#
# Coordination Sequence:
#
# PCOD9272784 Si02
#       6
#     8   8   8   8   8   8
#     4  10  20  37  60  88 119 157 202 256 326 378
#     4  11  20  37  64  92 123 161 213 271 328 388
#     4  11  25  46  63  91 136 173 222 271 323 408
#     4  11  24  42  66  93 127 178 218 272 338 390
#     4  11  19  38  62  95 124 153 214 274 323 385
#     4  10  22  39  58  88 125 156 201 265 311 382
#
# _framework density 20.632093000000001
#
# number of rings (size 3 to 8) (size 9 to 14) (size 15 to 20)
#    0.000    1.333    3.333    5.000    0.000    4.667 
#    3.000    2.500    0.000    0.000    0.000    0.000 
#    0.000    0.000    0.000    0.000    0.000    0.000 
#
# Total GULP energy -133765.185163 kJ/mol
# GULP energy per Si atom -5573.549382 kJ/mol
# Density = 2.058513 g / cm^3
# Si number density = 20.632093 Si / 1000 Ang^3
#
#
#
# Elastic Constant Matrix: (Units=GPa)
#
#
# Indices 1 2 3 4 5 6 
#
# 1 64.0502 16.9768 43.8169 0.0000 12.6577 0.0001
# 2 16.9768 22.7430 40.4761 0.0001 8.9499 -0.0001
# 3 43.8169 40.4761 191.3505 0.0003 14.9890 0.0000
# 4 0.0000 0.0001 0.0003 -16.5934 0.0001 -1.1911
# 5 12.6577 8.9499 14.9890 0.0001 44.8696 0.0000
# 6 0.0001 -0.0001 0.0000 -1.1911 0.0000 18.2195
#
#
#
# Elastic Compliance Matrix: (Units=1/GPa)
#
#
# Indices 1 2 3 4 5 6 
#
# 1 0.020437 -0.009883 -0.002354 0.000000 -0.003008 0.000000
# 2 -0.009883 0.079313 -0.013856 0.000000 -0.008404 0.000001
# 3 -0.002354 -0.013856 0.008654 0.000000 0.000537 0.000000
# 4 0.000000 0.000000 0.000000 -0.059983 0.000000 -0.003921
# 5 -0.003008 -0.008404 0.000537 0.000000 0.024632 0.000000
# 6 0.000000 0.000001 0.000000 -0.003921 0.000000 0.054630
#
#
# Mechanical properties :
#
#
# Convention : Reuss Voigt Hill
#
# Bulk Modulus (GPa) = 17.78751 53.40926 35.59838
# Shear Modulus (GPa) = 25.17540 21.09071 23.13305
#
# Velocity S-wave (km/s) = 3.49693 3.20070 3.35209
# Velocity P-wave (km/s) = 4.99447 6.29301 5.68096
#
# Compressibility (1/GPa) = 0.05621924
#
# Stress axis : x y z
#
# Youngs Moduli (GPa) = 48.93139 12.60827 115.55653
#
# Poissons Ratio (x) = 0.12461 0.27198
# Poissons Ratio (y) = 0.48358 1.60111
# Poissons Ratio (z) = 0.11517 0.17470
#
# Static dielectric constant tensor:
#      x y z
#    x 1.843350 0.000000 0.061620 
#    y 0.000000 1.718470 0.000000 
#    z 0.061620 0.000000 1.879100 
# 
# From -- ./inp_files/300553.got.cif
#   From: 2010.05.17/outbox.cif.g08.bks.cpg/sg15_151_cif.got.tgz:300553.got - 2010.06.03 18:47:42.
