data_PCOD9272012
_publ_section_title
;
Structure prediction by ZEFSAII (Michael W. Deem and Ramdas Pophale) SiO2 
 PCOD9272012
Probable space group: C 2/C
;
_chemical_formula_sum "Si O2"
_cell_formula_units_Z 56
_cell_length_a 8.685496
_cell_length_b 26.610791
_cell_length_c 17.394119
_cell_angle_alpha 90.000000
_cell_angle_beta 138.853856
_cell_angle_gamma 90.000000
_cell_volume 2645.262710
_symmetry_space_group_name_H-M "C 2/C"
_symmetry_group_IT_number 15
_symmetry_cell_setting 'monoclinic'
loop_
_space_group_symop_operation_xyz
x,y,z
-x,y,1/2-z
-x,-y,-z
x,-y,1/2+z
1/2+x,1/2+y,z
1/2-x,1/2+y,1/2-z
1/2-x,1/2-y,-z
1/2+x,1/2-y,1/2+z
loop_
_atom_site_type_symbol
_atom_site_label
_atom_site_fract_x
_atom_site_fract_y
_atom_site_fract_z
Si Si1 0.720488 0.839960 0.460408
Si Si2 0.740353 0.456338 0.634340
Si Si3 0.850701 0.072661 0.889570
Si Si4 0.214512 0.860040 0.272953
Si Si5 0.459752 0.810645 0.644608
Si Si6 0.070424 0.215017 0.586821
Si Si7 0.390968 0.617245 0.291479
O O1 0.742225 0.885910 0.406197
O O2 0.468293 0.848362 0.403479
O O3 0.761978 0.790808 0.423764
O O4 0.932411 0.844973 0.598818
O O5 0.734309 0.516319 0.626269
O O6 0.624091 0.431651 0.515612
O O7 0.601858 0.433442 0.654716
O O8 0.000000 0.440353 0.750000
O O9 0.798607 0.089609 0.783665
O O10 0.000000 0.859272 0.250000
O O11 0.177425 0.816724 0.196380
O O12 0.500000 0.796226 0.750000
O O13 0.177655 0.811613 0.528532
O O14 0.531252 0.769436 0.607623
O O15 0.633246 0.857585 0.694630
O O16 0.500000 0.607773 0.250000
#
# Coordination Sequence:
#
# PCOD9272012 Si02
#       7
#     8   8   8   8   8   8   8
#     4  10  21  42  63  86 123 164 202 252 305 364
#     4  10  20  36  63  88 117 164 208 250 303 365
#     4   9  20  38  60  90 120 158 208 253 303 362
#     4  11  23  37  62  89 121 160 205 247 306 365
#     4  11  22  42  64  92 123 155 207 251 305 365
#     4  10  22  40  66  88 119 160 201 258 299 362
#     4  11  25  38  59  91 129 163 199 253 307 365
#
# _framework density 21.169920999999999
#
# number of rings (size 3 to 8) (size 9 to 14) (size 15 to 20)
#    0.000    1.714    1.429    3.429    6.000    1.714 
#    0.000    1.429    0.000    6.857    0.000    0.000 
#    0.000    0.000    0.000    0.000    0.000    0.000 
#
# Total GULP energy -156233.627449 kJ/mol
# GULP energy per Si atom -5579.772409 kJ/mol
# Density = 2.112174 g / cm^3
# Si number density = 21.169921 Si / 1000 Ang^3
#
#
#
# Elastic Constant Matrix: (Units=GPa)
#
#
# Indices 1 2 3 4 5 6 
#
# 1 75.3247 -0.6691 3.4815 0.0001 7.3487 0.0000
# 2 -0.6691 54.5478 -7.0575 -0.0001 3.0956 -0.0001
# 3 3.4815 -7.0575 67.6753 0.0016 21.6878 0.0015
# 4 0.0001 -0.0001 0.0016 18.6808 0.0005 -1.4169
# 5 7.3487 3.0956 21.6878 0.0005 38.0116 0.0005
# 6 0.0000 -0.0001 0.0015 -1.4169 0.0005 14.7022
#
#
#
# Elastic Compliance Matrix: (Units=1/GPa)
#
#
# Indices 1 2 3 4 5 6 
#
# 1 0.013539 0.000354 0.000231 0.000000 -0.002778 0.000000
# 2 0.000354 0.018917 0.003023 0.000000 -0.003334 0.000000
# 3 0.000231 0.003023 0.018568 -0.000001 -0.010885 -0.000002
# 4 0.000000 0.000000 -0.000001 0.053925 0.000000 0.005197
# 5 -0.002778 -0.003334 -0.010885 0.000000 0.033327 0.000000
# 6 0.000000 0.000000 -0.000002 0.005197 0.000000 0.068518
#
#
# Mechanical properties :
#
#
# Convention : Reuss Voigt Hill
#
# Bulk Modulus (GPa) = 17.17066 21.00638 19.08852
# Shear Modulus (GPa) = 22.83177 27.73179 25.28178
#
# Velocity S-wave (km/s) = 3.28762 3.62327 3.45951
# Velocity P-wave (km/s) = 4.74760 5.23912 4.99940
#
# Compressibility (1/GPa) = 0.05823887
#
# Stress axis : x y z
#
# Youngs Moduli (GPa) = 73.85873 52.86195 53.85571
#
# Poissons Ratio (x) = -0.01869 -0.01242
# Poissons Ratio (y) = -0.02611 -0.16280
# Poissons Ratio (z) = -0.01703 -0.15980
#
# Static dielectric constant tensor:
#      x y z
#    x 1.772560 0.000000 0.031330 
#    y 0.000000 1.784850 0.000000 
#    z 0.031330 0.000000 1.796820 
# 
# From -- ./inp_files/194093.got.cif
#   From: 2010.05.17/outbox.cif.g08.bks.cpg/sg15_98_cif.got.tgz:194093.got - 2010.06.03 18:47:42.
