data_PCOD9272512
_publ_section_title
;
Structure prediction by ZEFSAII (Michael W. Deem and Ramdas Pophale) SiO2 
 PCOD9272512
Probable space group: C 2/C
;
_chemical_formula_sum "Si O2"
_cell_formula_units_Z 48
_cell_length_a 17.308642
_cell_length_b 18.007828
_cell_length_c 12.127151
_cell_angle_alpha 90.000000
_cell_angle_beta 33.714419
_cell_angle_gamma 90.000000
_cell_volume 2098.061324
_symmetry_space_group_name_H-M "C 2/C"
_symmetry_group_IT_number 15
_symmetry_cell_setting 'monoclinic'
loop_
_space_group_symop_operation_xyz
x,y,z
-x,y,1/2-z
-x,-y,-z
x,-y,1/2+z
1/2+x,1/2+y,z
1/2-x,1/2+y,1/2-z
1/2-x,1/2-y,-z
1/2+x,1/2-y,1/2+z
loop_
_atom_site_type_symbol
_atom_site_label
_atom_site_fract_x
_atom_site_fract_y
_atom_site_fract_z
Si Si1 0.540563 0.800561 0.576392
Si Si2 0.584980 0.593651 0.007807
Si Si3 0.170639 0.747005 0.365066
Si Si4 0.805456 0.558676 0.561308
Si Si5 0.231153 0.099439 0.187594
Si Si6 0.651775 0.561291 0.527645
O O1 0.500000 0.779989 0.750000
O O2 0.687146 0.765315 0.367701
O O3 0.436713 0.774883 0.604115
O O4 0.573464 0.889048 0.537631
O O5 0.625188 0.678451 0.982913
O O6 0.664939 0.575037 0.798517
O O7 0.419511 0.590221 0.189628
O O8 0.638659 0.527590 0.021804
O O9 0.197163 0.678173 0.414478
O O10 0.826492 0.470902 0.545582
O O11 0.764801 0.579005 0.485596
O O12 0.195291 0.095243 0.360219
O O13 0.500000 0.586287 0.750000
#
# Coordination Sequence:
#
# PCOD9272512 Si02
#       6
#     8   8   8   8   8   8
#     4  11  23  39  58  90 126 159 197 246 311 366
#     4  10  20  37  57  91 120 158 203 240 305 360
#     4  11  23  39  59  85 129 162 193 249 305 368
#     4  10  21  37  60  90 118 156 206 249 295 355
#     4  11  20  36  61  88 119 156 202 247 306 353
#     4  11  18  33  63  87 115 152 203 254 284 350
#
# _framework density 22.878264000000001
#
# number of rings (size 3 to 8) (size 9 to 14) (size 15 to 20)
#    0.000    1.333    5.000    2.500    0.000    2.667 
#    0.000    2.500    0.000    0.000    0.000    0.000 
#    0.000    0.000    0.000    0.000    0.000    0.000 
#
# Total GULP energy -134259.653947 kJ/mol
# GULP energy per Si atom -5594.152248 kJ/mol
# Density = 2.282619 g / cm^3
# Si number density = 22.878264 Si / 1000 Ang^3
#
#
#
# Elastic Constant Matrix: (Units=GPa)
#
#
# Indices 1 2 3 4 5 6 
#
# 1 32.3363 -15.7059 17.7858 0.0000 -10.4294 0.0000
# 2 -15.7059 137.2637 9.1261 -0.0002 -22.1143 0.0001
# 3 17.7858 9.1261 62.6632 -0.0001 -21.0884 0.0001
# 4 0.0000 -0.0002 -0.0001 18.4811 0.0001 -9.0607
# 5 -10.4294 -22.1143 -21.0884 0.0001 28.9522 0.0000
# 6 0.0000 0.0001 0.0001 -9.0607 0.0000 23.9025
#
#
#
# Elastic Compliance Matrix: (Units=1/GPa)
#
#
# Indices 1 2 3 4 5 6 
#
# 1 0.044910 0.008342 -0.008443 0.000000 0.016400 0.000000
# 2 0.008342 0.009929 -0.000331 0.000000 0.010348 0.000000
# 3 -0.008443 -0.000331 0.022910 0.000000 0.013393 0.000000
# 4 0.000000 0.000000 0.000000 0.066461 0.000000 0.025193
# 5 0.016400 0.010348 0.013393 0.000000 0.058106 0.000000
# 6 0.000000 0.000000 0.000000 0.025193 0.000000 0.051387
#
#
# Mechanical properties :
#
#
# Convention : Reuss Voigt Hill
#
# Bulk Modulus (GPa) = 13.00637 28.29725 20.65181
# Shear Modulus (GPa) = 17.84471 29.00431 23.42451
#
# Velocity S-wave (km/s) = 2.79585 3.56443 3.20328
# Velocity P-wave (km/s) = 4.01494 5.41625 4.76736
#
# Compressibility (1/GPa) = 0.07688542
#
# Stress axis : x y z
#
# Youngs Moduli (GPa) = 22.26670 100.71619 43.64893
#
# Poissons Ratio (x) = -0.84020 0.36851
# Poissons Ratio (y) = -0.18575 0.01447
# Poissons Ratio (z) = 0.18799 0.03339
#
# Static dielectric constant tensor:
#      x y z
#    x 1.812220 0.000000 0.019070 
#    y 0.000000 1.922270 0.000000 
#    z 0.019070 0.000000 1.830080 
# 
# From -- ./inp_files/48377.got.cif
#   From: 2010.05.17/outbox.cif.g08.bks.cpg/sg15_25_cif.got.tgz:48377.got - 2010.06.03 18:47:42.
