data_PCOD9272289
_publ_section_title
;
Structure prediction by ZEFSAII (Michael W. Deem and Ramdas Pophale) SiO2 
 PCOD9272289
Probable space group: C 2/C
;
_chemical_formula_sum "Si O2"
_cell_formula_units_Z 64
_cell_length_a 18.401207
_cell_length_b 9.381458
_cell_length_c 20.882423
_cell_angle_alpha 90.000000
_cell_angle_beta 62.926188
_cell_angle_gamma 90.000000
_cell_volume 3209.910298
_symmetry_space_group_name_H-M "C 2/C"
_symmetry_group_IT_number 15
_symmetry_cell_setting 'monoclinic'
loop_
_space_group_symop_operation_xyz
x,y,z
-x,y,1/2-z
-x,-y,-z
x,-y,1/2+z
1/2+x,1/2+y,z
1/2-x,1/2+y,1/2-z
1/2-x,1/2-y,-z
1/2+x,1/2-y,1/2+z
loop_
_atom_site_type_symbol
_atom_site_label
_atom_site_fract_x
_atom_site_fract_y
_atom_site_fract_z
Si Si1 0.965774 0.236236 0.692366
Si Si2 0.408563 0.437338 0.029907
Si Si3 0.822582 0.281728 0.205726
Si Si4 0.822538 0.040832 0.698014
Si Si5 0.779362 0.636924 0.578712
Si Si6 0.967472 0.472631 0.121717
Si Si7 0.608729 0.899425 0.978628
Si Si8 0.126791 0.838694 0.053828
O O1 0.884998 0.143586 0.711219
O O2 0.955085 0.401565 0.677585
O O3 0.000000 0.220623 0.750000
O O4 0.036220 0.184614 0.615545
O O5 0.360302 0.479895 0.112836
O O6 0.402725 0.267946 0.026330
O O7 0.500000 0.500000 0.000000
O O8 0.369528 0.511704 0.983966
O O9 0.764705 0.382742 0.270840
O O10 0.788414 0.310196 0.147482
O O11 0.915526 0.336768 0.165362
O O12 0.815183 0.117954 0.228949
O O13 0.802181 0.470983 0.558821
O O14 0.846115 0.722213 0.509547
O O15 0.691320 0.670175 0.585197
O O16 0.929392 0.527602 0.069773
O O17 0.059530 0.438879 0.063130
#
# Coordination Sequence:
#
# PCOD9272289 Si02
#       8
#     8   8   8   8   8   8   8   8
#     4  12  24  42  65  91 129 174 213 262 329 394
#     4  12  22  39  68  96 125 164 217 271 315 380
#     4  11  24  40  65  92 126 164 212 269 319 381
#     4  12  24  41  64  97 126 169 216 264 326 386
#     4  10  22  40  63  93 127 164 207 262 313 384
#     4  10  20  39  63  95 122 161 212 262 315 382
#     4  10  20  36  67  94 123 158 213 268 311 369
#     4  11  22  40  63  94 127 167 215 255 321 381
#
# _framework density 19.938251999999999
#
# number of rings (size 3 to 8) (size 9 to 14) (size 15 to 20)
#    0.000    1.000    5.000    2.250    3.500    0.500 
#    0.000    0.625    2.750    0.000    0.000    0.000 
#    0.000    0.000    0.000    0.000    0.000    0.000 
#
# Total GULP energy -178726.738538 kJ/mol
# GULP energy per Si atom -5585.210579 kJ/mol
# Density = 1.989287 g / cm^3
# Si number density = 19.938252 Si / 1000 Ang^3
#
#
#
# Elastic Constant Matrix: (Units=GPa)
#
#
# Indices 1 2 3 4 5 6 
#
# 1 23.8355 -12.4060 5.3731 0.0000 -4.4003 0.0000
# 2 -12.4060 100.3800 -9.8789 0.0000 -16.3633 0.0001
# 3 5.3731 -9.8789 44.8727 0.0000 -10.6645 0.0000
# 4 0.0000 0.0000 0.0000 27.0731 0.0000 -4.6524
# 5 -4.4003 -16.3633 -10.6645 0.0000 29.1083 0.0000
# 6 0.0000 0.0001 0.0000 -4.6524 0.0000 25.0533
#
#
#
# Elastic Compliance Matrix: (Units=1/GPa)
#
#
# Indices 1 2 3 4 5 6 
#
# 1 0.048295 0.007623 -0.001480 0.000000 0.011044 0.000000
# 2 0.007623 0.012964 0.004324 0.000000 0.010024 0.000000
# 3 -0.001480 0.004324 0.026222 0.000000 0.011814 0.000000
# 4 0.000000 0.000000 0.000000 0.038155 0.000000 0.007085
# 5 0.011044 0.010024 0.011814 0.000000 0.045987 0.000000
# 6 0.000000 0.000000 0.000000 0.007085 0.000000 0.041231
#
#
# Mechanical properties :
#
#
# Convention : Reuss Voigt Hill
#
# Bulk Modulus (GPa) = 9.22382 15.02941 12.12661
# Shear Modulus (GPa) = 21.92431 28.64691 25.28561
#
# Velocity S-wave (km/s) = 3.31964 3.79460 3.56504
# Velocity P-wave (km/s) = 4.39654 5.17233 4.80013
#
# Compressibility (1/GPa) = 0.10841496
#
# Stress axis : x y z
#
# Youngs Moduli (GPa) = 20.70622 77.13719 38.13594
#
# Poissons Ratio (x) = -0.58805 0.05643
# Poissons Ratio (y) = -0.15785 -0.16488
# Poissons Ratio (z) = 0.03064 -0.33351
#
# Static dielectric constant tensor:
#      x y z
#    x 1.707990 0.000000 -0.017390 
#    y 0.000000 1.723590 0.000000 
#    z -0.017390 0.000000 1.699730 
# 
# From -- ./inp_files/251864.got.cif
#   From: 2010.05.17/outbox.cif.g08.bks.cpg/sg15_126_cif.got.tgz:251864.got - 2010.06.03 18:47:42.
