data_PCOD9272705
_publ_section_title
;
Structure prediction by ZEFSAII (Michael W. Deem and Ramdas Pophale) SiO2 
 PCOD9272705
Probable space group: C 2/C
;
_chemical_formula_sum "Si O2"
_cell_formula_units_Z 44
_cell_length_a 16.597911
_cell_length_b 6.418533
_cell_length_c 19.421036
_cell_angle_alpha 90.000000
_cell_angle_beta 96.310124
_cell_angle_gamma 90.000000
_cell_volume 2056.470336
_symmetry_space_group_name_H-M "C 2/C"
_symmetry_group_IT_number 15
_symmetry_cell_setting 'monoclinic'
loop_
_space_group_symop_operation_xyz
x,y,z
-x,y,1/2-z
-x,-y,-z
x,-y,1/2+z
1/2+x,1/2+y,z
1/2-x,1/2+y,1/2-z
1/2-x,1/2-y,-z
1/2+x,1/2-y,1/2+z
loop_
_atom_site_type_symbol
_atom_site_label
_atom_site_fract_x
_atom_site_fract_y
_atom_site_fract_z
Si Si1 0.186889 0.058090 0.988491
Si Si2 0.911669 0.573956 0.010843
Si Si3 0.938518 0.534183 0.662296
Si Si4 0.603104 0.205533 0.210793
Si Si5 0.500000 0.416876 0.750000
Si Si6 0.289311 0.182336 0.406134
O O1 0.102002 0.177735 0.986431
O O2 0.205753 0.931241 0.920157
O O3 0.250000 0.250000 0.000000
O O4 0.202123 0.899175 0.052184
O O5 0.895755 0.486951 0.085686
O O6 0.853996 0.468605 0.949624
O O7 0.000000 0.500000 0.000000
O O8 0.886785 0.423107 0.717546
O O9 0.962512 0.763810 0.689192
O O10 0.024370 0.407567 0.668638
O O11 0.569694 0.434115 0.226084
O O12 0.680739 0.203080 0.168902
#
# Coordination Sequence:
#
# PCOD9272705 Si02
#       6
#     8   8   8   8   4   8
#     4   9  22  38  55  80 116 146 193 232 281 350
#     4  11  21  34  58  90 117 141 185 248 294 336
#     4   9  19  34  50  87 118 137 181 237 283 347
#     4   9  18  33  55  80 111 149 188 220 287 346
#     4   8  18  30  50  78 118 142 174 228 290 342
#     4  10  20  37  60  82 109 159 189 231 290 351
#
# _framework density 21.395882
#
# number of rings (size 3 to 8) (size 9 to 14) (size 15 to 20)
#    0.000    2.909    1.818    0.000    2.545    5.091 
#    0.000    0.000   12.000    0.000    0.000    0.000 
#    0.000    0.000    0.000    0.000    0.000    0.000 
#
# Total GULP energy -122725.891668 kJ/mol
# GULP energy per Si atom -5578.449621 kJ/mol
# Density = 2.134718 g / cm^3
# Si number density = 21.395882 Si / 1000 Ang^3
#
#
#
# Elastic Constant Matrix: (Units=GPa)
#
#
# Indices 1 2 3 4 5 6 
#
# 1 43.7262 28.4503 7.4813 0.0000 -19.5835 0.0000
# 2 28.4503 144.2921 36.0937 0.0000 -29.5456 0.0000
# 3 7.4813 36.0937 124.4517 0.0000 -33.8984 0.0000
# 4 0.0000 0.0000 0.0000 11.3661 0.0000 -3.7201
# 5 -19.5835 -29.5456 -33.8984 0.0000 35.5667 0.0000
# 6 0.0000 0.0000 0.0000 -3.7201 0.0000 20.7097
#
#
#
# Elastic Compliance Matrix: (Units=1/GPa)
#
#
# Indices 1 2 3 4 5 6 
#
# 1 0.033184 -0.003664 0.004343 0.000000 0.019368 0.000000
# 2 -0.003664 0.008803 -0.001203 0.000000 0.004149 0.000000
# 3 0.004343 -0.001203 0.011483 0.000000 0.012337 0.000000
# 4 0.000000 0.000000 0.000000 0.093477 0.000000 0.016792
# 5 0.019368 0.004149 0.012337 0.000000 0.053986 0.000000
# 6 0.000000 0.000000 0.000000 0.016792 0.000000 0.051303
#
#
# Mechanical properties :
#
#
# Convention : Reuss Voigt Hill
#
# Bulk Modulus (GPa) = 19.07503 50.72452 34.89977
# Shear Modulus (GPa) = 18.46669 29.55812 24.01241
#
# Velocity S-wave (km/s) = 2.94104 3.72087 3.35370
# Velocity P-wave (km/s) = 4.52411 6.49761 5.59850
#
# Compressibility (1/GPa) = 0.05242457
#
# Stress axis : x y z
#
# Youngs Moduli (GPa) = 30.13465 113.59454 87.08266
#
# Poissons Ratio (x) = 0.41617 -0.37821
# Poissons Ratio (y) = 0.11040 0.10473
# Poissons Ratio (z) = -0.13088 0.13662
#
# Static dielectric constant tensor:
#      x y z
#    x 1.925420 0.000000 -0.032570 
#    y 0.000000 1.781520 0.000000 
#    z -0.032570 0.000000 1.782990 
# 
# From -- ./inp_files/250774.got.cif
#   From: 2010.05.17/outbox.cif.g08.bks.cpg/sg15_126_cif.got.tgz:250774.got - 2010.06.03 18:47:42.
