data_PCOD9272862
_publ_section_title
;
Structure prediction by ZEFSAII (Michael W. Deem and Ramdas Pophale) SiO2 
 PCOD9272862
Probable space group: C 2/C
;
_chemical_formula_sum "Si O2"
_cell_formula_units_Z 52
_cell_length_a 10.587524
_cell_length_b 32.312250
_cell_length_c 9.647608
_cell_angle_alpha 90.000000
_cell_angle_beta 133.300421
_cell_angle_gamma 90.000000
_cell_volume 2402.005761
_symmetry_space_group_name_H-M "C 2/C"
_symmetry_group_IT_number 15
_symmetry_cell_setting 'monoclinic'
loop_
_space_group_symop_operation_xyz
x,y,z
-x,y,1/2-z
-x,-y,-z
x,-y,1/2+z
1/2+x,1/2+y,z
1/2-x,1/2+y,1/2-z
1/2-x,1/2-y,-z
1/2+x,1/2-y,1/2+z
loop_
_atom_site_type_symbol
_atom_site_label
_atom_site_fract_x
_atom_site_fract_y
_atom_site_fract_z
Si Si1 0.019428 0.229471 0.464701
Si Si2 0.801189 0.544640 0.756005
Si Si3 0.500000 0.301824 0.250000
Si Si4 0.353474 0.616970 0.255953
Si Si5 0.218214 0.305875 0.544644
Si Si6 0.595693 0.620286 0.697020
Si Si7 0.783302 0.531506 0.428915
O O1 0.055970 0.276384 0.445757
O O2 0.185041 0.203169 0.528853
O O3 0.980522 0.225035 0.597729
O O4 0.857297 0.212086 0.259263
O O5 0.742682 0.591168 0.746748
O O6 0.730015 0.533962 0.549593
O O7 0.738545 0.511406 0.821817
O O8 0.008814 0.538927 0.912956
O O9 0.356604 0.336025 0.193543
O O10 0.500000 0.621543 0.250000
O O11 0.203047 0.646943 0.082558
O O12 0.448777 0.628970 0.470157
O O13 0.295142 0.569792 0.214473
O O14 0.500000 0.596384 0.750000
#
# Coordination Sequence:
#
# PCOD9272862 Si02
#       7
#     8   8   4   8   8   8   8
#     4  10  20  37  61  81 118 152 197 235 311 344
#     4  10  22  44  57  92 121 161 204 246 303 363
#     4  10  20  38  60  88 116 160 188 264 292 356
#     4  12  20  40  62  89 119 157 206 252 300 353
#     4  10  20  39  59  87 113 157 193 252 286 372
#     4  10  22  37  62  88 121 159 196 253 301 349
#     4  10  24  39  66  85 124 162 201 253 301 358
#
# _framework density 21.648575000000001
#
# number of rings (size 3 to 8) (size 9 to 14) (size 15 to 20)
#    0.462    1.231    4.615    0.000    2.154    1.846 
#    2.769    1.538    0.000    0.000    0.000    0.000 
#    0.000    0.000    0.000    0.000    0.000    0.000 
#
# Total GULP energy -144934.802484 kJ/mol
# GULP energy per Si atom -5574.415480 kJ/mol
# Density = 2.159930 g / cm^3
# Si number density = 21.648575 Si / 1000 Ang^3
#
#
#
# Elastic Constant Matrix: (Units=GPa)
#
#
# Indices 1 2 3 4 5 6 
#
# 1 37.6852 10.0097 39.4725 0.0000 -26.2952 0.0000
# 2 10.0097 70.5967 11.3308 0.0000 1.4441 0.0000
# 3 39.4725 11.3308 88.7533 0.0000 -32.7886 0.0000
# 4 0.0000 0.0000 0.0000 26.5299 0.0000 -2.0177
# 5 -26.2952 1.4441 -32.7886 0.0000 35.3584 0.0000
# 6 0.0000 0.0000 0.0000 -2.0177 0.0000 37.3104
#
#
#
# Elastic Compliance Matrix: (Units=1/GPa)
#
#
# Indices 1 2 3 4 5 6 
#
# 1 0.075024 -0.008641 -0.017524 0.000000 0.039895 0.000000
# 2 -0.008641 0.015747 -0.001185 0.000000 -0.008168 0.000000
# 3 -0.017524 -0.001185 0.021928 0.000000 0.007350 0.000000
# 4 0.000000 0.000000 0.000000 0.037849 0.000000 0.002047
# 5 0.039895 -0.008168 0.007350 0.000000 0.065100 0.000000
# 6 0.000000 0.000000 0.000000 0.002047 0.000000 0.026913
#
#
# Mechanical properties :
#
#
# Convention : Reuss Voigt Hill
#
# Bulk Modulus (GPa) = 17.24187 35.40679 26.32433
# Shear Modulus (GPa) = 15.79309 28.92121 22.35715
#
# Velocity S-wave (km/s) = 2.70390 3.65902 3.21710
# Velocity P-wave (km/s) = 4.21068 5.85166 5.09763
#
# Compressibility (1/GPa) = 0.05799835
#
# Stress axis : x y z
#
# Youngs Moduli (GPa) = 13.32915 63.50256 45.60446
#
# Poissons Ratio (x) = 0.54871 0.79919
# Poissons Ratio (y) = 0.11517 0.05404
# Poissons Ratio (z) = 0.23358 0.07525
#
# Static dielectric constant tensor:
#      x y z
#    x 1.824580 0.000000 0.012920 
#    y 0.000000 1.849280 0.000000 
#    z 0.012920 0.000000 1.806020 
# 
# From -- ./inp_files/35380.got.cif
#   From: 2010.05.17/outbox.cif.g08.bks.cpg/sg15_18_cif.got.tgz:35380.got - 2010.06.03 18:47:42.
