data_PCOD9272985
_publ_section_title
;
Structure prediction by ZEFSAII (Michael W. Deem and Ramdas Pophale) SiO2 
 PCOD9272985
Probable space group: C 2/C
;
_chemical_formula_sum "Si O2"
_cell_formula_units_Z 56
_cell_length_a 11.292854
_cell_length_b 27.090297
_cell_length_c 17.137969
_cell_angle_alpha 90.000000
_cell_angle_beta 36.262779
_cell_angle_gamma 90.000000
_cell_volume 3101.157845
_symmetry_space_group_name_H-M "C 2/C"
_symmetry_group_IT_number 15
_symmetry_cell_setting 'monoclinic'
loop_
_space_group_symop_operation_xyz
x,y,z
-x,y,1/2-z
-x,-y,-z
x,-y,1/2+z
1/2+x,1/2+y,z
1/2-x,1/2+y,1/2-z
1/2-x,1/2-y,-z
1/2+x,1/2-y,1/2+z
loop_
_atom_site_type_symbol
_atom_site_label
_atom_site_fract_x
_atom_site_fract_y
_atom_site_fract_z
Si Si1 0.601358 0.941667 0.377859
Si Si2 0.473135 0.344644 0.042290
Si Si3 0.347191 0.206810 0.897121
Si Si4 0.271410 0.757754 0.896577
Si Si5 0.693237 0.489871 0.602176
Si Si6 0.024586 0.956694 0.424542
Si Si7 0.669882 0.832344 0.341710
O O1 0.368971 0.952567 0.482860
O O2 0.745910 0.950094 0.226716
O O3 0.639219 0.886907 0.390123
O O4 0.692614 0.977219 0.394732
O O5 0.312748 0.327802 0.062012
O O6 0.528976 0.402418 0.013969
O O7 0.367381 0.333109 0.182105
O O8 0.657240 0.307753 0.935015
O O9 0.500000 0.227394 0.750000
O O10 0.485520 0.176098 0.881676
O O11 0.250000 0.250000 0.000000
O O12 0.500000 0.761035 0.750000
O O13 0.180374 0.711007 0.898711
O O14 0.250000 0.750000 0.000000
O O15 0.500000 0.467440 0.750000
O O16 0.607491 0.524751 0.579068
O O17 0.000000 0.000000 0.500000
#
# Coordination Sequence:
#
# PCOD9272985 Si02
#       7
#     8   8   8   8   8   8   8
#     4   9  20  38  63  85 113 162 204 237 297 371
#     4  10  22  41  60  88 119 160 204 247 304 363
#     4  10  20  37  62  83 117 152 198 243 289 353
#     4  12  24  39  62  90 126 158 202 252 304 366
#     4   9  19  38  60  84 119 151 200 250 293 356
#     4  10  22  38  61  88 122 157 197 254 305 355
#     4  10  21  38  64  87 114 162 201 244 301 362
#
# _framework density 18.057772
#
# number of rings (size 3 to 8) (size 9 to 14) (size 15 to 20)
#    0.000    2.000    2.857    0.000    4.000    1.143 
#    2.571    2.143    0.000    0.000    0.000    0.000 
#    0.000    0.000    0.000    0.000    0.000    0.000 
#
# Total GULP energy -156083.898955 kJ/mol
# GULP energy per Si atom -5574.424963 kJ/mol
# Density = 1.801667 g / cm^3
# Si number density = 18.057772 Si / 1000 Ang^3
#
#
#
# Elastic Constant Matrix: (Units=GPa)
#
#
# Indices 1 2 3 4 5 6 
#
# 1 74.6897 31.9328 48.3348 0.0001 -9.3807 -0.0001
# 2 31.9328 127.9908 57.7587 0.0000 -4.0548 0.0000
# 3 48.3348 57.7587 92.5813 0.0001 -14.5425 -0.0001
# 4 0.0001 0.0000 0.0001 29.8552 -0.0001 0.3884
# 5 -9.3807 -4.0548 -14.5425 -0.0001 31.1864 0.0001
# 6 -0.0001 0.0000 -0.0001 0.3884 0.0001 15.5827
#
#
#
# Elastic Compliance Matrix: (Units=1/GPa)
#
#
# Indices 1 2 3 4 5 6 
#
# 1 0.020285 -0.000465 -0.010091 0.000000 0.001336 0.000000
# 2 -0.000465 0.010989 -0.006917 0.000000 -0.001937 0.000000
# 3 -0.010091 -0.006917 0.021329 0.000000 0.006011 0.000000
# 4 0.000000 0.000000 0.000000 0.033506 0.000000 -0.000835
# 5 0.001336 -0.001937 0.006011 0.000000 0.035018 0.000000
# 6 0.000000 0.000000 0.000000 -0.000835 0.000000 0.064195
#
#
# Mechanical properties :
#
#
# Convention : Reuss Voigt Hill
#
# Bulk Modulus (GPa) = 56.63188 63.47939 60.05563
# Shear Modulus (GPa) = 22.10875 25.80721 23.95798
#
# Velocity S-wave (km/s) = 3.50284 3.78451 3.64640
# Velocity P-wave (km/s) = 6.91299 7.37065 7.14549
#
# Compressibility (1/GPa) = 0.01765790
#
# Stress axis : x y z
#
# Youngs Moduli (GPa) = 49.29657 90.99728 46.88428
#
# Poissons Ratio (x) = 0.04233 0.47309
# Poissons Ratio (y) = 0.02293 0.32431
# Poissons Ratio (z) = 0.49743 0.62945
#
# Static dielectric constant tensor:
#      x y z
#    x 1.618030 0.000000 -0.000180 
#    y 0.000000 1.624920 0.000000 
#    z -0.000180 0.000000 1.641440 
# 
# From -- ./inp_files/200759.got.cif
#   From: 2010.05.17/outbox.cif.g08.bks.cpg/sg15_101_cif.got.tgz:200759.got - 2010.06.03 18:47:42.
