data_PCOD9272921
_publ_section_title
;
Structure prediction by ZEFSAII (Michael W. Deem and Ramdas Pophale) SiO2 
 PCOD9272921
Probable space group: C 2/C
;
_chemical_formula_sum "Si O2"
_cell_formula_units_Z 48
_cell_length_a 19.792880
_cell_length_b 8.646559
_cell_length_c 22.934069
_cell_angle_alpha 90.000000
_cell_angle_beta 137.425777
_cell_angle_gamma 90.000000
_cell_volume 2655.399902
_symmetry_space_group_name_H-M "C 2/C"
_symmetry_group_IT_number 15
_symmetry_cell_setting 'monoclinic'
loop_
_space_group_symop_operation_xyz
x,y,z
-x,y,1/2-z
-x,-y,-z
x,-y,1/2+z
1/2+x,1/2+y,z
1/2-x,1/2+y,1/2-z
1/2-x,1/2-y,-z
1/2+x,1/2-y,1/2+z
loop_
_atom_site_type_symbol
_atom_site_label
_atom_site_fract_x
_atom_site_fract_y
_atom_site_fract_z
Si Si1 0.736240 0.209631 0.661619
Si Si2 0.151958 0.153510 0.456784
Si Si3 0.610135 0.469670 0.317666
Si Si4 0.956432 0.706768 0.782138
Si Si5 0.294216 0.017649 0.749826
Si Si6 0.883891 0.004621 0.442105
O O1 0.794740 0.334262 0.739418
O O2 0.847818 0.816288 0.921647
O O3 0.810057 0.136023 0.662438
O O4 0.695839 0.077213 0.678477
O O5 0.250000 0.250000 0.500000
O O6 0.142467 0.018156 0.402792
O O7 0.147092 0.084475 0.518595
O O8 0.051339 0.253668 0.382644
O O9 0.500000 0.396967 0.250000
O O10 0.593814 0.630439 0.270687
O O11 0.876958 0.601389 0.763465
O O12 0.000000 0.636407 0.750000
O O13 0.184963 0.060323 0.654142
O O14 0.000000 0.000000 0.500000
#
# Coordination Sequence:
#
# PCOD9272921 Si02
#       6
#     8   8   8   8   8   8
#     4  10  22  36  59  84 115 155 200 243 287 362
#     4  10  20  37  61  89 122 156 193 250 304 357
#     4   9  20  36  60  84 116 156 197 234 296 355
#     4   9  18  35  62  82 115 157 198 237 291 360
#     4  10  21  36  58  84 113 153 204 235 292 357
#     4  10  22  36  60  86 116 155 193 246 307 343
#
# _framework density 18.076373
#
# number of rings (size 3 to 8) (size 9 to 14) (size 15 to 20)
#    1.000    1.667    0.000    4.000    4.667    1.333 
#    0.000    1.667    0.000    5.000    0.000    0.000 
#    0.000    0.000    0.000    0.000    0.000    0.000 
#
# Total GULP energy -133613.767502 kJ/mol
# GULP energy per Si atom -5567.240313 kJ/mol
# Density = 1.803523 g / cm^3
# Si number density = 18.076373 Si / 1000 Ang^3
#
#
#
# Elastic Constant Matrix: (Units=GPa)
#
#
# Indices 1 2 3 4 5 6 
#
# 1 118.1510 34.0072 26.4138 0.0000 19.9619 0.0000
# 2 34.0072 34.3478 6.3192 0.0000 7.9922 0.0000
# 3 26.4138 6.3192 59.5929 0.0000 4.4690 0.0000
# 4 0.0000 0.0000 0.0000 5.1756 0.0000 -4.5176
# 5 19.9619 7.9922 4.4690 0.0000 28.3678 0.0000
# 6 0.0000 0.0000 0.0000 -4.5176 0.0000 44.9166
#
#
#
# Elastic Compliance Matrix: (Units=1/GPa)
#
#
# Indices 1 2 3 4 5 6 
#
# 1 0.013713 -0.011427 -0.004437 0.000000 -0.005731 0.000000
# 2 -0.011427 0.041107 0.000983 0.000000 -0.003695 0.000000
# 3 -0.004437 0.000983 0.018650 0.000000 -0.000093 0.000000
# 4 0.000000 0.000000 0.000000 0.211809 0.000000 0.021303
# 5 -0.005731 -0.003695 -0.000093 0.000000 0.040340 0.000000
# 6 0.000000 0.000000 0.000000 0.021303 0.000000 0.024406
#
#
# Mechanical properties :
#
#
# Convention : Reuss Voigt Hill
#
# Bulk Modulus (GPa) = 22.87902 38.39690 30.63796
# Shear Modulus (GPa) = 12.67894 25.38212 19.03053
#
# Velocity S-wave (km/s) = 2.65129 3.75128 3.24818
# Velocity P-wave (km/s) = 4.69646 6.32854 5.57257
#
# Compressibility (1/GPa) = 0.04370817
#
# Stress axis : x y z
#
# Youngs Moduli (GPa) = 72.92376 24.32687 53.62015
#
# Poissons Ratio (x) = 0.27799 0.23789
# Poissons Ratio (y) = 0.83332 -0.05272
# Poissons Ratio (z) = 0.32353 -0.02392
#
# Static dielectric constant tensor:
#      x y z
#    x 1.612680 0.000000 -0.010410 
#    y 0.000000 1.624180 0.000000 
#    z -0.010410 0.000000 1.640210 
# 
# From -- ./inp_files/276378.got.cif
#   From: 2010.05.17/outbox.cif.g08.bks.cpg/sg15_139_cif.got.tgz:276378.got - 2010.06.03 18:47:42.
