data_PCOD9272187
_publ_section_title
;
Structure prediction by ZEFSAII (Michael W. Deem and Ramdas Pophale) SiO2 
 PCOD9272187
Probable space group: C 2/C
;
_chemical_formula_sum "Si O2"
_cell_formula_units_Z 48
_cell_length_a 8.433139
_cell_length_b 16.515166
_cell_length_c 26.367909
_cell_angle_alpha 90.000000
_cell_angle_beta 137.294854
_cell_angle_gamma 90.000000
_cell_volume 2490.704002
_symmetry_space_group_name_H-M "C 2/C"
_symmetry_group_IT_number 15
_symmetry_cell_setting 'monoclinic'
loop_
_space_group_symop_operation_xyz
x,y,z
-x,y,1/2-z
-x,-y,-z
x,-y,1/2+z
1/2+x,1/2+y,z
1/2-x,1/2+y,1/2-z
1/2-x,1/2-y,-z
1/2+x,1/2-y,1/2+z
loop_
_atom_site_type_symbol
_atom_site_label
_atom_site_fract_x
_atom_site_fract_y
_atom_site_fract_z
Si Si1 0.483044 0.418406 0.463421
Si Si2 0.773636 0.736946 0.564887
Si Si3 0.748908 0.036563 0.622081
Si Si4 0.243028 0.329032 0.206119
Si Si5 0.240463 0.056654 0.699004
Si Si6 0.954329 0.380555 0.527398
O O1 0.500000 0.500000 0.500000
O O2 0.317420 0.353572 0.449568
O O3 0.369765 0.434739 0.382245
O O4 0.732638 0.375910 0.512291
O O5 0.750000 0.750000 0.500000
O O6 0.611037 0.801467 0.555752
O O7 0.040638 0.734746 0.646448
O O8 0.710835 0.090976 0.662869
O O9 0.651531 0.090538 0.551955
O O10 0.024442 0.016884 0.679103
O O11 0.608638 0.953732 0.585597
O O12 0.500000 0.298927 0.250000
O O13 0.228784 0.360752 0.260689
O O14 0.500000 0.021710 0.750000
#
# Coordination Sequence:
#
# PCOD9272187 Si02
#       6
#     8   8   8   8   8   8
#     4  11  24  41  68  93 124 167 215 260 312 384
#     4  12  23  38  65  96 126 163 210 267 318 373
#     4   9  19  37  62  92 121 164 208 259 310 375
#     4  10  20  39  63  87 124 170 211 251 323 387
#     4  10  20  36  65  88 123 162 215 250 315 383
#     4  10  21  37  61  94 130 157 210 263 316 367
#
# _framework density 19.271657999999999
#
# number of rings (size 3 to 8) (size 9 to 14) (size 15 to 20)
#    0.000    1.667    3.333    1.500    4.667    0.000 
#    0.000    0.833   11.000    0.000    0.000    0.000 
#    0.000    0.000    0.000    0.000    0.000    0.000 
#
# Total GULP energy -133798.890141 kJ/mol
# GULP energy per Si atom -5574.953756 kJ/mol
# Density = 1.922780 g / cm^3
# Si number density = 19.271658 Si / 1000 Ang^3
#
#
#
# Elastic Constant Matrix: (Units=GPa)
#
#
# Indices 1 2 3 4 5 6 
#
# 1 95.8160 24.9438 47.5598 0.0000 16.8529 0.0000
# 2 24.9438 52.6350 24.5272 0.0000 11.3138 0.0000
# 3 47.5598 24.5272 110.5204 -0.0001 23.3282 0.0000
# 4 0.0000 0.0000 -0.0001 30.4978 0.0000 7.6405
# 5 16.8529 11.3138 23.3282 0.0000 49.1839 0.0000
# 6 0.0000 0.0000 0.0000 7.6405 0.0000 25.1420
#
#
#
# Elastic Compliance Matrix: (Units=1/GPa)
#
#
# Indices 1 2 3 4 5 6 
#
# 1 0.014204 -0.004121 -0.004857 0.000000 -0.001616 0.000000
# 2 -0.004121 0.022775 -0.002748 0.000000 -0.002523 0.000000
# 3 -0.004857 -0.002748 0.012516 0.000000 -0.003640 0.000000
# 4 0.000000 0.000000 0.000000 0.035491 0.000000 -0.010786
# 5 -0.001616 -0.002523 -0.003640 0.000000 0.023192 0.000000
# 6 0.000000 0.000000 0.000000 -0.010786 0.000000 0.043052
#
#
# Mechanical properties :
#
#
# Convention : Reuss Voigt Hill
#
# Bulk Modulus (GPa) = 38.39789 50.33701 44.36745
# Shear Modulus (GPa) = 27.26805 31.76079 29.51442
#
# Velocity S-wave (km/s) = 3.76564 4.06403 3.91768
# Velocity P-wave (km/s) = 6.23494 6.94249 6.59821
#
# Compressibility (1/GPa) = 0.02604310
#
# Stress axis : x y z
#
# Youngs Moduli (GPa) = 70.40029 43.90832 79.89474
#
# Poissons Ratio (x) = 0.18094 0.38805
# Poissons Ratio (y) = 0.29012 0.21958
# Poissons Ratio (z) = 0.34194 0.12067
#
# Static dielectric constant tensor:
#      x y z
#    x 1.729620 0.000000 0.058790 
#    y 0.000000 1.625280 0.000000 
#    z 0.058790 0.000000 1.685320 
# 
# From -- ./inp_files/308128.got.cif
#   From: 2010.05.17/outbox.cif.g08.bks.cpg/sg15_155_cif.got.tgz:308128.got - 2010.06.03 18:47:42.
