data_PCOD9272426
_publ_section_title
;
Structure prediction by ZEFSAII (Michael W. Deem and Ramdas Pophale) SiO2 
 PCOD9272426
Probable space group: C 2/C
;
_chemical_formula_sum "Si O2"
_cell_formula_units_Z 60
_cell_length_a 17.532716
_cell_length_b 23.699754
_cell_length_c 12.684023
_cell_angle_alpha 90.000000
_cell_angle_beta 40.017235
_cell_angle_gamma 90.000000
_cell_volume 3389.012696
_symmetry_space_group_name_H-M "C 2/C"
_symmetry_group_IT_number 15
_symmetry_cell_setting 'monoclinic'
loop_
_space_group_symop_operation_xyz
x,y,z
-x,y,1/2-z
-x,-y,-z
x,-y,1/2+z
1/2+x,1/2+y,z
1/2-x,1/2+y,1/2-z
1/2-x,1/2-y,-z
1/2+x,1/2-y,1/2+z
loop_
_atom_site_type_symbol
_atom_site_label
_atom_site_fract_x
_atom_site_fract_y
_atom_site_fract_z
Si Si1 0.901354 0.423230 0.233596
Si Si2 0.348199 0.605255 0.588968
Si Si3 0.819876 0.025094 0.796111
Si Si4 0.387579 0.711666 0.440634
Si Si5 0.666868 0.923783 0.858297
Si Si6 0.500000 0.544470 0.250000
Si Si7 0.627674 0.947603 0.662300
Si Si8 0.819241 0.665757 0.991164
O O1 0.792653 0.406819 0.272341
O O2 0.879681 0.485177 0.304265
O O3 0.886338 0.377409 0.342241
O O4 0.028974 0.425824 0.042523
O O5 0.385204 0.568323 0.649221
O O6 0.377626 0.671486 0.552891
O O7 0.413810 0.580491 0.416416
O O8 0.740465 0.979152 0.815806
O O9 0.729310 0.058107 0.967872
O O10 0.914842 0.992402 0.766346
O O11 0.500000 0.699894 0.250000
O O12 0.280852 0.691333 0.478412
O O13 0.385931 0.778648 0.462316
O O14 0.661646 0.919636 0.737772
O O15 0.721177 0.871728 0.866913
O O16 0.500000 0.930640 0.750000
#
# Coordination Sequence:
#
# PCOD9272426 Si02
#       8
#     8   8   8   8   8   4   8   8
#     4  11  18  35  53  84 112 138 173 225 280 335
#     4  11  22  35  55  77 110 145 183 228 274 330
#     4  12  22  36  51  79 113 148 185 224 276 329
#     4  10  20  37  56  81 108 143 185 230 276 325
#     4  12  21  34  57  81 114 146 178 226 285 336
#     4  12  22  36  50  78 108 146 186 228 276 330
#     4  12  21  33  53  82 112 144 179 219 278 340
#     4  10  21  34  57  84 112 139 179 232 281 328
#
# _framework density 17.704270000000001
#
# number of rings (size 3 to 8) (size 9 to 14) (size 15 to 20)
#    0.000    0.800    6.000    3.600    0.000    0.000 
#    0.000    0.000    0.000    0.800    1.733    0.000 
#    0.000    0.000    0.000    0.000    0.000    0.000 
#
# Total GULP energy -167396.679597 kJ/mol
# GULP energy per Si atom -5579.889320 kJ/mol
# Density = 1.766397 g / cm^3
# Si number density = 17.704270 Si / 1000 Ang^3
#
#
#
# Elastic Constant Matrix: (Units=GPa)
#
#
# Indices 1 2 3 4 5 6 
#
# 1 53.6907 9.0554 5.9752 0.0000 14.5706 -0.0004
# 2 9.0554 91.7753 21.1876 0.0000 21.0517 0.0001
# 3 5.9752 21.1876 42.6724 0.0001 14.1341 -0.0001
# 4 0.0000 0.0000 0.0001 31.9499 0.0000 19.2558
# 5 14.5706 21.0517 14.1341 0.0000 33.2668 0.0003
# 6 -0.0004 0.0001 -0.0001 19.2558 0.0003 26.2039
#
#
#
# Elastic Compliance Matrix: (Units=1/GPa)
#
#
# Indices 1 2 3 4 5 6 
#
# 1 0.021138 0.000026 0.000115 0.000000 -0.009324 0.000001
# 2 0.000026 0.013447 -0.004490 0.000000 -0.006614 0.000000
# 3 0.000115 -0.004490 0.028772 -0.000001 -0.009434 0.000001
# 4 0.000000 0.000000 -0.000001 0.056180 0.000001 -0.041284
# 5 -0.009324 -0.006614 -0.009434 0.000001 0.042337 -0.000001
# 6 0.000001 0.000000 0.000001 -0.041284 -0.000001 0.068499
#
#
# Mechanical properties :
#
#
# Convention : Reuss Voigt Hill
#
# Bulk Modulus (GPa) = 18.29444 28.95276 23.62360
# Shear Modulus (GPa) = 19.43326 28.41212 23.92269
#
# Velocity S-wave (km/s) = 3.31669 4.01036 3.67991
# Velocity P-wave (km/s) = 5.00230 6.15086 5.60607
#
# Compressibility (1/GPa) = 0.05466143
#
# Stress axis : x y z
#
# Youngs Moduli (GPa) = 47.30752 74.36514 34.75579
#
# Poissons Ratio (x) = -0.00197 -0.00401
# Poissons Ratio (y) = -0.00125 0.15605
# Poissons Ratio (z) = -0.00546 0.33389
#
# Static dielectric constant tensor:
#      x y z
#    x 1.698300 0.000000 -0.021040 
#    y 0.000000 1.627270 0.000000 
#    z -0.021040 0.000000 1.613810 
# 
# From -- ./inp_files/108093.got.cif
#   From: 2010.05.17/outbox.cif.g08.bks.cpg/sg15_55_cif.got.tgz:108093.got - 2010.06.03 18:47:42.
