data_PCOD9272754
_publ_section_title
;
Structure prediction by ZEFSAII (Michael W. Deem and Ramdas Pophale) SiO2 
 PCOD9272754
Probable space group: C 2/C
;
_chemical_formula_sum "Si O2"
_cell_formula_units_Z 40
_cell_length_a 18.184970
_cell_length_b 11.470117
_cell_length_c 8.677713
_cell_angle_alpha 90.000000
_cell_angle_beta 126.732583
_cell_angle_gamma 90.000000
_cell_volume 1450.622402
_symmetry_space_group_name_H-M "C 2/C"
_symmetry_group_IT_number 15
_symmetry_cell_setting 'monoclinic'
loop_
_space_group_symop_operation_xyz
x,y,z
-x,y,1/2-z
-x,-y,-z
x,-y,1/2+z
1/2+x,1/2+y,z
1/2-x,1/2+y,1/2-z
1/2-x,1/2-y,-z
1/2+x,1/2-y,1/2+z
loop_
_atom_site_type_symbol
_atom_site_label
_atom_site_fract_x
_atom_site_fract_y
_atom_site_fract_z
Si Si1 0.500000 0.046096 0.250000
Si Si2 0.263424 0.834018 0.336415
Si Si3 0.949482 0.752598 0.978419
Si Si4 0.500000 0.451960 0.250000
Si Si5 0.802956 0.477813 0.094666
Si Si6 0.138898 0.840772 0.922793
O O1 0.505058 0.134727 0.402916
O O2 0.406059 0.977983 0.160702
O O3 0.349955 0.749974 0.436531
O O4 0.296213 0.943734 0.266040
O O5 0.267172 0.623063 0.049513
O O6 0.261916 0.896367 0.498387
O O7 0.923634 0.765282 0.768142
O O8 0.001748 0.865567 0.106475
O O9 0.414225 0.537543 0.125489
O O10 0.671996 0.296417 0.131655
#
# Coordination Sequence:
#
# PCOD9272754 Si02
#       6
#     4   8   8   4   8   8
#     4   9  20  40  61  86 122 156 193 248 302 355
#     4   9  20  38  63  86 119 157 194 247 294 351
#     4  10  20  37  60  86 120 154 197 252 291 341
#     4  11  22  38  59  84 124 162 197 240 304 353
#     4   9  20  37  64  85 120 158 196 236 308 349
#     4  10  21  38  61  84 117 165 195 243 293 357
#
# _framework density 27.574370999999999
#
# number of rings (size 3 to 8) (size 9 to 14) (size 15 to 20)
#    1.200    1.200    0.000    2.400    0.000    3.200 
#    0.000   14.000    8.800    0.000    0.000    0.000 
#    0.000    0.000    0.000    0.000    0.000    0.000 
#
# Total GULP energy -111787.548104 kJ/mol
# GULP energy per Si atom -5589.377405 kJ/mol
# Density = 2.751161 g / cm^3
# Si number density = 27.574371 Si / 1000 Ang^3
#
#
#
# Elastic Constant Matrix: (Units=GPa)
#
#
# Indices 1 2 3 4 5 6 
#
# 1 119.6943 34.7444 32.5214 0.0000 -5.0644 0.0000
# 2 34.7444 79.9609 16.5048 0.0000 -2.0096 0.0000
# 3 32.5214 16.5048 114.8534 0.0000 26.1541 0.0000
# 4 0.0000 0.0000 0.0000 27.8998 0.0000 -6.5482
# 5 -5.0644 -2.0096 26.1541 0.0000 25.7280 0.0000
# 6 0.0000 0.0000 0.0000 -6.5482 0.0000 47.4634
#
#
#
# Elastic Compliance Matrix: (Units=1/GPa)
#
#
# Indices 1 2 3 4 5 6 
#
# 1 0.010705 -0.003728 -0.003785 0.000000 0.005664 0.000000
# 2 -0.003728 0.014472 -0.001450 0.000000 0.001871 0.000000
# 3 -0.003785 -0.001450 0.013250 0.000000 -0.014327 0.000000
# 4 0.000000 0.000000 0.000000 0.037042 0.000000 0.005110
# 5 0.005664 0.001871 -0.014327 0.000000 0.054694 0.000000
# 6 0.000000 0.000000 0.000000 0.005110 0.000000 0.021774
#
#
# Mechanical properties :
#
#
# Convention : Reuss Voigt Hill
#
# Bulk Modulus (GPa) = 48.77989 53.56109 51.17049
# Shear Modulus (GPa) = 28.29719 35.60078 31.94898
#
# Velocity S-wave (km/s) = 3.20693 3.59706 3.40758
# Velocity P-wave (km/s) = 5.60725 6.05955 5.83778
#
# Compressibility (1/GPa) = 0.02050025
#
# Stress axis : x y z
#
# Youngs Moduli (GPa) = 93.41604 69.09776 75.47441
#
# Poissons Ratio (x) = 0.25758 0.28569
# Poissons Ratio (y) = 0.34823 0.10945
# Poissons Ratio (z) = 0.35360 0.10021
#
# Static dielectric constant tensor:
#      x y z
#    x 2.162460 0.000000 0.000560 
#    y 0.000000 2.123140 0.000000 
#    z 0.000560 0.000000 2.219450 
# 
# From -- ./inp_files/60751.got.cif
#   From: 2010.05.17/outbox.cif.g08.bks.cpg/sg15_31_cif.got.tgz:60751.got - 2010.06.03 18:47:42.
