data_PCOD9272318
_publ_section_title
;
Structure prediction by ZEFSAII (Michael W. Deem and Ramdas Pophale) SiO2 
 PCOD9272318
Probable space group: C 2/C
;
_chemical_formula_sum "Si O2"
_cell_formula_units_Z 40
_cell_length_a 12.714969
_cell_length_b 7.153780
_cell_length_c 27.246317
_cell_angle_alpha 90.000000
_cell_angle_beta 33.049665
_cell_angle_gamma 90.000000
_cell_volume 1351.595056
_symmetry_space_group_name_H-M "C 2/C"
_symmetry_group_IT_number 15
_symmetry_cell_setting 'monoclinic'
loop_
_space_group_symop_operation_xyz
x,y,z
-x,y,1/2-z
-x,-y,-z
x,-y,1/2+z
1/2+x,1/2+y,z
1/2-x,1/2+y,1/2-z
1/2-x,1/2-y,-z
1/2+x,1/2-y,1/2+z
loop_
_atom_site_type_symbol
_atom_site_label
_atom_site_fract_x
_atom_site_fract_y
_atom_site_fract_z
Si Si1 0.212963 0.234482 0.339531
Si Si2 0.939922 0.745107 0.098714
Si Si3 0.395893 0.856269 0.220560
Si Si4 0.818184 0.116685 0.542912
Si Si5 0.699720 0.686135 0.586035
O O1 0.186906 0.358366 0.301716
O O2 0.302360 0.326128 0.354287
O O3 0.342385 0.054484 0.269379
O O4 0.267030 0.089074 0.433890
O O5 0.725411 0.709542 0.200316
O O6 0.901414 0.867526 0.065161
O O7 0.034801 0.843560 0.110006
O O8 0.100189 0.603644 0.014505
O O9 0.612816 0.780336 0.128987
O O10 0.988672 0.188484 0.441842
#
# Coordination Sequence:
#
# PCOD9272318 Si02
#       5
#     8   8   8   8   8
#     4  11  24  43  68 104 136 184 236 287 357 424
#     4  10  20  36  69 102 124 174 241 278 344 421
#     4  12  23  39  70 100 139 185 233 289 354 423
#     4  11  21  42  69  99 140 183 232 300 352 414
#     4  10  20  41  71  94 134 181 234 290 340 420
#
# _framework density 29.594662
#
# number of rings (size 3 to 8) (size 9 to 14) (size 15 to 20)
#    0.000    1.200    4.000    3.600    0.000    2.400 
#    0.000    0.000   17.600   12.000    0.000    0.000 
#    0.000    0.000    0.000    0.000    0.000    0.000 
#
# Total GULP energy -111582.963493 kJ/mol
# GULP energy per Si atom -5579.148175 kJ/mol
# Density = 2.952730 g / cm^3
# Si number density = 29.594662 Si / 1000 Ang^3
#
#
#
# Elastic Constant Matrix: (Units=GPa)
#
#
# Indices 1 2 3 4 5 6 
#
# 1 250.7912 39.9836 54.5251 0.0003 44.6070 0.0021
# 2 39.9836 74.5319 20.3338 0.0009 9.8919 0.0041
# 3 54.5251 20.3338 258.6566 -0.0003 13.1272 0.0006
# 4 0.0003 0.0009 -0.0003 7.2438 -0.0001 12.5039
# 5 44.6070 9.8919 13.1272 -0.0001 55.1668 0.0005
# 6 0.0021 0.0041 0.0006 12.5039 0.0005 37.7458
#
#
#
# Elastic Compliance Matrix: (Units=1/GPa)
#
#
# Indices 1 2 3 4 5 6 
#
# 1 0.005115 -0.002067 -0.000734 0.000000 -0.003591 0.000000
# 2 -0.002067 0.014823 -0.000688 0.000002 -0.000823 -0.000002
# 3 -0.000734 -0.000688 0.004088 0.000000 -0.000256 0.000000
# 4 0.000000 0.000002 0.000000 0.322400 0.000001 -0.106800
# 5 -0.003591 -0.000823 -0.000256 0.000001 0.021239 0.000000
# 6 0.000000 -0.000002 0.000000 -0.106800 0.000000 0.061872
#
#
# Mechanical properties :
#
#
# Convention : Reuss Voigt Hill
#
# Bulk Modulus (GPa) = 58.65568 90.40720 74.53144
# Shear Modulus (GPa) = 11.30717 51.30711 31.30714
#
# Velocity S-wave (km/s) = 1.95678 4.16824 3.25601
# Velocity P-wave (km/s) = 4.99680 7.33352 6.27489
#
# Compressibility (1/GPa) = 0.01704865
#
# Stress axis : x y z
#
# Youngs Moduli (GPa) = 195.49842 67.46293 244.62872
#
# Poissons Ratio (x) = 0.13947 0.17944
# Poissons Ratio (y) = 0.40417 0.16824
# Poissons Ratio (z) = 0.14340 0.04640
#
# Static dielectric constant tensor:
#      x y z
#    x 2.227710 0.000000 -0.127830 
#    y 0.000000 2.603320 0.000000 
#    z -0.127830 0.000000 2.670610 
# 
# From -- ./inp_files/310477.got.cif
#   From: 2010.05.17/outbox.cif.g08.bks.cpg/sg15_156_cif.got.tgz:310477.got - 2010.06.03 18:47:42.
