data_PCOD9272769
_publ_section_title
;
Structure prediction by ZEFSAII (Michael W. Deem and Ramdas Pophale) SiO2 
 PCOD9272769
Probable space group: C 2/C
;
_chemical_formula_sum "Si O2"
_cell_formula_units_Z 56
_cell_length_a 27.838171
_cell_length_b 9.677323
_cell_length_c 16.442376
_cell_angle_alpha 90.000000
_cell_angle_beta 139.711232
_cell_angle_gamma 90.000000
_cell_volume 2864.331300
_symmetry_space_group_name_H-M "C 2/C"
_symmetry_group_IT_number 15
_symmetry_cell_setting 'monoclinic'
loop_
_space_group_symop_operation_xyz
x,y,z
-x,y,1/2-z
-x,-y,-z
x,-y,1/2+z
1/2+x,1/2+y,z
1/2-x,1/2+y,1/2-z
1/2-x,1/2-y,-z
1/2+x,1/2-y,1/2+z
loop_
_atom_site_type_symbol
_atom_site_label
_atom_site_fract_x
_atom_site_fract_y
_atom_site_fract_z
Si Si1 0.742397 0.496875 0.298679
Si Si2 0.333549 0.229352 0.825453
Si Si3 0.576200 0.756038 0.801827
Si Si4 0.213585 0.100871 0.942898
Si Si5 0.014749 0.579934 0.435394
Si Si6 0.811453 0.647630 0.614167
Si Si7 0.890985 0.538612 0.571803
O O1 0.688533 0.610929 0.190271
O O2 0.768719 0.367591 0.279109
O O3 0.712350 0.446850 0.347389
O O4 0.820746 0.570163 0.423544
O O5 0.336902 0.199662 0.733783
O O6 0.412610 0.177355 0.961230
O O7 0.500000 0.724052 0.750000
O O8 0.629861 0.626250 0.864226
O O9 0.552358 0.826648 0.685324
O O10 0.614755 0.881316 0.901265
O O11 0.250000 0.250000 0.000000
O O12 0.265674 0.995650 0.059194
O O13 0.036774 0.471656 0.391603
O O14 0.000000 0.500000 0.500000
O O15 0.750000 0.750000 0.500000
O O16 0.877449 0.630664 0.633786
#
# Coordination Sequence:
#
# PCOD9272769 Si02
#       7
#     8   8   8   8   8   8   8
#     4  10  22  37  59  93 121 152 205 263 307 361
#     4  11  23  38  60  91 126 157 202 260 315 358
#     4  10  20  37  60  87 120 158 206 246 290 373
#     4  11  21  37  67  92 115 159 213 250 303 357
#     4  10  22  36  59  88 126 168 202 239 307 378
#     4  11  20  37  62  90 123 151 202 270 301 349
#     4   9  18  36  59  87 112 153 208 249 294 349
#
# _framework density 19.550810999999999
#
# number of rings (size 3 to 8) (size 9 to 14) (size 15 to 20)
#    0.000    1.714    5.714    0.857    2.000    1.143 
#    0.000    0.714    3.143    0.000    0.000    0.000 
#    0.000    0.000    0.000    0.000    0.000    0.000 
#
# Total GULP energy -156105.127372 kJ/mol
# GULP energy per Si atom -5575.183120 kJ/mol
# Density = 1.950631 g / cm^3
# Si number density = 19.550811 Si / 1000 Ang^3
#
#
#
# Elastic Constant Matrix: (Units=GPa)
#
#
# Indices 1 2 3 4 5 6 
#
# 1 75.8579 4.5915 -0.6095 0.0000 -1.4352 0.0000
# 2 4.5915 66.8526 9.8965 0.0000 8.1050 0.0000
# 3 -0.6095 9.8965 70.2889 0.0000 2.4918 0.0000
# 4 0.0000 0.0000 0.0000 33.3367 0.0000 -2.5972
# 5 -1.4352 8.1050 2.4918 0.0000 34.7909 0.0000
# 6 0.0000 0.0000 0.0000 -2.5972 0.0000 23.8964
#
#
#
# Elastic Compliance Matrix: (Units=1/GPa)
#
#
# Indices 1 2 3 4 5 6 
#
# 1 0.013262 -0.001039 0.000234 0.000000 0.000772 0.000000
# 2 -0.001039 0.015773 -0.002103 0.000000 -0.003567 0.000000
# 3 0.000234 -0.002103 0.014544 0.000000 -0.000542 0.000000
# 4 0.000000 0.000000 0.000000 0.030253 0.000000 0.003288
# 5 0.000772 -0.003567 -0.000542 0.000000 0.029645 0.000000
# 6 0.000000 0.000000 0.000000 0.003288 0.000000 0.042205
#
#
# Mechanical properties :
#
#
# Convention : Reuss Voigt Hill
#
# Bulk Modulus (GPa) = 26.48127 26.75071 26.61599
# Shear Modulus (GPa) = 30.47162 31.67952 31.07557
#
# Velocity S-wave (km/s) = 3.95218 4.02975 3.99115
# Velocity P-wave (km/s) = 5.86519 5.94678 5.90613
#
# Compressibility (1/GPa) = 0.03776255
#
# Stress axis : x y z
#
# Youngs Moduli (GPa) = 75.40381 63.39763 68.75502
#
# Poissons Ratio (x) = 0.06588 -0.01608
# Poissons Ratio (y) = 0.07835 0.14462
# Poissons Ratio (z) = -0.01764 0.13335
#
# Static dielectric constant tensor:
#      x y z
#    x 1.742550 0.000000 -0.007210 
#    y 0.000000 1.737760 0.000000 
#    z -0.007210 0.000000 1.829260 
# 
# From -- ./inp_files/224433.got.cif
#   From: 2010.05.17/outbox.cif.g08.bks.cpg/sg15_113_cif.got.tgz:224433.got - 2010.06.03 18:47:42.
