data_PCOD9272316
_publ_section_title
;
Structure prediction by ZEFSAII (Michael W. Deem and Ramdas Pophale) SiO2 
 PCOD9272316
Probable space group: C 2/C
;
_chemical_formula_sum "Si O2"
_cell_formula_units_Z 52
_cell_length_a 27.613279
_cell_length_b 11.880712
_cell_length_c 7.943318
_cell_angle_alpha 90.000000
_cell_angle_beta 75.758225
_cell_angle_gamma 90.000000
_cell_volume 2525.837944
_symmetry_space_group_name_H-M "C 2/C"
_symmetry_group_IT_number 15
_symmetry_cell_setting 'monoclinic'
loop_
_space_group_symop_operation_xyz
x,y,z
-x,y,1/2-z
-x,-y,-z
x,-y,1/2+z
1/2+x,1/2+y,z
1/2-x,1/2+y,1/2-z
1/2-x,1/2-y,-z
1/2+x,1/2-y,1/2+z
loop_
_atom_site_type_symbol
_atom_site_label
_atom_site_fract_x
_atom_site_fract_y
_atom_site_fract_z
Si Si1 0.855237 0.885639 0.697990
Si Si2 0.342184 0.153022 0.823058
Si Si3 0.500000 0.505176 0.750000
Si Si4 0.330078 0.259801 0.173105
Si Si5 0.822590 0.430415 0.963865
Si Si6 0.426325 0.589182 0.551620
Si Si7 0.208862 0.942993 0.057453
O O1 0.873267 0.763319 0.738497
O O2 0.814631 0.878920 0.582123
O O3 0.896869 0.971127 0.598331
O O4 0.825914 0.950426 0.871990
O O5 0.323472 0.111571 0.655501
O O6 0.358919 0.036093 0.895849
O O7 0.312947 0.208567 0.008884
O O8 0.471199 0.586026 0.646333
O O9 0.543524 0.424504 0.644903
O O10 0.331475 0.165469 0.317318
O O11 0.385518 0.313991 0.106885
O O12 0.296321 0.359829 0.277996
O O13 0.765951 0.472707 0.980035
#
# Coordination Sequence:
#
# PCOD9272316 Si02
#       7
#     8   8   4   8   8   8   8
#     4  11  22  38  63  90 131 177 202 272 321 381
#     4  12  25  40  61  84 123 176 219 269 310 353
#     4  10  20  36  68  98 136 146 188 272 324 432
#     4  11  23  42  61  87 128 169 209 267 319 382
#     4  12  25  41  56  89 126 175 235 264 293 361
#     4  10  21  40  63 104 127 157 202 249 349 396
#     4  11  23  39  58  90 128 169 225 268 315 369
#
# _framework density 20.587226000000001
#
# number of rings (size 3 to 8) (size 9 to 14) (size 15 to 20)
#    0.000    0.923    3.077    6.000    0.000    1.231 
#    0.000    0.000    0.000    0.000    0.000   18.308 
#    0.000    0.000    0.000    0.000    0.000    0.000 
#
# Total GULP energy -144915.235598 kJ/mol
# GULP energy per Si atom -5573.662908 kJ/mol
# Density = 2.054037 g / cm^3
# Si number density = 20.587226 Si / 1000 Ang^3
#
#
#
# Elastic Constant Matrix: (Units=GPa)
#
#
# Indices 1 2 3 4 5 6 
#
# 1 57.6946 24.7738 27.8803 0.0000 -3.0908 0.0000
# 2 24.7738 129.5626 35.4167 0.0000 -13.1889 0.0000
# 3 27.8803 35.4167 127.0568 0.0000 8.6567 0.0000
# 4 0.0000 0.0000 0.0000 31.8861 0.0000 9.6949
# 5 -3.0908 -13.1889 8.6567 0.0000 40.8818 0.0000
# 6 0.0000 0.0000 0.0000 9.6949 0.0000 3.3601
#
#
#
# Elastic Compliance Matrix: (Units=1/GPa)
#
#
# Indices 1 2 3 4 5 6 
#
# 1 0.020425 -0.002708 -0.003828 0.000000 0.001481 0.000000
# 2 -0.002708 0.009158 -0.002177 0.000000 0.003211 0.000000
# 3 -0.003828 -0.002177 0.009522 0.000000 -0.003008 0.000000
# 4 0.000000 0.000000 0.000000 0.255523 0.000000 -0.737260
# 5 0.001481 0.003211 -0.003008 0.000000 0.026246 0.000000
# 6 0.000000 0.000000 0.000000 -0.737260 0.000000 2.424826
#
#
# Mechanical properties :
#
#
# Convention : Reuss Voigt Hill
#
# Bulk Modulus (GPa) = 46.12898 54.49507 50.31202
# Shear Modulus (GPa) = 1.80482 30.30848 16.05665
#
# Velocity S-wave (km/s) = 0.93732 3.84109 2.79576
# Velocity P-wave (km/s) = 4.86073 6.79704 5.90874
#
# Compressibility (1/GPa) = 0.02167835
#
# Stress axis : x y z
#
# Youngs Moduli (GPa) = 48.96045 109.19236 105.01665
#
# Poissons Ratio (x) = 0.29573 0.40198
# Poissons Ratio (y) = 0.13260 0.22865
# Poissons Ratio (z) = 0.18741 0.23774
#
# Static dielectric constant tensor:
#      x y z
#    x 1.695020 0.000000 0.050530 
#    y 0.000000 1.777050 0.000000 
#    z 0.050530 0.000000 1.852010 
# 
# From -- ./inp_files/65130.got.cif
#   From: 2010.05.17/outbox.cif.g08.bks.cpg/sg15_33_cif.got.tgz:65130.got - 2010.06.03 18:47:42.
