data_PCOD9272814
_publ_section_title
;
Structure prediction by ZEFSAII (Michael W. Deem and Ramdas Pophale) SiO2 
 PCOD9272814
Probable space group: C 2/C
;
_chemical_formula_sum "Si O2"
_cell_formula_units_Z 56
_cell_length_a 17.937491
_cell_length_b 20.893120
_cell_length_c 7.851325
_cell_angle_alpha 90.000000
_cell_angle_beta 65.355206
_cell_angle_gamma 90.000000
_cell_volume 2674.416321
_symmetry_space_group_name_H-M "C 2/C"
_symmetry_group_IT_number 15
_symmetry_cell_setting 'monoclinic'
loop_
_space_group_symop_operation_xyz
x,y,z
-x,y,1/2-z
-x,-y,-z
x,-y,1/2+z
1/2+x,1/2+y,z
1/2-x,1/2+y,1/2-z
1/2-x,1/2-y,-z
1/2+x,1/2-y,1/2+z
loop_
_atom_site_type_symbol
_atom_site_label
_atom_site_fract_x
_atom_site_fract_y
_atom_site_fract_z
Si Si1 0.279940 0.226330 0.757882
Si Si2 0.656912 0.589098 0.628768
Si Si3 0.644597 0.549727 0.252248
Si Si4 0.669309 0.855647 0.583337
Si Si5 0.272159 0.146556 0.088048
Si Si6 0.000000 0.677951 0.250000
Si Si7 0.087041 0.790766 0.370943
Si Si8 0.500000 0.365452 0.750000
O O1 0.313961 0.210268 0.538976
O O2 0.296254 0.299372 0.795368
O O3 0.180312 0.222531 0.846143
O O4 0.308426 0.177212 0.879404
O O5 0.644271 0.570901 0.446821
O O6 0.635141 0.526115 0.754153
O O7 0.754032 0.603609 0.558818
O O8 0.604172 0.651447 0.722926
O O9 0.729219 0.578739 0.094995
O O10 0.573462 0.587343 0.226721
O O11 0.678481 0.858376 0.780337
O O12 0.575449 0.866959 0.623051
O O13 0.957231 0.727804 0.159740
O O14 0.030662 0.820391 0.569671
#
# Coordination Sequence:
#
# PCOD9272814 Si02
#       8
#     8   8   8   8   8   4   8   4
#     4  10  20  37  62  86 121 162 206 249 302 382
#     4  10  24  42  61  87 117 175 207 247 297 388
#     4  11  23  38  62  85 126 161 211 245 308 356
#     4  10  23  39  63  87 124 156 214 253 313 356
#     4  10  20  37  60  90 115 167 206 249 294 378
#     4  12  24  39  62  94 125 160 200 272 318 360
#     4  11  23  37  59  91 130 161 199 244 324 366
#     4  12  24  37  58  96 133 152 196 258 296 382
#
# _framework density 20.939149
#
# number of rings (size 3 to 8) (size 9 to 14) (size 15 to 20)
#    0.000    1.429    2.857    2.143    8.000    2.857 
#    0.000    0.000    0.000    3.429    0.000    0.000 
#    0.000    0.000    0.000    0.000    0.000    0.000 
#
# Total GULP energy -156147.625417 kJ/mol
# GULP energy per Si atom -5576.700908 kJ/mol
# Density = 2.089149 g / cm^3
# Si number density = 20.939149 Si / 1000 Ang^3
#
#
#
# Elastic Constant Matrix: (Units=GPa)
#
#
# Indices 1 2 3 4 5 6 
#
# 1 76.5115 -0.3643 21.5719 0.0000 -0.8754 0.0000
# 2 -0.3643 38.2244 -5.3238 0.0000 9.9890 0.0000
# 3 21.5719 -5.3238 56.8350 0.0000 5.3450 0.0000
# 4 0.0000 0.0000 0.0000 17.9257 0.0000 -9.3107
# 5 -0.8754 9.9890 5.3450 0.0000 19.8887 0.0000
# 6 0.0000 0.0000 0.0000 -9.3107 0.0000 3.3568
#
#
#
# Elastic Compliance Matrix: (Units=1/GPa)
#
#
# Indices 1 2 3 4 5 6 
#
# 1 0.014801 -0.001491 -0.006042 0.000000 0.003024 0.000000
# 2 -0.001491 0.031352 0.005119 0.000000 -0.017187 0.000000
# 3 -0.006042 0.005119 0.021169 0.000000 -0.008526 0.000000
# 4 0.000000 0.000000 0.000000 -0.126603 0.000000 -0.351150
# 5 0.003024 -0.017187 -0.008526 0.000000 0.061337 0.000000
# 6 0.000000 0.000000 0.000000 -0.351150 0.000000 -0.676064
#
#
# Mechanical properties :
#
#
# Convention : Reuss Voigt Hill
#
# Bulk Modulus (GPa) = 16.00133 22.59317 19.29725
# Shear Modulus (GPa) = -7.71188 18.61337 5.45075
#
# Velocity S-wave (km/s) = -1.92119 2.98472 1.61517
# Velocity P-wave (km/s) = 1.65442 4.76355 3.56571
#
# Compressibility (1/GPa) = 0.06249482
#
# Stress axis : x y z
#
# Youngs Moduli (GPa) = 67.56365 31.89632 47.23827
#
# Poissons Ratio (x) = 0.04754 0.28540
# Poissons Ratio (y) = 0.10071 -0.24181
# Poissons Ratio (z) = 0.40820 -0.16327
#
# Static dielectric constant tensor:
#      x y z
#    x 1.799670 0.000000 0.011890 
#    y 0.000000 1.791510 0.000000 
#    z 0.011890 0.000000 1.824550 
# 
# From -- ./inp_files/50146.got.cif
#   From: 2010.05.17/outbox.cif.g08.bks.cpg/sg15_26_cif.got.tgz:50146.got - 2010.06.03 18:47:42.
