data_PCOD9272172
_publ_section_title
;
Structure prediction by ZEFSAII (Michael W. Deem and Ramdas Pophale) SiO2 
 PCOD9272172
Probable space group: C 2/C
;
_chemical_formula_sum "Si O2"
_cell_formula_units_Z 56
_cell_length_a 11.939966
_cell_length_b 27.821680
_cell_length_c 7.509061
_cell_angle_alpha 90.000000
_cell_angle_beta 112.559330
_cell_angle_gamma 90.000000
_cell_volume 2303.567110
_symmetry_space_group_name_H-M "C 2/C"
_symmetry_group_IT_number 15
_symmetry_cell_setting 'monoclinic'
loop_
_space_group_symop_operation_xyz
x,y,z
-x,y,1/2-z
-x,-y,-z
x,-y,1/2+z
1/2+x,1/2+y,z
1/2-x,1/2+y,1/2-z
1/2-x,1/2-y,-z
1/2+x,1/2-y,1/2+z
loop_
_atom_site_type_symbol
_atom_site_label
_atom_site_fract_x
_atom_site_fract_y
_atom_site_fract_z
Si Si1 0.537503 0.613457 0.979362
Si Si2 0.096715 0.508267 0.907936
Si Si3 0.900849 0.782184 0.837234
Si Si4 0.406448 0.184858 0.954737
Si Si5 0.820935 0.326297 0.998118
Si Si6 0.708884 0.576864 0.551403
Si Si7 0.708625 0.910533 0.985748
O O1 0.500000 0.617735 0.750000
O O2 0.434693 0.583212 0.017492
O O3 0.668926 0.590103 0.052301
O O4 0.549419 0.667043 0.062325
O O5 0.227208 0.531599 0.000053
O O6 0.000000 0.544040 0.750000
O O7 0.127166 0.453900 0.864687
O O8 0.000000 0.500000 0.000000
O O9 0.894873 0.741671 0.987614
O O10 0.772891 0.792121 0.662197
O O11 0.000000 0.765958 0.750000
O O12 0.547833 0.173000 0.013115
O O13 0.341863 0.184257 0.720669
O O14 0.347050 0.143318 0.038483
O O15 0.758853 0.378053 0.972735
O O16 0.758862 0.577705 0.786675
#
# Coordination Sequence:
#
# PCOD9272172 Si02
#       7
#     8   8   8   8   8   8   8
#     4  10  24  44  65  91 140 184 218 275 350 409
#     4  12  24  42  71 100 129 170 229 288 344 407
#     4  12  22  39  66 105 131 178 237 286 329 412
#     4  10  22  37  67  97 136 181 219 282 351 402
#     4  10  20  36  64  98 133 165 229 281 330 401
#     4  10  21  41  65  91 132 176 218 276 343 400
#     4  10  23  43  62  94 133 179 219 274 347 409
#
# _framework density 24.310123000000001
#
# number of rings (size 3 to 8) (size 9 to 14) (size 15 to 20)
#    0.000    1.429    4.286    1.286    2.000    3.429 
#    0.000    0.714    0.000    0.000    0.000    0.000 
#    0.000    0.000    0.000    0.000    0.000    0.000 
#
# Total GULP energy -156305.512744 kJ/mol
# GULP energy per Si atom -5582.339741 kJ/mol
# Density = 2.425479 g / cm^3
# Si number density = 24.310123 Si / 1000 Ang^3
#
#
#
# Elastic Constant Matrix: (Units=GPa)
#
#
# Indices 1 2 3 4 5 6 
#
# 1 207.3956 97.9915 32.2566 0.0000 29.6807 0.0000
# 2 97.9915 136.0476 15.0878 0.0000 8.2953 0.0000
# 3 32.2566 15.0878 73.9502 0.0000 14.5346 0.0000
# 4 0.0000 0.0000 0.0000 21.0834 0.0000 1.5341
# 5 29.6807 8.2953 14.5346 0.0000 16.8698 0.0000
# 6 0.0000 0.0000 0.0000 1.5341 0.0000 35.8484
#
#
#
# Elastic Compliance Matrix: (Units=1/GPa)
#
#
# Indices 1 2 3 4 5 6 
#
# 1 0.009763 -0.006154 -0.000267 0.000000 -0.013921 0.000000
# 2 -0.006154 0.011516 -0.000819 0.000000 0.005870 0.000000
# 3 -0.000267 -0.000819 0.016414 0.000000 -0.013270 0.000000
# 4 0.000000 0.000000 0.000000 0.047579 0.000000 -0.002036
# 5 -0.013921 0.005870 -0.013270 0.000000 0.092317 0.000000
# 6 0.000000 0.000000 0.000000 -0.002036 0.000000 0.027982
#
#
# Mechanical properties :
#
#
# Convention : Reuss Voigt Hill
#
# Bulk Modulus (GPa) = 43.07784 78.67391 60.87588
# Shear Modulus (GPa) = 21.95025 32.89747 27.42386
#
# Velocity S-wave (km/s) = 3.00813 3.68263 3.36234
# Velocity P-wave (km/s) = 5.46111 7.10741 6.33794
#
# Compressibility (1/GPa) = 0.02321379
#
# Stress axis : x y z
#
# Youngs Moduli (GPa) = 102.42792 86.83899 60.92257
#
# Poissons Ratio (x) = 0.53437 0.01626
# Poissons Ratio (y) = 0.63030 0.04990
# Poissons Ratio (z) = 0.02734 0.07112
#
# Static dielectric constant tensor:
#      x y z
#    x 1.904690 0.000000 -0.066490 
#    y 0.000000 1.924230 0.000000 
#    z -0.066490 0.000000 2.305030 
# 
# From -- ./inp_files/34364.got.cif
#   From: 2010.05.17/outbox.cif.g08.bks.cpg/sg15_18_cif.got.tgz:34364.got - 2010.06.03 18:47:42.
