data_PCOD9272416
_publ_section_title
;
Structure prediction by ZEFSAII (Michael W. Deem and Ramdas Pophale) SiO2 
 PCOD9272416
Probable space group: C 2/C
;
_chemical_formula_sum "Si O2"
_cell_formula_units_Z 64
_cell_length_a 20.741803
_cell_length_b 13.615179
_cell_length_c 11.891020
_cell_angle_alpha 90.000000
_cell_angle_beta 94.404476
_cell_angle_gamma 90.000000
_cell_volume 3348.146826
_symmetry_space_group_name_H-M "C 2/C"
_symmetry_group_IT_number 15
_symmetry_cell_setting 'monoclinic'
loop_
_space_group_symop_operation_xyz
x,y,z
-x,y,1/2-z
-x,-y,-z
x,-y,1/2+z
1/2+x,1/2+y,z
1/2-x,1/2+y,1/2-z
1/2-x,1/2-y,-z
1/2+x,1/2-y,1/2+z
loop_
_atom_site_type_symbol
_atom_site_label
_atom_site_fract_x
_atom_site_fract_y
_atom_site_fract_z
Si Si1 0.190716 0.825330 0.000057
Si Si2 0.567724 0.293813 0.399257
Si Si3 0.727508 0.187903 0.659377
Si Si4 0.434613 0.458171 0.932895
Si Si5 0.356672 0.355887 0.756780
Si Si6 0.823403 0.651283 0.089979
Si Si7 0.246233 0.984797 0.163617
Si Si8 0.579922 0.676184 0.635946
O O1 0.153294 0.846632 0.878097
O O2 0.250000 0.750000 0.000000
O O3 0.221272 0.926560 0.050887
O O4 0.139769 0.776000 0.080200
O O5 0.594795 0.384409 0.477525
O O6 0.605393 0.192699 0.423058
O O7 0.491070 0.290115 0.414303
O O8 0.576858 0.316984 0.269272
O O9 0.667079 0.252631 0.694640
O O10 0.787156 0.263505 0.656164
O O11 0.713194 0.148395 0.533661
O O12 0.742973 0.099894 0.744231
O O13 0.425127 0.392878 0.817824
O O14 0.407206 0.563052 0.893888
O O15 0.500000 0.500000 0.000000
O O16 0.305681 0.436227 0.797949
O O17 0.810576 0.547942 0.147074
#
# Coordination Sequence:
#
# PCOD9272416 Si02
#       8
#     8   8   8   8   8   8   8   8
#     4  12  24  39  60  95 132 163 205 271 339 383
#     4  10  21  41  59  87 121 167 220 249 313 392
#     4  10  20  37  55  92 124 163 212 267 327 381
#     4  10  21  37  59  90 124 163 209 252 318 388
#     4  11  22  36  60  88 130 169 203 262 330 396
#     4  10  21  35  63  85 122 171 213 268 314 395
#     4  11  22  37  58  93 124 168 212 266 321 392
#     4  10  23  37  61  87 124 166 204 268 313 388
#
# _framework density 19.115053
#
# number of rings (size 3 to 8) (size 9 to 14) (size 15 to 20)
#    0.000    1.500    3.750    1.500    3.500    0.000 
#    2.250    0.000    0.000    0.750    0.000    0.000 
#    0.000    0.000    0.000    0.000    0.000    0.000 
#
# Total GULP energy -178296.471524 kJ/mol
# GULP energy per Si atom -5571.764735 kJ/mol
# Density = 1.907155 g / cm^3
# Si number density = 19.115053 Si / 1000 Ang^3
#
#
#
# Elastic Constant Matrix: (Units=GPa)
#
#
# Indices 1 2 3 4 5 6 
#
# 1 91.2381 26.1606 25.4128 0.0000 -7.8730 0.0000
# 2 26.1606 74.8659 36.0580 0.0000 -0.6695 0.0000
# 3 25.4128 36.0580 100.0202 0.0000 7.2187 0.0000
# 4 0.0000 0.0000 0.0000 27.4311 0.0000 -0.6061
# 5 -7.8730 -0.6695 7.2187 0.0000 26.5990 0.0000
# 6 0.0000 0.0000 0.0000 -0.6061 0.0000 30.8277
#
#
#
# Elastic Compliance Matrix: (Units=1/GPa)
#
#
# Indices 1 2 3 4 5 6 
#
# 1 0.012968 -0.003330 -0.002413 0.000000 0.004409 0.000000
# 2 -0.003330 0.017127 -0.005394 0.000000 0.000909 0.000000
# 3 -0.002413 -0.005394 0.012869 0.000000 -0.004342 0.000000
# 4 0.000000 0.000000 0.000000 0.036471 0.000000 0.000717
# 5 0.004409 0.000909 -0.004342 0.000000 0.040102 0.000000
# 6 0.000000 0.000000 0.000000 0.000717 0.000000 0.032453
#
#
# Mechanical properties :
#
#
# Convention : Reuss Voigt Hill
#
# Bulk Modulus (GPa) = 48.33119 49.04300 48.68709
# Shear Modulus (GPa) = 27.60022 28.87107 28.23565
#
# Velocity S-wave (km/s) = 3.80399 3.89058 3.84753
# Velocity P-wave (km/s) = 6.68080 6.77456 6.72784
#
# Compressibility (1/GPa) = 0.02069057
#
# Stress axis : x y z
#
# Youngs Moduli (GPa) = 77.11556 58.38794 77.70684
#
# Poissons Ratio (x) = 0.19443 0.18747
# Poissons Ratio (y) = 0.25679 0.41914
# Poissons Ratio (z) = 0.18604 0.31494
#
# Static dielectric constant tensor:
#      x y z
#    x 1.749640 0.000000 0.015490 
#    y 0.000000 1.382790 0.000000 
#    z 0.015490 0.000000 1.718440 
# 
# From -- ./inp_files/117628.got.cif
#   From: 2010.05.17/outbox.cif.g08.bks.cpg/sg15_59_cif.got.tgz:117628.got - 2010.06.03 18:47:42.
