data_PCOD9272824
_publ_section_title
;
Structure prediction by ZEFSAII (Michael W. Deem and Ramdas Pophale) SiO2 
 PCOD9272824
Probable space group: C 2/C
;
_chemical_formula_sum "Si O2"
_cell_formula_units_Z 64
_cell_length_a 13.280246
_cell_length_b 23.021925
_cell_length_c 9.528029
_cell_angle_alpha 90.000000
_cell_angle_beta 88.687116
_cell_angle_gamma 90.000000
_cell_volume 2912.304626
_symmetry_space_group_name_H-M "C 2/C"
_symmetry_group_IT_number 15
_symmetry_cell_setting 'monoclinic'
loop_
_space_group_symop_operation_xyz
x,y,z
-x,y,1/2-z
-x,-y,-z
x,-y,1/2+z
1/2+x,1/2+y,z
1/2-x,1/2+y,1/2-z
1/2-x,1/2-y,-z
1/2+x,1/2-y,1/2+z
loop_
_atom_site_type_symbol
_atom_site_label
_atom_site_fract_x
_atom_site_fract_y
_atom_site_fract_z
Si Si1 0.257542 0.350553 0.000823
Si Si2 0.749954 0.311415 0.181582
Si Si3 0.519764 0.682275 0.090960
Si Si4 0.102262 0.500125 0.814033
Si Si5 0.168341 0.897506 0.959558
Si Si6 0.732775 0.015012 0.558394
Si Si7 0.095160 0.277665 0.550484
Si Si8 0.857427 0.368012 0.751464
O O1 0.240213 0.323471 0.154624
O O2 0.365620 0.332962 0.938742
O O3 0.258638 0.420920 0.007064
O O4 0.172179 0.335287 0.890313
O O5 0.677019 0.258125 0.140687
O O6 0.702994 0.367298 0.103350
O O7 0.852799 0.296833 0.096737
O O8 0.500000 0.702153 0.250000
O O9 0.440994 0.628921 0.070754
O O10 0.490413 0.732549 0.983360
O O11 0.195962 0.521210 0.718271
O O12 0.135209 0.509322 0.973640
O O13 0.102597 0.431071 0.789883
O O14 0.000000 0.525045 0.750000
O O15 0.251363 0.877045 0.841107
O O16 0.180983 0.966858 0.961473
O O17 0.073238 0.334195 0.641153
#
# Coordination Sequence:
#
# PCOD9272824 Si02
#       8
#     8   8   8   8   8   8   8   8
#     4  11  22  36  61  97 124 150 211 261 289 369
#     4   9  19  36  60  84 112 160 210 246 299 359
#     4  11  22  39  61  90 126 157 213 255 295 368
#     4  10  20  37  60  90 121 156 206 250 295 368
#     4   9  18  37  61  83 125 170 197 239 310 374
#     4  10  21  37  62  90 122 167 195 243 319 358
#     4   9  20  40  61  77 116 171 197 246 318 355
#     4   9  19  38  59  86 122 161 201 247 313 365
#
# _framework density 21.975722999999999
#
# number of rings (size 3 to 8) (size 9 to 14) (size 15 to 20)
#    0.000    2.250    1.250    1.875    0.000    3.000 
#    2.250    1.250    0.000    5.250    0.000    0.000 
#    0.000    0.000    0.000    0.000    0.000    0.000 
#
# Total GULP energy -178780.869238 kJ/mol
# GULP energy per Si atom -5586.902164 kJ/mol
# Density = 2.192571 g / cm^3
# Si number density = 21.975723 Si / 1000 Ang^3
#
#
#
# Elastic Constant Matrix: (Units=GPa)
#
#
# Indices 1 2 3 4 5 6 
#
# 1 59.1650 6.8222 9.2522 0.0000 8.4104 0.0000
# 2 6.8222 74.0733 8.4491 0.0000 3.9264 0.0000
# 3 9.2522 8.4491 121.0875 0.0000 7.4407 0.0000
# 4 0.0000 0.0000 0.0000 24.3232 0.0000 1.6103
# 5 8.4104 3.9264 7.4407 0.0000 25.7213 0.0000
# 6 0.0000 0.0000 0.0000 1.6103 0.0000 14.8368
#
#
#
# Elastic Compliance Matrix: (Units=1/GPa)
#
#
# Indices 1 2 3 4 5 6 
#
# 1 0.017965 -0.001259 -0.000953 0.000000 -0.005406 0.000000
# 2 -0.001259 0.013782 -0.000775 0.000000 -0.001468 0.000000
# 3 -0.000953 -0.000775 0.008510 0.000000 -0.002032 0.000000
# 4 0.000000 0.000000 0.000000 0.041411 0.000000 -0.004495
# 5 -0.005406 -0.001468 -0.002032 0.000000 0.041458 0.000000
# 6 0.000000 0.000000 0.000000 -0.004495 0.000000 0.067888
#
#
# Mechanical properties :
#
#
# Convention : Reuss Voigt Hill
#
# Bulk Modulus (GPa) = 29.16910 33.70809 31.43860
# Shear Modulus (GPa) = 23.99055 28.29641 26.14348
#
# Velocity S-wave (km/s) = 3.30765 3.59224 3.45288
# Velocity P-wave (km/s) = 5.28105 5.70768 5.49851
#
# Compressibility (1/GPa) = 0.03428285
#
# Stress axis : x y z
#
# Youngs Moduli (GPa) = 55.66512 72.55646 117.50550
#
# Poissons Ratio (x) = 0.09137 0.11193
# Poissons Ratio (y) = 0.07010 0.09110
# Poissons Ratio (z) = 0.05303 0.05625
#
# Static dielectric constant tensor:
#      x y z
#    x 1.794190 0.000000 0.008680 
#    y 0.000000 1.817600 0.000000 
#    z 0.008680 0.000000 1.789980 
# 
# From -- ./inp_files/42649.got.cif
#   From: 2010.05.17/outbox.cif.g08.bks.cpg/sg15_22_cif.got.tgz:42649.got - 2010.06.03 18:47:42.
