data_PCOD9272980
_publ_section_title
;
Structure prediction by ZEFSAII (Michael W. Deem and Ramdas Pophale) SiO2 
 PCOD9272980
Probable space group: C 2/C
;
_chemical_formula_sum "Si O2"
_cell_formula_units_Z 40
_cell_length_a 16.461312
_cell_length_b 16.969489
_cell_length_c 9.051546
_cell_angle_alpha 90.000000
_cell_angle_beta 125.492777
_cell_angle_gamma 90.000000
_cell_volume 2058.643068
_symmetry_space_group_name_H-M "C 2/C"
_symmetry_group_IT_number 15
_symmetry_cell_setting 'monoclinic'
loop_
_space_group_symop_operation_xyz
x,y,z
-x,y,1/2-z
-x,-y,-z
x,-y,1/2+z
1/2+x,1/2+y,z
1/2-x,1/2+y,1/2-z
1/2-x,1/2-y,-z
1/2+x,1/2-y,1/2+z
loop_
_atom_site_type_symbol
_atom_site_label
_atom_site_fract_x
_atom_site_fract_y
_atom_site_fract_z
Si Si1 0.754954 0.049696 0.498153
Si Si2 0.387996 0.524593 0.354135
Si Si3 0.267772 0.255996 0.273720
Si Si4 0.233718 0.122459 0.465589
Si Si5 0.882362 0.702172 0.123613
O O1 0.829459 0.053150 0.437470
O O2 0.675641 0.118969 0.418321
O O3 0.824291 0.047230 0.716841
O O4 0.709816 0.960647 0.449781
O O5 0.500000 0.500000 0.500000
O O6 0.371921 0.590982 0.210982
O O7 0.278014 0.177698 0.384396
O O8 0.274304 0.326525 0.396844
O O9 0.347502 0.254447 0.226123
O O10 0.162823 0.260707 0.074180
O O11 0.000000 0.693042 0.250000
#
# Coordination Sequence:
#
# PCOD9272980 Si02
#       5
#     8   8   8   8   8
#     4  10  20  40  60  94 128 156 225 263 309 386
#     4  10  20  37  62 100 122 164 211 261 337 371
#     4  10  21  45  61  92 136 161 216 265 325 395
#     4   9  21  40  66  89 132 170 199 278 319 375
#     4  11  23  43  67  93 126 179 216 266 330 387
#
# _framework density 19.430275000000002
#
# number of rings (size 3 to 8) (size 9 to 14) (size 15 to 20)
#    1.200    0.800    2.000    1.800    0.000    0.000 
#   14.400   12.000    0.000    0.000    0.000    0.000 
#    0.000    0.000    0.000    0.000    0.000    0.000 
#
# Total GULP energy -111411.132915 kJ/mol
# GULP energy per Si atom -5570.556646 kJ/mol
# Density = 1.938605 g / cm^3
# Si number density = 19.430275 Si / 1000 Ang^3
#
#
#
# Elastic Constant Matrix: (Units=GPa)
#
#
# Indices 1 2 3 4 5 6 
#
# 1 72.6169 16.0888 50.9901 0.0000 12.0468 0.0000
# 2 16.0888 76.6643 2.6559 0.0000 -8.5583 0.0000
# 3 50.9901 2.6559 68.2408 0.0000 0.7907 0.0000
# 4 0.0000 0.0000 0.0000 38.1554 0.0000 -10.9703
# 5 12.0468 -8.5583 0.7907 0.0000 36.1030 0.0000
# 6 0.0000 0.0000 0.0000 -10.9703 0.0000 30.5662
#
#
#
# Elastic Compliance Matrix: (Units=1/GPa)
#
#
# Indices 1 2 3 4 5 6 
#
# 1 0.036929 -0.008341 -0.027110 0.000000 -0.013706 0.000000
# 2 -0.008341 0.015304 0.005564 0.000000 0.006289 0.000000
# 3 -0.027110 0.005564 0.034583 0.000000 0.009607 0.000000
# 4 0.000000 0.000000 0.000000 0.029224 0.000000 0.010489
# 5 -0.013706 0.006289 0.009607 0.000000 0.033552 0.000000
# 6 0.000000 0.000000 0.000000 0.010489 0.000000 0.036480
#
#
# Mechanical properties :
#
#
# Convention : Reuss Voigt Hill
#
# Bulk Modulus (GPa) = 36.98041 39.66572 38.32307
# Shear Modulus (GPa) = 19.61869 30.81741 25.21805
#
# Velocity S-wave (km/s) = 3.18102 3.98685 3.60651
# Velocity P-wave (km/s) = 5.70662 6.45383 6.09170
#
# Compressibility (1/GPa) = 0.02704134
#
# Stress axis : x y z
#
# Youngs Moduli (GPa) = 27.07935 65.34418 28.91611
#
# Poissons Ratio (x) = 0.54501 0.78391
# Poissons Ratio (y) = 0.22586 -0.16088
# Poissons Ratio (z) = 0.73412 -0.36356
#
# Static dielectric constant tensor:
#      x y z
#    x 1.657270 0.000000 -0.045610 
#    y 0.000000 1.769120 0.000000 
#    z -0.045610 0.000000 1.692760 
# 
# From -- ./inp_files/41066.got.cif
#   From: 2010.05.17/outbox.cif.g08.bks.cpg/sg15_21_cif.got.tgz:41066.got - 2010.06.03 18:47:42.
