data_PCOD9272302
_publ_section_title
;
Structure prediction by ZEFSAII (Michael W. Deem and Ramdas Pophale) SiO2 
 PCOD9272302
Probable space group: C 2/C
;
_chemical_formula_sum "Si O2"
_cell_formula_units_Z 28
_cell_length_a 11.685939
_cell_length_b 8.399272
_cell_length_c 12.364734
_cell_angle_alpha 90.000000
_cell_angle_beta 91.526846
_cell_angle_gamma 90.000000
_cell_volume 1213.209535
_symmetry_space_group_name_H-M "C 2/C"
_symmetry_group_IT_number 15
_symmetry_cell_setting 'monoclinic'
loop_
_space_group_symop_operation_xyz
x,y,z
-x,y,1/2-z
-x,-y,-z
x,-y,1/2+z
1/2+x,1/2+y,z
1/2-x,1/2+y,1/2-z
1/2-x,1/2-y,-z
1/2+x,1/2-y,1/2+z
loop_
_atom_site_type_symbol
_atom_site_label
_atom_site_fract_x
_atom_site_fract_y
_atom_site_fract_z
Si Si1 0.455290 0.523623 0.867999
Si Si2 0.785309 0.505938 0.710083
Si Si3 0.000000 0.716557 0.750000
Si Si4 0.820423 0.824044 0.100729
O O1 0.500000 0.586636 0.750000
O O2 0.320690 0.560464 0.869448
O O3 0.460372 0.335502 0.843016
O O4 0.558166 0.603536 0.937535
O O5 0.896435 0.613418 0.703961
O O6 0.820970 0.326849 0.682387
O O7 0.739492 0.534431 0.831631
O O8 0.750000 0.750000 0.000000
#
# Coordination Sequence:
#
# PCOD9272302 Si02
#       4
#     8   8   4   8
#     4   8  19  38  61  89 127 166 208 262 317 366
#     4  11  21  41  65  91 135 164 212 268 317 373
#     4  10  20  36  68  90 122 178 202 252 336 362
#     4  11  23  42  70  96 125 173 217 259 324 381
#
# _framework density 23.079279
#
# number of rings (size 3 to 8) (size 9 to 14) (size 15 to 20)
#    0.857    1.143    2.857    0.000    6.000    1.143 
#    0.000    7.143    0.000    0.000    0.000    0.000 
#    0.000    0.000    0.000    0.000    0.000    0.000 
#
# Total GULP energy -78007.703941 kJ/mol
# GULP energy per Si atom -5571.978853 kJ/mol
# Density = 2.302675 g / cm^3
# Si number density = 23.079279 Si / 1000 Ang^3
#
#
#
# Elastic Constant Matrix: (Units=GPa)
#
#
# Indices 1 2 3 4 5 6 
#
# 1 181.1980 89.2171 32.1737 0.0000 52.9792 0.0000
# 2 89.2171 149.0776 45.9182 0.0000 13.0011 0.0000
# 3 32.1737 45.9182 -64.5321 0.0000 -29.8324 0.0000
# 4 0.0000 0.0000 0.0000 100.6788 0.0000 -39.5626
# 5 52.9792 13.0011 -29.8324 0.0000 34.2887 0.0000
# 6 0.0000 0.0000 0.0000 -39.5626 0.0000 85.0337
#
#
#
# Elastic Compliance Matrix: (Units=1/GPa)
#
#
# Indices 1 2 3 4 5 6 
#
# 1 0.011236 -0.007391 0.005044 0.000000 -0.010169 0.000000
# 2 -0.007391 0.010407 0.000189 0.000000 0.007638 0.000000
# 3 0.005044 0.000189 -0.006569 0.000000 -0.013580 0.000000
# 4 0.000000 0.000000 0.000000 0.012155 0.000000 0.005655
# 5 -0.010169 0.007638 -0.013580 0.000000 0.030165 0.000000
# 6 0.000000 0.000000 0.000000 0.005655 0.000000 0.014391
#
#
# Mechanical properties :
#
#
# Convention : Reuss Voigt Hill
#
# Bulk Modulus (GPa) = 92.95664 66.70685 79.83175
# Shear Modulus (GPa) = 62.74624 50.56255 56.65439
#
# Velocity S-wave (km/s) = 5.21980 4.68570 4.95994
# Velocity P-wave (km/s) = 8.75745 7.63154 8.21381
#
# Compressibility (1/GPa) = 0.01075770
#
# Stress axis : x y z
#
# Youngs Moduli (GPa) = 89.00289 96.09240 -152.23187
#
# Poissons Ratio (x) = 0.71020 0.76784
# Poissons Ratio (y) = 0.65780 0.02879
# Poissons Ratio (z) = -0.44892 -0.01817
#
# Static dielectric constant tensor:
#      x y z
#    x 1.944820 0.000000 0.011790 
#    y 0.000000 1.807790 0.000000 
#    z 0.011790 0.000000 2.191920 
# 
# From -- ./inp_files/140285.got.cif
#   From: 2010.05.17/outbox.cif.g08.bks.cpg/sg15_71_cif.got.tgz:140285.got - 2010.06.03 18:47:42.
