data_PCOD9272099
_publ_section_title
;
Structure prediction by ZEFSAII (Michael W. Deem and Ramdas Pophale) SiO2 
 PCOD9272099
Probable space group: C 2/C
;
_chemical_formula_sum "Si O2"
_cell_formula_units_Z 56
_cell_length_a 7.731266
_cell_length_b 12.339398
_cell_length_c 25.098505
_cell_angle_alpha 90.000000
_cell_angle_beta 73.250497
_cell_angle_gamma 90.000000
_cell_volume 2292.792349
_symmetry_space_group_name_H-M "C 2/C"
_symmetry_group_IT_number 15
_symmetry_cell_setting 'monoclinic'
loop_
_space_group_symop_operation_xyz
x,y,z
-x,y,1/2-z
-x,-y,-z
x,-y,1/2+z
1/2+x,1/2+y,z
1/2-x,1/2+y,1/2-z
1/2-x,1/2-y,-z
1/2+x,1/2-y,1/2+z
loop_
_atom_site_type_symbol
_atom_site_label
_atom_site_fract_x
_atom_site_fract_y
_atom_site_fract_z
Si Si1 0.500000 0.395191 0.750000
Si Si2 0.852415 0.991293 0.400475
Si Si3 0.848381 0.486518 0.694946
Si Si4 0.000000 0.307903 0.750000
Si Si5 0.108740 0.277152 0.315573
Si Si6 0.660290 0.472221 0.942914
Si Si7 0.652751 0.134091 0.506626
Si Si8 0.201725 0.272420 0.429311
O O1 0.672421 0.467332 0.747368
O O2 0.520798 0.311045 0.699509
O O3 0.751786 0.007508 0.353368
O O4 0.729630 0.062047 0.451822
O O5 0.058166 0.023702 0.395351
O O6 0.856740 0.861686 0.411516
O O7 0.943251 0.600639 0.694184
O O8 0.972877 0.385954 0.700639
O O9 0.185648 0.242757 0.724371
O O10 0.115856 0.266102 0.378058
O O11 0.807746 0.562270 0.944020
O O12 0.730433 0.350439 0.943903
O O13 0.500000 0.500000 0.000000
O O14 0.750000 0.250000 0.500000
O O15 0.446301 0.167192 0.521699
#
# Coordination Sequence:
#
# PCOD9272099 Si02
#       8
#     4   8   8   4   8   8   8   8
#     4  10  20  36  64  84 118 158 190 252 310 358
#     4  10  22  40  61  89 121 163 208 252 304 363
#     4  10  21  40  61  88 122 152 201 249 305 367
#     4  10  22  42  64  88 124 156 192 256 312 370
#     4  10  22  39  61  92 118 155 204 248 305 367
#     4  10  21  40  58  84 124 162 203 247 296 350
#     4  11  22  41  61  85 127 166 205 250 302 360
#     4  11  22  40  61  90 124 160 211 252 299 366
#
# _framework density 24.424365999999999
#
# number of rings (size 3 to 8) (size 9 to 14) (size 15 to 20)
#    0.000    1.714    2.857    2.143    0.000    4.571 
#    7.714    1.429    0.000    0.000    0.000    0.000 
#    0.000    0.000    0.000    0.000    0.000    0.000 
#
# Total GULP energy -156414.944991 kJ/mol
# GULP energy per Si atom -5586.248035 kJ/mol
# Density = 2.436877 g / cm^3
# Si number density = 24.424366 Si / 1000 Ang^3
#
#
#
# Elastic Constant Matrix: (Units=GPa)
#
#
# Indices 1 2 3 4 5 6 
#
# 1 66.1958 23.3091 10.2019 0.0000 23.9054 0.0000
# 2 23.3091 175.2923 27.6844 0.0000 13.2452 0.0000
# 3 10.2019 27.6844 65.9882 0.0000 32.0531 0.0000
# 4 0.0000 0.0000 0.0000 19.0923 0.0000 -4.7420
# 5 23.9054 13.2452 32.0531 0.0000 38.6262 0.0000
# 6 0.0000 0.0000 0.0000 -4.7420 0.0000 12.6091
#
#
#
# Elastic Compliance Matrix: (Units=1/GPa)
#
#
# Indices 1 2 3 4 5 6 
#
# 1 0.021371 -0.002506 0.006290 0.000000 -0.017586 0.000000
# 2 -0.002506 0.006404 -0.003327 0.000000 0.002116 0.000000
# 3 0.006290 -0.003327 0.028336 0.000000 -0.026266 0.000000
# 4 0.000000 0.000000 0.000000 0.057774 0.000000 0.021727
# 5 -0.017586 0.002116 -0.026266 0.000000 0.057844 0.000000
# 6 0.000000 0.000000 0.000000 0.021727 0.000000 0.087479
#
#
# Mechanical properties :
#
#
# Convention : Reuss Voigt Hill
#
# Bulk Modulus (GPa) = 17.53660 47.76303 32.64982
# Shear Modulus (GPa) = 18.03094 30.48423 24.25759
#
# Velocity S-wave (km/s) = 2.72000 3.53669 3.15488
# Velocity P-wave (km/s) = 4.13038 6.02291 5.16409
#
# Compressibility (1/GPa) = 0.05702359
#
# Stress axis : x y z
#
# Youngs Moduli (GPa) = 46.79279 156.16316 35.29095
#
# Poissons Ratio (x) = 0.39139 -0.22197
# Poissons Ratio (y) = 0.11728 0.11741
# Poissons Ratio (z) = -0.29432 0.51954
#
# Static dielectric constant tensor:
#      x y z
#    x 1.949950 0.000000 -0.006560 
#    y 0.000000 1.959100 0.000000 
#    z -0.006560 0.000000 2.067360 
# 
# From -- ./inp_files/287996.got.cif
#   From: 2010.05.17/outbox.cif.g08.bks.cpg/sg15_144_cif.got.tgz:287996.got - 2010.06.03 18:47:42.
