data_PCOD9272674
_publ_section_title
;
Structure prediction by ZEFSAII (Michael W. Deem and Ramdas Pophale) SiO2 
 PCOD9272674
Probable space group: C 2/C
;
_chemical_formula_sum "Si O2"
_cell_formula_units_Z 48
_cell_length_a 10.928902
_cell_length_b 20.053258
_cell_length_c 15.454750
_cell_angle_alpha 90.000000
_cell_angle_beta 135.191507
_cell_angle_gamma 90.000000
_cell_volume 2386.997690
_symmetry_space_group_name_H-M "C 2/C"
_symmetry_group_IT_number 15
_symmetry_cell_setting 'monoclinic'
loop_
_space_group_symop_operation_xyz
x,y,z
-x,y,1/2-z
-x,-y,-z
x,-y,1/2+z
1/2+x,1/2+y,z
1/2-x,1/2+y,1/2-z
1/2-x,1/2-y,-z
1/2+x,1/2-y,1/2+z
loop_
_atom_site_type_symbol
_atom_site_label
_atom_site_fract_x
_atom_site_fract_y
_atom_site_fract_z
Si Si1 0.267200 0.565976 0.198762
Si Si2 0.184295 0.707203 0.096751
Si Si3 0.428766 0.779643 0.620991
Si Si4 0.083059 0.561245 0.380304
Si Si5 0.124931 0.037718 0.441826
Si Si6 0.144752 0.659763 0.890216
O O1 0.283075 0.646373 0.194359
O O2 0.416426 0.540163 0.338523
O O3 0.316947 0.540564 0.129458
O O4 0.070302 0.548069 0.126341
O O5 0.294214 0.768959 0.116710
O O6 0.059778 0.734075 0.108464
O O7 0.094151 0.674781 0.965630
O O8 0.500000 0.756185 0.750000
O O9 0.250000 0.750000 0.500000
O O10 0.403158 0.859189 0.614795
O O11 0.270278 0.527348 0.477584
O O12 0.000000 0.537095 0.250000
O O13 0.205647 0.103736 0.526972
O O14 0.000000 0.635560 0.750000
#
# Coordination Sequence:
#
# PCOD9272674 Si02
#       6
#     8   8   8   8   8   8
#     4   9  20  37  58  83 119 158 196 244 305 358
#     4   9  21  36  58  84 122 158 200 247 308 354
#     4  10  23  42  63  86 118 166 206 250 301 366
#     4  10  21  39  60  83 122 155 196 250 301 358
#     4  10  20  37  59  89 115 156 202 243 305 365
#     4  10  21  32  57  91 120 154 195 256 301 358
#
# _framework density 20.108941999999999
#
# number of rings (size 3 to 8) (size 9 to 14) (size 15 to 20)
#    0.000    2.333    0.000    1.000    9.333    3.333 
#    3.000    1.667    0.000    0.000    0.000    0.000 
#    0.000    0.000    0.000    0.000    0.000    0.000 
#
# Total GULP energy -133709.463217 kJ/mol
# GULP energy per Si atom -5571.227634 kJ/mol
# Density = 2.006317 g / cm^3
# Si number density = 20.108942 Si / 1000 Ang^3
#
#
#
# Elastic Constant Matrix: (Units=GPa)
#
#
# Indices 1 2 3 4 5 6 
#
# 1 73.8888 16.9372 34.3386 0.0001 -11.4545 0.0000
# 2 16.9372 21.5926 20.1061 0.0000 3.9294 0.0000
# 3 34.3386 20.1061 129.2217 0.0002 10.7266 0.0001
# 4 0.0001 0.0000 0.0002 18.7488 0.0001 9.1778
# 5 -11.4545 3.9294 10.7266 0.0001 19.4544 0.0001
# 6 0.0000 0.0000 0.0001 9.1778 0.0001 14.4418
#
#
#
# Elastic Compliance Matrix: (Units=1/GPa)
#
#
# Indices 1 2 3 4 5 6 
#
# 1 0.022747 -0.016678 -0.005073 0.000000 0.019559 0.000000
# 2 -0.016678 0.067206 -0.004279 0.000000 -0.021035 0.000000
# 3 -0.005073 -0.004279 0.010405 0.000000 -0.007860 0.000000
# 4 0.000000 0.000000 0.000000 0.077422 -0.000001 -0.049202
# 5 0.019559 -0.021035 -0.007860 -0.000001 0.071501 0.000000
# 6 0.000000 0.000000 0.000000 -0.049202 0.000000 0.100512
#
#
# Mechanical properties :
#
#
# Convention : Reuss Voigt Hill
#
# Bulk Modulus (GPa) = 20.70470 40.82966 30.76718
# Shear Modulus (GPa) = 11.96313 20.75040 16.35676
#
# Velocity S-wave (km/s) = 2.44174 3.21580 2.85512
# Velocity P-wave (km/s) = 4.27411 5.84267 5.11883
#
# Compressibility (1/GPa) = 0.04829820
#
# Stress axis : x y z
#
# Youngs Moduli (GPa) = 43.96268 14.87953 96.10805
#
# Poissons Ratio (x) = 0.24816 0.48757
# Poissons Ratio (y) = 0.73320 0.41124
# Poissons Ratio (z) = 0.22303 0.06367
#
# Static dielectric constant tensor:
#      x y z
#    x 1.790160 0.000000 0.011920 
#    y 0.000000 1.728300 0.000000 
#    z 0.011920 0.000000 1.750230 
# 
# From -- ./inp_files/32055.got.cif
#   From: 2010.05.17/outbox.cif.g08.bks.cpg/sg15_17_cif.got.tgz:32055.got - 2010.06.03 18:47:42.
