data_PCOD9272766
_publ_section_title
;
Structure prediction by ZEFSAII (Michael W. Deem and Ramdas Pophale) SiO2 
 PCOD9272766
Probable space group: C 2/C
;
_chemical_formula_sum "Si O2"
_cell_formula_units_Z 44
_cell_length_a 6.945949
_cell_length_b 24.182774
_cell_length_c 18.172477
_cell_angle_alpha 90.000000
_cell_angle_beta 45.780862
_cell_angle_gamma 90.000000
_cell_volume 2187.639349
_symmetry_space_group_name_H-M "C 2/C"
_symmetry_group_IT_number 15
_symmetry_cell_setting 'monoclinic'
loop_
_space_group_symop_operation_xyz
x,y,z
-x,y,1/2-z
-x,-y,-z
x,-y,1/2+z
1/2+x,1/2+y,z
1/2-x,1/2+y,1/2-z
1/2-x,1/2-y,-z
1/2+x,1/2-y,1/2+z
loop_
_atom_site_type_symbol
_atom_site_label
_atom_site_fract_x
_atom_site_fract_y
_atom_site_fract_z
Si Si1 0.466562 0.899783 0.844480
Si Si2 0.000000 0.842346 0.750000
Si Si3 0.869269 0.830563 0.462200
Si Si4 0.147361 0.725039 0.451102
Si Si5 0.210517 0.502968 0.510041
Si Si6 0.279854 0.437208 0.133468
O O1 0.500000 0.908139 0.750000
O O2 0.754113 0.880558 0.795021
O O3 0.374679 0.954095 0.911670
O O4 0.263686 0.851498 0.925421
O O5 0.892574 0.804968 0.845241
O O6 0.613168 0.816196 0.478340
O O7 0.039779 0.775643 0.429922
O O8 0.064382 0.880686 0.387987
O O9 0.250000 0.750000 0.500000
O O10 0.507930 0.485950 0.403874
O O11 0.227705 0.556243 0.558892
O O12 0.000000 0.500000 0.500000
O O13 0.000000 0.441549 0.250000
#
# Coordination Sequence:
#
# PCOD9272766 Si02
#       6
#     8   4   8   8   8   8
#     4  10  20  37  60  87 118 158 204 257 307 371
#     4  10  22  34  62  94 112 158 216 248 316 380
#     4   9  21  37  57  85 122 152 204 255 310 375
#     4  10  20  38  60  85 121 157 198 262 317 373
#     4  10  23  40  60  90 127 162 210 264 322 378
#     4  10  22  40  62  86 121 167 209 258 314 380
#
# _framework density 20.113005999999999
#
# number of rings (size 3 to 8) (size 9 to 14) (size 15 to 20)
#    0.000    2.182    0.000    1.636    1.273   10.909 
#    0.000    0.000    0.000    0.000    0.000    0.000 
#    0.000    0.000    0.000    0.000    0.000    0.000 
#
# Total GULP energy -122758.929688 kJ/mol
# GULP energy per Si atom -5579.951349 kJ/mol
# Density = 2.006723 g / cm^3
# Si number density = 20.113006 Si / 1000 Ang^3
#
#
#
# Elastic Constant Matrix: (Units=GPa)
#
#
# Indices 1 2 3 4 5 6 
#
# 1 111.6273 20.5278 46.1659 0.0000 -6.6077 0.0000
# 2 20.5278 68.1643 26.5590 0.0000 -12.2954 0.0000
# 3 46.1659 26.5590 114.0915 0.0000 -30.3678 0.0000
# 4 0.0000 0.0000 0.0000 26.4664 0.0000 -0.3541
# 5 -6.6077 -12.2954 -30.3678 0.0000 35.4028 0.0000
# 6 0.0000 0.0000 0.0000 -0.3541 0.0000 35.3125
#
#
#
# Elastic Compliance Matrix: (Units=1/GPa)
#
#
# Indices 1 2 3 4 5 6 
#
# 1 0.011132 -0.001984 -0.004760 0.000000 -0.002694 0.000000
# 2 -0.001984 0.016752 -0.002134 0.000000 0.003617 0.000000
# 3 -0.004760 -0.002134 0.013936 0.000000 0.010324 0.000000
# 4 0.000000 0.000000 0.000000 0.037789 0.000000 0.000379
# 5 -0.002694 0.003617 0.010324 0.000000 0.037856 0.000000
# 6 0.000000 0.000000 0.000000 0.000379 0.000000 0.028322
#
#
# Mechanical properties :
#
#
# Convention : Reuss Voigt Hill
#
# Bulk Modulus (GPa) = 41.55553 53.37650 47.46602
# Shear Modulus (GPa) = 29.14371 32.81170 30.97771
#
# Velocity S-wave (km/s) = 3.81070 4.04340 3.92877
# Velocity P-wave (km/s) = 6.32991 6.95663 6.65066
#
# Compressibility (1/GPa) = 0.02406418
#
# Stress axis : x y z
#
# Youngs Moduli (GPa) = 89.82897 59.69491 71.75815
#
# Poissons Ratio (x) = 0.11843 0.34156
# Poissons Ratio (y) = 0.17821 0.15314
# Poissons Ratio (z) = 0.42757 0.12739
#
# Static dielectric constant tensor:
#      x y z
#    x 1.705000 0.000000 -0.009900 
#    y 0.000000 1.747700 0.000000 
#    z -0.009900 0.000000 1.716910 
# 
# From -- ./inp_files/186029.got.cif
#   From: 2010.05.17/outbox.cif.g08.bks.cpg/sg15_94_cif.got.tgz:186029.got - 2010.06.03 18:47:42.
