data_PCOD9272588
_publ_section_title
;
Structure prediction by ZEFSAII (Michael W. Deem and Ramdas Pophale) SiO2 
 PCOD9272588
Probable space group: C 2/C
;
_chemical_formula_sum "Si O2"
_cell_formula_units_Z 40
_cell_length_a 9.061003
_cell_length_b 11.083647
_cell_length_c 21.863832
_cell_angle_alpha 90.000000
_cell_angle_beta 48.539438
_cell_angle_gamma 90.000000
_cell_volume 1645.529512
_symmetry_space_group_name_H-M "C 2/C"
_symmetry_group_IT_number 15
_symmetry_cell_setting 'monoclinic'
loop_
_space_group_symop_operation_xyz
x,y,z
-x,y,1/2-z
-x,-y,-z
x,-y,1/2+z
1/2+x,1/2+y,z
1/2-x,1/2+y,1/2-z
1/2-x,1/2-y,-z
1/2+x,1/2-y,1/2+z
loop_
_atom_site_type_symbol
_atom_site_label
_atom_site_fract_x
_atom_site_fract_y
_atom_site_fract_z
Si Si1 0.647699 0.095279 0.427672
Si Si2 0.355493 0.995525 0.703253
Si Si3 0.347267 0.272699 0.539436
Si Si4 0.736381 0.505405 0.866021
Si Si5 0.974396 0.908925 0.343236
O O1 0.620647 0.089845 0.361483
O O2 0.566178 0.216763 0.479584
O O3 0.862068 0.038431 0.378130
O O4 0.500000 0.000000 0.500000
O O5 0.300950 0.939169 0.784221
O O6 0.564664 0.058717 0.658837
O O7 0.163891 0.079697 0.747140
O O8 0.250000 0.250000 0.500000
O O9 0.342724 0.406738 0.566057
O O10 0.189881 0.191827 0.621171
O O11 0.582927 0.599633 0.879974
#
# Coordination Sequence:
#
# PCOD9272588 Si02
#       5
#     8   8   8   8   8
#     4  10  20  37  58  90 121 161 203 260 317 373
#     4   9  18  41  59  83 122 161 207 253 319 373
#     4  11  21  38  61  92 123 159 209 257 320 377
#     4   9  20  38  64  84 122 164 207 258 313 378
#     4   9  21  38  64  85 120 171 203 255 323 375
#
# _framework density 24.308284
#
# number of rings (size 3 to 8) (size 9 to 14) (size 15 to 20)
#    1.200    1.200    2.000    0.600    0.000    1.600 
#   14.400    0.000    8.800    0.000    0.000    0.000 
#    0.000    0.000    0.000    0.000    0.000    0.000 
#
# Total GULP energy -111348.757404 kJ/mol
# GULP energy per Si atom -5567.437870 kJ/mol
# Density = 2.425296 g / cm^3
# Si number density = 24.308284 Si / 1000 Ang^3
#
#
#
# Elastic Constant Matrix: (Units=GPa)
#
#
# Indices 1 2 3 4 5 6 
#
# 1 87.7633 8.5320 31.2627 0.0000 -32.9449 0.0000
# 2 8.5320 52.5366 40.3564 0.0000 -15.1507 0.0000
# 3 31.2627 40.3564 120.5974 0.0000 1.3347 0.0000
# 4 0.0000 0.0000 0.0000 31.3977 0.0000 4.0914
# 5 -32.9449 -15.1507 1.3347 0.0000 52.2680 0.0000
# 6 0.0000 0.0000 0.0000 4.0914 0.0000 25.6642
#
#
#
# Elastic Compliance Matrix: (Units=1/GPa)
#
#
# Indices 1 2 3 4 5 6 
#
# 1 0.018398 0.006351 -0.007046 0.000000 0.013617 0.000000
# 2 0.006351 0.031282 -0.012263 0.000000 0.013384 0.000000
# 3 -0.007046 -0.012263 0.014315 0.000000 -0.008361 0.000000
# 4 0.000000 0.000000 0.000000 0.032525 0.000000 -0.005185
# 5 0.013617 0.013384 -0.008361 0.000000 0.031808 0.000000
# 6 0.000000 0.000000 0.000000 -0.005185 0.000000 0.039791
#
#
# Mechanical properties :
#
#
# Convention : Reuss Voigt Hill
#
# Bulk Modulus (GPa) = 26.25973 46.79995 36.52984
# Shear Modulus (GPa) = 24.18633 33.91573 29.05103
#
# Velocity S-wave (km/s) = 3.15776 3.73933 3.46078
# Velocity P-wave (km/s) = 4.91136 6.15938 5.57043
#
# Compressibility (1/GPa) = 0.03808112
#
# Stress axis : x y z
#
# Youngs Moduli (GPa) = 54.35275 31.96680 69.85864
#
# Poissons Ratio (x) = -0.20303 0.49219
# Poissons Ratio (y) = -0.34521 0.85667
# Poissons Ratio (z) = 0.38294 0.39200
#
# Static dielectric constant tensor:
#      x y z
#    x 2.022810 0.000000 0.018010 
#    y 0.000000 1.981500 0.000000 
#    z 0.018010 0.000000 2.013730 
# 
# From -- ./inp_files/288202.got.cif
#   From: 2010.05.17/outbox.cif.g08.bks.cpg/sg15_145_cif.got.tgz:288202.got - 2010.06.03 18:47:42.
