data_PCOD9272485
_publ_section_title
;
Structure prediction by ZEFSAII (Michael W. Deem and Ramdas Pophale) SiO2 
 PCOD9272485
Probable space group: C 2/C
;
_chemical_formula_sum "Si O2"
_cell_formula_units_Z 64
_cell_length_a 7.498653
_cell_length_b 15.737750
_cell_length_c 23.914946
_cell_angle_alpha 90.000000
_cell_angle_beta 82.648818
_cell_angle_gamma 90.000000
_cell_volume 2799.051484
_symmetry_space_group_name_H-M "C 2/C"
_symmetry_group_IT_number 15
_symmetry_cell_setting 'monoclinic'
loop_
_space_group_symop_operation_xyz
x,y,z
-x,y,1/2-z
-x,-y,-z
x,-y,1/2+z
1/2+x,1/2+y,z
1/2-x,1/2+y,1/2-z
1/2-x,1/2-y,-z
1/2+x,1/2-y,1/2+z
loop_
_atom_site_type_symbol
_atom_site_label
_atom_site_fract_x
_atom_site_fract_y
_atom_site_fract_z
Si Si1 0.787859 0.775121 0.893173
Si Si2 0.724471 0.408714 0.408750
Si Si3 0.778508 0.415247 0.952326
Si Si4 0.879579 0.287752 0.862123
Si Si5 0.165541 0.553444 0.414299
Si Si6 0.464330 0.032639 0.687606
Si Si7 0.832468 0.875996 0.430921
Si Si8 0.612518 0.222139 0.801451
O O1 0.765660 0.686800 0.928454
O O2 0.594291 0.781505 0.866524
O O3 0.804477 0.870041 0.916899
O O4 0.965256 0.755646 0.851282
O O5 0.728577 0.486064 0.451770
O O6 0.858137 0.435339 0.353367
O O7 0.520262 0.404991 0.397338
O O8 0.786378 0.371550 0.891302
O O9 0.992049 0.414379 0.955203
O O10 0.664359 0.365154 0.002371
O O11 0.791817 0.211262 0.902406
O O12 0.800213 0.270231 0.804164
O O13 0.206224 0.457316 0.429780
O O14 0.123900 0.537110 0.349562
O O15 0.500000 0.004855 0.750000
O O16 0.352374 0.120668 0.695511
O O17 0.500000 0.234833 0.750000
#
# Coordination Sequence:
#
# PCOD9272485 Si02
#       8
#     8   8   8   8   8   8   8   8
#     4   9  21  39  55  84 121 149 192 241 289 342
#     4   9  20  37  57  81 116 148 190 246 277 343
#     4  10  21  37  58  84 115 158 195 233 296 344
#     4  10  21  38  61  83 118 156 190 245 293 348
#     4  10  20  37  57  84 116 149 190 244 284 351
#     4   9  18  38  61  80 111 152 189 236 299 347
#     4  11  20  36  59  86 116 152 195 243 289 343
#     4  10  20  38  62  85 113 153 196 241 296 347
#
# _framework density 22.864887
#
# number of rings (size 3 to 8) (size 9 to 14) (size 15 to 20)
#    0.000    2.250    1.250    1.125    1.750    0.500 
#    6.750    1.250    0.000    0.000    0.000    0.000 
#    0.000    0.000    0.000    0.000    0.000    0.000 
#
# Total GULP energy -178181.210275 kJ/mol
# GULP energy per Si atom -5568.162821 kJ/mol
# Density = 2.281285 g / cm^3
# Si number density = 22.864887 Si / 1000 Ang^3
#
#
#
# Elastic Constant Matrix: (Units=GPa)
#
#
# Indices 1 2 3 4 5 6 
#
# 1 44.1850 4.8944 -1.1252 0.0000 0.6749 0.0000
# 2 4.8944 95.0016 -1.9686 0.0000 1.3871 0.0000
# 3 -1.1252 -1.9686 34.8555 0.0000 6.0586 0.0000
# 4 0.0000 0.0000 0.0000 17.7241 0.0000 3.8354
# 5 0.6749 1.3871 6.0586 0.0000 18.7111 0.0000
# 6 0.0000 0.0000 0.0000 3.8354 0.0000 33.0580
#
#
#
# Elastic Compliance Matrix: (Units=1/GPa)
#
#
# Indices 1 2 3 4 5 6 
#
# 1 0.022796 -0.001142 0.000847 0.000000 -0.001012 0.000000
# 2 -0.001142 0.010615 0.000734 0.000000 -0.000983 0.000000
# 3 0.000847 0.000734 0.030489 0.000000 -0.009957 0.000000
# 4 0.000000 0.000000 0.000000 0.057874 0.000000 -0.006715
# 5 -0.001012 -0.000983 -0.009957 0.000000 0.056778 0.000000
# 6 0.000000 0.000000 0.000000 -0.006715 0.000000 0.031029
#
#
# Mechanical properties :
#
#
# Convention : Reuss Voigt Hill
#
# Bulk Modulus (GPa) = 15.43753 19.73812 17.58783
# Shear Modulus (GPa) = 21.71130 25.38139 23.54635
#
# Velocity S-wave (km/s) = 3.08482 3.33537 3.21254
# Velocity P-wave (km/s) = 4.41072 4.84605 4.63350
#
# Compressibility (1/GPa) = 0.06477719
#
# Stress axis : x y z
#
# Youngs Moduli (GPa) = 43.86799 94.21049 32.79818
#
# Poissons Ratio (x) = 0.10759 -0.02779
# Poissons Ratio (y) = 0.05010 -0.02406
# Poissons Ratio (z) = -0.03717 -0.06911
#
# Static dielectric constant tensor:
#      x y z
#    x 1.924780 0.000000 0.080920 
#    y 0.000000 1.919770 0.000000 
#    z 0.080920 0.000000 1.938150 
# 
# From -- ./inp_files/288775.got.cif
#   From: 2010.05.17/outbox.cif.g08.bks.cpg/sg15_145_cif.got.tgz:288775.got - 2010.06.03 18:47:42.
