data_PCOD9272989
_publ_section_title
;
Structure prediction by ZEFSAII (Michael W. Deem and Ramdas Pophale) SiO2 
 PCOD9272989
Probable space group: C 2/C
;
_chemical_formula_sum "Si O2"
_cell_formula_units_Z 56
_cell_length_a 28.009760
_cell_length_b 8.997581
_cell_length_c 19.516139
_cell_angle_alpha 90.000000
_cell_angle_beta 146.552162
_cell_angle_gamma 90.000000
_cell_volume 2710.944368
_symmetry_space_group_name_H-M "C 2/C"
_symmetry_group_IT_number 15
_symmetry_cell_setting 'monoclinic'
loop_
_space_group_symop_operation_xyz
x,y,z
-x,y,1/2-z
-x,-y,-z
x,-y,1/2+z
1/2+x,1/2+y,z
1/2-x,1/2+y,1/2-z
1/2-x,1/2-y,-z
1/2+x,1/2-y,1/2+z
loop_
_atom_site_type_symbol
_atom_site_label
_atom_site_fract_x
_atom_site_fract_y
_atom_site_fract_z
Si Si1 0.219940 0.911009 0.991804
Si Si2 0.815524 0.041034 0.198399
Si Si3 0.528435 0.349777 0.101888
Si Si4 0.194287 0.297132 0.088432
Si Si5 0.615017 0.808998 0.144444
Si Si6 0.575294 0.443922 0.395992
Si Si7 0.352570 0.904734 0.733350
O O1 0.172478 0.977792 0.868220
O O2 0.148565 0.931840 0.966508
O O3 0.250000 0.750000 0.000000
O O4 0.302468 0.009527 0.112743
O O5 0.892715 0.952110 0.327762
O O6 0.725596 0.960603 0.105835
O O7 0.825431 0.208584 0.234758
O O8 0.467346 0.444178 0.079499
O O9 0.573651 0.213481 0.197449
O O10 0.476152 0.271853 0.978327
O O11 0.158191 0.307392 0.121523
O O12 0.278106 0.189957 0.182975
O O13 0.125644 0.214677 0.957265
O O14 0.609398 0.969952 0.171083
O O15 0.500000 0.452665 0.250000
#
# Coordination Sequence:
#
# PCOD9272989 Si02
#       7
#     8   8   8   8   8   8   8
#     4  11  22  39  63  91 121 161 199 248 313 355
#     4  11  21  37  62  88 120 157 205 242 301 370
#     4  10  22  37  61  89 116 161 201 248 301 357
#     4   9  22  35  59  89 115 161 206 246 296 352
#     4  11  20  38  58  85 126 155 202 248 302 349
#     4  10  20  37  62  84 120 154 200 250 298 355
#     4  10  21  37  61  87 122 161 199 253 295 364
#
# _framework density 20.657008999999999
#
# number of rings (size 3 to 8) (size 9 to 14) (size 15 to 20)
#    0.000    1.714    2.857    1.714    2.000    1.714 
#    0.000    0.000   12.571    0.000    0.000    0.000 
#    0.000    0.000    0.000    0.000    0.000    0.000 
#
# Total GULP energy -156105.571282 kJ/mol
# GULP energy per Si atom -5575.198974 kJ/mol
# Density = 2.060999 g / cm^3
# Si number density = 20.657009 Si / 1000 Ang^3
#
#
#
# Elastic Constant Matrix: (Units=GPa)
#
#
# Indices 1 2 3 4 5 6 
#
# 1 51.6677 20.0425 7.4429 0.0000 2.4532 0.0000
# 2 20.0425 88.0550 18.5817 0.0000 2.5794 0.0000
# 3 7.4429 18.5817 75.1824 0.0000 1.2859 0.0000
# 4 0.0000 0.0000 0.0000 25.0572 0.0000 -4.5761
# 5 2.4532 2.5794 1.2859 0.0000 24.6909 0.0000
# 6 0.0000 0.0000 0.0000 -4.5761 0.0000 24.0099
#
#
#
# Elastic Compliance Matrix: (Units=1/GPa)
#
#
# Indices 1 2 3 4 5 6 
#
# 1 0.021356 -0.004615 -0.000946 0.000000 -0.001591 0.000000
# 2 -0.004615 0.013008 -0.002745 0.000000 -0.000757 0.000000
# 3 -0.000946 -0.002745 0.014079 0.000000 -0.000352 0.000000
# 4 0.000000 0.000000 0.000000 0.041348 0.000000 0.007881
# 5 -0.001591 -0.000757 -0.000352 0.000000 0.040756 0.000000
# 6 0.000000 0.000000 0.000000 0.007881 0.000000 0.043151
#
#
# Mechanical properties :
#
#
# Convention : Reuss Voigt Hill
#
# Bulk Modulus (GPa) = 31.41580 34.11546 32.76563
# Shear Modulus (GPa) = 24.88516 26.00746 25.44631
#
# Velocity S-wave (km/s) = 3.47462 3.55211 3.51358
# Velocity P-wave (km/s) = 5.59809 5.77705 5.68828
#
# Compressibility (1/GPa) = 0.03183112
#
# Stress axis : x y z
#
# Youngs Moduli (GPa) = 46.82437 76.87334 71.02666
#
# Poissons Ratio (x) = 0.35475 0.06723
# Poissons Ratio (y) = 0.21608 0.19499
# Poissons Ratio (z) = 0.04432 0.21104
#
# Static dielectric constant tensor:
#      x y z
#    x 1.724980 0.000000 0.009340 
#    y 0.000000 1.761290 0.000000 
#    z 0.009340 0.000000 1.792270 
# 
# From -- ./inp_files/259015.got.cif
#   From: 2010.05.17/outbox.cif.g08.bks.cpg/sg15_130_cif.got.tgz:259015.got - 2010.06.03 18:47:42.
