data_PCOD9272759
_publ_section_title
;
Structure prediction by ZEFSAII (Michael W. Deem and Ramdas Pophale) SiO2 
 PCOD9272759
Probable space group: C 2/C
;
_chemical_formula_sum "Si O2"
_cell_formula_units_Z 56
_cell_length_a 17.403547
_cell_length_b 14.777789
_cell_length_c 12.584401
_cell_angle_alpha 90.000000
_cell_angle_beta 132.815424
_cell_angle_gamma 90.000000
_cell_volume 2374.147438
_symmetry_space_group_name_H-M "C 2/C"
_symmetry_group_IT_number 15
_symmetry_cell_setting 'monoclinic'
loop_
_space_group_symop_operation_xyz
x,y,z
-x,y,1/2-z
-x,-y,-z
x,-y,1/2+z
1/2+x,1/2+y,z
1/2-x,1/2+y,1/2-z
1/2-x,1/2-y,-z
1/2+x,1/2-y,1/2+z
loop_
_atom_site_type_symbol
_atom_site_label
_atom_site_fract_x
_atom_site_fract_y
_atom_site_fract_z
Si Si1 0.705951 0.734328 0.813407
Si Si2 0.822929 0.880874 0.003048
Si Si3 0.428085 0.551567 0.274436
Si Si4 0.638895 0.104718 0.647168
Si Si5 0.057998 0.548813 0.909955
Si Si6 0.961566 0.878651 0.425812
Si Si7 0.752953 0.084775 0.973899
O O1 0.730253 0.839325 0.844577
O O2 0.813792 0.686845 0.876695
O O3 0.608512 0.709056 0.649750
O O4 0.672124 0.687586 0.892948
O O5 0.785327 0.978245 0.006047
O O6 0.930609 0.877989 0.039351
O O7 0.500000 0.510814 0.250000
O O8 0.396155 0.465930 0.318794
O O9 0.505173 0.605260 0.423450
O O10 0.346373 0.617081 0.139159
O O11 0.528328 0.104690 0.605695
O O12 0.616227 0.022716 0.542617
O O13 0.724904 0.098647 0.824039
O O14 0.148910 0.606469 0.941339
O O15 0.000000 0.505876 0.750000
#
# Coordination Sequence:
#
# PCOD9272759 Si02
#       7
#     8   8   8   8   8   8   8
#     4  11  22  41  58  85 130 168 204 254 319 391
#     4  11  23  37  58  89 126 166 201 256 323 387
#     4  11  20  34  65  92 120 151 205 277 305 366
#     4  10  20  37  60  86 124 160 210 262 307 379
#     4   9  19  35  55  88 120 153 205 255 305 374
#     4  11  22  38  58  91 124 160 209 254 316 374
#     4  11  20  36  60  95 123 154 211 266 323 365
#
# _framework density 23.587416000000001
#
# number of rings (size 3 to 8) (size 9 to 14) (size 15 to 20)
#    0.000    1.429    4.286    1.286    4.000    0.000 
#    7.714    0.000    0.000    6.000    0.000    0.000 
#    0.000    0.000    0.000    0.000    0.000    0.000 
#
# Total GULP energy -156108.930323 kJ/mol
# GULP energy per Si atom -5575.318940 kJ/mol
# Density = 2.353373 g / cm^3
# Si number density = 23.587416 Si / 1000 Ang^3
#
#
#
# Elastic Constant Matrix: (Units=GPa)
#
#
# Indices 1 2 3 4 5 6 
#
# 1 109.9269 2.1386 12.9590 0.0000 -18.5797 0.0000
# 2 2.1386 8.6747 2.9213 0.0000 1.9488 0.0000
# 3 12.9590 2.9213 159.0862 0.0000 -8.9488 0.0000
# 4 0.0000 0.0000 0.0000 30.3236 0.0000 7.4772
# 5 -18.5797 1.9488 -8.9488 0.0000 29.2953 0.0000
# 6 0.0000 0.0000 0.0000 7.4772 0.0000 9.6792
#
#
#
# Elastic Compliance Matrix: (Units=1/GPa)
#
#
# Indices 1 2 3 4 5 6 
#
# 1 0.010353 -0.003927 -0.000394 0.000000 0.006707 0.000000
# 2 -0.003927 0.119609 -0.002507 0.000000 -0.011213 0.000000
# 3 -0.000394 -0.002507 0.006471 0.000000 0.001893 0.000000
# 4 0.000000 0.000000 0.000000 0.040738 0.000000 -0.031470
# 5 0.006707 -0.011213 0.001893 0.000000 0.039713 0.000000
# 6 0.000000 0.000000 0.000000 -0.031470 0.000000 0.127626
#
#
# Mechanical properties :
#
#
# Convention : Reuss Voigt Hill
#
# Bulk Modulus (GPa) = 8.14483 34.85839 21.50161
# Shear Modulus (GPa) = 12.52847 31.17088 21.84967
#
# Velocity S-wave (km/s) = 2.30717 3.63919 3.04686
# Velocity P-wave (km/s) = 3.24930 5.69814 4.63825
#
# Compressibility (1/GPa) = 0.12277725
#
# Stress axis : x y z
#
# Youngs Moduli (GPa) = 96.58621 8.36058 154.54649
#
# Poissons Ratio (x) = 0.03283 0.06089
# Poissons Ratio (y) = 0.37926 0.38749
# Poissons Ratio (z) = 0.03805 0.02096
#
# Static dielectric constant tensor:
#      x y z
#    x 1.890080 0.000000 0.008820 
#    y 0.000000 1.901780 0.000000 
#    z 0.008820 0.000000 2.098510 
# 
# From -- ./inp_files/106733.got.cif
#   From: 2010.05.17/outbox.cif.g08.bks.cpg/sg15_54_cif.got.tgz:106733.got - 2010.06.03 18:47:42.
