data_PCOD9272703
_publ_section_title
;
Structure prediction by ZEFSAII (Michael W. Deem and Ramdas Pophale) SiO2 
 PCOD9272703
Probable space group: C 2/C
;
_chemical_formula_sum "Si O2"
_cell_formula_units_Z 56
_cell_length_a 20.240597
_cell_length_b 19.889151
_cell_length_c 7.591218
_cell_angle_alpha 90.000000
_cell_angle_beta 126.179045
_cell_angle_gamma 90.000000
_cell_volume 2466.717461
_symmetry_space_group_name_H-M "C 2/C"
_symmetry_group_IT_number 15
_symmetry_cell_setting 'monoclinic'
loop_
_space_group_symop_operation_xyz
x,y,z
-x,y,1/2-z
-x,-y,-z
x,-y,1/2+z
1/2+x,1/2+y,z
1/2-x,1/2+y,1/2-z
1/2-x,1/2-y,-z
1/2+x,1/2-y,1/2+z
loop_
_atom_site_type_symbol
_atom_site_label
_atom_site_fract_x
_atom_site_fract_y
_atom_site_fract_z
Si Si1 0.609740 0.718621 0.088020
Si Si2 0.079483 0.061183 0.497459
Si Si3 0.933589 0.523432 0.255647
Si Si4 0.344141 0.568539 0.232547
Si Si5 0.779151 0.262998 0.750390
Si Si6 0.672555 0.081321 0.125369
Si Si7 0.436333 0.297141 0.386742
O O1 0.627312 0.640150 0.150106
O O2 0.698741 0.753677 0.241289
O O3 0.585848 0.725749 0.845062
O O4 0.526718 0.732305 0.065964
O O5 0.153748 0.072864 0.475683
O O6 0.066128 0.122064 0.610911
O O7 0.000000 0.061875 0.250000
O O8 0.096491 0.991541 0.618003
O O9 0.859083 0.561753 0.229636
O O10 0.000000 0.567552 0.250000
O O11 0.000000 0.500000 0.500000
O O12 0.895105 0.456760 0.102853
O O13 0.257490 0.552695 0.185211
O O14 0.750000 0.250000 0.500000
O O15 0.808721 0.339195 0.836468
O O16 0.862994 0.222370 0.901549
#
# Coordination Sequence:
#
# PCOD9272703 Si02
#       7
#     8   8   8   8   8   8   8
#     4   9  19  37  60  84 113 158 204 255 304 365
#     4  12  23  35  55  88 122 158 204 244 308 368
#     4   9  19  38  65  91 123 153 206 271 325 384
#     4  11  22  35  58  86 122 159 201 254 311 372
#     4   9  20  39  61  88 124 164 210 253 306 385
#     4  10  20  39  63  92 124 163 206 263 328 382
#     4  10  20  37  60  81 122 159 202 254 304 370
#
# _framework density 22.702235999999999
#
# number of rings (size 3 to 8) (size 9 to 14) (size 15 to 20)
#    0.000    2.000    1.429    2.143    2.000    2.286 
#    5.143    5.000    9.429    0.000    0.000    0.000 
#    0.000    0.000    0.000    0.000    0.000    0.000 
#
# Total GULP energy -155886.781294 kJ/mol
# GULP energy per Si atom -5567.385046 kJ/mol
# Density = 2.265056 g / cm^3
# Si number density = 22.702236 Si / 1000 Ang^3
#
#
#
# Elastic Constant Matrix: (Units=GPa)
#
#
# Indices 1 2 3 4 5 6 
#
# 1 175.4584 5.7628 16.6135 0.0000 40.1452 0.0000
# 2 5.7628 36.9841 11.2668 0.0000 14.0939 0.0000
# 3 16.6135 11.2668 62.5675 0.0000 21.3376 0.0000
# 4 0.0000 0.0000 0.0000 18.6647 0.0000 -2.6526
# 5 40.1452 14.0939 21.3376 0.0000 34.8355 0.0000
# 6 0.0000 0.0000 0.0000 -2.6526 0.0000 27.7626
#
#
#
# Elastic Compliance Matrix: (Units=1/GPa)
#
#
# Indices 1 2 3 4 5 6 
#
# 1 0.008022 0.002590 0.001155 0.000000 -0.011000 0.000000
# 2 0.002590 0.032947 -0.001336 0.000000 -0.015497 0.000000
# 3 0.001155 -0.001336 0.020460 0.000000 -0.013323 0.000000
# 4 0.000000 0.000000 0.000000 0.054315 0.000000 0.005189
# 5 -0.011000 -0.015497 -0.013323 0.000000 0.055813 0.000000
# 6 0.000000 0.000000 0.000000 0.005189 0.000000 0.036516
#
#
# Mechanical properties :
#
#
# Convention : Reuss Voigt Hill
#
# Bulk Modulus (GPa) = 15.09500 38.03292 26.56396
# Shear Modulus (GPa) = 22.18904 32.34369 27.26636
#
# Velocity S-wave (km/s) = 3.12972 3.77860 3.46937
# Velocity P-wave (km/s) = 4.44115 5.98552 5.27021
#
# Compressibility (1/GPa) = 0.06624711
#
# Stress axis : x y z
#
# Youngs Moduli (GPa) = 124.66237 30.35138 48.87553
#
# Poissons Ratio (x) = -0.07861 -0.05644
# Poissons Ratio (y) = -0.32287 0.06529
# Poissons Ratio (z) = -0.14397 0.04055
#
# Static dielectric constant tensor:
#      x y z
#    x 1.965090 0.000000 -0.033230 
#    y 0.000000 1.910100 0.000000 
#    z -0.033230 0.000000 2.019670 
# 
# From -- ./inp_files/57905.got.cif
#   From: 2010.05.17/outbox.cif.g08.bks.cpg/sg15_29_cif.got.tgz:57905.got - 2010.06.03 18:47:42.
