data_PCOD9272967
_publ_section_title
;
Structure prediction by ZEFSAII (Michael W. Deem and Ramdas Pophale) SiO2 
 PCOD9272967
Probable space group: C 2/C
;
_chemical_formula_sum "Si O2"
_cell_formula_units_Z 40
_cell_length_a 24.007881
_cell_length_b 7.511909
_cell_length_c 16.657085
_cell_angle_alpha 90.000000
_cell_angle_beta 39.706826
_cell_angle_gamma 90.000000
_cell_volume 1919.148103
_symmetry_space_group_name_H-M "C 2/C"
_symmetry_group_IT_number 15
_symmetry_cell_setting 'monoclinic'
loop_
_space_group_symop_operation_xyz
x,y,z
-x,y,1/2-z
-x,-y,-z
x,-y,1/2+z
1/2+x,1/2+y,z
1/2-x,1/2+y,1/2-z
1/2-x,1/2-y,-z
1/2+x,1/2-y,1/2+z
loop_
_atom_site_type_symbol
_atom_site_label
_atom_site_fract_x
_atom_site_fract_y
_atom_site_fract_z
Si Si1 0.255424 0.487541 0.650607
Si Si2 0.336539 0.876283 0.092972
Si Si3 0.160130 0.269323 0.149673
Si Si4 0.595450 0.222885 0.555288
Si Si5 0.448800 0.334472 0.595172
O O1 0.286442 0.286750 0.607529
O O2 0.223073 0.520950 0.776521
O O3 0.177329 0.546881 0.678186
O O4 0.334938 0.625055 0.548502
O O5 0.412483 0.785150 0.062815
O O6 0.368975 0.023942 0.996266
O O7 0.089858 0.255443 0.157315
O O8 0.133236 0.135667 0.252151
O O9 0.250000 0.250000 0.000000
O O10 0.516451 0.240373 0.580439
O O11 0.500000 0.500000 0.500000
#
# Coordination Sequence:
#
# PCOD9272967 Si02
#       5
#     8   8   8   8   8
#     4  10  20  37  61  94 123 171 221 261 320 391
#     4  11  21  37  64  94 125 170 222 269 319 392
#     4   9  22  40  64  92 130 170 210 268 330 387
#     4  11  21  38  64  89 130 166 214 274 326 381
#     4  11  22  39  67  95 127 172 217 268 330 394
#
# _framework density 20.842580999999999
#
# number of rings (size 3 to 8) (size 9 to 14) (size 15 to 20)
#    0.000    1.600    4.000    1.200    0.000    0.800 
#    0.000    0.000   22.000    0.000    0.000    0.000 
#    0.000    0.000    0.000    0.000    0.000    0.000 
#
# Total GULP energy -111444.675270 kJ/mol
# GULP energy per Si atom -5572.233764 kJ/mol
# Density = 2.079514 g / cm^3
# Si number density = 20.842581 Si / 1000 Ang^3
#
#
#
# Elastic Constant Matrix: (Units=GPa)
#
#
# Indices 1 2 3 4 5 6 
#
# 1 83.4425 -1.2492 6.0055 0.0023 2.7294 -0.0030
# 2 -1.2492 99.2714 32.0590 0.0023 5.8054 -0.0049
# 3 6.0055 32.0590 74.1940 0.0005 11.0095 -0.0012
# 4 0.0023 0.0023 0.0005 20.0782 -0.0012 -11.2715
# 5 2.7294 5.8054 11.0095 -0.0012 34.2990 0.0015
# 6 -0.0030 -0.0049 -0.0012 -11.2715 0.0015 30.6129
#
#
#
# Elastic Compliance Matrix: (Units=1/GPa)
#
#
# Indices 1 2 3 4 5 6 
#
# 1 0.012096 0.000553 -0.001114 -0.000001 -0.000698 0.000001
# 2 0.000553 0.011737 -0.005056 0.000000 -0.000408 0.000002
# 3 -0.001114 -0.005056 0.016394 0.000000 -0.004318 0.000000
# 4 -0.000001 0.000000 0.000000 0.062782 0.000001 0.023116
# 5 -0.000698 -0.000408 -0.004318 0.000001 0.030666 -0.000001
# 6 0.000001 0.000002 0.000000 0.023116 -0.000001 0.041177
#
#
# Mechanical properties :
#
#
# Convention : Reuss Voigt Hill
#
# Bulk Modulus (GPa) = 34.49240 36.72649 35.60944
# Shear Modulus (GPa) = 25.54284 31.67085 28.60685
#
# Velocity S-wave (km/s) = 3.50453 3.90234 3.70877
# Velocity P-wave (km/s) = 5.74113 6.16145 5.95500
#
# Compressibility (1/GPa) = 0.02899189
#
# Stress axis : x y z
#
# Youngs Moduli (GPa) = 82.67454 85.20124 60.99926
#
# Poissons Ratio (x) = -0.04711 0.06797
# Poissons Ratio (y) = -0.04571 0.30840
# Poissons Ratio (z) = 0.09213 0.43076
#
# Static dielectric constant tensor:
#      x y z
#    x 1.818450 0.000000 -0.088520 
#    y 0.000000 1.699310 0.000000 
#    z -0.088520 0.000000 1.905420 
# 
# From -- ./inp_files/171647.got.cif
#   From: 2010.05.17/outbox.cif.g08.bks.cpg/sg15_86_cif.got.tgz:171647.got - 2010.06.03 18:47:42.
