data_PCOD9272358
_publ_section_title
;
Structure prediction by ZEFSAII (Michael W. Deem and Ramdas Pophale) SiO2 
 PCOD9272358
Probable space group: C 2/C
;
_chemical_formula_sum "Si O2"
_cell_formula_units_Z 56
_cell_length_a 25.174408
_cell_length_b 14.301023
_cell_length_c 10.068340
_cell_angle_alpha 90.000000
_cell_angle_beta 61.112878
_cell_angle_gamma 90.000000
_cell_volume 3173.778906
_symmetry_space_group_name_H-M "C 2/C"
_symmetry_group_IT_number 15
_symmetry_cell_setting 'monoclinic'
loop_
_space_group_symop_operation_xyz
x,y,z
-x,y,1/2-z
-x,-y,-z
x,-y,1/2+z
1/2+x,1/2+y,z
1/2-x,1/2+y,1/2-z
1/2-x,1/2-y,-z
1/2+x,1/2-y,1/2+z
loop_
_atom_site_type_symbol
_atom_site_label
_atom_site_fract_x
_atom_site_fract_y
_atom_site_fract_z
Si Si1 0.327748 0.692686 0.308684
Si Si2 0.956531 0.504356 0.179947
Si Si3 0.255317 0.640028 0.661128
Si Si4 0.429694 0.200385 0.819203
Si Si5 0.193775 0.187116 0.618195
Si Si6 0.734821 0.424211 0.832297
Si Si7 0.631680 0.161278 0.320547
O O1 0.293666 0.669345 0.486820
O O2 0.300210 0.787094 0.274892
O O3 0.394571 0.723620 0.272882
O O4 0.309453 0.607625 0.233814
O O5 0.929647 0.402692 0.251046
O O6 0.904245 0.577088 0.205227
O O7 0.000000 0.533022 0.250000
O O8 0.000000 0.500000 0.000000
O O9 0.291711 0.653404 0.752403
O O10 0.243143 0.530053 0.675792
O O11 0.500000 0.225263 0.750000
O O12 0.398830 0.188611 0.002153
O O13 0.250000 0.250000 0.500000
O O14 0.196701 0.104675 0.508920
O O15 0.136266 0.253881 0.709060
O O16 0.798234 0.367918 0.736562
#
# Coordination Sequence:
#
# PCOD9272358 Si02
#       7
#     8   8   8   8   8   8   8
#     4  11  21  38  62  90 118 163 209 241 308 382
#     4  11  22  38  58  90 124 164 211 241 299 377
#     4  11  20  37  60  88 126 156 197 247 312 369
#     4  11  22  39  60  84 122 166 205 246 299 363
#     4  10  20  37  52  85 124 152 191 249 302 354
#     4  11  23  37  61  95 120 159 199 257 315 358
#     4  11  20  39  57  83 131 157 190 259 297 365
#
# _framework density 17.644580000000001
#
# number of rings (size 3 to 8) (size 9 to 14) (size 15 to 20)
#    0.000    1.143    7.143    2.571    0.000    3.429 
#    0.000    0.000    0.000    0.857    0.000    0.000 
#    0.000    0.000    0.000    0.000    0.000    0.000 
#
# Total GULP energy -155993.441531 kJ/mol
# GULP energy per Si atom -5571.194340 kJ/mol
# Density = 1.760442 g / cm^3
# Si number density = 17.644580 Si / 1000 Ang^3
#
#
#
# Elastic Constant Matrix: (Units=GPa)
#
#
# Indices 1 2 3 4 5 6 
#
# 1 88.5944 8.4347 22.5571 0.0000 3.3631 0.0000
# 2 8.4347 43.8357 16.7396 0.0000 -7.9272 0.0000
# 3 22.5571 16.7396 98.0663 0.0000 8.2590 0.0000
# 4 0.0000 0.0000 0.0000 13.2906 0.0000 1.3714
# 5 3.3631 -7.9272 8.2590 0.0000 29.1528 0.0000
# 6 0.0000 0.0000 0.0000 1.3714 0.0000 36.4407
#
#
#
# Elastic Compliance Matrix: (Units=1/GPa)
#
#
# Indices 1 2 3 4 5 6 
#
# 1 0.012099 -0.001616 -0.002410 0.000000 -0.001152 0.000000
# 2 -0.001616 0.026591 -0.004909 0.000000 0.008808 0.000000
# 3 -0.002410 -0.004909 0.011964 0.000000 -0.004446 0.000000
# 4 0.000000 0.000000 0.000000 0.075535 0.000000 -0.002843
# 5 -0.001152 0.008808 -0.004446 0.000000 0.038090 0.000000
# 6 0.000000 0.000000 0.000000 -0.002843 0.000000 0.027549
#
#
# Mechanical properties :
#
#
# Convention : Reuss Voigt Hill
#
# Bulk Modulus (GPa) = 30.50343 36.21769 33.36056
# Shear Modulus (GPa) = 22.66296 27.96114 25.31205
#
# Velocity S-wave (km/s) = 3.58776 3.98513 3.79166
# Velocity P-wave (km/s) = 5.87264 6.46110 6.17389
#
# Compressibility (1/GPa) = 0.03278320
#
# Stress axis : x y z
#
# Youngs Moduli (GPa) = 82.65414 37.60701 83.58447
#
# Poissons Ratio (x) = 0.06077 0.20144
# Poissons Ratio (y) = 0.13357 0.41032
# Poissons Ratio (z) = 0.19920 0.18461
#
# Static dielectric constant tensor:
#      x y z
#    x 1.612520 0.000000 0.019920 
#    y 0.000000 1.686740 0.000000 
#    z 0.019920 0.000000 1.609540 
# 
# From -- ./inp_files/66153.got.cif
#   From: 2010.05.17/outbox.cif.g08.bks.cpg/sg15_34_cif.got.tgz:66153.got - 2010.06.03 18:47:42.
