data_PCOD9272783
_publ_section_title
;
Structure prediction by ZEFSAII (Michael W. Deem and Ramdas Pophale) SiO2 
 PCOD9272783
Probable space group: C 2/C
;
_chemical_formula_sum "Si O2"
_cell_formula_units_Z 52
_cell_length_a 22.845743
_cell_length_b 14.753692
_cell_length_c 8.117966
_cell_angle_alpha 90.000000
_cell_angle_beta 59.113909
_cell_angle_gamma 90.000000
_cell_volume 2348.207377
_symmetry_space_group_name_H-M "C 2/C"
_symmetry_group_IT_number 15
_symmetry_cell_setting 'monoclinic'
loop_
_space_group_symop_operation_xyz
x,y,z
-x,y,1/2-z
-x,-y,-z
x,-y,1/2+z
1/2+x,1/2+y,z
1/2-x,1/2+y,1/2-z
1/2-x,1/2-y,-z
1/2+x,1/2-y,1/2+z
loop_
_atom_site_type_symbol
_atom_site_label
_atom_site_fract_x
_atom_site_fract_y
_atom_site_fract_z
Si Si1 0.459445 0.717684 0.636620
Si Si2 0.755287 0.477396 0.786572
Si Si3 0.096662 0.596162 0.349701
Si Si4 0.427455 0.369962 0.710027
Si Si5 0.895070 0.055178 0.894192
Si Si6 0.725647 0.647708 0.005412
Si Si7 0.500000 0.019835 0.750000
O O1 0.500000 0.736673 0.750000
O O2 0.407068 0.798334 0.684429
O O3 0.512235 0.700671 0.411149
O O4 0.419828 0.624567 0.721561
O O5 0.827734 0.444645 0.753067
O O6 0.745799 0.419982 0.629886
O O7 0.686491 0.453123 0.986805
O O8 0.751772 0.588245 0.809514
O O9 0.055696 0.579964 0.577066
O O10 0.047151 0.543798 0.294804
O O11 0.432018 0.460728 0.809910
O O12 0.415177 0.406603 0.542131
O O13 0.355491 0.334949 0.879251
O O14 0.750000 0.750000 0.000000
#
# Coordination Sequence:
#
# PCOD9272783 Si02
#       7
#     8   8   8   8   8   8   4
#     4  10  20  37  60  88 118 165 204 250 320 381
#     4  10  22  42  64  96 127 167 216 269 323 387
#     4  11  22  42  61  87 125 159 212 257 315 385
#     4   9  19  37  62  85 123 158 207 255 322 371
#     4   9  19  38  58  88 120 156 200 260 317 372
#     4  10  22  44  67  96 131 174 215 272 326 389
#     4  10  24  40  60  82 116 164 196 258 308 360
#
# _framework density 22.144551
#
# number of rings (size 3 to 8) (size 9 to 14) (size 15 to 20)
#    0.000    2.154    0.769    1.385    0.000    4.308 
#   24.923    0.000    0.000    0.000    0.000    0.000 
#    0.000    0.000    0.000    0.000    0.000    0.000 
#
# Total GULP energy -145006.396667 kJ/mol
# GULP energy per Si atom -5577.169103 kJ/mol
# Density = 2.209415 g / cm^3
# Si number density = 22.144551 Si / 1000 Ang^3
#
#
#
# Elastic Constant Matrix: (Units=GPa)
#
#
# Indices 1 2 3 4 5 6 
#
# 1 84.5959 12.5302 42.4025 0.0000 -33.7407 0.0000
# 2 12.5302 88.3712 29.6947 0.0000 -1.8409 0.0000
# 3 42.4025 29.6947 73.1380 0.0000 -16.0462 0.0000
# 4 0.0000 0.0000 0.0000 -9.6789 0.0000 -25.2287
# 5 -33.7407 -1.8409 -16.0462 0.0000 39.0480 0.0000
# 6 0.0000 0.0000 0.0000 -25.2287 0.0000 13.4405
#
#
#
# Elastic Compliance Matrix: (Units=1/GPa)
#
#
# Indices 1 2 3 4 5 6 
#
# 1 0.023162 0.000450 -0.010129 0.000000 0.015873 0.000000
# 2 0.000450 0.013219 -0.005941 0.000000 -0.001430 0.000000
# 3 -0.010129 -0.005941 0.021955 0.000000 -0.000010 0.000000
# 4 0.000000 0.000000 0.000000 -0.017533 0.000000 -0.032911
# 5 0.015873 -0.001430 -0.000010 0.000000 0.039253 0.000000
# 6 0.000000 0.000000 0.000000 -0.032911 0.000000 0.012626
#
#
# Mechanical properties :
#
#
# Convention : Reuss Voigt Hill
#
# Bulk Modulus (GPa) = 36.90646 46.15110 41.52878
# Shear Modulus (GPa) = 37.60693 19.32711 28.46702
#
# Velocity S-wave (km/s) = 4.12545 2.95747 3.58929
# Velocity P-wave (km/s) = 6.27653 5.70511 5.99763
#
# Compressibility (1/GPa) = 0.02709553
#
# Stress axis : x y z
#
# Youngs Moduli (GPa) = 43.17429 75.64998 45.54764
#
# Poissons Ratio (x) = -0.03404 0.46134
# Poissons Ratio (y) = -0.01943 0.27062
# Poissons Ratio (z) = 0.43730 0.44947
#
# Static dielectric constant tensor:
#      x y z
#    x 1.902390 0.000000 0.063590 
#    y 0.000000 1.818870 0.000000 
#    z 0.063590 0.000000 1.844350 
# 
# From -- ./inp_files/66132.got.cif
#   From: 2010.05.17/outbox.cif.g08.bks.cpg/sg15_34_cif.got.tgz:66132.got - 2010.06.03 18:47:42.
