data_PCOD9272713
_publ_section_title
;
Structure prediction by ZEFSAII (Michael W. Deem and Ramdas Pophale) SiO2 
 PCOD9272713
Probable space group: C 2/C
;
_chemical_formula_sum "Si O2"
_cell_formula_units_Z 44
_cell_length_a 17.155061
_cell_length_b 7.285980
_cell_length_c 19.115203
_cell_angle_alpha 90.000000
_cell_angle_beta 72.376314
_cell_angle_gamma 90.000000
_cell_volume 2277.099167
_symmetry_space_group_name_H-M "C 2/C"
_symmetry_group_IT_number 15
_symmetry_cell_setting 'monoclinic'
loop_
_space_group_symop_operation_xyz
x,y,z
-x,y,1/2-z
-x,-y,-z
x,-y,1/2+z
1/2+x,1/2+y,z
1/2-x,1/2+y,1/2-z
1/2-x,1/2-y,-z
1/2+x,1/2-y,1/2+z
loop_
_atom_site_type_symbol
_atom_site_label
_atom_site_fract_x
_atom_site_fract_y
_atom_site_fract_z
Si Si1 0.790289 0.547798 0.161610
Si Si2 0.546662 0.310397 0.973136
Si Si3 0.681700 0.097613 0.689815
Si Si4 0.021148 0.461746 0.897466
Si Si5 0.000000 0.545984 0.750000
Si Si6 0.262550 0.298267 0.577550
O O1 0.737112 0.726246 0.165727
O O2 0.795492 0.494298 0.241918
O O3 0.883761 0.578736 0.111678
O O4 0.752546 0.381788 0.127832
O O5 0.642258 0.352892 0.936472
O O6 0.512642 0.178576 0.919797
O O7 0.500000 0.500000 0.000000
O O8 0.534775 0.171113 0.041628
O O9 0.586112 0.149492 0.719903
O O10 0.702587 0.954556 0.622819
O O11 0.007239 0.432570 0.819478
O O12 0.250000 0.250000 0.500000
#
# Coordination Sequence:
#
# PCOD9272713 Si02
#       6
#     8   8   8   8   4   8
#     4  10  21  38  62  83 115 165 199 235 298 359
#     4  10  20  37  60  83 116 156 194 230 294 354
#     4  11  21  40  61  84 120 158 199 245 295 355
#     4   9  20  38  56  84 118 152 191 242 290 344
#     4  10  22  38  58  86 120 150 194 252 294 332
#     4  11  23  37  60  92 119 151 202 246 292 352
#
# _framework density 19.322831000000001
#
# number of rings (size 3 to 8) (size 9 to 14) (size 15 to 20)
#    0.000    1.818    1.818    2.182    0.000    2.182 
#    0.000    1.818    0.000    0.000    0.000    0.000 
#    0.000    0.000    0.000    0.000    0.000    0.000 
#
# Total GULP energy -122770.215858 kJ/mol
# GULP energy per Si atom -5580.464357 kJ/mol
# Density = 1.927885 g / cm^3
# Si number density = 19.322831 Si / 1000 Ang^3
#
#
#
# Elastic Constant Matrix: (Units=GPa)
#
#
# Indices 1 2 3 4 5 6 
#
# 1 57.8461 40.9987 22.3483 0.0000 -6.8607 0.0000
# 2 40.9987 83.2220 34.4566 0.0000 -8.6952 -0.0001
# 3 22.3483 34.4566 108.6852 0.0000 6.4453 0.0000
# 4 0.0000 0.0000 0.0000 26.8123 0.0000 -10.4407
# 5 -6.8607 -8.6952 6.4453 0.0000 35.7050 0.0000
# 6 0.0000 -0.0001 0.0000 -10.4407 0.0000 19.2496
#
#
#
# Elastic Compliance Matrix: (Units=1/GPa)
#
#
# Indices 1 2 3 4 5 6 
#
# 1 0.026992 -0.012287 -0.001804 0.000000 0.002520 0.000000
# 2 -0.012287 0.020079 -0.004032 0.000000 0.003257 0.000000
# 3 -0.001804 -0.004032 0.011047 0.000000 -0.003323 0.000000
# 4 0.000000 0.000000 0.000000 0.047283 0.000000 0.025645
# 5 0.002520 0.003257 -0.003323 0.000000 0.029884 0.000000
# 6 0.000000 0.000000 0.000000 0.025645 0.000000 0.065859
#
#
# Mechanical properties :
#
#
# Convention : Reuss Voigt Hill
#
# Bulk Modulus (GPa) = 45.72282 49.48450 47.60366
# Shear Modulus (GPa) = 20.43476 26.48334 23.45905
#
# Velocity S-wave (km/s) = 3.25552 3.70614 3.48811
# Velocity P-wave (km/s) = 6.15184 6.63166 6.39625
#
# Compressibility (1/GPa) = 0.02187092
#
# Stress axis : x y z
#
# Youngs Moduli (GPa) = 37.04853 49.80350 90.51991
#
# Poissons Ratio (x) = 0.61193 0.16332
# Poissons Ratio (y) = 0.45521 0.36500
# Poissons Ratio (z) = 0.06684 0.20082
#
# Static dielectric constant tensor:
#      x y z
#    x 1.681660 0.000000 -0.001940 
#    y 0.000000 1.648260 0.000000 
#    z -0.001940 0.000000 1.703260 
# 
# From -- ./inp_files/246400.got.cif
#   From: 2010.05.17/outbox.cif.g08.bks.cpg/sg15_124_cif.got.tgz:246400.got - 2010.06.03 18:47:42.
