data_PCOD9272505
_publ_section_title
;
Structure prediction by ZEFSAII (Michael W. Deem and Ramdas Pophale) SiO2 
 PCOD9272505
Probable space group: C 2/C
;
_chemical_formula_sum "Si O2"
_cell_formula_units_Z 64
_cell_length_a 26.476628
_cell_length_b 21.727887
_cell_length_c 18.447981
_cell_angle_alpha 90.000000
_cell_angle_beta 162.190203
_cell_angle_gamma 90.000000
_cell_volume 3246.003649
_symmetry_space_group_name_H-M "C 2/C"
_symmetry_group_IT_number 15
_symmetry_cell_setting 'monoclinic'
loop_
_space_group_symop_operation_xyz
x,y,z
-x,y,1/2-z
-x,-y,-z
x,-y,1/2+z
1/2+x,1/2+y,z
1/2-x,1/2+y,1/2-z
1/2-x,1/2-y,-z
1/2+x,1/2-y,1/2+z
loop_
_atom_site_type_symbol
_atom_site_label
_atom_site_fract_x
_atom_site_fract_y
_atom_site_fract_z
Si Si1 0.523302 0.862755 0.607910
Si Si2 0.039346 0.143416 0.133455
Si Si3 0.336999 0.848984 0.855888
Si Si4 0.264387 0.928382 0.340943
Si Si5 0.447093 0.753124 0.258976
Si Si6 0.679011 0.063063 0.029807
Si Si7 0.034355 0.774261 0.482591
Si Si8 0.326421 0.820401 0.540874
O O1 0.606081 0.872822 0.643924
O O2 0.408694 0.917908 0.479208
O O3 0.423838 0.797875 0.462762
O O4 0.647171 0.846737 0.842799
O O5 0.994700 0.184156 0.141461
O O6 0.208509 0.105673 0.367970
O O7 0.052149 0.193757 0.085651
O O8 0.903281 0.094153 0.924830
O O9 0.319992 0.902420 0.891636
O O10 0.164700 0.811984 0.612924
O O11 0.466468 0.801057 0.068547
O O12 0.304277 0.878207 0.457128
O O13 0.255935 0.994839 0.365091
O O14 0.500000 0.769797 0.250000
O O15 0.250000 0.750000 0.000000
O O16 0.500000 0.058467 0.750000
O O17 0.842826 0.782391 0.197928
O O18 0.500000 0.790186 0.750000
#
# Coordination Sequence:
#
# PCOD9272505 Si02
#       8
#     8   8   8   8   8   8   8   8
#     4  11  21  35  59  86 124 159 201 252 308 370
#     4  10  21  39  64  91 116 162 207 254 313 376
#     4  11  24  37  59  91 123 165 201 254 326 379
#     4  10  22  40  64  84 120 162 211 252 304 373
#     4  12  24  40  65  95 136 167 207 264 329 391
#     4  11  22  42  62  88 118 159 212 258 306 377
#     4  10  20  37  57  87 129 156 199 252 312 384
#     4   9  20  36  58  89 116 163 209 249 306 367
#
# _framework density 19.716552
#
# number of rings (size 3 to 8) (size 9 to 14) (size 15 to 20)
#    0.000    1.500    1.250    5.250    5.250    1.000 
#    0.000    0.000    0.000    0.000    0.000    0.000 
#    0.000    0.000    0.000    0.000    0.000    0.000 
#
# Total GULP energy -178747.201825 kJ/mol
# GULP energy per Si atom -5585.850057 kJ/mol
# Density = 1.967168 g / cm^3
# Si number density = 19.716552 Si / 1000 Ang^3
#
#
#
# Elastic Constant Matrix: (Units=GPa)
#
#
# Indices 1 2 3 4 5 6 
#
# 1 75.5911 -20.1537 -0.1757 0.0000 -2.3496 0.0000
# 2 -20.1537 47.2593 6.0195 0.0000 3.2305 0.0000
# 3 -0.1757 6.0195 94.5485 0.0000 3.7896 0.0000
# 4 0.0000 0.0000 0.0000 19.6702 0.0000 5.2686
# 5 -2.3496 3.2305 3.7896 0.0000 15.7103 0.0000
# 6 0.0000 0.0000 0.0000 5.2686 0.0000 21.8863
#
#
#
# Elastic Compliance Matrix: (Units=1/GPa)
#
#
# Indices 1 2 3 4 5 6 
#
# 1 0.014956 0.006361 -0.000418 0.000000 0.001030 0.000000
# 2 0.006361 0.024303 -0.001387 0.000000 -0.003712 0.000000
# 3 -0.000418 -0.001387 0.010759 0.000000 -0.002373 0.000000
# 4 0.000000 0.000000 0.000000 0.054342 0.000000 -0.013082
# 5 0.001030 -0.003712 -0.002373 0.000000 0.065142 0.000000
# 6 0.000000 0.000000 0.000000 -0.013082 0.000000 0.048840
#
#
# Mechanical properties :
#
#
# Convention : Reuss Voigt Hill
#
# Bulk Modulus (GPa) = 16.91203 20.97546 18.94374
# Shear Modulus (GPa) = 21.83976 26.90062 24.37019
#
# Velocity S-wave (km/s) = 3.33180 3.69774 3.51953
# Velocity P-wave (km/s) = 4.83709 5.37519 5.11322
#
# Compressibility (1/GPa) = 0.05912952
#
# Stress axis : x y z
#
# Youngs Moduli (GPa) = 66.86278 41.14757 92.94382
#
# Poissons Ratio (x) = -0.26173 0.03889
# Poissons Ratio (y) = -0.42531 0.12888
# Poissons Ratio (z) = 0.02798 0.05706
#
# Static dielectric constant tensor:
#      x y z
#    x 1.718940 0.000000 0.019880 
#    y 0.000000 1.675600 0.000000 
#    z 0.019880 0.000000 1.732930 
# 
# From -- ./inp_files/223166.got.cif
#   From: 2010.05.17/outbox.cif.g08.bks.cpg/sg15_112_cif.got.tgz:223166.got - 2010.06.03 18:47:42.
