data_PCOD9272696
_publ_section_title
;
Structure prediction by ZEFSAII (Michael W. Deem and Ramdas Pophale) SiO2 
 PCOD9272696
Probable space group: C 2/C
;
_chemical_formula_sum "Si O2"
_cell_formula_units_Z 56
_cell_length_a 29.662186
_cell_length_b 13.954104
_cell_length_c 12.454302
_cell_angle_alpha 90.000000
_cell_angle_beta 33.079786
_cell_angle_gamma 90.000000
_cell_volume 2813.604883
_symmetry_space_group_name_H-M "C 2/C"
_symmetry_group_IT_number 15
_symmetry_cell_setting 'monoclinic'
loop_
_space_group_symop_operation_xyz
x,y,z
-x,y,1/2-z
-x,-y,-z
x,-y,1/2+z
1/2+x,1/2+y,z
1/2-x,1/2+y,1/2-z
1/2-x,1/2-y,-z
1/2+x,1/2-y,1/2+z
loop_
_atom_site_type_symbol
_atom_site_label
_atom_site_fract_x
_atom_site_fract_y
_atom_site_fract_z
Si Si1 0.394483 0.608833 0.207588
Si Si2 0.168072 0.823929 0.449007
Si Si3 0.441522 0.905118 0.629591
Si Si4 0.599293 0.875904 0.025881
Si Si5 0.052956 0.270880 0.547793
Si Si6 0.953682 0.947074 0.944832
Si Si7 0.335999 0.919390 0.044071
O O1 0.333378 0.631681 0.427701
O O2 0.480851 0.596385 0.101348
O O3 0.394272 0.695238 0.123622
O O4 0.393445 0.514776 0.134619
O O5 0.145211 0.711428 0.494248
O O6 0.095543 0.866270 0.519723
O O7 0.250517 0.864166 0.229892
O O8 0.404408 0.866024 0.594184
O O9 0.495642 0.822443 0.575498
O O10 0.500000 0.000000 0.500000
O O11 0.368003 0.924323 0.858861
O O12 0.500000 0.885658 0.250000
O O13 0.651410 0.972136 0.942489
O O14 0.101992 0.355157 0.508800
O O15 0.000000 0.224529 0.750000
O O16 0.000000 0.997720 0.750000
#
# Coordination Sequence:
#
# PCOD9272696 Si02
#       7
#     8   8   8   8   8   8   8
#     4  10  20  37  65  85 119 166 210 260 311 379
#     4  11  25  39  59  96 128 160 211 264 325 389
#     4  11  20  39  67  89 117 166 216 272 307 370
#     4  12  22  42  71  91 121 173 222 262 307 391
#     4  10  20  37  59  94 120 157 219 269 310 376
#     4   9  19  39  59  87 119 165 215 255 308 383
#     4  11  25  39  57  95 132 159 209 268 328 376
#
# _framework density 19.903292
#
# number of rings (size 3 to 8) (size 9 to 14) (size 15 to 20)
#    0.000    1.429    2.857    3.857    0.000    3.429 
#    0.000    2.857    0.000    0.000    0.000    0.000 
#    0.000    0.000    0.000    0.000    0.000    0.000 
#
# Total GULP energy -156047.608825 kJ/mol
# GULP energy per Si atom -5573.128887 kJ/mol
# Density = 1.985799 g / cm^3
# Si number density = 19.903292 Si / 1000 Ang^3
#
#
#
# Elastic Constant Matrix: (Units=GPa)
#
#
# Indices 1 2 3 4 5 6 
#
# 1 47.0289 3.4118 6.4156 0.0000 24.2672 0.0000
# 2 3.4118 83.2641 14.8131 0.0000 2.1905 0.0000
# 3 6.4156 14.8131 76.1562 0.0000 12.7195 0.0000
# 4 0.0000 0.0000 0.0000 21.3353 0.0000 1.3096
# 5 24.2672 2.1905 12.7195 0.0000 36.0753 0.0000
# 6 0.0000 0.0000 0.0000 1.3096 0.0000 2.3048
#
#
#
# Elastic Compliance Matrix: (Units=1/GPa)
#
#
# Indices 1 2 3 4 5 6 
#
# 1 0.032710 -0.000959 0.001165 0.000000 -0.022356 0.000000
# 2 -0.000959 0.012469 -0.002471 0.000000 0.000760 0.000000
# 3 0.001165 -0.002471 0.014471 0.000000 -0.005736 0.000000
# 4 0.000000 0.000000 0.000000 0.048565 0.000000 -0.027594
# 5 -0.022356 0.000760 -0.005736 0.000000 0.044734 0.000000
# 6 0.000000 0.000000 0.000000 -0.027594 0.000000 0.449565
#
#
# Mechanical properties :
#
#
# Convention : Reuss Voigt Hill
#
# Bulk Modulus (GPa) = 18.14268 28.41446 23.27857
# Shear Modulus (GPa) = 7.99463 24.06363 16.02913
#
# Velocity S-wave (km/s) = 2.00635 3.48088 2.84095
# Velocity P-wave (km/s) = 3.80821 5.51930 4.74158
#
# Compressibility (1/GPa) = 0.05511865
#
# Stress axis : x y z
#
# Youngs Moduli (GPa) = 30.57167 80.19899 69.10137
#
# Poissons Ratio (x) = 0.07695 -0.08050
# Poissons Ratio (y) = 0.02933 0.17078
# Poissons Ratio (z) = -0.03561 0.19820
#
# Static dielectric constant tensor:
#      x y z
#    x 1.465200 0.000000 0.099620 
#    y 0.000000 1.767960 0.000000 
#    z 0.099620 0.000000 1.720600 
# 
# From -- ./inp_files/126981.got.cif
#   From: 2010.05.17/outbox.cif.g08.bks.cpg/sg15_64_cif.got.tgz:126981.got - 2010.06.03 18:47:42.
