data_PCOD9272770
_publ_section_title
;
Structure prediction by ZEFSAII (Michael W. Deem and Ramdas Pophale) SiO2 
 PCOD9272770
Probable space group: C 2/C
;
_chemical_formula_sum "Si O2"
_cell_formula_units_Z 64
_cell_length_a 30.850615
_cell_length_b 12.068868
_cell_length_c 21.015158
_cell_angle_alpha 90.000000
_cell_angle_beta 160.221135
_cell_angle_gamma 90.000000
_cell_volume 2647.778235
_symmetry_space_group_name_H-M "C 2/C"
_symmetry_group_IT_number 15
_symmetry_cell_setting 'monoclinic'
loop_
_space_group_symop_operation_xyz
x,y,z
-x,y,1/2-z
-x,-y,-z
x,-y,1/2+z
1/2+x,1/2+y,z
1/2-x,1/2+y,1/2-z
1/2-x,1/2-y,-z
1/2+x,1/2-y,1/2+z
loop_
_atom_site_type_symbol
_atom_site_label
_atom_site_fract_x
_atom_site_fract_y
_atom_site_fract_z
Si Si1 0.782259 0.436568 0.943804
Si Si2 0.101375 0.934775 0.944469
Si Si3 0.595676 0.103136 0.651243
Si Si4 0.036300 0.689491 0.436234
Si Si5 0.998096 0.106005 0.048072
Si Si6 0.874259 0.191695 0.544114
Si Si7 0.663041 0.320115 0.285000
Si Si8 0.505410 0.062162 0.658385
O O1 0.649723 0.369831 0.763418
O O2 0.739042 0.564956 0.895367
O O3 0.886291 0.408685 0.140881
O O4 0.862671 0.422878 0.989582
O O5 0.058898 0.908410 0.959064
O O6 0.000000 0.893066 0.750000
O O7 0.101267 0.067409 0.939461
O O8 0.249976 0.910758 0.131768
O O9 0.582558 0.177261 0.571302
O O10 0.500000 0.000000 0.500000
O O11 0.538173 0.130318 0.640616
O O12 0.942950 0.796182 0.308023
O O13 0.984733 0.570304 0.342560
O O14 0.149573 0.727741 0.547795
O O15 0.907848 0.182556 0.880938
O O16 0.000000 0.000000 0.000000
O O17 0.751170 0.212242 0.416031
O O18 0.000000 0.241167 0.750000
#
# Coordination Sequence:
#
# PCOD9272770 Si02
#       8
#     8   8   8   8   8   8   8   8
#     4  10  20  37  60  87 120 160 201 242 292 354
#     4  11  23  40  64  92 121 157 204 250 296 355
#     4  10  22  37  59  84 121 162 200 241 287 352
#     4  11  22  37  54  88 121 154 188 239 297 357
#     4  10  22  37  59  84 121 162 200 241 287 352
#     4  11  21  34  56  88 123 153 186 236 306 365
#     4  11  22  37  54  88 121 154 188 239 297 357
#     4  10  20  37  60  87 120 160 201 242 292 354
#
# _framework density 24.171208
#
# number of rings (size 3 to 8) (size 9 to 14) (size 15 to 20)
#    0.000    1.500    1.250    5.250    5.250    4.000 
#    2.250    0.000    0.000    3.000    0.000    0.000 
#    0.000    0.000    0.000    0.000    0.000    0.000 
#
# Total GULP energy -178473.048691 kJ/mol
# GULP energy per Si atom -5577.282772 kJ/mol
# Density = 2.411619 g / cm^3
# Si number density = 24.171208 Si / 1000 Ang^3
#
#
#
# Elastic Constant Matrix: (Units=GPa)
#
#
# Indices 1 2 3 4 5 6 
#
# 1 117.1998 8.4599 41.8149 0.0000 10.7274 0.0000
# 2 8.4599 22.1935 17.6480 0.0000 2.1967 0.0000
# 3 41.8149 17.6480 140.8575 0.0000 22.2143 0.0000
# 4 0.0000 0.0000 0.0000 16.8369 0.0000 4.3104
# 5 10.7274 2.1967 22.2143 0.0000 41.5997 0.0000
# 6 0.0000 0.0000 0.0000 4.3104 0.0000 32.9313
#
#
#
# Elastic Compliance Matrix: (Units=1/GPa)
#
#
# Indices 1 2 3 4 5 6 
#
# 1 0.009634 -0.001584 -0.002493 0.000000 -0.001070 0.000000
# 2 -0.001584 0.050327 -0.005984 0.000000 0.000947 0.000000
# 3 -0.002493 -0.005984 0.009214 0.000000 -0.003961 0.000000
# 4 0.000000 0.000000 0.000000 0.061453 0.000000 -0.008044
# 5 -0.001070 0.000947 -0.003961 0.000000 0.026380 0.000000
# 6 0.000000 0.000000 0.000000 -0.008044 0.000000 0.031419
#
#
# Mechanical properties :
#
#
# Convention : Reuss Voigt Hill
#
# Bulk Modulus (GPa) = 20.38645 46.23291 33.30968
# Shear Modulus (GPa) = 22.23203 32.42879 27.33041
#
# Velocity S-wave (km/s) = 3.03607 3.66680 3.36624
# Velocity P-wave (km/s) = 4.55442 6.09065 5.37767
#
# Compressibility (1/GPa) = 0.04905218
#
# Stress axis : x y z
#
# Youngs Moduli (GPa) = 103.79814 19.86993 108.53134
#
# Poissons Ratio (x) = 0.03148 0.27055
# Poissons Ratio (y) = 0.16445 0.64950
# Poissons Ratio (z) = 0.25875 0.11891
#
# Static dielectric constant tensor:
#      x y z
#    x 1.947970 0.000000 -0.002730 
#    y 0.000000 2.019520 0.000000 
#    z -0.002730 0.000000 2.040140 
# 
# From -- ./inp_files/259460.got.cif
#   From: 2010.05.17/outbox.cif.g08.bks.cpg/sg15_130_cif.got.tgz:259460.got - 2010.06.03 18:47:42.
