data_PCOD9272723
_publ_section_title
;
Structure prediction by ZEFSAII (Michael W. Deem and Ramdas Pophale) SiO2 
 PCOD9272723
Probable space group: C 2/C
;
_chemical_formula_sum "Si O2"
_cell_formula_units_Z 40
_cell_length_a 19.495905
_cell_length_b 13.443019
_cell_length_c 11.091916
_cell_angle_alpha 90.000000
_cell_angle_beta 138.216411
_cell_angle_gamma 90.000000
_cell_volume 1936.996915
_symmetry_space_group_name_H-M "C 2/C"
_symmetry_group_IT_number 15
_symmetry_cell_setting 'monoclinic'
loop_
_space_group_symop_operation_xyz
x,y,z
-x,y,1/2-z
-x,-y,-z
x,-y,1/2+z
1/2+x,1/2+y,z
1/2-x,1/2+y,1/2-z
1/2-x,1/2-y,-z
1/2+x,1/2-y,1/2+z
loop_
_atom_site_type_symbol
_atom_site_label
_atom_site_fract_x
_atom_site_fract_y
_atom_site_fract_z
Si Si1 0.924303 0.281700 0.264478
Si Si2 0.286465 0.618345 0.616955
Si Si3 0.743984 0.613176 0.426424
Si Si4 0.229032 0.807462 0.658572
Si Si5 0.496207 0.726539 0.612536
O O1 0.855455 0.179764 0.169009
O O2 0.982351 0.285039 0.469166
O O3 0.000000 0.285089 0.250000
O O4 0.836890 0.366367 0.139764
O O5 0.280895 0.501593 0.623632
O O6 0.234360 0.688394 0.649046
O O7 0.235128 0.647534 0.420998
O O8 0.403557 0.658107 0.766985
O O9 0.782440 0.656696 0.348554
O O10 0.109434 0.836340 0.517552
O O11 0.500000 0.778498 0.750000
#
# Coordination Sequence:
#
# PCOD9272723 Si02
#       5
#     8   8   8   8   8
#     4  10  21  37  58  89 126 155 199 258 306 356
#     4  10  20  37  60  84 119 162 203 249 306 366
#     4  10  22  37  60  90 121 162 204 250 307 364
#     4   9  20  36  55  85 120 155 204 254 300 362
#     4   9  19  36  59  84 116 157 200 244 297 357
#
# _framework density 20.650523
#
# number of rings (size 3 to 8) (size 9 to 14) (size 15 to 20)
#    0.000    2.400    0.000    1.200    0.000   12.000 
#    0.000    5.000    0.000   18.000    0.000    0.000 
#    0.000    0.000    0.000    0.000    0.000    0.000 
#
# Total GULP energy -111445.876876 kJ/mol
# GULP energy per Si atom -5572.293844 kJ/mol
# Density = 2.060352 g / cm^3
# Si number density = 20.650523 Si / 1000 Ang^3
#
#
#
# Elastic Constant Matrix: (Units=GPa)
#
#
# Indices 1 2 3 4 5 6 
#
# 1 97.6551 25.2563 44.8949 0.0000 -9.4114 0.0000
# 2 25.2563 87.1713 29.5455 0.0000 22.2684 0.0000
# 3 44.8949 29.5455 119.0967 0.0000 -17.0974 0.0000
# 4 0.0000 0.0000 0.0000 14.3915 0.0000 0.0777
# 5 -9.4114 22.2684 -17.0974 0.0000 33.2746 0.0000
# 6 0.0000 0.0000 0.0000 0.0777 0.0000 15.1579
#
#
#
# Elastic Compliance Matrix: (Units=1/GPa)
#
#
# Indices 1 2 3 4 5 6 
#
# 1 0.013232 -0.003867 -0.003368 0.000000 0.004600 0.000000
# 2 -0.003867 0.018662 -0.005530 0.000000 -0.016424 0.000000
# 3 -0.003368 -0.005530 0.012343 0.000000 0.009090 0.000000
# 4 0.000000 0.000000 0.000000 0.069487 0.000000 -0.000356
# 5 0.004600 -0.016424 0.009090 0.000000 0.047016 0.000000
# 6 0.000000 0.000000 0.000000 -0.000356 0.000000 0.065974
#
#
# Mechanical properties :
#
#
# Convention : Reuss Voigt Hill
#
# Bulk Modulus (GPa) = 53.45668 55.92407 54.69037
# Shear Modulus (GPa) = 19.34377 26.17989 22.76183
#
# Velocity S-wave (km/s) = 3.06391 3.56442 3.32360
# Velocity P-wave (km/s) = 6.20155 6.63929 6.42415
#
# Compressibility (1/GPa) = 0.01870674
#
# Stress axis : x y z
#
# Youngs Moduli (GPa) = 75.57385 53.58471 81.01730
#
# Poissons Ratio (x) = 0.20722 0.27289
# Poissons Ratio (y) = 0.29226 0.44801
# Poissons Ratio (z) = 0.25455 0.29631
#
# Static dielectric constant tensor:
#      x y z
#    x 1.795240 0.000000 -0.015520 
#    y 0.000000 1.701760 0.000000 
#    z -0.015520 0.000000 1.798610 
# 
# From -- ./inp_files/111864.got.cif
#   From: 2010.05.17/outbox.cif.g08.bks.cpg/sg15_56_cif.got.tgz:111864.got - 2010.06.03 18:47:42.
