data_PCOD9272167
_publ_section_title
;
Structure prediction by ZEFSAII (Michael W. Deem and Ramdas Pophale) SiO2 
 PCOD9272167
Probable space group: C 2/C
;
_chemical_formula_sum "Si O2"
_cell_formula_units_Z 52
_cell_length_a 13.757373
_cell_length_b 12.636546
_cell_length_c 13.818482
_cell_angle_alpha 90.000000
_cell_angle_beta 80.202285
_cell_angle_gamma 90.000000
_cell_volume 2367.245297
_symmetry_space_group_name_H-M "C 2/C"
_symmetry_group_IT_number 15
_symmetry_cell_setting 'monoclinic'
loop_
_space_group_symop_operation_xyz
x,y,z
-x,y,1/2-z
-x,-y,-z
x,-y,1/2+z
1/2+x,1/2+y,z
1/2-x,1/2+y,1/2-z
1/2-x,1/2-y,-z
1/2+x,1/2-y,1/2+z
loop_
_atom_site_type_symbol
_atom_site_label
_atom_site_fract_x
_atom_site_fract_y
_atom_site_fract_z
Si Si1 0.500000 0.100780 0.250000
Si Si2 0.330939 0.532738 0.259262
Si Si3 0.552160 0.726103 0.343675
Si Si4 0.144041 0.638062 0.379801
Si Si5 0.422077 0.440249 0.945502
Si Si6 0.769232 0.133400 0.612771
Si Si7 0.053257 0.417354 0.096191
O O1 0.577140 0.166454 0.298528
O O2 0.544022 0.024068 0.159583
O O3 0.363746 0.636567 0.188809
O O4 0.226818 0.560641 0.324482
O O5 0.405691 0.520239 0.338076
O O6 0.314835 0.429789 0.196281
O O7 0.500000 0.729840 0.250000
O O8 0.473323 0.673866 0.429154
O O9 0.548205 0.848945 0.375395
O O10 0.195776 0.746594 0.401354
O O11 0.084555 0.585158 0.478468
O O12 0.500000 0.500000 0.000000
O O13 0.316969 0.429855 0.014682
O O14 0.651312 0.133135 0.629872
#
# Coordination Sequence:
#
# PCOD9272167 Si02
#       7
#     4   8   8   8   8   8   8
#     4  12  28  46  66  96 142 170 214 284 334 390
#     4  11  24  41  65 102 135 168 222 279 330 387
#     4  10  20  36  64  98 124 159 222 267 310 382
#     4  12  26  44  68  99 132 176 224 268 337 398
#     4  11  21  37  64  99 134 169 213 274 330 388
#     4  12  23  42  72  94 134 176 218 278 329 390
#     4  12  23  45  72  95 126 181 226 265 319 408
#
# _framework density 21.966459
#
# number of rings (size 3 to 8) (size 9 to 14) (size 15 to 20)
#    0.000    0.615    6.923    2.769    0.000    1.231 
#    0.000    0.000    0.000    2.769    0.000    0.000 
#    0.000    0.000    0.000    0.000    0.000    0.000 
#
# Total GULP energy -144971.377275 kJ/mol
# GULP energy per Si atom -5575.822203 kJ/mol
# Density = 2.191646 g / cm^3
# Si number density = 21.966459 Si / 1000 Ang^3
#
#
#
# Elastic Constant Matrix: (Units=GPa)
#
#
# Indices 1 2 3 4 5 6 
#
# 1 69.1301 6.8960 24.2438 0.0000 11.3358 0.0000
# 2 6.8960 47.4671 19.5849 0.0000 -5.8436 0.0000
# 3 24.2438 19.5849 99.6050 0.0000 -3.1698 0.0000
# 4 0.0000 0.0000 0.0000 32.3397 0.0000 2.5549
# 5 11.3358 -5.8436 -3.1698 0.0000 43.0636 0.0000
# 6 0.0000 0.0000 0.0000 2.5549 0.0000 33.5610
#
#
#
# Elastic Compliance Matrix: (Units=1/GPa)
#
#
# Indices 1 2 3 4 5 6 
#
# 1 0.016802 -0.001407 -0.003969 0.000000 -0.004906 0.000000
# 2 -0.001407 0.023383 -0.004152 0.000000 0.003238 0.000000
# 3 -0.003969 -0.004152 0.011865 0.000000 0.001355 0.000000
# 4 0.000000 0.000000 0.000000 0.031109 0.000000 -0.002368
# 5 -0.004906 0.003238 0.001355 0.000000 0.025052 0.000000
# 6 0.000000 0.000000 0.000000 -0.002368 0.000000 0.029977
#
#
# Mechanical properties :
#
#
# Convention : Reuss Voigt Hill
#
# Bulk Modulus (GPa) = 30.30876 35.29463 32.80169
# Shear Modulus (GPa) = 29.71877 32.82470 31.27173
#
# Velocity S-wave (km/s) = 3.68219 3.86982 3.77717
# Velocity P-wave (km/s) = 5.64852 6.00581 5.82990
#
# Compressibility (1/GPa) = 0.03299376
#
# Stress axis : x y z
#
# Youngs Moduli (GPa) = 59.51558 42.76526 84.27959
#
# Poissons Ratio (x) = 0.06019 0.33451
# Poissons Ratio (y) = 0.08376 0.34994
# Poissons Ratio (z) = 0.23622 0.17757
#
# Static dielectric constant tensor:
#      x y z
#    x 1.845080 0.000000 0.000910 
#    y 0.000000 1.911490 0.000000 
#    z 0.000910 0.000000 1.872410 
# 
# From -- ./inp_files/96968.got.cif
#   From: 2010.05.17/outbox.cif.g08.bks.cpg/sg15_49_cif.got.tgz:96968.got - 2010.06.03 18:47:42.
