data_PCOD9272409
_publ_section_title
;
Structure prediction by ZEFSAII (Michael W. Deem and Ramdas Pophale) SiO2 
 PCOD9272409
Probable space group: C 2/C
;
_chemical_formula_sum "Si O2"
_cell_formula_units_Z 56
_cell_length_a 13.109718
_cell_length_b 15.543743
_cell_length_c 22.673910
_cell_angle_alpha 90.000000
_cell_angle_beta 33.769097
_cell_angle_gamma 90.000000
_cell_volume 2568.212193
_symmetry_space_group_name_H-M "C 2/C"
_symmetry_group_IT_number 15
_symmetry_cell_setting 'monoclinic'
loop_
_space_group_symop_operation_xyz
x,y,z
-x,y,1/2-z
-x,-y,-z
x,-y,1/2+z
1/2+x,1/2+y,z
1/2-x,1/2+y,1/2-z
1/2-x,1/2-y,-z
1/2+x,1/2-y,1/2+z
loop_
_atom_site_type_symbol
_atom_site_label
_atom_site_fract_x
_atom_site_fract_y
_atom_site_fract_z
Si Si1 0.729022 0.631732 0.813756
Si Si2 0.908553 0.794527 0.386067
Si Si3 0.009285 0.392891 0.679330
Si Si4 0.215887 0.029826 0.547203
Si Si5 0.577769 0.132434 0.561557
Si Si6 0.632297 0.692904 0.979000
Si Si7 0.122828 0.050914 0.355266
O O1 0.565699 0.670979 0.853773
O O2 0.745395 0.688417 0.864246
O O3 0.672197 0.537527 0.863934
O O4 0.900676 0.621772 0.687938
O O5 0.750000 0.750000 0.500000
O O6 0.829811 0.882676 0.394881
O O7 0.981219 0.710081 0.319217
O O8 0.818053 0.414630 0.738469
O O9 0.000000 0.429291 0.750000
O O10 0.179212 0.433774 0.561882
O O11 0.352954 0.955010 0.502603
O O12 0.026607 0.981218 0.620873
O O13 0.557612 0.212029 0.527133
O O14 0.736001 0.161990 0.531478
O O15 0.464627 0.625356 0.062705
#
# Coordination Sequence:
#
# PCOD9272409 Si02
#       7
#     8   8   8   8   8   8   8
#     4  11  20  35  59  81 120 156 194 247 300 354
#     4   9  21  38  53  81 115 156 189 239 295 348
#     4  11  22  33  58  86 112 149 196 242 301 356
#     4   9  20  37  57  80 119 150 187 242 297 350
#     4  10  20  37  55  87 117 152 197 240 298 360
#     4  10  22  33  56  87 120 152 192 249 297 354
#     4  10  21  32  55  87 115 147 192 248 305 349
#
# _framework density 21.805052
#
# number of rings (size 3 to 8) (size 9 to 14) (size 15 to 20)
#    0.000    2.000    1.429    1.714   10.000    0.000 
#    0.000    0.000    0.000   13.714    0.000    0.000 
#    0.000    0.000    0.000    0.000    0.000    0.000 
#
# Total GULP energy -156058.888372 kJ/mol
# GULP energy per Si atom -5573.531728 kJ/mol
# Density = 2.175542 g / cm^3
# Si number density = 21.805052 Si / 1000 Ang^3
#
#
#
# Elastic Constant Matrix: (Units=GPa)
#
#
# Indices 1 2 3 4 5 6 
#
# 1 11.5421 19.0527 21.9317 0.0001 -9.9548 -0.0002
# 2 19.0527 146.6131 37.7148 0.0008 -6.7974 -0.0004
# 3 21.9317 37.7148 65.7260 0.0017 -27.5814 -0.0008
# 4 0.0001 0.0008 0.0017 33.6400 -0.0005 -9.9931
# 5 -9.9548 -6.7974 -27.5814 -0.0005 22.4917 0.0003
# 6 -0.0002 -0.0004 -0.0008 -9.9931 0.0003 8.8950
#
#
#
# Elastic Compliance Matrix: (Units=1/GPa)
#
#
# Indices 1 2 3 4 5 6 
#
# 1 0.267060 -0.016112 -0.066563 0.000005 0.031704 0.000004
# 2 -0.016112 0.009482 -0.003821 0.000000 -0.008951 0.000000
# 3 -0.066563 -0.003821 0.055153 -0.000002 0.037018 0.000000
# 4 0.000005 0.000000 -0.000002 0.044617 0.000000 0.050125
# 5 0.031704 -0.008951 0.037018 0.000000 0.101183 0.000000
# 6 0.000004 0.000000 0.000000 0.050125 0.000000 0.168737
#
#
# Mechanical properties :
#
#
# Convention : Reuss Voigt Hill
#
# Bulk Modulus (GPa) = 6.30114 42.36439 24.33277
# Shear Modulus (GPa) = 5.73312 22.68414 14.20863
#
# Velocity S-wave (km/s) = 1.62326 3.22889 2.55546
# Velocity P-wave (km/s) = 2.53167 5.77684 4.45989
#
# Compressibility (1/GPa) = 0.15870138
#
# Stress axis : x y z
#
# Youngs Moduli (GPa) = 3.74448 105.45773 18.13148
#
# Poissons Ratio (x) = 1.69918 1.20689
# Poissons Ratio (y) = 0.06033 0.06928
# Poissons Ratio (z) = 0.24924 0.40297
#
# Static dielectric constant tensor:
#      x y z
#    x 1.755610 0.000000 -0.104330 
#    y 0.000000 1.845580 0.000000 
#    z -0.104330 0.000000 1.651950 
# 
# From -- ./inp_files/274474.got.cif
#   From: 2010.05.17/outbox.cif.g08.bks.cpg/sg15_138_cif.got.tgz:274474.got - 2010.06.03 18:47:42.
