data_PCOD9272710
_publ_section_title
;
Structure prediction by ZEFSAII (Michael W. Deem and Ramdas Pophale) SiO2 
 PCOD9272710
Probable space group: C 2/C
;
_chemical_formula_sum "Si O2"
_cell_formula_units_Z 40
_cell_length_a 25.123639
_cell_length_b 5.319782
_cell_length_c 11.643724
_cell_angle_alpha 90.000000
_cell_angle_beta 67.057005
_cell_angle_gamma 90.000000
_cell_volume 1433.103389
_symmetry_space_group_name_H-M "C 2/C"
_symmetry_group_IT_number 15
_symmetry_cell_setting 'monoclinic'
loop_
_space_group_symop_operation_xyz
x,y,z
-x,y,1/2-z
-x,-y,-z
x,-y,1/2+z
1/2+x,1/2+y,z
1/2-x,1/2+y,1/2-z
1/2-x,1/2-y,-z
1/2+x,1/2-y,1/2+z
loop_
_atom_site_type_symbol
_atom_site_label
_atom_site_fract_x
_atom_site_fract_y
_atom_site_fract_z
Si Si1 0.740825 0.082238 0.207681
Si Si2 0.849383 0.223404 0.982481
Si Si3 0.435323 0.530499 0.105269
Si Si4 0.319573 0.224042 0.907666
Si Si5 0.532096 0.027987 0.345564
O O1 0.720426 0.338464 0.286226
O O2 0.783897 0.217792 0.084218
O O3 0.687588 0.920016 0.206551
O O4 0.894200 0.124120 0.038303
O O5 0.855524 0.517612 0.949224
O O6 0.844717 0.001026 0.892810
O O7 0.425162 0.259021 0.168246
O O8 0.439684 0.755715 0.192315
O O9 0.500000 0.500000 0.000000
O O10 0.250000 0.250000 0.000000
O O11 0.500000 0.082557 0.250000
O O12 0.500000 0.000000 0.500000
#
# Coordination Sequence:
#
# PCOD9272710 Si02
#       5
#     8   8   8   8   8
#     4  11  21  36  55  86 121 153 198 257 314 385
#     4  11  21  39  62  86 120 162 204 257 324 392
#     4  10  22  41  63  91 125 167 218 275 328 394
#     4  10  20  37  60  83 114 160 203 250 311 378
#     4  10  21  41  66  92 127 174 220 273 330 385
#
# _framework density 27.911453000000002
#
# number of rings (size 3 to 8) (size 9 to 14) (size 15 to 20)
#    0.000    1.600    0.000    7.800    0.000    0.000 
#    0.000   24.000    0.000    0.000    0.000    0.000 
#    0.000    0.000    0.000    0.000    0.000    0.000 
#
# Total GULP energy -111563.235601 kJ/mol
# GULP energy per Si atom -5578.161780 kJ/mol
# Density = 2.784792 g / cm^3
# Si number density = 27.911453 Si / 1000 Ang^3
#
#
#
# Elastic Constant Matrix: (Units=GPa)
#
#
# Indices 1 2 3 4 5 6 
#
# 1 130.9014 37.4610 49.2602 0.0000 25.9959 0.0000
# 2 37.4610 242.9374 45.3994 0.0000 7.9202 0.0000
# 3 49.2602 45.3994 94.5420 0.0000 8.6257 0.0000
# 4 0.0000 0.0000 0.0000 52.6832 0.0000 12.8653
# 5 25.9959 7.9202 8.6257 0.0000 62.4440 0.0000
# 6 0.0000 0.0000 0.0000 12.8653 0.0000 64.9823
#
#
#
# Elastic Compliance Matrix: (Units=1/GPa)
#
#
# Indices 1 2 3 4 5 6 
#
# 1 0.010306 -0.000583 -0.004765 0.000000 -0.003558 0.000000
# 2 -0.000583 0.004560 -0.001879 0.000000 -0.000076 0.000000
# 3 -0.004765 -0.001879 0.013936 0.000000 0.000297 0.000000
# 4 0.000000 0.000000 0.000000 0.019946 0.000000 -0.003949
# 5 -0.003558 -0.000076 0.000297 0.000000 0.017464 0.000000
# 6 0.000000 0.000000 0.000000 -0.003949 0.000000 0.016171
#
#
# Mechanical properties :
#
#
# Convention : Reuss Voigt Hill
#
# Bulk Modulus (GPa) = 69.70091 81.40245 75.55168
# Shear Modulus (GPa) = 49.20360 58.43924 53.82142
#
# Velocity S-wave (km/s) = 4.20318 4.58070 4.39600
# Velocity P-wave (km/s) = 6.97008 7.56339 7.27279
#
# Compressibility (1/GPa) = 0.01434702
#
# Stress axis : x y z
#
# Youngs Moduli (GPa) = 97.03060 219.30925 71.75909
#
# Poissons Ratio (x) = 0.12778 0.34196
# Poissons Ratio (y) = 0.05653 0.13484
# Poissons Ratio (z) = 0.46239 0.41210
#
# Static dielectric constant tensor:
#      x y z
#    x 2.283610 0.000000 -0.052590 
#    y 0.000000 -1.452110 0.000000 
#    z -0.052590 0.000000 2.721080 
# 
# From -- ./inp_files/124760.got.cif
#   From: 2010.05.17/outbox.cif.g08.bks.cpg/sg15_63_cif.got.tgz:124760.got - 2010.06.03 18:47:42.
