data_PCOD9272325
_publ_section_title
;
Structure prediction by ZEFSAII (Michael W. Deem and Ramdas Pophale) SiO2 
 PCOD9272325
Probable space group: C 2/C
;
_chemical_formula_sum "Si O2"
_cell_formula_units_Z 56
_cell_length_a 5.820291
_cell_length_b 15.928300
_cell_length_c 28.964713
_cell_angle_alpha 90.000000
_cell_angle_beta 71.976539
_cell_angle_gamma 90.000000
_cell_volume 2553.476466
_symmetry_space_group_name_H-M "C 2/C"
_symmetry_group_IT_number 15
_symmetry_cell_setting 'monoclinic'
loop_
_space_group_symop_operation_xyz
x,y,z
-x,y,1/2-z
-x,-y,-z
x,-y,1/2+z
1/2+x,1/2+y,z
1/2-x,1/2+y,1/2-z
1/2-x,1/2-y,-z
1/2+x,1/2-y,1/2+z
loop_
_atom_site_type_symbol
_atom_site_label
_atom_site_fract_x
_atom_site_fract_y
_atom_site_fract_z
Si Si1 0.000000 0.875185 0.250000
Si Si2 0.500000 0.974832 0.250000
Si Si3 0.499719 0.024701 0.915713
Si Si4 0.087867 0.770259 0.055647
Si Si5 0.176987 0.131338 0.085262
Si Si6 0.305514 0.474521 0.647791
Si Si7 0.863110 0.859481 0.355954
Si Si8 0.612510 0.591555 0.992028
O O1 0.745917 0.925885 0.253528
O O2 0.936350 0.827035 0.301162
O O3 0.393660 0.026807 0.299810
O O4 0.306967 0.976192 0.896397
O O5 0.616539 0.088124 0.872047
O O6 0.394212 0.077852 0.964394
O O7 0.678886 0.956818 0.925331
O O8 0.176990 0.791034 0.101690
O O9 0.873313 0.703741 0.076911
O O10 0.979479 0.858901 0.046158
O O11 0.250000 0.750000 0.000000
O O12 0.063772 0.141828 0.041576
O O13 0.981835 0.106837 0.136251
O O14 0.447349 0.563786 0.644981
O O15 0.500000 0.500000 0.000000
#
# Coordination Sequence:
#
# PCOD9272325 Si02
#       8
#     4   4   8   8   8   8   8   8
#     4  10  20  36  70 105 131 164 230 304 348 406
#     4  10  20  38  68 111 127 162 232 302 354 402
#     4  11  19  39  62  91 122 165 214 277 329 406
#     4  12  25  41  59  96 138 181 222 278 353 425
#     4  11  24  37  59  94 134 173 216 273 346 418
#     4  10  20  39  65  97 126 167 223 288 341 411
#     4  10  21  39  63  98 125 168 225 282 346 409
#     4  12  21  39  62  88 124 171 223 273 327 400
#
# _framework density 21.930886000000001
#
# number of rings (size 3 to 8) (size 9 to 14) (size 15 to 20)
#    0.000    1.143    4.286    3.429    0.000    0.000 
#    0.000    0.000    0.000    0.857   14.857    0.000 
#    0.000    0.000    0.000    0.000    0.000    0.000 
#
# Total GULP energy -155931.603799 kJ/mol
# GULP energy per Si atom -5568.985850 kJ/mol
# Density = 2.188097 g / cm^3
# Si number density = 21.930886 Si / 1000 Ang^3
#
#
#
# Elastic Constant Matrix: (Units=GPa)
#
#
# Indices 1 2 3 4 5 6 
#
# 1 60.5549 9.5785 30.2656 0.0000 -11.0282 0.0000
# 2 9.5785 58.8076 42.5100 0.0000 -11.1435 0.0000
# 3 30.2656 42.5100 178.8803 0.0000 -21.0203 0.0000
# 4 0.0000 0.0000 0.0000 24.4231 0.0000 1.0038
# 5 -11.0282 -11.1435 -21.0203 0.0000 39.9523 0.0000
# 6 0.0000 0.0000 0.0000 1.0038 0.0000 29.1397
#
#
#
# Elastic Compliance Matrix: (Units=1/GPa)
#
#
# Indices 1 2 3 4 5 6 
#
# 1 0.018547 -0.000451 -0.002605 0.000000 0.003623 0.000000
# 2 -0.000451 0.020977 -0.004515 0.000000 0.003351 0.000000
# 3 -0.002605 -0.004515 0.007324 0.000000 0.001875 0.000000
# 4 0.000000 0.000000 0.000000 0.041003 0.000000 -0.001412
# 5 0.003623 0.003351 0.001875 0.000000 0.027951 0.000000
# 6 0.000000 0.000000 0.000000 -0.001412 0.000000 0.034366
#
#
# Mechanical properties :
#
#
# Convention : Reuss Voigt Hill
#
# Bulk Modulus (GPa) = 31.53992 51.43901 41.48946
# Shear Modulus (GPa) = 28.42852 33.09559 30.76205
#
# Velocity S-wave (km/s) = 3.60429 3.88891 3.74930
# Velocity P-wave (km/s) = 5.63329 6.60839 6.14023
#
# Compressibility (1/GPa) = 0.03170585
#
# Stress axis : x y z
#
# Youngs Moduli (GPa) = 53.91650 47.67187 136.52989
#
# Poissons Ratio (x) = 0.02151 0.35567
# Poissons Ratio (y) = 0.02433 0.61642
# Poissons Ratio (z) = 0.14046 0.21523
#
# Static dielectric constant tensor:
#      x y z
#    x 2.007210 0.000000 -0.060810 
#    y 0.000000 1.792180 0.000000 
#    z -0.060810 0.000000 1.826850 
# 
# From -- ./inp_files/286041.got.cif
#   From: 2010.05.17/outbox.cif.g08.bks.cpg/sg15_144_cif.got.tgz:286041.got - 2010.06.03 18:47:42.
