data_PCOD9272023
_publ_section_title
;
Structure prediction by ZEFSAII (Michael W. Deem and Ramdas Pophale) SiO2 
 PCOD9272023
Probable space group: C 2/C
;
_chemical_formula_sum "Si O2"
_cell_formula_units_Z 64
_cell_length_a 11.285181
_cell_length_b 28.440114
_cell_length_c 13.273259
_cell_angle_alpha 90.000000
_cell_angle_beta 133.647753
_cell_angle_gamma 90.000000
_cell_volume 3082.578163
_symmetry_space_group_name_H-M "C 2/C"
_symmetry_group_IT_number 15
_symmetry_cell_setting 'monoclinic'
loop_
_space_group_symop_operation_xyz
x,y,z
-x,y,1/2-z
-x,-y,-z
x,-y,1/2+z
1/2+x,1/2+y,z
1/2-x,1/2+y,1/2-z
1/2-x,1/2-y,-z
1/2+x,1/2-y,1/2+z
loop_
_atom_site_type_symbol
_atom_site_label
_atom_site_fract_x
_atom_site_fract_y
_atom_site_fract_z
Si Si1 0.671363 0.202810 0.407550
Si Si2 0.998334 0.663483 0.004617
Si Si3 0.151233 0.163725 0.182521
Si Si4 0.483186 0.539341 0.856923
Si Si5 0.987581 0.529598 0.359108
Si Si6 0.375847 0.560081 0.354982
Si Si7 0.877541 0.566648 0.865289
Si Si8 0.055164 0.254496 0.388353
O O1 0.500000 0.214464 0.250000
O O2 0.750000 0.250000 0.500000
O O3 0.621638 0.168489 0.469910
O O4 0.788480 0.177970 0.394625
O O5 0.182816 0.660525 0.154725
O O6 0.993134 0.711607 0.939607
O O7 0.947481 0.618925 0.907853
O O8 0.072211 0.112394 0.141327
O O9 0.031823 0.204315 0.149979
O O10 0.500000 0.551469 0.750000
O O11 0.477148 0.482795 0.867303
O O12 0.305791 0.560528 0.783142
O O13 0.610554 0.556095 0.015592
O O14 0.116255 0.550313 0.513384
O O15 0.000000 0.542074 0.250000
O O16 0.810568 0.550048 0.287610
O O17 0.983229 0.473315 0.371124
O O18 0.250000 0.250000 0.500000
O O19 0.000000 0.275493 0.250000
#
# Coordination Sequence:
#
# PCOD9272023 Si02
#       8
#     8   8   8   8   8   8   8   8
#     4  10  22  40  66  95 124 161 204 268 323 375
#     4  11  23  43  67  97 130 163 218 267 325 390
#     4  11  23  43  68  97 127 168 219 261 328 389
#     4  10  22  40  58  92 134 166 206 268 316 370
#     4  10  20  36  63  89 127 163 208 261 312 379
#     4  10  22  40  63  91 124 171 216 254 320 391
#     4  10  22  38  61  96 120 164 214 258 318 377
#     4  12  26  45  69  94 129 175 216 270 322 384
#
# _framework density 20.761842000000001
#
# number of rings (size 3 to 8) (size 9 to 14) (size 15 to 20)
#    0.000    1.500    3.750    0.750    3.500    2.000 
#    2.250    1.250    0.000    0.000    0.000    0.000 
#    0.000    0.000    0.000    0.000    0.000    0.000 
#
# Total GULP energy -178729.435713 kJ/mol
# GULP energy per Si atom -5585.294866 kJ/mol
# Density = 2.071459 g / cm^3
# Si number density = 20.761842 Si / 1000 Ang^3
#
#
#
# Elastic Constant Matrix: (Units=GPa)
#
#
# Indices 1 2 3 4 5 6 
#
# 1 39.0588 -2.7165 1.9798 0.0000 -0.8922 0.0000
# 2 -2.7165 128.2287 11.7810 0.0000 12.0823 0.0000
# 3 1.9798 11.7810 81.4886 0.0000 0.0793 0.0000
# 4 0.0000 0.0000 0.0000 26.2877 0.0000 -3.7401
# 5 -0.8922 12.0823 0.0793 0.0000 29.4418 0.0000
# 6 0.0000 0.0000 0.0000 -3.7401 0.0000 3.8823
#
#
#
# Elastic Compliance Matrix: (Units=1/GPa)
#
#
# Indices 1 2 3 4 5 6 
#
# 1 0.025690 0.000557 -0.000705 0.000000 0.000552 0.000000
# 2 0.000557 0.008237 -0.001201 0.000000 -0.003360 0.000000
# 3 -0.000705 -0.001201 0.012462 0.000000 0.000438 0.000000
# 4 0.000000 0.000000 0.000000 0.044083 0.000000 0.042468
# 5 0.000552 -0.003360 0.000438 0.000000 0.035360 0.000000
# 6 0.000000 0.000000 0.000000 0.042468 0.000000 0.298490
#
#
# Mechanical properties :
#
#
# Convention : Reuss Voigt Hill
#
# Bulk Modulus (GPa) = 22.88841 30.09608 26.49224
# Shear Modulus (GPa) = 11.32287 27.77115 19.54701
#
# Velocity S-wave (km/s) = 2.33785 3.66130 3.07170
# Velocity P-wave (km/s) = 4.28201 5.69217 5.03668
#
# Compressibility (1/GPa) = 0.04369024
#
# Stress axis : x y z
#
# Youngs Moduli (GPa) = 38.92636 121.39835 80.24381
#
# Poissons Ratio (x) = -0.06762 0.05659
# Poissons Ratio (y) = -0.02168 0.09639
# Poissons Ratio (z) = 0.02745 0.14582
#
# Static dielectric constant tensor:
#      x y z
#    x 1.762980 0.000000 -0.013110 
#    y 0.000000 1.733510 0.000000 
#    z -0.013110 0.000000 1.715580 
# 
# From -- ./inp_files/148795.got.cif
#   From: 2010.05.17/outbox.cif.g08.bks.cpg/sg15_75_cif.got.tgz:148795.got - 2010.06.03 18:47:42.
