data_PCOD9272758
_publ_section_title
;
Structure prediction by ZEFSAII (Michael W. Deem and Ramdas Pophale) SiO2 
 PCOD9272758
Probable space group: C 2/C
;
_chemical_formula_sum "Si O2"
_cell_formula_units_Z 40
_cell_length_a 5.755833
_cell_length_b 24.919551
_cell_length_c 12.257459
_cell_angle_alpha 90.000000
_cell_angle_beta 98.717729
_cell_angle_gamma 90.000000
_cell_volume 1737.809832
_symmetry_space_group_name_H-M "C 2/C"
_symmetry_group_IT_number 15
_symmetry_cell_setting 'monoclinic'
loop_
_space_group_symop_operation_xyz
x,y,z
-x,y,1/2-z
-x,-y,-z
x,-y,1/2+z
1/2+x,1/2+y,z
1/2-x,1/2+y,1/2-z
1/2-x,1/2-y,-z
1/2+x,1/2-y,1/2+z
loop_
_atom_site_type_symbol
_atom_site_label
_atom_site_fract_x
_atom_site_fract_y
_atom_site_fract_z
Si Si1 0.181116 0.168125 0.531220
Si Si2 0.370692 0.574388 0.437280
Si Si3 0.911389 0.740286 0.906431
Si Si4 0.000000 0.442336 0.750000
Si Si5 0.500000 0.294053 0.250000
Si Si6 0.341256 0.478889 0.146639
O O1 0.450170 0.184010 0.572876
O O2 0.054984 0.175379 0.640688
O O3 0.090472 0.112588 0.476609
O O4 0.096334 0.211824 0.434919
O O5 0.177835 0.592627 0.335753
O O6 0.471693 0.520154 0.392138
O O7 0.256560 0.559926 0.545385
O O8 0.736252 0.739362 0.792392
O O9 0.750000 0.750000 0.000000
O O10 0.859860 0.483272 0.818982
O O11 0.500000 0.450171 0.250000
#
# Coordination Sequence:
#
# PCOD9272758 Si02
#       6
#     8   8   8   4   4   8
#     4  10  21  37  61  89 121 162 205 261 315 385
#     4  10  21  37  62  90 128 167 223 260 316 381
#     4   9  20  39  58  83 121 156 199 255 316 370
#     4  10  20  39  60  88 128 182 214 264 323 370
#     4  10  20  37  60  86 122 154 200 260 317 378
#     4   9  20  38  59  87 129 171 213 269 317 373
#
# _framework density 23.017479999999999
#
# number of rings (size 3 to 8) (size 9 to 14) (size 15 to 20)
#    0.000    2.400    0.000    1.200    1.400    4.000 
#    0.000   16.000    0.000    0.000    0.000    0.000 
#    0.000    0.000    0.000    0.000    0.000    0.000 
#
# Total GULP energy -111541.731203 kJ/mol
# GULP energy per Si atom -5577.086560 kJ/mol
# Density = 2.296509 g / cm^3
# Si number density = 23.017480 Si / 1000 Ang^3
#
#
#
# Elastic Constant Matrix: (Units=GPa)
#
#
# Indices 1 2 3 4 5 6 
#
# 1 78.1975 1.9471 40.2903 0.0000 15.5016 0.0000
# 2 1.9471 42.3467 36.9956 0.0000 13.9264 0.0000
# 3 40.2903 36.9956 124.0811 0.0000 28.6439 0.0000
# 4 0.0000 0.0000 0.0000 5.5319 0.0000 4.3885
# 5 15.5016 13.9264 28.6439 0.0000 45.3760 0.0000
# 6 0.0000 0.0000 0.0000 4.3885 0.0000 20.8801
#
#
#
# Elastic Compliance Matrix: (Units=1/GPa)
#
#
# Indices 1 2 3 4 5 6 
#
# 1 0.016607 0.005936 -0.006359 0.000000 -0.003481 0.000000
# 2 0.005936 0.034836 -0.010978 0.000000 -0.005790 0.000000
# 3 -0.006359 -0.010978 0.014185 0.000000 -0.003413 0.000000
# 4 0.000000 0.000000 0.000000 0.216942 0.000000 -0.045597
# 5 -0.003481 -0.005790 -0.003413 0.000000 0.027159 0.000000
# 6 0.000000 0.000000 0.000000 -0.045597 0.000000 0.057476
#
#
# Mechanical properties :
#
#
# Convention : Reuss Voigt Hill
#
# Bulk Modulus (GPa) = 23.34920 44.78791 34.06855
# Shear Modulus (GPa) = 12.36766 25.38375 18.87570
#
# Velocity S-wave (km/s) = 2.32052 3.32445 2.86677
# Velocity P-wave (km/s) = 4.16484 5.85119 5.07850
#
# Compressibility (1/GPa) = 0.04282801
#
# Stress axis : x y z
#
# Youngs Moduli (GPa) = 60.21673 28.70571 70.49746
#
# Poissons Ratio (x) = -0.17041 0.44827
# Poissons Ratio (y) = -0.35748 0.77390
# Poissons Ratio (z) = 0.38290 0.31512
#
# Static dielectric constant tensor:
#      x y z
#    x 1.938520 0.000000 0.019290 
#    y 0.000000 1.855800 0.000000 
#    z 0.019290 0.000000 1.925660 
# 
# From -- ./inp_files/73362.got.cif
#   From: 2010.05.17/outbox.cif.g08.bks.cpg/sg15_37_cif.got.tgz:73362.got - 2010.06.03 18:47:42.
