data_PCOD9272335
_publ_section_title
;
Structure prediction by ZEFSAII (Michael W. Deem and Ramdas Pophale) SiO2 
 PCOD9272335
Probable space group: C 2/C
;
_chemical_formula_sum "Si O2"
_cell_formula_units_Z 64
_cell_length_a 23.940053
_cell_length_b 9.990972
_cell_length_c 13.534416
_cell_angle_alpha 90.000000
_cell_angle_beta 66.905328
_cell_angle_gamma 90.000000
_cell_volume 2977.783708
_symmetry_space_group_name_H-M "C 2/C"
_symmetry_group_IT_number 15
_symmetry_cell_setting 'monoclinic'
loop_
_space_group_symop_operation_xyz
x,y,z
-x,y,1/2-z
-x,-y,-z
x,-y,1/2+z
1/2+x,1/2+y,z
1/2-x,1/2+y,1/2-z
1/2-x,1/2-y,-z
1/2+x,1/2-y,1/2+z
loop_
_atom_site_type_symbol
_atom_site_label
_atom_site_fract_x
_atom_site_fract_y
_atom_site_fract_z
Si Si1 0.165885 0.959928 0.093394
Si Si2 0.605553 0.803402 0.659662
Si Si3 0.479056 0.189435 0.621362
Si Si4 0.962245 0.622673 0.104669
Si Si5 0.128066 0.522836 0.502103
Si Si6 0.760250 0.610842 0.686945
Si Si7 0.262874 0.903558 0.855040
Si Si8 0.398164 0.742128 0.348319
O O1 0.197991 0.933737 0.176564
O O2 0.136571 0.105040 0.110862
O O3 0.116099 0.844693 0.113378
O O4 0.217541 0.932645 0.976283
O O5 0.560644 0.803202 0.782954
O O6 0.670975 0.859055 0.652534
O O7 0.589772 0.910050 0.586609
O O8 0.491432 0.206224 0.496346
O O9 0.537608 0.248404 0.637253
O O10 0.418704 0.236814 0.720038
O O11 0.478629 0.027777 0.627976
O O12 0.906982 0.590867 0.065353
O O13 0.185874 0.447421 0.418210
O O14 0.139786 0.637018 0.575947
O O15 0.760919 0.771865 0.687537
O O16 0.765961 0.534599 0.785791
#
# Coordination Sequence:
#
# PCOD9272335 Si02
#       8
#     8   8   8   8   8   8   8   8
#     4  11  24  40  59  89 134 172 202 254 324 380
#     4  11  20  40  62  90 126 166 205 258 317 379
#     4   9  20  40  62  89 119 150 211 272 309 363
#     4  10  20  36  70  94 115 159 214 272 316 362
#     4  11  20  36  63  93 121 163 212 255 312 375
#     4  11  23  38  59  94 128 168 210 255 310 386
#     4  11  23  39  59  90 136 164 207 259 307 382
#     4  10  22  38  64  85 122 165 207 263 319 370
#
# _framework density 21.492495000000002
#
# number of rings (size 3 to 8) (size 9 to 14) (size 15 to 20)
#    0.000    1.500    5.000    0.750    1.750    3.500 
#    0.000    0.625   16.500    0.000    0.000    0.000 
#    0.000    0.000    0.000    0.000    0.000    0.000 
#
# Total GULP energy -178723.111492 kJ/mol
# GULP energy per Si atom -5585.097234 kJ/mol
# Density = 2.144358 g / cm^3
# Si number density = 21.492495 Si / 1000 Ang^3
#
#
#
# Elastic Constant Matrix: (Units=GPa)
#
#
# Indices 1 2 3 4 5 6 
#
# 1 35.8302 21.6841 11.0606 0.0000 6.0659 0.0000
# 2 21.6841 82.4494 16.5781 0.0000 2.1130 0.0000
# 3 11.0606 16.5781 109.4590 0.0000 -9.6253 0.0000
# 4 0.0000 0.0000 0.0000 -8.7239 0.0000 -1.4675
# 5 6.0659 2.1130 -9.6253 0.0000 20.5772 0.0000
# 6 0.0000 0.0000 0.0000 -1.4675 0.0000 22.5536
#
#
#
# Elastic Compliance Matrix: (Units=1/GPa)
#
#
# Indices 1 2 3 4 5 6 
#
# 1 0.036004 -0.008507 -0.003344 0.000000 -0.011304 0.000000
# 2 -0.008507 0.014622 -0.001321 0.000000 0.000389 0.000000
# 3 -0.003344 -0.001321 0.010192 0.000000 0.005889 0.000000
# 4 0.000000 0.000000 0.000000 -0.113386 0.000000 -0.007378
# 5 -0.011304 0.000389 0.005889 0.000000 0.054644 0.000000
# 6 0.000000 0.000000 0.000000 -0.007378 0.000000 0.043859
#
#
# Mechanical properties :
#
#
# Convention : Reuss Voigt Hill
#
# Bulk Modulus (GPa) = 29.00732 36.26493 32.63612
# Shear Modulus (GPa) = 59.68907 18.77576 39.23242
#
# Velocity S-wave (km/s) = 5.27564 2.95887 4.27711
# Velocity P-wave (km/s) = 7.11587 5.34632 6.29360
#
# Compressibility (1/GPa) = 0.03447406
#
# Stress axis : x y z
#
# Youngs Moduli (GPa) = 27.77499 68.39213 98.12043
#
# Poissons Ratio (x) = 0.58181 0.32808
# Poissons Ratio (y) = 0.23628 0.12959
# Poissons Ratio (z) = 0.09287 0.09033
#
# Static dielectric constant tensor:
#      x y z
#    x 1.867030 0.000000 -0.006180 
#    y 0.000000 1.730980 0.000000 
#    z -0.006180 0.000000 1.814850 
# 
# From -- ./inp_files/180808.got.cif
#   From: 2010.05.17/outbox.cif.g08.bks.cpg/sg15_91_cif.got.tgz:180808.got - 2010.06.03 18:47:42.
