data_PCOD9272430
_publ_section_title
;
Structure prediction by ZEFSAII (Michael W. Deem and Ramdas Pophale) SiO2 
 PCOD9272430
Probable space group: C 2/C
;
_chemical_formula_sum "Si O2"
_cell_formula_units_Z 40
_cell_length_a 17.463020
_cell_length_b 20.192420
_cell_length_c 5.662808
_cell_angle_alpha 90.000000
_cell_angle_beta 94.809016
_cell_angle_gamma 90.000000
_cell_volume 1989.793492
_symmetry_space_group_name_H-M "C 2/C"
_symmetry_group_IT_number 15
_symmetry_cell_setting 'monoclinic'
loop_
_space_group_symop_operation_xyz
x,y,z
-x,y,1/2-z
-x,-y,-z
x,-y,1/2+z
1/2+x,1/2+y,z
1/2-x,1/2+y,1/2-z
1/2-x,1/2-y,-z
1/2+x,1/2-y,1/2+z
loop_
_atom_site_type_symbol
_atom_site_label
_atom_site_fract_x
_atom_site_fract_y
_atom_site_fract_z
Si Si1 0.190959 0.722711 0.176321
Si Si2 0.695934 0.650903 0.992921
Si Si3 0.456150 0.282868 0.487501
Si Si4 0.913459 0.917474 0.680815
Si Si5 0.729810 0.483429 0.343890
O O1 0.233486 0.660877 0.305166
O O2 0.181372 0.778238 0.377135
O O3 0.108476 0.725439 0.033229
O O4 0.250000 0.750000 0.000000
O O5 0.621938 0.622917 0.107826
O O6 0.718462 0.594847 0.814032
O O7 0.500000 0.277271 0.250000
O O8 0.421665 0.358328 0.491269
O O9 0.500000 0.277098 0.750000
O O10 0.000000 0.942821 0.750000
O O11 0.851110 0.976058 0.634833
O O12 0.767308 0.491993 0.611969
#
# Coordination Sequence:
#
# PCOD9272430 Si02
#       5
#     8   8   8   8   8
#     4  11  21  37  61  78 114 157 200 255 293 339
#     4  10  22  36  55  83 111 158 207 239 292 339
#     4  11  23  38  59  87 118 157 204 241 289 346
#     4  10  20  37  56  82 121 163 195 232 279 346
#     4  10  22  36  52  77 115 150 193 236 274 339
#
# _framework density 20.102589999999999
#
# number of rings (size 3 to 8) (size 9 to 14) (size 15 to 20)
#    0.000    1.600    2.000    3.600    5.600    6.400 
#    0.000    2.000    0.000    0.000    0.000    0.000 
#    0.000   19.200    0.000    0.000    0.000    0.000 
#
# Total GULP energy -111453.763414 kJ/mol
# GULP energy per Si atom -5572.688171 kJ/mol
# Density = 2.005684 g / cm^3
# Si number density = 20.102590 Si / 1000 Ang^3
#
#
#
# Elastic Constant Matrix: (Units=GPa)
#
#
# Indices 1 2 3 4 5 6 
#
# 1 39.8745 4.6610 28.9236 0.0000 7.0311 0.0000
# 2 4.6610 34.0857 13.5598 0.0000 9.9517 0.0000
# 3 28.9236 13.5598 114.0497 0.0000 6.6232 0.0000
# 4 0.0000 0.0000 0.0000 37.1598 0.0000 16.0088
# 5 7.0311 9.9517 6.6232 0.0000 33.1437 0.0000
# 6 0.0000 0.0000 0.0000 16.0088 0.0000 21.1153
#
#
#
# Elastic Compliance Matrix: (Units=1/GPa)
#
#
# Indices 1 2 3 4 5 6 
#
# 1 0.031583 0.000290 -0.007740 0.000000 -0.005240 0.000000
# 2 0.000290 0.033436 -0.003503 0.000000 -0.009401 0.000000
# 3 -0.007740 -0.003503 0.011120 0.000000 0.000472 0.000000
# 4 0.000000 0.000000 0.000000 0.039964 0.000000 -0.030299
# 5 -0.005240 -0.009401 0.000472 0.000000 0.034012 0.000000
# 6 0.000000 0.000000 0.000000 -0.030299 0.000000 0.070330
#
#
# Mechanical properties :
#
#
# Convention : Reuss Voigt Hill
#
# Bulk Modulus (GPa) = 18.43849 31.36651 24.90250
# Shear Modulus (GPa) = 19.19910 27.67480 23.43695
#
# Velocity S-wave (km/s) = 3.09375 3.71439 3.41818
# Velocity P-wave (km/s) = 4.68549 5.83375 5.29086
#
# Compressibility (1/GPa) = 0.05423437
#
# Stress axis : x y z
#
# Youngs Moduli (GPa) = 31.66264 29.90747 89.92763
#
# Poissons Ratio (x) = -0.00868 0.69602
# Poissons Ratio (y) = -0.00919 0.31502
# Poissons Ratio (z) = 0.24506 0.10477
#
# Static dielectric constant tensor:
#      x y z
#    x 1.779560 0.000000 0.080810 
#    y 0.000000 1.735660 0.000000 
#    z 0.080810 0.000000 1.830360 
# 
# From -- ./inp_files/9859.got.cif
#   From: 2010.05.17/outbox.cif.g08.bks.cpg/sg15_5_cif.got.tgz:9859.got - 2010.06.03 18:47:42.
