data_PCOD9272981
_publ_section_title
;
Structure prediction by ZEFSAII (Michael W. Deem and Ramdas Pophale) SiO2 
 PCOD9272981
Probable space group: C 2/C
;
_chemical_formula_sum "Si O2"
_cell_formula_units_Z 44
_cell_length_a 15.840024
_cell_length_b 7.609323
_cell_length_c 14.223261
_cell_angle_alpha 90.000000
_cell_angle_beta 108.128160
_cell_angle_gamma 90.000000
_cell_volume 1629.260465
_symmetry_space_group_name_H-M "C 2/C"
_symmetry_group_IT_number 15
_symmetry_cell_setting 'monoclinic'
loop_
_space_group_symop_operation_xyz
x,y,z
-x,y,1/2-z
-x,-y,-z
x,-y,1/2+z
1/2+x,1/2+y,z
1/2-x,1/2+y,1/2-z
1/2-x,1/2-y,-z
1/2+x,1/2-y,1/2+z
loop_
_atom_site_type_symbol
_atom_site_label
_atom_site_fract_x
_atom_site_fract_y
_atom_site_fract_z
Si Si1 0.327528 0.529928 0.709022
Si Si2 0.660538 0.944465 0.401039
Si Si3 0.500000 0.224495 0.250000
Si Si4 0.632294 0.836462 0.191039
Si Si5 0.850586 0.903057 0.512384
Si Si6 0.926785 0.276444 0.528569
O O1 0.408704 0.663262 0.726713
O O2 0.362337 0.370179 0.784265
O O3 0.232941 0.606408 0.703821
O O4 0.313873 0.445161 0.602785
O O5 0.609499 0.932152 0.283012
O O6 0.764388 0.906689 0.417033
O O7 0.621240 0.798170 0.459705
O O8 0.658432 0.130394 0.452270
O O9 0.505827 0.170129 0.364399
O O10 0.573661 0.850560 0.077038
O O11 0.915900 0.065160 0.516401
#
# Coordination Sequence:
#
# PCOD9272981 Si02
#       6
#     8   8   4   8   8   8
#     4  10  22  41  66 104 130 174 225 280 331 409
#     4  10  20  37  62 102 128 164 227 288 320 391
#     4  10  26  42  66  92 146 186 212 274 362 388
#     4  11  23  38  73 102 128 173 243 274 324 405
#     4   9  19  36  62  93 129 170 212 276 332 384
#     4  11  22  43  65  93 135 185 216 277 341 401
#
# _framework density 27.006115999999999
#
# number of rings (size 3 to 8) (size 9 to 14) (size 15 to 20)
#    0.000    1.818    1.818    1.636    7.636    0.727 
#    0.000    9.091    0.000    0.000    0.000    0.000 
#    0.000    0.000    0.000    0.000    0.000    0.000 
#
# Total GULP energy -122795.553747 kJ/mol
# GULP energy per Si atom -5581.616079 kJ/mol
# Density = 2.694465 g / cm^3
# Si number density = 27.006116 Si / 1000 Ang^3
#
#
#
# Elastic Constant Matrix: (Units=GPa)
#
#
# Indices 1 2 3 4 5 6 
#
# 1 67.3366 25.1321 22.4025 0.0000 6.2370 0.0000
# 2 25.1321 120.2882 42.9410 0.0000 -14.4132 0.0000
# 3 22.4025 42.9410 254.7405 0.0000 11.1593 0.0000
# 4 0.0000 0.0000 0.0000 45.4587 0.0000 -12.7453
# 5 6.2370 -14.4132 11.1593 0.0000 28.1584 0.0000
# 6 0.0000 0.0000 0.0000 -12.7453 0.0000 10.2018
#
#
#
# Elastic Compliance Matrix: (Units=1/GPa)
#
#
# Indices 1 2 3 4 5 6 
#
# 1 0.017068 -0.004034 -0.000575 0.000000 -0.005617 0.000000
# 2 -0.004034 0.010619 -0.001743 0.000000 0.007020 0.000000
# 3 -0.000575 -0.001743 0.004379 0.000000 -0.002500 0.000000
# 4 0.000000 0.000000 0.000000 0.033857 0.000000 0.042298
# 5 -0.005617 0.007020 -0.002500 0.000000 0.041342 0.000000
# 6 0.000000 0.000000 0.000000 0.042298 0.000000 0.150865
#
#
# Mechanical properties :
#
#
# Convention : Reuss Voigt Hill
#
# Bulk Modulus (GPa) = 51.64360 69.25737 60.45049
# Shear Modulus (GPa) = 18.03179 40.22312 29.12746
#
# Velocity S-wave (km/s) = 2.58678 3.86347 3.28769
# Velocity P-wave (km/s) = 5.29966 6.75297 6.06997
#
# Compressibility (1/GPa) = 0.01936348
#
# Stress axis : x y z
#
# Youngs Moduli (GPa) = 58.58948 94.16644 228.33924
#
# Poissons Ratio (x) = 0.37986 0.13128
# Poissons Ratio (y) = 0.23634 0.39797
# Poissons Ratio (z) = 0.03368 0.16412
#
# Static dielectric constant tensor:
#      x y z
#    x 2.081700 0.000000 0.041870 
#    y 0.000000 2.229160 0.000000 
#    z 0.041870 0.000000 2.178400 
# 
# From -- ./inp_files/159823.got.cif
#   From: 2010.05.17/outbox.cif.g08.bks.cpg/sg15_80_cif.got.tgz:159823.got - 2010.06.03 18:47:42.
