data_PCOD9272264
_publ_section_title
;
Structure prediction by ZEFSAII (Michael W. Deem and Ramdas Pophale) SiO2 
 PCOD9272264
Probable space group: C 2/C
;
_chemical_formula_sum "Si O2"
_cell_formula_units_Z 40
_cell_length_a 12.129287
_cell_length_b 14.986823
_cell_length_c 10.272358
_cell_angle_alpha 90.000000
_cell_angle_beta 119.590801
_cell_angle_gamma 90.000000
_cell_volume 1623.759309
_symmetry_space_group_name_H-M "C 2/C"
_symmetry_group_IT_number 15
_symmetry_cell_setting 'monoclinic'
loop_
_space_group_symop_operation_xyz
x,y,z
-x,y,1/2-z
-x,-y,-z
x,-y,1/2+z
1/2+x,1/2+y,z
1/2-x,1/2+y,1/2-z
1/2-x,1/2-y,-z
1/2+x,1/2-y,1/2+z
loop_
_atom_site_type_symbol
_atom_site_label
_atom_site_fract_x
_atom_site_fract_y
_atom_site_fract_z
Si Si1 0.747979 0.876101 0.900976
Si Si2 0.236699 0.067961 0.670566
Si Si3 0.631114 0.697233 0.775847
Si Si4 0.878942 0.310535 0.079569
Si Si5 0.551204 0.096730 0.495474
O O1 0.731328 0.779281 0.825802
O O2 0.786281 0.962659 0.840730
O O3 0.836950 0.862325 0.077247
O O4 0.614064 0.898697 0.891765
O O5 0.122179 0.133655 0.643558
O O6 0.312213 0.096766 0.585990
O O7 0.333048 0.102543 0.836247
O O8 0.500000 0.736281 0.750000
O O9 0.000000 0.288413 0.250000
O O10 0.947934 0.330766 0.982386
O O11 0.750000 0.250000 0.000000
O O12 0.500000 0.000000 0.500000
#
# Coordination Sequence:
#
# PCOD9272264 Si02
#       5
#     8   8   8   8   8
#     4  10  22  42  65  93 129 171 222 275 326 400
#     4  10  22  40  63  97 130 169 225 277 329 397
#     4  10  24  41  65  94 128 176 218 267 339 407
#     4  10  22  39  62 100 141 173 222 282 335 404
#     4  10  20  36  66  96 121 166 223 275 329 385
#
# _framework density 24.634194000000001
#
# number of rings (size 3 to 8) (size 9 to 14) (size 15 to 20)
#    0.000    2.000    2.000    0.000    5.600    0.800 
#    0.000    1.000    0.000    0.000    0.000    0.000 
#    0.000    0.000    0.000    0.000    0.000    0.000 
#
# Total GULP energy -111374.962265 kJ/mol
# GULP energy per Si atom -5568.748113 kJ/mol
# Density = 2.457813 g / cm^3
# Si number density = 24.634194 Si / 1000 Ang^3
#
#
#
# Elastic Constant Matrix: (Units=GPa)
#
#
# Indices 1 2 3 4 5 6 
#
# 1 76.5000 49.9679 -5.1963 0.0000 -6.9601 0.0000
# 2 49.9679 188.3169 7.4464 0.0000 -14.3504 0.0000
# 3 -5.1963 7.4464 19.3977 0.0000 -0.5525 0.0000
# 4 0.0000 0.0000 0.0000 31.3425 0.0000 -5.4315
# 5 -6.9601 -14.3504 -0.5525 0.0000 32.4785 0.0000
# 6 0.0000 0.0000 0.0000 -5.4315 0.0000 48.2466
#
#
#
# Elastic Compliance Matrix: (Units=1/GPa)
#
#
# Indices 1 2 3 4 5 6 
#
# 1 0.016602 -0.004525 0.006232 0.000000 0.001665 0.000000
# 2 -0.004525 0.006810 -0.003770 0.000000 0.001975 0.000000
# 3 0.006232 -0.003770 0.054686 0.000000 0.000600 0.000000
# 4 0.000000 0.000000 0.000000 0.032540 0.000000 0.003663
# 5 0.001665 0.001975 0.000600 0.000000 0.032029 0.000000
# 6 0.000000 0.000000 0.000000 0.003663 0.000000 0.021139
#
#
# Mechanical properties :
#
#
# Convention : Reuss Voigt Hill
#
# Bulk Modulus (GPa) = 13.51853 43.18340 28.35096
# Shear Modulus (GPa) = 25.96164 37.87995 31.92079
#
# Velocity S-wave (km/s) = 3.24988 3.92560 3.60362
# Velocity P-wave (km/s) = 4.42515 6.17374 5.37108
#
# Compressibility (1/GPa) = 0.07397255
#
# Stress axis : x y z
#
# Youngs Moduli (GPa) = 60.23334 146.83413 18.28607
#
# Poissons Ratio (x) = 0.66439 -0.11396
# Poissons Ratio (y) = 0.27254 0.06894
# Poissons Ratio (z) = -0.37536 0.55360
#
# Static dielectric constant tensor:
#      x y z
#    x -5.282120 0.000000 -2.821690 
#    y 0.000000 2.220830 0.000000 
#    z -2.821690 0.000000 0.911780 
# 
# From -- ./inp_files/86261.got.cif
#   From: 2010.05.17/outbox.cif.g08.bks.cpg/sg15_44_cif.got.tgz:86261.got - 2010.06.03 18:47:42.
