data_PCOD9272533
_publ_section_title
;
Structure prediction by ZEFSAII (Michael W. Deem and Ramdas Pophale) SiO2 
 PCOD9272533
Probable space group: C 2/C
;
_chemical_formula_sum "Si O2"
_cell_formula_units_Z 56
_cell_length_a 13.251964
_cell_length_b 17.782796
_cell_length_c 17.562255
_cell_angle_alpha 90.000000
_cell_angle_beta 136.908863
_cell_angle_gamma 90.000000
_cell_volume 2827.375707
_symmetry_space_group_name_H-M "C 2/C"
_symmetry_group_IT_number 15
_symmetry_cell_setting 'monoclinic'
loop_
_space_group_symop_operation_xyz
x,y,z
-x,y,1/2-z
-x,-y,-z
x,-y,1/2+z
1/2+x,1/2+y,z
1/2-x,1/2+y,1/2-z
1/2-x,1/2-y,-z
1/2+x,1/2-y,1/2+z
loop_
_atom_site_type_symbol
_atom_site_label
_atom_site_fract_x
_atom_site_fract_y
_atom_site_fract_z
Si Si1 0.928348 0.863582 0.411355
Si Si2 0.139037 0.693697 0.673857
Si Si3 0.437211 0.103773 0.299336
Si Si4 0.083750 0.018721 0.720204
Si Si5 0.633513 0.221155 0.497396
Si Si6 0.072207 0.460718 0.111575
Si Si7 0.596545 0.636705 0.154173
O O1 0.021855 0.790127 0.443361
O O2 0.973452 0.879795 0.522379
O O3 0.762465 0.838623 0.299025
O O4 0.973975 0.933841 0.383769
O O5 0.194523 0.705898 0.616420
O O6 0.024272 0.624713 0.601624
O O7 0.084949 0.775648 0.670196
O O8 0.500000 0.117471 0.250000
O O9 0.540147 0.151047 0.413826
O O10 0.264601 0.126615 0.213816
O O11 0.446670 0.016326 0.327727
O O12 0.077408 0.929117 0.704761
O O13 0.000000 0.041507 0.750000
O O14 0.255366 0.040340 0.815860
O O15 0.750000 0.250000 0.500000
O O16 0.000000 0.500000 0.000000
#
# Coordination Sequence:
#
# PCOD9272533 Si02
#       7
#     8   8   8   8   8   8   8
#     4  10  21  35  56  81 117 149 192 235 293 352
#     4  10  20  37  58  82 109 156 196 236 288 354
#     4  11  21  36  54  84 120 148 188 239 299 348
#     4  10  23  37  60  86 117 158 201 243 288 352
#     4  11  22  31  55  87 119 147 183 241 298 358
#     4  10  21  38  59  82 115 158 195 236 295 352
#     4  10  21  39  58  84 118 153 193 246 295 342
#
# _framework density 19.806352
#
# number of rings (size 3 to 8) (size 9 to 14) (size 15 to 20)
#    0.000    1.714    2.857    2.143    4.000    1.143 
#    0.000    0.714    0.000    1.714    0.000    0.000 
#    0.000    0.000    0.000    0.000    0.000    0.000 
#
# Total GULP energy -156108.757969 kJ/mol
# GULP energy per Si atom -5575.312785 kJ/mol
# Density = 1.976127 g / cm^3
# Si number density = 19.806352 Si / 1000 Ang^3
#
#
#
# Elastic Constant Matrix: (Units=GPa)
#
#
# Indices 1 2 3 4 5 6 
#
# 1 15.3618 -7.8783 -2.0815 0.0000 1.9513 0.0000
# 2 -7.8783 144.6954 4.4404 0.0000 -4.1576 0.0000
# 3 -2.0815 4.4404 70.7612 0.0000 1.6777 0.0000
# 4 0.0000 0.0000 0.0000 30.7239 0.0000 -9.4745
# 5 1.9513 -4.1576 1.6777 0.0000 5.9610 0.0000
# 6 0.0000 0.0000 0.0000 -9.4745 0.0000 8.7829
#
#
#
# Elastic Compliance Matrix: (Units=1/GPa)
#
#
# Indices 1 2 3 4 5 6 
#
# 1 0.069719 0.003111 0.002361 0.000000 -0.021317 0.000000
# 2 0.003111 0.007214 -0.000459 0.000000 0.004142 0.000000
# 3 0.002361 -0.000459 0.014352 0.000000 -0.005133 0.000000
# 4 0.000000 0.000000 0.000000 0.048773 0.000000 0.052613
# 5 -0.021317 0.004142 -0.005133 0.000000 0.179068 0.000000
# 6 0.000000 0.000000 0.000000 0.052613 0.000000 0.170614
#
#
# Mechanical properties :
#
#
# Convention : Reuss Voigt Hill
#
# Bulk Modulus (GPa) = 9.87064 24.41995 17.14529
# Shear Modulus (GPa) = 9.73739 24.84941 17.29340
#
# Velocity S-wave (km/s) = 2.21968 3.54590 2.95807
# Velocity P-wave (km/s) = 3.40054 5.39636 4.51023
#
# Compressibility (1/GPa) = 0.10131057
#
# Stress axis : x y z
#
# Youngs Moduli (GPa) = 14.34319 138.62747 69.67670
#
# Poissons Ratio (x) = -0.43128 -0.16451
# Poissons Ratio (y) = -0.04462 0.03201
# Poissons Ratio (z) = -0.03386 0.06368
#
# Static dielectric constant tensor:
#      x y z
#    x 1.632250 0.000000 -0.038220 
#    y 0.000000 1.771860 0.000000 
#    z -0.038220 0.000000 1.734290 
# 
# From -- ./inp_files/206241.got.cif
#   From: 2010.05.17/outbox.cif.g08.bks.cpg/sg15_104_cif.got.tgz:206241.got - 2010.06.03 18:47:42.
