data_PCOD9272354
_publ_section_title
;
Structure prediction by ZEFSAII (Michael W. Deem and Ramdas Pophale) SiO2 
 PCOD9272354
Probable space group: C 2/C
;
_chemical_formula_sum "Si O2"
_cell_formula_units_Z 56
_cell_length_a 19.874460
_cell_length_b 18.390462
_cell_length_c 7.527009
_cell_angle_alpha 90.000000
_cell_angle_beta 80.920075
_cell_angle_gamma 90.000000
_cell_volume 2716.651651
_symmetry_space_group_name_H-M "C 2/C"
_symmetry_group_IT_number 15
_symmetry_cell_setting 'monoclinic'
loop_
_space_group_symop_operation_xyz
x,y,z
-x,y,1/2-z
-x,-y,-z
x,-y,1/2+z
1/2+x,1/2+y,z
1/2-x,1/2+y,1/2-z
1/2-x,1/2-y,-z
1/2+x,1/2-y,1/2+z
loop_
_atom_site_type_symbol
_atom_site_label
_atom_site_fract_x
_atom_site_fract_y
_atom_site_fract_z
Si Si1 0.213618 0.903898 0.019744
Si Si2 0.277868 0.822715 0.304256
Si Si3 0.159623 0.038086 0.210268
Si Si4 0.010592 0.782913 0.533459
Si Si5 0.343853 0.217773 0.108611
Si Si6 0.862385 0.756648 0.478649
Si Si7 0.557470 0.437609 0.469469
O O1 0.265155 0.881959 0.156099
O O2 0.156957 0.839483 0.066279
O O3 0.202732 0.989160 0.060927
O O4 0.207512 0.910912 0.807858
O O5 0.317790 0.838066 0.469792
O O6 0.205810 0.787931 0.393395
O O7 0.320686 0.763361 0.172809
O O8 0.099406 0.079428 0.132601
O O9 0.114891 0.973620 0.322705
O O10 0.078542 0.738079 0.464130
O O11 0.021940 0.862256 0.442414
O O12 0.000000 0.788794 0.750000
O O13 0.941923 0.749967 0.480997
O O14 0.338943 0.205669 0.323250
O O15 0.500000 0.500000 0.500000
#
# Coordination Sequence:
#
# PCOD9272354 Si02
#       7
#     8   8   8   8   8   8   8
#     4  10  20  37  52  76 108 148 191 239 274 333
#     4  10  21  39  57  79 110 150 197 237 291 337
#     4  10  21  33  48  73 106 147 202 227 268 318
#     4  12  21  33  52  78 115 147 189 232 276 334
#     4  10  21  35  54  80 103 146 188 235 285 336
#     4  11  21  37  57  83 111 153 193 235 287 337
#     4  11  20  31  46  70 107 155 190 226 262 313
#
# _framework density 20.613610999999999
#
# number of rings (size 3 to 8) (size 9 to 14) (size 15 to 20)
#    0.000    1.429    1.429    7.714    0.000    1.143 
#    7.714    0.000    0.000    0.000    0.000    0.000 
#    0.000    4.571    0.000    0.857    0.000    0.000 
#
# Total GULP energy -155868.665653 kJ/mol
# GULP energy per Si atom -5566.738059 kJ/mol
# Density = 2.056669 g / cm^3
# Si number density = 20.613611 Si / 1000 Ang^3
#
#
#
# Elastic Constant Matrix: (Units=GPa)
#
#
# Indices 1 2 3 4 5 6 
#
# 1 84.1325 15.8536 30.6455 0.0000 21.6598 0.0000
# 2 15.8536 26.2963 12.3408 0.0000 14.1628 0.0000
# 3 30.6455 12.3408 109.7943 0.0000 24.6201 0.0000
# 4 0.0000 0.0000 0.0000 31.7639 0.0000 11.0416
# 5 21.6598 14.1628 24.6201 0.0000 41.4258 0.0000
# 6 0.0000 0.0000 0.0000 11.0416 0.0000 19.7658
#
#
#
# Elastic Compliance Matrix: (Units=1/GPa)
#
#
# Indices 1 2 3 4 5 6 
#
# 1 0.014994 -0.005433 -0.002576 0.000000 -0.004451 0.000000
# 2 -0.005433 0.048934 -0.001003 0.000000 -0.013293 0.000000
# 3 -0.002576 -0.001003 0.011031 0.000000 -0.004866 0.000000
# 4 0.000000 0.000000 0.000000 0.039069 0.000000 -0.021825
# 5 -0.004451 -0.013293 -0.004866 0.000000 0.033903 0.000000
# 6 0.000000 0.000000 0.000000 -0.021825 0.000000 0.062784
#
#
# Mechanical properties :
#
#
# Convention : Reuss Voigt Hill
#
# Bulk Modulus (GPa) = 17.56427 37.54475 27.55451
# Shear Modulus (GPa) = 20.18426 29.35000 24.76713
#
# Velocity S-wave (km/s) = 3.13257 3.77744 3.47002
# Velocity P-wave (km/s) = 4.65007 6.10562 5.42686
#
# Compressibility (1/GPa) = 0.05693376
#
# Stress axis : x y z
#
# Youngs Moduli (GPa) = 66.69237 20.43581 90.65452
#
# Poissons Ratio (x) = 0.11104 0.23356
# Poissons Ratio (y) = 0.36237 0.09091
# Poissons Ratio (z) = 0.17182 0.02049
#
# Static dielectric constant tensor:
#      x y z
#    x 1.774560 0.000000 0.007460 
#    y 0.000000 1.502910 0.000000 
#    z 0.007460 0.000000 1.911020 
# 
# From -- ./inp_files/56127.got.cif
#   From: 2010.05.17/outbox.cif.g08.bks.cpg/sg15_29_cif.got.tgz:56127.got - 2010.06.03 18:47:42.
