data_PCOD9272219
_publ_section_title
;
Structure prediction by ZEFSAII (Michael W. Deem and Ramdas Pophale) SiO2 
 PCOD9272219
Probable space group: C 2/C
;
_chemical_formula_sum "Si O2"
_cell_formula_units_Z 60
_cell_length_a 8.944047
_cell_length_b 22.726266
_cell_length_c 28.346933
_cell_angle_alpha 90.000000
_cell_angle_beta 150.346251
_cell_angle_gamma 90.000000
_cell_volume 2850.758735
_symmetry_space_group_name_H-M "C 2/C"
_symmetry_group_IT_number 15
_symmetry_cell_setting 'monoclinic'
loop_
_space_group_symop_operation_xyz
x,y,z
-x,y,1/2-z
-x,-y,-z
x,-y,1/2+z
1/2+x,1/2+y,z
1/2-x,1/2+y,1/2-z
1/2-x,1/2-y,-z
1/2+x,1/2-y,1/2+z
loop_
_atom_site_type_symbol
_atom_site_label
_atom_site_fract_x
_atom_site_fract_y
_atom_site_fract_z
Si Si1 0.127139 0.572063 0.010880
Si Si2 0.501767 0.402015 0.383958
Si Si3 0.190341 0.714216 0.756901
Si Si4 0.719620 0.368182 0.079868
Si Si5 0.755191 0.522744 0.220752
Si Si6 0.640960 0.029423 0.656161
Si Si7 0.500000 0.773621 0.750000
Si Si8 0.905860 0.186053 0.045309
O O1 0.432683 0.552310 0.120808
O O2 0.186134 0.636487 0.005270
O O3 0.840928 0.582479 0.964768
O O4 0.015570 0.527238 0.938571
O O5 0.384643 0.339618 0.332068
O O6 0.458317 0.399289 0.427572
O O7 0.301172 0.453841 0.306724
O O8 0.404927 0.741967 0.774214
O O9 0.000000 0.743025 0.750000
O O10 0.917499 0.685512 0.653081
O O11 0.957818 0.415593 0.126488
O O12 0.512097 0.340250 0.983081
O O13 0.866242 0.521921 0.305772
O O14 0.000000 0.544825 0.250000
O O15 0.000000 0.042219 0.750000
O O16 0.797886 0.809636 0.842715
O O17 0.750000 0.250000 0.000000
#
# Coordination Sequence:
#
# PCOD9272219 Si02
#       8
#     8   8   8   8   8   8   4   8
#     4  11  26  41  65  97 132 175 225 272 330 413
#     4  11  20  40  66 100 129 161 219 286 327 390
#     4  10  20  36  66 100 125 162 224 281 332 393
#     4  10  20  39  63  99 126 165 223 276 323 387
#     4  12  23  41  65  94 136 173 212 272 340 401
#     4  11  21  37  65  95 125 167 224 264 323 399
#     4  12  24  42  68  90 138 176 214 286 348 390
#     4  11  24  44  66  96 127 176 227 269 333 397
#
# _framework density 21.047028000000001
#
# number of rings (size 3 to 8) (size 9 to 14) (size 15 to 20)
#    0.000    1.067    5.333    1.600    3.733    0.533 
#    2.400    2.000    0.000    0.000    0.000    0.000 
#    0.000    0.000    0.000    0.000    0.000    0.000 
#
# Total GULP energy -167190.579490 kJ/mol
# GULP energy per Si atom -5573.019316 kJ/mol
# Density = 2.099912 g / cm^3
# Si number density = 21.047028 Si / 1000 Ang^3
#
#
#
# Elastic Constant Matrix: (Units=GPa)
#
#
# Indices 1 2 3 4 5 6 
#
# 1 122.4426 30.1363 6.6958 -0.0071 10.9723 0.0047
# 2 30.1363 54.8376 24.8713 -0.0059 -6.5986 -0.0001
# 3 6.6958 24.8713 79.6135 -0.0163 10.3595 -0.0002
# 4 -0.0071 -0.0059 -0.0163 32.6734 -0.0046 -0.7210
# 5 10.9723 -6.5986 10.3595 -0.0046 27.8046 0.0062
# 6 0.0047 -0.0001 -0.0002 -0.7210 0.0062 8.6487
#
#
#
# Elastic Compliance Matrix: (Units=1/GPa)
#
#
# Indices 1 2 3 4 5 6 
#
# 1 0.010556 -0.007733 0.002426 0.000001 -0.006905 -0.000001
# 2 -0.007733 0.028699 -0.010088 0.000000 0.013621 -0.000005
# 3 0.002426 -0.010088 0.016757 0.000006 -0.009595 0.000006
# 4 0.000001 0.000000 0.000006 0.030662 0.000002 0.002556
# 5 -0.006905 0.013621 -0.009595 0.000002 0.045497 -0.000028
# 6 -0.000001 -0.000005 0.000006 0.002556 -0.000028 0.115838
#
#
# Mechanical properties :
#
#
# Convention : Reuss Voigt Hill
#
# Bulk Modulus (GPa) = 39.64446 42.25563 40.95004
# Shear Modulus (GPa) = 17.40909 26.83800 22.12355
#
# Velocity S-wave (km/s) = 2.87915 3.57479 3.24566
# Velocity P-wave (km/s) = 5.47080 6.09583 5.79175
#
# Compressibility (1/GPa) = 0.02522420
#
# Stress axis : x y z
#
# Youngs Moduli (GPa) = 94.72952 34.84388 59.67819
#
# Poissons Ratio (x) = 0.26943 -0.14480
# Poissons Ratio (y) = 0.73251 0.60202
# Poissons Ratio (z) = -0.22984 0.35150
#
# Static dielectric constant tensor:
#      x y z
#    x 1.846060 0.000010 -0.049420 
#    y 0.000010 1.758050 -0.000030 
#    z -0.049420 -0.000030 1.719120 
# 
# From -- ./inp_files/290313.got.cif
#   From: 2010.05.17/outbox.cif.g08.bks.cpg/sg15_146_cif.got.tgz:290313.got - 2010.06.03 18:47:42.
