data_PCOD9272202
_publ_section_title
;
Structure prediction by ZEFSAII (Michael W. Deem and Ramdas Pophale) SiO2 
 PCOD9272202
Probable space group: C 2/C
;
_chemical_formula_sum "Si O2"
_cell_formula_units_Z 48
_cell_length_a 16.206760
_cell_length_b 10.362595
_cell_length_c 23.050329
_cell_angle_alpha 90.000000
_cell_angle_beta 32.800652
_cell_angle_gamma 90.000000
_cell_volume 2097.079722
_symmetry_space_group_name_H-M "C 2/C"
_symmetry_group_IT_number 15
_symmetry_cell_setting 'monoclinic'
loop_
_space_group_symop_operation_xyz
x,y,z
-x,y,1/2-z
-x,-y,-z
x,-y,1/2+z
1/2+x,1/2+y,z
1/2-x,1/2+y,1/2-z
1/2-x,1/2-y,-z
1/2+x,1/2-y,1/2+z
loop_
_atom_site_type_symbol
_atom_site_label
_atom_site_fract_x
_atom_site_fract_y
_atom_site_fract_z
Si Si1 0.263949 0.596502 0.986204
Si Si2 0.175872 0.497794 0.914283
Si Si3 0.759141 0.986193 0.109178
Si Si4 0.911915 0.133365 0.110488
Si Si5 0.382944 0.607563 0.702341
Si Si6 0.789505 0.258814 0.285276
O O1 0.195241 0.532633 0.969820
O O2 0.447168 0.581064 0.877720
O O3 0.250000 0.750000 0.000000
O O4 0.199846 0.528642 0.081984
O O5 0.268705 0.606258 0.823275
O O6 0.253795 0.361776 0.848487
O O7 0.000000 0.500000 0.000000
O O8 0.668545 0.883320 0.201203
O O9 0.811654 0.116661 0.111800
O O10 0.917606 0.906576 0.006375
O O11 0.910218 0.241357 0.161155
O O12 0.838983 0.016652 0.190571
O O13 0.360010 0.719351 0.668237
#
# Coordination Sequence:
#
# PCOD9272202 Si02
#       6
#     8   8   8   8   8   8
#     4  11  23  40  65  94 131 172 218 279 335 402
#     4  11  24  39  63  94 130 173 224 267 334 407
#     4   9  19  36  60  90 127 168 210 267 331 390
#     4   8  17  34  60  90 122 164 209 250 323 401
#     4   9  20  39  63  93 125 165 218 266 330 389
#     4  10  20  36  65  93 124 167 216 275 322 396
#
# _framework density 22.888973
#
# number of rings (size 3 to 8) (size 9 to 14) (size 15 to 20)
#    0.000    2.333    0.000    2.500    4.667    0.667 
#    0.000    0.000   11.000    0.000    0.000    0.000 
#    0.000    0.000    0.000    0.000    0.000    0.000 
#
# Total GULP energy -133732.039029 kJ/mol
# GULP energy per Si atom -5572.168293 kJ/mol
# Density = 2.283688 g / cm^3
# Si number density = 22.888973 Si / 1000 Ang^3
#
#
#
# Elastic Constant Matrix: (Units=GPa)
#
#
# Indices 1 2 3 4 5 6 
#
# 1 168.3422 49.6256 36.3095 0.0001 37.2779 0.0000
# 2 49.6256 93.4498 27.8265 0.0001 23.7638 0.0000
# 3 36.3095 27.8265 65.9955 0.0002 25.7988 0.0000
# 4 0.0001 0.0001 0.0002 34.7055 0.0000 15.9579
# 5 37.2779 23.7638 25.7988 0.0000 37.8685 0.0000
# 6 0.0000 0.0000 0.0000 15.9579 0.0000 33.3457
#
#
#
# Elastic Compliance Matrix: (Units=1/GPa)
#
#
# Indices 1 2 3 4 5 6 
#
# 1 0.008208 -0.002559 -0.001235 0.000000 -0.005633 0.000000
# 2 -0.002559 0.014001 -0.002788 0.000000 -0.004368 0.000000
# 3 -0.001235 -0.002788 0.021601 0.000000 -0.011751 0.000000
# 4 0.000000 0.000000 0.000000 0.036943 0.000000 -0.017679
# 5 -0.005633 -0.004368 -0.011751 0.000000 0.042699 0.000000
# 6 0.000000 0.000000 0.000000 -0.017679 0.000000 0.038450
#
#
# Mechanical properties :
#
#
# Convention : Reuss Voigt Hill
#
# Bulk Modulus (GPa) = 32.63029 61.70119 47.16574
# Shear Modulus (GPa) = 26.98602 35.45232 31.21917
#
# Velocity S-wave (km/s) = 3.43738 3.93985 3.69716
# Velocity P-wave (km/s) = 5.48096 6.90738 6.23509
#
# Compressibility (1/GPa) = 0.03064637
#
# Stress axis : x y z
#
# Youngs Moduli (GPa) = 121.82644 71.42562 46.29351
#
# Poissons Ratio (x) = 0.18276 0.05718
# Poissons Ratio (y) = 0.31172 0.12907
# Poissons Ratio (z) = 0.15047 0.19914
#
# Static dielectric constant tensor:
#      x y z
#    x 1.893030 0.000000 0.012330 
#    y 0.000000 1.393700 0.000000 
#    z 0.012330 0.000000 1.941200 
# 
# From -- ./inp_files/277205.got.cif
#   From: 2010.05.17/outbox.cif.g08.bks.cpg/sg15_139_cif.got.tgz:277205.got - 2010.06.03 18:47:42.
