data_PCOD9272083
_publ_section_title
;
Structure prediction by ZEFSAII (Michael W. Deem and Ramdas Pophale) SiO2 
 PCOD9272083
Probable space group: C 2/C
;
_chemical_formula_sum "Si O2"
_cell_formula_units_Z 64
_cell_length_a 7.347227
_cell_length_b 30.146473
_cell_length_c 14.829842
_cell_angle_alpha 90.000000
_cell_angle_beta 50.427989
_cell_angle_gamma 90.000000
_cell_volume 2531.931892
_symmetry_space_group_name_H-M "C 2/C"
_symmetry_group_IT_number 15
_symmetry_cell_setting 'monoclinic'
loop_
_space_group_symop_operation_xyz
x,y,z
-x,y,1/2-z
-x,-y,-z
x,-y,1/2+z
1/2+x,1/2+y,z
1/2-x,1/2+y,1/2-z
1/2-x,1/2-y,-z
1/2+x,1/2-y,1/2+z
loop_
_atom_site_type_symbol
_atom_site_label
_atom_site_fract_x
_atom_site_fract_y
_atom_site_fract_z
Si Si1 0.476720 0.297816 0.028328
Si Si2 0.040623 0.697657 0.003860
Si Si3 0.773395 0.914864 0.168091
Si Si4 0.887949 0.359480 0.694794
Si Si5 0.425399 0.386563 0.931748
Si Si6 0.985005 0.430560 0.964620
Si Si7 0.708547 0.671515 0.741457
Si Si8 0.254955 0.987397 0.186220
O O1 0.725029 0.304040 0.005380
O O2 0.277132 0.303258 0.168649
O O3 0.488066 0.247653 0.991680
O O4 0.433729 0.335617 0.967511
O O5 0.087079 0.670458 0.897259
O O6 0.844467 0.677209 0.132240
O O7 0.500000 0.899240 0.250000
O O8 0.877087 0.877124 0.200309
O O9 0.758593 0.963134 0.214762
O O10 0.901992 0.913777 0.032477
O O11 0.661063 0.387459 0.797310
O O12 0.075016 0.393175 0.589214
O O13 0.000000 0.339811 0.750000
O O14 0.209169 0.407773 0.943761
O O15 0.054432 0.474975 0.889126
O O16 0.807873 0.448201 0.096747
O O17 0.500000 0.694365 0.750000
O O18 0.000000 0.007689 0.250000
#
# Coordination Sequence:
#
# PCOD9272083 Si02
#       8
#     8   8   8   8   8   8   8   8
#     4   9  20  36  64  98 136 174 236 288 338 399
#     4  10  20  36  63  99 132 181 233 289 325 412
#     4  11  22  40  69  98 129 172 224 291 349 418
#     4  12  25  40  66  98 138 186 236 283 353 425
#     4  11  23  44  66  97 142 188 222 288 365 420
#     4  11  26  48  68  99 144 182 222 292 362 427
#     4   9  19  35  61  92 130 173 223 282 341 399
#     4  11  24  45  74 100 131 179 237 286 350 421
#
# _framework density 25.277139999999999
#
# number of rings (size 3 to 8) (size 9 to 14) (size 15 to 20)
#    0.000    1.500    2.500    2.250    3.500    1.000 
#    0.000    1.875    0.000    0.000    0.000    0.000 
#    0.000    0.000    0.000    0.000    0.000    0.000 
#
# Total GULP energy -178870.689783 kJ/mol
# GULP energy per Si atom -5589.709056 kJ/mol
# Density = 2.521961 g / cm^3
# Si number density = 25.277140 Si / 1000 Ang^3
#
#
#
# Elastic Constant Matrix: (Units=GPa)
#
#
# Indices 1 2 3 4 5 6 
#
# 1 59.3765 -0.9531 24.1042 0.0000 0.1770 0.0000
# 2 -0.9531 107.3015 30.6040 0.0000 19.5006 0.0000
# 3 24.1042 30.6040 138.9444 0.0000 16.7229 0.0000
# 4 0.0000 0.0000 0.0000 28.5624 0.0000 -2.8377
# 5 0.1770 19.5006 16.7229 0.0000 42.5173 0.0000
# 6 0.0000 0.0000 0.0000 -2.8377 0.0000 17.1151
#
#
#
# Elastic Compliance Matrix: (Units=1/GPa)
#
#
# Indices 1 2 3 4 5 6 
#
# 1 0.018273 0.001006 -0.003492 0.000000 0.000836 0.000000
# 2 0.001006 0.010650 -0.002028 0.000000 -0.004091 0.000000
# 3 -0.003492 -0.002028 0.008540 0.000000 -0.002414 0.000000
# 4 0.000000 0.000000 0.000000 0.035597 0.000000 0.005902
# 5 0.000836 -0.004091 -0.002414 0.000000 0.026342 0.000000
# 6 0.000000 0.000000 0.000000 0.005902 0.000000 0.059406
#
#
# Mechanical properties :
#
#
# Convention : Reuss Voigt Hill
#
# Bulk Modulus (GPa) = 35.16675 45.90361 40.53518
# Shear Modulus (GPa) = 28.19815 34.43012 31.31413
#
# Velocity S-wave (km/s) = 3.34362 3.69467 3.52352
# Velocity P-wave (km/s) = 5.37113 6.03327 5.71181
#
# Compressibility (1/GPa) = 0.02843595
#
# Stress axis : x y z
#
# Youngs Moduli (GPa) = 54.72536 93.89273 117.09249
#
# Poissons Ratio (x) = -0.09450 0.40892
# Poissons Ratio (y) = -0.05508 0.23747
# Poissons Ratio (z) = 0.19112 0.19042
#
# Static dielectric constant tensor:
#      x y z
#    x 2.122990 0.000000 -0.043130 
#    y 0.000000 1.967530 0.000000 
#    z -0.043130 0.000000 2.016950 
# 
# From -- ./inp_files/139796.got.cif
#   From: 2010.05.17/outbox.cif.g08.bks.cpg/sg15_70_cif.got.tgz:139796.got - 2010.06.03 18:47:42.
