data_PCOD9272168
_publ_section_title
;
Structure prediction by ZEFSAII (Michael W. Deem and Ramdas Pophale) SiO2 
 PCOD9272168
Probable space group: C 2/C
;
_chemical_formula_sum "Si O2"
_cell_formula_units_Z 44
_cell_length_a 24.927952
_cell_length_b 17.988901
_cell_length_c 5.194040
_cell_angle_alpha 90.000000
_cell_angle_beta 49.139327
_cell_angle_gamma 90.000000
_cell_volume 1761.538622
_symmetry_space_group_name_H-M "C 2/C"
_symmetry_group_IT_number 15
_symmetry_cell_setting 'monoclinic'
loop_
_space_group_symop_operation_xyz
x,y,z
-x,y,1/2-z
-x,-y,-z
x,-y,1/2+z
1/2+x,1/2+y,z
1/2-x,1/2+y,1/2-z
1/2-x,1/2-y,-z
1/2+x,1/2-y,1/2+z
loop_
_atom_site_type_symbol
_atom_site_label
_atom_site_fract_x
_atom_site_fract_y
_atom_site_fract_z
Si Si1 0.648428 0.950155 0.160931
Si Si2 0.758278 0.300438 0.217940
Si Si3 0.385426 0.341056 0.745342
Si Si4 0.500000 0.711870 0.250000
Si Si5 0.815153 0.050399 0.141264
Si Si6 0.593887 0.812808 0.575510
O O1 0.590819 0.886204 0.408899
O O2 0.640133 0.011284 0.411712
O O3 0.731850 0.922762 0.908445
O O4 0.750000 0.250000 0.500000
O O5 0.692699 0.355898 0.396287
O O6 0.750000 0.250000 0.000000
O O7 0.837010 0.331964 0.971120
O O8 0.449969 0.343033 0.738322
O O9 0.375121 0.387018 0.513807
O O10 0.387518 0.253871 0.675162
O O11 0.461398 0.769976 0.567510
O O12 0.825186 0.992814 0.344853
#
# Coordination Sequence:
#
# PCOD9272168 Si02
#       6
#     8   8   8   4   8   8
#     4  10  23  42  69 105 140 174 223 289 354 410
#     4  10  20  36  64  98 126 166 221 283 340 384
#     4  11  24  43  69 102 138 182 232 291 340 408
#     4  12  26  42  68  98 144 182 244 280 338 410
#     4  10  23  42  69 105 140 174 223 289 354 410
#     4  11  24  43  69 102 138 182 232 291 340 408
#
# _framework density 24.978162000000001
#
# number of rings (size 3 to 8) (size 9 to 14) (size 15 to 20)
#    0.000    1.455    3.636    0.545    5.091    0.000 
#    0.000    1.818    0.000    0.000    0.000    0.000 
#    0.000    0.000    0.000    0.000    0.000    0.000 
#
# Total GULP energy -122783.803338 kJ/mol
# GULP energy per Si atom -5581.081970 kJ/mol
# Density = 2.492131 g / cm^3
# Si number density = 24.978162 Si / 1000 Ang^3
#
#
#
# Elastic Constant Matrix: (Units=GPa)
#
#
# Indices 1 2 3 4 5 6 
#
# 1 92.5459 11.0864 17.8557 0.0000 -1.8043 0.0000
# 2 11.0864 106.6447 9.9548 0.0000 13.1434 0.0000
# 3 17.8557 9.9548 73.2344 0.0000 14.0242 0.0000
# 4 0.0000 0.0000 0.0000 28.2337 0.0000 18.5157
# 5 -1.8043 13.1434 14.0242 0.0000 43.3765 0.0000
# 6 0.0000 0.0000 0.0000 18.5157 0.0000 24.9108
#
#
#
# Elastic Compliance Matrix: (Units=1/GPa)
#
#
# Indices 1 2 3 4 5 6 
#
# 1 0.011558 -0.001143 -0.003007 0.000000 0.001799 0.000000
# 2 -0.001143 0.009899 -0.000515 0.000000 -0.002880 0.000000
# 3 -0.003007 -0.000515 0.015406 0.000000 -0.004950 0.000000
# 4 0.000000 0.000000 0.000000 0.069102 0.000000 -0.051362
# 5 0.001799 -0.002880 -0.004950 0.000000 0.025602 0.000000
# 6 0.000000 0.000000 0.000000 -0.051362 0.000000 0.078319
#
#
# Mechanical properties :
#
#
# Convention : Reuss Voigt Hill
#
# Bulk Modulus (GPa) = 36.32122 38.91319 37.61721
# Shear Modulus (GPa) = 21.89209 34.87274 28.38241
#
# Velocity S-wave (km/s) = 2.96370 3.74053 3.37455
# Velocity P-wave (km/s) = 5.12680 5.85390 5.50238
#
# Compressibility (1/GPa) = 0.02753211
#
# Stress axis : x y z
#
# Youngs Moduli (GPa) = 86.52325 101.02233 64.91012
#
# Poissons Ratio (x) = 0.11542 0.19519
# Poissons Ratio (y) = 0.09885 0.03346
# Poissons Ratio (z) = 0.26019 0.05207
#
# Static dielectric constant tensor:
#      x y z
#    x 2.120710 0.000000 -0.044550 
#    y 0.000000 2.030670 0.000000 
#    z -0.044550 0.000000 2.096010 
# 
# From -- ./inp_files/12864.got.cif
#   From: 2010.05.17/outbox.cif.g08.bks.cpg/sg15_7_cif.got.tgz:12864.got - 2010.06.03 18:47:42.
