data_PCOD9272879
_publ_section_title
;
Structure prediction by ZEFSAII (Michael W. Deem and Ramdas Pophale) SiO2 
 PCOD9272879
Probable space group: C 2/C
;
_chemical_formula_sum "Si O2"
_cell_formula_units_Z 64
_cell_length_a 14.509504
_cell_length_b 19.314305
_cell_length_c 11.398671
_cell_angle_alpha 90.000000
_cell_angle_beta 66.560275
_cell_angle_gamma 90.000000
_cell_volume 2930.771953
_symmetry_space_group_name_H-M "C 2/C"
_symmetry_group_IT_number 15
_symmetry_cell_setting 'monoclinic'
loop_
_space_group_symop_operation_xyz
x,y,z
-x,y,1/2-z
-x,-y,-z
x,-y,1/2+z
1/2+x,1/2+y,z
1/2-x,1/2+y,1/2-z
1/2-x,1/2-y,-z
1/2+x,1/2-y,1/2+z
loop_
_atom_site_type_symbol
_atom_site_label
_atom_site_fract_x
_atom_site_fract_y
_atom_site_fract_z
Si Si1 0.266648 0.791731 0.299354
Si Si2 0.098786 0.347942 0.621199
Si Si3 0.750843 0.439022 0.334202
Si Si4 0.283744 0.913682 0.574438
Si Si5 0.401840 0.956964 0.080072
Si Si6 0.699887 0.596386 0.356537
Si Si7 0.101978 0.287217 0.037200
Si Si8 0.898371 0.773353 0.541258
O O1 0.229660 0.867983 0.275571
O O2 0.180095 0.755174 0.417391
O O3 0.359547 0.791150 0.347580
O O4 0.303791 0.751592 0.166707
O O5 0.095282 0.388686 0.499130
O O6 0.194786 0.379522 0.638954
O O7 0.104371 0.267633 0.580182
O O8 0.000000 0.359927 0.750000
O O9 0.737039 0.410530 0.471379
O O10 0.868018 0.450176 0.233294
O O11 0.695727 0.512720 0.361305
O O12 0.211140 0.887901 0.712480
O O13 0.382611 0.865599 0.518223
O O14 0.312303 0.993016 0.581099
O O15 0.500000 0.000000 0.000000
O O16 0.613846 0.643705 0.456662
O O17 0.996025 0.253134 0.062397
#
# Coordination Sequence:
#
# PCOD9272879 Si02
#       8
#     8   8   8   8   8   8   8   8
#     4  10  21  39  65  94 128 158 214 275 323 387
#     4  12  24  40  58  90 131 174 216 253 319 395
#     4  10  21  39  61  91 121 170 212 270 331 377
#     4  10  20  37  61  85 132 159 208 268 321 386
#     4  11  21  33  54  89 127 165 206 260 325 397
#     4  11  23  41  60  94 127 174 217 260 320 391
#     4  10  21  39  63  98 124 163 209 265 330 376
#     4  12  23  41  64  92 132 173 215 261 325 391
#
# _framework density 21.837250000000001
#
# number of rings (size 3 to 8) (size 9 to 14) (size 15 to 20)
#    0.000    1.250    3.750    3.750    0.000    0.000 
#    0.000    0.625    0.000    0.000    0.000    0.000 
#    0.000    0.000    0.000    0.000    0.000    0.000 
#
# Total GULP energy -178387.182627 kJ/mol
# GULP energy per Si atom -5574.599457 kJ/mol
# Density = 2.178755 g / cm^3
# Si number density = 21.837250 Si / 1000 Ang^3
#
#
#
# Elastic Constant Matrix: (Units=GPa)
#
#
# Indices 1 2 3 4 5 6 
#
# 1 35.4704 18.0758 4.5614 0.0000 -1.9161 0.0000
# 2 18.0758 138.0758 16.4442 0.0000 -9.3388 0.0000
# 3 4.5614 16.4442 57.2699 0.0000 -0.9916 0.0000
# 4 0.0000 0.0000 0.0000 34.7718 0.0000 -4.1258
# 5 -1.9161 -9.3388 -0.9916 0.0000 13.6562 0.0000
# 6 0.0000 0.0000 0.0000 -4.1258 0.0000 17.5067
#
#
#
# Elastic Compliance Matrix: (Units=1/GPa)
#
#
# Indices 1 2 3 4 5 6 
#
# 1 0.030338 -0.003704 -0.001325 0.000000 0.001628 0.000000
# 2 -0.003704 0.008305 -0.002003 0.000000 0.005014 0.000000
# 3 -0.001325 -0.002003 0.018138 0.000000 -0.000239 0.000000
# 4 0.000000 0.000000 0.000000 0.029586 0.000000 0.006973
# 5 0.001628 0.005014 -0.000239 0.000000 0.076867 0.000000
# 6 0.000000 0.000000 0.000000 0.006973 0.000000 0.058764
#
#
# Mechanical properties :
#
#
# Convention : Reuss Voigt Hill
#
# Bulk Modulus (GPa) = 23.40923 34.33100 28.87011
# Shear Modulus (GPa) = 19.97600 25.96925 22.97262
#
# Velocity S-wave (km/s) = 3.02779 3.45224 3.24696
# Velocity P-wave (km/s) = 4.79234 5.62549 5.22554
#
# Compressibility (1/GPa) = 0.04271820
#
# Stress axis : x y z
#
# Youngs Moduli (GPa) = 32.96166 120.41034 55.13396
#
# Poissons Ratio (x) = 0.44597 0.07304
# Poissons Ratio (y) = 0.12208 0.11042
# Poissons Ratio (z) = 0.04366 0.24116
#
# Static dielectric constant tensor:
#      x y z
#    x 1.811340 0.000000 0.017350 
#    y 0.000000 1.896430 0.000000 
#    z 0.017350 0.000000 1.826590 
# 
# From -- ./inp_files/99778.got.cif
#   From: 2010.05.17/outbox.cif.g08.bks.cpg/sg15_50_cif.got.tgz:99778.got - 2010.06.03 18:47:42.
