data_PCOD9272920
_publ_section_title
;
Structure prediction by ZEFSAII (Michael W. Deem and Ramdas Pophale) SiO2 
 PCOD9272920
Probable space group: C 2/C
;
_chemical_formula_sum "Si O2"
_cell_formula_units_Z 44
_cell_length_a 8.278370
_cell_length_b 17.308358
_cell_length_c 20.255897
_cell_angle_alpha 90.000000
_cell_angle_beta 131.540804
_cell_angle_gamma 90.000000
_cell_volume 2172.373482
_symmetry_space_group_name_H-M "C 2/C"
_symmetry_group_IT_number 15
_symmetry_cell_setting 'monoclinic'
loop_
_space_group_symop_operation_xyz
x,y,z
-x,y,1/2-z
-x,-y,-z
x,-y,1/2+z
1/2+x,1/2+y,z
1/2-x,1/2+y,1/2-z
1/2-x,1/2-y,-z
1/2+x,1/2-y,1/2+z
loop_
_atom_site_type_symbol
_atom_site_label
_atom_site_fract_x
_atom_site_fract_y
_atom_site_fract_z
Si Si1 0.000000 0.670595 0.250000
Si Si2 0.607377 0.130301 0.499477
Si Si3 0.605067 0.020158 0.610454
Si Si4 0.356293 0.435672 0.773746
Si Si5 0.633966 0.705405 0.050692
Si Si6 0.105872 0.941811 0.975690
O O1 0.835628 0.619067 0.250213
O O2 0.836604 0.714342 0.156112
O O3 0.705509 0.079025 0.585086
O O4 0.530817 0.212146 0.506753
O O5 0.768546 0.159743 0.486353
O O6 0.434550 0.069045 0.424188
O O7 0.360252 0.048177 0.551663
O O8 0.740487 0.011410 0.712896
O O9 0.500000 0.405897 0.750000
O O10 0.505352 0.456127 0.876239
O O11 0.460150 0.646262 0.030512
O O12 0.000000 0.000000 0.000000
#
# Coordination Sequence:
#
# PCOD9272920 Si02
#       6
#     4   8   8   8   8   8
#     4  10  20  40  60  90 128 166 214 262 318 388
#     4  10  20  37  61  89 120 167 206 260 314 378
#     4  11  21  40  63  95 122 162 218 255 311 386
#     4  11  22  38  65  95 125 169 215 262 318 383
#     4  10  21  38  60  89 125 168 205 260 323 374
#     4  11  22  39  64  93 127 168 209 263 324 374
#
# _framework density 20.254342999999999
#
# number of rings (size 3 to 8) (size 9 to 14) (size 15 to 20)
#    0.000    1.455    3.636    3.273    0.000    0.727 
#    4.909    0.000    0.000    0.000    7.091    0.000 
#    0.000    0.000    0.000    0.000    0.000    0.000 
#
# Total GULP energy -122590.937117 kJ/mol
# GULP energy per Si atom -5572.315324 kJ/mol
# Density = 2.020824 g / cm^3
# Si number density = 20.254343 Si / 1000 Ang^3
#
#
#
# Elastic Constant Matrix: (Units=GPa)
#
#
# Indices 1 2 3 4 5 6 
#
# 1 94.9480 41.5175 44.0207 -0.0001 -2.9402 0.0000
# 2 41.5175 141.4296 48.5694 0.0000 -2.0829 0.0000
# 3 44.0207 48.5694 82.8167 -0.0001 -9.6494 -0.0001
# 4 -0.0001 0.0000 -0.0001 12.3571 -0.0001 -8.0451
# 5 -2.9402 -2.0829 -9.6494 -0.0001 38.8403 0.0000
# 6 0.0000 0.0000 -0.0001 -8.0451 0.0000 26.0674
#
#
#
# Elastic Compliance Matrix: (Units=1/GPa)
#
#
# Indices 1 2 3 4 5 6 
#
# 1 0.014432 -0.001986 -0.006582 0.000000 -0.000649 0.000000
# 2 -0.001986 0.009154 -0.004401 0.000000 -0.000753 0.000000
# 3 -0.006582 -0.004401 0.018608 0.000000 0.003889 0.000000
# 4 0.000000 0.000000 0.000000 0.101274 0.000000 0.031256
# 5 -0.000649 -0.000753 0.003889 0.000000 0.026623 0.000000
# 6 0.000000 0.000000 0.000000 0.031256 0.000000 0.048009
#
#
# Mechanical properties :
#
#
# Convention : Reuss Voigt Hill
#
# Bulk Modulus (GPa) = 61.51563 65.26772 63.39167
# Shear Modulus (GPa) = 20.04369 27.79209 23.91789
#
# Velocity S-wave (km/s) = 3.14920 3.70828 3.44012
# Velocity P-wave (km/s) = 6.60763 7.11541 6.86622
#
# Compressibility (1/GPa) = 0.01625603
#
# Stress axis : x y z
#
# Youngs Moduli (GPa) = 69.29041 109.24527 53.74157
#
# Poissons Ratio (x) = 0.21692 0.35375
# Poissons Ratio (y) = 0.13759 0.23650
# Poissons Ratio (z) = 0.45609 0.48074
#
# Static dielectric constant tensor:
#      x y z
#    x 1.799260 0.000000 -0.052110 
#    y 0.000000 1.703350 0.000000 
#    z -0.052110 0.000000 1.786830 
# 
# From -- ./inp_files/232374.got.cif
#   From: 2010.05.17/outbox.cif.g08.bks.cpg/sg15_117_cif.got.tgz:232374.got - 2010.06.03 18:47:42.
