data_PCOD9272147
_publ_section_title
;
Structure prediction by ZEFSAII (Michael W. Deem and Ramdas Pophale) SiO2 
 PCOD9272147
Probable space group: C 2/C
;
_chemical_formula_sum "Si O2"
_cell_formula_units_Z 48
_cell_length_a 5.374647
_cell_length_b 30.409737
_cell_length_c 13.985159
_cell_angle_alpha 90.000000
_cell_angle_beta 96.615465
_cell_angle_gamma 90.000000
_cell_volume 2270.537547
_symmetry_space_group_name_H-M "C 2/C"
_symmetry_group_IT_number 15
_symmetry_cell_setting 'monoclinic'
loop_
_space_group_symop_operation_xyz
x,y,z
-x,y,1/2-z
-x,-y,-z
x,-y,1/2+z
1/2+x,1/2+y,z
1/2-x,1/2+y,1/2-z
1/2-x,1/2-y,-z
1/2+x,1/2-y,1/2+z
loop_
_atom_site_type_symbol
_atom_site_label
_atom_site_fract_x
_atom_site_fract_y
_atom_site_fract_z
Si Si1 0.788189 0.975090 0.430234
Si Si2 0.000000 0.004948 0.250000
Si Si3 0.000000 0.704170 0.250000
Si Si4 0.839270 0.179559 0.019419
Si Si5 0.902447 0.552660 0.394694
Si Si6 0.164882 0.738420 0.853044
Si Si7 0.159932 0.641546 0.398422
O O1 0.700221 0.938033 0.501665
O O2 0.891348 0.972629 0.327436
O O3 0.558799 0.008073 0.407743
O O4 0.000000 0.000000 0.500000
O O5 0.810818 0.038689 0.188872
O O6 0.911762 0.737068 0.327117
O O7 0.801838 0.670235 0.196405
O O8 0.932612 0.225356 0.074716
O O9 0.597755 0.159902 0.064533
O O10 0.084770 0.148770 0.031611
O O11 0.736050 0.194544 0.912006
O O12 0.088454 0.591530 0.374139
O O13 0.000000 0.733111 0.750000
#
# Coordination Sequence:
#
# PCOD9272147 Si02
#       7
#     8   4   4   8   8   8   8
#     4   9  20  38  58  94 117 175 208 254 310 395
#     4  10  20  36  64  93 122 166 228 256 317 394
#     4  10  22  34  62  93 126 152 210 266 325 376
#     4  10  24  38  61  90 127 166 211 257 333 381
#     4  10  22  37  63  89 137 160 211 266 327 385
#     4  10  20  39  62  87 123 168 217 266 309 395
#     4  11  24  39  58  98 131 161 202 270 334 379
#
# _framework density 21.140369
#
# number of rings (size 3 to 8) (size 9 to 14) (size 15 to 20)
#    0.000    2.000    1.667    0.500    9.333    2.000 
#    0.000    0.000    0.000    7.000    0.000    0.000 
#    0.000    0.000    0.000    0.000    0.000    0.000 
#
# Total GULP energy -133617.001648 kJ/mol
# GULP energy per Si atom -5567.375069 kJ/mol
# Density = 2.109225 g / cm^3
# Si number density = 21.140369 Si / 1000 Ang^3
#
#
#
# Elastic Constant Matrix: (Units=GPa)
#
#
# Indices 1 2 3 4 5 6 
#
# 1 93.4755 15.3824 32.6571 0.0000 22.1555 0.0000
# 2 15.3824 24.2457 6.9256 0.0000 13.6533 0.0000
# 3 32.6571 6.9256 118.6845 0.0000 7.0360 0.0000
# 4 0.0000 0.0000 0.0000 16.7872 0.0000 6.3283
# 5 22.1555 13.6533 7.0360 0.0000 49.8272 0.0000
# 6 0.0000 0.0000 0.0000 6.3283 0.0000 22.1364
#
#
#
# Elastic Compliance Matrix: (Units=1/GPa)
#
#
# Indices 1 2 3 4 5 6 
#
# 1 0.013696 -0.005438 -0.003205 0.000000 -0.004147 0.000000
# 2 -0.005438 0.051439 -0.000820 0.000000 -0.011561 0.000000
# 3 -0.003205 -0.000820 0.009336 0.000000 0.000332 0.000000
# 4 0.000000 0.000000 0.000000 0.066764 0.000000 -0.019086
# 5 -0.004147 -0.011561 0.000332 0.000000 0.025034 0.000000
# 6 0.000000 0.000000 0.000000 -0.019086 0.000000 0.050631
#
#
# Mechanical properties :
#
#
# Convention : Reuss Voigt Hill
#
# Bulk Modulus (GPa) = 18.00380 38.48178 28.24279
# Shear Modulus (GPa) = 19.65862 29.84621 24.75241
#
# Velocity S-wave (km/s) = 3.05275 3.76148 3.42550
# Velocity P-wave (km/s) = 4.57826 6.09159 5.38832
#
# Compressibility (1/GPa) = 0.05554384
#
# Stress axis : x y z
#
# Youngs Moduli (GPa) = 73.01594 19.44047 107.11401
#
# Poissons Ratio (x) = 0.10572 0.34333
# Poissons Ratio (y) = 0.39708 0.08782
# Poissons Ratio (z) = 0.23404 0.01594
#
# Static dielectric constant tensor:
#      x y z
#    x 1.814950 0.000000 -0.101900 
#    y 0.000000 1.740650 0.000000 
#    z -0.101900 0.000000 1.801530 
# 
# From -- ./inp_files/130458.got.cif
#   From: 2010.05.17/outbox.cif.g08.bks.cpg/sg15_66_cif.got.tgz:130458.got - 2010.06.03 18:47:42.
