data_PCOD9272528
_publ_section_title
;
Structure prediction by ZEFSAII (Michael W. Deem and Ramdas Pophale) SiO2 
 PCOD9272528
Probable space group: C 2/C
;
_chemical_formula_sum "Si O2"
_cell_formula_units_Z 48
_cell_length_a 23.278341
_cell_length_b 9.091884
_cell_length_c 17.225452
_cell_angle_alpha 90.000000
_cell_angle_beta 43.936175
_cell_angle_gamma 90.000000
_cell_volume 2529.567535
_symmetry_space_group_name_H-M "C 2/C"
_symmetry_group_IT_number 15
_symmetry_cell_setting 'monoclinic'
loop_
_space_group_symop_operation_xyz
x,y,z
-x,y,1/2-z
-x,-y,-z
x,-y,1/2+z
1/2+x,1/2+y,z
1/2-x,1/2+y,1/2-z
1/2-x,1/2-y,-z
1/2+x,1/2-y,1/2+z
loop_
_atom_site_type_symbol
_atom_site_label
_atom_site_fract_x
_atom_site_fract_y
_atom_site_fract_z
Si Si1 0.310461 0.171495 0.086240
Si Si2 0.343580 0.509313 0.501919
Si Si3 0.190655 0.059859 0.639551
Si Si4 0.007576 0.833792 0.332303
Si Si5 0.779010 0.230026 0.171064
Si Si6 0.434112 0.921268 0.008975
O O1 0.332745 0.317248 0.017951
O O2 0.288115 0.216495 0.196216
O O3 0.228400 0.092669 0.133331
O O4 0.383820 0.051410 0.014608
O O5 0.308343 0.447200 0.454755
O O6 0.438697 0.458652 0.412336
O O7 0.301854 0.430096 0.616235
O O8 0.245962 0.182313 0.628109
O O9 0.097702 0.097588 0.756217
O O10 0.983563 0.693729 0.407159
O O11 0.000000 0.787462 0.250000
O O12 0.860657 0.320940 0.118326
O O13 0.500000 0.000000 0.000000
#
# Coordination Sequence:
#
# PCOD9272528 Si02
#       6
#     8   8   8   8   8   8
#     4  11  22  36  56  87 114 140 184 236 277 317
#     4  10  20  37  58  81 113 146 181 229 276 325
#     4  10  20  37  58  82 108 145 188 226 271 328
#     4   9  20  38  58  79 109 149 185 218 273 338
#     4  10  21  37  57  80 112 152 187 220 272 337
#     4  10  21  37  56  81 111 146 186 227 273 327
#
# _framework density 18.975574999999999
#
# number of rings (size 3 to 8) (size 9 to 14) (size 15 to 20)
#    0.000    2.000    0.000    4.000    0.000    2.667 
#    0.000    8.333    0.000    0.000    0.000    0.000 
#    0.000    0.000    0.000    0.000    0.000    0.000 
#
# Total GULP energy -133872.898901 kJ/mol
# GULP energy per Si atom -5578.037454 kJ/mol
# Density = 1.893239 g / cm^3
# Si number density = 18.975575 Si / 1000 Ang^3
#
#
#
# Elastic Constant Matrix: (Units=GPa)
#
#
# Indices 1 2 3 4 5 6 
#
# 1 105.5708 54.0655 35.2117 0.0000 -20.0622 0.0000
# 2 54.0655 133.5700 48.3222 -0.0003 -11.7155 0.0003
# 3 35.2117 48.3222 79.9703 0.0000 -1.9087 0.0000
# 4 0.0000 -0.0003 0.0000 18.1483 0.0001 -6.3937
# 5 -20.0622 -11.7155 -1.9087 0.0001 14.5818 -0.0001
# 6 0.0000 0.0003 0.0000 -6.3937 -0.0001 16.7992
#
#
#
# Elastic Compliance Matrix: (Units=1/GPa)
#
#
# Indices 1 2 3 4 5 6 
#
# 1 0.016397 -0.003192 -0.004829 0.000000 0.019364 0.000000
# 2 -0.003192 0.010963 -0.005130 0.000000 0.003745 0.000000
# 3 -0.004829 -0.005130 0.017528 0.000000 -0.008471 0.000000
# 4 0.000000 0.000000 0.000000 0.063634 0.000000 0.024219
# 5 0.019364 0.003745 -0.008471 0.000000 0.097120 0.000000
# 6 0.000000 0.000000 0.000000 0.024219 0.000000 0.068744
#
#
# Mechanical properties :
#
#
# Convention : Reuss Voigt Hill
#
# Bulk Modulus (GPa) = 53.79922 66.03443 59.91682
# Shear Modulus (GPa) = 16.29282 22.00664 19.14973
#
# Velocity S-wave (km/s) = 2.93340 3.40918 3.18020
# Velocity P-wave (km/s) = 6.31558 7.09732 6.71783
#
# Compressibility (1/GPa) = 0.01858763
#
# Stress axis : x y z
#
# Youngs Moduli (GPa) = 60.98525 91.21686 57.05044
#
# Poissons Ratio (x) = 0.29114 0.27551
# Poissons Ratio (y) = 0.19465 0.29265
# Poissons Ratio (z) = 0.29451 0.46791
#
# Static dielectric constant tensor:
#      x y z
#    x 1.670030 0.000000 0.003440 
#    y 0.000000 1.649070 0.000000 
#    z 0.003440 0.000000 1.654070 
# 
# From -- ./inp_files/218119.got.cif
#   From: 2010.05.17/outbox.cif.g08.bks.cpg/sg15_110_cif.got.tgz:218119.got - 2010.06.03 18:47:42.
