data_PCOD9272152
_publ_section_title
;
Structure prediction by ZEFSAII (Michael W. Deem and Ramdas Pophale) SiO2 
 PCOD9272152
Probable space group: C 2/C
;
_chemical_formula_sum "Si O2"
_cell_formula_units_Z 48
_cell_length_a 21.287792
_cell_length_b 12.655172
_cell_length_c 13.073162
_cell_angle_alpha 90.000000
_cell_angle_beta 140.438773
_cell_angle_gamma 90.000000
_cell_volume 2243.118491
_symmetry_space_group_name_H-M "C 2/C"
_symmetry_group_IT_number 15
_symmetry_cell_setting 'monoclinic'
loop_
_space_group_symop_operation_xyz
x,y,z
-x,y,1/2-z
-x,-y,-z
x,-y,1/2+z
1/2+x,1/2+y,z
1/2-x,1/2+y,1/2-z
1/2-x,1/2-y,-z
1/2+x,1/2-y,1/2+z
loop_
_atom_site_type_symbol
_atom_site_label
_atom_site_fract_x
_atom_site_fract_y
_atom_site_fract_z
Si Si1 0.000000 0.025745 0.250000
Si Si2 0.923396 0.873288 0.468693
Si Si3 0.364771 0.652631 0.607771
Si Si4 0.848809 0.652814 0.400369
Si Si5 0.500000 0.053412 0.750000
Si Si6 0.630319 0.389267 0.629815
Si Si7 0.138669 0.382959 0.815745
O O1 0.933127 0.100522 0.100147
O O2 0.933853 0.943504 0.230523
O O3 0.854649 0.774079 0.371702
O O4 0.032823 0.847037 0.563947
O O5 0.882322 0.984447 0.379123
O O6 0.370233 0.649166 0.490082
O O7 0.252723 0.624053 0.493671
O O8 0.397095 0.764745 0.695441
O O9 0.935165 0.621111 0.587506
O O10 0.739352 0.635764 0.307063
O O11 0.861713 0.595521 0.306786
O O12 0.576555 0.974558 0.790309
#
# Coordination Sequence:
#
# PCOD9272152 Si02
#       7
#     4   8   8   8   4   8   8
#     4  10  20  36  64  94 128 160 218 262 312 382
#     4  10  22  41  66  95 129 169 214 263 320 394
#     4   9  20  39  64  96 124 164 218 269 319 379
#     4  11  25  44  63  97 129 171 218 269 327 388
#     4  12  26  42  62  90 136 174 212 268 336 390
#     4   9  22  42  68  96 129 170 215 268 321 381
#     4  10  23  40  64  92 130 167 218 270 321 384
#
# _framework density 21.398781
#
# number of rings (size 3 to 8) (size 9 to 14) (size 15 to 20)
#    0.000    2.000    0.000    1.500   11.667    2.667 
#    9.000    1.667    0.000    0.000    0.000    0.000 
#    0.000    0.000    0.000    0.000    0.000    0.000 
#
# Total GULP energy -133910.673010 kJ/mol
# GULP energy per Si atom -5579.611375 kJ/mol
# Density = 2.135008 g / cm^3
# Si number density = 21.398781 Si / 1000 Ang^3
#
#
#
# Elastic Constant Matrix: (Units=GPa)
#
#
# Indices 1 2 3 4 5 6 
#
# 1 66.5891 27.8671 19.2493 0.0000 20.0563 0.0000
# 2 27.8671 52.1982 14.0847 0.0000 12.4589 0.0000
# 3 19.2493 14.0847 87.1056 0.0000 8.9648 0.0000
# 4 0.0000 0.0000 0.0000 23.5600 0.0000 4.5437
# 5 20.0563 12.4589 8.9648 0.0000 41.7178 0.0000
# 6 0.0000 0.0000 0.0000 4.5437 0.0000 23.2384
#
#
#
# Elastic Compliance Matrix: (Units=1/GPa)
#
#
# Indices 1 2 3 4 5 6 
#
# 1 0.021781 -0.009221 -0.002585 0.000000 -0.007162 0.000000
# 2 -0.009221 0.025203 -0.001758 0.000000 -0.002716 0.000000
# 3 -0.002585 -0.001758 0.012429 0.000000 -0.000903 0.000000
# 4 0.000000 0.000000 0.000000 0.044108 0.000000 -0.008624
# 5 -0.007162 -0.002716 -0.000903 0.000000 0.028419 0.000000
# 6 0.000000 0.000000 0.000000 -0.008624 0.000000 0.044718
#
#
# Mechanical properties :
#
#
# Convention : Reuss Voigt Hill
#
# Bulk Modulus (GPa) = 30.97482 36.47724 33.72603
# Shear Modulus (GPa) = 23.30472 27.34935 25.32703
#
# Velocity S-wave (km/s) = 3.30368 3.57890 3.44404
# Velocity P-wave (km/s) = 5.39063 5.84478 5.62229
#
# Compressibility (1/GPa) = 0.03228428
#
# Stress axis : x y z
#
# Youngs Moduli (GPa) = 45.91161 39.67733 80.45818
#
# Poissons Ratio (x) = 0.36587 0.20800
# Poissons Ratio (y) = 0.42336 0.14145
# Poissons Ratio (z) = 0.11869 0.06975
#
# Static dielectric constant tensor:
#      x y z
#    x 1.813210 0.000000 -0.024780 
#    y 0.000000 1.755870 0.000000 
#    z -0.024780 0.000000 1.820600 
# 
# From -- ./inp_files/167958.got.cif
#   From: 2010.05.17/outbox.cif.g08.bks.cpg/sg15_84_cif.got.tgz:167958.got - 2010.06.03 18:47:42.
