data_PCOD9272319
_publ_section_title
;
Structure prediction by ZEFSAII (Michael W. Deem and Ramdas Pophale) SiO2 
 PCOD9272319
Probable space group: C 2/C
;
_chemical_formula_sum "Si O2"
_cell_formula_units_Z 40
_cell_length_a 4.961945
_cell_length_b 18.479025
_cell_length_c 20.613322
_cell_angle_alpha 90.000000
_cell_angle_beta 106.615023
_cell_angle_gamma 90.000000
_cell_volume 1811.159683
_symmetry_space_group_name_H-M "C 2/C"
_symmetry_group_IT_number 15
_symmetry_cell_setting 'monoclinic'
loop_
_space_group_symop_operation_xyz
x,y,z
-x,y,1/2-z
-x,-y,-z
x,-y,1/2+z
1/2+x,1/2+y,z
1/2-x,1/2+y,1/2-z
1/2-x,1/2-y,-z
1/2+x,1/2-y,1/2+z
loop_
_atom_site_type_symbol
_atom_site_label
_atom_site_fract_x
_atom_site_fract_y
_atom_site_fract_z
Si Si1 0.037288 0.153025 0.598453
Si Si2 0.310091 0.581951 0.136682
Si Si3 0.212284 0.726699 0.206066
Si Si4 0.321831 0.010422 0.625932
Si Si5 0.908343 0.392948 0.019159
O O1 0.724657 0.125810 0.561561
O O2 0.054885 0.223248 0.643268
O O3 0.200366 0.162717 0.541494
O O4 0.211324 0.087292 0.644779
O O5 0.313626 0.652591 0.180242
O O6 0.605874 0.550648 0.133225
O O7 0.132608 0.518841 0.160124
O O8 0.142290 0.603442 0.059913
O O9 0.500000 0.764082 0.250000
O O10 0.000000 0.712692 0.250000
O O11 0.320781 0.031539 0.548816
#
# Coordination Sequence:
#
# PCOD9272319 Si02
#       5
#     8   8   8   8   8
#     4  10  22  40  65  91 129 162 215 251 316 392
#     4  12  22  38  68  97 135 156 206 265 329 383
#     4  12  28  48  61  85 128 182 221 266 312 367
#     4  10  20  38  64 103 122 164 193 259 330 389
#     4  10  20  36  69 102 126 158 199 266 331 388
#
# _framework density 22.085296
#
# number of rings (size 3 to 8) (size 9 to 14) (size 15 to 20)
#    1.200    0.000    2.000    4.800    0.000    1.600 
#    0.000    6.000    0.000    0.000    0.000    0.000 
#    0.000    0.000    0.000    0.000    0.000    0.000 
#
# Total GULP energy -111640.478470 kJ/mol
# GULP energy per Si atom -5582.023924 kJ/mol
# Density = 2.203503 g / cm^3
# Si number density = 22.085296 Si / 1000 Ang^3
#
#
#
# Elastic Constant Matrix: (Units=GPa)
#
#
# Indices 1 2 3 4 5 6 
#
# 1 147.6174 21.0366 30.4101 0.0000 -10.2423 0.0000
# 2 21.0366 67.9854 41.5694 0.0000 -18.4943 0.0000
# 3 30.4101 41.5694 42.9004 0.0000 -16.9809 0.0000
# 4 0.0000 0.0000 0.0000 24.9882 0.0000 -1.8543
# 5 -10.2423 -18.4943 -16.9809 0.0000 19.1980 0.0000
# 6 0.0000 0.0000 0.0000 -1.8543 0.0000 16.3073
#
#
#
# Elastic Compliance Matrix: (Units=1/GPa)
#
#
# Indices 1 2 3 4 5 6 
#
# 1 0.008105 0.002409 -0.008385 0.000000 -0.000772 0.000000
# 2 0.002409 0.037250 -0.035528 0.000000 0.005745 0.000000
# 3 -0.008385 -0.035528 0.074415 0.000000 0.027122 0.000000
# 4 0.000000 0.000000 0.000000 0.040359 0.000000 0.004589
# 5 -0.000772 0.005745 0.027122 0.000000 0.081201 0.000000
# 6 0.000000 0.000000 0.000000 0.004589 0.000000 0.061844
#
#
# Mechanical properties :
#
#
# Convention : Reuss Voigt Hill
#
# Bulk Modulus (GPa) = 27.20238 49.39283 38.29761
# Shear Modulus (GPa) = 12.54910 23.13117 17.84013
#
# Velocity S-wave (km/s) = 2.38630 3.23980 2.84524
# Velocity P-wave (km/s) = 4.46501 6.03392 5.30775
#
# Compressibility (1/GPa) = 0.03676149
#
# Stress axis : x y z
#
# Youngs Moduli (GPa) = 123.38418 26.84582 13.43820
#
# Poissons Ratio (x) = -0.06468 0.11268
# Poissons Ratio (y) = -0.29726 0.47743
# Poissons Ratio (z) = 1.03459 0.95378
#
# Static dielectric constant tensor:
#      x y z
#    x 1.830100 0.000000 0.030420 
#    y 0.000000 1.854790 0.000000 
#    z 0.030420 0.000000 1.993550 
# 
# From -- ./inp_files/226860.got.cif
#   From: 2010.05.17/outbox.cif.g08.bks.cpg/sg15_114_cif.got.tgz:226860.got - 2010.06.03 18:47:42.
