data_PCOD9272509
_publ_section_title
;
Structure prediction by ZEFSAII (Michael W. Deem and Ramdas Pophale) SiO2 
 PCOD9272509
Probable space group: C 2/C
;
_chemical_formula_sum "Si O2"
_cell_formula_units_Z 60
_cell_length_a 11.237769
_cell_length_b 11.448053
_cell_length_c 24.589615
_cell_angle_alpha 90.000000
_cell_angle_beta 69.649901
_cell_angle_gamma 90.000000
_cell_volume 2966.020940
_symmetry_space_group_name_H-M "C 2/C"
_symmetry_group_IT_number 15
_symmetry_cell_setting 'monoclinic'
loop_
_space_group_symop_operation_xyz
x,y,z
-x,y,1/2-z
-x,-y,-z
x,-y,1/2+z
1/2+x,1/2+y,z
1/2-x,1/2+y,1/2-z
1/2-x,1/2-y,-z
1/2+x,1/2-y,1/2+z
loop_
_atom_site_type_symbol
_atom_site_label
_atom_site_fract_x
_atom_site_fract_y
_atom_site_fract_z
Si Si1 0.060604 0.360087 0.607179
Si Si2 0.138141 0.914760 0.675299
Si Si3 0.642475 0.028718 0.277260
Si Si4 0.000000 0.894234 0.250000
Si Si5 0.660426 0.190953 0.437916
Si Si6 0.191844 0.710572 0.185855
Si Si7 0.658184 0.104941 0.561217
Si Si8 0.959850 0.289451 0.175233
O O1 0.145297 0.276182 0.631462
O O2 0.149015 0.466216 0.572173
O O3 0.957690 0.409488 0.666772
O O4 0.972210 0.309023 0.573584
O O5 0.224282 0.944261 0.713964
O O6 0.238103 0.891146 0.610865
O O7 0.056416 0.797192 0.689339
O O8 0.037452 0.021318 0.693682
O O9 0.650412 0.086815 0.217344
O O10 0.602074 0.894710 0.281113
O O11 0.118901 0.806154 0.234490
O O12 0.645553 0.137379 0.500095
O O13 0.722527 0.320073 0.434770
O O14 0.340682 0.722127 0.169097
O O15 0.538398 0.154094 0.613504
#
# Coordination Sequence:
#
# PCOD9272509 Si02
#       8
#     8   8   8   4   8   8   8   8
#     4  10  20  37  57  89 117 158 198 248 313 363
#     4  10  21  40  61  91 116 166 207 249 315 372
#     4  10  20  40  57  86 121 158 209 255 296 374
#     4  12  22  40  54  84 130 166 198 246 310 368
#     4   9  19  39  69  89 119 153 207 262 313 369
#     4  12  23  40  56  82 133 164 199 259 309 372
#     4   9  19  40  66  92 115 154 207 266 306 370
#     4  10  22  39  62  89 122 160 213 253 312 377
#
# _framework density 20.229122
#
# number of rings (size 3 to 8) (size 9 to 14) (size 15 to 20)
#    0.000    1.867    2.667    1.200    0.000    0.000 
#   26.400    0.667    0.000    2.400    0.000    0.000 
#    0.000    0.000    0.000    0.000    0.000    0.000 
#
# Total GULP energy -167274.310856 kJ/mol
# GULP energy per Si atom -5575.810362 kJ/mol
# Density = 2.018308 g / cm^3
# Si number density = 20.229122 Si / 1000 Ang^3
#
#
#
# Elastic Constant Matrix: (Units=GPa)
#
#
# Indices 1 2 3 4 5 6 
#
# 1 100.0476 49.0893 36.3485 0.0000 18.6132 0.0000
# 2 49.0893 93.8039 37.5170 0.0000 7.4188 0.0000
# 3 36.3485 37.5170 81.8946 0.0000 10.7603 0.0000
# 4 0.0000 0.0000 0.0000 18.5937 0.0000 1.7796
# 5 18.6132 7.4188 10.7603 0.0000 26.6609 0.0000
# 6 0.0000 0.0000 0.0000 1.7796 0.0000 19.7418
#
#
#
# Elastic Compliance Matrix: (Units=1/GPa)
#
#
# Indices 1 2 3 4 5 6 
#
# 1 0.015702 -0.006388 -0.002994 0.000000 -0.007976 0.000000
# 2 -0.006388 0.015693 -0.004611 0.000000 0.001954 0.000000
# 3 -0.002994 -0.004611 0.016060 0.000000 -0.003108 0.000000
# 4 0.000000 0.000000 0.000000 0.054250 0.000000 -0.004890
# 5 -0.007976 0.001954 -0.003108 0.000000 0.043787 0.000000
# 6 0.000000 0.000000 0.000000 -0.004890 0.000000 0.051095
#
#
# Mechanical properties :
#
#
# Convention : Reuss Voigt Hill
#
# Bulk Modulus (GPa) = 51.36555 57.96173 54.66364
# Shear Modulus (GPa) = 21.63910 23.18536 22.41223
#
# Velocity S-wave (km/s) = 3.27418 3.38914 3.33215
# Velocity P-wave (km/s) = 6.30402 6.63550 6.47188
#
# Compressibility (1/GPa) = 0.01946830
#
# Stress axis : x y z
#
# Youngs Moduli (GPa) = 63.68798 63.72189 62.26480
#
# Poissons Ratio (x) = 0.40709 0.18645
# Poissons Ratio (y) = 0.40687 0.28707
# Poissons Ratio (z) = 0.19071 0.29379
#
# Static dielectric constant tensor:
#      x y z
#    x 1.762570 0.000000 0.008430 
#    y 0.000000 1.757490 0.000000 
#    z 0.008430 0.000000 1.695560 
# 
# From -- ./inp_files/268798.got.cif
#   From: 2010.05.17/outbox.cif.g08.bks.cpg/sg15_135_cif.got.tgz:268798.got - 2010.06.03 18:47:42.
