data_PCOD9272196
_publ_section_title
;
Structure prediction by ZEFSAII (Michael W. Deem and Ramdas Pophale) SiO2 
 PCOD9272196
Probable space group: C 2/C
;
_chemical_formula_sum "Si O2"
_cell_formula_units_Z 48
_cell_length_a 7.485154
_cell_length_b 14.133518
_cell_length_c 26.123736
_cell_angle_alpha 90.000000
_cell_angle_beta 49.222104
_cell_angle_gamma 90.000000
_cell_volume 2092.781610
_symmetry_space_group_name_H-M "C 2/C"
_symmetry_group_IT_number 15
_symmetry_cell_setting 'monoclinic'
loop_
_space_group_symop_operation_xyz
x,y,z
-x,y,1/2-z
-x,-y,-z
x,-y,1/2+z
1/2+x,1/2+y,z
1/2-x,1/2+y,1/2-z
1/2-x,1/2-y,-z
1/2+x,1/2-y,1/2+z
loop_
_atom_site_type_symbol
_atom_site_label
_atom_site_fract_x
_atom_site_fract_y
_atom_site_fract_z
Si Si1 0.512112 0.080258 0.673212
Si Si2 0.649365 0.512665 0.304062
Si Si3 0.811753 0.097036 0.517687
Si Si4 0.761897 0.956662 0.445939
Si Si5 0.421464 0.230429 0.545660
Si Si6 0.725602 0.733270 0.310122
O O1 0.635755 0.067299 0.595478
O O2 0.438256 0.190775 0.688515
O O3 0.696004 0.042764 0.681289
O O4 0.270663 0.023065 0.729361
O O5 0.385166 0.486126 0.369627
O O6 0.681029 0.624968 0.302889
O O7 0.653347 0.164932 0.510123
O O8 0.013432 0.172222 0.493911
O O9 0.893913 0.009433 0.467848
O O10 0.753384 0.843636 0.447923
O O11 0.500000 0.000000 0.500000
O O12 0.329340 0.256040 0.619413
O O13 0.000000 0.755687 0.250000
#
# Coordination Sequence:
#
# PCOD9272196 Si02
#       6
#     8   8   8   8   8   8
#     4  10  23  39  66  93 128 166 211 263 318 378
#     4  11  22  43  62  95 128 169 210 264 317 370
#     4   9  18  36  59  89 122 163 204 257 312 368
#     4  10  20  36  65  92 127 165 212 260 311 374
#     4   9  18  34  61  90 119 163 207 253 312 370
#     4  11  20  39  70  88 121 174 208 256 325 377
#
# _framework density 22.935981000000002
#
# number of rings (size 3 to 8) (size 9 to 14) (size 15 to 20)
#    0.000    2.000    3.333    1.000    2.333    0.667 
#    0.000    4.167   11.000    0.000    0.000    0.000 
#    0.000    0.000    0.000    0.000    0.000    0.000 
#
# Total GULP energy -133974.356421 kJ/mol
# GULP energy per Si atom -5582.264851 kJ/mol
# Density = 2.288378 g / cm^3
# Si number density = 22.935981 Si / 1000 Ang^3
#
#
#
# Elastic Constant Matrix: (Units=GPa)
#
#
# Indices 1 2 3 4 5 6 
#
# 1 30.6453 41.3903 9.8749 0.0001 -0.5813 0.0002
# 2 41.3903 204.7343 78.9105 -0.0002 14.7874 0.0000
# 3 9.8749 78.9105 164.1171 0.0000 -10.0910 0.0000
# 4 0.0001 -0.0002 0.0000 42.5978 0.0000 -4.1809
# 5 -0.5813 14.7874 -10.0910 0.0000 32.0788 -0.0003
# 6 0.0002 0.0000 0.0000 -4.1809 -0.0003 43.4192
#
#
#
# Elastic Compliance Matrix: (Units=1/GPa)
#
#
# Indices 1 2 3 4 5 6 
#
# 1 0.046794 -0.011091 0.002940 0.000000 0.006885 0.000000
# 2 -0.011091 0.009100 -0.004057 0.000000 -0.005672 0.000000
# 3 0.002940 -0.004057 0.008143 0.000000 0.004485 0.000000
# 4 0.000000 0.000000 0.000000 0.023699 0.000000 0.002282
# 5 0.006885 -0.005672 0.004485 0.000000 0.035323 0.000000
# 6 0.000000 0.000000 0.000000 0.002282 0.000000 0.023251
#
#
# Mechanical properties :
#
#
# Convention : Reuss Voigt Hill
#
# Bulk Modulus (GPa) = 25.23837 73.31645 49.27741
# Shear Modulus (GPa) = 27.18397 41.57389 34.37893
#
# Velocity S-wave (km/s) = 3.44642 4.26209 3.87577
# Velocity P-wave (km/s) = 5.18313 7.50038 6.44672
#
# Compressibility (1/GPa) = 0.03962221
#
# Stress axis : x y z
#
# Youngs Moduli (GPa) = 21.37022 109.89225 122.81084
#
# Poissons Ratio (x) = 1.21879 -0.36112
# Poissons Ratio (y) = 0.23701 0.49822
# Poissons Ratio (z) = -0.06284 0.44581
#
# Static dielectric constant tensor:
#      x y z
#    x 2.079650 0.000000 -0.025600 
#    y 0.000000 1.876340 0.000000 
#    z -0.025600 0.000000 1.855690 
# 
# From -- ./inp_files/307912.got.cif
#   From: 2010.05.17/outbox.cif.g08.bks.cpg/sg15_154_cif.got.tgz:307912.got - 2010.06.03 18:47:42.
