data_PCOD9272241
_publ_section_title
;
Structure prediction by ZEFSAII (Michael W. Deem and Ramdas Pophale) SiO2 
 PCOD9272241
Probable space group: C 2/C
;
_chemical_formula_sum "Si O2"
_cell_formula_units_Z 60
_cell_length_a 7.877833
_cell_length_b 28.553538
_cell_length_c 12.004670
_cell_angle_alpha 90.000000
_cell_angle_beta 92.947099
_cell_angle_gamma 90.000000
_cell_volume 2696.759143
_symmetry_space_group_name_H-M "C 2/C"
_symmetry_group_IT_number 15
_symmetry_cell_setting 'monoclinic'
loop_
_space_group_symop_operation_xyz
x,y,z
-x,y,1/2-z
-x,-y,-z
x,-y,1/2+z
1/2+x,1/2+y,z
1/2-x,1/2+y,1/2-z
1/2-x,1/2-y,-z
1/2+x,1/2-y,1/2+z
loop_
_atom_site_type_symbol
_atom_site_label
_atom_site_fract_x
_atom_site_fract_y
_atom_site_fract_z
Si Si1 0.975559 0.557679 0.117022
Si Si2 0.034643 0.829276 0.626739
Si Si3 0.079364 0.113078 0.578629
Si Si4 0.761665 0.358863 0.303332
Si Si5 0.500000 0.066715 0.750000
Si Si6 0.058176 0.664862 0.376805
Si Si7 0.729135 0.978864 0.443205
Si Si8 0.592527 0.228773 0.565561
O O1 0.992763 0.612464 0.095913
O O2 0.794620 0.534930 0.071588
O O3 0.000000 0.553058 0.250000
O O4 0.125885 0.533210 0.051949
O O5 0.236258 0.835400 0.612915
O O6 0.999699 0.773697 0.612487
O O7 0.000000 0.844840 0.750000
O O8 0.926734 0.859514 0.536977
O O9 0.215064 0.134761 0.671133
O O10 0.113148 0.057346 0.560716
O O11 0.902617 0.126117 0.632496
O O12 0.832485 0.308561 0.343275
O O13 0.899177 0.398899 0.328256
O O14 0.378277 0.036963 0.668724
O O15 0.991327 0.699975 0.468616
O O16 0.000000 0.677377 0.250000
O O17 0.750000 0.250000 0.500000
#
# Coordination Sequence:
#
# PCOD9272241 Si02
#       8
#     8   8   8   8   4   8   8   8
#     4  10  21  39  65  94 130 167 217 260 312 387
#     4  11  25  42  60  90 135 169 216 272 326 396
#     4  10  22  40  65  93 130 168 209 276 334 374
#     4  10  20  39  64  92 125 166 214 271 325 379
#     4  10  20  36  66  90 124 160 214 262 312 378
#     4  10  22  40  66  89 125 175 215 260 323 385
#     4  10  21  38  65  96 124 167 215 260 320 385
#     4  10  20  40  60  88 124 172 218 263 328 380
#
# _framework density 22.248927999999999
#
# number of rings (size 3 to 8) (size 9 to 14) (size 15 to 20)
#    0.000    1.867    3.333    0.800    4.667    2.133 
#    0.000    2.000    5.867    0.000    0.000    0.000 
#    0.000    0.000    0.000    0.000    0.000    0.000 
#
# Total GULP energy -167417.393394 kJ/mol
# GULP energy per Si atom -5580.579780 kJ/mol
# Density = 2.219829 g / cm^3
# Si number density = 22.248928 Si / 1000 Ang^3
#
#
#
# Elastic Constant Matrix: (Units=GPa)
#
#
# Indices 1 2 3 4 5 6 
#
# 1 31.3831 1.3633 4.2015 0.0000 8.4150 0.0000
# 2 1.3633 71.4276 22.2662 0.0000 10.5227 0.0000
# 3 4.2015 22.2662 129.0598 0.0000 2.7127 0.0000
# 4 0.0000 0.0000 0.0000 22.2901 0.0000 -0.9442
# 5 8.4150 10.5227 2.7127 0.0000 22.4669 0.0000
# 6 0.0000 0.0000 0.0000 -0.9442 0.0000 28.2382
#
#
#
# Elastic Compliance Matrix: (Units=1/GPa)
#
#
# Indices 1 2 3 4 5 6 
#
# 1 0.035714 0.001754 -0.001170 0.000000 -0.014057 0.000000
# 2 0.001754 0.015940 -0.002643 0.000000 -0.007804 0.000000
# 3 -0.001170 -0.002643 0.008228 0.000000 0.000683 0.000000
# 4 0.000000 0.000000 0.000000 0.044927 0.000000 0.001502
# 5 -0.014057 -0.007804 0.000683 0.000000 0.053347 0.000000
# 6 0.000000 0.000000 0.000000 0.001502 0.000000 0.035463
#
#
# Mechanical properties :
#
#
# Convention : Reuss Voigt Hill
#
# Bulk Modulus (GPa) = 17.93269 31.94805 24.94037
# Shear Modulus (GPa) = 23.11328 28.20167 25.65747
#
# Velocity S-wave (km/s) = 3.22661 3.56413 3.39956
# Velocity P-wave (km/s) = 4.68603 5.59713 5.16173
#
# Compressibility (1/GPa) = 0.05576407
#
# Stress axis : x y z
#
# Youngs Moduli (GPa) = 28.00028 62.73405 121.53475
#
# Poissons Ratio (x) = -0.11003 0.14217
# Poissons Ratio (y) = -0.04911 0.32124
# Poissons Ratio (z) = 0.03275 0.16582
#
# Static dielectric constant tensor:
#      x y z
#    x 1.858170 0.000000 0.003720 
#    y 0.000000 1.882430 0.000000 
#    z 0.003720 0.000000 1.830880 
# 
# From -- ./inp_files/82247.got.cif
#   From: 2010.05.17/outbox.cif.g08.bks.cpg/sg15_42_cif.got.tgz:82247.got - 2010.06.03 18:47:42.
