data_PCOD9272394
_publ_section_title
;
Structure prediction by ZEFSAII (Michael W. Deem and Ramdas Pophale) SiO2 
 PCOD9272394
Probable space group: C 2/C
;
_chemical_formula_sum "Si O2"
_cell_formula_units_Z 56
_cell_length_a 22.608881
_cell_length_b 25.293109
_cell_length_c 5.745503
_cell_angle_alpha 90.000000
_cell_angle_beta 70.326808
_cell_angle_gamma 90.000000
_cell_volume 3093.775382
_symmetry_space_group_name_H-M "C 2/C"
_symmetry_group_IT_number 15
_symmetry_cell_setting 'monoclinic'
loop_
_space_group_symop_operation_xyz
x,y,z
-x,y,1/2-z
-x,-y,-z
x,-y,1/2+z
1/2+x,1/2+y,z
1/2-x,1/2+y,1/2-z
1/2-x,1/2-y,-z
1/2+x,1/2-y,1/2+z
loop_
_atom_site_type_symbol
_atom_site_label
_atom_site_fract_x
_atom_site_fract_y
_atom_site_fract_z
Si Si1 0.514885 0.259262 0.477121
Si Si2 0.413365 0.526257 0.956044
Si Si3 0.811492 0.871233 0.038433
Si Si4 0.272126 0.488981 0.174689
Si Si5 0.339813 0.272212 0.305598
Si Si6 0.550757 0.372530 0.869281
Si Si7 0.241866 0.794526 0.703264
O O1 0.500000 0.231628 0.250000
O O2 0.589170 0.269223 0.367159
O O3 0.475536 0.314721 0.528427
O O4 0.500000 0.234624 0.750000
O O5 0.431992 0.499034 0.181418
O O6 0.337270 0.522718 0.071538
O O7 0.437138 0.586332 0.939477
O O8 0.793430 0.928062 0.154295
O O9 0.810275 0.824704 0.229187
O O10 0.882193 0.871538 0.847596
O O11 0.763981 0.851805 0.899958
O O12 0.240485 0.502445 0.463735
O O13 0.299479 0.220000 0.295080
O O14 0.325762 0.282163 0.593050
O O15 0.500000 0.393310 0.750000
O O16 0.250000 0.750000 0.500000
#
# Coordination Sequence:
#
# PCOD9272394 Si02
#       7
#     8   8   8   8   8   8   8
#     4  11  23  35  53  77 101 135 165 214 271 321
#     4  10  21  36  46  63  94 136 177 223 259 300
#     4  11  19  35  54  71 102 132 185 223 279 317
#     4  10  21  34  50  70  99 138 173 225 263 312
#     4  10  20  37  55  76 102 126 182 230 281 327
#     4  11  21  34  48  71  99 135 178 222 267 317
#     4   9  21  35  57  77  93 131 171 243 277 324
#
# _framework density 18.100860999999998
#
# number of rings (size 3 to 8) (size 9 to 14) (size 15 to 20)
#    0.000    1.714    5.714    0.857    4.000    5.143 
#    0.000    0.000    0.000    0.000    0.000    0.000 
#    0.000    0.000    0.000    0.000    0.000    4.286 
#
# Total GULP energy -156074.477171 kJ/mol
# GULP energy per Si atom -5574.088470 kJ/mol
# Density = 1.805966 g / cm^3
# Si number density = 18.100861 Si / 1000 Ang^3
#
#
#
# Elastic Constant Matrix: (Units=GPa)
#
#
# Indices 1 2 3 4 5 6 
#
# 1 36.9431 24.0273 15.6984 0.0000 8.4004 0.0000
# 2 24.0273 43.9169 6.6102 0.0000 -0.6712 0.0000
# 3 15.6984 6.6102 115.7508 0.0000 15.5211 0.0000
# 4 0.0000 0.0000 0.0000 13.3043 0.0000 6.5738
# 5 8.4004 -0.6712 15.5211 0.0000 28.6025 0.0000
# 6 0.0000 0.0000 0.0000 6.5738 0.0000 14.6363
#
#
#
# Elastic Compliance Matrix: (Units=1/GPa)
#
#
# Indices 1 2 3 4 5 6 
#
# 1 0.048524 -0.026246 -0.003331 0.000000 -0.013060 0.000000
# 2 -0.026246 0.037212 0.000306 0.000000 0.008415 0.000000
# 3 -0.003331 0.000306 0.009643 0.000000 -0.004247 0.000000
# 4 0.000000 0.000000 0.000000 0.096602 0.000000 -0.043389
# 5 -0.013060 0.008415 -0.004247 0.000000 0.041300 0.000000
# 6 0.000000 0.000000 0.000000 -0.043389 0.000000 0.087811
#
#
# Mechanical properties :
#
#
# Convention : Reuss Voigt Hill
#
# Bulk Modulus (GPa) = 27.14643 32.14251 29.64447
# Shear Modulus (GPa) = 12.75792 21.32695 17.04244
#
# Velocity S-wave (km/s) = 2.65773 3.43626 3.07176
# Velocity P-wave (km/s) = 4.94448 5.79136 5.38460
#
# Compressibility (1/GPa) = 0.03683725
#
# Stress axis : x y z
#
# Youngs Moduli (GPa) = 20.60849 26.87290 103.70170
#
# Poissons Ratio (x) = 0.70531 0.34542
# Poissons Ratio (y) = 0.54089 -0.03174
# Poissons Ratio (z) = 0.06864 -0.00822
#
# Static dielectric constant tensor:
#      x y z
#    x 1.678020 0.000000 0.094120 
#    y 0.000000 1.632620 0.000000 
#    z 0.094120 0.000000 1.735580 
# 
# From -- ./inp_files/16106.got.cif
#   From: 2010.05.17/outbox.cif.g08.bks.cpg/sg15_9_cif.got.tgz:16106.got - 2010.06.03 18:47:42.
