data_PCOD9272271
_publ_section_title
;
Structure prediction by ZEFSAII (Michael W. Deem and Ramdas Pophale) SiO2 
 PCOD9272271
Probable space group: C 2/C
;
_chemical_formula_sum "Si O2"
_cell_formula_units_Z 56
_cell_length_a 17.987013
_cell_length_b 17.642012
_cell_length_c 8.259764
_cell_angle_alpha 90.000000
_cell_angle_beta 58.732101
_cell_angle_gamma 90.000000
_cell_volume 2240.339267
_symmetry_space_group_name_H-M "C 2/C"
_symmetry_group_IT_number 15
_symmetry_cell_setting 'monoclinic'
loop_
_space_group_symop_operation_xyz
x,y,z
-x,y,1/2-z
-x,-y,-z
x,-y,1/2+z
1/2+x,1/2+y,z
1/2-x,1/2+y,1/2-z
1/2-x,1/2-y,-z
1/2+x,1/2-y,1/2+z
loop_
_atom_site_type_symbol
_atom_site_label
_atom_site_fract_x
_atom_site_fract_y
_atom_site_fract_z
Si Si1 0.102261 0.274889 0.337570
Si Si2 0.000000 0.664081 0.250000
Si Si3 0.810254 0.974435 0.595725
Si Si4 0.615073 0.604812 0.809287
Si Si5 0.943303 0.105857 0.161695
Si Si6 0.214896 0.252028 0.724855
Si Si7 0.000000 0.601478 0.750000
Si Si8 0.870485 0.586312 0.160243
O O1 0.077566 0.193962 0.291320
O O2 0.204737 0.274891 0.256513
O O3 0.051652 0.284374 0.564633
O O4 0.064530 0.343475 0.276315
O O5 0.069987 0.610889 0.257868
O O6 0.843390 0.927978 0.402165
O O7 0.856009 0.933879 0.698764
O O8 0.706521 0.971115 0.717132
O O9 0.840751 0.059740 0.591367
O O10 0.637328 0.692102 0.811248
O O11 0.512293 0.593995 0.937594
O O12 0.000000 0.077871 0.250000
O O13 0.250000 0.250000 0.500000
O O14 0.180190 0.334000 0.817858
O O15 0.063593 0.559966 0.553698
#
# Coordination Sequence:
#
# PCOD9272271 Si02
#       8
#     8   4   8   8   8   8   4   8
#     4  11  21  36  63  99 141 175 228 287 348 400
#     4  10  20  36  66  97 133 178 234 288 334 416
#     4  12  26  46  71  99 140 187 229 286 349 426
#     4  12  26  45  70 102 142 184 235 282 348 418
#     4  12  25  42  65 104 146 190 226 276 349 421
#     4  12  22  42  72 104 129 185 237 289 337 419
#     4  10  24  38  60 103 137 178 220 306 350 410
#     4  11  23  44  71 103 138 178 240 286 360 409
#
# _framework density 24.996214999999999
#
# number of rings (size 3 to 8) (size 9 to 14) (size 15 to 20)
#    0.000    0.571    5.000    3.429    2.000    2.857 
#    0.000    0.000    0.000   14.571    0.000    0.000 
#    0.000    0.000    0.000    0.000    0.000    0.000 
#
# Total GULP energy -156900.192131 kJ/mol
# GULP energy per Si atom -5603.578290 kJ/mol
# Density = 2.493932 g / cm^3
# Si number density = 24.996215 Si / 1000 Ang^3
#
#
#
# Elastic Constant Matrix: (Units=GPa)
#
#
# Indices 1 2 3 4 5 6 
#
# 1 152.9658 -9.0827 17.5935 0.0000 -17.0917 0.0000
# 2 -9.0827 42.7003 -16.5252 0.0000 -7.0343 0.0000
# 3 17.5935 -16.5252 78.1967 0.0000 1.2424 0.0000
# 4 0.0000 0.0000 0.0000 14.2683 0.0000 -3.9959
# 5 -17.0917 -7.0343 1.2424 0.0000 32.7807 0.0000
# 6 0.0000 0.0000 0.0000 -3.9959 0.0000 36.2277
#
#
#
# Elastic Compliance Matrix: (Units=1/GPa)
#
#
# Indices 1 2 3 4 5 6 
#
# 1 0.007263 0.001720 -0.001337 0.000000 0.004207 0.000000
# 2 0.001720 0.026857 0.005186 0.000000 0.006464 0.000000
# 3 -0.001337 0.005186 0.014187 0.000000 -0.000122 0.000000
# 4 0.000000 0.000000 0.000000 0.072319 0.000000 0.007977
# 5 0.004207 0.006464 -0.000122 0.000000 0.034091 0.000000
# 6 0.000000 0.000000 0.000000 0.007977 0.000000 0.028483
#
#
# Mechanical properties :
#
#
# Convention : Reuss Voigt Hill
#
# Bulk Modulus (GPa) = 16.82233 28.64822 22.73528
# Shear Modulus (GPa) = 26.05822 35.44715 30.75268
#
# Velocity S-wave (km/s) = 3.23226 3.76985 3.51136
# Velocity P-wave (km/s) = 4.54693 5.51679 5.05517
#
# Compressibility (1/GPa) = 0.05944478
#
# Stress axis : x y z
#
# Youngs Moduli (GPa) = 137.67530 37.23464 70.48686
#
# Poissons Ratio (x) = -0.06406 0.09427
# Poissons Ratio (y) = -0.23686 -0.36553
# Poissons Ratio (z) = 0.18414 -0.19309
#
# Static dielectric constant tensor:
#      x y z
#    x 1.914530 0.000000 0.028150 
#    y 0.000000 1.967760 0.000000 
#    z 0.028150 0.000000 2.062190 
# 
# From -- ./inp_files/50149.got.cif
#   From: 2010.05.17/outbox.cif.g08.bks.cpg/sg15_26_cif.got.tgz:50149.got - 2010.06.03 18:47:42.
