data_PCOD9272330
_publ_section_title
;
Structure prediction by ZEFSAII (Michael W. Deem and Ramdas Pophale) SiO2 
 PCOD9272330
Probable space group: C 2/C
;
_chemical_formula_sum "Si O2"
_cell_formula_units_Z 44
_cell_length_a 8.667305
_cell_length_b 16.328541
_cell_length_c 21.018021
_cell_angle_alpha 90.000000
_cell_angle_beta 133.493111
_cell_angle_gamma 90.000000
_cell_volume 2157.918489
_symmetry_space_group_name_H-M "C 2/C"
_symmetry_group_IT_number 15
_symmetry_cell_setting 'monoclinic'
loop_
_space_group_symop_operation_xyz
x,y,z
-x,y,1/2-z
-x,-y,-z
x,-y,1/2+z
1/2+x,1/2+y,z
1/2-x,1/2+y,1/2-z
1/2-x,1/2-y,-z
1/2+x,1/2-y,1/2+z
loop_
_atom_site_type_symbol
_atom_site_label
_atom_site_fract_x
_atom_site_fract_y
_atom_site_fract_z
Si Si1 0.973252 0.753369 0.488191
Si Si2 0.239245 0.036065 0.054205
Si Si3 0.000000 0.473258 0.750000
Si Si4 0.432093 0.510390 0.802295
Si Si5 0.207388 0.109852 0.469115
Si Si6 0.610292 0.665819 0.912983
O O1 0.218198 0.727800 0.565592
O O2 0.941440 0.784401 0.407155
O O3 0.910593 0.827337 0.516764
O O4 0.846340 0.671099 0.466808
O O5 0.359708 0.063540 0.151995
O O6 0.340623 0.956094 0.048604
O O7 0.222651 0.108188 0.998556
O O8 0.000000 0.000000 0.000000
O O9 0.809290 0.512897 0.738682
O O10 0.500000 0.487572 0.750000
O O11 0.555897 0.445470 0.882389
O O12 0.517854 0.601943 0.837836
#
# Coordination Sequence:
#
# PCOD9272330 Si02
#       6
#     8   8   4   8   8   8
#     4  10  20  36  70  86 126 170 206 266 334 380
#     4  11  20  40  66  92 125 166 224 261 316 388
#     4  12  22  38  70  90 130 166 208 280 320 352
#     4  11  25  42  65  97 125 169 227 261 312 391
#     4  10  21  41  62  94 124 168 216 261 323 389
#     4  10  21  41  62  94 124 168 216 261 323 389
#
# _framework density 20.390018999999999
#
# number of rings (size 3 to 8) (size 9 to 14) (size 15 to 20)
#    0.000    1.455    5.455    0.000    5.091    1.455 
#    0.000    1.818   16.000    0.000    0.000    0.000 
#    0.000    0.000    0.000    0.000    0.000    0.000 
#
# Total GULP energy -122477.567157 kJ/mol
# GULP energy per Si atom -5567.162143 kJ/mol
# Density = 2.034361 g / cm^3
# Si number density = 20.390019 Si / 1000 Ang^3
#
#
#
# Elastic Constant Matrix: (Units=GPa)
#
#
# Indices 1 2 3 4 5 6 
#
# 1 102.7948 26.0702 12.5683 0.0000 -5.2689 0.0000
# 2 26.0702 89.9507 -4.9019 0.0000 5.5827 0.0000
# 3 12.5683 -4.9019 62.4078 0.0000 -10.0882 0.0000
# 4 0.0000 0.0000 0.0000 15.5910 0.0000 -2.4465
# 5 -5.2689 5.5827 -10.0882 0.0000 19.5315 0.0000
# 6 0.0000 0.0000 0.0000 -2.4465 0.0000 36.3350
#
#
#
# Elastic Compliance Matrix: (Units=1/GPa)
#
#
# Indices 1 2 3 4 5 6 
#
# 1 0.011008 -0.003482 -0.002018 0.000000 0.002922 0.000000
# 2 -0.003482 0.012428 0.001038 0.000000 -0.003955 0.000000
# 3 -0.002018 0.001038 0.017867 0.000000 0.008388 0.000000
# 4 0.000000 0.000000 0.000000 0.064825 0.000000 0.004365
# 5 0.002922 -0.003955 0.008388 0.000000 0.057451 0.000000
# 6 0.000000 0.000000 0.000000 0.004365 0.000000 0.027816
#
#
# Mechanical properties :
#
#
# Convention : Reuss Voigt Hill
#
# Bulk Modulus (GPa) = 30.88304 35.84737 33.36521
# Shear Modulus (GPa) = 23.68426 29.05263 26.36845
#
# Velocity S-wave (km/s) = 3.41187 3.77881 3.60002
# Velocity P-wave (km/s) = 5.54077 6.05460 5.80338
#
# Compressibility (1/GPa) = 0.03238023
#
# Stress axis : x y z
#
# Youngs Moduli (GPa) = 90.84617 80.46132 55.96781
#
# Poissons Ratio (x) = 0.28014 0.11294
# Poissons Ratio (y) = 0.31629 -0.05809
# Poissons Ratio (z) = 0.18332 -0.08352
#
# Static dielectric constant tensor:
#      x y z
#    x 1.838600 0.000000 0.013160 
#    y 0.000000 1.723050 0.000000 
#    z 0.013160 0.000000 1.741620 
# 
# From -- ./inp_files/163031.got.cif
#   From: 2010.05.17/outbox.cif.g08.bks.cpg/sg15_82_cif.got.tgz:163031.got - 2010.06.03 18:47:42.
