data_PCOD9272347
_publ_section_title
;
Structure prediction by ZEFSAII (Michael W. Deem and Ramdas Pophale) SiO2 
 PCOD9272347
Probable space group: C 2/C
;
_chemical_formula_sum "Si O2"
_cell_formula_units_Z 60
_cell_length_a 31.106193
_cell_length_b 9.399468
_cell_length_c 9.239110
_cell_angle_alpha 90.000000
_cell_angle_beta 77.902677
_cell_angle_gamma 90.000000
_cell_volume 2641.357652
_symmetry_space_group_name_H-M "C 2/C"
_symmetry_group_IT_number 15
_symmetry_cell_setting 'monoclinic'
loop_
_space_group_symop_operation_xyz
x,y,z
-x,y,1/2-z
-x,-y,-z
x,-y,1/2+z
1/2+x,1/2+y,z
1/2-x,1/2+y,1/2-z
1/2-x,1/2-y,-z
1/2+x,1/2-y,1/2+z
loop_
_atom_site_type_symbol
_atom_site_label
_atom_site_fract_x
_atom_site_fract_y
_atom_site_fract_z
Si Si1 0.914292 0.526497 0.449832
Si Si2 0.132928 0.214665 0.565761
Si Si3 0.778447 0.513778 0.134157
Si Si4 0.000000 0.340400 0.750000
Si Si5 0.141995 0.886263 0.508575
Si Si6 0.836076 0.624912 0.834905
Si Si7 0.570613 0.252682 0.385679
Si Si8 0.791407 0.221452 0.790126
O O1 0.892488 0.674795 0.518710
O O2 0.960710 0.564899 0.343488
O O3 0.879311 0.458113 0.361983
O O4 0.920921 0.407826 0.565867
O O5 0.099318 0.210218 0.724826
O O6 0.178253 0.273778 0.599859
O O7 0.143518 0.054965 0.514945
O O8 0.816335 0.432715 0.199374
O O9 0.764524 0.647955 0.243234
O O10 0.738940 0.406559 0.139893
O O11 0.797997 0.582052 0.976493
O O12 0.020947 0.245907 0.863884
O O13 0.154596 0.792770 0.641417
O O14 0.092103 0.846406 0.496433
O O15 0.175120 0.831298 0.359548
#
# Coordination Sequence:
#
# PCOD9272347 Si02
#       8
#     8   8   8   4   8   8   8   8
#     4  10  20  39  66  90 126 162 210 260 328 381
#     4  10  20  40  62  89 124 171 212 261 318 387
#     4  11  24  40  60  93 131 173 219 279 321 381
#     4  10  20  36  72  96 124 154 208 266 326 392
#     4   9  21  40  63  85 129 173 214 258 322 389
#     4  10  23  41  63  89 132 171 216 275 326 379
#     4   9  20  40  60  96 124 159 203 270 316 392
#     4  10  23  38  58  90 130 165 227 265 323 372
#
# _framework density 22.715589999999999
#
# number of rings (size 3 to 8) (size 9 to 14) (size 15 to 20)
#    0.000    2.133    1.333    1.200    7.467    2.667 
#    2.400    2.667    0.000   13.600    0.000    0.000 
#    0.000    0.000    0.000    0.000    0.000    0.000 
#
# Total GULP energy -167624.709484 kJ/mol
# GULP energy per Si atom -5587.490316 kJ/mol
# Density = 2.266389 g / cm^3
# Si number density = 22.715590 Si / 1000 Ang^3
#
#
#
# Elastic Constant Matrix: (Units=GPa)
#
#
# Indices 1 2 3 4 5 6 
#
# 1 82.0460 21.7770 -4.7672 0.0000 -1.7515 0.0000
# 2 21.7770 96.3498 15.5557 0.0000 -0.8958 0.0000
# 3 -4.7672 15.5557 44.9862 0.0000 1.0065 0.0000
# 4 0.0000 0.0000 0.0000 29.2564 0.0000 -3.3774
# 5 -1.7515 -0.8958 1.0065 0.0000 31.6098 0.0000
# 6 0.0000 0.0000 0.0000 -3.3774 0.0000 28.5187
#
#
#
# Elastic Compliance Matrix: (Units=1/GPa)
#
#
# Indices 1 2 3 4 5 6 
#
# 1 0.013253 -0.003405 0.002569 0.000000 0.000556 0.000000
# 2 -0.003405 0.011873 -0.004473 0.000000 0.000290 0.000000
# 3 0.002569 -0.004473 0.024065 0.000000 -0.000751 0.000000
# 4 0.000000 0.000000 0.000000 0.034654 0.000000 0.004104
# 5 0.000556 0.000290 -0.000751 0.000000 0.031699 0.000000
# 6 0.000000 0.000000 0.000000 0.004104 0.000000 0.035551
#
#
# Mechanical properties :
#
#
# Convention : Reuss Voigt Hill
#
# Bulk Modulus (GPa) = 25.92418 32.05701 28.99059
# Shear Modulus (GPa) = 28.64171 30.59809 29.61990
#
# Velocity S-wave (km/s) = 3.55474 3.67414 3.61494
# Velocity P-wave (km/s) = 5.31842 5.66940 5.49671
#
# Compressibility (1/GPa) = 0.03857403
#
# Stress axis : x y z
#
# Youngs Moduli (GPa) = 75.45310 84.22220 41.55444
#
# Poissons Ratio (x) = 0.28679 -0.10677
# Poissons Ratio (y) = 0.25693 0.18587
# Poissons Ratio (z) = -0.19387 0.37673
#
# Static dielectric constant tensor:
#      x y z
#    x 1.844230 0.000000 0.023660 
#    y 0.000000 1.850980 0.000000 
#    z 0.023660 0.000000 1.914270 
# 
# From -- ./inp_files/125559.got.cif
#   From: 2010.05.17/outbox.cif.g08.bks.cpg/sg15_63_cif.got.tgz:125559.got - 2010.06.03 18:47:42.
