data_PCOD9272808
_publ_section_title
;
Structure prediction by ZEFSAII (Michael W. Deem and Ramdas Pophale) SiO2 
 PCOD9272808
Probable space group: C 2/C
;
_chemical_formula_sum "Si O2"
_cell_formula_units_Z 48
_cell_length_a 9.829686
_cell_length_b 19.531396
_cell_length_c 10.791252
_cell_angle_alpha 90.000000
_cell_angle_beta 104.994628
_cell_angle_gamma 90.000000
_cell_volume 2001.241275
_symmetry_space_group_name_H-M "C 2/C"
_symmetry_group_IT_number 15
_symmetry_cell_setting 'monoclinic'
loop_
_space_group_symop_operation_xyz
x,y,z
-x,y,1/2-z
-x,-y,-z
x,-y,1/2+z
1/2+x,1/2+y,z
1/2-x,1/2+y,1/2-z
1/2-x,1/2-y,-z
1/2+x,1/2-y,1/2+z
loop_
_atom_site_type_symbol
_atom_site_label
_atom_site_fract_x
_atom_site_fract_y
_atom_site_fract_z
Si Si1 0.842181 0.858084 0.756949
Si Si2 0.655044 0.066059 0.629969
Si Si3 0.582363 0.431896 0.479531
Si Si4 0.351922 0.789041 0.369391
Si Si5 0.931484 0.580150 0.355755
Si Si6 0.544243 0.709549 0.896356
O O1 0.831125 0.777072 0.779709
O O2 0.712890 0.881943 0.643219
O O3 0.000000 0.872369 0.750000
O O4 0.832926 0.900850 0.883001
O O5 0.809262 0.053774 0.606531
O O6 0.637191 0.138329 0.695250
O O7 0.545502 0.075581 0.490454
O O8 0.614772 0.997193 0.688945
O O9 0.500000 0.500000 0.500000
O O10 0.487060 0.366036 0.416964
O O11 0.469871 0.763757 0.496140
O O12 0.211861 0.801833 0.418268
O O13 0.000000 0.612775 0.250000
O O14 0.500000 0.731440 0.750000
#
# Coordination Sequence:
#
# PCOD9272808 Si02
#       6
#     8   8   8   8   8   8
#     4  11  23  40  63  91 124 166 211 267 324 373
#     4  10  22  41  62  95 126 162 219 262 310 393
#     4  10  20  37  60  89 126 163 207 262 311 380
#     4   9  21  37  59  89 121 156 216 260 305 383
#     4  11  23  40  66  92 123 174 206 258 330 380
#     4   9  19  34  58  89 115 161 207 254 311 368
#
# _framework density 23.985113999999999
#
# number of rings (size 3 to 8) (size 9 to 14) (size 15 to 20)
#    0.000    2.000    1.667    2.000    2.333    4.000 
#    0.000    0.833    0.000    0.000    0.000    0.000 
#    0.000    0.000    0.000    0.000    0.000    0.000 
#
# Total GULP energy -133985.045157 kJ/mol
# GULP energy per Si atom -5582.710215 kJ/mol
# Density = 2.393052 g / cm^3
# Si number density = 23.985114 Si / 1000 Ang^3
#
#
#
# Elastic Constant Matrix: (Units=GPa)
#
#
# Indices 1 2 3 4 5 6 
#
# 1 98.6370 35.3411 3.4466 0.0000 -4.3530 0.0000
# 2 35.3411 177.6644 13.5624 0.0000 9.8599 0.0000
# 3 3.4466 13.5624 34.5766 0.0000 11.4065 0.0000
# 4 0.0000 0.0000 0.0000 10.9263 0.0000 -7.5300
# 5 -4.3530 9.8599 11.4065 0.0000 24.7967 0.0000
# 6 0.0000 0.0000 0.0000 -7.5300 0.0000 28.8229
#
#
#
# Elastic Compliance Matrix: (Units=1/GPa)
#
#
# Indices 1 2 3 4 5 6 
#
# 1 0.011169 -0.002312 -0.001363 0.000000 0.003507 0.000000
# 2 -0.002312 0.006328 -0.001518 0.000000 -0.002224 0.000000
# 3 -0.001363 -0.001518 0.034816 0.000000 -0.015651 0.000000
# 4 0.000000 0.000000 0.000000 0.111619 0.000000 0.029160
# 5 0.003507 -0.002224 -0.015651 0.000000 0.049028 0.000000
# 6 0.000000 0.000000 0.000000 0.029160 0.000000 0.042313
#
#
# Mechanical properties :
#
#
# Convention : Reuss Voigt Hill
#
# Bulk Modulus (GPa) = 23.85190 46.17536 35.01363
# Shear Modulus (GPa) = 17.88049 30.14436 24.01242
#
# Velocity S-wave (km/s) = 2.73332 3.54898 3.16751
# Velocity P-wave (km/s) = 4.46401 6.00725 5.29219
#
# Compressibility (1/GPa) = 0.04192539
#
# Stress axis : x y z
#
# Youngs Moduli (GPa) = 89.53271 158.03146 28.72264
#
# Poissons Ratio (x) = 0.36542 0.03916
# Poissons Ratio (y) = 0.20703 0.04360
# Poissons Ratio (z) = 0.12207 0.23988
#
# Static dielectric constant tensor:
#      x y z
#    x 1.936860 0.000000 0.004700 
#    y 0.000000 2.011130 0.000000 
#    z 0.004700 0.000000 1.934590 
# 
# From -- ./inp_files/87879.got.cif
#   From: 2010.05.17/outbox.cif.g08.bks.cpg/sg15_44_cif.got.tgz:87879.got - 2010.06.03 18:47:42.
