data_PCOD9272993
_publ_section_title
;
Structure prediction by ZEFSAII (Michael W. Deem and Ramdas Pophale) SiO2 
 PCOD9272993
Probable space group: C 2/C
;
_chemical_formula_sum "Si O2"
_cell_formula_units_Z 32
_cell_length_a 8.884449
_cell_length_b 10.836246
_cell_length_c 22.152603
_cell_angle_alpha 90.000000
_cell_angle_beta 137.536111
_cell_angle_gamma 90.000000
_cell_volume 1439.854362
_symmetry_space_group_name_H-M "C 2/C"
_symmetry_group_IT_number 15
_symmetry_cell_setting 'monoclinic'
loop_
_space_group_symop_operation_xyz
x,y,z
-x,y,1/2-z
-x,-y,-z
x,-y,1/2+z
1/2+x,1/2+y,z
1/2-x,1/2+y,1/2-z
1/2-x,1/2-y,-z
1/2+x,1/2-y,1/2+z
loop_
_atom_site_type_symbol
_atom_site_label
_atom_site_fract_x
_atom_site_fract_y
_atom_site_fract_z
Si Si1 0.119333 0.040535 0.850165
Si Si2 0.189743 0.221344 0.413159
Si Si3 0.755709 0.214400 0.346218
Si Si4 0.242843 0.942977 0.152434
O O1 0.273463 0.161684 0.890489
O O2 0.000000 0.020206 0.750000
O O3 0.926910 0.065804 0.842177
O O4 0.242535 0.915328 0.905706
O O5 0.250000 0.250000 0.500000
O O6 0.283863 0.328698 0.399735
O O7 0.918514 0.225434 0.336827
O O8 0.500000 0.213130 0.250000
O O9 0.798556 0.079967 0.387514
O O10 0.500000 0.940806 0.250000
#
# Coordination Sequence:
#
# PCOD9272993 Si02
#       4
#     8   8   8   8
#     4  10  21  37  60  88 114 150 201 243 285 346
#     4  11  24  39  58  89 124 155 190 238 296 350
#     4   9  20  38  59  85 114 150 197 239 283 342
#     4  10  20  37  62  85 114 153 196 243 288 342
#
# _framework density 22.22447
#
# number of rings (size 3 to 8) (size 9 to 14) (size 15 to 20)
#    0.000    2.000    0.000    3.750    0.000   13.000 
#    0.000    2.500    0.000    0.000    0.000    0.000 
#    0.000    0.000    0.000    0.000    0.000    0.000 
#
# Total GULP energy -89369.746582 kJ/mol
# GULP energy per Si atom -5585.609161 kJ/mol
# Density = 2.217389 g / cm^3
# Si number density = 22.224470 Si / 1000 Ang^3
#
#
#
# Elastic Constant Matrix: (Units=GPa)
#
#
# Indices 1 2 3 4 5 6 
#
# 1 102.6207 84.4402 25.1251 0.0000 -16.2670 0.0000
# 2 84.4402 254.3374 30.7169 0.0000 -43.8512 0.0000
# 3 25.1251 30.7169 45.4403 0.0000 -20.8913 0.0000
# 4 0.0000 0.0000 0.0000 10.8892 0.0000 -13.5009
# 5 -16.2670 -43.8512 -20.8913 0.0000 33.2535 0.0000
# 6 0.0000 0.0000 0.0000 -13.5009 0.0000 45.5964
#
#
#
# Elastic Compliance Matrix: (Units=1/GPa)
#
#
# Indices 1 2 3 4 5 6 
#
# 1 0.014600 -0.004579 -0.006285 0.000000 -0.002844 0.000000
# 2 -0.004579 0.006533 0.001471 0.000000 0.007299 0.000000
# 3 -0.006285 0.001471 0.033700 0.000000 0.020037 0.000000
# 4 0.000000 0.000000 0.000000 0.145103 0.000000 0.042964
# 5 -0.002844 0.007299 0.020037 0.000000 0.050895 0.000000
# 6 0.000000 0.000000 0.000000 0.042964 0.000000 0.034653
#
#
# Mechanical properties :
#
#
# Convention : Reuss Voigt Hill
#
# Bulk Modulus (GPa) = 27.74117 75.88476 51.81296
# Shear Modulus (GPa) = 15.80860 35.42223 25.61542
#
# Velocity S-wave (km/s) = 2.66994 3.99662 3.39865
# Velocity P-wave (km/s) = 4.69192 7.45092 6.22617
#
# Compressibility (1/GPa) = 0.03604751
#
# Stress axis : x y z
#
# Youngs Moduli (GPa) = 68.49308 153.07744 29.67380
#
# Poissons Ratio (x) = 0.70087 0.18651
# Poissons Ratio (y) = 0.31360 -0.04366
# Poissons Ratio (z) = 0.43051 -0.22525
#
# Static dielectric constant tensor:
#      x y z
#    x 1.794270 0.000000 0.057550 
#    y 0.000000 1.864200 0.000000 
#    z 0.057550 0.000000 1.861550 
# 
# From -- ./inp_files/131736.got.cif
#   From: 2010.05.17/outbox.cif.g08.bks.cpg/sg15_66_cif.got.tgz:131736.got - 2010.06.03 18:47:42.
