data_PCOD9272212
_publ_section_title
;
Structure prediction by ZEFSAII (Michael W. Deem and Ramdas Pophale) SiO2 
 PCOD9272212
Probable space group: C 2/C
;
_chemical_formula_sum "Si O2"
_cell_formula_units_Z 36
_cell_length_a 9.706644
_cell_length_b 13.428933
_cell_length_c 25.434715
_cell_angle_alpha 90.000000
_cell_angle_beta 153.349890
_cell_angle_gamma 90.000000
_cell_volume 1487.097911
_symmetry_space_group_name_H-M "C 2/C"
_symmetry_group_IT_number 15
_symmetry_cell_setting 'monoclinic'
loop_
_space_group_symop_operation_xyz
x,y,z
-x,y,1/2-z
-x,-y,-z
x,-y,1/2+z
1/2+x,1/2+y,z
1/2-x,1/2+y,1/2-z
1/2-x,1/2-y,-z
1/2+x,1/2-y,1/2+z
loop_
_atom_site_type_symbol
_atom_site_label
_atom_site_fract_x
_atom_site_fract_y
_atom_site_fract_z
Si Si1 0.181648 0.959126 0.912428
Si Si2 0.192702 0.729111 0.104861
Si Si3 0.927193 0.903986 0.510251
Si Si4 0.500000 0.784891 0.750000
Si Si5 0.966215 0.171295 0.842005
O O1 0.116800 0.865635 0.852208
O O2 0.239332 0.927598 0.992158
O O3 0.942584 0.051050 0.832917
O O4 0.500000 0.000000 0.000000
O O5 0.200140 0.773572 0.166352
O O6 0.236616 0.821908 0.080955
O O7 0.831745 0.695483 0.975118
O O8 0.242146 0.854587 0.637466
O O9 0.000000 0.000000 0.500000
O O10 0.382736 0.716333 0.757276
#
# Coordination Sequence:
#
# PCOD9272212 Si02
#       5
#     8   8   8   4   8
#     4  10  20  36  65  98 119 172 224 268 336 401
#     4   9  18  35  64  87 123 167 216 261 327 397
#     4  11  21  41  66  92 132 180 223 276 339 403
#     4  10  24  40  62  92 134 172 222 274 344 402
#     4   9  18  38  58  88 127 166 206 274 328 387
#
# _framework density 24.208223
#
# number of rings (size 3 to 8) (size 9 to 14) (size 15 to 20)
#    0.000    2.222    2.222    0.667    3.111    0.000 
#    4.000    4.444    0.000    0.000    0.000    0.000 
#    0.000    0.000    0.000    0.000    0.000    0.000 
#
# Total GULP energy -100729.707399 kJ/mol
# GULP energy per Si atom -5596.094856 kJ/mol
# Density = 2.415312 g / cm^3
# Si number density = 24.208223 Si / 1000 Ang^3
#
#
#
# Elastic Constant Matrix: (Units=GPa)
#
#
# Indices 1 2 3 4 5 6 
#
# 1 196.6712 106.6245 46.6881 0.0004 -55.7036 0.0003
# 2 106.6245 231.3866 68.6763 0.0000 -47.3923 -0.0001
# 3 46.6881 68.6763 103.0894 0.0005 -37.5022 0.0002
# 4 0.0004 0.0000 0.0005 43.4438 0.0005 -8.9101
# 5 -55.7036 -47.3923 -37.5022 0.0005 44.7488 0.0003
# 6 0.0003 -0.0001 0.0002 -8.9101 0.0003 48.3012
#
#
#
# Elastic Compliance Matrix: (Units=1/GPa)
#
#
# Indices 1 2 3 4 5 6 
#
# 1 0.008776 -0.002466 0.000996 0.000000 0.009147 0.000000
# 2 -0.002466 0.006593 -0.002664 0.000000 0.001680 0.000000
# 3 0.000996 -0.002664 0.015031 0.000000 0.011015 0.000000
# 4 0.000000 0.000000 0.000000 0.023923 -0.000001 0.004413
# 5 0.009147 0.001680 0.011015 -0.000001 0.044744 -0.000001
# 6 0.000000 0.000000 0.000000 0.004413 -0.000001 0.021517
#
#
# Mechanical properties :
#
#
# Convention : Reuss Voigt Hill
#
# Bulk Modulus (GPa) = 45.18404 108.34722 76.76563
# Shear Modulus (GPa) = 36.70234 47.90933 42.30583
#
# Velocity S-wave (km/s) = 3.89795 4.45348 4.18494
# Velocity P-wave (km/s) = 6.24211 8.44382 7.42503
#
# Compressibility (1/GPa) = 0.02213171
#
# Stress axis : x y z
#
# Youngs Moduli (GPa) = 113.94716 151.67681 66.52798
#
# Poissons Ratio (x) = 0.37405 -0.06626
# Poissons Ratio (y) = 0.28101 0.17724
# Poissons Ratio (z) = -0.11349 0.40408
#
# Static dielectric constant tensor:
#      x y z
#    x 1.859360 0.000000 0.067000 
#    y 0.000000 1.956780 0.000000 
#    z 0.067000 0.000000 1.991460 
# 
# From -- ./inp_files/132606.got.cif
#   From: 2010.05.17/outbox.cif.g08.bks.cpg/sg15_67_cif.got.tgz:132606.got - 2010.06.03 18:47:42.
