data_PCOD9272322
_publ_section_title
;
Structure prediction by ZEFSAII (Michael W. Deem and Ramdas Pophale) SiO2 
 PCOD9272322
Probable space group: C 2/C
;
_chemical_formula_sum "Si O2"
_cell_formula_units_Z 56
_cell_length_a 19.780219
_cell_length_b 8.721964
_cell_length_c 17.073374
_cell_angle_alpha 90.000000
_cell_angle_beta 107.891670
_cell_angle_gamma 90.000000
_cell_volume 2803.089776
_symmetry_space_group_name_H-M "C 2/C"
_symmetry_group_IT_number 15
_symmetry_cell_setting 'monoclinic'
loop_
_space_group_symop_operation_xyz
x,y,z
-x,y,1/2-z
-x,-y,-z
x,-y,1/2+z
1/2+x,1/2+y,z
1/2-x,1/2+y,1/2-z
1/2-x,1/2-y,-z
1/2+x,1/2-y,1/2+z
loop_
_atom_site_type_symbol
_atom_site_label
_atom_site_fract_x
_atom_site_fract_y
_atom_site_fract_z
Si Si1 0.902242 0.931996 0.157921
Si Si2 0.781516 0.564136 0.673849
Si Si3 0.664027 0.762130 0.723175
Si Si4 0.703134 0.385828 0.517813
Si Si5 0.925021 0.738023 0.742521
Si Si6 0.574457 0.669942 0.079522
Si Si7 0.472181 0.680771 0.905734
O O1 0.865166 0.833256 0.212570
O O2 0.969486 0.846366 0.142045
O O3 0.924551 0.094718 0.201567
O O4 0.845945 0.954881 0.067854
O O5 0.722412 0.665247 0.696654
O O6 0.800039 0.416160 0.733130
O O7 0.750741 0.507568 0.580352
O O8 0.855083 0.652578 0.689705
O O9 0.593566 0.783556 0.645000
O O10 0.750000 0.250000 0.500000
O O11 0.649201 0.317082 0.562727
O O12 0.922514 0.755921 0.834926
O O13 0.000000 0.659919 0.750000
O O14 0.559188 0.488787 0.087385
O O15 0.513862 0.729999 0.998815
#
# Coordination Sequence:
#
# PCOD9272322 Si02
#       7
#     8   8   8   8   8   8   8
#     4  11  21  37  71  95 127 175 215 261 318 387
#     4  12  27  42  66  92 134 171 211 274 330 386
#     4  12  22  42  63  97 126 169 218 262 324 389
#     4  11  22  41  65 100 132 166 220 271 322 385
#     4  12  24  43  64  95 133 172 221 269 324 385
#     4  10  20  40  65  94 130 170 210 267 313 381
#     4  10  20  36  69  94 125 169 219 255 311 388
#
# _framework density 19.977952999999999
#
# number of rings (size 3 to 8) (size 9 to 14) (size 15 to 20)
#    0.000    0.857    5.714    2.143    0.000    1.714 
#    0.000    2.143    0.000    0.000    0.000    0.000 
#    0.000    0.000    0.000    0.000    0.000    0.000 
#
# Total GULP energy -156587.335354 kJ/mol
# GULP energy per Si atom -5592.404834 kJ/mol
# Density = 1.993248 g / cm^3
# Si number density = 19.977953 Si / 1000 Ang^3
#
#
#
# Elastic Constant Matrix: (Units=GPa)
#
#
# Indices 1 2 3 4 5 6 
#
# 1 149.4537 25.1238 56.0807 0.0000 10.9865 0.0000
# 2 25.1238 37.0983 13.7845 0.0000 10.2858 0.0000
# 3 56.0807 13.7845 129.3568 0.0000 20.1345 0.0000
# 4 0.0000 0.0000 0.0000 16.9801 0.0000 -1.3658
# 5 10.9865 10.2858 20.1345 0.0000 39.3569 0.0000
# 6 0.0000 0.0000 0.0000 -1.3658 0.0000 21.8245
#
#
#
# Elastic Compliance Matrix: (Units=1/GPa)
#
#
# Indices 1 2 3 4 5 6 
#
# 1 0.008717 -0.004807 -0.003350 0.000000 0.000537 0.000000
# 2 -0.004807 0.032237 -0.000270 0.000000 -0.006945 0.000000
# 3 -0.003350 -0.000270 0.009839 0.000000 -0.004028 0.000000
# 4 0.000000 0.000000 0.000000 0.059191 0.000000 0.003704
# 5 0.000537 -0.006945 -0.004028 0.000000 0.029134 0.000000
# 6 0.000000 0.000000 0.000000 0.003704 0.000000 0.046052
#
#
# Mechanical properties :
#
#
# Convention : Reuss Voigt Hill
#
# Bulk Modulus (GPa) = 29.46639 56.20965 42.83802
# Shear Modulus (GPa) = 23.43709 30.36027 26.89868
#
# Velocity S-wave (km/s) = 3.42884 3.90255 3.67334
# Velocity P-wave (km/s) = 5.51882 6.96444 6.28334
#
# Compressibility (1/GPa) = 0.03393697
#
# Stress axis : x y z
#
# Youngs Moduli (GPa) = 114.72002 31.02030 101.63904
#
# Poissons Ratio (x) = 0.14912 0.34053
# Poissons Ratio (y) = 0.55149 0.02746
# Poissons Ratio (z) = 0.38436 0.00838
#
# Static dielectric constant tensor:
#      x y z
#    x 1.705290 0.000000 0.018740 
#    y 0.000000 1.674490 0.000000 
#    z 0.018740 0.000000 1.718940 
# 
# From -- ./inp_files/209639.got.cif
#   From: 2010.05.17/outbox.cif.g08.bks.cpg/sg15_105_cif.got.tgz:209639.got - 2010.06.03 18:47:42.
