data_PCOD9272690
_publ_section_title
;
Structure prediction by ZEFSAII (Michael W. Deem and Ramdas Pophale) SiO2 
 PCOD9272690
Probable space group: C 2/C
;
_chemical_formula_sum "Si O2"
_cell_formula_units_Z 48
_cell_length_a 23.560598
_cell_length_b 12.277829
_cell_length_c 27.510023
_cell_angle_alpha 90.000000
_cell_angle_beta 162.283084
_cell_angle_gamma 90.000000
_cell_volume 2421.704898
_symmetry_space_group_name_H-M "C 2/C"
_symmetry_group_IT_number 15
_symmetry_cell_setting 'monoclinic'
loop_
_space_group_symop_operation_xyz
x,y,z
-x,y,1/2-z
-x,-y,-z
x,-y,1/2+z
1/2+x,1/2+y,z
1/2-x,1/2+y,1/2-z
1/2-x,1/2-y,-z
1/2+x,1/2-y,1/2+z
loop_
_atom_site_type_symbol
_atom_site_label
_atom_site_fract_x
_atom_site_fract_y
_atom_site_fract_z
Si Si1 0.669356 0.401278 0.259533
Si Si2 0.046266 0.084963 0.235029
Si Si3 0.871945 0.877395 0.434216
Si Si4 0.706055 0.195533 0.896499
Si Si5 0.983893 0.253120 0.538784
Si Si6 0.731712 0.041565 0.240849
O O1 0.612189 0.490755 0.252274
O O2 0.508370 0.348784 0.094684
O O3 0.812741 0.456248 0.337902
O O4 0.774512 0.295546 0.365623
O O5 0.199031 0.176066 0.375926
O O6 0.000000 0.034696 0.250000
O O7 0.871599 0.151641 0.067215
O O8 0.740051 0.855500 0.371529
O O9 0.923752 0.783893 0.437251
O O10 0.074627 0.907156 0.620251
O O11 0.785961 0.974004 0.332508
O O12 0.500000 0.171757 0.750000
O O13 0.096131 0.361970 0.643756
#
# Coordination Sequence:
#
# PCOD9272690 Si02
#       6
#     8   8   8   8   8   8
#     4  11  23  40  63  91 126 166 208 255 307 370
#     4  11  24  43  62  91 124 162 212 259 307 370
#     4  10  21  36  60  93 127 157 203 249 313 365
#     4  11  23  40  65  92 125 163 202 258 314 367
#     4  11  22  38  61  93 127 165 202 251 310 371
#     4  10  20  37  59  91 128 164 196 254 306 369
#
# _framework density 19.820747999999998
#
# number of rings (size 3 to 8) (size 9 to 14) (size 15 to 20)
#    0.000    1.333    3.333    3.500    0.000    2.667 
#    0.000    0.833    0.000    1.000    0.000    0.000 
#    0.000    0.000    0.000    0.000    0.000    0.000 
#
# Total GULP energy -133733.673037 kJ/mol
# GULP energy per Si atom -5572.236377 kJ/mol
# Density = 1.977563 g / cm^3
# Si number density = 19.820748 Si / 1000 Ang^3
#
#
#
# Elastic Constant Matrix: (Units=GPa)
#
#
# Indices 1 2 3 4 5 6 
#
# 1 117.2347 27.4137 29.4106 -0.0144 -14.9054 -0.0028
# 2 27.4137 66.7576 37.4249 -0.0190 -13.4005 0.0030
# 3 29.4106 37.4249 63.1353 -0.0176 -14.0625 0.0106
# 4 -0.0144 -0.0190 -0.0176 37.2678 -0.0034 -8.2028
# 5 -14.9054 -13.4005 -14.0625 -0.0034 19.8162 0.0030
# 6 -0.0028 0.0030 0.0106 -8.2028 0.0030 26.2416
#
#
#
# Elastic Compliance Matrix: (Units=1/GPa)
#
#
# Indices 1 2 3 4 5 6 
#
# 1 0.010198 -0.001764 -0.002687 0.000003 0.004571 0.000003
# 2 -0.001764 0.023542 -0.011738 0.000007 0.006263 0.000003
# 3 -0.002687 -0.011738 0.025929 0.000004 0.008442 -0.000009
# 4 0.000003 0.000007 0.000004 0.028815 0.000013 0.009007
# 5 0.004571 0.006263 0.008442 0.000013 0.064128 -0.000007
# 6 0.000003 0.000003 -0.000009 0.009007 -0.000007 0.040923
#
#
# Mechanical properties :
#
#
# Convention : Reuss Voigt Hill
#
# Bulk Modulus (GPa) = 36.64249 48.40286 42.52267
# Shear Modulus (GPa) = 21.27581 26.85702 24.06641
#
# Velocity S-wave (km/s) = 3.27985 3.68502 3.48832
# Velocity P-wave (km/s) = 5.73326 6.52527 6.14204
#
# Compressibility (1/GPa) = 0.02729072
#
# Stress axis : x y z
#
# Youngs Moduli (GPa) = 98.06304 42.47798 38.56704
#
# Poissons Ratio (x) = 0.07492 0.10362
# Poissons Ratio (y) = 0.17297 0.45271
# Poissons Ratio (z) = 0.26346 0.49861
#
# Static dielectric constant tensor:
#      x y z
#    x 1.711240 0.000010 -0.016210 
#    y 0.000010 1.747870 0.000010 
#    z -0.016210 0.000010 1.829790 
# 
# From -- ./inp_files/65037.got.cif
#   From: 2010.05.17/outbox.cif.g08.bks.cpg/sg15_33_cif.got.tgz:65037.got - 2010.06.03 18:47:42.
