data_PCOD9272275
_publ_section_title
;
Structure prediction by ZEFSAII (Michael W. Deem and Ramdas Pophale) SiO2 
 PCOD9272275
Probable space group: C 2/C
;
_chemical_formula_sum "Si O2"
_cell_formula_units_Z 52
_cell_length_a 23.004843
_cell_length_b 7.230748
_cell_length_c 15.111750
_cell_angle_alpha 90.000000
_cell_angle_beta 61.087335
_cell_angle_gamma 90.000000
_cell_volume 2200.405924
_symmetry_space_group_name_H-M "C 2/C"
_symmetry_group_IT_number 15
_symmetry_cell_setting 'monoclinic'
loop_
_space_group_symop_operation_xyz
x,y,z
-x,y,1/2-z
-x,-y,-z
x,-y,1/2+z
1/2+x,1/2+y,z
1/2-x,1/2+y,1/2-z
1/2-x,1/2-y,-z
1/2+x,1/2-y,1/2+z
loop_
_atom_site_type_symbol
_atom_site_label
_atom_site_fract_x
_atom_site_fract_y
_atom_site_fract_z
Si Si1 0.699041 0.939129 0.688086
Si Si2 0.620800 0.188746 0.402587
Si Si3 0.149807 0.125863 0.618819
Si Si4 0.747904 0.671448 0.099579
Si Si5 0.984583 0.210949 0.975603
Si Si6 0.500000 0.332924 0.250000
Si Si7 0.344350 0.608266 0.094676
O O1 0.639131 0.903346 0.797458
O O2 0.674606 0.835451 0.617500
O O3 0.768039 0.848098 0.672140
O O4 0.715871 0.153144 0.671551
O O5 0.677510 0.122610 0.427464
O O6 0.543237 0.174443 0.479365
O O7 0.637030 0.408238 0.379875
O O8 0.074103 0.084711 0.702054
O O9 0.157553 0.078933 0.510394
O O10 0.199223 0.000309 0.638570
O O11 0.750000 0.750000 0.000000
O O12 0.991905 0.236218 0.861991
O O13 0.907854 0.240921 0.059858
O O14 0.000000 0.000000 0.000000
#
# Coordination Sequence:
#
# PCOD9272275 Si02
#       7
#     8   8   8   8   8   4   8
#     4  11  22  37  63  98 124 167 220 271 332 385
#     4  10  20  37  59  95 130 164 217 277 321 390
#     4  11  21  41  66  91 129 169 225 263 327 399
#     4  11  24  40  61  93 129 169 216 272 328 393
#     4   9  18  35  60  93 131 166 222 265 324 397
#     4  10  20  36  66  98 120 180 216 270 330 390
#     4   9  20  36  61  96 120 176 214 265 331 389
#
# _framework density 23.632002
#
# number of rings (size 3 to 8) (size 9 to 14) (size 15 to 20)
#    0.000    1.846    4.615    0.462    4.308    0.000 
#    0.000    0.769    0.000    0.923    0.000    0.000 
#    0.000    0.000    0.000    0.000    0.000    0.000 
#
# Total GULP energy -144914.128938 kJ/mol
# GULP energy per Si atom -5573.620344 kJ/mol
# Density = 2.357821 g / cm^3
# Si number density = 23.632002 Si / 1000 Ang^3
#
#
#
# Elastic Constant Matrix: (Units=GPa)
#
#
# Indices 1 2 3 4 5 6 
#
# 1 163.3364 37.0906 -0.7936 0.0001 -36.2409 0.0001
# 2 37.0906 66.1891 22.9312 0.0000 -4.5469 0.0003
# 3 -0.7936 22.9312 49.2861 0.0000 1.7122 0.0000
# 4 0.0001 0.0000 0.0000 17.3959 0.0000 -8.4639
# 5 -36.2409 -4.5469 1.7122 0.0000 52.0351 0.0000
# 6 0.0001 0.0003 0.0000 -8.4639 0.0000 32.5861
#
#
#
# Elastic Compliance Matrix: (Units=1/GPa)
#
#
# Indices 1 2 3 4 5 6 
#
# 1 0.008519 -0.005228 0.002382 0.000000 0.005398 0.000000
# 2 -0.005228 0.021400 -0.009991 0.000000 -0.001443 0.000000
# 3 0.002382 -0.009991 0.024978 0.000000 -0.000036 0.000000
# 4 0.000000 0.000000 0.000000 0.065800 0.000000 0.017091
# 5 0.005398 -0.001443 -0.000036 0.000000 0.022852 0.000000
# 6 0.000000 0.000000 0.000000 0.017091 0.000000 0.035127
#
#
# Mechanical properties :
#
#
# Convention : Reuss Voigt Hill
#
# Bulk Modulus (GPa) = 34.21974 44.14089 39.18031
# Shear Modulus (GPa) = 23.35452 35.04231 29.19841
#
# Velocity S-wave (km/s) = 3.14707 3.85493 3.51885
# Velocity P-wave (km/s) = 5.26470 6.20750 5.75544
#
# Compressibility (1/GPa) = 0.02922290
#
# Stress axis : x y z
#
# Youngs Moduli (GPa) = 117.38730 46.72850 40.03569
#
# Poissons Ratio (x) = 0.24431 -0.09537
# Poissons Ratio (y) = 0.61372 0.39999
# Poissons Ratio (z) = -0.27963 0.46686
#
# Static dielectric constant tensor:
#      x y z
#    x 1.936920 0.000000 0.032310 
#    y 0.000000 1.945570 0.000000 
#    z 0.032310 0.000000 1.915850 
# 
# From -- ./inp_files/171740.got.cif
#   From: 2010.05.17/outbox.cif.g08.bks.cpg/sg15_86_cif.got.tgz:171740.got - 2010.06.03 18:47:42.
