data_PCOD9272204
_publ_section_title
;
Structure prediction by ZEFSAII (Michael W. Deem and Ramdas Pophale) SiO2 
 PCOD9272204
Probable space group: C 2/C
;
_chemical_formula_sum "Si O2"
_cell_formula_units_Z 44
_cell_length_a 7.800686
_cell_length_b 25.956090
_cell_length_c 9.467167
_cell_angle_alpha 90.000000
_cell_angle_beta 115.703808
_cell_angle_gamma 90.000000
_cell_volume 1727.190053
_symmetry_space_group_name_H-M "C 2/C"
_symmetry_group_IT_number 15
_symmetry_cell_setting 'monoclinic'
loop_
_space_group_symop_operation_xyz
x,y,z
-x,y,1/2-z
-x,-y,-z
x,-y,1/2+z
1/2+x,1/2+y,z
1/2-x,1/2+y,1/2-z
1/2-x,1/2-y,-z
1/2+x,1/2-y,1/2+z
loop_
_atom_site_type_symbol
_atom_site_label
_atom_site_fract_x
_atom_site_fract_y
_atom_site_fract_z
Si Si1 0.180497 0.377673 0.636049
Si Si2 0.554986 0.630155 0.542196
Si Si3 0.370534 0.282345 0.844234
Si Si4 0.000000 0.464153 0.750000
Si Si5 0.138564 0.667480 0.664480
Si Si6 0.368544 0.469163 0.057852
O O1 0.339592 0.382981 0.568866
O O2 0.232397 0.329067 0.753498
O O3 0.139350 0.429679 0.703175
O O4 0.986441 0.359863 0.495620
O O5 0.498565 0.690215 0.507869
O O6 0.701485 0.629892 0.721972
O O7 0.391571 0.590701 0.521318
O O8 0.500000 0.277247 0.750000
O O9 0.302172 0.225409 0.856488
O O10 0.847724 0.486482 0.575045
O O11 0.000000 0.673270 0.750000
O O12 0.500000 0.475038 0.250000
O O13 0.500000 0.500000 0.000000
#
# Coordination Sequence:
#
# PCOD9272204 Si02
#       6
#     8   8   8   4   8   8
#     4  10  20  36  65  94 135 189 230 285 355 410
#     4  10  20  40  67  95 140 181 233 293 346 414
#     4   9  16  30  60  94 133 182 234 284 337 407
#     4  12  26  48  74 102 146 180 234 300 364 428
#     4   9  17  31  58  99 132 179 242 286 334 411
#     4  12  30  52  79 109 142 184 235 298 363 433
#
# _framework density 25.474905
#
# number of rings (size 3 to 8) (size 9 to 14) (size 15 to 20)
#    0.000    1.818    1.818    2.182    2.545    5.091 
#    4.909    0.909    4.000    0.000    0.000    0.000 
#    0.000    0.000    0.000    0.000    0.000    0.000 
#
# Total GULP energy -122677.345454 kJ/mol
# GULP energy per Si atom -5576.242975 kJ/mol
# Density = 2.541692 g / cm^3
# Si number density = 25.474905 Si / 1000 Ang^3
#
#
#
# Elastic Constant Matrix: (Units=GPa)
#
#
# Indices 1 2 3 4 5 6 
#
# 1 92.7608 13.4148 43.6098 0.0000 -5.2089 0.0000
# 2 13.4148 15.9836 14.9556 0.0000 -19.4168 0.0000
# 3 43.6098 14.9556 172.0684 0.0000 28.3161 0.0000
# 4 0.0000 0.0000 0.0000 122.2768 0.0000 -48.7735
# 5 -5.2089 -19.4168 28.3161 0.0000 49.1885 0.0000
# 6 0.0000 0.0000 0.0000 -48.7735 0.0000 63.7659
#
#
#
# Elastic Compliance Matrix: (Units=1/GPa)
#
#
# Indices 1 2 3 4 5 6 
#
# 1 0.013319 -0.011980 -0.001975 0.000000 -0.002182 0.000000
# 2 -0.011980 0.264932 -0.040863 0.000000 0.126835 0.000000
# 3 -0.001975 -0.040863 0.013866 0.000000 -0.024322 0.000000
# 4 0.000000 0.000000 0.000000 0.011769 0.000000 0.009002
# 5 -0.002182 0.126835 -0.024322 0.000000 0.084167 0.000000
# 6 0.000000 0.000000 0.000000 0.009002 0.000000 0.022568
#
#
# Mechanical properties :
#
#
# Convention : Reuss Voigt Hill
#
# Bulk Modulus (GPa) = 5.48005 47.19702 26.33854
# Shear Modulus (GPa) = 8.60459 60.96841 34.78650
#
# Velocity S-wave (km/s) = 1.83984 4.89742 3.69930
# Velocity P-wave (km/s) = 2.58247 7.10962 5.34864
#
# Compressibility (1/GPa) = 0.18248013
#
# Stress axis : x y z
#
# Youngs Moduli (GPa) = 75.07978 3.77456 72.11661
#
# Poissons Ratio (x) = 0.04522 0.14246
# Poissons Ratio (y) = 0.89949 2.94689
# Poissons Ratio (z) = 0.14831 0.15424
#
# Static dielectric constant tensor:
#      x y z
#    x 2.112590 0.000000 0.048110 
#    y 0.000000 2.102170 0.000000 
#    z 0.048110 0.000000 2.074970 
# 
# From -- ./inp_files/26284.got.cif
#   From: 2010.05.17/outbox.cif.g08.bks.cpg/sg15_14_cif.got.tgz:26284.got - 2010.06.03 18:47:42.
