data_PCOD9272626
_publ_section_title
;
Structure prediction by ZEFSAII (Michael W. Deem and Ramdas Pophale) SiO2 
 PCOD9272626
Probable space group: C 2/C
;
_chemical_formula_sum "Si O2"
_cell_formula_units_Z 40
_cell_length_a 6.561190
_cell_length_b 17.963056
_cell_length_c 15.830972
_cell_angle_alpha 90.000000
_cell_angle_beta 101.497681
_cell_angle_gamma 90.000000
_cell_volume 1828.381008
_symmetry_space_group_name_H-M "C 2/C"
_symmetry_group_IT_number 15
_symmetry_cell_setting 'monoclinic'
loop_
_space_group_symop_operation_xyz
x,y,z
-x,y,1/2-z
-x,-y,-z
x,-y,1/2+z
1/2+x,1/2+y,z
1/2-x,1/2+y,1/2-z
1/2-x,1/2-y,-z
1/2+x,1/2-y,1/2+z
loop_
_atom_site_type_symbol
_atom_site_label
_atom_site_fract_x
_atom_site_fract_y
_atom_site_fract_z
Si Si1 0.947876 0.802943 0.840880
Si Si2 0.572692 0.725354 0.849026
Si Si3 0.249547 0.431475 0.916478
Si Si4 0.627987 0.596770 0.580599
Si Si5 0.613158 0.158344 0.041425
O O1 0.821185 0.733648 0.868635
O O2 0.795463 0.873062 0.845331
O O3 0.000000 0.785895 0.750000
O O4 0.163600 0.828538 0.897568
O O5 0.500000 0.753956 0.750000
O O6 0.465269 0.646035 0.852408
O O7 0.507965 0.771480 0.927957
O O8 0.281200 0.515946 0.890915
O O9 0.026459 0.410832 0.937965
O O10 0.428747 0.415597 0.001723
O O11 0.810065 0.641801 0.546924
#
# Coordination Sequence:
#
# PCOD9272626 Si02
#       5
#     8   8   8   8   8
#     4  10  20  37  59  83 119 157 203 247 302 363
#     4  11  22  36  58  87 119 156 202 251 307 362
#     4   9  21  37  59  85 114 159 202 249 304 366
#     4  10  21  38  57  87 120 151 201 256 303 361
#     4  10  20  37  61  83 113 158 199 245 302 370
#
# _framework density 21.877278
#
# number of rings (size 3 to 8) (size 9 to 14) (size 15 to 20)
#    0.000    2.000    2.000    1.200    0.000    9.600 
#    0.000    0.000    0.000    0.000    0.000    0.000 
#    0.000    0.000    0.000    0.000    0.000    0.000 
#
# Total GULP energy -111477.201764 kJ/mol
# GULP energy per Si atom -5573.860088 kJ/mol
# Density = 2.182748 g / cm^3
# Si number density = 21.877278 Si / 1000 Ang^3
#
#
#
# Elastic Constant Matrix: (Units=GPa)
#
#
# Indices 1 2 3 4 5 6 
#
# 1 174.4279 61.2425 38.4641 0.0000 -27.5915 0.0000
# 2 61.2425 106.4920 31.9316 0.0000 -17.0178 0.0000
# 3 38.4641 31.9316 47.3683 0.0000 -26.8111 0.0000
# 4 0.0000 0.0000 0.0000 17.1230 0.0000 -7.2646
# 5 -27.5915 -17.0178 -26.8111 0.0000 37.1260 0.0000
# 6 0.0000 0.0000 0.0000 -7.2646 0.0000 45.0397
#
#
#
# Elastic Compliance Matrix: (Units=1/GPa)
#
#
# Indices 1 2 3 4 5 6 
#
# 1 0.007891 -0.003307 -0.002904 0.000000 0.002251 0.000000
# 2 -0.003307 0.013163 -0.007042 0.000000 -0.001510 0.000000
# 3 -0.002904 -0.007042 0.042567 0.000000 0.025355 0.000000
# 4 0.000000 0.000000 0.000000 0.062691 0.000000 0.010112
# 5 0.002251 -0.001510 0.025355 0.000000 0.046227 0.000000
# 6 0.000000 0.000000 0.000000 0.010112 0.000000 0.023834
#
#
# Mechanical properties :
#
#
# Convention : Reuss Voigt Hill
#
# Bulk Modulus (GPa) = 26.94379 65.72939 46.33659
# Shear Modulus (GPa) = 21.25403 32.96775 27.11089
#
# Velocity S-wave (km/s) = 3.12029 3.88614 3.52408
# Velocity P-wave (km/s) = 5.03232 7.08844 6.14696
#
# Compressibility (1/GPa) = 0.03711430
#
# Stress axis : x y z
#
# Youngs Moduli (GPa) = 126.73161 75.97198 23.49223
#
# Poissons Ratio (x) = 0.25127 0.06821
# Poissons Ratio (y) = 0.41916 0.16544
# Poissons Ratio (z) = 0.36797 0.53501
#
# Static dielectric constant tensor:
#      x y z
#    x 1.827100 0.000000 0.011750 
#    y 0.000000 1.851840 0.000000 
#    z 0.011750 0.000000 1.806560 
# 
# From -- ./inp_files/184211.got.cif
#   From: 2010.05.17/outbox.cif.g08.bks.cpg/sg15_93_cif.got.tgz:184211.got - 2010.06.03 18:47:42.
