data_PCOD9272234
_publ_section_title
;
Structure prediction by ZEFSAII (Michael W. Deem and Ramdas Pophale) SiO2 
 PCOD9272234
Probable space group: C 2/C
;
_chemical_formula_sum "Si O2"
_cell_formula_units_Z 60
_cell_length_a 29.816691
_cell_length_b 9.761522
_cell_length_c 23.105150
_cell_angle_alpha 90.000000
_cell_angle_beta 29.852786
_cell_angle_gamma 90.000000
_cell_volume 3347.474647
_symmetry_space_group_name_H-M "C 2/C"
_symmetry_group_IT_number 15
_symmetry_cell_setting 'monoclinic'
loop_
_space_group_symop_operation_xyz
x,y,z
-x,y,1/2-z
-x,-y,-z
x,-y,1/2+z
1/2+x,1/2+y,z
1/2-x,1/2+y,1/2-z
1/2-x,1/2-y,-z
1/2+x,1/2-y,1/2+z
loop_
_atom_site_type_symbol
_atom_site_label
_atom_site_fract_x
_atom_site_fract_y
_atom_site_fract_z
Si Si1 0.026205 0.343053 0.981602
Si Si2 0.764644 0.935371 0.112316
Si Si3 0.406301 0.192248 0.965579
Si Si4 0.237956 0.997030 0.137370
Si Si5 0.723954 0.215656 0.217186
Si Si6 0.500000 0.716073 0.250000
Si Si7 0.803805 0.104620 0.441984
Si Si8 0.157491 0.773788 0.802130
O O1 0.044523 0.322300 0.029021
O O2 0.940764 0.249771 0.062222
O O3 0.117729 0.306253 0.846195
O O4 0.000000 0.500000 0.000000
O O5 0.680903 0.844028 0.228761
O O6 0.765237 0.075229 0.146664
O O7 0.849433 0.834338 0.028126
O O8 0.764946 0.964236 0.043568
O O9 0.471258 0.196376 0.837860
O O10 0.333748 0.071365 0.040150
O O11 0.239860 0.842036 0.156536
O O12 0.212137 0.024403 0.099696
O O13 0.171197 0.083043 0.254067
O O14 0.770222 0.242666 0.227430
O O15 0.410281 0.632276 0.332493
O O16 0.750000 0.250000 0.500000
#
# Coordination Sequence:
#
# PCOD9272234 Si02
#       8
#     8   8   8   8   8   4   8   8
#     4  12  23  37  64  92 122 165 210 247 307 365
#     4  10  21  40  63  86 121 159 194 257 306 359
#     4  10  21  38  65  92 114 160 210 250 304 362
#     4  11  22  39  64  88 124 160 205 256 307 367
#     4  12  24  41  59  92 131 159 197 259 313 366
#     4  10  20  36  66  90 114 150 210 270 282 362
#     4  11  20  40  63  92 113 158 211 251 305 363
#     4  11  21  39  63  87 121 160 204 251 298 373
#
# _framework density 17.923959
#
# number of rings (size 3 to 8) (size 9 to 14) (size 15 to 20)
#    0.000    1.067    8.000    2.400    0.000    1.067 
#    4.800    0.000    0.000    0.800    0.000    0.000 
#    0.000    0.000    0.000    0.000    0.000    0.000 
#
# Total GULP energy -167475.728627 kJ/mol
# GULP energy per Si atom -5582.524288 kJ/mol
# Density = 1.788316 g / cm^3
# Si number density = 17.923959 Si / 1000 Ang^3
#
#
#
# Elastic Constant Matrix: (Units=GPa)
#
#
# Indices 1 2 3 4 5 6 
#
# 1 71.6176 26.6957 24.9429 0.0002 7.1267 0.0000
# 2 26.6957 88.0457 37.3464 0.0005 8.7520 -0.0001
# 3 24.9429 37.3464 105.4013 -0.0009 1.6613 0.0006
# 4 0.0002 0.0005 -0.0009 14.6431 0.0004 6.0782
# 5 7.1267 8.7520 1.6613 0.0004 34.0587 -0.0002
# 6 0.0000 -0.0001 0.0006 6.0782 -0.0002 4.6017
#
#
#
# Elastic Compliance Matrix: (Units=1/GPa)
#
#
# Indices 1 2 3 4 5 6 
#
# 1 0.016458 -0.003669 -0.002557 -0.000001 -0.002376 0.000001
# 2 -0.003669 0.014544 -0.004241 -0.000002 -0.002763 0.000003
# 3 -0.002557 -0.004241 0.011579 0.000003 0.001060 -0.000006
# 4 -0.000001 -0.000002 0.000003 0.151178 -0.000002 -0.199685
# 5 -0.002376 -0.002763 0.001060 -0.000002 0.030516 0.000004
# 6 0.000001 0.000003 -0.000006 -0.199685 0.000004 0.481066
#
#
# Mechanical properties :
#
#
# Convention : Reuss Voigt Hill
#
# Bulk Modulus (GPa) = 46.19998 49.22605 47.71301
# Shear Modulus (GPa) = 6.81671 22.39935 14.60803
#
# Velocity S-wave (km/s) = 1.95228 3.53893 2.85792
# Velocity P-wave (km/s) = 5.55998 6.64997 6.12925
#
# Compressibility (1/GPa) = 0.02164503
#
# Stress axis : x y z
#
# Youngs Moduli (GPa) = 60.76146 68.75710 86.36443
#
# Poissons Ratio (x) = 0.25228 0.22085
# Poissons Ratio (y) = 0.22294 0.36631
# Poissons Ratio (z) = 0.15538 0.29163
#
# Static dielectric constant tensor:
#      x y z
#    x 1.611630 0.000000 0.005480 
#    y 0.000000 1.591230 0.000000 
#    z 0.005480 0.000000 1.622830 
# 
# From -- ./inp_files/284281.got.cif
#   From: 2010.05.17/outbox.cif.g08.bks.cpg/sg15_143_cif.got.tgz:284281.got - 2010.06.03 18:47:42.
