data_PCOD9272216
_publ_section_title
;
Structure prediction by ZEFSAII (Michael W. Deem and Ramdas Pophale) SiO2 
 PCOD9272216
Probable space group: C 2/C
;
_chemical_formula_sum "Si O2"
_cell_formula_units_Z 52
_cell_length_a 10.297899
_cell_length_b 10.341905
_cell_length_c 21.376983
_cell_angle_alpha 90.000000
_cell_angle_beta 63.090717
_cell_angle_gamma 90.000000
_cell_volume 2030.140729
_symmetry_space_group_name_H-M "C 2/C"
_symmetry_group_IT_number 15
_symmetry_cell_setting 'monoclinic'
loop_
_space_group_symop_operation_xyz
x,y,z
-x,y,1/2-z
-x,-y,-z
x,-y,1/2+z
1/2+x,1/2+y,z
1/2-x,1/2+y,1/2-z
1/2-x,1/2-y,-z
1/2+x,1/2-y,1/2+z
loop_
_atom_site_type_symbol
_atom_site_label
_atom_site_fract_x
_atom_site_fract_y
_atom_site_fract_z
Si Si1 0.262788 0.640477 0.887596
Si Si2 0.000822 0.843596 0.070490
Si Si3 0.500000 0.257143 0.750000
Si Si4 0.825541 0.329480 0.688421
Si Si5 0.500000 0.347915 0.250000
Si Si6 0.054623 0.549650 0.631107
Si Si7 0.000000 0.500000 0.500000
Si Si8 0.355836 0.599939 0.093595
O O1 0.361578 0.704209 0.920328
O O2 0.378767 0.579211 0.815756
O O3 0.181808 0.759447 0.871411
O O4 0.162236 0.543600 0.945692
O O5 0.879114 0.735175 0.110382
O O6 0.947473 0.984686 0.105102
O O7 0.052681 0.861691 0.988561
O O8 0.652818 0.326668 0.732922
O O9 0.543157 0.168637 0.680801
O O10 0.908712 0.464899 0.675647
O O11 0.907944 0.239540 0.721496
O O12 0.057142 0.564515 0.555783
O O13 0.200905 0.469843 0.615793
#
# Coordination Sequence:
#
# PCOD9272216 Si02
#       8
#     8   8   4   8   4   8   4   8
#     4  11  22  41  64  97 140 182 233 301 365 433
#     4  10  20  36  66 100 119 169 234 294 342 426
#     4  12  27  48  75 112 150 200 257 302 371 468
#     4  11  23  43  72 101 146 190 245 308 370 445
#     4  10  21  40  69 104 132 192 247 300 369 454
#     4  12  24  45  74 103 142 193 240 303 375 443
#     4  12  26  44  68 106 150 188 236 318 380 442
#     4  11  20  38  71  93 124 177 241 282 353 433
#
# _framework density 25.613989
#
# number of rings (size 3 to 8) (size 9 to 14) (size 15 to 20)
#    0.000    0.923    6.154    2.769    0.000    0.000 
#    0.000    9.231    0.000    0.000    0.000    0.000 
#    0.000    0.000    0.000    0.000    0.000    0.000 
#
# Total GULP energy -144889.030407 kJ/mol
# GULP energy per Si atom -5572.655016 kJ/mol
# Density = 2.555569 g / cm^3
# Si number density = 25.613989 Si / 1000 Ang^3
#
#
#
# Elastic Constant Matrix: (Units=GPa)
#
#
# Indices 1 2 3 4 5 6 
#
# 1 115.8933 34.1570 40.2080 0.0000 -24.0034 0.0000
# 2 34.1570 86.7991 24.3295 0.0000 -5.7384 0.0000
# 3 40.2080 24.3295 98.8428 0.0000 -31.8214 0.0000
# 4 0.0000 0.0000 0.0000 25.4198 0.0000 -4.7595
# 5 -24.0034 -5.7384 -31.8214 0.0000 59.3421 0.0000
# 6 0.0000 0.0000 0.0000 -4.7595 0.0000 34.2426
#
#
#
# Elastic Compliance Matrix: (Units=1/GPa)
#
#
# Indices 1 2 3 4 5 6 
#
# 1 0.011177 -0.003424 -0.002846 0.000000 0.002664 0.000000
# 2 -0.003424 0.013438 -0.002347 0.000000 -0.001344 0.000000
# 3 -0.002846 -0.002347 0.013790 0.000000 0.006016 0.000000
# 4 0.000000 0.000000 0.000000 0.040391 0.000000 0.005614
# 5 0.002664 -0.001344 0.006016 0.000000 0.021025 0.000000
# 6 0.000000 0.000000 0.000000 0.005614 0.000000 0.029984
#
#
# Mechanical properties :
#
#
# Convention : Reuss Voigt Hill
#
# Bulk Modulus (GPa) = 47.24134 55.43602 51.33868
# Shear Modulus (GPa) = 32.44743 37.32363 34.88553
#
# Velocity S-wave (km/s) = 3.56305 3.82142 3.69449
# Velocity P-wave (km/s) = 5.95069 6.41567 6.18755
#
# Compressibility (1/GPa) = 0.02116790
#
# Stress axis : x y z
#
# Youngs Moduli (GPa) = 89.46886 74.41853 72.51885
#
# Poissons Ratio (x) = 0.25484 0.20641
# Poissons Ratio (y) = 0.30638 0.17023
# Poissons Ratio (z) = 0.25465 0.17469
#
# Static dielectric constant tensor:
#      x y z
#    x 2.031650 0.000000 0.019230 
#    y 0.000000 2.007930 0.000000 
#    z 0.019230 0.000000 2.086360 
# 
# From -- ./inp_files/269225.got.cif
#   From: 2010.05.17/outbox.cif.g08.bks.cpg/sg15_135_cif.got.tgz:269225.got - 2010.06.03 18:47:42.
