data_PCOD9272390
_publ_section_title
;
Structure prediction by ZEFSAII (Michael W. Deem and Ramdas Pophale) SiO2 
 PCOD9272390
Probable space group: C 2/C
;
_chemical_formula_sum "Si O2"
_cell_formula_units_Z 52
_cell_length_a 24.173078
_cell_length_b 9.675773
_cell_length_c 8.928382
_cell_angle_alpha 90.000000
_cell_angle_beta 106.455611
_cell_angle_gamma 90.000000
_cell_volume 2002.750621
_symmetry_space_group_name_H-M "C 2/C"
_symmetry_group_IT_number 15
_symmetry_cell_setting 'monoclinic'
loop_
_space_group_symop_operation_xyz
x,y,z
-x,y,1/2-z
-x,-y,-z
x,-y,1/2+z
1/2+x,1/2+y,z
1/2-x,1/2+y,1/2-z
1/2-x,1/2-y,-z
1/2+x,1/2-y,1/2+z
loop_
_atom_site_type_symbol
_atom_site_label
_atom_site_fract_x
_atom_site_fract_y
_atom_site_fract_z
Si Si1 0.802915 0.427861 0.769777
Si Si2 0.917213 0.565164 0.777454
Si Si3 0.646412 0.583974 0.633220
Si Si4 0.080645 0.683922 0.041414
Si Si5 0.279741 0.545362 0.539955
Si Si6 0.500000 0.515869 0.750000
Si Si7 0.569882 0.345201 0.559026
O O1 0.848191 0.534307 0.727075
O O2 0.758224 0.373982 0.612352
O O3 0.849203 0.324973 0.879749
O O4 0.765892 0.494700 0.871644
O O5 0.934918 0.622137 0.630066
O O6 0.928701 0.682363 0.909125
O O7 0.943031 0.418204 0.850550
O O8 0.582830 0.652179 0.554961
O O9 0.692133 0.581834 0.532036
O O10 0.631878 0.417611 0.618826
O O11 0.670689 0.610450 0.818090
O O12 0.535366 0.414319 0.669205
O O13 0.459230 0.613687 0.618839
#
# Coordination Sequence:
#
# PCOD9272390 Si02
#       7
#     8   8   8   8   8   4   8
#     4   9  18  38  53  88 125 182 220 255 298 348
#     4  10  21  40  64  88 127 172 210 260 311 391
#     4  11  23  38  62  95 128 173 217 272 301 383
#     4  10  21  38  61  88 125 181 214 257 313 357
#     4  10  20  37  54  92 132 179 224 258 288 353
#     4  10  24  44  78  98 120 156 204 284 332 428
#     4  11  23  46  70  98 124 156 213 265 349 382
#
# _framework density 25.964290999999999
#
# number of rings (size 3 to 8) (size 9 to 14) (size 15 to 20)
#    0.923    0.923    1.538    2.769    0.000    3.692 
#   11.077    0.000    0.000   15.692    0.000    0.000 
#    0.000    0.000    0.000    0.000    0.000    0.000 
#
# Total GULP energy -145236.497526 kJ/mol
# GULP energy per Si atom -5586.019136 kJ/mol
# Density = 2.590519 g / cm^3
# Si number density = 25.964291 Si / 1000 Ang^3
#
#
#
# Elastic Constant Matrix: (Units=GPa)
#
#
# Indices 1 2 3 4 5 6 
#
# 1 68.5352 -5.1763 21.8290 0.0000 -0.4013 0.0000
# 2 -5.1763 71.2971 22.9042 0.0000 6.1500 0.0000
# 3 21.8290 22.9042 160.2221 0.0000 13.0326 0.0000
# 4 0.0000 0.0000 0.0000 38.2555 0.0000 2.6337
# 5 -0.4013 6.1500 13.0326 0.0000 34.4867 0.0000
# 6 0.0000 0.0000 0.0000 2.6337 0.0000 19.2307
#
#
#
# Elastic Compliance Matrix: (Units=1/GPa)
#
#
# Indices 1 2 3 4 5 6 
#
# 1 0.015512 0.001843 -0.002440 0.000000 0.000774 0.000000
# 2 0.001843 0.015040 -0.002254 0.000000 -0.001809 0.000000
# 3 -0.002440 -0.002254 0.007083 0.000000 -0.002303 0.000000
# 4 0.000000 0.000000 0.000000 0.026389 0.000000 -0.003614
# 5 0.000774 -0.001809 -0.002303 0.000000 0.030199 0.000000
# 6 0.000000 0.000000 0.000000 -0.003614 0.000000 0.052495
#
#
# Mechanical properties :
#
#
# Convention : Reuss Voigt Hill
#
# Bulk Modulus (GPa) = 31.31476 42.12981 36.72228
# Shear Modulus (GPa) = 30.66293 35.76106 33.21199
#
# Velocity S-wave (km/s) = 3.44025 3.71525 3.58039
# Velocity P-wave (km/s) = 5.27895 5.88773 5.59163
#
# Compressibility (1/GPa) = 0.03193383
#
# Stress axis : x y z
#
# Youngs Moduli (GPa) = 64.46673 66.49044 141.17719
#
# Poissons Ratio (x) = -0.12256 0.34444
# Poissons Ratio (y) = -0.11883 0.31821
# Poissons Ratio (z) = 0.15729 0.14987
#
# Static dielectric constant tensor:
#      x y z
#    x 2.084260 0.000000 0.039380 
#    y 0.000000 3.517530 0.000000 
#    z 0.039380 0.000000 2.003460 
# 
# From -- ./inp_files/69204.got.cif
#   From: 2010.05.17/outbox.cif.g08.bks.cpg/sg15_35_cif.got.tgz:69204.got - 2010.06.03 18:47:42.
