data_PCOD9272049
_publ_section_title
;
Structure prediction by ZEFSAII (Michael W. Deem and Ramdas Pophale) SiO2 
 PCOD9272049
Probable space group: C 2/C
;
_chemical_formula_sum "Si O2"
_cell_formula_units_Z 52
_cell_length_a 26.243394
_cell_length_b 19.301271
_cell_length_c 14.398070
_cell_angle_alpha 90.000000
_cell_angle_beta 160.321669
_cell_angle_gamma 90.000000
_cell_volume 2455.861285
_symmetry_space_group_name_H-M "C 2/C"
_symmetry_group_IT_number 15
_symmetry_cell_setting 'monoclinic'
loop_
_space_group_symop_operation_xyz
x,y,z
-x,y,1/2-z
-x,-y,-z
x,-y,1/2+z
1/2+x,1/2+y,z
1/2-x,1/2+y,1/2-z
1/2-x,1/2-y,-z
1/2+x,1/2-y,1/2+z
loop_
_atom_site_type_symbol
_atom_site_label
_atom_site_fract_x
_atom_site_fract_y
_atom_site_fract_z
Si Si1 0.507507 0.083736 0.651361
Si Si2 0.000000 0.112943 0.750000
Si Si3 0.405656 0.072922 0.994686
Si Si4 0.851954 0.068616 0.206582
Si Si5 0.086272 0.171926 0.704443
Si Si6 0.607451 0.486510 0.041330
Si Si7 0.088544 0.334228 0.681172
O O1 0.500000 0.096462 0.750000
O O2 0.408165 0.133759 0.416282
O O3 0.457432 0.003977 0.550627
O O4 0.679908 0.092782 0.911379
O O5 0.050946 0.160270 0.752623
O O6 0.886388 0.057428 0.506873
O O7 0.500000 0.086122 0.250000
O O8 0.451059 0.130118 0.998919
O O9 0.228662 0.067633 0.713614
O O10 0.967740 0.126549 0.443341
O O11 0.934395 0.039311 0.256079
O O12 0.848497 0.008153 0.278373
O O13 0.076766 0.251647 0.659477
O O14 0.260645 0.147967 0.000793
#
# Coordination Sequence:
#
# PCOD9272049 Si02
#       7
#     8   4   8   8   8   8   8
#     4  11  23  41  65  96 127 168 218 278 329 372
#     4  10  22  36  66  92 124 162 214 256 320 398
#     4  11  21  37  63  99 128 162 214 275 323 375
#     4  10  21  40  63  89 130 170 212 265 323 384
#     4  10  24  43  62  92 128 178 214 256 322 401
#     4  10  20  36  63  93 128 165 208 267 329 379
#     4  11  25  41  66  92 132 172 220 265 322 392
#
# _framework density 21.173835
#
# number of rings (size 3 to 8) (size 9 to 14) (size 15 to 20)
#    0.000    1.538    3.077    2.308    9.692    0.615 
#    0.000    0.000    1.692    0.000    0.000    0.000 
#    0.000    0.000    0.000    0.000    0.000    0.000 
#
# Total GULP energy -145207.490987 kJ/mol
# GULP energy per Si atom -5584.903500 kJ/mol
# Density = 2.112564 g / cm^3
# Si number density = 21.173835 Si / 1000 Ang^3
#
#
#
# Elastic Constant Matrix: (Units=GPa)
#
#
# Indices 1 2 3 4 5 6 
#
# 1 75.2435 32.0001 36.7764 0.0000 9.5877 0.0000
# 2 32.0001 64.1495 31.7174 0.0000 -4.4273 0.0000
# 3 36.7764 31.7174 94.9726 0.0000 16.8523 0.0000
# 4 0.0000 0.0000 0.0000 2.4414 0.0000 -20.2963
# 5 9.5877 -4.4273 16.8523 0.0000 34.1885 0.0000
# 6 0.0000 0.0000 0.0000 -20.2963 0.0000 17.7180
#
#
#
# Elastic Compliance Matrix: (Units=1/GPa)
#
#
# Indices 1 2 3 4 5 6 
#
# 1 0.019164 -0.007886 -0.004002 0.000000 -0.004422 0.000000
# 2 -0.007886 0.023119 -0.006127 0.000000 0.008225 0.000000
# 3 -0.004002 -0.006127 0.015415 0.000000 -0.007270 0.000000
# 4 0.000000 0.000000 0.000000 -0.048057 0.000000 -0.055051
# 5 -0.004422 0.008225 -0.007270 0.000000 0.035138 0.000000
# 6 0.000000 0.000000 0.000000 -0.055051 0.000000 -0.006622
#
#
# Mechanical properties :
#
#
# Convention : Reuss Voigt Hill
#
# Bulk Modulus (GPa) = 46.15117 48.37261 47.26189
# Shear Modulus (GPa) = 61.41676 19.79434 40.60555
#
# Velocity S-wave (km/s) = 5.39156 3.06085 4.38393
# Velocity P-wave (km/s) = 7.78474 5.94868 6.92781
#
# Compressibility (1/GPa) = 0.02166792
#
# Stress axis : x y z
#
# Youngs Moduli (GPa) = 52.18194 43.25379 64.87033
#
# Poissons Ratio (x) = 0.34109 0.25964
# Poissons Ratio (y) = 0.41150 0.39746
# Poissons Ratio (z) = 0.20886 0.26501
#
# Static dielectric constant tensor:
#      x y z
#    x 1.793300 0.000000 0.010990 
#    y 0.000000 1.712490 0.000000 
#    z 0.010990 0.000000 1.851760 
# 
# From -- ./inp_files/179037.got.cif
#   From: 2010.05.17/outbox.cif.g08.bks.cpg/sg15_90_cif.got.tgz:179037.got - 2010.06.03 18:47:42.
