data_PCOD9272585
_publ_section_title
;
Structure prediction by ZEFSAII (Michael W. Deem and Ramdas Pophale) SiO2 
 PCOD9272585
Probable space group: C 2/C
;
_chemical_formula_sum "Si O2"
_cell_formula_units_Z 44
_cell_length_a 19.701652
_cell_length_b 13.826117
_cell_length_c 12.981706
_cell_angle_alpha 90.000000
_cell_angle_beta 147.648531
_cell_angle_gamma 90.000000
_cell_volume 1892.251563
_symmetry_space_group_name_H-M "C 2/C"
_symmetry_group_IT_number 15
_symmetry_cell_setting 'monoclinic'
loop_
_space_group_symop_operation_xyz
x,y,z
-x,y,1/2-z
-x,-y,-z
x,-y,1/2+z
1/2+x,1/2+y,z
1/2-x,1/2+y,1/2-z
1/2-x,1/2-y,-z
1/2+x,1/2-y,1/2+z
loop_
_atom_site_type_symbol
_atom_site_label
_atom_site_fract_x
_atom_site_fract_y
_atom_site_fract_z
Si Si1 0.131328 0.765724 0.924576
Si Si2 0.753149 0.120951 0.739339
Si Si3 0.297958 0.097809 0.350030
Si Si4 0.785520 0.795818 0.937131
Si Si5 0.027295 0.114473 0.111656
Si Si6 0.500000 0.452156 0.250000
O O1 0.028371 0.800050 0.701105
O O2 0.250000 0.750000 0.000000
O O3 0.203737 0.846120 0.091516
O O4 0.123583 0.658828 0.967326
O O5 0.674820 0.204825 0.583390
O O6 0.690305 0.016830 0.647488
O O7 0.898235 0.118882 0.880380
O O8 0.319327 0.151688 0.268603
O O9 0.151430 0.113919 0.200722
O O10 0.116048 0.118733 0.918905
O O11 0.750000 0.750000 0.000000
O O12 0.023572 0.021718 0.182334
#
# Coordination Sequence:
#
# PCOD9272585 Si02
#       6
#     8   8   8   8   8   4
#     4   9  19  37  56  86 129 155 197 260 318 379
#     4  10  20  37  58  89 123 157 210 259 312 380
#     4  11  21  35  65  92 120 169 212 265 314 373
#     4  11  25  39  59  93 133 168 211 265 323 375
#     4  11  19  37  66  95 118 159 218 266 315 371
#     4  12  22  42  70  92 130 168 214 272 314 380
#
# _framework density 23.252721999999999
#
# number of rings (size 3 to 8) (size 9 to 14) (size 15 to 20)
#    0.000    1.455    4.545    2.182    2.545    0.000 
#    1.636    0.000    0.000    1.091    0.000    0.000 
#    0.000    0.000    0.000    0.000    0.000    0.000 
#
# Total GULP energy -122656.199069 kJ/mol
# GULP energy per Si atom -5575.281776 kJ/mol
# Density = 2.319980 g / cm^3
# Si number density = 23.252722 Si / 1000 Ang^3
#
#
#
# Elastic Constant Matrix: (Units=GPa)
#
#
# Indices 1 2 3 4 5 6 
#
# 1 52.0846 28.7784 23.3516 0.0000 -17.7558 0.0000
# 2 28.7784 221.0495 65.4861 0.0000 -9.5615 0.0000
# 3 23.3516 65.4861 93.7593 0.0000 -7.9653 0.0000
# 4 0.0000 0.0000 0.0000 60.3565 0.0000 -4.0584
# 5 -17.7558 -9.5615 -7.9653 0.0000 20.6610 0.0000
# 6 0.0000 0.0000 0.0000 -4.0584 0.0000 24.6276
#
#
#
# Elastic Compliance Matrix: (Units=1/GPa)
#
#
# Indices 1 2 3 4 5 6 
#
# 1 0.030008 -0.001601 -0.004371 0.000000 0.023363 0.000000
# 2 -0.001601 0.005816 -0.003672 0.000000 -0.000100 0.000000
# 3 -0.004371 -0.003672 0.014324 0.000000 0.000067 0.000000
# 4 0.000000 0.000000 0.000000 0.016754 0.000000 0.002761
# 5 0.023363 -0.000100 0.000067 0.000000 0.068458 0.000000
# 6 0.000000 0.000000 0.000000 0.002761 0.000000 0.041060
#
#
# Mechanical properties :
#
#
# Convention : Reuss Voigt Hill
#
# Bulk Modulus (GPa) = 32.40327 66.90285 49.65306
# Shear Modulus (GPa) = 24.27254 37.74749 31.01002
#
# Velocity S-wave (km/s) = 3.23438 4.03346 3.65582
# Velocity P-wave (km/s) = 5.28335 7.10818 6.26259
#
# Compressibility (1/GPa) = 0.03086108
#
# Stress axis : x y z
#
# Youngs Moduli (GPa) = 33.32406 171.94634 69.81127
#
# Poissons Ratio (x) = 0.27536 0.30511
# Poissons Ratio (y) = 0.05337 0.25633
# Poissons Ratio (z) = 0.14564 0.63133
#
# Static dielectric constant tensor:
#      x y z
#    x 2.064220 0.000000 -0.054940 
#    y 0.000000 1.797040 0.000000 
#    z -0.054940 0.000000 1.690730 
# 
# From -- ./inp_files/118618.got.cif
#   From: 2010.05.17/outbox.cif.g08.bks.cpg/sg15_60_cif.got.tgz:118618.got - 2010.06.03 18:47:42.
