data_PCOD9272307
_publ_section_title
;
Structure prediction by ZEFSAII (Michael W. Deem and Ramdas Pophale) SiO2 
 PCOD9272307
Probable space group: C 2/C
;
_chemical_formula_sum "Si O2"
_cell_formula_units_Z 48
_cell_length_a 13.105115
_cell_length_b 14.138317
_cell_length_c 14.120236
_cell_angle_alpha 90.000000
_cell_angle_beta 57.157071
_cell_angle_gamma 90.000000
_cell_volume 2198.076290
_symmetry_space_group_name_H-M "C 2/C"
_symmetry_group_IT_number 15
_symmetry_cell_setting 'monoclinic'
loop_
_space_group_symop_operation_xyz
x,y,z
-x,y,1/2-z
-x,-y,-z
x,-y,1/2+z
1/2+x,1/2+y,z
1/2-x,1/2+y,1/2-z
1/2-x,1/2-y,-z
1/2+x,1/2-y,1/2+z
loop_
_atom_site_type_symbol
_atom_site_label
_atom_site_fract_x
_atom_site_fract_y
_atom_site_fract_z
Si Si1 0.338075 0.677333 0.902518
Si Si2 0.101810 0.440307 0.829735
Si Si3 0.661299 0.841939 0.332685
Si Si4 0.461474 0.747900 0.567104
Si Si5 0.757893 0.325364 0.412632
Si Si6 0.177992 0.466597 0.580830
O O1 0.290536 0.676405 0.818999
O O2 0.468228 0.710148 0.875003
O O3 0.250000 0.750000 0.000000
O O4 0.291215 0.579110 0.970418
O O5 0.135694 0.544480 0.851356
O O6 0.169044 0.434926 0.694786
O O7 0.121552 0.341428 0.872999
O O8 0.955163 0.440228 0.891044
O O9 0.561755 0.784287 0.441657
O O10 0.662610 0.810618 0.222705
O O11 0.377733 0.668562 0.562129
O O12 0.750000 0.250000 0.500000
O O13 0.808073 0.421853 0.429521
#
# Coordination Sequence:
#
# PCOD9272307 Si02
#       6
#     8   8   8   8   8   8
#     4  10  21  38  61  95 126 161 210 272 319 379
#     4  10  20  36  68  93 120 169 219 265 312 374
#     4  10  22  40  63  96 127 163 224 270 311 380
#     4  11  23  38  68  96 125 171 214 265 329 383
#     4  11  26  41  62  95 136 174 215 265 327 391
#     4  10  21  39  63  95 131 165 216 271 316 383
#
# _framework density 21.837278999999999
#
# number of rings (size 3 to 8) (size 9 to 14) (size 15 to 20)
#    0.000    1.667    3.333    1.500    7.000    3.333 
#    0.000    0.000    0.000    2.000    0.000    0.000 
#    0.000    0.000    0.000    0.000    0.000    0.000 
#
# Total GULP energy -133967.165406 kJ/mol
# GULP energy per Si atom -5581.965225 kJ/mol
# Density = 2.178758 g / cm^3
# Si number density = 21.837279 Si / 1000 Ang^3
#
#
#
# Elastic Constant Matrix: (Units=GPa)
#
#
# Indices 1 2 3 4 5 6 
#
# 1 48.4607 -2.8957 -8.1750 0.0000 2.8564 0.0000
# 2 -2.8957 48.8612 30.0166 0.0000 5.1283 0.0000
# 3 -8.1750 30.0166 97.8393 0.0000 13.0705 0.0000
# 4 0.0000 0.0000 0.0000 28.4882 0.0000 3.2753
# 5 2.8564 5.1283 13.0705 0.0000 35.6246 0.0000
# 6 0.0000 0.0000 0.0000 3.2753 0.0000 30.5615
#
#
#
# Elastic Compliance Matrix: (Units=1/GPa)
#
#
# Indices 1 2 3 4 5 6 
#
# 1 0.021137 0.000276 0.002012 0.000000 -0.002473 0.000000
# 2 0.000276 0.025246 -0.007607 0.000000 -0.000866 0.000000
# 3 0.002012 -0.007607 0.013247 0.000000 -0.003927 0.000000
# 4 0.000000 0.000000 0.000000 0.035540 0.000000 -0.003809
# 5 -0.002473 -0.000866 -0.003927 0.000000 0.029834 0.000000
# 6 0.000000 0.000000 0.000000 -0.003809 0.000000 0.033129
#
#
# Mechanical properties :
#
#
# Convention : Reuss Voigt Hill
#
# Bulk Modulus (GPa) = 20.41111 25.89479 23.15295
# Shear Modulus (GPa) = 27.01214 30.68256 28.84735
#
# Velocity S-wave (km/s) = 3.52088 3.75247 3.63852
# Velocity P-wave (km/s) = 5.08881 5.53701 5.31764
#
# Compressibility (1/GPa) = 0.04899293
#
# Stress axis : x y z
#
# Youngs Moduli (GPa) = 47.31072 39.60972 75.48777
#
# Poissons Ratio (x) = -0.01095 -0.15185
# Poissons Ratio (y) = -0.01307 0.57421
# Poissons Ratio (z) = -0.09517 0.30130
#
# Static dielectric constant tensor:
#      x y z
#    x 1.787790 0.000000 0.047360 
#    y 0.000000 2.078740 0.000000 
#    z 0.047360 0.000000 1.807690 
# 
# From -- ./inp_files/152467.got.cif
#   From: 2010.05.17/outbox.cif.g08.bks.cpg/sg15_77_cif.got.tgz:152467.got - 2010.06.03 18:47:42.
