data_PCOD9272521
_publ_section_title
;
Structure prediction by ZEFSAII (Michael W. Deem and Ramdas Pophale) SiO2 
 PCOD9272521
Probable space group: C 2/C
;
_chemical_formula_sum "Si O2"
_cell_formula_units_Z 56
_cell_length_a 8.344569
_cell_length_b 22.572952
_cell_length_c 14.405350
_cell_angle_alpha 90.000000
_cell_angle_beta 114.774911
_cell_angle_gamma 90.000000
_cell_volume 2463.674382
_symmetry_space_group_name_H-M "C 2/C"
_symmetry_group_IT_number 15
_symmetry_cell_setting 'monoclinic'
loop_
_space_group_symop_operation_xyz
x,y,z
-x,y,1/2-z
-x,-y,-z
x,-y,1/2+z
1/2+x,1/2+y,z
1/2-x,1/2+y,1/2-z
1/2-x,1/2-y,-z
1/2+x,1/2-y,1/2+z
loop_
_atom_site_type_symbol
_atom_site_label
_atom_site_fract_x
_atom_site_fract_y
_atom_site_fract_z
Si Si1 0.621789 0.194190 0.862887
Si Si2 0.683236 0.521772 0.793671
Si Si3 0.029607 0.577074 0.939059
Si Si4 0.798913 0.988760 0.913685
Si Si5 0.213802 0.888685 0.861453
Si Si6 0.466967 0.301214 0.531617
Si Si7 0.706751 0.142295 0.324596
O O1 0.500000 0.215918 0.750000
O O2 0.563047 0.128271 0.872831
O O3 0.570830 0.237180 0.934928
O O4 0.836221 0.194581 0.910904
O O5 0.500000 0.555552 0.750000
O O6 0.728096 0.513864 0.696899
O O7 0.655083 0.456771 0.832652
O O8 0.833274 0.555069 0.884363
O O9 0.160495 0.523638 0.943699
O O10 0.088319 0.603492 0.051690
O O11 0.746575 0.920438 0.884731
O O12 0.000000 0.000000 0.000000
O O13 0.114925 0.851319 0.917156
O O14 0.210061 0.859732 0.759740
O O15 0.676087 0.312663 0.585536
O O16 0.500000 0.151327 0.250000
#
# Coordination Sequence:
#
# PCOD9272521 Si02
#       7
#     8   8   8   8   8   8   8
#     4  10  20  37  62  86 111 147 196 244 284 335
#     4  11  21  33  51  77 111 148 183 226 282 343
#     4  11  22  37  55  81 115 149 186 231 289 348
#     4  11  21  34  54  81 113 149 190 236 287 345
#     4  10  20  37  58  79 108 148 194 236 275 332
#     4  10  21  38  63  87 108 148 200 241 281 338
#     4  11  22  36  57  87 119 151 191 242 296 344
#
# _framework density 22.730276
#
# number of rings (size 3 to 8) (size 9 to 14) (size 15 to 20)
#    0.000    1.429    0.000    9.000    0.000    1.143 
#    0.000    0.714    0.000   12.000    0.000    0.000 
#    0.000    0.000    0.000    0.000    0.000    0.000 
#
# Total GULP energy -156338.153204 kJ/mol
# GULP energy per Si atom -5583.505472 kJ/mol
# Density = 2.267854 g / cm^3
# Si number density = 22.730276 Si / 1000 Ang^3
#
#
#
# Elastic Constant Matrix: (Units=GPa)
#
#
# Indices 1 2 3 4 5 6 
#
# 1 68.8559 13.3135 31.5198 0.0000 50.7167 0.0000
# 2 13.3135 47.6871 17.6522 0.0000 22.2293 0.0000
# 3 31.5198 17.6522 136.5800 0.0000 42.5378 0.0000
# 4 0.0000 0.0000 0.0000 19.2948 0.0000 9.9595
# 5 50.7167 22.2293 42.5378 0.0000 63.3088 0.0000
# 6 0.0000 0.0000 0.0000 9.9595 0.0000 11.4178
#
#
#
# Elastic Compliance Matrix: (Units=1/GPa)
#
#
# Indices 1 2 3 4 5 6 
#
# 1 0.036136 0.004021 0.000755 0.000000 -0.030868 0.000000
# 2 0.004021 0.025564 -0.000548 0.000000 -0.011830 0.000000
# 3 0.000755 -0.000548 0.009291 0.000000 -0.006655 0.000000
# 4 0.000000 0.000000 0.000000 0.094275 0.000000 -0.082234
# 5 -0.030868 -0.011830 -0.006655 0.000000 0.049149 0.000000
# 6 0.000000 0.000000 0.000000 -0.082234 0.000000 0.159314
#
#
# Mechanical properties :
#
#
# Convention : Reuss Voigt Hill
#
# Bulk Modulus (GPa) = 12.58697 42.01043 27.29870
# Shear Modulus (GPa) = 12.76304 31.51345 22.13824
#
# Velocity S-wave (km/s) = 2.37217 3.72749 3.12421
# Velocity P-wave (km/s) = 3.61282 6.08669 5.00501
#
# Compressibility (1/GPa) = 0.07944722
#
# Stress axis : x y z
#
# Youngs Moduli (GPa) = 27.67311 39.11675 107.63068
#
# Poissons Ratio (x) = -0.15729 -0.08121
# Poissons Ratio (y) = -0.11127 0.05895
# Poissons Ratio (z) = -0.02088 0.02143
#
# Static dielectric constant tensor:
#      x y z
#    x 1.923800 0.000000 0.019030 
#    y 0.000000 1.825230 0.000000 
#    z 0.019030 0.000000 2.096510 
# 
# From -- ./inp_files/137916.got.cif
#   From: 2010.05.17/outbox.cif.g08.bks.cpg/sg15_69_cif.got.tgz:137916.got - 2010.06.03 18:47:42.
