data_PCOD9272108
_publ_section_title
;
Structure prediction by ZEFSAII (Michael W. Deem and Ramdas Pophale) SiO2 
 PCOD9272108
Probable space group: C 2/C
;
_chemical_formula_sum "Si O2"
_cell_formula_units_Z 48
_cell_length_a 9.507556
_cell_length_b 12.447553
_cell_length_c 15.630720
_cell_angle_alpha 90.000000
_cell_angle_beta 93.727683
_cell_angle_gamma 90.000000
_cell_volume 1845.916531
_symmetry_space_group_name_H-M "C 2/C"
_symmetry_group_IT_number 15
_symmetry_cell_setting 'monoclinic'
loop_
_space_group_symop_operation_xyz
x,y,z
-x,y,1/2-z
-x,-y,-z
x,-y,1/2+z
1/2+x,1/2+y,z
1/2-x,1/2+y,1/2-z
1/2-x,1/2-y,-z
1/2+x,1/2-y,1/2+z
loop_
_atom_site_type_symbol
_atom_site_label
_atom_site_fract_x
_atom_site_fract_y
_atom_site_fract_z
Si Si1 0.226028 0.358726 0.550601
Si Si2 0.054763 0.257678 0.343008
Si Si3 0.349640 0.539311 0.456000
Si Si4 0.697356 0.590608 0.705866
Si Si5 0.241126 0.329656 0.106529
Si Si6 0.994660 0.701828 0.161073
O O1 0.250000 0.250000 0.500000
O O2 0.358748 0.343663 0.618127
O O3 0.237009 0.455324 0.488084
O O4 0.079709 0.358313 0.592828
O O5 0.160200 0.355068 0.324799
O O6 0.000000 0.221963 0.250000
O O7 0.923348 0.298831 0.394270
O O8 0.500000 0.500000 0.500000
O O9 0.343009 0.513607 0.353379
O O10 0.305800 0.636765 0.517543
O O11 0.722273 0.589113 0.810663
O O12 0.581048 0.684776 0.678613
O O13 0.334544 0.227183 0.136201
O O14 0.000000 0.639595 0.250000
#
# Coordination Sequence:
#
# PCOD9272108 Si02
#       6
#     8   8   8   8   8   8
#     4  11  20  39  62  86 119 157 198 247 300 356
#     4   9  19  38  62  86 116 158 198 239 295 359
#     4  12  22  37  62  88 115 157 203 246 298 352
#     4   9  18  37  60  82 118 160 196 228 305 366
#     4  10  20  36  64  87 115 156 202 244 290 357
#     4   9  17  35  62  82 113 159 197 232 295 364
#
# _framework density 26.003343000000001
#
# number of rings (size 3 to 8) (size 9 to 14) (size 15 to 20)
#    0.000    2.000    5.000    1.000    0.000    0.667 
#    3.000    5.833    0.000    0.000    0.000    0.000 
#    0.000    0.000    0.000    0.000    0.000    0.000 
#
# Total GULP energy -134010.567521 kJ/mol
# GULP energy per Si atom -5583.773647 kJ/mol
# Density = 2.594416 g / cm^3
# Si number density = 26.003343 Si / 1000 Ang^3
#
#
#
# Elastic Constant Matrix: (Units=GPa)
#
#
# Indices 1 2 3 4 5 6 
#
# 1 142.9980 -2.5111 25.8860 0.0000 -28.4668 0.0000
# 2 -2.5111 31.9343 15.1241 0.0000 -7.1011 0.0000
# 3 25.8860 15.1241 148.6885 0.0000 1.7887 0.0000
# 4 0.0000 0.0000 0.0000 36.7650 0.0000 -13.4818
# 5 -28.4668 -7.1011 1.7887 0.0000 50.3667 0.0000
# 6 0.0000 0.0000 0.0000 -13.4818 0.0000 25.7809
#
#
#
# Elastic Compliance Matrix: (Units=1/GPa)
#
#
# Indices 1 2 3 4 5 6 
#
# 1 0.008397 0.002664 -0.001795 0.000000 0.005185 0.000000
# 2 0.002664 0.034925 -0.004095 0.000000 0.006575 0.000000
# 3 -0.001795 -0.004095 0.007477 0.000000 -0.001858 0.000000
# 4 0.000000 0.000000 0.000000 0.033653 0.000000 0.017599
# 5 0.005185 0.006575 -0.001858 0.000000 0.023778 0.000000
# 6 0.000000 0.000000 0.000000 0.017599 0.000000 0.047991
#
#
# Mechanical properties :
#
#
# Convention : Reuss Voigt Hill
#
# Bulk Modulus (GPa) = 22.55031 44.51323 33.53177
# Shear Modulus (GPa) = 28.17575 41.59063 34.88319
#
# Velocity S-wave (km/s) = 3.29529 4.00363 3.66661
# Velocity P-wave (km/s) = 4.81347 6.20705 5.55414
#
# Compressibility (1/GPa) = 0.04434528
#
# Stress axis : x y z
#
# Youngs Moduli (GPa) = 119.08896 28.63257 133.74505
#
# Poissons Ratio (x) = -0.07626 0.24010
# Poissons Ratio (y) = -0.31719 0.54772
# Poissons Ratio (z) = 0.21379 0.11726
#
# Static dielectric constant tensor:
#      x y z
#    x 1.876710 0.000000 0.039620 
#    y 0.000000 2.164030 0.000000 
#    z 0.039620 0.000000 2.134130 
# 
# From -- ./inp_files/189206.got.cif
#   From: 2010.05.17/outbox.cif.g08.bks.cpg/sg15_95_cif.got.tgz:189206.got - 2010.06.03 18:47:42.
