data_PCOD9272523
_publ_section_title
;
Structure prediction by ZEFSAII (Michael W. Deem and Ramdas Pophale) SiO2 
 PCOD9272523
Probable space group: C 2/C
;
_chemical_formula_sum "Si O2"
_cell_formula_units_Z 48
_cell_length_a 5.099363
_cell_length_b 25.784863
_cell_length_c 17.934215
_cell_angle_alpha 90.000000
_cell_angle_beta 48.177383
_cell_angle_gamma 90.000000
_cell_volume 1757.290067
_symmetry_space_group_name_H-M "C 2/C"
_symmetry_group_IT_number 15
_symmetry_cell_setting 'monoclinic'
loop_
_space_group_symop_operation_xyz
x,y,z
-x,y,1/2-z
-x,-y,-z
x,-y,1/2+z
1/2+x,1/2+y,z
1/2-x,1/2+y,1/2-z
1/2-x,1/2-y,-z
1/2+x,1/2-y,1/2+z
loop_
_atom_site_type_symbol
_atom_site_label
_atom_site_fract_x
_atom_site_fract_y
_atom_site_fract_z
Si Si1 0.330480 0.279332 0.129372
Si Si2 0.163956 0.994789 0.121209
Si Si3 0.530985 0.402714 0.902284
Si Si4 0.809734 0.327781 0.139987
Si Si5 0.854614 0.434279 0.376650
Si Si6 0.368278 0.837658 0.636278
O O1 0.610161 0.323292 0.099635
O O2 0.483168 0.221847 0.104523
O O3 0.000000 0.281493 0.250000
O O4 0.153851 0.292963 0.084189
O O5 0.368168 0.979600 0.157270
O O6 0.897310 0.949837 0.143408
O O7 0.956502 0.048690 0.155981
O O8 0.500000 0.000000 0.000000
O O9 0.234766 0.366289 0.921221
O O10 0.865262 0.369490 0.862492
O O11 0.405205 0.427606 0.003878
O O12 0.500000 0.304545 0.250000
O O13 0.922391 0.381396 0.158199
O O14 0.000000 0.835791 0.750000
#
# Coordination Sequence:
#
# PCOD9272523 Si02
#       6
#     8   8   8   8   8   8
#     4   9  19  36  57  77 108 151 186 216 273 345
#     4  10  20  37  58  80 111 151 185 216 272 344
#     4  11  21  37  58  83 110 146 188 228 272 327
#     4  10  20  37  58  82 110 145 185 227 274 329
#     4  11  21  37  60  84 111 146 187 228 272 328
#     4  11  22  38  58  82 111 147 187 229 274 327
#
# _framework density 27.314784
#
# number of rings (size 3 to 8) (size 9 to 14) (size 15 to 20)
#    0.000    1.667    0.000    7.500    0.000    2.667 
#    0.000   10.000    0.000    0.000    0.000    0.000 
#    0.000    0.000    0.000    0.000    0.000    0.000 
#
# Total GULP energy -134372.500305 kJ/mol
# GULP energy per Si atom -5598.854179 kJ/mol
# Density = 2.725261 g / cm^3
# Si number density = 27.314784 Si / 1000 Ang^3
#
#
#
# Elastic Constant Matrix: (Units=GPa)
#
#
# Indices 1 2 3 4 5 6 
#
# 1 217.5484 93.6302 30.5691 0.0000 -34.5311 0.0000
# 2 93.6302 170.2462 21.5342 0.0000 -27.6765 0.0000
# 3 30.5691 21.5342 68.6925 0.0000 -11.3400 0.0000
# 4 0.0000 0.0000 0.0000 30.9193 0.0000 -9.4180
# 5 -34.5311 -27.6765 -11.3400 0.0000 44.3002 0.0000
# 6 0.0000 0.0000 0.0000 -9.4180 0.0000 55.9777
#
#
#
# Elastic Compliance Matrix: (Units=1/GPa)
#
#
# Indices 1 2 3 4 5 6 
#
# 1 0.006526 -0.002932 -0.001512 0.000000 0.002869 0.000000
# 2 -0.002932 0.007993 -0.000787 0.000000 0.002507 0.000000
# 3 -0.001512 -0.000787 0.015872 0.000000 0.002393 0.000000
# 4 0.000000 0.000000 0.000000 0.034089 0.000000 0.005735
# 5 0.002869 0.002507 0.002393 0.000000 0.026988 0.000000
# 6 0.000000 0.000000 0.000000 0.005735 0.000000 0.018829
#
#
# Mechanical properties :
#
#
# Convention : Reuss Voigt Hill
#
# Bulk Modulus (GPa) = 50.17448 83.10601 66.64025
# Shear Modulus (GPa) = 39.24562 46.95634 43.10098
#
# Velocity S-wave (km/s) = 3.79461 4.15068 3.97663
# Velocity P-wave (km/s) = 6.13251 7.31178 6.74796
#
# Compressibility (1/GPa) = 0.01993045
#
# Stress axis : x y z
#
# Youngs Moduli (GPa) = 153.22973 125.10442 63.00344
#
# Poissons Ratio (x) = 0.36676 0.09524
# Poissons Ratio (y) = 0.44922 0.04960
# Poissons Ratio (z) = 0.23163 0.09849
#
# Static dielectric constant tensor:
#      x y z
#    x 2.099980 0.000000 0.069870 
#    y 0.000000 2.109280 0.000000 
#    z 0.069870 0.000000 2.358120 
# 
# From -- ./inp_files/286309.got.cif
#   From: 2010.05.17/outbox.cif.g08.bks.cpg/sg15_144_cif.got.tgz:286309.got - 2010.06.03 18:47:42.
