data_PCOD9272645
_publ_section_title
;
Structure prediction by ZEFSAII (Michael W. Deem and Ramdas Pophale) SiO2 
 PCOD9272645
Probable space group: C 2/C
;
_chemical_formula_sum "Si O2"
_cell_formula_units_Z 56
_cell_length_a 31.394821
_cell_length_b 15.518507
_cell_length_c 9.081634
_cell_angle_alpha 90.000000
_cell_angle_beta 41.397861
_cell_angle_gamma 90.000000
_cell_volume 2925.902614
_symmetry_space_group_name_H-M "C 2/C"
_symmetry_group_IT_number 15
_symmetry_cell_setting 'monoclinic'
loop_
_space_group_symop_operation_xyz
x,y,z
-x,y,1/2-z
-x,-y,-z
x,-y,1/2+z
1/2+x,1/2+y,z
1/2-x,1/2+y,1/2-z
1/2-x,1/2-y,-z
1/2+x,1/2-y,1/2+z
loop_
_atom_site_type_symbol
_atom_site_label
_atom_site_fract_x
_atom_site_fract_y
_atom_site_fract_z
Si Si1 0.911603 0.022848 0.061603
Si Si2 0.000000 0.481142 0.250000
Si Si3 0.567929 0.891585 0.351141
Si Si4 0.500000 0.373914 0.750000
Si Si5 0.318147 0.499585 0.058531
Si Si6 0.933766 0.802318 0.641666
Si Si7 0.283839 0.323469 0.074724
Si Si8 0.719899 0.862900 0.929735
O O1 0.884048 0.025254 0.969158
O O2 0.947935 0.109921 0.015024
O O3 0.845009 0.010070 0.324129
O O4 0.955379 0.938936 0.958511
O O5 0.034705 0.424082 0.285836
O O6 0.951443 0.542795 0.468325
O O7 0.545272 0.794252 0.452398
O O8 0.644665 0.886794 0.123435
O O9 0.457749 0.319626 0.745637
O O10 0.291883 0.403763 0.162785
O O11 0.263168 0.566671 0.237001
O O12 0.856293 0.802978 0.832720
O O13 0.263273 0.230222 0.185513
O O14 0.241072 0.351519 0.046035
#
# Coordination Sequence:
#
# PCOD9272645 Si02
#       8
#     8   4   8   4   8   8   8   8
#     4  11  22  36  58  84 124 157 195 235 284 349
#     4  10  23  45  60  90 114 148 198 253 283 348
#     4  10  23  41  66  84 116 151 196 242 299 345
#     4  12  21  37  58  84 120 168 194 223 293 350
#     4  11  20  38  58  86 121 150 192 252 286 339
#     4  10  20  37  59  86 117 158 190 241 286 343
#     4   9  19  37  58  86 115 152 190 239 289 342
#     4  10  20  37  65  83 113 157 191 232 300 354
#
# _framework density 19.139392999999998
#
# number of rings (size 3 to 8) (size 9 to 14) (size 15 to 20)
#    0.000    1.714    5.714    0.857    2.000    0.571 
#    0.000    0.714    3.143    0.000    0.000    0.000 
#    0.000    0.000    0.000    0.000    0.000    0.000 
#
# Total GULP energy -155903.737523 kJ/mol
# GULP energy per Si atom -5567.990626 kJ/mol
# Density = 1.909583 g / cm^3
# Si number density = 19.139393 Si / 1000 Ang^3
#
#
#
# Elastic Constant Matrix: (Units=GPa)
#
#
# Indices 1 2 3 4 5 6 
#
# 1 90.1087 29.5041 8.2008 0.0000 -5.9597 0.0000
# 2 29.5041 134.6544 36.7101 0.0000 -4.3445 0.0000
# 3 8.2008 36.7101 49.2402 0.0000 -10.7250 0.0000
# 4 0.0000 0.0000 0.0000 21.9676 0.0000 3.4919
# 5 -5.9597 -4.3445 -10.7250 0.0000 21.7492 0.0000
# 6 0.0000 0.0000 0.0000 3.4919 0.0000 21.8623
#
#
#
# Elastic Compliance Matrix: (Units=1/GPa)
#
#
# Indices 1 2 3 4 5 6 
#
# 1 0.012141 -0.002753 0.000712 0.000000 0.003128 0.000000
# 2 -0.002753 0.010005 -0.007540 0.000000 -0.002474 0.000000
# 3 0.000712 -0.007540 0.028597 0.000000 0.012791 0.000000
# 4 0.000000 0.000000 0.000000 0.046707 0.000000 -0.007460
# 5 0.003128 -0.002474 0.012791 0.000000 0.052649 0.000000
# 6 0.000000 0.000000 0.000000 -0.007460 0.000000 0.046932
#
#
# Mechanical properties :
#
#
# Convention : Reuss Voigt Hill
#
# Bulk Modulus (GPa) = 31.66394 46.98148 39.32271
# Shear Modulus (GPa) = 22.05345 26.42172 24.23758
#
# Velocity S-wave (km/s) = 3.39817 3.71952 3.56247
# Velocity P-wave (km/s) = 5.65478 6.56100 6.12468
#
# Compressibility (1/GPa) = 0.03158166
#
# Stress axis : x y z
#
# Youngs Moduli (GPa) = 82.36317 99.94625 34.96875
#
# Poissons Ratio (x) = 0.27520 -0.02490
# Poissons Ratio (y) = 0.22679 0.26365
# Poissons Ratio (z) = -0.05864 0.75355
#
# Static dielectric constant tensor:
#      x y z
#    x 1.661830 0.000000 -0.006810 
#    y 0.000000 1.736450 0.000000 
#    z -0.006810 0.000000 1.660740 
# 
# From -- ./inp_files/69915.got.cif
#   From: 2010.05.17/outbox.cif.g08.bks.cpg/sg15_35_cif.got.tgz:69915.got - 2010.06.03 18:47:42.
