data_PCOD9272368
_publ_section_title
;
Structure prediction by ZEFSAII (Michael W. Deem and Ramdas Pophale) SiO2 
 PCOD9272368
Probable space group: C 2/C
;
_chemical_formula_sum "Si O2"
_cell_formula_units_Z 48
_cell_length_a 22.692725
_cell_length_b 13.648370
_cell_length_c 22.565558
_cell_angle_alpha 90.000000
_cell_angle_beta 22.595257
_cell_angle_gamma 90.000000
_cell_volume 2685.296439
_symmetry_space_group_name_H-M "C 2/C"
_symmetry_group_IT_number 15
_symmetry_cell_setting 'monoclinic'
loop_
_space_group_symop_operation_xyz
x,y,z
-x,y,1/2-z
-x,-y,-z
x,-y,1/2+z
1/2+x,1/2+y,z
1/2-x,1/2+y,1/2-z
1/2-x,1/2-y,-z
1/2+x,1/2-y,1/2+z
loop_
_atom_site_type_symbol
_atom_site_label
_atom_site_fract_x
_atom_site_fract_y
_atom_site_fract_z
Si Si1 0.723593 0.000708 0.868180
Si Si2 0.861569 0.322607 0.833295
Si Si3 0.836817 0.895240 0.376735
Si Si4 0.128301 0.549926 0.292369
Si Si5 0.329645 0.329480 0.696378
Si Si6 0.317976 0.379452 0.164612
O O1 0.766419 0.030618 0.895067
O O2 0.799820 0.070633 0.746647
O O3 0.786970 0.893149 0.793816
O O4 0.539784 0.012758 0.032283
O O5 0.827400 0.209500 0.850200
O O6 0.890344 0.392479 0.751682
O O7 0.000000 0.312536 0.750000
O O8 0.740316 0.371639 0.988960
O O9 0.000000 0.927210 0.250000
O O10 0.207594 0.627810 0.262398
O O11 0.247809 0.459661 0.184340
O O12 0.504851 0.352026 0.513704
O O13 0.289734 0.215802 0.738951
#
# Coordination Sequence:
#
# PCOD9272368 Si02
#       6
#     8   8   8   8   8   8
#     4  11  21  37  57  86 114 149 184 228 279 330
#     4  10  20  37  53  84 114 151 183 224 276 326
#     4  10  22  33  57  82 118 149 186 224 272 332
#     4  11  21  36  60  82 117 147 185 229 276 333
#     4  11  23  38  58  83 112 145 188 231 281 330
#     4  11  23  38  58  83 111 147 186 233 280 330
#
# _framework density 17.875122000000001
#
# number of rings (size 3 to 8) (size 9 to 14) (size 15 to 20)
#    0.000    1.333    1.667    7.000    4.667    0.000 
#    0.000    0.000    0.000    2.000    0.000    0.000 
#    0.000    0.000    0.000    0.000    0.000    0.000 
#
# Total GULP energy -133751.273595 kJ/mol
# GULP energy per Si atom -5572.969733 kJ/mol
# Density = 1.783444 g / cm^3
# Si number density = 17.875122 Si / 1000 Ang^3
#
#
#
# Elastic Constant Matrix: (Units=GPa)
#
#
# Indices 1 2 3 4 5 6 
#
# 1 60.4166 16.4043 -2.9250 -0.0005 -13.9104 -0.0011
# 2 16.4043 74.1427 -21.0936 -0.0043 1.0581 -0.0185
# 3 -2.9250 -21.0936 66.2238 -0.0079 -7.2847 -0.0216
# 4 -0.0005 -0.0043 -0.0079 33.4058 0.0015 12.7272
# 5 -13.9104 1.0581 -7.2847 0.0015 41.4350 0.0052
# 6 -0.0011 -0.0185 -0.0216 12.7272 0.0052 59.7603
#
#
#
# Elastic Compliance Matrix: (Units=1/GPa)
#
#
# Indices 1 2 3 4 5 6 
#
# 1 0.019249 -0.004294 0.000210 0.000000 0.006609 -0.000001
# 2 -0.004294 0.015798 0.004731 0.000001 -0.001013 0.000006
# 3 0.000210 0.004731 0.016938 0.000002 0.002927 0.000007
# 4 0.000000 0.000001 0.000002 0.032578 0.000000 -0.006938
# 5 0.006609 -0.001013 0.002927 0.000000 0.026893 -0.000001
# 6 -0.000001 0.000006 0.000007 -0.006938 -0.000001 0.018211
#
#
# Mechanical properties :
#
#
# Convention : Reuss Voigt Hill
#
# Bulk Modulus (GPa) = 18.76907 20.61718 19.69313
# Shear Modulus (GPa) = 34.21499 40.81338 37.51419
#
# Velocity S-wave (km/s) = 4.37980 4.78352 4.58611
# Velocity P-wave (km/s) = 6.00831 6.48602 6.25173
#
# Compressibility (1/GPa) = 0.05327914
#
# Stress axis : x y z
#
# Youngs Moduli (GPa) = 51.94992 63.29967 59.03720
#
# Poissons Ratio (x) = 0.27179 -0.01237
# Poissons Ratio (y) = 0.22306 -0.27930
# Poissons Ratio (z) = -0.01089 -0.29946
#
# Static dielectric constant tensor:
#      x y z
#    x 1.585430 0.000000 0.007130 
#    y 0.000000 1.637680 0.000000 
#    z 0.007130 0.000000 1.554560 
# 
# From -- ./inp_files/65825.got.cif
#   From: 2010.05.17/outbox.cif.g08.bks.cpg/sg15_33_cif.got.tgz:65825.got - 2010.06.03 18:47:42.
