data_PCOD9272809
_publ_section_title
;
Structure prediction by ZEFSAII (Michael W. Deem and Ramdas Pophale) SiO2 
 PCOD9272809
Probable space group: C 2/C
;
_chemical_formula_sum "Si O2"
_cell_formula_units_Z 60
_cell_length_a 11.559678
_cell_length_b 21.588436
_cell_length_c 11.947763
_cell_angle_alpha 90.000000
_cell_angle_beta 64.366155
_cell_angle_gamma 90.000000
_cell_volume 2688.167985
_symmetry_space_group_name_H-M "C 2/C"
_symmetry_group_IT_number 15
_symmetry_cell_setting 'monoclinic'
loop_
_space_group_symop_operation_xyz
x,y,z
-x,y,1/2-z
-x,-y,-z
x,-y,1/2+z
1/2+x,1/2+y,z
1/2-x,1/2+y,1/2-z
1/2-x,1/2-y,-z
1/2+x,1/2-y,1/2+z
loop_
_atom_site_type_symbol
_atom_site_label
_atom_site_fract_x
_atom_site_fract_y
_atom_site_fract_z
Si Si1 0.388963 0.724252 0.717897
Si Si2 0.363447 0.546404 0.868686
Si Si3 0.845625 0.910030 0.833703
Si Si4 0.917308 0.801839 0.953046
Si Si5 0.000000 0.304831 0.250000
Si Si6 0.671811 0.141740 0.852891
Si Si7 0.679359 0.628476 0.397593
Si Si8 0.049821 0.349726 0.625787
O O1 0.500000 0.693690 0.750000
O O2 0.368235 0.703058 0.599591
O O3 0.256356 0.705100 0.832721
O O4 0.453220 0.791518 0.669358
O O5 0.500000 0.544784 0.750000
O O6 0.313312 0.476111 0.900017
O O7 0.271313 0.586599 0.827734
O O8 0.365949 0.579490 0.989042
O O9 0.832193 0.850445 0.918317
O O10 0.784022 0.901556 0.737224
O O11 0.000000 0.911446 0.750000
O O12 0.936475 0.740648 0.869961
O O13 0.061651 0.827608 0.914089
O O14 0.897856 0.348224 0.233346
O O15 0.564821 0.130713 0.992828
O O16 0.801444 0.662024 0.401833
O O17 0.000000 0.391424 0.750000
#
# Coordination Sequence:
#
# PCOD9272809 Si02
#       8
#     8   8   8   8   4   8   8   8
#     4  11  23  36  62  92 127 166 205 257 311 374
#     4  10  21  40  65  94 123 161 217 265 317 369
#     4   9  20  37  63  94 125 164 206 265 323 371
#     4  11  21  38  59  98 130 165 204 252 324 384
#     4  12  24  40  62  88 138 174 196 256 316 394
#     4  11  24  43  59  93 129 165 209 261 316 371
#     4  10  20  37  60  89 127 161 206 260 313 377
#     4  10  23  38  62  87 121 170 212 251 304 384
#
# _framework density 22.320035000000001
#
# number of rings (size 3 to 8) (size 9 to 14) (size 15 to 20)
#    0.000    1.600    3.333    2.800    3.733    9.067 
#    2.400    0.000    1.467    1.600    0.000    0.000 
#    0.000    0.000    0.000    0.000    0.000    0.000 
#
# Total GULP energy -167246.814412 kJ/mol
# GULP energy per Si atom -5574.893814 kJ/mol
# Density = 2.226923 g / cm^3
# Si number density = 22.320035 Si / 1000 Ang^3
#
#
#
# Elastic Constant Matrix: (Units=GPa)
#
#
# Indices 1 2 3 4 5 6 
#
# 1 65.3796 8.3805 23.9719 0.0000 29.5966 0.0000
# 2 8.3805 54.9763 22.6233 0.0000 14.0490 0.0000
# 3 23.9719 22.6233 136.5300 0.0000 21.8234 0.0000
# 4 0.0000 0.0000 0.0000 12.8417 0.0000 6.3043
# 5 29.5966 14.0490 21.8234 0.0000 43.0323 0.0000
# 6 0.0000 0.0000 0.0000 6.3043 0.0000 4.0408
#
#
#
# Elastic Compliance Matrix: (Units=1/GPa)
#
#
# Indices 1 2 3 4 5 6 
#
# 1 0.022591 0.001113 -0.001751 0.000000 -0.015013 0.000000
# 2 0.001113 0.020684 -0.002635 0.000000 -0.006182 0.000000
# 3 -0.001751 -0.002635 0.008421 0.000000 -0.002206 0.000000
# 4 0.000000 0.000000 0.000000 0.332682 0.000000 -0.519043
# 5 -0.015013 -0.006182 -0.002206 0.000000 0.036701 0.000000
# 6 0.000000 0.000000 0.000000 -0.519043 0.000000 1.057279
#
#
# Mechanical properties :
#
#
# Convention : Reuss Voigt Hill
#
# Bulk Modulus (GPa) = 22.14800 40.75971 31.45385
# Shear Modulus (GPa) = 3.33344 25.44365 14.38855
#
# Velocity S-wave (km/s) = 1.22340 3.37997 2.54174
# Velocity P-wave (km/s) = 3.45544 5.79080 4.76831
#
# Compressibility (1/GPa) = 0.04515080
#
# Stress axis : x y z
#
# Youngs Moduli (GPa) = 44.26584 48.34655 118.74979
#
# Poissons Ratio (x) = -0.05383 0.20796
# Poissons Ratio (y) = -0.04929 0.31286
# Poissons Ratio (z) = 0.07752 0.12738
#
# Static dielectric constant tensor:
#      x y z
#    x 1.838260 0.000000 0.008760 
#    y 0.000000 1.865660 0.000000 
#    z 0.008760 0.000000 1.910790 
# 
# From -- ./inp_files/90751.got.cif
#   From: 2010.05.17/outbox.cif.g08.bks.cpg/sg15_46_cif.got.tgz:90751.got - 2010.06.03 18:47:42.
