data_PCOD9272610
_publ_section_title
;
Structure prediction by ZEFSAII (Michael W. Deem and Ramdas Pophale) SiO2 
 PCOD9272610
Probable space group: C 2/C
;
_chemical_formula_sum "Si O2"
_cell_formula_units_Z 56
_cell_length_a 35.132266
_cell_length_b 8.523209
_cell_length_c 22.331125
_cell_angle_alpha 90.000000
_cell_angle_beta 26.128518
_cell_angle_gamma 90.000000
_cell_volume 2944.784368
_symmetry_space_group_name_H-M "C 2/C"
_symmetry_group_IT_number 15
_symmetry_cell_setting 'monoclinic'
loop_
_space_group_symop_operation_xyz
x,y,z
-x,y,1/2-z
-x,-y,-z
x,-y,1/2+z
1/2+x,1/2+y,z
1/2-x,1/2+y,1/2-z
1/2-x,1/2-y,-z
1/2+x,1/2-y,1/2+z
loop_
_atom_site_type_symbol
_atom_site_label
_atom_site_fract_x
_atom_site_fract_y
_atom_site_fract_z
Si Si1 0.900277 0.209115 0.234538
Si Si2 0.588880 0.290460 0.425496
Si Si3 0.789922 0.781951 0.129616
Si Si4 0.904469 0.086851 0.358897
Si Si5 0.649487 0.006004 0.777966
Si Si6 0.212798 0.796123 0.988131
Si Si7 0.220982 0.008920 0.665833
O O1 0.902615 0.196328 0.302734
O O2 0.886995 0.375801 0.220572
O O3 0.819558 0.102755 0.327749
O O4 0.993714 0.153515 0.078205
O O5 0.651328 0.292706 0.395081
O O6 0.638223 0.399901 0.308739
O O7 0.587057 0.114928 0.400142
O O8 0.703931 0.889667 0.248647
O O9 0.760490 0.604521 0.159731
O O10 0.844775 0.839143 0.994766
O O11 0.000000 0.074586 0.250000
O O12 0.868486 0.912924 0.393393
O O13 0.717052 0.896892 0.647351
O O14 0.209002 0.632427 0.957440
O O15 0.250000 0.750000 0.000000
#
# Coordination Sequence:
#
# PCOD9272610 Si02
#       7
#     8   8   8   8   8   8   8
#     4  11  21  37  60  85 118 150 191 239 286 347
#     4  11  20  38  57  86 119 149 192 237 290 335
#     4  10  21  37  61  82 117 152 192 238 282 348
#     4  11  22  39  59  87 115 153 188 238 299 337
#     4   9  22  35  57  87 111 155 194 234 280 342
#     4  10  20  37  59  81 115 148 193 237 278 341
#     4  10  22  37  60  86 110 155 196 234 284 338
#
# _framework density 19.016670999999999
#
# number of rings (size 3 to 8) (size 9 to 14) (size 15 to 20)
#    0.000    1.714    2.857    1.714    2.000    1.714 
#    0.000    2.143    0.000    0.000    0.000    0.000 
#    0.000    0.000    0.000    0.000    0.000    0.000 
#
# Total GULP energy -156166.986487 kJ/mol
# GULP energy per Si atom -5577.392375 kJ/mol
# Density = 1.897339 g / cm^3
# Si number density = 19.016671 Si / 1000 Ang^3
#
#
#
# Elastic Constant Matrix: (Units=GPa)
#
#
# Indices 1 2 3 4 5 6 
#
# 1 86.6856 24.7088 -6.2105 0.0000 -3.3316 0.0002
# 2 24.7088 88.8578 8.8290 -0.0037 -1.8149 0.0019
# 3 -6.2105 8.8290 36.1305 -0.0049 -4.0732 0.0000
# 4 0.0000 -0.0037 -0.0049 18.1417 0.0003 -4.9510
# 5 -3.3316 -1.8149 -4.0732 0.0003 27.8882 0.0001
# 6 0.0002 0.0019 0.0000 -4.9510 0.0001 20.0296
#
#
#
# Elastic Compliance Matrix: (Units=1/GPa)
#
#
# Indices 1 2 3 4 5 6 
#
# 1 0.012960 -0.003903 0.003383 0.000000 0.001788 0.000000
# 2 -0.003903 0.012713 -0.003799 0.000001 -0.000194 -0.000001
# 3 0.003383 -0.003799 0.029694 0.000008 0.004494 0.000002
# 4 0.000000 0.000001 0.000008 0.059109 0.000000 0.014611
# 5 0.001788 -0.000194 0.004494 0.000000 0.036715 0.000000
# 6 0.000000 -0.000001 0.000002 0.014611 0.000000 0.053538
#
#
# Mechanical properties :
#
#
# Convention : Reuss Voigt Hill
#
# Bulk Modulus (GPa) = 21.40076 29.59208 25.49642
# Shear Modulus (GPa) = 21.83948 25.50167 23.67057
#
# Velocity S-wave (km/s) = 3.39254 3.66596 3.53190
# Velocity P-wave (km/s) = 5.15983 5.78912 5.48351
#
# Compressibility (1/GPa) = 0.04672730
#
# Stress axis : x y z
#
# Youngs Moduli (GPa) = 77.16260 78.66033 33.67679
#
# Poissons Ratio (x) = 0.30704 -0.11393
# Poissons Ratio (y) = 0.30119 0.12795
# Poissons Ratio (z) = -0.26105 0.29886
#
# Static dielectric constant tensor:
#      x y z
#    x 1.648000 0.000000 0.000050 
#    y 0.000000 1.688630 0.000000 
#    z 0.000050 0.000000 1.664410 
# 
# From -- ./inp_files/218180.got.cif
#   From: 2010.05.17/outbox.cif.g08.bks.cpg/sg15_110_cif.got.tgz:218180.got - 2010.06.03 18:47:42.
