data_PCOD9272869
_publ_section_title
;
Structure prediction by ZEFSAII (Michael W. Deem and Ramdas Pophale) SiO2 
 PCOD9272869
Probable space group: C 2/C
;
_chemical_formula_sum "Si O2"
_cell_formula_units_Z 48
_cell_length_a 14.078956
_cell_length_b 12.883483
_cell_length_c 13.931052
_cell_angle_alpha 90.000000
_cell_angle_beta 82.658199
_cell_angle_gamma 90.000000
_cell_volume 2506.180833
_symmetry_space_group_name_H-M "C 2/C"
_symmetry_group_IT_number 15
_symmetry_cell_setting 'monoclinic'
loop_
_space_group_symop_operation_xyz
x,y,z
-x,y,1/2-z
-x,-y,-z
x,-y,1/2+z
1/2+x,1/2+y,z
1/2-x,1/2+y,1/2-z
1/2-x,1/2-y,-z
1/2+x,1/2-y,1/2+z
loop_
_atom_site_type_symbol
_atom_site_label
_atom_site_fract_x
_atom_site_fract_y
_atom_site_fract_z
Si Si1 0.438198 0.080336 0.161284
Si Si2 0.857384 0.017228 0.758223
Si Si3 0.239724 0.322945 0.724664
Si Si4 0.329034 0.868873 0.152605
Si Si5 0.101812 0.708849 0.058058
Si Si6 0.990504 0.935394 0.404036
O O1 0.500000 0.089852 0.250000
O O2 0.341198 0.148296 0.185965
O O3 0.511227 0.130010 0.076222
O O4 0.406507 0.960314 0.155939
O O5 0.771824 0.073785 0.824065
O O6 0.930447 0.996220 0.835338
O O7 0.911824 0.083220 0.669320
O O8 0.810408 0.920348 0.711338
O O9 0.309535 0.224621 0.729927
O O10 0.176256 0.309521 0.636012
O O11 0.347604 0.814849 0.048703
O O12 0.060761 0.825364 0.071855
O O13 0.000000 0.000000 0.500000
#
# Coordination Sequence:
#
# PCOD9272869 Si02
#       6
#     8   8   8   8   8   8
#     4   9  21  38  57  84 119 158 199 248 305 364
#     4  10  23  38  60  92 121 159 200 263 301 356
#     4  10  20  37  61  84 115 155 204 244 301 363
#     4  11  20  36  61  89 117 153 208 252 301 364
#     4  11  21  36  65  85 117 164 203 246 307 374
#     4  11  23  40  62  92 125 161 210 252 308 364
#
# _framework density 19.152647999999999
#
# number of rings (size 3 to 8) (size 9 to 14) (size 15 to 20)
#    0.000    1.667    1.667    3.000    7.000    0.000 
#    6.000    0.000    0.000    3.000    0.000    0.000 
#    0.000    0.000    0.000    0.000    0.000    0.000 
#
# Total GULP energy -133635.812098 kJ/mol
# GULP energy per Si atom -5568.158837 kJ/mol
# Density = 1.910906 g / cm^3
# Si number density = 19.152648 Si / 1000 Ang^3
#
#
#
# Elastic Constant Matrix: (Units=GPa)
#
#
# Indices 1 2 3 4 5 6 
#
# 1 66.4231 59.2256 43.7021 0.0000 -18.9944 0.0000
# 2 59.2256 117.6346 29.3308 0.0000 -4.8619 0.0000
# 3 43.7021 29.3308 83.1527 0.0000 -15.1451 0.0000
# 4 0.0000 0.0000 0.0000 26.3127 0.0000 -6.4030
# 5 -18.9944 -4.8619 -15.1451 0.0000 24.2465 0.0000
# 6 0.0000 0.0000 0.0000 -6.4030 0.0000 45.9005
#
#
#
# Elastic Compliance Matrix: (Units=1/GPa)
#
#
# Indices 1 2 3 4 5 6 
#
# 1 0.050775 -0.020852 -0.014496 0.000000 0.026540 0.000000
# 2 -0.020852 0.017885 0.002627 0.000000 -0.011108 0.000000
# 3 -0.014496 0.002627 0.018895 0.000000 0.000973 0.000000
# 4 0.000000 0.000000 0.000000 0.039340 0.000000 0.005488
# 5 0.026540 -0.011108 0.000973 0.000000 0.060415 0.000000
# 6 0.000000 0.000000 0.000000 0.005488 0.000000 0.022552
#
#
# Mechanical properties :
#
#
# Convention : Reuss Voigt Hill
#
# Bulk Modulus (GPa) = 45.22226 59.08084 52.15155
# Shear Modulus (GPa) = 17.68817 28.28873 22.98845
#
# Velocity S-wave (km/s) = 3.04227 3.84736 3.46826
# Velocity P-wave (km/s) = 6.00028 7.11692 6.58232
#
# Compressibility (1/GPa) = 0.02211300
#
# Stress axis : x y z
#
# Youngs Moduli (GPa) = 19.69487 55.91219 52.92329
#
# Poissons Ratio (x) = 1.16589 0.76719
# Poissons Ratio (y) = 0.41068 -0.13905
# Poissons Ratio (z) = 0.28550 -0.14690
#
# Static dielectric constant tensor:
#      x y z
#    x 1.703360 0.000000 -0.027340 
#    y 0.000000 1.749010 0.000000 
#    z -0.027340 0.000000 1.646480 
# 
# From -- ./inp_files/151934.got.cif
#   From: 2010.05.17/outbox.cif.g08.bks.cpg/sg15_76_cif.got.tgz:151934.got - 2010.06.03 18:47:42.
