data_PCOD9272844
_publ_section_title
;
Structure prediction by ZEFSAII (Michael W. Deem and Ramdas Pophale) SiO2 
 PCOD9272844
Probable space group: C 2/C
;
_chemical_formula_sum "Si O2"
_cell_formula_units_Z 52
_cell_length_a 10.256665
_cell_length_b 17.173810
_cell_length_c 16.542469
_cell_angle_alpha 90.000000
_cell_angle_beta 59.106817
_cell_angle_gamma 90.000000
_cell_volume 2500.484778
_symmetry_space_group_name_H-M "C 2/C"
_symmetry_group_IT_number 15
_symmetry_cell_setting 'monoclinic'
loop_
_space_group_symop_operation_xyz
x,y,z
-x,y,1/2-z
-x,-y,-z
x,-y,1/2+z
1/2+x,1/2+y,z
1/2-x,1/2+y,1/2-z
1/2-x,1/2-y,-z
1/2+x,1/2-y,1/2+z
loop_
_atom_site_type_symbol
_atom_site_label
_atom_site_fract_x
_atom_site_fract_y
_atom_site_fract_z
Si Si1 0.000000 0.651519 0.750000
Si Si2 0.480556 0.797049 0.664410
Si Si3 0.777069 0.877298 0.546613
Si Si4 0.023717 0.890686 0.334010
Si Si5 0.772885 0.774289 0.856599
Si Si6 0.569816 0.332986 0.540859
Si Si7 0.744301 0.047842 0.611114
O O1 0.135780 0.711401 0.726163
O O2 0.085033 0.594732 0.660557
O O3 0.500000 0.823540 0.750000
O O4 0.634808 0.823003 0.572058
O O5 0.458847 0.703552 0.672633
O O6 0.332097 0.827433 0.665554
O O7 0.875700 0.900568 0.437114
O O8 0.895349 0.835488 0.569951
O O9 0.723179 0.957356 0.604375
O O10 0.000000 0.917344 0.250000
O O11 0.164421 0.931739 0.335162
O O12 0.890940 0.814522 0.879619
O O13 0.657840 0.728565 0.954524
O O14 0.645357 0.415007 0.491647
#
# Coordination Sequence:
#
# PCOD9272844 Si02
#       7
#     4   8   8   8   8   8   8
#     4  10  20  38  62  86 120 170 204 254 306 376
#     4  11  23  38  57  99 129 161 213 268 312 371
#     4  11  22  39  66  89 132 166 202 270 325 370
#     4  10  20  39  64  93 118 163 220 259 311 382
#     4  10  20  37  60  92 121 154 220 257 305 371
#     4   9  19  37  63  88 115 164 209 259 308 376
#     4  10  21  41  62  89 125 170 207 253 324 387
#
# _framework density 20.795967999999998
#
# number of rings (size 3 to 8) (size 9 to 14) (size 15 to 20)
#    0.000    1.846    4.615    2.308    3.231    0.000 
#    5.538    3.846    1.692    0.000    0.000    0.000 
#    0.000    0.000    0.000    0.000    0.000    0.000 
#
# Total GULP energy -144952.876472 kJ/mol
# GULP energy per Si atom -5575.110634 kJ/mol
# Density = 2.074864 g / cm^3
# Si number density = 20.795968 Si / 1000 Ang^3
#
#
#
# Elastic Constant Matrix: (Units=GPa)
#
#
# Indices 1 2 3 4 5 6 
#
# 1 136.0587 34.6842 56.3756 0.0000 1.6123 0.0000
# 2 34.6842 46.2739 9.9498 0.0000 2.3308 0.0000
# 3 56.3756 9.9498 65.2736 0.0000 6.2343 0.0000
# 4 0.0000 0.0000 0.0000 21.4086 0.0000 -2.1303
# 5 1.6123 2.3308 6.2343 0.0000 39.3695 0.0000
# 6 0.0000 0.0000 0.0000 -2.1303 0.0000 12.6403
#
#
#
# Elastic Compliance Matrix: (Units=1/GPa)
#
#
# Indices 1 2 3 4 5 6 
#
# 1 0.013963 -0.008190 -0.010969 0.000000 0.001650 0.000000
# 2 -0.008190 0.027172 0.003101 0.000000 -0.001764 0.000000
# 3 -0.010969 0.003101 0.024669 0.000000 -0.003641 0.000000
# 4 0.000000 0.000000 0.000000 0.047507 0.000000 0.008006
# 5 0.001650 -0.001764 -0.003641 0.000000 0.026014 0.000000
# 6 0.000000 0.000000 0.000000 0.008006 0.000000 0.080461
#
#
# Mechanical properties :
#
#
# Convention : Reuss Voigt Hill
#
# Bulk Modulus (GPa) = 29.68563 49.95836 39.82199
# Shear Modulus (GPa) = 19.00194 24.45679 21.72936
#
# Velocity S-wave (km/s) = 3.02608 3.43306 3.23597
# Velocity P-wave (km/s) = 5.14929 6.30791 5.75782
#
# Compressibility (1/GPa) = 0.03368634
#
# Stress axis : x y z
#
# Youngs Moduli (GPa) = 71.61796 36.80295 40.53729
#
# Poissons Ratio (x) = 0.30143 0.44464
# Poissons Ratio (y) = 0.58658 -0.12569
# Poissons Ratio (z) = 0.78555 -0.11411
#
# Static dielectric constant tensor:
#      x y z
#    x 1.778780 0.000000 -0.008270 
#    y 0.000000 1.768740 0.000000 
#    z -0.008270 0.000000 1.790630 
# 
# From -- ./inp_files/182835.got.cif
#   From: 2010.05.17/outbox.cif.g08.bks.cpg/sg15_92_cif.got.tgz:182835.got - 2010.06.03 18:47:42.
