data_PCOD9272314
_publ_section_title
;
Structure prediction by ZEFSAII (Michael W. Deem and Ramdas Pophale) SiO2 
 PCOD9272314
Probable space group: C 2/C
;
_chemical_formula_sum "Si O2"
_cell_formula_units_Z 52
_cell_length_a 31.595914
_cell_length_b 11.488737
_cell_length_c 8.028701
_cell_angle_alpha 90.000000
_cell_angle_beta 58.463110
_cell_angle_gamma 90.000000
_cell_volume 2483.949750
_symmetry_space_group_name_H-M "C 2/C"
_symmetry_group_IT_number 15
_symmetry_cell_setting 'monoclinic'
loop_
_space_group_symop_operation_xyz
x,y,z
-x,y,1/2-z
-x,-y,-z
x,-y,1/2+z
1/2+x,1/2+y,z
1/2-x,1/2+y,1/2-z
1/2-x,1/2-y,-z
1/2+x,1/2-y,1/2+z
loop_
_atom_site_type_symbol
_atom_site_label
_atom_site_fract_x
_atom_site_fract_y
_atom_site_fract_z
Si Si1 0.188659 0.583761 0.414104
Si Si2 0.661378 0.139688 0.842963
Si Si3 0.793517 0.014180 0.065636
Si Si4 0.000000 0.995700 0.250000
Si Si5 0.358496 0.621259 0.222379
Si Si6 0.572887 0.590011 0.842025
Si Si7 0.672405 0.268688 0.160827
O O1 0.188443 0.611909 0.610530
O O2 0.147615 0.486749 0.444878
O O3 0.240681 0.522894 0.259510
O O4 0.182579 0.691216 0.300840
O O5 0.627312 0.246969 0.847651
O O6 0.683846 0.199701 0.964620
O O7 0.835736 0.062301 0.103886
O O8 0.795564 0.113279 0.916591
O O9 0.812890 0.894187 0.947625
O O10 0.970953 0.080504 0.434407
O O11 0.957277 0.912264 0.265992
O O12 0.400131 0.535963 0.204344
O O13 0.614930 0.686847 0.780787
#
# Coordination Sequence:
#
# PCOD9272314 Si02
#       7
#     8   8   8   4   8   8   8
#     4  12  23  38  57  83 121 173 226 256 282 341
#     4  11  24  39  57  83 119 170 215 258 296 344
#     4  10  22  36  55  85 119 166 216 257 302 352
#     4  10  20  36  68  98 128 142 188 260 318 422
#     4  10  22  38  59  86 127 166 196 261 311 368
#     4  10  21  40  63 100 125 153 194 246 339 382
#     4  10  23  41  57  86 124 163 207 256 310 368
#
# _framework density 20.934401999999999
#
# number of rings (size 3 to 8) (size 9 to 14) (size 15 to 20)
#    0.000    1.538    1.538    4.154    6.462    5.538 
#    0.000    0.000    0.000    0.000    0.000   18.308 
#    0.000    0.000    0.000    0.000    0.000    0.000 
#
# Total GULP energy -144848.091846 kJ/mol
# GULP energy per Si atom -5571.080456 kJ/mol
# Density = 2.088675 g / cm^3
# Si number density = 20.934402 Si / 1000 Ang^3
#
#
#
# Elastic Constant Matrix: (Units=GPa)
#
#
# Indices 1 2 3 4 5 6 
#
# 1 96.9661 27.7590 21.6076 0.0000 5.1470 0.0000
# 2 27.7590 101.2597 29.3454 0.0000 9.3911 0.0000
# 3 21.6076 29.3454 116.0905 0.0000 12.5599 0.0000
# 4 0.0000 0.0000 0.0000 32.1515 0.0000 11.5851
# 5 5.1470 9.3911 12.5599 0.0000 27.5539 0.0000
# 6 0.0000 0.0000 0.0000 11.5851 0.0000 23.8020
#
#
#
# Elastic Compliance Matrix: (Units=1/GPa)
#
#
# Indices 1 2 3 4 5 6 
#
# 1 0.011418 -0.002674 -0.001386 0.000000 -0.000590 0.000000
# 2 -0.002674 0.011453 -0.002134 0.000000 -0.002431 0.000000
# 3 -0.001386 -0.002134 0.009787 0.000000 -0.003475 0.000000
# 4 0.000000 0.000000 0.000000 0.037718 0.000000 -0.018358
# 5 -0.000590 -0.002431 -0.003475 0.000000 0.038815 0.000000
# 6 0.000000 0.000000 0.000000 -0.018358 0.000000 0.050949
#
#
# Mechanical properties :
#
#
# Convention : Reuss Voigt Hill
#
# Bulk Modulus (GPa) = 49.33198 52.41559 50.87378
# Shear Modulus (GPa) = 27.88863 32.40845 30.14854
#
# Velocity S-wave (km/s) = 3.65388 3.93885 3.79904
# Velocity P-wave (km/s) = 6.43563 6.76598 6.60287
#
# Compressibility (1/GPa) = 0.02027083
#
# Stress axis : x y z
#
# Youngs Moduli (GPa) = 87.57772 87.31639 102.17289
#
# Poissons Ratio (x) = 0.23348 0.14156
# Poissons Ratio (y) = 0.23418 0.21807
# Poissons Ratio (z) = 0.12134 0.18636
#
# Static dielectric constant tensor:
#      x y z
#    x 1.787290 0.000000 0.045350 
#    y 0.000000 1.821800 0.000000 
#    z 0.045350 0.000000 1.879150 
# 
# From -- ./inp_files/69021.got.cif
#   From: 2010.05.17/outbox.cif.g08.bks.cpg/sg15_35_cif.got.tgz:69021.got - 2010.06.03 18:47:42.
