data_PCOD9272143
_publ_section_title
;
Structure prediction by ZEFSAII (Michael W. Deem and Ramdas Pophale) SiO2 
 PCOD9272143
Probable space group: C 2/C
;
_chemical_formula_sum "Si O2"
_cell_formula_units_Z 60
_cell_length_a 25.413307
_cell_length_b 20.222990
_cell_length_c 7.369513
_cell_angle_alpha 90.000000
_cell_angle_beta 130.564931
_cell_angle_gamma 90.000000
_cell_volume 2877.199794
_symmetry_space_group_name_H-M "C 2/C"
_symmetry_group_IT_number 15
_symmetry_cell_setting 'monoclinic'
loop_
_space_group_symop_operation_xyz
x,y,z
-x,y,1/2-z
-x,-y,-z
x,-y,1/2+z
1/2+x,1/2+y,z
1/2-x,1/2+y,1/2-z
1/2-x,1/2-y,-z
1/2+x,1/2-y,1/2+z
loop_
_atom_site_type_symbol
_atom_site_label
_atom_site_fract_x
_atom_site_fract_y
_atom_site_fract_z
Si Si1 0.852287 0.352288 0.531565
Si Si2 0.073072 0.143165 0.001884
Si Si3 0.942763 0.739487 0.777914
Si Si4 0.178749 0.211115 0.991352
Si Si5 0.777868 0.089236 0.656029
Si Si6 0.699057 0.557866 0.378307
Si Si7 0.197369 0.664599 0.992290
Si Si8 0.500000 0.838338 0.750000
O O1 0.837148 0.284897 0.608212
O O2 0.805479 0.406192 0.523594
O O3 0.820667 0.333913 0.262458
O O4 0.930809 0.373422 0.669628
O O5 0.071275 0.185322 0.185227
O O6 0.109703 0.192046 0.942510
O O7 0.126869 0.083172 0.135397
O O8 0.000000 0.124862 0.750000
O O9 0.874198 0.694601 0.586990
O O10 0.000000 0.738608 0.750000
O O11 0.975866 0.705871 0.029007
O O12 0.241873 0.207451 0.278047
O O13 0.193573 0.155174 0.875260
O O14 0.798247 0.020761 0.610498
O O15 0.799638 0.084952 0.914150
O O16 0.763943 0.591866 0.414478
#
# Coordination Sequence:
#
# PCOD9272143 Si02
#       8
#     8   8   8   8   8   8   8   4
#     4  10  20  36  64  92 130 161 207 271 334 377
#     4  11  22  41  64  91 135 171 207 273 327 387
#     4  11  22  36  63  96 136 172 207 261 338 388
#     4  11  20  36  63  95 125 163 213 271 331 377
#     4  11  24  41  63  92 122 173 223 276 313 389
#     4  10  23  42  63  87 128 171 226 264 324 379
#     4   9  20  36  61  91 128 163 204 267 317 385
#     4  10  20  40  56  96 138 162 202 268 328 392
#
# _framework density 20.853608000000001
#
# number of rings (size 3 to 8) (size 9 to 14) (size 15 to 20)
#    0.000    1.600    3.333    2.400    5.600    2.133 
#    0.000    2.667    1.467    3.200    0.000    0.000 
#    0.000    0.000    0.000    0.000    0.000    0.000 
#
# Total GULP energy -167209.174051 kJ/mol
# GULP energy per Si atom -5573.639135 kJ/mol
# Density = 2.080614 g / cm^3
# Si number density = 20.853608 Si / 1000 Ang^3
#
#
#
# Elastic Constant Matrix: (Units=GPa)
#
#
# Indices 1 2 3 4 5 6 
#
# 1 115.4422 46.6929 40.0490 0.0000 17.3126 0.0000
# 2 46.6929 61.1146 39.6017 0.0000 22.2420 0.0000
# 3 40.0490 39.6017 108.8483 0.0000 21.1765 0.0000
# 4 0.0000 0.0000 0.0000 16.0769 0.0000 -1.8308
# 5 17.3126 22.2420 21.1765 0.0000 32.6784 0.0000
# 6 0.0000 0.0000 0.0000 -1.8308 0.0000 26.2038
#
#
#
# Elastic Compliance Matrix: (Units=1/GPa)
#
#
# Indices 1 2 3 4 5 6 
#
# 1 0.012722 -0.008828 -0.001518 0.000000 0.000253 0.000000
# 2 -0.008828 0.031567 -0.005683 0.000000 -0.013126 0.000000
# 3 -0.001518 -0.005683 0.012477 0.000000 -0.003413 0.000000
# 4 0.000000 0.000000 0.000000 0.062700 0.000000 0.004381
# 5 0.000253 -0.013126 -0.003413 0.000000 0.041613 0.000000
# 6 0.000000 0.000000 0.000000 0.004381 0.000000 0.038469
#
#
# Mechanical properties :
#
#
# Convention : Reuss Voigt Hill
#
# Bulk Modulus (GPa) = 40.47286 59.78805 50.13045
# Shear Modulus (GPa) = 20.84704 25.59590 23.22147
#
# Velocity S-wave (km/s) = 3.16521 3.50724 3.34061
# Velocity P-wave (km/s) = 5.72785 6.71815 6.24267
#
# Compressibility (1/GPa) = 0.02470792
#
# Stress axis : x y z
#
# Youngs Moduli (GPa) = 78.60558 31.67859 80.14497
#
# Poissons Ratio (x) = 0.27965 0.12167
# Poissons Ratio (y) = 0.69392 0.45548
# Poissons Ratio (z) = 0.11933 0.18003
#
# Static dielectric constant tensor:
#      x y z
#    x 1.793200 0.000000 -0.006110 
#    y 0.000000 1.743330 0.000000 
#    z -0.006110 0.000000 1.797670 
# 
# From -- ./inp_files/67535.got.cif
#   From: 2010.05.17/outbox.cif.g08.bks.cpg/sg15_34_cif.got.tgz:67535.got - 2010.06.03 18:47:42.
