data_PCOD9272283
_publ_section_title
;
Structure prediction by ZEFSAII (Michael W. Deem and Ramdas Pophale) SiO2 
 PCOD9272283
Probable space group: C 2/C
;
_chemical_formula_sum "Si O2"
_cell_formula_units_Z 48
_cell_length_a 8.124101
_cell_length_b 28.512877
_cell_length_c 10.775973
_cell_angle_alpha 90.000000
_cell_angle_beta 116.197259
_cell_angle_gamma 90.000000
_cell_volume 2239.755388
_symmetry_space_group_name_H-M "C 2/C"
_symmetry_group_IT_number 15
_symmetry_cell_setting 'monoclinic'
loop_
_space_group_symop_operation_xyz
x,y,z
-x,y,1/2-z
-x,-y,-z
x,-y,1/2+z
1/2+x,1/2+y,z
1/2-x,1/2+y,1/2-z
1/2-x,1/2-y,-z
1/2+x,1/2-y,1/2+z
loop_
_atom_site_type_symbol
_atom_site_label
_atom_site_fract_x
_atom_site_fract_y
_atom_site_fract_z
Si Si1 0.634204 0.453681 0.674551
Si Si2 0.550373 0.805621 0.456685
Si Si3 0.204896 0.146846 0.255494
Si Si4 0.398787 0.286044 0.995846
Si Si5 0.609423 0.555979 0.656115
Si Si6 0.226862 0.839976 0.206955
O O1 0.500000 0.456518 0.750000
O O2 0.751180 0.407208 0.739845
O O3 0.715502 0.506098 0.690129
O O4 0.521315 0.444947 0.509316
O O5 0.650997 0.828890 0.606043
O O6 0.528963 0.750056 0.463435
O O7 0.347796 0.826703 0.365700
O O8 0.666068 0.819431 0.375361
O O9 0.191861 0.177417 0.127627
O O10 0.000000 0.147289 0.250000
O O11 0.250000 0.250000 0.000000
O O12 0.529051 0.315662 0.129843
O O13 0.500000 0.558116 0.750000
O O14 0.718407 0.604292 0.688024
#
# Coordination Sequence:
#
# PCOD9272283 Si02
#       6
#     8   8   8   8   8   8
#     4   9  18  37  65  95 124 169 225 267 328 404
#     4  11  25  39  64  92 131 173 220 264 329 392
#     4  11  21  41  68  91 124 173 226 266 318 402
#     4  12  26  42  64  93 130 174 220 277 325 386
#     4  10  20  36  66  99 128 165 218 280 332 387
#     4  11  23  42  62  95 134 167 215 272 330 397
#
# _framework density 21.430910000000001
#
# number of rings (size 3 to 8) (size 9 to 14) (size 15 to 20)
#    0.000    1.333    3.333    2.500    4.667    2.000 
#    0.000    0.833    0.000    4.000    0.000    0.000 
#    0.000    0.000    0.000    0.000    0.000    0.000 
#
# Total GULP energy -134063.305725 kJ/mol
# GULP energy per Si atom -5585.971072 kJ/mol
# Density = 2.138213 g / cm^3
# Si number density = 21.430910 Si / 1000 Ang^3
#
#
#
# Elastic Constant Matrix: (Units=GPa)
#
#
# Indices 1 2 3 4 5 6 
#
# 1 62.6933 18.2239 29.3157 0.0000 -1.1041 0.0000
# 2 18.2239 187.9712 35.8468 0.0000 11.4007 0.0000
# 3 29.3157 35.8468 149.3331 0.0000 12.1624 0.0000
# 4 0.0000 0.0000 0.0000 23.4841 0.0000 2.5844
# 5 -1.1041 11.4007 12.1624 0.0000 38.3807 0.0000
# 6 0.0000 0.0000 0.0000 2.5844 0.0000 20.2388
#
#
#
# Elastic Compliance Matrix: (Units=1/GPa)
#
#
# Indices 1 2 3 4 5 6 
#
# 1 0.017920 -0.001210 -0.003386 0.000000 0.001948 0.000000
# 2 -0.001210 0.005717 -0.001020 0.000000 -0.001410 0.000000
# 3 -0.003386 -0.001020 0.007790 0.000000 -0.002263 0.000000
# 4 0.000000 0.000000 0.000000 0.043189 0.000000 -0.005515
# 5 0.001948 -0.001410 -0.002263 0.000000 0.027247 0.000000
# 6 0.000000 0.000000 0.000000 -0.005515 0.000000 0.050114
#
#
# Mechanical properties :
#
#
# Convention : Reuss Voigt Hill
#
# Bulk Modulus (GPa) = 49.51553 62.97449 56.24501
# Shear Modulus (GPa) = 29.42188 37.52813 33.47500
#
# Velocity S-wave (km/s) = 3.70925 4.18918 3.95650
# Velocity P-wave (km/s) = 6.44202 7.26964 6.86830
#
# Compressibility (1/GPa) = 0.02019568
#
# Stress axis : x y z
#
# Youngs Moduli (GPa) = 55.80358 174.90789 128.36378
#
# Poissons Ratio (x) = 0.21159 0.43466
# Poissons Ratio (y) = 0.06751 0.13094
# Poissons Ratio (z) = 0.18896 0.17842
#
# Static dielectric constant tensor:
#      x y z
#    x 1.896100 0.000000 -0.027980 
#    y 0.000000 1.770940 0.000000 
#    z -0.027980 0.000000 1.742950 
# 
# From -- ./inp_files/80931.got.cif
#   From: 2010.05.17/outbox.cif.g08.bks.cpg/sg15_41_cif.got.tgz:80931.got - 2010.06.03 18:47:42.
