data_PCOD9272744
_publ_section_title
;
Structure prediction by ZEFSAII (Michael W. Deem and Ramdas Pophale) SiO2 
 PCOD9272744
Probable space group: C 2/C
;
_chemical_formula_sum "Si O2"
_cell_formula_units_Z 56
_cell_length_a 30.366287
_cell_length_b 12.174013
_cell_length_c 9.977232
_cell_angle_alpha 90.000000
_cell_angle_beta 59.646607
_cell_angle_gamma 90.000000
_cell_volume 3182.794384
_symmetry_space_group_name_H-M "C 2/C"
_symmetry_group_IT_number 15
_symmetry_cell_setting 'monoclinic'
loop_
_space_group_symop_operation_xyz
x,y,z
-x,y,1/2-z
-x,-y,-z
x,-y,1/2+z
1/2+x,1/2+y,z
1/2-x,1/2+y,1/2-z
1/2-x,1/2-y,-z
1/2+x,1/2-y,1/2+z
loop_
_atom_site_type_symbol
_atom_site_label
_atom_site_fract_x
_atom_site_fract_y
_atom_site_fract_z
Si Si1 0.465581 0.028818 0.424261
Si Si2 0.379851 0.851904 0.193732
Si Si3 0.803399 0.544831 0.283233
Si Si4 0.697907 0.312892 0.613691
Si Si5 0.235069 0.952426 0.147376
Si Si6 0.657598 0.719547 0.880137
Si Si7 0.941613 0.287606 0.363787
O O1 0.500000 0.069439 0.250000
O O2 0.420632 0.113690 0.520909
O O3 0.500000 0.000000 0.500000
O O4 0.444227 0.910569 0.416697
O O5 0.337429 0.759482 0.234338
O O6 0.413161 0.807250 0.266396
O O7 0.347974 0.963927 0.268372
O O8 0.770552 0.475968 0.223575
O O9 0.769187 0.574887 0.464663
O O10 0.824626 0.655457 0.180449
O O11 0.750000 0.250000 0.500000
O O12 0.709223 0.430852 0.655335
O O13 0.671868 0.316225 0.508863
O O14 0.191417 0.861916 0.238581
O O15 0.595782 0.719680 0.980408
O O16 0.000000 0.249258 0.250000
#
# Coordination Sequence:
#
# PCOD9272744 Si02
#       7
#     8   8   8   8   8   8   8
#     4  11  20  34  55  86 120 148 188 239 290 339
#     4  11  21  36  60  88 119 156 188 231 295 353
#     4  12  23  36  59  89 122 152 190 237 287 353
#     4  11  20  39  59  81 119 159 186 234 294 351
#     4  12  23  40  57  84 125 153 197 236 281 347
#     4  11  22  37  60  85 114 155 198 236 290 343
#     4  10  20  37  60  86 116 154 190 237 295 343
#
# _framework density 17.594601999999998
#
# number of rings (size 3 to 8) (size 9 to 14) (size 15 to 20)
#    0.000    0.857    8.571    1.286    0.000    0.000 
#    0.000    0.000    0.000    4.286    0.000    0.000 
#    0.000    0.000    0.000    0.000    0.000    0.000 
#
# Total GULP energy -156073.272030 kJ/mol
# GULP energy per Si atom -5574.045430 kJ/mol
# Density = 1.755456 g / cm^3
# Si number density = 17.594602 Si / 1000 Ang^3
#
#
#
# Elastic Constant Matrix: (Units=GPa)
#
#
# Indices 1 2 3 4 5 6 
#
# 1 78.7047 25.2827 41.1228 0.0000 -26.4500 0.0000
# 2 25.2827 62.5012 18.9280 0.0000 -22.5317 0.0000
# 3 41.1228 18.9280 122.5998 0.0000 -31.4472 0.0000
# 4 0.0000 0.0000 0.0000 31.3650 0.0000 -9.1417
# 5 -26.4500 -22.5317 -31.4472 0.0000 30.7240 0.0000
# 6 0.0000 0.0000 0.0000 -9.1417 0.0000 25.7339
#
#
#
# Elastic Compliance Matrix: (Units=1/GPa)
#
#
# Indices 1 2 3 4 5 6 
#
# 1 0.018932 -0.002699 -0.003065 0.000000 0.011182 0.000000
# 2 -0.002699 0.022224 0.001436 0.000000 0.015444 0.000000
# 3 -0.003065 0.001436 0.011602 0.000000 0.010289 0.000000
# 4 0.000000 0.000000 0.000000 0.035565 0.000000 0.012634
# 5 0.011182 0.015444 0.010289 0.000000 0.064032 0.000000
# 6 0.000000 0.000000 0.000000 0.012634 0.000000 0.043347
#
#
# Mechanical properties :
#
#
# Convention : Reuss Voigt Hill
#
# Bulk Modulus (GPa) = 22.67511 48.27473 35.47492
# Shear Modulus (GPa) = 22.82464 29.46271 26.14367
#
# Velocity S-wave (km/s) = 3.60565 4.09654 3.85891
# Velocity P-wave (km/s) = 5.49998 7.06204 6.32938
#
# Compressibility (1/GPa) = 0.04410122
#
# Stress axis : x y z
#
# Youngs Moduli (GPa) = 52.82003 44.99563 86.18852
#
# Poissons Ratio (x) = 0.12145 0.26421
# Poissons Ratio (y) = 0.14256 -0.12373
# Poissons Ratio (z) = 0.16192 -0.06460
#
# Static dielectric constant tensor:
#      x y z
#    x 1.636640 0.000000 -0.027820 
#    y 0.000000 1.580030 0.000000 
#    z -0.027820 0.000000 1.622920 
# 
# From -- ./inp_files/65544.got.cif
#   From: 2010.05.17/outbox.cif.g08.bks.cpg/sg15_33_cif.got.tgz:65544.got - 2010.06.03 18:47:42.
