data_PCOD9272026
_publ_section_title
;
Structure prediction by ZEFSAII (Michael W. Deem and Ramdas Pophale) SiO2 
 PCOD9272026
Probable space group: C 2/C
;
_chemical_formula_sum "Si O2"
_cell_formula_units_Z 56
_cell_length_a 11.275437
_cell_length_b 12.819802
_cell_length_c 19.930186
_cell_angle_alpha 90.000000
_cell_angle_beta 75.744068
_cell_angle_gamma 90.000000
_cell_volume 2792.170190
_symmetry_space_group_name_H-M "C 2/C"
_symmetry_group_IT_number 15
_symmetry_cell_setting 'monoclinic'
loop_
_space_group_symop_operation_xyz
x,y,z
-x,y,1/2-z
-x,-y,-z
x,-y,1/2+z
1/2+x,1/2+y,z
1/2-x,1/2+y,1/2-z
1/2-x,1/2-y,-z
1/2+x,1/2-y,1/2+z
loop_
_atom_site_type_symbol
_atom_site_label
_atom_site_fract_x
_atom_site_fract_y
_atom_site_fract_z
Si Si1 0.089888 0.993425 0.073609
Si Si2 0.498628 0.912444 0.441260
Si Si3 0.094136 0.046283 0.793339
Si Si4 0.400737 0.240751 0.146626
Si Si5 0.772446 0.851605 0.040784
Si Si6 0.104928 0.239612 0.521772
Si Si7 0.210986 0.514010 0.332664
O O1 0.192574 0.996103 0.119036
O O2 0.087604 0.883501 0.035493
O O3 0.134746 0.077458 0.014180
O O4 0.959747 0.002348 0.130324
O O5 0.359988 0.904873 0.434757
O O6 0.544371 0.803382 0.468581
O O7 0.500000 0.000000 0.500000
O O8 0.593227 0.947685 0.371203
O O9 0.084528 0.171965 0.798973
O O10 0.000000 0.007695 0.750000
O O11 0.225931 0.018321 0.745802
O O12 0.326999 0.307828 0.101440
O O13 0.532892 0.213969 0.096281
O O14 0.328691 0.134471 0.167834
O O15 0.750000 0.750000 0.000000
O O16 0.250000 0.250000 0.500000
#
# Coordination Sequence:
#
# PCOD9272026 Si02
#       7
#     8   8   8   8   8   8   8
#     4  10  20  36  63  90 125 162 202 254 311 368
#     4  12  20  37  62  94 124 167 199 255 323 370
#     4   9  23  43  61  87 120 173 214 249 307 381
#     4  11  23  41  64  91 127 160 209 268 313 365
#     4  12  21  39  62  97 128 159 202 266 325 375
#     4  11  19  32  59  93 124 151 204 252 309 371
#     4  11  20  42  64  83 127 166 208 249 312 379
#
# _framework density 20.056083999999998
#
# number of rings (size 3 to 8) (size 9 to 14) (size 15 to 20)
#    0.000    1.143    7.143    0.000    0.000    2.286 
#    2.571    2.143    0.000    0.000    0.000    0.000 
#    0.000    0.000    0.000    0.000    0.000    0.000 
#
# Total GULP energy -156183.365882 kJ/mol
# GULP energy per Si atom -5577.977353 kJ/mol
# Density = 2.001044 g / cm^3
# Si number density = 20.056084 Si / 1000 Ang^3
#
#
#
# Elastic Constant Matrix: (Units=GPa)
#
#
# Indices 1 2 3 4 5 6 
#
# 1 105.0519 22.3215 58.0255 0.0000 -33.5145 0.0000
# 2 22.3215 97.4789 60.0183 0.0000 -26.8729 0.0000
# 3 58.0255 60.0183 120.7475 0.0000 -47.2883 0.0000
# 4 0.0000 0.0000 0.0000 35.6269 0.0000 -4.9735
# 5 -33.5145 -26.8729 -47.2883 0.0000 47.4688 0.0000
# 6 0.0000 0.0000 0.0000 -4.9735 0.0000 35.9428
#
#
#
# Elastic Compliance Matrix: (Units=1/GPa)
#
#
# Indices 1 2 3 4 5 6 
#
# 1 0.013841 0.001600 -0.005354 0.000000 0.005345 0.000000
# 2 0.001600 0.015054 -0.007332 0.000000 0.002348 0.000000
# 3 -0.005354 -0.007332 0.018681 0.000000 0.010680 0.000000
# 4 0.000000 0.000000 0.000000 0.028622 0.000000 0.003960
# 5 0.005345 0.002348 0.010680 0.000000 0.036809 0.000000
# 6 0.000000 0.000000 0.000000 0.003960 0.000000 0.028370
#
#
# Mechanical properties :
#
#
# Convention : Reuss Voigt Hill
#
# Bulk Modulus (GPa) = 39.36126 67.11210 53.23668
# Shear Modulus (GPa) = 29.06699 36.00190 32.53445
#
# Velocity S-wave (km/s) = 3.81108 4.24141 4.03199
# Velocity P-wave (km/s) = 6.24772 7.58426 6.94820
#
# Compressibility (1/GPa) = 0.02540569
#
# Stress axis : x y z
#
# Youngs Moduli (GPa) = 72.24698 66.42794 53.52905
#
# Poissons Ratio (x) = -0.10631 0.28658
# Poissons Ratio (y) = -0.11562 0.39248
# Poissons Ratio (z) = 0.38679 0.48706
#
# Static dielectric constant tensor:
#      x y z
#    x 2.088050 0.000000 0.365960 
#    y 0.000000 1.664620 0.000000 
#    z 0.365960 0.000000 2.153160 
# 
# From -- ./inp_files/237525.got.cif
#   From: 2010.05.17/outbox.cif.g08.bks.cpg/sg15_119_cif.got.tgz:237525.got - 2010.06.03 18:47:42.
