data_PCOD9272818
_publ_section_title
;
Structure prediction by ZEFSAII (Michael W. Deem and Ramdas Pophale) SiO2 
 PCOD9272818
Probable space group: C 2/C
;
_chemical_formula_sum "Si O2"
_cell_formula_units_Z 56
_cell_length_a 17.777879
_cell_length_b 13.260993
_cell_length_c 9.723551
_cell_angle_alpha 90.000000
_cell_angle_beta 84.414502
_cell_angle_gamma 90.000000
_cell_volume 2281.465871
_symmetry_space_group_name_H-M "C 2/C"
_symmetry_group_IT_number 15
_symmetry_cell_setting 'monoclinic'
loop_
_space_group_symop_operation_xyz
x,y,z
-x,y,1/2-z
-x,-y,-z
x,-y,1/2+z
1/2+x,1/2+y,z
1/2-x,1/2+y,1/2-z
1/2-x,1/2-y,-z
1/2+x,1/2-y,1/2+z
loop_
_atom_site_type_symbol
_atom_site_label
_atom_site_fract_x
_atom_site_fract_y
_atom_site_fract_z
Si Si1 0.222120 0.007542 0.438628
Si Si2 0.384073 0.100640 0.475596
Si Si3 0.086445 0.582148 0.350760
Si Si4 0.037734 0.204076 0.893479
Si Si5 0.752434 0.164172 0.380839
Si Si6 0.799687 0.840462 0.248597
Si Si7 0.886852 0.164414 0.020197
O O1 0.296505 0.068549 0.468724
O O2 0.156475 0.078801 0.387544
O O3 0.199823 0.928645 0.565181
O O4 0.244974 0.932839 0.309103
O O5 0.418230 0.086999 0.314506
O O6 0.383404 0.214788 0.530633
O O7 0.423004 0.025238 0.576618
O O8 0.041365 0.676401 0.424724
O O9 0.171943 0.612561 0.373085
O O10 0.124045 0.171522 0.859055
O O11 0.000000 0.196168 0.750000
O O12 0.977245 0.146250 0.997706
O O13 0.750000 0.250000 0.500000
O O14 0.752781 0.240643 0.250150
O O15 0.838296 0.854051 0.388501
#
# Coordination Sequence:
#
# PCOD9272818 Si02
#       7
#     8   8   8   8   8   8   8
#     4  10  22  32  54  88 114 154 190 250 297 356
#     4  11  22  38  60  91 124 156 200 249 315 360
#     4  10  20  37  60  90 117 160 201 250 303 367
#     4   9  17  37  60  83 110 158 204 238 300 366
#     4   8  15  33  53  79 112 151 193 227 291 359
#     4   9  18  34  59  78 111 154 198 240 294 359
#     4  11  21  36  57  84 118 156 200 252 297 359
#
# _framework density 24.545624
#
# number of rings (size 3 to 8) (size 9 to 14) (size 15 to 20)
#    0.000    2.286    4.286    0.429    4.000    1.143 
#    0.000    0.000    3.143    0.000    0.000    0.000 
#    0.000    0.000    0.000    0.000    0.000    0.000 
#
# Total GULP energy -156016.122745 kJ/mol
# GULP energy per Si atom -5572.004384 kJ/mol
# Density = 2.448976 g / cm^3
# Si number density = 24.545624 Si / 1000 Ang^3
#
#
#
# Elastic Constant Matrix: (Units=GPa)
#
#
# Indices 1 2 3 4 5 6 
#
# 1 78.4322 26.4117 7.8138 0.0000 -10.7776 0.0000
# 2 26.4117 118.0307 10.9131 0.0000 -15.7207 0.0000
# 3 7.8138 10.9131 53.5936 0.0000 0.7412 0.0000
# 4 0.0000 0.0000 0.0000 35.3144 0.0000 6.8332
# 5 -10.7776 -15.7207 0.7412 0.0000 31.6114 0.0000
# 6 0.0000 0.0000 0.0000 6.8332 0.0000 35.8780
#
#
#
# Elastic Compliance Matrix: (Units=1/GPa)
#
#
# Indices 1 2 3 4 5 6 
#
# 1 0.014271 -0.002561 -0.001609 0.000000 0.003630 0.000000
# 2 -0.002561 0.009733 -0.001664 0.000000 0.004006 0.000000
# 3 -0.001609 -0.001664 0.019258 0.000000 -0.001828 0.000000
# 4 0.000000 0.000000 0.000000 0.029401 0.000000 -0.005599
# 5 0.003630 0.004006 -0.001828 0.000000 0.034907 0.000000
# 6 0.000000 0.000000 0.000000 -0.005599 0.000000 0.028939
#
#
# Mechanical properties :
#
#
# Convention : Reuss Voigt Hill
#
# Bulk Modulus (GPa) = 31.65260 37.81487 34.73373
# Shear Modulus (GPa) = 31.50438 34.22196 32.86317
#
# Velocity S-wave (km/s) = 3.58649 3.73797 3.66301
# Velocity P-wave (km/s) = 5.48397 5.83689 5.66318
#
# Compressibility (1/GPa) = 0.03159298
#
# Stress axis : x y z
#
# Youngs Moduli (GPa) = 70.06983 102.74412 51.92736
#
# Poissons Ratio (x) = 0.26316 0.08357
# Poissons Ratio (y) = 0.17947 0.08640
# Poissons Ratio (z) = 0.11277 0.17095
#
# Static dielectric constant tensor:
#      x y z
#    x 1.996440 0.000000 -0.108740 
#    y 0.000000 2.031220 0.000000 
#    z -0.108740 0.000000 2.133670 
# 
# From -- ./inp_files/111085.got.cif
#   From: 2010.05.17/outbox.cif.g08.bks.cpg/sg15_56_cif.got.tgz:111085.got - 2010.06.03 18:47:42.
