data_PCOD9272469
_publ_section_title
;
Structure prediction by ZEFSAII (Michael W. Deem and Ramdas Pophale) SiO2 
 PCOD9272469
Probable space group: C 2/C
;
_chemical_formula_sum "Si O2"
_cell_formula_units_Z 48
_cell_length_a 15.146579
_cell_length_b 9.486720
_cell_length_c 27.372800
_cell_angle_alpha 90.000000
_cell_angle_beta 28.024638
_cell_angle_gamma 90.000000
_cell_volume 1848.035038
_symmetry_space_group_name_H-M "C 2/C"
_symmetry_group_IT_number 15
_symmetry_cell_setting 'monoclinic'
loop_
_space_group_symop_operation_xyz
x,y,z
-x,y,1/2-z
-x,-y,-z
x,-y,1/2+z
1/2+x,1/2+y,z
1/2-x,1/2+y,1/2-z
1/2-x,1/2-y,-z
1/2+x,1/2-y,1/2+z
loop_
_atom_site_type_symbol
_atom_site_label
_atom_site_fract_x
_atom_site_fract_y
_atom_site_fract_z
Si Si1 0.905652 0.047134 0.848236
Si Si2 0.852428 0.689371 0.027332
Si Si3 0.070811 0.179354 0.909611
Si Si4 0.068493 0.101460 0.364837
Si Si5 0.991903 0.332720 0.852036
Si Si6 0.495242 0.108800 0.806307
O O1 0.701698 0.973394 0.947200
O O2 0.000000 0.017514 0.750000
O O3 0.021524 0.975331 0.836653
O O4 0.915824 0.213854 0.852891
O O5 0.952029 0.744571 0.027720
O O6 0.650828 0.765919 0.126802
O O7 0.959595 0.754465 0.928985
O O8 0.973409 0.266733 0.914396
O O9 0.012553 0.015973 0.932854
O O10 0.295408 0.167917 0.786976
O O11 0.286135 0.139174 0.264181
O O12 0.916518 0.489246 0.880644
O O13 0.500000 0.039101 0.750000
#
# Coordination Sequence:
#
# PCOD9272469 Si02
#       6
#     8   8   8   8   8   8
#     4  11  22  37  57  82 111 145 181 220 274 333
#     4  11  20  36  59  84 108 141 185 230 267 314
#     4   9  19  35  57  81 108 147 187 217 264 332
#     4  10  21  37  58  83 110 143 184 227 267 317
#     4  10  20  37  57  80 110 146 182 221 270 327
#     4   9  18  34  57  80 107 148 186 219 264 325
#
# _framework density 25.973533
#
# number of rings (size 3 to 8) (size 9 to 14) (size 15 to 20)
#    0.000    2.000    0.000    5.000    0.000    0.000 
#    0.000    5.833    0.000    4.000    0.000    0.000 
#    0.000    0.000    0.000    0.000    0.000    0.000 
#
# Total GULP energy -134481.415328 kJ/mol
# GULP energy per Si atom -5603.392305 kJ/mol
# Density = 2.591442 g / cm^3
# Si number density = 25.973533 Si / 1000 Ang^3
#
#
#
# Elastic Constant Matrix: (Units=GPa)
#
#
# Indices 1 2 3 4 5 6 
#
# 1 111.2371 45.1906 16.6936 0.0000 21.7422 0.0000
# 2 45.1906 161.5948 13.5268 -0.0001 12.9406 0.0000
# 3 16.6936 13.5268 71.6796 -0.0006 -0.4676 -0.0002
# 4 0.0000 -0.0001 -0.0006 26.0294 -0.0002 1.7224
# 5 21.7422 12.9406 -0.4676 -0.0002 37.9524 0.0000
# 6 0.0000 0.0000 -0.0002 1.7224 0.0000 34.3770
#
#
#
# Elastic Compliance Matrix: (Units=1/GPa)
#
#
# Indices 1 2 3 4 5 6 
#
# 1 0.011488 -0.002567 -0.002228 0.000000 -0.005733 0.000000
# 2 -0.002567 0.007043 -0.000737 0.000000 -0.000940 0.000000
# 3 -0.002228 -0.000737 0.014620 0.000000 0.001708 0.000000
# 4 0.000000 0.000000 0.000000 0.038546 0.000000 -0.001931
# 5 -0.005733 -0.000940 0.001708 0.000000 0.029975 0.000000
# 6 0.000000 0.000000 0.000000 -0.001931 0.000000 0.029186
#
#
# Mechanical properties :
#
#
# Convention : Reuss Voigt Hill
#
# Bulk Modulus (GPa) = 45.27834 55.03706 50.15770
# Shear Modulus (GPa) = 33.49292 37.61177 35.55234
#
# Velocity S-wave (km/s) = 3.59486 3.80949 3.70373
# Velocity P-wave (km/s) = 5.89076 6.37066 6.13540
#
# Compressibility (1/GPa) = 0.02208561
#
# Stress axis : x y z
#
# Youngs Moduli (GPa) = 87.04989 141.98140 68.39823
#
# Poissons Ratio (x) = 0.36445 0.15242
# Poissons Ratio (y) = 0.22345 0.05044
# Poissons Ratio (z) = 0.19398 0.10470
#
# Static dielectric constant tensor:
#      x y z
#    x 2.073800 0.000000 0.004090 
#    y 0.000000 2.033660 0.000000 
#    z 0.004090 0.000000 1.986550 
# 
# From -- ./inp_files/312815.got.cif
#   From: 2010.05.17/outbox.cif.g08.bks.cpg/sg15_157_cif.got.tgz:312815.got - 2010.06.03 18:47:42.
