data_PCOD9272535
_publ_section_title
;
Structure prediction by ZEFSAII (Michael W. Deem and Ramdas Pophale) SiO2 
 PCOD9272535
Probable space group: C 2/C
;
_chemical_formula_sum "Si O2"
_cell_formula_units_Z 60
_cell_length_a 25.769561
_cell_length_b 8.798356
_cell_length_c 22.528904
_cell_angle_alpha 90.000000
_cell_angle_beta 146.024820
_cell_angle_gamma 90.000000
_cell_volume 2854.507696
_symmetry_space_group_name_H-M "C 2/C"
_symmetry_group_IT_number 15
_symmetry_cell_setting 'monoclinic'
loop_
_space_group_symop_operation_xyz
x,y,z
-x,y,1/2-z
-x,-y,-z
x,-y,1/2+z
1/2+x,1/2+y,z
1/2-x,1/2+y,1/2-z
1/2-x,1/2-y,-z
1/2+x,1/2-y,1/2+z
loop_
_atom_site_type_symbol
_atom_site_label
_atom_site_fract_x
_atom_site_fract_y
_atom_site_fract_z
Si Si1 0.022252 0.728500 0.377387
Si Si2 0.924280 0.389845 0.101170
Si Si3 0.867568 0.703586 0.905247
Si Si4 0.663038 0.647124 0.244276
Si Si5 0.000000 0.960522 0.250000
Si Si6 0.643843 0.303608 0.212347
Si Si7 0.621660 0.856276 0.573602
Si Si8 0.883288 0.757029 0.674016
O O1 0.068896 0.571258 0.399710
O O2 0.078536 0.780921 0.489234
O O3 0.023131 0.852849 0.327028
O O4 0.915150 0.703810 0.296891
O O5 0.854661 0.334388 0.087393
O O6 0.024214 0.329353 0.215719
O O7 0.906960 0.317736 0.020288
O O8 0.884710 0.765273 0.855356
O O9 0.756376 0.712540 0.815664
O O10 0.905250 0.530739 0.940184
O O11 0.623133 0.477513 0.210056
O O12 0.767550 0.631049 0.321826
O O13 0.670519 0.725005 0.315566
O O14 0.084695 0.074886 0.315875
O O15 0.603095 0.258857 0.109229
#
# Coordination Sequence:
#
# PCOD9272535 Si02
#       8
#     8   8   8   8   4   8   8   8
#     4  11  21  38  64  81 113 155 184 239 287 328
#     4   9  21  36  56  81 113 145 199 222 274 345
#     4   9  22  38  58  90 115 144 195 232 278 346
#     4  10  20  37  58  82 118 147 184 235 288 328
#     4  10  20  38  56  84 110 144 192 234 280 336
#     4  10  21  37  59  88 116 148 186 235 289 331
#     4   9  20  38  57  82 116 147 187 237 273 344
#     4  10  21  37  57  80 113 150 187 239 272 342
#
# _framework density 21.019386999999998
#
# number of rings (size 3 to 8) (size 9 to 14) (size 15 to 20)
#    0.000    2.400    1.333    0.800    3.733    4.267 
#    0.000    0.667    5.867    0.000    0.000    0.000 
#    0.000    0.000    0.000    0.000    0.000    0.000 
#
# Total GULP energy -167165.704174 kJ/mol
# GULP energy per Si atom -5572.190139 kJ/mol
# Density = 2.097155 g / cm^3
# Si number density = 21.019387 Si / 1000 Ang^3
#
#
#
# Elastic Constant Matrix: (Units=GPa)
#
#
# Indices 1 2 3 4 5 6 
#
# 1 94.2077 41.2927 33.4996 0.0000 -29.5810 0.0000
# 2 41.2927 53.4535 21.9186 0.0000 -26.7875 0.0000
# 3 33.4996 21.9186 90.9695 0.0000 -31.5251 0.0000
# 4 0.0000 0.0000 0.0000 24.0732 0.0000 -13.7294
# 5 -29.5810 -26.7875 -31.5251 0.0000 36.0767 0.0000
# 6 0.0000 0.0000 0.0000 -13.7294 0.0000 18.0241
#
#
#
# Elastic Compliance Matrix: (Units=1/GPa)
#
#
# Indices 1 2 3 4 5 6 
#
# 1 0.017337 -0.010087 -0.002328 0.000000 0.004691 0.000000
# 2 -0.010087 0.035695 0.002055 0.000000 0.020028 0.000000
# 3 -0.002328 0.002055 0.016097 0.000000 0.013683 0.000000
# 4 0.000000 0.000000 0.000000 0.073447 0.000000 0.055946
# 5 0.004691 0.020028 0.013683 0.000000 0.058393 0.000000
# 6 0.000000 0.000000 0.000000 0.055946 0.000000 0.098097
#
#
# Mechanical properties :
#
#
# Convention : Reuss Voigt Hill
#
# Bulk Modulus (GPa) = 20.65814 48.00586 34.33200
# Shear Modulus (GPa) = 14.88440 25.09613 19.99026
#
# Velocity S-wave (km/s) = 2.66395 3.45911 3.08724
# Velocity P-wave (km/s) = 4.39450 6.23236 5.39231
#
# Compressibility (1/GPa) = 0.04840707
#
# Stress axis : x y z
#
# Youngs Moduli (GPa) = 57.67949 28.01540 62.12503
#
# Poissons Ratio (x) = 0.28260 0.14465
# Poissons Ratio (y) = 0.58184 -0.12767
# Poissons Ratio (z) = 0.13429 -0.05757
#
# Static dielectric constant tensor:
#      x y z
#    x 1.837210 0.000000 0.000330 
#    y 0.000000 1.771580 0.000000 
#    z 0.000330 0.000000 1.779930 
# 
# From -- ./inp_files/257227.got.cif
#   From: 2010.05.17/outbox.cif.g08.bks.cpg/sg15_129_cif.got.tgz:257227.got - 2010.06.03 18:47:42.
