data_PCOD9272579
_publ_section_title
;
Structure prediction by ZEFSAII (Michael W. Deem and Ramdas Pophale) SiO2 
 PCOD9272579
Probable space group: C 2/C
;
_chemical_formula_sum "Si O2"
_cell_formula_units_Z 56
_cell_length_a 6.828741
_cell_length_b 12.851284
_cell_length_c 26.945373
_cell_angle_alpha 90.000000
_cell_angle_beta 86.767697
_cell_angle_gamma 90.000000
_cell_volume 2360.912587
_symmetry_space_group_name_H-M "C 2/C"
_symmetry_group_IT_number 15
_symmetry_cell_setting 'monoclinic'
loop_
_space_group_symop_operation_xyz
x,y,z
-x,y,1/2-z
-x,-y,-z
x,-y,1/2+z
1/2+x,1/2+y,z
1/2-x,1/2+y,1/2-z
1/2-x,1/2-y,-z
1/2+x,1/2-y,1/2+z
loop_
_atom_site_type_symbol
_atom_site_label
_atom_site_fract_x
_atom_site_fract_y
_atom_site_fract_z
Si Si1 0.028112 0.358899 0.491488
Si Si2 0.484278 0.554160 0.583131
Si Si3 0.566201 0.975528 0.582344
Si Si4 0.581329 0.644430 0.683089
Si Si5 0.752057 0.985832 0.245087
Si Si6 0.067298 0.140844 0.025604
Si Si7 0.445693 0.883741 0.684382
O O1 0.058387 0.446209 0.449738
O O2 0.041578 0.249118 0.465346
O O3 0.801938 0.353681 0.513868
O O4 0.139424 0.393653 0.539474
O O5 0.250952 0.544011 0.597695
O O6 0.591663 0.615240 0.625222
O O7 0.503724 0.604039 0.528195
O O8 0.542657 0.435593 0.572072
O O9 0.455566 0.916163 0.627166
O O10 0.767063 0.610917 0.714759
O O11 0.419494 0.563513 0.707622
O O12 0.012582 0.264060 0.689984
O O13 0.754691 0.084003 0.284211
O O14 0.599218 0.035897 0.208237
#
# Coordination Sequence:
#
# PCOD9272579 Si02
#       7
#     8   8   8   8   8   8   8
#     4   9  19  36  58  87 124 164 204 251 303 361
#     4  10  20  37  59  88 125 159 204 251 302 380
#     4  10  20  37  58  88 127 158 204 255 300 378
#     4  11  23  44  66  91 125 164 202 260 316 365
#     4  10  22  42  65  88 118 156 211 255 305 380
#     4   9  19  36  58  88 122 165 204 249 306 361
#     4  11  23  44  66  91 126 165 199 262 323 358
#
# _framework density 23.719639999999998
#
# number of rings (size 3 to 8) (size 9 to 14) (size 15 to 20)
#    0.000    2.000    1.429    2.571    2.000    0.571 
#    2.571   11.429    0.000    0.000    0.000    0.000 
#    0.000    0.000    0.000    0.000    0.000    0.000 
#
# Total GULP energy -155905.009204 kJ/mol
# GULP energy per Si atom -5568.036043 kJ/mol
# Density = 2.366565 g / cm^3
# Si number density = 23.719640 Si / 1000 Ang^3
#
#
#
# Elastic Constant Matrix: (Units=GPa)
#
#
# Indices 1 2 3 4 5 6 
#
# 1 51.2419 37.0169 25.9073 0.0000 1.6636 0.0000
# 2 37.0169 175.4155 43.2594 0.0000 -1.6880 0.0000
# 3 25.9073 43.2594 141.8036 0.0000 -3.0033 0.0000
# 4 0.0000 0.0000 0.0000 22.9469 0.0000 -5.0465
# 5 1.6636 -1.6880 -3.0033 0.0000 31.9672 0.0000
# 6 0.0000 0.0000 0.0000 -5.0465 0.0000 38.0284
#
#
#
# Elastic Compliance Matrix: (Units=1/GPa)
#
#
# Indices 1 2 3 4 5 6 
#
# 1 0.024325 -0.004374 -0.003148 0.000000 -0.001793 0.000000
# 2 -0.004374 0.006952 -0.001312 0.000000 0.000471 0.000000
# 3 -0.003148 -0.001312 0.008045 0.000000 0.000850 0.000000
# 4 0.000000 0.000000 0.000000 0.044889 0.000000 0.005957
# 5 -0.001793 0.000471 0.000850 0.000000 0.031480 0.000000
# 6 0.000000 0.000000 0.000000 0.005957 0.000000 0.027087
#
#
# Mechanical properties :
#
#
# Convention : Reuss Voigt Hill
#
# Bulk Modulus (GPa) = 46.17883 64.53646 55.35764
# Shear Modulus (GPa) = 29.82183 36.07368 32.94776
#
# Velocity S-wave (km/s) = 3.54964 3.90402 3.73104
# Velocity P-wave (km/s) = 6.02584 6.89847 6.47687
#
# Compressibility (1/GPa) = 0.02165495
#
# Stress axis : x y z
#
# Youngs Moduli (GPa) = 41.11048 143.84789 124.29740
#
# Poissons Ratio (x) = 0.62921 0.39125
# Poissons Ratio (y) = 0.17982 0.16303
# Poissons Ratio (z) = 0.12940 0.18867
#
# Static dielectric constant tensor:
#      x y z
#    x 2.251730 0.000000 0.044050 
#    y 0.000000 1.939270 0.000000 
#    z 0.044050 0.000000 1.909880 
# 
# From -- ./inp_files/307648.got.cif
#   From: 2010.05.17/outbox.cif.g08.bks.cpg/sg15_154_cif.got.tgz:307648.got - 2010.06.03 18:47:42.
