data_PCOD9272013
_publ_section_title
;
Structure prediction by ZEFSAII (Michael W. Deem and Ramdas Pophale) SiO2 
 PCOD9272013
Probable space group: C 2/C
;
_chemical_formula_sum "Si O2"
_cell_formula_units_Z 36
_cell_length_a 14.128403
_cell_length_b 15.143701
_cell_length_c 8.263930
_cell_angle_alpha 90.000000
_cell_angle_beta 113.206050
_cell_angle_gamma 90.000000
_cell_volume 1625.067994
_symmetry_space_group_name_H-M "C 2/C"
_symmetry_group_IT_number 15
_symmetry_cell_setting 'monoclinic'
loop_
_space_group_symop_operation_xyz
x,y,z
-x,y,1/2-z
-x,-y,-z
x,-y,1/2+z
1/2+x,1/2+y,z
1/2-x,1/2+y,1/2-z
1/2-x,1/2-y,-z
1/2+x,1/2-y,1/2+z
loop_
_atom_site_type_symbol
_atom_site_label
_atom_site_fract_x
_atom_site_fract_y
_atom_site_fract_z
Si Si1 0.022497 0.901120 0.072518
Si Si2 0.240989 0.128655 0.828822
Si Si3 0.500000 0.998271 0.250000
Si Si4 0.175254 0.814010 0.650526
Si Si5 0.154275 0.563304 0.098495
O O1 0.000000 0.895401 0.250000
O O2 0.141841 0.876001 0.145263
O O3 0.943170 0.842069 0.918498
O O4 0.000000 0.000000 0.000000
O O5 0.311978 0.209818 0.826414
O O6 0.292260 0.033031 0.863766
O O7 0.207620 0.152994 0.990672
O O8 0.568451 0.061009 0.181833
O O9 0.583445 0.936923 0.393512
O O10 0.257135 0.864901 0.818491
#
# Coordination Sequence:
#
# PCOD9272013 Si02
#       5
#     8   8   4   8   8
#     4  10  20  36  63  88 118 156 196 241 300 353
#     4  10  21  38  64  91 118 157 205 247 295 361
#     4  10  24  34  62  86 120 164 196 244 318 348
#     4  10  21  38  64  91 118 157 205 247 295 361
#     4  11  20  41  60  86 122 161 200 255 296 362
#
# _framework density 22.152919000000001
#
# number of rings (size 3 to 8) (size 9 to 14) (size 15 to 20)
#    0.000    1.778    4.444    0.000    0.000    3.556 
#    4.000    1.111    4.889    0.000    0.000    0.000 
#    0.000    0.000    0.000    0.000    0.000    0.000 
#
# Total GULP energy -100566.028509 kJ/mol
# GULP energy per Si atom -5587.001584 kJ/mol
# Density = 2.210250 g / cm^3
# Si number density = 22.152919 Si / 1000 Ang^3
#
#
#
# Elastic Constant Matrix: (Units=GPa)
#
#
# Indices 1 2 3 4 5 6 
#
# 1 38.5103 8.9272 24.1505 0.0000 26.3906 0.0000
# 2 8.9272 77.4372 10.1572 0.0000 28.0790 0.0000
# 3 24.1505 10.1572 117.2279 0.0000 55.1715 0.0000
# 4 0.0000 0.0000 0.0000 24.1669 0.0000 9.3751
# 5 26.3906 28.0790 55.1715 0.0000 53.0061 0.0000
# 6 0.0000 0.0000 0.0000 9.3751 0.0000 26.6621
#
#
#
# Elastic Compliance Matrix: (Units=1/GPa)
#
#
# Indices 1 2 3 4 5 6 
#
# 1 0.040774 0.004411 0.003669 0.000000 -0.026456 0.000000
# 2 0.004411 0.018182 0.006042 0.000000 -0.018117 0.000000
# 3 0.003669 0.006042 0.018852 0.000000 -0.024650 0.000000
# 4 0.000000 0.000000 0.000000 0.047915 0.000000 -0.016848
# 5 -0.026456 -0.018117 -0.024650 0.000000 0.067292 0.000000
# 6 0.000000 0.000000 0.000000 -0.016848 0.000000 0.043431
#
#
# Mechanical properties :
#
#
# Convention : Reuss Voigt Hill
#
# Bulk Modulus (GPa) = 9.42926 35.51613 22.47270
# Shear Modulus (GPa) = 20.52964 33.42972 26.97968
#
# Velocity S-wave (km/s) = 3.04752 3.88886 3.49360
# Velocity P-wave (km/s) = 4.08030 6.01925 5.14199
#
# Compressibility (1/GPa) = 0.10605288
#
# Stress axis : x y z
#
# Youngs Moduli (GPa) = 24.52565 54.99986 53.04475
#
# Poissons Ratio (x) = -0.24262 -0.19462
# Poissons Ratio (y) = -0.10819 -0.32051
# Poissons Ratio (z) = -0.08999 -0.33233
#
# Static dielectric constant tensor:
#      x y z
#    x 1.831390 0.000000 -0.005690 
#    y 0.000000 1.747530 0.000000 
#    z -0.005690 0.000000 1.768380 
# 
# From -- ./inp_files/37423.got.cif
#   From: 2010.05.17/outbox.cif.g08.bks.cpg/sg15_19_cif.got.tgz:37423.got - 2010.06.03 18:47:42.
