data_PCOD9272794
_publ_section_title
;
Structure prediction by ZEFSAII (Michael W. Deem and Ramdas Pophale) SiO2 
 PCOD9272794
Probable space group: C 2/C
;
_chemical_formula_sum "Si O2"
_cell_formula_units_Z 56
_cell_length_a 17.084312
_cell_length_b 7.774306
_cell_length_c 16.115846
_cell_angle_alpha 90.000000
_cell_angle_beta 101.829901
_cell_angle_gamma 90.000000
_cell_volume 2095.022459
_symmetry_space_group_name_H-M "C 2/C"
_symmetry_group_IT_number 15
_symmetry_cell_setting 'monoclinic'
loop_
_space_group_symop_operation_xyz
x,y,z
-x,y,1/2-z
-x,-y,-z
x,-y,1/2+z
1/2+x,1/2+y,z
1/2-x,1/2+y,1/2-z
1/2-x,1/2-y,-z
1/2+x,1/2-y,1/2+z
loop_
_atom_site_type_symbol
_atom_site_label
_atom_site_fract_x
_atom_site_fract_y
_atom_site_fract_z
Si Si1 0.012991 0.199246 0.524722
Si Si2 0.561075 0.277110 0.332489
Si Si3 0.754902 0.029028 0.024727
Si Si4 0.667519 0.195781 0.147566
Si Si5 0.759041 0.317157 0.628515
Si Si6 0.330110 0.172023 0.758824
Si Si7 0.078850 0.830000 0.872169
O O1 0.084515 0.215044 0.607830
O O2 0.028626 0.267122 0.433940
O O3 0.944345 0.275102 0.570250
O O4 0.000000 0.000000 0.500000
O O5 0.500000 0.205876 0.250000
O O6 0.650103 0.225327 0.322991
O O7 0.547778 0.484338 0.333623
O O8 0.744767 0.848790 0.069180
O O9 0.695796 0.149151 0.060847
O O10 0.841814 0.101150 0.064109
O O11 0.738646 0.984982 0.927081
O O12 0.739806 0.304240 0.203170
O O13 0.682040 0.316015 0.672283
O O14 0.839225 0.488379 0.805582
O O15 0.393851 0.219000 0.701882
#
# Coordination Sequence:
#
# PCOD9272794 Si02
#       7
#     8   8   8   8   8   8   8
#     4  10  22  40  62  89 130 181 226 260 307 394
#     4  10  20  37  60  88 125 170 216 258 318 397
#     4   8  17  33  57  89 125 160 208 271 324 378
#     4  10  21  38  61  98 132 168 218 271 336 390
#     4   9  17  33  57  89 125 166 208 260 329 384
#     4  10  21  37  65 101 132 159 212 286 339 386
#     4   9  20  37  59  93 125 161 215 269 324 381
#
# _framework density 26.730024
#
# number of rings (size 3 to 8) (size 9 to 14) (size 15 to 20)
#    0.000    2.571    0.000    1.714    0.000    5.714 
#    0.000    6.429    0.000    6.000    0.000    2.000 
#    0.000    0.000    0.000    0.000    0.000    0.571 
#
# Total GULP energy -156292.816630 kJ/mol
# GULP energy per Si atom -5581.886308 kJ/mol
# Density = 2.666919 g / cm^3
# Si number density = 26.730024 Si / 1000 Ang^3
#
#
#
# Elastic Constant Matrix: (Units=GPa)
#
#
# Indices 1 2 3 4 5 6 
#
# 1 61.0824 20.8117 55.2037 0.0000 -15.8221 0.0000
# 2 20.8117 87.6919 50.6114 0.0000 7.7358 0.0000
# 3 55.2037 50.6114 178.6556 0.0000 -48.7889 0.0000
# 4 0.0000 0.0000 0.0000 45.9947 0.0000 5.1958
# 5 -15.8221 7.7358 -48.7889 0.0000 54.5380 0.0000
# 6 0.0000 0.0000 0.0000 5.1958 0.0000 20.7870
#
#
#
# Elastic Compliance Matrix: (Units=1/GPa)
#
#
# Indices 1 2 3 4 5 6 
#
# 1 0.022982 -0.002060 -0.006110 0.000000 0.001494 0.000000
# 2 -0.002060 0.016293 -0.006317 0.000000 -0.008560 0.000000
# 3 -0.006110 -0.006317 0.011956 0.000000 0.009819 0.000000
# 4 0.000000 0.000000 0.000000 0.022373 0.000000 -0.005592
# 5 0.001494 -0.008560 0.009819 0.000000 0.028768 0.000000
# 6 0.000000 0.000000 0.000000 -0.005592 0.000000 0.049505
#
#
# Mechanical properties :
#
#
# Convention : Reuss Voigt Hill
#
# Bulk Modulus (GPa) = 44.92624 64.52038 54.72331
# Shear Modulus (GPa) = 26.55767 37.65080 32.10423
#
# Velocity S-wave (km/s) = 3.15549 3.75715 3.46938
# Velocity P-wave (km/s) = 5.48817 6.55833 6.04697
#
# Compressibility (1/GPa) = 0.02225871
#
# Stress axis : x y z
#
# Youngs Moduli (GPa) = 43.51256 61.37528 83.63746
#
# Poissons Ratio (x) = 0.12641 0.51102
# Poissons Ratio (y) = 0.08962 0.52832
# Poissons Ratio (z) = 0.26586 0.38770
#
# Static dielectric constant tensor:
#      x y z
#    x 2.338230 0.000000 -0.091040 
#    y 0.000000 2.064460 0.000000 
#    z -0.091040 0.000000 2.246340 
# 
# From -- ./inp_files/213371.got.cif
#   From: 2010.05.17/outbox.cif.g08.bks.cpg/sg15_107_cif.got.tgz:213371.got - 2010.06.03 18:47:42.
