data_PCOD9272260
_publ_section_title
;
Structure prediction by ZEFSAII (Michael W. Deem and Ramdas Pophale) SiO2 
 PCOD9272260
Probable space group: C 2/C
;
_chemical_formula_sum "Si O2"
_cell_formula_units_Z 52
_cell_length_a 15.916235
_cell_length_b 15.657335
_cell_length_c 8.784406
_cell_angle_alpha 90.000000
_cell_angle_beta 91.851540
_cell_angle_gamma 90.000000
_cell_volume 2187.982189
_symmetry_space_group_name_H-M "C 2/C"
_symmetry_group_IT_number 15
_symmetry_cell_setting 'monoclinic'
loop_
_space_group_symop_operation_xyz
x,y,z
-x,y,1/2-z
-x,-y,-z
x,-y,1/2+z
1/2+x,1/2+y,z
1/2-x,1/2+y,1/2-z
1/2-x,1/2-y,-z
1/2+x,1/2-y,1/2+z
loop_
_atom_site_type_symbol
_atom_site_label
_atom_site_fract_x
_atom_site_fract_y
_atom_site_fract_z
Si Si1 0.363548 0.988951 0.199987
Si Si2 0.680349 0.289778 0.748654
Si Si3 0.618400 0.572966 0.021332
Si Si4 0.916631 0.375907 0.489233
Si Si5 0.248773 0.570432 0.064972
Si Si6 0.000000 0.287797 0.250000
Si Si7 0.750000 0.750000 0.000000
Si Si8 0.500000 0.473856 0.250000
O O1 0.395020 0.930357 0.336215
O O2 0.290832 0.043644 0.276384
O O3 0.322139 0.932286 0.065944
O O4 0.425952 0.055433 0.123325
O O5 0.673673 0.344775 0.582448
O O6 0.708486 0.340775 0.895565
O O7 0.585992 0.262837 0.760613
O O8 0.748098 0.225679 0.686503
O O9 0.683212 0.500230 0.976030
O O10 0.553453 0.580765 0.876478
O O11 0.563762 0.535369 0.159012
O O12 0.996120 0.329515 0.419628
O O13 0.839946 0.312891 0.524562
#
# Coordination Sequence:
#
# PCOD9272260 Si02
#       8
#     8   8   8   8   8   4   4   4
#     4  10  20  36  66  96 114 148 217 260 301 340
#     4  11  20  36  59  81 118 163 197 239 305 387
#     4  11  19  32  51  82 114 149 196 237 290 365
#     4  10  21  41  65  94 118 164 202 259 303 367
#     4  11  18  33  59  95 113 148 201 262 302 356
#     4  10  25  38  56  84 123 172 198 234 326 363
#     4  10  20  38  60  86 124 156 196 240 322 366
#     4  10  21  28  46  76 115 150 180 228 290 349
#
# _framework density 23.766190000000002
#
# number of rings (size 3 to 8) (size 9 to 14) (size 15 to 20)
#    0.000    1.538    4.615    1.385    2.154    0.615 
#    0.000    3.077    3.385    0.000    0.000    0.000 
#    0.000    0.000    0.000    0.000    0.000    0.000 
#
# Total GULP energy -144738.648872 kJ/mol
# GULP energy per Si atom -5566.871110 kJ/mol
# Density = 2.371210 g / cm^3
# Si number density = 23.766190 Si / 1000 Ang^3
#
#
#
# Elastic Constant Matrix: (Units=GPa)
#
#
# Indices 1 2 3 4 5 6 
#
# 1 85.3679 14.4214 43.8419 0.0000 -24.4222 0.0000
# 2 14.4214 36.1720 24.6312 0.0000 -7.3289 0.0000
# 3 43.8419 24.6312 119.8718 0.0000 -16.9180 0.0000
# 4 0.0000 0.0000 0.0000 42.0551 0.0000 -11.3228
# 5 -24.4222 -7.3289 -16.9180 0.0000 52.9527 0.0000
# 6 0.0000 0.0000 0.0000 -11.3228 0.0000 10.6603
#
#
#
# Elastic Compliance Matrix: (Units=1/GPa)
#
#
# Indices 1 2 3 4 5 6 
#
# 1 0.016069 -0.002098 -0.004651 0.000000 0.005635 0.000000
# 2 -0.002098 0.032723 -0.005712 0.000000 0.001737 0.000000
# 3 -0.004651 -0.005712 0.011313 0.000000 0.000679 0.000000
# 4 0.000000 0.000000 0.000000 0.033301 0.000000 0.035371
# 5 0.005635 0.001737 0.000679 0.000000 0.021941 0.000000
# 6 0.000000 0.000000 0.000000 0.035371 0.000000 0.131375
#
#
# Mechanical properties :
#
#
# Convention : Reuss Voigt Hill
#
# Bulk Modulus (GPa) = 28.42172 45.24454 36.83313
# Shear Modulus (GPa) = 17.64475 31.70144 24.67309
#
# Velocity S-wave (km/s) = 2.72771 3.65621 3.22554
# Velocity P-wave (km/s) = 4.68032 6.07474 5.42254
#
# Compressibility (1/GPa) = 0.03518436
#
# Stress axis : x y z
#
# Youngs Moduli (GPa) = 62.23219 30.55932 88.39695
#
# Poissons Ratio (x) = 0.06411 0.41110
# Poissons Ratio (y) = 0.13056 0.50489
# Poissons Ratio (z) = 0.28942 0.17454
#
# Static dielectric constant tensor:
#      x y z
#    x 1.745440 0.000000 0.220130 
#    y 0.000000 1.704770 0.000000 
#    z 0.220130 0.000000 1.679820 
# 
# From -- ./inp_files/48544.got.cif
#   From: 2010.05.17/outbox.cif.g08.bks.cpg/sg15_25_cif.got.tgz:48544.got - 2010.06.03 18:47:42.
