data_PCOD9272590
_publ_section_title
;
Structure prediction by ZEFSAII (Michael W. Deem and Ramdas Pophale) SiO2 
 PCOD9272590
Probable space group: C 2/C
;
_chemical_formula_sum "Si O2"
_cell_formula_units_Z 32
_cell_length_a 12.074700
_cell_length_b 18.278228
_cell_length_c 5.919244
_cell_angle_alpha 90.000000
_cell_angle_beta 74.583981
_cell_angle_gamma 90.000000
_cell_volume 1259.398673
_symmetry_space_group_name_H-M "C 2/C"
_symmetry_group_IT_number 15
_symmetry_cell_setting 'monoclinic'
loop_
_space_group_symop_operation_xyz
x,y,z
-x,y,1/2-z
-x,-y,-z
x,-y,1/2+z
1/2+x,1/2+y,z
1/2-x,1/2+y,1/2-z
1/2-x,1/2-y,-z
1/2+x,1/2-y,1/2+z
loop_
_atom_site_type_symbol
_atom_site_label
_atom_site_fract_x
_atom_site_fract_y
_atom_site_fract_z
Si Si1 0.341127 0.520863 0.963640
Si Si2 0.795703 0.339811 0.842037
Si Si3 0.885384 0.577234 0.915250
Si Si4 0.381123 0.235641 0.701596
O O1 0.392706 0.500371 0.186729
O O2 0.297433 0.605331 0.991654
O O3 0.223797 0.473771 0.035306
O O4 0.886348 0.390899 0.666137
O O5 0.717316 0.295126 0.706006
O O6 0.865273 0.278519 0.942346
O O7 0.868142 0.651402 0.782162
O O8 0.000000 0.543334 0.750000
O O9 0.500000 0.260327 0.750000
#
# Coordination Sequence:
#
# PCOD9272590 Si02
#       4
#     8   8   8   8
#     4  10  20  37  58  90 123 166 200 252 316 379
#     4  10  21  38  60  84 127 162 202 259 311 368
#     4  10  21  36  57  89 123 158 201 250 316 377
#     4  10  21  39  59  89 116 163 212 252 312 367
#
# _framework density 25.408950000000001
#
# number of rings (size 3 to 8) (size 9 to 14) (size 15 to 20)
#    0.000    2.000    2.500    0.750    0.000    8.000 
#    0.000    0.000    0.000    6.000    0.000    0.000 
#    0.000    0.000    0.000    0.000    0.000    0.000 
#
# Total GULP energy -89169.676303 kJ/mol
# GULP energy per Si atom -5573.104769 kJ/mol
# Density = 2.535112 g / cm^3
# Si number density = 25.408950 Si / 1000 Ang^3
#
#
#
# Elastic Constant Matrix: (Units=GPa)
#
#
# Indices 1 2 3 4 5 6 
#
# 1 114.9258 40.8907 70.0129 0.0000 33.2616 0.0000
# 2 40.8907 88.9133 14.0493 0.0000 3.5818 0.0000
# 3 70.0129 14.0493 131.3773 0.0000 7.3449 0.0000
# 4 0.0000 0.0000 0.0000 41.7906 0.0000 25.0977
# 5 33.2616 3.5818 7.3449 0.0000 44.2680 0.0000
# 6 0.0000 0.0000 0.0000 25.0977 0.0000 -5.7763
#
#
#
# Elastic Compliance Matrix: (Units=1/GPa)
#
#
# Indices 1 2 3 4 5 6 
#
# 1 0.021469 -0.007761 -0.009836 0.000000 -0.013871 0.000000
# 2 -0.007761 0.014269 0.002370 0.000000 0.004283 0.000000
# 3 -0.009836 0.002370 0.012312 0.000000 0.005156 0.000000
# 4 0.000000 0.000000 0.000000 0.006630 0.000000 0.028805
# 5 -0.013871 0.004283 0.005156 0.000000 0.031810 0.000000
# 6 0.000000 0.000000 0.000000 0.028805 0.000000 -0.047964
#
#
# Mechanical properties :
#
#
# Convention : Reuss Voigt Hill
#
# Bulk Modulus (GPa) = 56.82608 65.01359 60.91983
# Shear Modulus (GPa) = 66.80681 30.07403 48.44042
#
# Velocity S-wave (km/s) = 5.13320 3.44408 4.37101
# Velocity P-wave (km/s) = 7.58591 6.43879 7.03577
#
# Compressibility (1/GPa) = 0.01759755
#
# Stress axis : x y z
#
# Youngs Moduli (GPa) = 46.57871 70.08275 81.22445
#
# Poissons Ratio (x) = 0.54388 0.79890
# Poissons Ratio (y) = 0.36148 -0.19253
# Poissons Ratio (z) = 0.45814 -0.16612
#
# Static dielectric constant tensor:
#      x y z
#    x 2.010850 0.000000 0.024360 
#    y 0.000000 1.969390 0.000000 
#    z 0.024360 0.000000 2.233570 
# 
# From -- ./inp_files/3665.got.cif
#   From: 2010.05.17/outbox.cif.g08.bks.cpg/sg15_2_cif.got.tgz:3665.got - 2010.06.03 18:47:42.
