data_PCOD9272514
_publ_section_title
;
Structure prediction by ZEFSAII (Michael W. Deem and Ramdas Pophale) SiO2 
 PCOD9272514
Probable space group: C 2/C
;
_chemical_formula_sum "Si O2"
_cell_formula_units_Z 56
_cell_length_a 19.792659
_cell_length_b 19.826113
_cell_length_c 7.242313
_cell_angle_alpha 90.000000
_cell_angle_beta 57.948316
_cell_angle_gamma 90.000000
_cell_volume 2408.765100
_symmetry_space_group_name_H-M "C 2/C"
_symmetry_group_IT_number 15
_symmetry_cell_setting 'monoclinic'
loop_
_space_group_symop_operation_xyz
x,y,z
-x,y,1/2-z
-x,-y,-z
x,-y,1/2+z
1/2+x,1/2+y,z
1/2-x,1/2+y,1/2-z
1/2-x,1/2-y,-z
1/2+x,1/2-y,1/2+z
loop_
_atom_site_type_symbol
_atom_site_label
_atom_site_fract_x
_atom_site_fract_y
_atom_site_fract_z
Si Si1 0.769950 0.404101 0.481385
Si Si2 0.164482 0.699853 0.335663
Si Si3 0.907705 0.071600 0.222355
Si Si4 0.522464 0.876897 0.922122
Si Si5 0.430586 0.586021 0.625379
Si Si6 0.082379 0.516270 0.746449
Si Si7 0.225390 0.154243 0.660583
O O1 0.805616 0.338773 0.527973
O O2 0.683204 0.415572 0.693019
O O3 0.828787 0.466399 0.440075
O O4 0.759251 0.391984 0.277307
O O5 0.070416 0.682201 0.452625
O O6 0.192228 0.776762 0.299487
O O7 0.208136 0.670384 0.088609
O O8 0.917747 0.092044 0.421744
O O9 0.922546 0.991630 0.193945
O O10 0.975917 0.104640 0.994671
O O11 0.500000 0.854937 0.750000
O O12 0.582807 0.942012 0.836222
O O13 0.443528 0.913330 0.116945
O O14 0.354313 0.623691 0.816224
O O15 0.000000 0.506340 0.750000
#
# Coordination Sequence:
#
# PCOD9272514 Si02
#       7
#     8   8   8   8   8   8   8
#     4  11  22  39  65  89 120 160 206 251 310 356
#     4  11  23  41  62  87 123 167 205 242 303 362
#     4   9  20  35  61  89 117 154 194 254 316 351
#     4  10  21  37  60  86 126 156 199 258 298 366
#     4   9  19  39  57  88 123 148 202 253 300 366
#     4  10  20  37  57  93 121 153 201 256 306 360
#     4  10  24  41  59  89 125 161 204 254 290 365
#
# _framework density 23.248427
#
# number of rings (size 3 to 8) (size 9 to 14) (size 15 to 20)
#    0.000    2.000    1.429    1.286    4.000    1.143 
#    0.000   10.000    0.000    0.000    0.000    0.000 
#    0.000    0.000    0.000    0.000    0.000    0.000 
#
# Total GULP energy -156129.800626 kJ/mol
# GULP energy per Si atom -5576.064308 kJ/mol
# Density = 2.319551 g / cm^3
# Si number density = 23.248427 Si / 1000 Ang^3
#
#
#
# Elastic Constant Matrix: (Units=GPa)
#
#
# Indices 1 2 3 4 5 6 
#
# 1 105.7500 7.0383 25.0253 0.0000 -26.9878 0.0000
# 2 7.0383 44.7313 7.1682 0.0000 -12.8648 0.0000
# 3 25.0253 7.1682 55.9023 0.0000 -11.6453 0.0000
# 4 0.0000 0.0000 0.0000 25.1746 0.0000 -2.8136
# 5 -26.9878 -12.8648 -11.6453 0.0000 31.0540 0.0000
# 6 0.0000 0.0000 0.0000 -2.8136 0.0000 31.6103
#
#
#
# Elastic Compliance Matrix: (Units=1/GPa)
#
#
# Indices 1 2 3 4 5 6 
#
# 1 0.012921 0.001585 -0.003809 0.000000 0.010457 0.000000
# 2 0.001585 0.025643 -0.001625 0.000000 0.011391 0.000000
# 3 -0.003809 -0.001625 0.020580 0.000000 0.003734 0.000000
# 4 0.000000 0.000000 0.000000 0.040122 0.000000 0.003571
# 5 0.010457 0.011391 0.003734 0.000000 0.047409 0.000000
# 6 0.000000 0.000000 0.000000 0.003571 0.000000 0.031953
#
#
# Mechanical properties :
#
#
# Convention : Reuss Voigt Hill
#
# Bulk Modulus (GPa) = 19.43793 31.64969 25.54381
# Shear Modulus (GPa) = 24.57321 28.71123 26.64222
#
# Velocity S-wave (km/s) = 3.25466 3.51803 3.38890
# Velocity P-wave (km/s) = 4.74371 5.49048 5.13070
#
# Compressibility (1/GPa) = 0.05144582
#
# Stress axis : x y z
#
# Youngs Moduli (GPa) = 77.39416 38.99732 48.59157
#
# Poissons Ratio (x) = -0.06180 0.18509
# Poissons Ratio (y) = -0.12266 0.07894
# Poissons Ratio (z) = 0.29479 0.06336
#
# Static dielectric constant tensor:
#      x y z
#    x 1.940570 0.000000 0.063830 
#    y 0.000000 1.844330 0.000000 
#    z 0.063830 0.000000 2.028350 
# 
# From -- ./inp_files/57800.got.cif
#   From: 2010.05.17/outbox.cif.g08.bks.cpg/sg15_29_cif.got.tgz:57800.got - 2010.06.03 18:47:42.
