data_PCOD9272874
_publ_section_title
;
Structure prediction by ZEFSAII (Michael W. Deem and Ramdas Pophale) SiO2 
 PCOD9272874
Probable space group: C 2/C
;
_chemical_formula_sum "Si O2"
_cell_formula_units_Z 56
_cell_length_a 18.123295
_cell_length_b 30.558521
_cell_length_c 7.678029
_cell_angle_alpha 90.000000
_cell_angle_beta 144.804739
_cell_angle_gamma 90.000000
_cell_volume 2450.849445
_symmetry_space_group_name_H-M "C 2/C"
_symmetry_group_IT_number 15
_symmetry_cell_setting 'monoclinic'
loop_
_space_group_symop_operation_xyz
x,y,z
-x,y,1/2-z
-x,-y,-z
x,-y,1/2+z
1/2+x,1/2+y,z
1/2-x,1/2+y,1/2-z
1/2-x,1/2-y,-z
1/2+x,1/2-y,1/2+z
loop_
_atom_site_type_symbol
_atom_site_label
_atom_site_fract_x
_atom_site_fract_y
_atom_site_fract_z
Si Si1 0.746683 0.100304 0.508142
Si Si2 0.489264 0.449212 0.437212
Si Si3 0.691404 0.695357 0.774286
Si Si4 0.295952 0.380690 0.687730
Si Si5 0.482003 0.893408 0.407381
Si Si6 0.406976 0.710657 0.301263
Si Si7 0.473988 0.799994 0.891363
O O1 0.774582 0.144132 0.668253
O O2 0.770712 0.111072 0.346365
O O3 0.853498 0.065115 0.753163
O O4 0.598438 0.087797 0.244191
O O5 0.500000 0.447400 0.250000
O O6 0.500000 0.500000 0.500000
O O7 0.592613 0.411055 0.678688
O O8 0.556425 0.696908 0.614739
O O9 0.647175 0.712506 0.500173
O O10 0.825053 0.714663 0.107184
O O11 0.166750 0.394598 0.338699
O O12 0.327972 0.328969 0.733934
O O13 0.500000 0.912835 0.250000
O O14 0.511096 0.841152 0.456332
O O15 0.423066 0.761264 0.387550
O O16 0.500000 0.818068 0.750000
#
# Coordination Sequence:
#
# PCOD9272874 Si02
#       7
#     8   8   8   8   8   8   8
#     4   9  19  39  61  82 113 150 186 232 287 337
#     4  10  21  37  60  88 115 143 180 226 279 339
#     4  10  22  38  54  78 112 149 194 240 284 333
#     4  10  20  37  61  85 110 149 190 229 282 343
#     4   9  20  38  59  82 112 150 192 236 282 333
#     4  11  23  36  55  82 111 150 196 241 285 331
#     4  11  24  37  52  78 115 156 193 241 284 333
#
# _framework density 22.849222000000001
#
# number of rings (size 3 to 8) (size 9 to 14) (size 15 to 20)
#    0.000    2.000    1.429    1.286    4.000    3.429 
#    0.000    0.714    0.000    0.000    0.000    0.000 
#    0.000    0.000    0.000    0.000    0.000    0.000 
#
# Total GULP energy -156093.871305 kJ/mol
# GULP energy per Si atom -5574.781118 kJ/mol
# Density = 2.279722 g / cm^3
# Si number density = 22.849222 Si / 1000 Ang^3
#
#
#
# Elastic Constant Matrix: (Units=GPa)
#
#
# Indices 1 2 3 4 5 6 
#
# 1 34.0828 4.4793 18.9471 0.0000 14.5820 0.0000
# 2 4.4793 80.4164 45.6243 0.0000 21.0787 0.0000
# 3 18.9471 45.6243 124.8226 0.0000 35.7406 0.0000
# 4 0.0000 0.0000 0.0000 16.6635 0.0000 -4.3662
# 5 14.5820 21.0787 35.7406 0.0000 40.3354 0.0000
# 6 0.0000 0.0000 0.0000 -4.3662 0.0000 14.6608
#
#
#
# Elastic Compliance Matrix: (Units=1/GPa)
#
#
# Indices 1 2 3 4 5 6 
#
# 1 0.035671 0.002828 -0.003126 0.000000 -0.011604 0.000000
# 2 0.002828 0.016456 -0.004943 0.000000 -0.005242 0.000000
# 3 -0.003126 -0.004943 0.012367 0.000000 -0.007245 0.000000
# 4 0.000000 0.000000 0.000000 0.065091 0.000000 0.019385
# 5 -0.011604 -0.005242 -0.007245 0.000000 0.038146 0.000000
# 6 0.000000 0.000000 0.000000 0.019385 0.000000 0.073982
#
#
# Mechanical properties :
#
#
# Convention : Reuss Voigt Hill
#
# Bulk Modulus (GPa) = 18.51419 41.93590 30.22504
# Shear Modulus (GPa) = 18.50481 25.68333 22.09407
#
# Velocity S-wave (km/s) = 2.84890 3.35630 3.11296
# Velocity P-wave (km/s) = 4.35224 5.78038 5.11639
#
# Compressibility (1/GPa) = 0.05401264
#
# Stress axis : x y z
#
# Youngs Moduli (GPa) = 28.03400 60.76668 80.85932
#
# Poissons Ratio (x) = -0.17185 0.25274
# Poissons Ratio (y) = -0.07928 0.39972
# Poissons Ratio (z) = 0.08763 0.30039
#
# Static dielectric constant tensor:
#      x y z
#    x 1.916530 0.000000 0.021810 
#    y 0.000000 1.878140 0.000000 
#    z 0.021810 0.000000 1.925070 
# 
# From -- ./inp_files/59377.got.cif
#   From: 2010.05.17/outbox.cif.g08.bks.cpg/sg15_30_cif.got.tgz:59377.got - 2010.06.03 18:47:42.
