data_PCOD9272238
_publ_section_title
;
Structure prediction by ZEFSAII (Michael W. Deem and Ramdas Pophale) SiO2 
 PCOD9272238
Probable space group: C 2/C
;
_chemical_formula_sum "Si O2"
_cell_formula_units_Z 36
_cell_length_a 9.538952
_cell_length_b 8.502100
_cell_length_c 26.104460
_cell_angle_alpha 90.000000
_cell_angle_beta 48.589331
_cell_angle_gamma 90.000000
_cell_volume 1587.800195
_symmetry_space_group_name_H-M "C 2/C"
_symmetry_group_IT_number 15
_symmetry_cell_setting 'monoclinic'
loop_
_space_group_symop_operation_xyz
x,y,z
-x,y,1/2-z
-x,-y,-z
x,-y,1/2+z
1/2+x,1/2+y,z
1/2-x,1/2+y,1/2-z
1/2-x,1/2-y,-z
1/2+x,1/2-y,1/2+z
loop_
_atom_site_type_symbol
_atom_site_label
_atom_site_fract_x
_atom_site_fract_y
_atom_site_fract_z
Si Si1 0.221557 0.580306 0.532686
Si Si2 0.500000 0.504577 0.250000
Si Si3 0.324036 0.836534 0.142181
Si Si4 0.181456 0.313912 0.234537
Si Si5 0.592837 0.526582 0.903899
O O1 0.250000 0.750000 0.500000
O O2 0.289875 0.586184 0.575210
O O3 0.371585 0.466152 0.469673
O O4 0.998994 0.556130 0.582558
O O5 0.618240 0.403235 0.181180
O O6 0.649396 0.627646 0.236321
O O7 0.322453 0.837351 0.204396
O O8 0.355442 0.658089 0.116218
O O9 0.348657 0.376976 0.159911
O O10 0.000000 0.388274 0.250000
#
# Coordination Sequence:
#
# PCOD9272238 Si02
#       5
#     8   4   8   8   8
#     4   9  19  37  61  94 126 161 211 260 305 376
#     4  10  24  34  56  90 122 154 200 254 306 362
#     4  11  21  38  61  90 124 162 210 261 314 374
#     4  10  21  38  57  87 125 160 206 264 315 364
#     4  10  20  36  66  90 120 171 209 250 322 374
#
# _framework density 22.672877
#
# number of rings (size 3 to 8) (size 9 to 14) (size 15 to 20)
#    0.667    1.333    2.222    1.333    1.556    1.778 
#    0.000    1.111    0.000   54.667    0.000    0.000 
#    0.000    0.000    0.000    0.000    0.000    0.000 
#
# Total GULP energy -100374.568310 kJ/mol
# GULP energy per Si atom -5576.364906 kJ/mol
# Density = 2.262127 g / cm^3
# Si number density = 22.672877 Si / 1000 Ang^3
#
#
#
# Elastic Constant Matrix: (Units=GPa)
#
#
# Indices 1 2 3 4 5 6 
#
# 1 91.3275 32.0463 54.4356 0.0000 0.4188 0.0000
# 2 32.0463 70.4307 41.1425 0.0000 -15.6908 0.0000
# 3 54.4356 41.1425 159.3394 0.0000 -26.2109 0.0000
# 4 0.0000 0.0000 0.0000 38.1051 0.0000 -8.5858
# 5 0.4188 -15.6908 -26.2109 0.0000 44.3407 0.0000
# 6 0.0000 0.0000 0.0000 -8.5858 0.0000 13.9132
#
#
#
# Elastic Compliance Matrix: (Units=1/GPa)
#
#
# Indices 1 2 3 4 5 6 
#
# 1 0.015733 -0.005464 -0.004770 0.000000 -0.004902 0.000000
# 2 -0.005464 0.019193 -0.002175 0.000000 0.005558 0.000000
# 3 -0.004770 -0.002175 0.009247 0.000000 0.004742 0.000000
# 4 0.000000 0.000000 0.000000 0.030482 0.000000 0.018810
# 5 -0.004902 0.005558 0.004742 0.000000 0.027369 0.000000
# 6 0.000000 0.000000 0.000000 0.018810 0.000000 0.083482
#
#
# Mechanical properties :
#
#
# Convention : Reuss Voigt Hill
#
# Bulk Modulus (GPa) = 51.66700 64.03848 57.85274
# Shear Modulus (GPa) = 23.06542 32.17000 27.61771
#
# Velocity S-wave (km/s) = 3.19299 3.77088 3.49391
# Velocity P-wave (km/s) = 6.03582 6.87497 6.46902
#
# Compressibility (1/GPa) = 0.01935471
#
# Stress axis : x y z
#
# Youngs Moduli (GPa) = 63.56189 52.10200 108.14094
#
# Poissons Ratio (x) = 0.28468 0.51587
# Poissons Ratio (y) = 0.34730 0.23520
# Poissons Ratio (z) = 0.30321 0.11332
#
# Static dielectric constant tensor:
#      x y z
#    x 1.939170 0.000000 -0.070200 
#    y 0.000000 1.844730 0.000000 
#    z -0.070200 0.000000 1.870200 
# 
# From -- ./inp_files/235682.got.cif
#   From: 2010.05.17/outbox.cif.g08.bks.cpg/sg15_118_cif.got.tgz:235682.got - 2010.06.03 18:47:42.
