data_PCOD9272007
_publ_section_title
;
Structure prediction by ZEFSAII (Michael W. Deem and Ramdas Pophale) SiO2 
 PCOD9272007
Probable space group: C 2/C
;
_chemical_formula_sum "Si O2"
_cell_formula_units_Z 48
_cell_length_a 28.940531
_cell_length_b 9.071551
_cell_length_c 16.107535
_cell_angle_alpha 90.000000
_cell_angle_beta 146.401827
_cell_angle_gamma 90.000000
_cell_volume 2340.069758
_symmetry_space_group_name_H-M "C 2/C"
_symmetry_group_IT_number 15
_symmetry_cell_setting 'monoclinic'
loop_
_space_group_symop_operation_xyz
x,y,z
-x,y,1/2-z
-x,-y,-z
x,-y,1/2+z
1/2+x,1/2+y,z
1/2-x,1/2+y,1/2-z
1/2-x,1/2-y,-z
1/2+x,1/2-y,1/2+z
loop_
_atom_site_type_symbol
_atom_site_label
_atom_site_fract_x
_atom_site_fract_y
_atom_site_fract_z
Si Si1 0.849722 0.641965 0.223215
Si Si2 0.042567 0.223656 0.399817
Si Si3 0.680276 0.176519 0.501709
Si Si4 0.486446 0.675904 0.488175
Si Si5 0.315810 0.956009 0.840110
Si Si6 0.120266 0.101174 0.021644
O O1 0.771459 0.751637 0.123916
O O2 0.844047 0.518776 0.286524
O O3 0.932046 0.738740 0.357948
O O4 0.843094 0.594289 0.117929
O O5 0.123190 0.323688 0.540456
O O6 0.000000 0.265799 0.250000
O O7 0.978383 0.233064 0.381529
O O8 0.075702 0.055780 0.445391
O O9 0.617857 0.309932 0.431450
O O10 0.677821 0.078422 0.579973
O O11 0.500000 0.500000 0.500000
O O12 0.418474 0.687780 0.458399
O O13 0.217987 0.919119 0.688152
#
# Coordination Sequence:
#
# PCOD9272007 Si02
#       6
#     8   8   8   8   8   8
#     4   9  20  37  59  88 121 160 197 252 300 359
#     4  10  22  40  59  87 125 159 196 256 310 356
#     4  10  20  36  63  87 116 161 209 242 296 367
#     4   9  18  34  58  83 116 149 196 251 301 343
#     4  10  20  42  59  85 127 160 190 249 319 358
#     4  10  20  36  65  87 113 157 214 248 291 366
#
# _framework density 20.51221
#
# number of rings (size 3 to 8) (size 9 to 14) (size 15 to 20)
#    0.000    2.333    0.000    4.000    4.667    0.000 
#    9.000    2.500    0.000    0.000    0.000    0.000 
#    0.000    0.000    0.000    0.000    0.000    0.000 
#
# Total GULP energy -133805.517647 kJ/mol
# GULP energy per Si atom -5575.229902 kJ/mol
# Density = 2.046552 g / cm^3
# Si number density = 20.512210 Si / 1000 Ang^3
#
#
#
# Elastic Constant Matrix: (Units=GPa)
#
#
# Indices 1 2 3 4 5 6 
#
# 1 110.9474 21.3161 33.3758 0.0000 -20.6971 0.0000
# 2 21.3161 26.7444 -3.4662 0.0000 -10.2886 0.0000
# 3 33.3758 -3.4662 62.5308 0.0000 -26.5947 0.0000
# 4 0.0000 0.0000 0.0000 18.6574 0.0000 -10.1138
# 5 -20.6971 -10.2886 -26.5947 0.0000 43.6091 0.0000
# 6 0.0000 0.0000 0.0000 -10.1138 0.0000 26.8520
#
#
#
# Elastic Compliance Matrix: (Units=1/GPa)
#
#
# Indices 1 2 3 4 5 6 
#
# 1 0.013812 -0.012900 -0.008903 0.000000 -0.001918 0.000000
# 2 -0.012900 0.056956 0.017760 0.000000 0.018146 0.000000
# 3 -0.008903 0.017760 0.029318 0.000000 0.017844 0.000000
# 4 0.000000 0.000000 0.000000 0.067349 0.000000 0.025367
# 5 -0.001918 0.018146 0.017844 0.000000 0.037184 0.000000
# 6 0.000000 0.000000 0.000000 0.025367 0.000000 0.046796
#
#
# Mechanical properties :
#
#
# Convention : Reuss Voigt Hill
#
# Bulk Modulus (GPa) = 10.86963 33.63043 22.25003
# Shear Modulus (GPa) = 17.23144 27.75683 22.49413
#
# Velocity S-wave (km/s) = 2.90152 3.68256 3.31512
# Velocity P-wave (km/s) = 4.06641 5.87474 5.05214
#
# Compressibility (1/GPa) = 0.09199945
#
# Stress axis : x y z
#
# Youngs Moduli (GPa) = 72.39907 17.55751 34.10908
#
# Poissons Ratio (x) = 0.22650 0.30367
# Poissons Ratio (y) = 0.93398 -0.60579
# Poissons Ratio (z) = 0.64457 -0.31183
#
# Static dielectric constant tensor:
#      x y z
#    x 1.771950 0.000000 -0.025780 
#    y 0.000000 1.775280 0.000000 
#    z -0.025780 0.000000 1.721280 
# 
# From -- ./inp_files/177017.got.cif
#   From: 2010.05.17/outbox.cif.g08.bks.cpg/sg15_89_cif.got.tgz:177017.got - 2010.06.03 18:47:42.
