data_PCOD9272543
_publ_section_title
;
Structure prediction by ZEFSAII (Michael W. Deem and Ramdas Pophale) SiO2 
 PCOD9272543
Probable space group: C 2/C
;
_chemical_formula_sum "Si O2"
_cell_formula_units_Z 56
_cell_length_a 10.910192
_cell_length_b 20.383075
_cell_length_c 23.678851
_cell_angle_alpha 90.000000
_cell_angle_beta 34.156856
_cell_angle_gamma 90.000000
_cell_volume 2956.527134
_symmetry_space_group_name_H-M "C 2/C"
_symmetry_group_IT_number 15
_symmetry_cell_setting 'monoclinic'
loop_
_space_group_symop_operation_xyz
x,y,z
-x,y,1/2-z
-x,-y,-z
x,-y,1/2+z
1/2+x,1/2+y,z
1/2-x,1/2+y,1/2-z
1/2-x,1/2-y,-z
1/2+x,1/2-y,1/2+z
loop_
_atom_site_type_symbol
_atom_site_label
_atom_site_fract_x
_atom_site_fract_y
_atom_site_fract_z
Si Si1 0.674727 0.545881 0.143785
Si Si2 0.247937 0.805529 0.856150
Si Si3 0.420633 0.163130 0.600169
Si Si4 0.426017 0.321971 0.877787
Si Si5 0.848947 0.426047 0.020700
Si Si6 0.875908 0.816163 0.468663
Si Si7 0.622372 0.814034 0.257574
O O1 0.500000 0.511769 0.250000
O O2 0.572582 0.613290 0.160608
O O3 0.738700 0.496695 0.069293
O O4 0.898093 0.563155 0.091060
O O5 0.500000 0.823751 0.750000
O O6 0.224969 0.726488 0.859122
O O7 0.086603 0.831557 0.869352
O O8 0.161265 0.825393 0.950566
O O9 0.673022 0.184179 0.493185
O O10 0.362048 0.106545 0.578337
O O11 0.392967 0.148001 0.676919
O O12 0.509487 0.256523 0.814409
O O13 0.726605 0.376542 0.026561
O O14 0.750000 0.750000 0.500000
O O15 0.126612 0.806447 0.355651
O O16 0.500000 0.843444 0.250000
#
# Coordination Sequence:
#
# PCOD9272543 Si02
#       7
#     8   8   8   8   8   8   8
#     4  10  23  40  66  82 119 162 209 250 286 363
#     4  11  22  35  56  89 120 157 189 246 307 355
#     4  10  20  37  58  83 129 151 194 248 298 362
#     4  10  21  38  58  84 119 163 206 237 296 354
#     4  10  24  40  60  97 117 159 203 251 305 346
#     4  12  23  36  60  91 130 150 198 254 306 370
#     4  11  22  33  59  90 121 163 194 241 307 363
#
# _framework density 18.941140999999998
#
# number of rings (size 3 to 8) (size 9 to 14) (size 15 to 20)
#    0.000    1.429    1.429    5.571    8.000    0.000 
#    0.000    0.714    0.000    0.857    0.000    0.000 
#    0.000    0.000    0.000    0.000    0.000    0.000 
#
# Total GULP energy -156388.615860 kJ/mol
# GULP energy per Si atom -5585.307709 kJ/mol
# Density = 1.889803 g / cm^3
# Si number density = 18.941141 Si / 1000 Ang^3
#
#
#
# Elastic Constant Matrix: (Units=GPa)
#
#
# Indices 1 2 3 4 5 6 
#
# 1 82.2794 0.0616 38.3867 0.0159 12.6160 0.0217
# 2 0.0616 31.3645 -3.4722 0.0100 -3.1039 0.0092
# 3 38.3867 -3.4722 129.7558 0.0136 -1.6171 -0.0011
# 4 0.0159 0.0100 0.0136 16.6742 -0.0088 -6.4079
# 5 12.6160 -3.1039 -1.6171 -0.0088 33.9816 -0.0050
# 6 0.0217 0.0092 -0.0011 -6.4079 -0.0050 18.8478
#
#
#
# Elastic Compliance Matrix: (Units=1/GPa)
#
#
# Indices 1 2 3 4 5 6 
#
# 1 0.015220 -0.001131 -0.004607 -0.000023 -0.005973 -0.000027
# 2 -0.001131 0.032363 0.001243 -0.000026 0.003435 -0.000022
# 3 -0.004607 0.001243 0.009131 0.000000 0.002259 0.000006
# 4 -0.000023 -0.000026 0.000000 0.068986 0.000028 0.023454
# 5 -0.005973 0.003435 0.002259 0.000028 0.032067 0.000023
# 6 -0.000027 -0.000022 0.000006 0.023454 0.000023 0.061031
#
#
# Mechanical properties :
#
#
# Convention : Reuss Voigt Hill
#
# Bulk Modulus (GPa) = 20.95368 34.81686 27.88527
# Shear Modulus (GPa) = 20.51739 27.79564 24.15651
#
# Velocity S-wave (km/s) = 3.29480 3.83492 3.57507
# Velocity P-wave (km/s) = 5.05577 6.16687 5.63875
#
# Compressibility (1/GPa) = 0.04772432
#
# Stress axis : x y z
#
# Youngs Moduli (GPa) = 65.70325 30.89948 109.51423
#
# Poissons Ratio (x) = 0.03495 0.50457
# Poissons Ratio (y) = 0.07431 -0.13618
# Poissons Ratio (z) = 0.30272 -0.03842
#
# Static dielectric constant tensor:
#      x y z
#    x 1.669700 -0.000010 0.001680 
#    y -0.000010 1.650810 0.000020 
#    z 0.001680 0.000020 1.704680 
# 
# From -- ./inp_files/270919.got.cif
#   From: 2010.05.17/outbox.cif.g08.bks.cpg/sg15_136_cif.got.tgz:270919.got - 2010.06.03 18:47:42.
