data_PCOD9272565
_publ_section_title
;
Structure prediction by ZEFSAII (Michael W. Deem and Ramdas Pophale) SiO2 
 PCOD9272565
Probable space group: C 2/C
;
_chemical_formula_sum "Si O2"
_cell_formula_units_Z 40
_cell_length_a 13.165667
_cell_length_b 27.595913
_cell_length_c 5.492656
_cell_angle_alpha 90.000000
_cell_angle_beta 125.776379
_cell_angle_gamma 90.000000
_cell_volume 1619.027168
_symmetry_space_group_name_H-M "C 2/C"
_symmetry_group_IT_number 15
_symmetry_cell_setting 'monoclinic'
loop_
_space_group_symop_operation_xyz
x,y,z
-x,y,1/2-z
-x,-y,-z
x,-y,1/2+z
1/2+x,1/2+y,z
1/2-x,1/2+y,1/2-z
1/2-x,1/2-y,-z
1/2+x,1/2-y,1/2+z
loop_
_atom_site_type_symbol
_atom_site_label
_atom_site_fract_x
_atom_site_fract_y
_atom_site_fract_z
Si Si1 0.500000 0.962608 0.250000
Si Si2 0.500000 0.903431 0.750000
Si Si3 0.773411 0.369702 0.155638
Si Si4 0.393757 0.694803 0.777609
Si Si5 0.177044 0.283898 0.592429
Si Si6 0.723107 0.521826 0.411439
O O1 0.511571 0.930658 0.507958
O O2 0.629119 0.991737 0.407378
O O3 0.368045 0.877225 0.514327
O O4 0.650323 0.341522 0.074987
O O5 0.731593 0.420771 0.979846
O O6 0.848194 0.334013 0.079135
O O7 0.500000 0.675733 0.750000
O O8 0.274302 0.703155 0.439768
O O9 0.424914 0.748279 0.928639
O O10 0.250000 0.250000 0.500000
O O11 0.669401 0.505485 0.074597
#
# Coordination Sequence:
#
# PCOD9272565 Si02
#       6
#     4   4   8   8   8   8
#     4  10  20  37  58  86 134 180 224 268 328 387
#     4  10  22  37  60 100 134 176 218 270 324 399
#     4  10  23  40  63  94 133 178 219 269 335 398
#     4  10  22  44  68  95 125 169 221 274 330 400
#     4   9  21  43  62  94 125 161 215 272 330 395
#     4  11  22  36  60  93 135 177 223 274 324 393
#
# _framework density 24.706195000000001
#
# number of rings (size 3 to 8) (size 9 to 14) (size 15 to 20)
#    0.000    2.000    0.000    3.000    8.400    4.000 
#   19.800    0.000    2.200    1.200    0.000    0.000 
#    0.000    0.000    0.000    0.000    0.000    0.000 
#
# Total GULP energy -111742.285026 kJ/mol
# GULP energy per Si atom -5587.114251 kJ/mol
# Density = 2.464996 g / cm^3
# Si number density = 24.706195 Si / 1000 Ang^3
#
#
#
# Elastic Constant Matrix: (Units=GPa)
#
#
# Indices 1 2 3 4 5 6 
#
# 1 92.7734 46.3796 14.3482 0.0000 -28.9983 0.0000
# 2 46.3796 132.8848 38.3452 0.0000 -32.7724 0.0000
# 3 14.3482 38.3452 121.6836 0.0000 -39.6647 0.0000
# 4 0.0000 0.0000 0.0000 39.5118 0.0000 -15.8882
# 5 -28.9983 -32.7724 -39.6647 0.0000 40.9813 0.0000
# 6 0.0000 0.0000 0.0000 -15.8882 0.0000 25.1665
#
#
#
# Elastic Compliance Matrix: (Units=1/GPa)
#
#
# Indices 1 2 3 4 5 6 
#
# 1 0.015518 -0.003550 0.002838 0.000000 0.010889 0.000000
# 2 -0.003550 0.010233 -0.001399 0.000000 0.004317 0.000000
# 3 0.002838 -0.001399 0.012585 0.000000 0.013070 0.000000
# 4 0.000000 0.000000 0.000000 0.033920 0.000000 0.021414
# 5 0.010889 0.004317 0.013070 0.000000 0.048209 0.000000
# 6 0.000000 0.000000 0.000000 0.021414 0.000000 0.053255
#
#
# Mechanical properties :
#
#
# Convention : Reuss Voigt Hill
#
# Bulk Modulus (GPa) = 29.31246 60.60976 44.96111
# Shear Modulus (GPa) = 26.41155 37.68317 32.04736
#
# Velocity S-wave (km/s) = 3.27314 3.90968 3.60549
# Velocity P-wave (km/s) = 5.11613 6.70569 5.96411
#
# Compressibility (1/GPa) = 0.03411518
#
# Stress axis : x y z
#
# Youngs Moduli (GPa) = 64.44057 97.72682 79.46272
#
# Poissons Ratio (x) = 0.34690 -0.22553
# Poissons Ratio (y) = 0.22874 0.11114
# Poissons Ratio (z) = -0.18290 0.13668
#
# Static dielectric constant tensor:
#      x y z
#    x 1.990860 0.000000 -0.000850 
#    y 0.000000 2.030620 0.000000 
#    z -0.000850 0.000000 1.983150 
# 
# From -- ./inp_files/8153.got.cif
#   From: 2010.05.17/outbox.cif.g08.bks.cpg/sg15_5_cif.got.tgz:8153.got - 2010.06.03 18:47:42.
