data_PCOD9272693
_publ_section_title
;
Structure prediction by ZEFSAII (Michael W. Deem and Ramdas Pophale) SiO2 
 PCOD9272693
Probable space group: C 2/C
;
_chemical_formula_sum "Si O2"
_cell_formula_units_Z 64
_cell_length_a 11.202281
_cell_length_b 15.888153
_cell_length_c 25.213749
_cell_angle_alpha 90.000000
_cell_angle_beta 34.524347
_cell_angle_gamma 90.000000
_cell_volume 2543.394473
_symmetry_space_group_name_H-M "C 2/C"
_symmetry_group_IT_number 15
_symmetry_cell_setting 'monoclinic'
loop_
_space_group_symop_operation_xyz
x,y,z
-x,y,1/2-z
-x,-y,-z
x,-y,1/2+z
1/2+x,1/2+y,z
1/2-x,1/2+y,1/2-z
1/2-x,1/2-y,-z
1/2+x,1/2-y,1/2+z
loop_
_atom_site_type_symbol
_atom_site_label
_atom_site_fract_x
_atom_site_fract_y
_atom_site_fract_z
Si Si1 0.005618 0.205493 0.691973
Si Si2 0.895395 0.337629 0.991297
Si Si3 0.409575 0.404370 0.682271
Si Si4 0.001451 0.521360 0.134561
Si Si5 0.154551 0.176955 0.904684
Si Si6 0.605469 0.930245 0.999843
Si Si7 0.089154 0.280455 0.286263
Si Si8 0.772489 0.118706 0.110338
O O1 0.152191 0.159429 0.596002
O O2 0.127838 0.296769 0.653730
O O3 0.000000 0.159653 0.750000
O O4 0.760927 0.212309 0.768911
O O5 0.939950 0.402965 0.928155
O O6 0.000591 0.249987 0.937721
O O7 0.014472 0.349438 0.004224
O O8 0.242959 0.471013 0.764203
O O9 0.646150 0.435708 0.595670
O O10 0.403171 0.321829 0.722668
O O11 0.338822 0.385148 0.647434
O O12 0.133927 0.541115 0.138731
O O13 0.048668 0.440859 0.081820
O O14 0.300816 0.162663 0.799662
O O15 0.341069 0.200483 0.878146
O O16 0.984410 0.120163 0.997040
O O17 0.500000 0.000000 0.000000
#
# Coordination Sequence:
#
# PCOD9272693 Si02
#       8
#     8   8   8   8   8   8   8   8
#     4  11  20  35  57  95 132 164 197 252 327 391
#     4  10  20  37  59  92 127 158 204 266 322 377
#     4  12  22  40  68  90 125 168 222 263 317 395
#     4  11  22  42  66  89 124 166 224 267 311 379
#     4  10  21  34  62  93 130 163 205 259 321 390
#     4  10  25  42  62  93 119 164 224 278 319 368
#     4  11  20  35  61  95 125 172 206 245 319 399
#     4  11  22  38  64  96 126 166 214 266 319 391
#
# _framework density 25.163222000000001
#
# number of rings (size 3 to 8) (size 9 to 14) (size 15 to 20)
#    0.000    1.250    5.000    1.125    0.000    6.000 
#    4.500    0.000    5.500    0.000    0.000    0.000 
#    0.000    0.000    0.000    0.000    0.000    0.000 
#
# Total GULP energy -178674.508353 kJ/mol
# GULP energy per Si atom -5583.578386 kJ/mol
# Density = 2.510595 g / cm^3
# Si number density = 25.163222 Si / 1000 Ang^3
#
#
#
# Elastic Constant Matrix: (Units=GPa)
#
#
# Indices 1 2 3 4 5 6 
#
# 1 133.5763 19.2312 47.1678 0.0011 -15.5782 0.0003
# 2 19.2312 17.1505 23.2793 0.0012 4.0372 0.0005
# 3 47.1678 23.2793 138.0624 0.0036 -28.6542 0.0030
# 4 0.0011 0.0012 0.0036 26.5587 -0.0024 3.5175
# 5 -15.5782 4.0372 -28.6542 -0.0024 47.1636 -0.0003
# 6 0.0003 0.0005 0.0030 3.5175 -0.0003 18.9735
#
#
#
# Elastic Compliance Matrix: (Units=1/GPa)
#
#
# Indices 1 2 3 4 5 6 
#
# 1 0.009729 -0.010766 -0.000744 0.000000 0.003683 0.000000
# 2 -0.010766 0.100277 -0.018022 -0.000004 -0.023089 0.000001
# 3 -0.000744 -0.018022 0.012364 0.000000 0.008809 -0.000001
# 4 0.000000 -0.000004 0.000000 0.038600 0.000002 -0.007156
# 5 0.003683 -0.023089 0.008809 0.000002 0.029747 -0.000001
# 6 0.000000 0.000001 -0.000001 -0.007156 -0.000001 0.054032
#
#
# Mechanical properties :
#
#
# Convention : Reuss Voigt Hill
#
# Bulk Modulus (GPa) = 15.79635 52.01621 33.90628
# Shear Modulus (GPa) = 15.38864 31.81321 23.60092
#
# Velocity S-wave (km/s) = 2.47564 3.55952 3.06586
# Velocity P-wave (km/s) = 3.80301 6.13270 5.10259
#
# Compressibility (1/GPa) = 0.06330575
#
# Stress axis : x y z
#
# Youngs Moduli (GPa) = 102.78985 9.97239 80.87801
#
# Poissons Ratio (x) = 0.10736 0.06018
# Poissons Ratio (y) = 1.10663 1.45759
# Poissons Ratio (z) = 0.07648 0.17972
#
# Static dielectric constant tensor:
#      x y z
#    x 2.052120 0.000000 0.047170 
#    y 0.000000 2.203370 0.000000 
#    z 0.047170 0.000000 1.972170 
# 
# From -- ./inp_files/293753.got.cif
#   From: 2010.05.17/outbox.cif.g08.bks.cpg/sg15_147_cif.got.tgz:293753.got - 2010.06.03 18:47:42.
