data_PCOD9272532
_publ_section_title
;
Structure prediction by ZEFSAII (Michael W. Deem and Ramdas Pophale) SiO2 
 PCOD9272532
Probable space group: C 2/C
;
_chemical_formula_sum "Si O2"
_cell_formula_units_Z 40
_cell_length_a 16.171315
_cell_length_b 23.892449
_cell_length_c 10.969406
_cell_angle_alpha 90.000000
_cell_angle_beta 31.288476
_cell_angle_gamma 90.000000
_cell_volume 2201.136348
_symmetry_space_group_name_H-M "C 2/C"
_symmetry_group_IT_number 15
_symmetry_cell_setting 'monoclinic'
loop_
_space_group_symop_operation_xyz
x,y,z
-x,y,1/2-z
-x,-y,-z
x,-y,1/2+z
1/2+x,1/2+y,z
1/2-x,1/2+y,1/2-z
1/2-x,1/2-y,-z
1/2+x,1/2-y,1/2+z
loop_
_atom_site_type_symbol
_atom_site_label
_atom_site_fract_x
_atom_site_fract_y
_atom_site_fract_z
Si Si1 0.500000 0.224015 0.750000
Si Si2 0.018180 0.117674 0.862093
Si Si3 0.500000 0.589624 0.250000
Si Si4 0.181692 0.544735 0.012864
Si Si5 0.160661 0.179330 0.201361
Si Si6 0.811030 0.004738 0.108222
O O1 0.652341 0.189182 0.511117
O O2 0.421990 0.264752 0.747093
O O3 0.198797 0.097111 0.651269
O O4 0.000000 0.141924 0.750000
O O5 0.083543 0.060012 0.508012
O O6 0.941895 0.158448 0.055795
O O7 0.634246 0.630372 0.134787
O O8 0.426239 0.548468 0.443267
O O9 0.224413 0.513531 0.086714
O O10 0.000000 0.562390 0.250000
O O11 0.209645 0.506628 0.857317
#
# Coordination Sequence:
#
# PCOD9272532 Si02
#       6
#     4   8   4   8   8   8
#     4   9  22  42  62  88 108 136 204 261 282 344
#     4  10  20  37  58  81 121 157 187 232 292 357
#     4  11  18  34  64  82 118 162 188 223 294 350
#     4  11  21  34  51  81 122 164 199 236 269 338
#     4  10  20  40  63  85 111 149 191 247 300 332
#     4  11  20  37  54  83 127 163 195 228 279 361
#
# _framework density 18.172432000000001
#
# number of rings (size 3 to 8) (size 9 to 14) (size 15 to 20)
#    0.000    1.600    5.000    2.400    0.000    0.000 
#   14.400    1.000    0.000    0.000    0.000    0.000 
#    0.000    0.000    0.000    0.000    0.000    0.000 
#
# Total GULP energy -111562.560959 kJ/mol
# GULP energy per Si atom -5578.128048 kJ/mol
# Density = 1.813107 g / cm^3
# Si number density = 18.172432 Si / 1000 Ang^3
#
#
#
# Elastic Constant Matrix: (Units=GPa)
#
#
# Indices 1 2 3 4 5 6 
#
# 1 86.7570 22.9546 70.3437 0.0000 7.2755 0.0004
# 2 22.9546 51.2987 33.1808 0.0007 -3.5870 -0.0009
# 3 70.3437 33.1808 146.4180 -0.0004 -10.5448 0.0005
# 4 0.0000 0.0007 -0.0004 38.6223 -0.0008 2.0289
# 5 7.2755 -3.5870 -10.5448 -0.0008 37.8303 0.0010
# 6 0.0004 -0.0009 0.0005 2.0289 0.0010 14.1601
#
#
#
# Elastic Compliance Matrix: (Units=1/GPa)
#
#
# Indices 1 2 3 4 5 6 
#
# 1 0.021010 -0.003560 -0.009799 0.000000 -0.007109 0.000000
# 2 -0.003560 0.023465 -0.003467 -0.000001 0.001943 0.000002
# 3 -0.009799 -0.003467 0.012690 0.000000 0.005093 -0.000001
# 4 0.000000 -0.000001 0.000000 0.026088 0.000001 -0.003738
# 5 -0.007109 0.001943 0.005093 0.000001 0.029405 -0.000002
# 6 0.000000 0.000002 -0.000001 -0.003738 -0.000002 0.071157
#
#
# Mechanical properties :
#
#
# Convention : Reuss Voigt Hill
#
# Bulk Modulus (GPa) = 42.53105 59.71464 51.12285
# Shear Modulus (GPa) = 22.19214 28.65551 25.42383
#
# Velocity S-wave (km/s) = 3.49836 3.97529 3.74442
# Velocity P-wave (km/s) = 6.30658 7.34860 6.84744
#
# Compressibility (1/GPa) = 0.02351223
#
# Stress axis : x y z
#
# Youngs Moduli (GPa) = 47.59706 42.61608 78.80235
#
# Poissons Ratio (x) = 0.15172 0.77218
# Poissons Ratio (y) = 0.16946 0.27323
# Poissons Ratio (z) = 0.46640 0.14776
#
# Static dielectric constant tensor:
#      x y z
#    x 1.693820 0.000000 0.016870 
#    y 0.000000 1.613200 0.000000 
#    z 0.016870 0.000000 1.620250 
# 
# From -- ./inp_files/107443.got.cif
#   From: 2010.05.17/outbox.cif.g08.bks.cpg/sg15_54_cif.got.tgz:107443.got - 2010.06.03 18:47:42.
