data_PCOD9272233
_publ_section_title
;
Structure prediction by ZEFSAII (Michael W. Deem and Ramdas Pophale) SiO2 
 PCOD9272233
Probable space group: C 2/C
;
_chemical_formula_sum "Si O2"
_cell_formula_units_Z 60
_cell_length_a 11.986802
_cell_length_b 28.098935
_cell_length_c 12.143837
_cell_angle_alpha 90.000000
_cell_angle_beta 133.480156
_cell_angle_gamma 90.000000
_cell_volume 2967.932480
_symmetry_space_group_name_H-M "C 2/C"
_symmetry_group_IT_number 15
_symmetry_cell_setting 'monoclinic'
loop_
_space_group_symop_operation_xyz
x,y,z
-x,y,1/2-z
-x,-y,-z
x,-y,1/2+z
1/2+x,1/2+y,z
1/2-x,1/2+y,1/2-z
1/2-x,1/2-y,-z
1/2+x,1/2-y,1/2+z
loop_
_atom_site_type_symbol
_atom_site_label
_atom_site_fract_x
_atom_site_fract_y
_atom_site_fract_z
Si Si1 0.521565 0.386204 0.881967
Si Si2 0.358672 0.285110 0.505355
Si Si3 0.198389 0.743537 0.693111
Si Si4 0.500000 0.087282 0.250000
Si Si5 0.272791 0.842366 0.707196
Si Si6 0.822459 0.177548 0.604517
Si Si7 0.054973 0.046290 0.602400
Si Si8 0.776461 0.931168 0.080300
O O1 0.500000 0.411912 0.750000
O O2 0.614040 0.337137 0.925222
O O3 0.353941 0.370239 0.810252
O O4 0.590581 0.416183 0.029713
O O5 0.250000 0.250000 0.500000
O O6 0.270861 0.292204 0.330680
O O7 0.526697 0.261249 0.603194
O O8 0.304291 0.790869 0.779213
O O9 0.218440 0.717454 0.590632
O O10 0.589868 0.122755 0.228740
O O11 0.621984 0.059087 0.406850
O O12 0.199442 0.826871 0.540521
O O13 0.780112 0.124545 0.617395
O O14 0.000000 0.187918 0.750000
O O15 0.188276 0.039966 0.784414
O O16 0.913449 0.063309 0.583861
O O17 0.000000 0.000000 0.500000
#
# Coordination Sequence:
#
# PCOD9272233 Si02
#       8
#     8   8   8   4   8   8   8   8
#     4  11  22  42  64  89 127 172 221 265 320 396
#     4  11  23  41  56  83 126 181 219 266 312 383
#     4  11  23  32  57  87 121 168 226 261 317 372
#     4  10  20  36  66  88 140 168 194 258 354 388
#     4  10  21  35  53  93 124 169 208 258 322 381
#     4  11  18  34  57  86 130 156 204 272 328 373
#     4  11  22  41  69  99 121 164 220 271 331 395
#     4  10  21  41  64  97 132 158 210 269 337 388
#
# _framework density 20.216093000000001
#
# number of rings (size 3 to 8) (size 9 to 14) (size 15 to 20)
#    0.000    1.333    4.000    4.800    6.533    0.000 
#    0.000    0.667    0.000    0.000    0.000    0.000 
#    0.000    0.000    0.000    0.000    0.000    0.000 
#
# Total GULP energy -167437.465183 kJ/mol
# GULP energy per Si atom -5581.248839 kJ/mol
# Density = 2.017008 g / cm^3
# Si number density = 20.216093 Si / 1000 Ang^3
#
#
#
# Elastic Constant Matrix: (Units=GPa)
#
#
# Indices 1 2 3 4 5 6 
#
# 1 60.4172 5.7389 39.7192 0.0000 -10.7985 0.0000
# 2 5.7389 55.9817 22.1403 0.0000 -4.9413 0.0000
# 3 39.7192 22.1403 135.1198 0.0000 -7.5917 0.0000
# 4 0.0000 0.0000 0.0000 27.6225 0.0000 -8.4506
# 5 -10.7985 -4.9413 -7.5917 0.0000 35.4488 0.0000
# 6 0.0000 0.0000 0.0000 -8.4506 0.0000 5.8488
#
#
#
# Elastic Compliance Matrix: (Units=1/GPa)
#
#
# Indices 1 2 3 4 5 6 
#
# 1 0.021463 0.000691 -0.006123 0.000000 0.005323 0.000000
# 2 0.000691 0.019267 -0.003236 0.000000 0.002203 0.000000
# 3 -0.006123 -0.003236 0.009718 0.000000 -0.000235 0.000000
# 4 0.000000 0.000000 0.000000 0.064882 0.000000 0.093745
# 5 0.005323 0.002203 -0.000235 0.000000 0.030088 0.000000
# 6 0.000000 0.000000 0.000000 0.093745 0.000000 0.306422
#
#
# Mechanical properties :
#
#
# Convention : Reuss Voigt Hill
#
# Bulk Modulus (GPa) = 30.20185 42.96839 36.58512
# Shear Modulus (GPa) = 10.41205 26.04537 18.22871
#
# Velocity S-wave (km/s) = 2.27191 3.59325 3.00608
# Velocity P-wave (km/s) = 4.67483 6.20612 5.49409
#
# Compressibility (1/GPa) = 0.03311055
#
# Stress axis : x y z
#
# Youngs Moduli (GPa) = 46.59204 51.90344 102.90263
#
# Poissons Ratio (x) = -0.03588 0.63011
# Poissons Ratio (y) = -0.03221 0.33303
# Poissons Ratio (z) = 0.28530 0.16798
#
# Static dielectric constant tensor:
#      x y z
#    x 1.730030 0.000000 -0.039690 
#    y 0.000000 1.751620 0.000000 
#    z -0.039690 0.000000 1.776060 
# 
# From -- ./inp_files/92612.got.cif
#   From: 2010.05.17/outbox.cif.g08.bks.cpg/sg15_47_cif.got.tgz:92612.got - 2010.06.03 18:47:42.
