data_PCOD9272578
_publ_section_title
;
Structure prediction by ZEFSAII (Michael W. Deem and Ramdas Pophale) SiO2 
 PCOD9272578
Probable space group: C 2/C
;
_chemical_formula_sum "Si O2"
_cell_formula_units_Z 56
_cell_length_a 14.723578
_cell_length_b 23.690162
_cell_length_c 15.707224
_cell_angle_alpha 90.000000
_cell_angle_beta 31.059945
_cell_angle_gamma 90.000000
_cell_volume 2826.672395
_symmetry_space_group_name_H-M "C 2/C"
_symmetry_group_IT_number 15
_symmetry_cell_setting 'monoclinic'
loop_
_space_group_symop_operation_xyz
x,y,z
-x,y,1/2-z
-x,-y,-z
x,-y,1/2+z
1/2+x,1/2+y,z
1/2-x,1/2+y,1/2-z
1/2-x,1/2-y,-z
1/2+x,1/2-y,1/2+z
loop_
_atom_site_type_symbol
_atom_site_label
_atom_site_fract_x
_atom_site_fract_y
_atom_site_fract_z
Si Si1 0.255198 0.879712 0.626096
Si Si2 0.354416 0.322124 0.140819
Si Si3 0.165476 0.032768 0.328370
Si Si4 0.940471 0.393573 0.702788
Si Si5 0.790224 0.312648 0.432716
Si Si6 0.368338 0.922995 0.117069
Si Si7 0.255791 0.296025 0.710287
O O1 0.135435 0.926559 0.770251
O O2 0.226049 0.858190 0.554301
O O3 0.454249 0.904137 0.475545
O O4 0.247857 0.824776 0.693064
O O5 0.302886 0.320087 0.082837
O O6 0.285901 0.380453 0.232824
O O7 0.261241 0.270302 0.263615
O O8 0.560942 0.311583 0.980238
O O9 0.263331 0.072585 0.318435
O O10 0.305584 0.985314 0.188796
O O11 0.000000 0.000000 0.500000
O O12 0.897768 0.328086 0.717221
O O13 0.000000 0.403187 0.750000
O O14 0.083940 0.414664 0.519809
O O15 0.750000 0.250000 0.500000
O O16 0.000000 0.318301 0.250000
#
# Coordination Sequence:
#
# PCOD9272578 Si02
#       7
#     8   8   8   8   8   8   8
#     4  10  20  37  58  88 122 172 211 259 305 381
#     4  12  21  37  61  91 131 172 204 256 320 389
#     4  10  21  43  68  90 126 168 209 258 333 377
#     4  10  22  43  70  90 118 159 220 270 309 368
#     4  12  23  36  57  94 138 169 218 253 310 389
#     4  10  20  40  63  87 125 165 206 254 327 375
#     4  10  21  37  60  88 124 166 207 248 327 377
#
# _framework density 19.811281999999999
#
# number of rings (size 3 to 8) (size 9 to 14) (size 15 to 20)
#    0.000    1.714    2.857    6.000    0.000    0.000 
#    5.143    5.714    6.286    0.000    0.000    0.000 
#    0.000    0.000    0.000    0.000    0.000    0.000 
#
# Total GULP energy -156431.369529 kJ/mol
# GULP energy per Si atom -5586.834626 kJ/mol
# Density = 1.976619 g / cm^3
# Si number density = 19.811282 Si / 1000 Ang^3
#
#
#
# Elastic Constant Matrix: (Units=GPa)
#
#
# Indices 1 2 3 4 5 6 
#
# 1 75.2193 31.2164 33.6267 -0.0178 30.1279 0.0100
# 2 31.2164 107.5063 18.1397 -0.0137 13.8329 0.0012
# 3 33.6267 18.1397 86.8252 -0.0202 8.7488 -0.0132
# 4 -0.0178 -0.0137 -0.0202 52.3244 -0.0043 1.5186
# 5 30.1279 13.8329 8.7488 -0.0043 22.5113 0.0091
# 6 0.0100 0.0012 -0.0132 1.5186 0.0091 9.7708
#
#
#
# Elastic Compliance Matrix: (Units=1/GPa)
#
#
# Indices 1 2 3 4 5 6 
#
# 1 0.035412 -0.003412 -0.008782 0.000005 -0.041885 -0.000009
# 2 -0.003412 0.010632 -0.000730 0.000001 -0.001684 0.000003
# 3 -0.008782 -0.000730 0.014406 0.000002 0.006603 0.000022
# 4 0.000005 0.000001 0.000002 0.019198 -0.000003 -0.002984
# 5 -0.041885 -0.001684 0.006603 -0.000003 0.098947 -0.000040
# 6 -0.000009 0.000003 0.000022 -0.002984 -0.000040 0.102810
#
#
# Mechanical properties :
#
#
# Convention : Reuss Voigt Hill
#
# Bulk Modulus (GPa) = 28.89915 48.39070 38.64492
# Shear Modulus (GPa) = 15.68446 29.35916 22.52181
#
# Velocity S-wave (km/s) = 2.81676 3.85378 3.37533
# Velocity P-wave (km/s) = 5.01973 6.65439 5.89401
#
# Compressibility (1/GPa) = 0.03460310
#
# Stress axis : x y z
#
# Youngs Moduli (GPa) = 28.23864 94.05332 69.41679
#
# Poissons Ratio (x) = 0.32086 0.60960
# Poissons Ratio (y) = 0.09634 0.05070
# Poissons Ratio (z) = 0.24799 0.06870
#
# Static dielectric constant tensor:
#      x y z
#    x 1.671710 -0.000030 -0.031010 
#    y -0.000030 1.692220 0.000100 
#    z -0.031010 0.000100 1.754660 
# 
# From -- ./inp_files/156900.got.cif
#   From: 2010.05.17/outbox.cif.g08.bks.cpg/sg15_79_cif.got.tgz:156900.got - 2010.06.03 18:47:42.
