data_PCOD9272072
_publ_section_title
;
Structure prediction by ZEFSAII (Michael W. Deem and Ramdas Pophale) SiO2 
 PCOD9272072
Probable space group: C 2/C
;
_chemical_formula_sum "Si O2"
_cell_formula_units_Z 60
_cell_length_a 14.099046
_cell_length_b 14.882305
_cell_length_c 27.849774
_cell_angle_alpha 90.000000
_cell_angle_beta 30.418389
_cell_angle_gamma 90.000000
_cell_volume 2958.684043
_symmetry_space_group_name_H-M "C 2/C"
_symmetry_group_IT_number 15
_symmetry_cell_setting 'monoclinic'
loop_
_space_group_symop_operation_xyz
x,y,z
-x,y,1/2-z
-x,-y,-z
x,-y,1/2+z
1/2+x,1/2+y,z
1/2-x,1/2+y,1/2-z
1/2-x,1/2-y,-z
1/2+x,1/2-y,1/2+z
loop_
_atom_site_type_symbol
_atom_site_label
_atom_site_fract_x
_atom_site_fract_y
_atom_site_fract_z
Si Si1 0.106092 0.163327 0.921427
Si Si2 0.708059 0.017414 0.169819
Si Si3 0.137544 0.376139 0.353853
Si Si4 0.500000 0.688587 0.750000
Si Si5 0.792333 0.725398 0.036391
Si Si6 0.622052 0.072504 0.314281
Si Si7 0.370572 0.737454 0.233838
Si Si8 0.301458 0.170453 0.405755
O O1 0.136175 0.057657 0.903460
O O2 0.122735 0.194012 0.969232
O O3 0.274274 0.206923 0.818096
O O4 0.907236 0.196182 0.987681
O O5 0.500000 0.977389 0.250000
O O6 0.700262 0.055137 0.226593
O O7 0.729946 0.097387 0.122762
O O8 0.325156 0.364742 0.303544
O O9 0.117286 0.476318 0.341999
O O10 0.144833 0.302607 0.306825
O O11 0.951732 0.350479 0.465328
O O12 0.582606 0.750951 0.670948
O O13 0.585956 0.709688 0.147342
O O14 0.750000 0.750000 0.000000
O O15 0.754370 0.146395 0.279580
O O16 0.421045 0.119764 0.393853
#
# Coordination Sequence:
#
# PCOD9272072 Si02
#       8
#     8   8   8   4   8   8   8   8
#     4  12  23  40  65 103 132 178 224 291 351 409
#     4  10  20  36  63  96 133 163 218 292 348 394
#     4  11  23  45  69  97 135 184 234 278 354 421
#     4  12  20  46  68  90 136 188 218 284 338 422
#     4  10  24  39  67  95 133 181 224 272 348 422
#     4  11  23  42  66  99 133 182 227 285 346 409
#     4  11  23  43  67  95 140 173 227 289 347 408
#     4  11  22  38  69  96 135 169 231 287 349 398
#
# _framework density 20.279285999999999
#
# number of rings (size 3 to 8) (size 9 to 14) (size 15 to 20)
#    0.000    1.067    6.000    1.600    7.467    1.600 
#    2.400    0.667    0.000    0.000    0.000    0.000 
#    0.000    0.000    0.000    0.000    0.000    0.000 
#
# Total GULP energy -167542.285426 kJ/mol
# GULP energy per Si atom -5584.742848 kJ/mol
# Density = 2.023313 g / cm^3
# Si number density = 20.279286 Si / 1000 Ang^3
#
#
#
# Elastic Constant Matrix: (Units=GPa)
#
#
# Indices 1 2 3 4 5 6 
#
# 1 71.0470 16.7302 28.9346 -0.0005 -24.6564 -0.0006
# 2 16.7302 46.0259 16.0438 -0.0040 2.1630 -0.0015
# 3 28.9346 16.0438 110.7659 -0.0111 -22.0659 -0.0080
# 4 -0.0005 -0.0040 -0.0111 6.7678 0.0007 -3.2710
# 5 -24.6564 2.1630 -22.0659 0.0007 24.1077 0.0005
# 6 -0.0006 -0.0015 -0.0080 -3.2710 0.0005 54.4700
#
#
#
# Elastic Compliance Matrix: (Units=1/GPa)
#
#
# Indices 1 2 3 4 5 6 
#
# 1 0.026325 -0.011014 0.000341 -0.000007 0.028225 -0.000001
# 2 -0.011014 0.028280 -0.004854 0.000010 -0.018245 0.000001
# 3 0.000341 -0.004854 0.011983 0.000017 0.011753 0.000003
# 4 -0.000007 0.000010 0.000017 0.152175 0.000002 0.009138
# 5 0.028225 -0.018245 0.011753 0.000002 0.082742 0.000001
# 6 -0.000001 0.000001 0.000003 0.009138 0.000001 0.018907
#
#
# Mechanical properties :
#
#
# Convention : Reuss Voigt Hill
#
# Bulk Modulus (GPa) = 28.14129 39.02843 33.58486
# Shear Modulus (GPa) = 13.76231 28.14446 20.95338
#
# Velocity S-wave (km/s) = 2.60790 3.72942 3.21789
# Velocity P-wave (km/s) = 4.79324 6.15077 5.51394
#
# Compressibility (1/GPa) = 0.03553497
#
# Stress axis : x y z
#
# Youngs Moduli (GPa) = 37.98645 35.36087 83.45029
#
# Poissons Ratio (x) = 0.38948 -0.02849
# Poissons Ratio (y) = 0.41840 0.40503
# Poissons Ratio (z) = -0.01297 0.17162
#
# Static dielectric constant tensor:
#      x y z
#    x 1.740160 0.000000 -0.018410 
#    y 0.000000 1.688250 0.000000 
#    z -0.018410 0.000000 1.779200 
# 
# From -- ./inp_files/313972.got.cif
#   From: 2010.05.17/outbox.cif.g08.bks.cpg/sg15_157_cif.got.tgz:313972.got - 2010.06.03 18:47:42.
