data_PCOD9272197
_publ_section_title
;
Structure prediction by ZEFSAII (Michael W. Deem and Ramdas Pophale) SiO2 
 PCOD9272197
Probable space group: C 2/C
;
_chemical_formula_sum "Si O2"
_cell_formula_units_Z 36
_cell_length_a 6.398473
_cell_length_b 19.050567
_cell_length_c 12.464666
_cell_angle_alpha 90.000000
_cell_angle_beta 75.655496
_cell_angle_gamma 90.000000
_cell_volume 1472.006054
_symmetry_space_group_name_H-M "C 2/C"
_symmetry_group_IT_number 15
_symmetry_cell_setting 'monoclinic'
loop_
_space_group_symop_operation_xyz
x,y,z
-x,y,1/2-z
-x,-y,-z
x,-y,1/2+z
1/2+x,1/2+y,z
1/2-x,1/2+y,1/2-z
1/2-x,1/2-y,-z
1/2+x,1/2-y,1/2+z
loop_
_atom_site_type_symbol
_atom_site_label
_atom_site_fract_x
_atom_site_fract_y
_atom_site_fract_z
Si Si1 0.258155 0.168554 0.592085
Si Si2 0.000000 0.050457 0.750000
Si Si3 0.154963 0.595154 0.430041
Si Si4 0.355410 0.988221 0.352046
Si Si5 0.537226 0.289371 0.568075
O O1 0.158442 0.104304 0.669518
O O2 0.460627 0.142663 0.498238
O O3 0.358987 0.236110 0.641885
O O4 0.079102 0.187855 0.527299
O O5 0.130171 0.003846 0.818718
O O6 0.202458 0.545908 0.526822
O O7 0.361793 0.644107 0.381678
O O8 0.030038 0.548907 0.357526
O O9 0.500000 0.942336 0.250000
O O10 0.750000 0.250000 0.500000
#
# Coordination Sequence:
#
# PCOD9272197 Si02
#       5
#     8   4   8   8   8
#     4  10  20  36  65  92 127 170 222 276 330 394
#     4  12  22  36  62 104 132 170 228 272 336 402
#     4  10  21  39  65  90 129 175 221 269 339 391
#     4  11  23  38  61  96 132 172 218 277 326 408
#     4   9  19  38  64  89 120 171 218 272 333 392
#
# _framework density 24.456420999999999
#
# number of rings (size 3 to 8) (size 9 to 14) (size 15 to 20)
#    0.000    1.778    4.444    0.000    0.000    2.667 
#    0.000    0.000   26.889    0.000    0.000    0.000 
#    0.000    0.000    0.000    0.000    0.000    0.000 
#
# Total GULP energy -100314.667300 kJ/mol
# GULP energy per Si atom -5573.037072 kJ/mol
# Density = 2.440076 g / cm^3
# Si number density = 24.456421 Si / 1000 Ang^3
#
#
#
# Elastic Constant Matrix: (Units=GPa)
#
#
# Indices 1 2 3 4 5 6 
#
# 1 191.2864 86.2827 59.7952 0.0000 52.0103 0.0000
# 2 86.2827 109.5334 33.8265 0.0000 20.2398 0.0000
# 3 59.7952 33.8265 74.8970 0.0000 24.4073 0.0000
# 4 0.0000 0.0000 0.0000 24.0072 0.0000 3.9890
# 5 52.0103 20.2398 24.4073 0.0000 58.5935 0.0000
# 6 0.0000 0.0000 0.0000 3.9890 0.0000 93.7834
#
#
#
# Elastic Compliance Matrix: (Units=1/GPa)
#
#
# Indices 1 2 3 4 5 6 
#
# 1 0.010881 -0.006271 -0.003949 0.000000 -0.005847 0.000000
# 2 -0.006271 0.014416 -0.001962 0.000000 0.001404 0.000000
# 3 -0.003949 -0.001962 0.018545 0.000000 -0.003542 0.000000
# 4 0.000000 0.000000 0.000000 0.041951 0.000000 -0.001784
# 5 -0.005847 0.001404 -0.003542 0.000000 0.023247 0.000000
# 6 0.000000 0.000000 0.000000 -0.001784 0.000000 0.010739
#
#
# Mechanical properties :
#
#
# Convention : Reuss Voigt Hill
#
# Bulk Modulus (GPa) = 51.34127 81.72507 66.53317
# Shear Modulus (GPa) = 33.19304 48.33100 40.76202
#
# Velocity S-wave (km/s) = 3.68806 4.45028 4.08698
# Velocity P-wave (km/s) = 6.25893 7.73924 7.03811
#
# Compressibility (1/GPa) = 0.01947751
#
# Stress axis : x y z
#
# Youngs Moduli (GPa) = 91.90621 69.36781 53.92382
#
# Poissons Ratio (x) = 0.43501 0.21295
# Poissons Ratio (y) = 0.57635 0.10578
# Poissons Ratio (z) = 0.36295 0.13608
#
# Static dielectric constant tensor:
#      x y z
#    x 1.953160 0.000000 0.016760 
#    y 0.000000 2.141790 0.000000 
#    z 0.016760 0.000000 1.937760 
# 
# From -- ./inp_files/128727.got.cif
#   From: 2010.05.17/outbox.cif.g08.bks.cpg/sg15_65_cif.got.tgz:128727.got - 2010.06.03 18:47:42.
