data_PCOD9272221
_publ_section_title
;
Structure prediction by ZEFSAII (Michael W. Deem and Ramdas Pophale) SiO2 
 PCOD9272221
Probable space group: C 2/C
;
_chemical_formula_sum "Si O2"
_cell_formula_units_Z 36
_cell_length_a 16.673838
_cell_length_b 9.421195
_cell_length_c 10.999977
_cell_angle_alpha 90.000000
_cell_angle_beta 66.965942
_cell_angle_gamma 90.000000
_cell_volume 1590.192715
_symmetry_space_group_name_H-M "C 2/C"
_symmetry_group_IT_number 15
_symmetry_cell_setting 'monoclinic'
loop_
_space_group_symop_operation_xyz
x,y,z
-x,y,1/2-z
-x,-y,-z
x,-y,1/2+z
1/2+x,1/2+y,z
1/2-x,1/2+y,1/2-z
1/2-x,1/2-y,-z
1/2+x,1/2-y,1/2+z
loop_
_atom_site_type_symbol
_atom_site_label
_atom_site_fract_x
_atom_site_fract_y
_atom_site_fract_z
Si Si1 0.279051 0.182188 0.107165
Si Si2 0.500000 0.138165 0.250000
Si Si3 0.391747 0.032865 0.635435
Si Si4 0.150020 0.218867 0.517681
Si Si5 0.207512 0.980274 0.328387
O O1 0.309964 0.314170 0.172420
O O2 0.359738 0.076613 0.050932
O O3 0.204941 0.082790 0.212265
O O4 0.250000 0.250000 0.000000
O O5 0.420341 0.237903 0.340076
O O6 0.527120 0.034472 0.344832
O O7 0.380230 0.184762 0.580149
O O8 0.312988 0.019619 0.781834
O O9 0.250000 0.250000 0.500000
O O10 0.155596 0.057755 0.465485
#
# Coordination Sequence:
#
# PCOD9272221 Si02
#       5
#     8   4   8   8   8
#     4  10  20  36  66 100 130 179 233 270 344 411
#     4  12  26  40  70 104 138 180 232 280 342 410
#     4  10  22  40  66 103 130 174 232 282 338 405
#     4  12  22  43  69  94 139 181 227 285 340 406
#     4  10  20  38  65  99 129 176 229 274 337 404
#
# _framework density 22.638766
#
# number of rings (size 3 to 8) (size 9 to 14) (size 15 to 20)
#    1.333    0.000    4.444    2.000    0.000    0.000 
#    0.000    1.111    0.000    2.667    0.000    0.000 
#    0.000    0.000    0.000    0.000    0.000    0.000 
#
# Total GULP energy -100230.353891 kJ/mol
# GULP energy per Si atom -5568.352994 kJ/mol
# Density = 2.258724 g / cm^3
# Si number density = 22.638766 Si / 1000 Ang^3
#
#
#
# Elastic Constant Matrix: (Units=GPa)
#
#
# Indices 1 2 3 4 5 6 
#
# 1 74.0883 -5.1531 41.0420 0.0000 -6.0335 0.0000
# 2 -5.1531 98.8364 32.4924 0.0000 -6.0463 0.0000
# 3 41.0420 32.4924 96.2961 0.0000 -5.2261 0.0000
# 4 0.0000 0.0000 0.0000 39.7274 0.0000 2.8640
# 5 -6.0335 -6.0463 -5.2261 0.0000 48.7317 0.0000
# 6 0.0000 0.0000 0.0000 2.8640 0.0000 28.4933
#
#
#
# Elastic Compliance Matrix: (Units=1/GPa)
#
#
# Indices 1 2 3 4 5 6 
#
# 1 0.019222 0.004249 -0.009524 0.000000 0.001886 0.000000
# 2 0.004249 0.012368 -0.005907 0.000000 0.001427 0.000000
# 3 -0.009524 -0.005907 0.016429 0.000000 -0.000150 0.000000
# 4 0.000000 0.000000 0.000000 0.025355 0.000000 -0.002549
# 5 0.001886 0.001427 -0.000150 0.000000 0.020915 0.000000
# 6 0.000000 0.000000 0.000000 -0.002549 0.000000 0.035352
#
#
# Mechanical properties :
#
#
# Convention : Reuss Voigt Hill
#
# Bulk Modulus (GPa) = 38.97824 45.10927 42.04376
# Shear Modulus (GPa) = 31.14151 36.77979 33.96065
#
# Velocity S-wave (km/s) = 3.71291 4.03505 3.87733
# Velocity P-wave (km/s) = 5.96957 6.45583 6.21746
#
# Compressibility (1/GPa) = 0.02565534
#
# Stress axis : x y z
#
# Youngs Moduli (GPa) = 52.02291 80.85147 60.86930
#
# Poissons Ratio (x) = -0.34350 0.57971
# Poissons Ratio (y) = -0.22102 0.35953
# Poissons Ratio (z) = 0.49546 0.47756
#
# Static dielectric constant tensor:
#      x y z
#    x 1.861040 0.000000 0.003640 
#    y 0.000000 1.891500 0.000000 
#    z 0.003640 0.000000 1.997740 
# 
# From -- ./inp_files/102603.got.cif
#   From: 2010.05.17/outbox.cif.g08.bks.cpg/sg15_52_cif.got.tgz:102603.got - 2010.06.03 18:47:42.
