data_PCOD9272907
_publ_section_title
;
Structure prediction by ZEFSAII (Michael W. Deem and Ramdas Pophale) SiO2 
 PCOD9272907
Probable space group: C 2/C
;
_chemical_formula_sum "Si O2"
_cell_formula_units_Z 64
_cell_length_a 21.799513
_cell_length_b 17.686212
_cell_length_c 17.135858
_cell_angle_alpha 90.000000
_cell_angle_beta 148.710351
_cell_angle_gamma 90.000000
_cell_volume 3431.309815
_symmetry_space_group_name_H-M "C 2/C"
_symmetry_group_IT_number 15
_symmetry_cell_setting 'monoclinic'
loop_
_space_group_symop_operation_xyz
x,y,z
-x,y,1/2-z
-x,-y,-z
x,-y,1/2+z
1/2+x,1/2+y,z
1/2-x,1/2+y,1/2-z
1/2-x,1/2-y,-z
1/2+x,1/2-y,1/2+z
loop_
_atom_site_type_symbol
_atom_site_label
_atom_site_fract_x
_atom_site_fract_y
_atom_site_fract_z
Si Si1 0.437360 0.928231 0.762217
Si Si2 0.514042 0.165546 0.041966
Si Si3 0.153742 0.076424 0.308201
Si Si4 0.780378 0.966748 0.457138
Si Si5 0.623932 0.958376 0.546157
Si Si6 0.517460 0.537610 0.933024
Si Si7 0.513258 0.662414 0.494887
Si Si8 0.774140 0.401720 0.253284
O O1 0.500000 0.906001 0.750000
O O2 0.428730 0.858684 0.813363
O O3 0.312613 0.970601 0.614412
O O4 0.524741 0.990231 0.897329
O O5 0.564633 0.104013 0.036197
O O6 0.527376 0.249015 0.023173
O O7 0.374018 0.151360 0.896909
O O8 0.162406 0.080742 0.410595
O O9 0.284248 0.078632 0.413929
O O10 0.100455 0.991810 0.237085
O O11 0.069103 0.133609 0.167114
O O12 0.712185 0.910913 0.324497
O O13 0.878639 0.006154 0.508630
O O14 0.700589 0.015856 0.682677
O O15 0.534801 0.623757 0.977398
O O16 0.500000 0.500000 0.000000
O O17 0.644253 0.628915 0.626842
#
# Coordination Sequence:
#
# PCOD9272907 Si02
#       8
#     8   8   8   8   8   8   8   8
#     4  11  22  40  64  95 122 160 219 276 315 366
#     4  11  25  38  65  92 125 174 213 253 324 394
#     4  11  22  35  62  94 120 158 210 266 317 360
#     4  12  20  37  67  91 121 157 216 277 308 356
#     4  11  20  39  66  90 115 166 224 256 301 382
#     4  10  20  37  61  88 119 162 215 253 300 376
#     4  11  24  40  60  92 133 162 208 264 320 391
#     4  11  20  40  63  87 118 165 218 257 301 374
#
# _framework density 18.651769000000002
#
# number of rings (size 3 to 8) (size 9 to 14) (size 15 to 20)
#    0.000    1.000    7.500    1.875    1.750    0.000 
#    0.000    1.875    5.500    3.000    0.000    0.000 
#    0.000    0.000    0.000    0.000    0.000    0.000 
#
# Total GULP energy -178380.062515 kJ/mol
# GULP energy per Si atom -5574.376954 kJ/mol
# Density = 1.860932 g / cm^3
# Si number density = 18.651769 Si / 1000 Ang^3
#
#
#
# Elastic Constant Matrix: (Units=GPa)
#
#
# Indices 1 2 3 4 5 6 
#
# 1 96.8678 26.4516 31.7272 0.0000 1.8946 0.0000
# 2 26.4516 103.0336 31.8609 0.0000 -7.0497 0.0000
# 3 31.7272 31.8609 61.1058 0.0000 3.4497 0.0000
# 4 0.0000 0.0000 0.0000 12.8833 0.0000 -1.9279
# 5 1.8946 -7.0497 3.4497 0.0000 38.5449 0.0000
# 6 0.0000 0.0000 0.0000 -1.9279 0.0000 19.6855
#
#
#
# Elastic Compliance Matrix: (Units=1/GPa)
#
#
# Indices 1 2 3 4 5 6 
#
# 1 0.012622 -0.001486 -0.005758 0.000000 -0.000377 0.000000
# 2 -0.001486 0.012026 -0.005656 0.000000 0.002779 0.000000
# 3 -0.005758 -0.005656 0.022459 0.000000 -0.002762 0.000000
# 4 0.000000 0.000000 0.000000 0.078774 0.000000 0.007715
# 5 -0.000377 0.002779 -0.002762 0.000000 0.026718 0.000000
# 6 0.000000 0.000000 0.000000 0.007715 0.000000 0.051554
#
#
# Mechanical properties :
#
#
# Convention : Reuss Voigt Hill
#
# Bulk Modulus (GPa) = 46.92850 49.00961 47.96905
# Shear Modulus (GPa) = 21.09207 25.62059 23.35633
#
# Velocity S-wave (km/s) = 3.36644 3.71027 3.54253
# Velocity P-wave (km/s) = 6.35024 6.68491 6.51972
#
# Compressibility (1/GPa) = 0.02130901
#
# Stress axis : x y z
#
# Youngs Moduli (GPa) = 79.22503 83.15239 44.52467
#
# Poissons Ratio (x) = 0.12355 0.25636
# Poissons Ratio (y) = 0.11771 0.25183
# Poissons Ratio (z) = 0.45615 0.47030
#
# Static dielectric constant tensor:
#      x y z
#    x 1.678460 0.000000 -0.001370 
#    y 0.000000 1.675240 0.000000 
#    z -0.001370 0.000000 1.687810 
# 
# From -- ./inp_files/219907.got.cif
#   From: 2010.05.17/outbox.cif.g08.bks.cpg/sg15_110_cif.got.tgz:219907.got - 2010.06.03 18:47:42.
