data_PCOD9272763
_publ_section_title
;
Structure prediction by ZEFSAII (Michael W. Deem and Ramdas Pophale) SiO2 
 PCOD9272763
Probable space group: C 2/C
;
_chemical_formula_sum "Si O2"
_cell_formula_units_Z 60
_cell_length_a 23.220814
_cell_length_b 8.480192
_cell_length_c 19.968717
_cell_angle_alpha 90.000000
_cell_angle_beta 132.573968
_cell_angle_gamma 90.000000
_cell_volume 2895.674541
_symmetry_space_group_name_H-M "C 2/C"
_symmetry_group_IT_number 15
_symmetry_cell_setting 'monoclinic'
loop_
_space_group_symop_operation_xyz
x,y,z
-x,y,1/2-z
-x,-y,-z
x,-y,1/2+z
1/2+x,1/2+y,z
1/2-x,1/2+y,1/2-z
1/2-x,1/2-y,-z
1/2+x,1/2-y,1/2+z
loop_
_atom_site_type_symbol
_atom_site_label
_atom_site_fract_x
_atom_site_fract_y
_atom_site_fract_z
Si Si1 0.834040 0.624325 0.424832
Si Si2 0.371119 0.879549 0.367771
Si Si3 0.553178 0.452052 0.605570
Si Si4 0.436483 0.701481 0.113012
Si Si5 0.195572 0.207292 0.394369
Si Si6 0.639152 0.971872 0.777461
Si Si7 0.191468 0.198174 0.734813
Si Si8 0.500000 0.982372 0.250000
O O1 0.887561 0.473749 0.449057
O O2 0.879122 0.743481 0.508577
O O3 0.749063 0.594749 0.391081
O O4 0.820527 0.708055 0.343784
O O5 0.403803 0.706264 0.385443
O O6 0.397093 0.972180 0.321844
O O7 0.276683 0.876683 0.294356
O O8 0.500000 0.500000 0.500000
O O9 0.499597 0.409803 0.627711
O O10 0.619496 0.576582 0.679087
O O11 0.383945 0.642392 0.134620
O O12 0.473669 0.861706 0.171201
O O13 0.250000 0.250000 0.500000
O O14 0.178225 0.369601 0.339693
O O15 0.573002 0.923984 0.778393
O O16 0.690710 0.823025 0.795566
#
# Coordination Sequence:
#
# PCOD9272763 Si02
#       8
#     8   8   8   8   8   8   8   4
#     4  10  20  38  60  94 122 165 216 268 320 383
#     4  11  23  37  64  91 130 165 218 263 330 396
#     4  12  24  41  62  98 132 168 215 276 331 388
#     4  10  21  37  62  91 122 165 217 266 324 391
#     4   9  19  36  64  91 122 166 218 264 322 400
#     4  10  20  37  60  87 117 164 210 259 314 382
#     4  11  23  37  62  92 133 166 209 271 328 394
#     4  10  20  38  60  80 116 158 212 256 314 390
#
# _framework density 20.720559999999999
#
# number of rings (size 3 to 8) (size 9 to 14) (size 15 to 20)
#    0.000    1.600    4.000    1.600    0.000    1.600 
#    0.000    2.000    0.000    8.000    0.000    0.000 
#    0.000    0.000    0.000    0.000    0.000    0.000 
#
# Total GULP energy -167289.268661 kJ/mol
# GULP energy per Si atom -5576.308955 kJ/mol
# Density = 2.067340 g / cm^3
# Si number density = 20.720560 Si / 1000 Ang^3
#
#
#
# Elastic Constant Matrix: (Units=GPa)
#
#
# Indices 1 2 3 4 5 6 
#
# 1 177.0662 47.4984 18.7885 0.0000 -2.0281 0.0000
# 2 47.4984 57.9617 -1.2142 0.0000 -2.8787 0.0000
# 3 18.7885 -1.2142 39.9371 0.0000 -5.2446 0.0000
# 4 0.0000 0.0000 0.0000 21.0233 0.0000 -1.2491
# 5 -2.0281 -2.8787 -5.2446 0.0000 27.8393 0.0000
# 6 0.0000 0.0000 0.0000 -1.2491 0.0000 41.7800
#
#
#
# Elastic Compliance Matrix: (Units=1/GPa)
#
#
# Indices 1 2 3 4 5 6 
#
# 1 0.007812 -0.006528 -0.003986 0.000000 -0.000857 0.000000
# 2 -0.006528 0.022820 0.004114 0.000000 0.002659 0.000000
# 3 -0.003986 0.004114 0.027744 0.000000 0.005362 0.000000
# 4 0.000000 0.000000 0.000000 0.047651 0.000000 0.001425
# 5 -0.000857 0.002659 0.005362 0.000000 0.037143 0.000000
# 6 0.000000 0.000000 0.000000 0.001425 0.000000 0.023977
#
#
# Mechanical properties :
#
#
# Convention : Reuss Voigt Hill
#
# Bulk Modulus (GPa) = 21.94117 45.01225 33.47671
# Shear Modulus (GPa) = 25.62275 32.12135 28.87205
#
# Velocity S-wave (km/s) = 3.52033 3.94155 3.73688
# Velocity P-wave (km/s) = 5.20919 6.51806 5.90003
#
# Compressibility (1/GPa) = 0.04557643
#
# Stress axis : x y z
#
# Youngs Moduli (GPa) = 128.01113 43.82055 36.04412
#
# Poissons Ratio (x) = 0.28605 0.14367
# Poissons Ratio (y) = 0.83562 -0.14829
# Poissons Ratio (z) = 0.51026 -0.18028
#
# Static dielectric constant tensor:
#      x y z
#    x 1.797600 0.000000 0.039050 
#    y 0.000000 1.783340 0.000000 
#    z 0.039050 0.000000 1.825590 
# 
# From -- ./inp_files/252145.got.cif
#   From: 2010.05.17/outbox.cif.g08.bks.cpg/sg15_127_cif.got.tgz:252145.got - 2010.06.03 18:47:42.
