data_PCOD9272030
_publ_section_title
;
Structure prediction by ZEFSAII (Michael W. Deem and Ramdas Pophale) SiO2 
 PCOD9272030
Probable space group: C 2/C
;
_chemical_formula_sum "Si O2"
_cell_formula_units_Z 40
_cell_length_a 7.398142
_cell_length_b 26.922813
_cell_length_c 8.508101
_cell_angle_alpha 90.000000
_cell_angle_beta 103.204518
_cell_angle_gamma 90.000000
_cell_volume 1649.828703
_symmetry_space_group_name_H-M "C 2/C"
_symmetry_group_IT_number 15
_symmetry_cell_setting 'monoclinic'
loop_
_space_group_symop_operation_xyz
x,y,z
-x,y,1/2-z
-x,-y,-z
x,-y,1/2+z
1/2+x,1/2+y,z
1/2-x,1/2+y,1/2-z
1/2-x,1/2-y,-z
1/2+x,1/2-y,1/2+z
loop_
_atom_site_type_symbol
_atom_site_label
_atom_site_fract_x
_atom_site_fract_y
_atom_site_fract_z
Si Si1 0.786099 0.853422 0.713445
Si Si2 0.722754 0.692115 0.965654
Si Si3 0.168906 0.537373 0.166246
Si Si4 0.309754 0.653470 0.874121
Si Si5 0.157488 0.962481 0.099963
O O1 0.787364 0.913074 0.722327
O O2 0.708933 0.839735 0.524027
O O3 0.000000 0.836109 0.750000
O O4 0.702844 0.834602 0.861101
O O5 0.500845 0.683654 0.919031
O O6 0.786283 0.669886 0.808555
O O7 0.750000 0.750000 0.000000
O O8 0.277593 0.487653 0.228992
O O9 0.000000 0.543095 0.250000
O O10 0.159858 0.536612 0.977342
O O11 0.377848 0.595693 0.885005
O O12 0.000000 0.000000 0.000000
#
# Coordination Sequence:
#
# PCOD9272030 Si02
#       5
#     8   8   8   8   8
#     4   9  19  40  63  87 127 166 220 263 309 401
#     4  10  20  36  63  91 118 161 213 276 325 367
#     4  11  23  37  58  96 136 166 203 270 336 385
#     4   9  21  38  61  92 123 158 221 268 309 391
#     4  11  22  38  67  94 123 180 221 255 320 408
#
# _framework density 24.244942999999999
#
# number of rings (size 3 to 8) (size 9 to 14) (size 15 to 20)
#    0.000    2.000    0.000    4.800    8.400    0.800 
#    3.600    0.000    8.800    0.000    0.000    0.000 
#    0.000    0.000    0.000    0.000    0.000    0.000 
#
# Total GULP energy -111505.312637 kJ/mol
# GULP energy per Si atom -5575.265632 kJ/mol
# Density = 2.418976 g / cm^3
# Si number density = 24.244943 Si / 1000 Ang^3
#
#
#
# Elastic Constant Matrix: (Units=GPa)
#
#
# Indices 1 2 3 4 5 6 
#
# 1 72.6718 5.9723 44.0373 0.0000 -16.9021 0.0000
# 2 5.9723 158.2350 74.2422 0.0000 -0.3786 0.0000
# 3 44.0373 74.2422 225.3175 0.0000 -36.5529 0.0000
# 4 0.0000 0.0000 0.0000 -8.9463 0.0000 -4.5407
# 5 -16.9021 -0.3786 -36.5529 0.0000 41.7441 0.0000
# 6 0.0000 0.0000 0.0000 -4.5407 0.0000 16.5411
#
#
#
# Elastic Compliance Matrix: (Units=1/GPa)
#
#
# Indices 1 2 3 4 5 6 
#
# 1 0.016344 0.000674 -0.002730 0.000000 0.004234 0.000000
# 2 0.000674 0.007722 -0.003054 0.000000 -0.002332 0.000000
# 3 -0.002730 -0.003054 0.006754 0.000000 0.004781 0.000000
# 4 0.000000 0.000000 0.000000 -0.098109 0.000000 -0.026932
# 5 0.004234 -0.002332 0.004781 0.000000 0.029835 0.000000
# 6 0.000000 0.000000 0.000000 -0.026932 0.000000 0.053063
#
#
# Mechanical properties :
#
#
# Convention : Reuss Voigt Hill
#
# Bulk Modulus (GPa) = 48.54518 78.30310 63.42414
# Shear Modulus (GPa) = 152.93166 31.99928 92.46547
#
# Velocity S-wave (km/s) = 7.95077 3.63689 6.18230
# Velocity P-wave (km/s) = 10.21531 7.07126 8.78508
#
# Compressibility (1/GPa) = 0.02059937
#
# Stress axis : x y z
#
# Youngs Moduli (GPa) = 61.18525 129.50460 148.06807
#
# Poissons Ratio (x) = -0.08728 0.40416
# Poissons Ratio (y) = -0.04124 0.45224
# Poissons Ratio (z) = 0.16701 0.39554
#
# Static dielectric constant tensor:
#      x y z
#    x 1.964790 0.000000 -0.010580 
#    y 0.000000 1.919920 0.000000 
#    z -0.010580 0.000000 2.059900 
# 
# From -- ./inp_files/23769.got.cif
#   From: 2010.05.17/outbox.cif.g08.bks.cpg/sg15_12_cif.got.tgz:23769.got - 2010.06.03 18:47:42.
