data_PCOD9272288
_publ_section_title
;
Structure prediction by ZEFSAII (Michael W. Deem and Ramdas Pophale) SiO2 
 PCOD9272288
Probable space group: C 2/C
;
_chemical_formula_sum "Si O2"
_cell_formula_units_Z 60
_cell_length_a 9.522377
_cell_length_b 31.229833
_cell_length_c 12.257935
_cell_angle_alpha 90.000000
_cell_angle_beta 114.480184
_cell_angle_gamma 90.000000
_cell_volume 3317.597355
_symmetry_space_group_name_H-M "C 2/C"
_symmetry_group_IT_number 15
_symmetry_cell_setting 'monoclinic'
loop_
_space_group_symop_operation_xyz
x,y,z
-x,y,1/2-z
-x,-y,-z
x,-y,1/2+z
1/2+x,1/2+y,z
1/2-x,1/2+y,1/2-z
1/2-x,1/2-y,-z
1/2+x,1/2-y,1/2+z
loop_
_atom_site_type_symbol
_atom_site_label
_atom_site_fract_x
_atom_site_fract_y
_atom_site_fract_z
Si Si1 0.280231 0.115129 0.366036
Si Si2 0.784675 0.949181 0.852172
Si Si3 0.361379 0.338097 0.033722
Si Si4 0.370464 0.912389 0.485939
Si Si5 0.165778 0.310389 0.764677
Si Si6 0.590285 0.408389 0.016799
Si Si7 0.328135 0.957840 0.243963
Si Si8 0.500000 0.727363 0.750000
O O1 0.235780 0.086857 0.246642
O O2 0.451616 0.101066 0.455951
O O3 0.281867 0.163918 0.324352
O O4 0.165252 0.106023 0.427414
O O5 0.959108 0.944064 0.951449
O O6 0.742308 0.994814 0.789434
O O7 0.673210 0.937734 0.917572
O O8 0.235597 0.369923 0.046860
O O9 0.418920 0.302106 0.134671
O O10 0.283352 0.317770 0.901305
O O11 0.501276 0.368719 0.042615
O O12 0.334205 0.941230 0.369522
O O13 0.123349 0.260605 0.737228
O O14 0.000000 0.330253 0.750000
O O15 0.720413 0.426885 0.137691
O O16 0.500000 0.958105 0.250000
#
# Coordination Sequence:
#
# PCOD9272288 Si02
#       8
#     8   8   8   8   8   8   8   4
#     4  12  20  42  63  91 123 169 210 257 316 378
#     4  11  25  40  63  89 121 170 220 264 308 369
#     4  11  21  42  64  96 125 168 213 256 320 383
#     4  11  22  40  67  86 125 170 214 258 309 388
#     4  10  20  36  67  94 119 160 211 257 304 386
#     4  11  25  41  63  91 130 168 209 263 323 374
#     4  12  25  41  60  94 128 165 219 269 321 360
#     4  10  22  38  66  98 128 156 212 270 310 382
#
# _framework density 18.085377000000001
#
# number of rings (size 3 to 8) (size 9 to 14) (size 15 to 20)
#    0.400    0.533    5.333    3.200    1.867    2.667 
#    4.800    0.667    0.000    1.600    0.000    0.000 
#    0.000    0.000    0.000    0.000    0.000    0.000 
#
# Total GULP energy -167615.772861 kJ/mol
# GULP energy per Si atom -5587.192429 kJ/mol
# Density = 1.804421 g / cm^3
# Si number density = 18.085377 Si / 1000 Ang^3
#
#
#
# Elastic Constant Matrix: (Units=GPa)
#
#
# Indices 1 2 3 4 5 6 
#
# 1 75.7866 10.6783 11.4391 0.0000 6.6618 0.0000
# 2 10.6783 78.2087 41.2092 0.0000 5.9242 0.0000
# 3 11.4391 41.2092 79.3432 0.0000 13.3136 0.0000
# 4 0.0000 0.0000 0.0000 26.1483 0.0000 3.1231
# 5 6.6618 5.9242 13.3136 0.0000 30.4458 0.0000
# 6 0.0000 0.0000 0.0000 3.1231 0.0000 9.5326
#
#
#
# Elastic Compliance Matrix: (Units=1/GPa)
#
#
# Indices 1 2 3 4 5 6 
#
# 1 0.013714 -0.001185 -0.000968 0.000000 -0.002347 0.000000
# 2 -0.001185 0.017717 -0.009169 0.000000 0.000821 0.000000
# 3 -0.000968 -0.009169 0.018530 0.000000 -0.006107 0.000000
# 4 0.000000 0.000000 0.000000 0.039801 0.000000 -0.013040
# 5 -0.002347 0.000821 -0.006107 0.000000 0.035869 0.000000
# 6 0.000000 0.000000 0.000000 -0.013040 0.000000 0.109176
#
#
# Mechanical properties :
#
#
# Convention : Reuss Voigt Hill
#
# Bulk Modulus (GPa) = 36.60589 39.99906 38.30248
# Shear Modulus (GPa) = 18.75775 24.55947 21.65861
#
# Velocity S-wave (km/s) = 3.22402 3.68907 3.46436
# Velocity P-wave (km/s) = 5.84325 6.34905 6.10139
#
# Compressibility (1/GPa) = 0.02731801
#
# Stress axis : x y z
#
# Youngs Moduli (GPa) = 72.91665 56.44295 53.96686
#
# Poissons Ratio (x) = 0.06686 0.05225
# Poissons Ratio (y) = 0.08638 0.49481
# Poissons Ratio (z) = 0.07059 0.51752
#
# Static dielectric constant tensor:
#      x y z
#    x 1.610970 0.000000 0.018580 
#    y 0.000000 1.611050 0.000000 
#    z 0.018580 0.000000 1.602290 
# 
# From -- ./inp_files/82640.got.cif
#   From: 2010.05.17/outbox.cif.g08.bks.cpg/sg15_42_cif.got.tgz:82640.got - 2010.06.03 18:47:42.
