data_PCOD9272731
_publ_section_title
;
Structure prediction by ZEFSAII (Michael W. Deem and Ramdas Pophale) SiO2 
 PCOD9272731
Probable space group: C 2/C
;
_chemical_formula_sum "Si O2"
_cell_formula_units_Z 64
_cell_length_a 19.866271
_cell_length_b 9.945334
_cell_length_c 19.860517
_cell_angle_alpha 90.000000
_cell_angle_beta 118.714561
_cell_angle_gamma 90.000000
_cell_volume 3441.420980
_symmetry_space_group_name_H-M "C 2/C"
_symmetry_group_IT_number 15
_symmetry_cell_setting 'monoclinic'
loop_
_space_group_symop_operation_xyz
x,y,z
-x,y,1/2-z
-x,-y,-z
x,-y,1/2+z
1/2+x,1/2+y,z
1/2-x,1/2+y,1/2-z
1/2-x,1/2-y,-z
1/2+x,1/2-y,1/2+z
loop_
_atom_site_type_symbol
_atom_site_label
_atom_site_fract_x
_atom_site_fract_y
_atom_site_fract_z
Si Si1 0.613146 0.713928 0.924799
Si Si2 0.415172 0.931762 0.225370
Si Si3 0.146995 0.672790 0.061637
Si Si4 0.329146 0.334159 0.667446
Si Si5 0.657348 0.424389 0.978073
Si Si6 0.057834 0.669945 0.155273
Si Si7 0.410838 0.600031 0.729641
Si Si8 0.331937 0.985381 0.550292
O O1 0.531287 0.787820 0.893121
O O2 0.625501 0.672180 0.852975
O O3 0.672661 0.829749 0.972898
O O4 0.617597 0.569994 0.963258
O O5 0.500000 0.877701 0.250000
O O6 0.360222 0.805275 0.211731
O O7 0.381014 0.001401 0.141937
O O8 0.426676 0.042099 0.289141
O O9 0.237154 0.660052 0.123886
O O10 0.134627 0.820750 0.024658
O O11 0.095060 0.647819 0.101006
O O12 0.132468 0.569399 0.993786
O O13 0.354679 0.354009 0.600948
O O14 0.368207 0.460924 0.722155
O O15 0.748440 0.452914 0.024412
O O16 0.093328 0.798939 0.210410
O O17 0.500000 0.578222 0.750000
#
# Coordination Sequence:
#
# PCOD9272731 Si02
#       8
#     8   8   8   8   8   8   8   8
#     4  10  20  37  61  84 109 148 198 232 280 340
#     4  12  20  37  64  85 111 152 192 237 285 338
#     4  11  23  38  56  85 120 153 187 237 290 334
#     4  10  20  37  60  85 110 147 200 234 275 341
#     4  10  20  38  63  84 110 151 195 240 275 336
#     4  11  23  37  55  85 123 152 181 237 296 337
#     4   9  18  36  57  82 110 147 191 236 280 339
#     4  11  19  39  63  86 111 149 199 237 278 338
#
# _framework density 18.596969999999999
#
# number of rings (size 3 to 8) (size 9 to 14) (size 15 to 20)
#    0.000    1.500    5.000    1.875    0.000    2.000 
#    0.000    1.250    0.000    0.000    0.000    0.000 
#    0.000    0.000    0.000    0.000    0.000    0.000 
#
# Total GULP energy -178575.210209 kJ/mol
# GULP energy per Si atom -5580.475319 kJ/mol
# Density = 1.855464 g / cm^3
# Si number density = 18.596970 Si / 1000 Ang^3
#
#
#
# Elastic Constant Matrix: (Units=GPa)
#
#
# Indices 1 2 3 4 5 6 
#
# 1 51.2052 25.0350 24.6667 0.0000 -19.7510 0.0000
# 2 25.0350 107.0681 23.9007 0.0000 -10.7727 0.0000
# 3 24.6667 23.9007 49.4512 0.0000 -11.1014 0.0000
# 4 0.0000 0.0000 0.0000 40.2000 0.0000 10.7958
# 5 -19.7510 -10.7727 -11.1014 0.0000 20.6185 0.0000
# 6 0.0000 0.0000 0.0000 10.7958 0.0000 15.0974
#
#
#
# Elastic Compliance Matrix: (Units=1/GPa)
#
#
# Indices 1 2 3 4 5 6 
#
# 1 0.037151 -0.003510 -0.010530 0.000000 0.028084 0.000000
# 2 -0.003510 0.010981 -0.003439 0.000000 0.000523 0.000000
# 3 -0.010530 -0.003439 0.027833 0.000000 0.003102 0.000000
# 4 0.000000 0.000000 0.000000 0.030788 0.000000 -0.022016
# 5 0.028084 0.000523 0.003102 0.000000 0.077346 0.000000
# 6 0.000000 0.000000 0.000000 -0.022016 0.000000 0.081979
#
#
# Mechanical properties :
#
#
# Convention : Reuss Voigt Hill
#
# Bulk Modulus (GPa) = 24.38655 39.43661 31.91158
# Shear Modulus (GPa) = 15.88792 24.12466 20.00629
#
# Velocity S-wave (km/s) = 2.92606 3.60562 3.28347
# Velocity P-wave (km/s) = 4.95554 6.21176 5.61887
#
# Compressibility (1/GPa) = 0.04100622
#
# Stress axis : x y z
#
# Youngs Moduli (GPa) = 26.91752 91.06687 35.92883
#
# Poissons Ratio (x) = 0.31968 0.37832
# Poissons Ratio (y) = 0.09449 0.12355
# Poissons Ratio (z) = 0.28343 0.31316
#
# Static dielectric constant tensor:
#      x y z
#    x 1.617450 0.000000 0.030900 
#    y 0.000000 1.678230 0.000000 
#    z 0.030900 0.000000 1.655320 
# 
# From -- ./inp_files/251918.got.cif
#   From: 2010.05.17/outbox.cif.g08.bks.cpg/sg15_126_cif.got.tgz:251918.got - 2010.06.03 18:47:42.
