data_PCOD9272411
_publ_section_title
;
Structure prediction by ZEFSAII (Michael W. Deem and Ramdas Pophale) SiO2 
 PCOD9272411
Probable space group: C 2/C
;
_chemical_formula_sum "Si O2"
_cell_formula_units_Z 52
_cell_length_a 21.988452
_cell_length_b 12.789175
_cell_length_c 9.987021
_cell_angle_alpha 90.000000
_cell_angle_beta 106.428987
_cell_angle_gamma 90.000000
_cell_volume 2693.823847
_symmetry_space_group_name_H-M "C 2/C"
_symmetry_group_IT_number 15
_symmetry_cell_setting 'monoclinic'
loop_
_space_group_symop_operation_xyz
x,y,z
-x,y,1/2-z
-x,-y,-z
x,-y,1/2+z
1/2+x,1/2+y,z
1/2-x,1/2+y,1/2-z
1/2-x,1/2-y,-z
1/2+x,1/2-y,1/2+z
loop_
_atom_site_type_symbol
_atom_site_label
_atom_site_fract_x
_atom_site_fract_y
_atom_site_fract_z
Si Si1 0.000000 0.893680 0.250000
Si Si2 0.807759 0.598542 0.577720
Si Si3 0.663904 0.676794 0.518316
Si Si4 0.668822 0.091503 0.604246
Si Si5 0.401134 0.294356 0.999725
Si Si6 0.392030 0.556015 0.241341
Si Si7 0.811575 0.132950 0.679428
O O1 0.034525 0.823673 0.382897
O O2 0.947794 0.971324 0.280616
O O3 0.731842 0.618515 0.540609
O O4 0.833904 0.711597 0.551722
O O5 0.832517 0.567043 0.739272
O O6 0.826881 0.510870 0.483703
O O7 0.612501 0.606915 0.409057
O O8 0.658672 0.691667 0.674009
O O9 0.613968 0.172943 0.532448
O O10 0.736826 0.149402 0.626163
O O11 0.398008 0.357014 0.858461
O O12 0.346428 0.337678 0.064975
O O13 0.328001 0.488351 0.221094
#
# Coordination Sequence:
#
# PCOD9272411 Si02
#       7
#     4   8   8   8   8   8   8
#     4  10  24  40  64  86 116 162 208 264 304 344
#     4  10  22  36  57  87 124 169 193 239 293 372
#     4  10  20  37  55  88 129 158 197 238 298 365
#     4  11  22  36  58  87 126 161 201 238 304 368
#     4  11  23  38  58  90 120 158 206 257 296 358
#     4  11  20  40  61  91 122 158 203 251 306 357
#     4  10  21  32  58  90 125 163 188 241 305 370
#
# _framework density 19.303414
#
# number of rings (size 3 to 8) (size 9 to 14) (size 15 to 20)
#    0.000    1.538    3.077    2.769    4.308    1.231 
#    0.000    0.000    0.000    1.846    0.000    0.000 
#    0.000    0.000    0.000    0.000    0.000    0.000 
#
# Total GULP energy -145156.963981 kJ/mol
# GULP energy per Si atom -5582.960153 kJ/mol
# Density = 1.925948 g / cm^3
# Si number density = 19.303414 Si / 1000 Ang^3
#
#
#
# Elastic Constant Matrix: (Units=GPa)
#
#
# Indices 1 2 3 4 5 6 
#
# 1 44.7339 26.5925 24.1732 0.0000 11.8033 0.0000
# 2 26.5925 103.9536 62.8761 0.0000 9.3755 0.0000
# 3 24.1732 62.8761 101.6387 0.0000 8.4962 0.0000
# 4 0.0000 0.0000 0.0000 27.6920 0.0000 3.2733
# 5 11.8033 9.3755 8.4962 0.0000 23.1213 0.0000
# 6 0.0000 0.0000 0.0000 3.2733 0.0000 31.5282
#
#
#
# Elastic Compliance Matrix: (Units=1/GPa)
#
#
# Indices 1 2 3 4 5 6 
#
# 1 0.030113 -0.004608 -0.003283 0.000000 -0.012297 0.000000
# 2 -0.004608 0.016257 -0.008880 0.000000 -0.000977 0.000000
# 3 -0.003283 -0.008880 0.016168 0.000000 -0.000665 0.000000
# 4 0.000000 0.000000 0.000000 0.036560 0.000000 -0.003796
# 5 -0.012297 -0.000977 -0.000665 0.000000 0.050168 0.000000
# 6 0.000000 0.000000 0.000000 -0.003796 0.000000 0.032112
#
#
# Mechanical properties :
#
#
# Convention : Reuss Voigt Hill
#
# Bulk Modulus (GPa) = 34.48692 53.06775 43.77733
# Shear Modulus (GPa) = 22.26320 25.58060 23.92190
#
# Velocity S-wave (km/s) = 3.39976 3.64426 3.52413
# Velocity P-wave (km/s) = 5.77197 6.72745 6.26794
#
# Compressibility (1/GPa) = 0.02899650
#
# Stress axis : x y z
#
# Youngs Moduli (GPa) = 33.20860 61.51046 61.84963
#
# Poissons Ratio (x) = 0.28346 0.20306
# Poissons Ratio (y) = 0.15304 0.54920
# Poissons Ratio (z) = 0.10903 0.54618
#
# Static dielectric constant tensor:
#      x y z
#    x 1.690270 0.000000 0.002770 
#    y 0.000000 1.660870 0.000000 
#    z 0.002770 0.000000 1.693360 
# 
# From -- ./inp_files/65188.got.cif
#   From: 2010.05.17/outbox.cif.g08.bks.cpg/sg15_33_cif.got.tgz:65188.got - 2010.06.03 18:47:42.
