data_PCOD9272612
_publ_section_title
;
Structure prediction by ZEFSAII (Michael W. Deem and Ramdas Pophale) SiO2 
 PCOD9272612
Probable space group: C 2/C
;
_chemical_formula_sum "Si O2"
_cell_formula_units_Z 40
_cell_length_a 7.877710
_cell_length_b 27.567527
_cell_length_c 6.778219
_cell_angle_alpha 90.000000
_cell_angle_beta 98.963845
_cell_angle_gamma 90.000000
_cell_volume 1454.040951
_symmetry_space_group_name_H-M "C 2/C"
_symmetry_group_IT_number 15
_symmetry_cell_setting 'monoclinic'
loop_
_space_group_symop_operation_xyz
x,y,z
-x,y,1/2-z
-x,-y,-z
x,-y,1/2+z
1/2+x,1/2+y,z
1/2-x,1/2+y,1/2-z
1/2-x,1/2-y,-z
1/2+x,1/2-y,1/2+z
loop_
_atom_site_type_symbol
_atom_site_label
_atom_site_fract_x
_atom_site_fract_y
_atom_site_fract_z
Si Si1 0.801134 0.628972 0.667452
Si Si2 0.190392 0.563248 0.364437
Si Si3 0.670652 0.531214 0.507550
Si Si4 0.204974 0.662681 0.287940
Si Si5 0.200561 0.235624 0.719696
O O1 0.701698 0.576590 0.660004
O O2 0.763182 0.644740 0.431126
O O3 0.773595 0.681715 0.762647
O O4 0.000000 0.615734 0.750000
O O5 0.189717 0.512236 0.473021
O O6 0.247800 0.617257 0.439547
O O7 0.000000 0.571305 0.250000
O O8 0.312799 0.553023 0.203701
O O9 0.500000 0.500000 0.500000
O O10 0.280518 0.716062 0.338824
O O11 0.000000 0.670427 0.250000
O O12 0.250000 0.250000 0.500000
O O13 0.000000 0.232335 0.750000
#
# Coordination Sequence:
#
# PCOD9272612 Si02
#       5
#     8   8   8   8   8
#     4  10  21  38  60  88 120 159 205 255 311 373
#     4  10  20  37  59  82 112 156 202 248 301 366
#     4  11  23  38  56  84 120 157 200 253 309 368
#     4   8  17  36  58  82 115 153 196 246 301 364
#     4   9  18  37  61  88 124 163 204 258 313 371
#
# _framework density 27.509543000000001
#
# number of rings (size 3 to 8) (size 9 to 14) (size 15 to 20)
#    0.000    2.400    0.000    1.800    0.000    4.800 
#    0.000   17.000    0.000    0.000    0.000    0.000 
#    0.000    0.000    0.000    0.000    0.000    0.000 
#
# Total GULP energy -111491.686246 kJ/mol
# GULP energy per Si atom -5574.584312 kJ/mol
# Density = 2.744693 g / cm^3
# Si number density = 27.509543 Si / 1000 Ang^3
#
#
#
# Elastic Constant Matrix: (Units=GPa)
#
#
# Indices 1 2 3 4 5 6 
#
# 1 111.5442 60.3759 14.9362 0.0000 -15.5492 0.0000
# 2 60.3759 362.3466 63.7040 0.0000 16.7603 0.0000
# 3 14.9362 63.7040 61.1883 0.0000 -1.1187 0.0000
# 4 0.0000 0.0000 0.0000 106.2128 0.0000 34.8094
# 5 -15.5492 16.7603 -1.1187 0.0000 31.1101 0.0000
# 6 0.0000 0.0000 0.0000 34.8094 0.0000 52.0548
#
#
#
# Elastic Compliance Matrix: (Units=1/GPa)
#
#
# Indices 1 2 3 4 5 6 
#
# 1 0.011071 -0.002078 -0.000417 0.000000 0.006638 0.000000
# 2 -0.002078 0.003891 -0.003603 0.000000 -0.003264 0.000000
# 3 -0.000417 -0.003603 0.020241 0.000000 0.002460 0.000000
# 4 0.000000 0.000000 0.000000 0.012058 0.000000 -0.008063
# 5 0.006638 -0.003264 0.002460 0.000000 0.037309 0.000000
# 6 0.000000 0.000000 0.000000 -0.008063 0.000000 0.024602
#
#
# Mechanical properties :
#
#
# Convention : Reuss Voigt Hill
#
# Bulk Modulus (GPa) = 43.46774 90.34570 66.90672
# Shear Modulus (GPa) = 38.74860 64.27973 51.51417
#
# Velocity S-wave (km/s) = 3.75714 4.83912 4.33204
# Velocity P-wave (km/s) = 5.88700 8.00847 7.02824
#
# Compressibility (1/GPa) = 0.02300557
#
# Stress axis : x y z
#
# Youngs Moduli (GPa) = 90.32351 257.03588 49.40526
#
# Poissons Ratio (x) = 0.53424 0.02062
# Poissons Ratio (y) = 0.18773 0.17800
# Poissons Ratio (z) = 0.03769 0.92605
#
# Static dielectric constant tensor:
#      x y z
#    x 1.964640 0.000000 0.280900 
#    y 0.000000 2.304240 0.000000 
#    z 0.280900 0.000000 1.995900 
# 
# From -- ./inp_files/23660.got.cif
#   From: 2010.05.17/outbox.cif.g08.bks.cpg/sg15_12_cif.got.tgz:23660.got - 2010.06.03 18:47:42.
