data_PCOD9272563
_publ_section_title
;
Structure prediction by ZEFSAII (Michael W. Deem and Ramdas Pophale) SiO2 
 PCOD9272563
Probable space group: C 2/C
;
_chemical_formula_sum "Si O2"
_cell_formula_units_Z 44
_cell_length_a 12.080909
_cell_length_b 18.146505
_cell_length_c 11.839251
_cell_angle_alpha 90.000000
_cell_angle_beta 39.978102
_cell_angle_gamma 90.000000
_cell_volume 1667.579093
_symmetry_space_group_name_H-M "C 2/C"
_symmetry_group_IT_number 15
_symmetry_cell_setting 'monoclinic'
loop_
_space_group_symop_operation_xyz
x,y,z
-x,y,1/2-z
-x,-y,-z
x,-y,1/2+z
1/2+x,1/2+y,z
1/2-x,1/2+y,1/2-z
1/2-x,1/2-y,-z
1/2+x,1/2-y,1/2+z
loop_
_atom_site_type_symbol
_atom_site_label
_atom_site_fract_x
_atom_site_fract_y
_atom_site_fract_z
Si Si1 0.997389 0.376365 0.496440
Si Si2 0.732814 0.252745 0.377356
Si Si3 0.223140 0.047371 0.363465
Si Si4 0.000000 0.442070 0.250000
Si Si5 0.510501 0.629269 0.109988
Si Si6 0.689753 0.833313 0.543432
O O1 0.979984 0.395235 0.379103
O O2 0.169858 0.366656 0.433643
O O3 0.909183 0.296459 0.574261
O O4 0.881569 0.435118 0.653408
O O5 0.750000 0.250000 0.500000
O O6 0.678700 0.338498 0.414426
O O7 0.896130 0.205428 0.205816
O O8 0.065034 0.060681 0.400130
O O9 0.192350 0.115267 0.472566
O O10 0.321805 0.987637 0.365614
O O11 0.500000 0.607129 0.250000
O O12 0.500000 0.838643 0.750000
O O13 0.750000 0.750000 0.500000
#
# Coordination Sequence:
#
# PCOD9272563 Si02
#       6
#     8   8   8   4   8   8
#     4  10  21  35  57  92 120 164 215 260 313 372
#     4   9  18  32  55  86 119 144 197 255 317 368
#     4  10  20  37  58  86 124 164 209 264 315 367
#     4  12  22  36  62  90 128 170 228 262 296 392
#     4   9  18  33  57  86 120 155 193 260 323 377
#     4  10  20  38  63  94 127 161 203 265 334 378
#
# _framework density 26.385555
#
# number of rings (size 3 to 8) (size 9 to 14) (size 15 to 20)
#    0.000    2.182    2.727    1.636    3.818    0.000 
#    0.000    0.000    0.000   10.909    0.000    0.000 
#    0.000    0.000    0.000    0.000    0.000    0.000 
#
# Total GULP energy -122592.895611 kJ/mol
# GULP energy per Si atom -5572.404346 kJ/mol
# Density = 2.632550 g / cm^3
# Si number density = 26.385555 Si / 1000 Ang^3
#
#
#
# Elastic Constant Matrix: (Units=GPa)
#
#
# Indices 1 2 3 4 5 6 
#
# 1 143.5611 31.8000 27.1581 -0.0018 42.6916 0.0010
# 2 31.8000 87.0702 30.3376 -0.0030 7.3066 0.0020
# 3 27.1581 30.3376 75.3397 -0.0013 42.5298 0.0006
# 4 -0.0018 -0.0030 -0.0013 22.4534 -0.0002 7.8293
# 5 42.6916 7.3066 42.5298 -0.0002 38.2930 0.0002
# 6 0.0010 0.0020 0.0006 7.8293 0.0002 38.3326
#
#
#
# Elastic Compliance Matrix: (Units=1/GPa)
#
#
# Indices 1 2 3 4 5 6 
#
# 1 0.017166 -0.009999 0.020279 0.000001 -0.039752 0.000000
# 2 -0.009999 0.020508 -0.023423 0.000001 0.033249 -0.000001
# 3 0.020279 -0.023423 0.068719 0.000002 -0.094461 0.000000
# 4 0.000001 0.000001 0.000002 0.047952 -0.000003 -0.009794
# 5 -0.039752 0.033249 -0.094461 -0.000003 0.169000 0.000001
# 6 0.000000 -0.000001 0.000000 -0.009794 0.000001 0.028088
#
#
# Mechanical properties :
#
#
# Convention : Reuss Voigt Hill
#
# Bulk Modulus (GPa) = 12.48350 53.84028 33.16189
# Shear Modulus (GPa) = 12.36339 34.26082 23.31210
#
# Velocity S-wave (km/s) = 2.16699 3.60734 2.97563
# Velocity P-wave (km/s) = 3.31701 6.14817 4.93977
#
# Compressibility (1/GPa) = 0.08010577
#
# Stress axis : x y z
#
# Youngs Moduli (GPa) = 58.25617 48.76161 14.55208
#
# Poissons Ratio (x) = 0.48757 -0.29510
# Poissons Ratio (y) = 0.58251 0.34085
# Poissons Ratio (z) = -1.18137 1.14214
#
# Static dielectric constant tensor:
#      x y z
#    x 2.188360 0.000000 -0.147640 
#    y 0.000000 2.082000 0.000000 
#    z -0.147640 0.000000 2.265130 
# 
# From -- ./inp_files/88715.got.cif
#   From: 2010.05.17/outbox.cif.g08.bks.cpg/sg15_45_cif.got.tgz:88715.got - 2010.06.03 18:47:42.
