data_PCOD9272190
_publ_section_title
;
Structure prediction by ZEFSAII (Michael W. Deem and Ramdas Pophale) SiO2 
 PCOD9272190
Probable space group: C 2/C
;
_chemical_formula_sum "Si O2"
_cell_formula_units_Z 60
_cell_length_a 26.500323
_cell_length_b 12.105883
_cell_length_c 16.448356
_cell_angle_alpha 90.000000
_cell_angle_beta 149.809481
_cell_angle_gamma 90.000000
_cell_volume 2653.577915
_symmetry_space_group_name_H-M "C 2/C"
_symmetry_group_IT_number 15
_symmetry_cell_setting 'monoclinic'
loop_
_space_group_symop_operation_xyz
x,y,z
-x,y,1/2-z
-x,-y,-z
x,-y,1/2+z
1/2+x,1/2+y,z
1/2-x,1/2+y,1/2-z
1/2-x,1/2-y,-z
1/2+x,1/2-y,1/2+z
loop_
_atom_site_type_symbol
_atom_site_label
_atom_site_fract_x
_atom_site_fract_y
_atom_site_fract_z
Si Si1 0.000000 0.752194 0.250000
Si Si2 0.658670 0.439853 0.095710
Si Si3 0.854393 0.526841 0.654552
Si Si4 0.477719 0.128678 0.056432
Si Si5 0.373651 0.231475 0.364320
Si Si6 0.809278 0.874288 0.978007
Si Si7 0.798814 0.581720 0.401245
Si Si8 0.301193 0.801473 0.196677
O O1 0.039449 0.682185 0.380290
O O2 0.097228 0.815795 0.349794
O O3 0.597732 0.353819 0.065561
O O4 0.633891 0.549216 0.010218
O O5 0.742032 0.487138 0.273175
O O6 0.697796 0.358134 0.079592
O O7 0.958495 0.481701 0.836345
O O8 0.765908 0.448027 0.570315
O O9 0.851219 0.531276 0.553244
O O10 0.834020 0.651611 0.656161
O O11 0.551725 0.196722 0.101556
O O12 0.376986 0.138060 0.864540
O O13 0.262896 0.211955 0.170259
O O14 0.368553 0.147331 0.433942
O O15 0.715496 0.672355 0.314312
#
# Coordination Sequence:
#
# PCOD9272190 Si02
#       8
#     4   8   8   8   8   8   8   8
#     4  12  24  38  58  88 132 146 206 260 302 348
#     4   9  18  36  63  79 115 163 202 234 303 374
#     4  10  22  38  65  88 117 162 206 245 311 370
#     4  11  24  38  59  92 120 161 197 262 307 362
#     4   9  20  39  60  83 123 158 201 243 308 366
#     4   9  21  39  56  90 121 158 194 260 296 357
#     4  10  20  36  65  89 111 166 205 245 301 379
#     4  10  21  42  58  85 129 151 199 256 308 355
#
# _framework density 22.610980999999999
#
# number of rings (size 3 to 8) (size 9 to 14) (size 15 to 20)
#    0.000    2.133    0.000    4.000    5.600    1.067 
#    2.400    1.333    0.000    0.000    0.000    0.000 
#    0.000    0.000    0.000    0.000    0.000    0.000 
#
# Total GULP energy -167223.352627 kJ/mol
# GULP energy per Si atom -5574.111754 kJ/mol
# Density = 2.255952 g / cm^3
# Si number density = 22.610981 Si / 1000 Ang^3
#
#
#
# Elastic Constant Matrix: (Units=GPa)
#
#
# Indices 1 2 3 4 5 6 
#
# 1 67.8189 23.3844 14.3092 0.0000 -13.6404 0.0000
# 2 23.3844 61.8160 1.0519 0.0000 10.1281 0.0000
# 3 14.3092 1.0519 39.1389 0.0000 1.5772 0.0000
# 4 0.0000 0.0000 0.0000 22.5129 0.0000 1.5218
# 5 -13.6404 10.1281 1.5772 0.0000 36.0679 0.0000
# 6 0.0000 0.0000 0.0000 1.5218 0.0000 30.5263
#
#
#
# Elastic Compliance Matrix: (Units=1/GPa)
#
#
# Indices 1 2 3 4 5 6 
#
# 1 0.022409 -0.010255 -0.008389 0.000000 0.011721 0.000000
# 2 -0.010255 0.021653 0.003575 0.000000 -0.010115 0.000000
# 3 -0.008389 0.003575 0.028740 0.000000 -0.005433 0.000000
# 4 0.000000 0.000000 0.000000 0.044569 0.000000 -0.002222
# 5 0.011721 -0.010115 -0.005433 0.000000 0.035236 0.000000
# 6 0.000000 0.000000 0.000000 -0.002222 0.000000 0.032869
#
#
# Mechanical properties :
#
#
# Convention : Reuss Voigt Hill
#
# Bulk Modulus (GPa) = 23.43956 27.36276 25.40116
# Shear Modulus (GPa) = 21.75474 26.48997 24.12235
#
# Velocity S-wave (km/s) = 3.10519 3.42651 3.26980
# Velocity P-wave (km/s) = 4.82133 5.27090 5.05112
#
# Compressibility (1/GPa) = 0.04266291
#
# Stress axis : x y z
#
# Youngs Moduli (GPa) = 44.62591 46.18376 34.79467
#
# Poissons Ratio (x) = 0.47359 0.29190
# Poissons Ratio (y) = 0.45762 -0.12438
# Poissons Ratio (z) = 0.37438 -0.16509
#
# Static dielectric constant tensor:
#      x y z
#    x 1.866160 0.000000 0.050390 
#    y 0.000000 1.892320 0.000000 
#    z 0.050390 0.000000 1.858250 
# 
# From -- ./inp_files/210659.got.cif
#   From: 2010.05.17/outbox.cif.g08.bks.cpg/sg15_106_cif.got.tgz:210659.got - 2010.06.03 18:47:42.
