data_PCOD9272817
_publ_section_title
;
Structure prediction by ZEFSAII (Michael W. Deem and Ramdas Pophale) SiO2 
 PCOD9272817
Probable space group: C 2/C
;
_chemical_formula_sum "Si O2"
_cell_formula_units_Z 64
_cell_length_a 12.735314
_cell_length_b 13.488258
_cell_length_c 21.275338
_cell_angle_alpha 90.000000
_cell_angle_beta 67.861835
_cell_angle_gamma 90.000000
_cell_volume 3385.191606
_symmetry_space_group_name_H-M "C 2/C"
_symmetry_group_IT_number 15
_symmetry_cell_setting 'monoclinic'
loop_
_space_group_symop_operation_xyz
x,y,z
-x,y,1/2-z
-x,-y,-z
x,-y,1/2+z
1/2+x,1/2+y,z
1/2-x,1/2+y,1/2-z
1/2-x,1/2-y,-z
1/2+x,1/2-y,1/2+z
loop_
_atom_site_type_symbol
_atom_site_label
_atom_site_fract_x
_atom_site_fract_y
_atom_site_fract_z
Si Si1 0.806099 0.246423 0.225224
Si Si2 0.627470 0.489549 0.948247
Si Si3 0.791995 0.381839 0.346884
Si Si4 0.122435 0.426187 0.749847
Si Si5 0.640473 0.940306 0.368399
Si Si6 0.511611 0.650250 0.387820
Si Si7 0.718871 0.538362 0.056171
Si Si8 0.412892 0.845620 0.450704
O O1 0.791289 0.294331 0.296987
O O2 0.707429 0.167021 0.234013
O O3 0.814393 0.340393 0.175869
O O4 0.928167 0.194570 0.187050
O O5 0.670879 0.586679 0.902319
O O6 0.614946 0.401047 0.901954
O O7 0.500000 0.500000 0.000000
O O8 0.704238 0.479822 0.993090
O O9 0.836193 0.482708 0.303868
O O10 0.868796 0.355698 0.389047
O O11 0.118402 0.477317 0.819698
O O12 0.000000 0.396604 0.750000
O O13 0.522205 0.916017 0.429825
O O14 0.730375 0.976427 0.398832
O O15 0.405237 0.579667 0.398779
O O16 0.459082 0.734635 0.444533
O O17 0.810201 0.624526 0.019133
#
# Coordination Sequence:
#
# PCOD9272817 Si02
#       8
#     8   8   8   8   8   8   8   8
#     4  10  23  39  60  89 122 154 208 253 300 375
#     4   9  19  39  63  82 123 161 194 245 315 359
#     4  10  20  39  64  87 113 165 200 248 305 356
#     4  11  21  41  60  82 123 161 197 248 310 368
#     4  10  22  39  58  91 122 157 204 253 301 361
#     4  10  20  37  60  90 117 155 204 251 300 359
#     4  10  21  38  61  90 122 157 199 254 305 361
#     4  10  20  37  63  86 124 153 210 245 298 364
#
# _framework density 18.905873
#
# number of rings (size 3 to 8) (size 9 to 14) (size 15 to 20)
#    0.000    2.000    2.500    0.750    1.750    0.000 
#    4.500    2.500    0.000    0.000    0.000    0.000 
#    0.000    0.000    0.000    0.000    0.000    0.000 
#
# Total GULP energy -178427.998970 kJ/mol
# GULP energy per Si atom -5575.874968 kJ/mol
# Density = 1.886284 g / cm^3
# Si number density = 18.905873 Si / 1000 Ang^3
#
#
#
# Elastic Constant Matrix: (Units=GPa)
#
#
# Indices 1 2 3 4 5 6 
#
# 1 110.6712 54.2881 39.6234 0.0000 -5.7376 0.0000
# 2 54.2881 79.1619 27.5916 0.0000 3.2506 0.0000
# 3 39.6234 27.5916 71.1076 0.0000 0.7628 0.0000
# 4 0.0000 0.0000 0.0000 16.9731 0.0000 -12.1934
# 5 -5.7376 3.2506 0.7628 0.0000 28.0393 0.0000
# 6 0.0000 0.0000 0.0000 -12.1934 0.0000 32.5883
#
#
#
# Elastic Compliance Matrix: (Units=1/GPa)
#
#
# Indices 1 2 3 4 5 6 
#
# 1 0.015560 -0.009034 -0.005212 0.000000 0.004373 0.000000
# 2 -0.009034 0.019919 -0.002652 0.000000 -0.004086 0.000000
# 3 -0.005212 -0.002652 0.018010 0.000000 -0.001249 0.000000
# 4 0.000000 0.000000 0.000000 0.080575 0.000000 0.030148
# 5 0.004373 -0.004086 -0.001249 0.000000 0.037067 0.000000
# 6 0.000000 0.000000 0.000000 0.030148 0.000000 0.041966
#
#
# Mechanical properties :
#
#
# Convention : Reuss Voigt Hill
#
# Bulk Modulus (GPa) = 50.77560 55.99409 53.38485
# Shear Modulus (GPa) = 19.72723 24.81599 22.27161
#
# Velocity S-wave (km/s) = 3.23374 3.62692 3.43596
# Velocity P-wave (km/s) = 6.39204 6.87176 6.63623
#
# Compressibility (1/GPa) = 0.01969450
#
# Stress axis : x y z
#
# Youngs Moduli (GPa) = 64.26779 50.20217 55.52524
#
# Poissons Ratio (x) = 0.45351 0.28940
# Poissons Ratio (y) = 0.58057 0.14723
# Poissons Ratio (z) = 0.33497 0.13312
#
# Static dielectric constant tensor:
#      x y z
#    x 1.646630 0.000000 -0.008700 
#    y 0.000000 1.691160 0.000000 
#    z -0.008700 0.000000 1.697470 
# 
# From -- ./inp_files/238725.got.cif
#   From: 2010.05.17/outbox.cif.g08.bks.cpg/sg15_120_cif.got.tgz:238725.got - 2010.06.03 18:47:42.
