data_PCOD9272614
_publ_section_title
;
Structure prediction by ZEFSAII (Michael W. Deem and Ramdas Pophale) SiO2 
 PCOD9272614
Probable space group: C 2/C
;
_chemical_formula_sum "Si O2"
_cell_formula_units_Z 36
_cell_length_a 7.994509
_cell_length_b 30.828441
_cell_length_c 9.251868
_cell_angle_alpha 90.000000
_cell_angle_beta 48.482592
_cell_angle_gamma 90.000000
_cell_volume 1707.309093
_symmetry_space_group_name_H-M "C 2/C"
_symmetry_group_IT_number 15
_symmetry_cell_setting 'monoclinic'
loop_
_space_group_symop_operation_xyz
x,y,z
-x,y,1/2-z
-x,-y,-z
x,-y,1/2+z
1/2+x,1/2+y,z
1/2-x,1/2+y,1/2-z
1/2-x,1/2-y,-z
1/2+x,1/2-y,1/2+z
loop_
_atom_site_type_symbol
_atom_site_label
_atom_site_fract_x
_atom_site_fract_y
_atom_site_fract_z
Si Si1 0.234610 0.849400 0.880754
Si Si2 0.140845 0.695603 0.445847
Si Si3 0.500000 0.488424 0.750000
Si Si4 0.827733 0.791318 0.160031
Si Si5 0.234317 0.947835 0.888709
O O1 0.500000 0.841775 0.750000
O O2 0.234729 0.842467 0.707993
O O3 0.169449 0.898062 0.958271
O O4 0.060951 0.815506 0.048329
O O5 0.162499 0.739164 0.335628
O O6 0.258065 0.702380 0.532309
O O7 0.878641 0.690174 0.630013
O O8 0.650186 0.460732 0.776115
O O9 0.637550 0.519350 0.562875
O O10 0.500000 0.949854 0.750000
#
# Coordination Sequence:
#
# PCOD9272614 Si02
#       5
#     8   8   4   8   8
#     4  11  24  37  58  90 128 162 199 259 310 375
#     4  10  20  37  59  82 113 163 212 255 299 350
#     4  10  22  44  72  96 124 174 200 268 332 388
#     4  10  20  37  59  82 114 161 213 255 296 360
#     4  10  23  42  68  99 131 164 213 263 322 393
#
# _framework density 21.085813000000002
#
# number of rings (size 3 to 8) (size 9 to 14) (size 15 to 20)
#    0.000    1.778    2.222    1.333    3.111    5.333 
#    0.000    0.000    0.000    0.000    0.000    0.000 
#    0.000    0.000    0.000    0.000    0.000    0.000 
#
# Total GULP energy -100496.855529 kJ/mol
# GULP energy per Si atom -5583.158641 kJ/mol
# Density = 2.103782 g / cm^3
# Si number density = 21.085813 Si / 1000 Ang^3
#
#
#
# Elastic Constant Matrix: (Units=GPa)
#
#
# Indices 1 2 3 4 5 6 
#
# 1 113.8956 26.0299 20.9482 0.0000 -13.0013 0.0000
# 2 26.0299 65.5298 16.2654 0.0000 -20.0284 0.0000
# 3 20.9482 16.2654 64.9927 0.0000 -7.8489 0.0000
# 4 0.0000 0.0000 0.0000 50.8145 0.0000 14.5185
# 5 -13.0013 -20.0284 -7.8489 0.0000 33.1506 0.0000
# 6 0.0000 0.0000 0.0000 14.5185 0.0000 10.7555
#
#
#
# Elastic Compliance Matrix: (Units=1/GPa)
#
#
# Indices 1 2 3 4 5 6 
#
# 1 0.010060 -0.002923 -0.002314 0.000000 0.001632 0.000000
# 2 -0.002923 0.020333 -0.002884 0.000000 0.010455 0.000000
# 3 -0.002314 -0.002884 0.017021 0.000000 0.001380 0.000000
# 4 0.000000 0.000000 0.000000 0.032034 0.000000 -0.043242
# 5 0.001632 0.010455 0.001380 0.000000 0.037449 0.000000
# 6 0.000000 0.000000 0.000000 -0.043242 0.000000 0.151347
#
#
# Mechanical properties :
#
#
# Convention : Reuss Voigt Hill
#
# Bulk Modulus (GPa) = 32.08048 41.21168 36.64608
# Shear Modulus (GPa) = 16.95636 31.02244 23.98940
#
# Velocity S-wave (km/s) = 2.83885 3.83984 3.37665
# Velocity P-wave (km/s) = 5.09830 6.26469 5.71135
#
# Compressibility (1/GPa) = 0.03117160
#
# Stress axis : x y z
#
# Youngs Moduli (GPa) = 99.40536 49.18219 58.75259
#
# Poissons Ratio (x) = 0.14376 0.13595
# Poissons Ratio (y) = 0.29056 0.16943
# Poissons Ratio (z) = 0.23001 0.14183
#
# Static dielectric constant tensor:
#      x y z
#    x 1.866370 0.000000 0.017610 
#    y 0.000000 1.729170 0.000000 
#    z 0.017610 0.000000 1.744020 
# 
# From -- ./inp_files/80416.got.cif
#   From: 2010.05.17/outbox.cif.g08.bks.cpg/sg15_41_cif.got.tgz:80416.got - 2010.06.03 18:47:42.
