data_PCOD9272137
_publ_section_title
;
Structure prediction by ZEFSAII (Michael W. Deem and Ramdas Pophale) SiO2 
 PCOD9272137
Probable space group: C 2/C
;
_chemical_formula_sum "Si O2"
_cell_formula_units_Z 44
_cell_length_a 5.442551
_cell_length_b 21.093158
_cell_length_c 19.046158
_cell_angle_alpha 90.000000
_cell_angle_beta 66.675458
_cell_angle_gamma 90.000000
_cell_volume 2007.821687
_symmetry_space_group_name_H-M "C 2/C"
_symmetry_group_IT_number 15
_symmetry_cell_setting 'monoclinic'
loop_
_space_group_symop_operation_xyz
x,y,z
-x,y,1/2-z
-x,-y,-z
x,-y,1/2+z
1/2+x,1/2+y,z
1/2-x,1/2+y,1/2-z
1/2-x,1/2-y,-z
1/2+x,1/2-y,1/2+z
loop_
_atom_site_type_symbol
_atom_site_label
_atom_site_fract_x
_atom_site_fract_y
_atom_site_fract_z
Si Si1 0.407079 0.984524 0.840502
Si Si2 0.252777 0.864670 0.684057
Si Si3 0.000000 0.257237 0.750000
Si Si4 0.844820 0.817432 0.394595
Si Si5 0.118908 0.707921 0.455920
Si Si6 0.911134 0.955530 0.341847
O O1 0.500000 0.998868 0.750000
O O2 0.496973 0.912266 0.844178
O O3 0.597062 0.025299 0.871304
O O4 0.092280 0.998718 0.870234
O O5 0.319954 0.804407 0.724575
O O6 0.206113 0.838728 0.611302
O O7 0.000000 0.897275 0.750000
O O8 0.187105 0.214002 0.678990
O O9 0.600589 0.830062 0.474856
O O10 0.969222 0.885473 0.364949
O O11 0.997288 0.760993 0.417745
O O12 0.250000 0.750000 0.500000
O O13 0.000000 0.956424 0.250000
#
# Coordination Sequence:
#
# PCOD9272137 Si02
#       6
#     8   8   4   8   8   8
#     4  10  21  38  63  95 128 165 216 272 324 374
#     4  11  21  38  64  92 123 168 223 268 322 402
#     4  10  20  36  64  92 120 162 220 264 328 394
#     4  10  21  40  60  93 127 165 217 269 329 393
#     4  10  23  40  61  89 133 172 208 274 335 380
#     4  10  21  39  64  96 128 166 213 273 324 384
#
# _framework density 21.914294999999999
#
# number of rings (size 3 to 8) (size 9 to 14) (size 15 to 20)
#    0.000    1.818    1.818    2.727    2.545    0.000 
#    0.000    1.818    0.000    0.000    0.000    0.000 
#    0.000    0.000    0.000    0.000    0.000    0.000 
#
# Total GULP energy -122573.300386 kJ/mol
# GULP energy per Si atom -5571.513654 kJ/mol
# Density = 2.186442 g / cm^3
# Si number density = 21.914295 Si / 1000 Ang^3
#
#
#
# Elastic Constant Matrix: (Units=GPa)
#
#
# Indices 1 2 3 4 5 6 
#
# 1 65.2128 14.9860 26.8747 0.0000 6.7001 0.0000
# 2 14.9860 91.0742 45.6732 0.0000 -4.6980 0.0000
# 3 26.8747 45.6732 91.2542 0.0000 7.5544 0.0000
# 4 0.0000 0.0000 0.0000 -15.4635 0.0000 -51.5321
# 5 6.7001 -4.6980 7.5544 0.0000 12.9109 0.0000
# 6 0.0000 0.0000 0.0000 -51.5321 0.0000 -59.4133
#
#
#
# Elastic Compliance Matrix: (Units=1/GPa)
#
#
# Indices 1 2 3 4 5 6 
#
# 1 0.018075 -0.001340 -0.004031 0.000000 -0.007509 0.000000
# 2 -0.001340 0.016135 -0.008643 0.000000 0.011624 0.000000
# 3 -0.004031 -0.008643 0.017401 0.000000 -0.011235 0.000000
# 4 0.000000 0.000000 0.000000 0.034208 0.000000 -0.029670
# 5 -0.007509 0.011624 -0.011235 0.000000 0.092154 0.000000
# 6 0.000000 0.000000 0.000000 -0.029670 0.000000 0.008903
#
#
# Mechanical properties :
#
#
# Convention : Reuss Voigt Hill
#
# Bulk Modulus (GPa) = 42.40308 46.95653 44.67980
# Shear Modulus (GPa) = 22.44508 -1.72604 10.35952
#
# Velocity S-wave (km/s) = 3.20382 -0.88845 2.17659
# Velocity P-wave (km/s) = 5.75130 4.51901 5.17198
#
# Compressibility (1/GPa) = 0.02358319
#
# Stress axis : x y z
#
# Youngs Moduli (GPa) = 55.32504 61.97862 57.46646
#
# Poissons Ratio (x) = 0.08306 0.23163
# Poissons Ratio (y) = 0.07414 0.49668
# Poissons Ratio (z) = 0.22300 0.53568
#
# Static dielectric constant tensor:
#      x y z
#    x 1.875820 0.000000 -0.002150 
#    y 0.000000 1.973760 0.000000 
#    z -0.002150 0.000000 1.860380 
# 
# From -- ./inp_files/184805.got.cif
#   From: 2010.05.17/outbox.cif.g08.bks.cpg/sg15_93_cif.got.tgz:184805.got - 2010.06.03 18:47:42.
