data_PCOD9272144
_publ_section_title
;
Structure prediction by ZEFSAII (Michael W. Deem and Ramdas Pophale) SiO2 
 PCOD9272144
Probable space group: C 2/C
;
_chemical_formula_sum "Si O2"
_cell_formula_units_Z 48
_cell_length_a 5.279846
_cell_length_b 27.227236
_cell_length_c 16.462959
_cell_angle_alpha 90.000000
_cell_angle_beta 72.555613
_cell_angle_gamma 90.000000
_cell_volume 2257.797019
_symmetry_space_group_name_H-M "C 2/C"
_symmetry_group_IT_number 15
_symmetry_cell_setting 'monoclinic'
loop_
_space_group_symop_operation_xyz
x,y,z
-x,y,1/2-z
-x,-y,-z
x,-y,1/2+z
1/2+x,1/2+y,z
1/2-x,1/2+y,1/2-z
1/2-x,1/2-y,-z
1/2+x,1/2-y,1/2+z
loop_
_atom_site_type_symbol
_atom_site_label
_atom_site_fract_x
_atom_site_fract_y
_atom_site_fract_z
Si Si1 0.000000 0.177884 0.750000
Si Si2 0.640507 0.128037 0.351956
Si Si3 0.000000 0.739500 0.750000
Si Si4 0.633894 0.958213 0.543313
Si Si5 0.690912 0.030642 0.663537
Si Si6 0.857921 0.830929 0.659299
Si Si7 0.710377 0.409933 0.128736
O O1 0.228867 0.208193 0.775569
O O2 0.154883 0.143300 0.670830
O O3 0.563058 0.072993 0.380867
O O4 0.381211 0.162715 0.379611
O O5 0.752876 0.139840 0.250619
O O6 0.871199 0.143172 0.391441
O O7 0.059295 0.776986 0.818921
O O8 0.762183 0.918851 0.470530
O O9 0.500000 0.000000 0.500000
O O10 0.800898 0.989711 0.591453
O O11 0.500000 0.007741 0.750000
O O12 0.482164 0.067931 0.640263
O O13 0.941985 0.059461 0.672928
#
# Coordination Sequence:
#
# PCOD9272144 Si02
#       7
#     4   8   4   8   8   8   8
#     4  12  20  36  64  83 116 155 194 246 298 368
#     4   9  18  35  57  83 117 151 187 241 295 330
#     4  10  20  36  64  93 108 143 204 246 306 356
#     4  10  24  39  58  89 126 166 199 240 290 344
#     4  11  21  39  58  82 120 161 207 245 275 344
#     4   9  19  37  60  87 113 145 198 251 289 353
#     4  11  23  40  55  86 123 160 195 244 294 351
#
# _framework density 21.259658999999999
#
# number of rings (size 3 to 8) (size 9 to 14) (size 15 to 20)
#    0.000    2.000    1.667    3.500    2.333    5.333 
#    6.000    0.000    0.000   14.000    0.000    0.000 
#    0.000    0.000    0.000    0.000    0.000    0.000 
#
# Total GULP energy -133609.495868 kJ/mol
# GULP energy per Si atom -5567.062328 kJ/mol
# Density = 2.121127 g / cm^3
# Si number density = 21.259659 Si / 1000 Ang^3
#
#
#
# Elastic Constant Matrix: (Units=GPa)
#
#
# Indices 1 2 3 4 5 6 
#
# 1 157.5083 39.5871 10.4863 0.0000 -11.9759 0.0000
# 2 39.5871 108.9499 31.6351 0.0000 -1.2084 0.0000
# 3 10.4863 31.6351 60.0566 0.0000 0.1934 0.0000
# 4 0.0000 0.0000 0.0000 12.0256 0.0000 -1.4055
# 5 -11.9759 -1.2084 0.1934 0.0000 16.4417 0.0000
# 6 0.0000 0.0000 0.0000 -1.4055 0.0000 25.4467
#
#
#
# Elastic Compliance Matrix: (Units=1/GPa)
#
#
# Indices 1 2 3 4 5 6 
#
# 1 0.007407 -0.002660 0.000091 0.000000 0.005198 0.000000
# 2 -0.002660 0.011803 -0.005750 0.000000 -0.001002 0.000000
# 3 0.000091 -0.005750 0.019666 0.000000 -0.000587 0.000000
# 4 0.000000 0.000000 0.000000 0.083696 0.000000 0.004623
# 5 0.005198 -0.001002 -0.000587 0.000000 0.064540 0.000000
# 6 0.000000 0.000000 0.000000 0.004623 0.000000 0.039553
#
#
# Mechanical properties :
#
#
# Convention : Reuss Voigt Hill
#
# Bulk Modulus (GPa) = 44.96727 54.43689 49.70208
# Shear Modulus (GPa) = 19.94289 27.10322 23.52306
#
# Velocity S-wave (km/s) = 3.06610 3.57440 3.32996
# Velocity P-wave (km/s) = 5.80793 6.53425 6.18177
#
# Compressibility (1/GPa) = 0.02223839
#
# Stress axis : x y z
#
# Youngs Moduli (GPa) = 135.01484 84.72075 50.84999
#
# Poissons Ratio (x) = 0.22536 -0.00464
# Poissons Ratio (y) = 0.35914 0.29238
# Poissons Ratio (z) = -0.01231 0.48713
#
# Static dielectric constant tensor:
#      x y z
#    x 1.780220 0.000000 -0.110880 
#    y 0.000000 1.786320 0.000000 
#    z -0.110880 0.000000 1.700330 
# 
# From -- ./inp_files/185755.got.cif
#   From: 2010.05.17/outbox.cif.g08.bks.cpg/sg15_93_cif.got.tgz:185755.got - 2010.06.03 18:47:42.
