data_PCOD9272572
_publ_section_title
;
Structure prediction by ZEFSAII (Michael W. Deem and Ramdas Pophale) SiO2 
 PCOD9272572
Probable space group: C 2/C
;
_chemical_formula_sum "Si O2"
_cell_formula_units_Z 48
_cell_length_a 26.093300
_cell_length_b 14.040198
_cell_length_c 10.509033
_cell_angle_alpha 90.000000
_cell_angle_beta 149.150188
_cell_angle_gamma 90.000000
_cell_volume 1974.258725
_symmetry_space_group_name_H-M "C 2/C"
_symmetry_group_IT_number 15
_symmetry_cell_setting 'monoclinic'
loop_
_space_group_symop_operation_xyz
x,y,z
-x,y,1/2-z
-x,-y,-z
x,-y,1/2+z
1/2+x,1/2+y,z
1/2-x,1/2+y,1/2-z
1/2-x,1/2-y,-z
1/2+x,1/2-y,1/2+z
loop_
_atom_site_type_symbol
_atom_site_label
_atom_site_fract_x
_atom_site_fract_y
_atom_site_fract_z
Si Si1 0.855943 0.895658 0.751598
Si Si2 0.763546 0.687761 0.156746
Si Si3 0.318350 0.866053 0.407444
Si Si4 0.644883 0.485365 0.493703
Si Si5 0.365159 0.170063 0.735307
Si Si6 0.053580 0.402197 0.571664
O O1 0.901457 0.948483 0.971653
O O2 0.734027 0.891160 0.509904
O O3 0.867411 0.783060 0.761282
O O4 0.892599 0.947390 0.701186
O O5 0.748953 0.768749 0.233312
O O6 0.676124 0.611978 0.990248
O O7 0.862052 0.622130 0.352408
O O8 0.750000 0.750000 0.000000
O O9 0.381431 0.868509 0.413386
O O10 0.390625 0.868438 0.681087
O O11 0.240784 0.952473 0.243843
O O12 0.454711 0.156071 0.829667
O O13 0.000000 0.500000 0.500000
#
# Coordination Sequence:
#
# PCOD9272572 Si02
#       6
#     8   8   8   8   8   8
#     4  10  21  36  63  89 124 167 218 258 320 384
#     4  10  21  37  60  93 130 170 211 264 331 399
#     4  10  20  37  63  89 129 172 211 259 335 402
#     4  11  20  39  66  93 123 169 223 261 312 402
#     4  10  20  37  58  87 127 169 211 259 326 392
#     4  11  21  36  61 100 132 161 212 280 340 384
#
# _framework density 24.312923999999999
#
# number of rings (size 3 to 8) (size 9 to 14) (size 15 to 20)
#    0.000    1.667    1.667    5.500    0.000    0.000 
#    0.000    2.500    0.000   13.000    0.000    0.000 
#    0.000    0.000    0.000    0.000    0.000    0.000 
#
# Total GULP energy -133688.715734 kJ/mol
# GULP energy per Si atom -5570.363156 kJ/mol
# Density = 2.425759 g / cm^3
# Si number density = 24.312924 Si / 1000 Ang^3
#
#
#
# Elastic Constant Matrix: (Units=GPa)
#
#
# Indices 1 2 3 4 5 6 
#
# 1 89.9660 26.0119 20.1612 0.0000 -10.4097 0.0000
# 2 26.0119 123.6994 2.3853 0.0000 -5.1534 0.0000
# 3 20.1612 2.3853 53.6122 0.0000 -8.5860 0.0000
# 4 0.0000 0.0000 0.0000 20.6465 0.0000 -1.2798
# 5 -10.4097 -5.1534 -8.5860 0.0000 32.2272 0.0000
# 6 0.0000 0.0000 0.0000 -1.2798 0.0000 46.8446
#
#
#
# Elastic Compliance Matrix: (Units=1/GPa)
#
#
# Indices 1 2 3 4 5 6 
#
# 1 0.013154 -0.002570 -0.004406 0.000000 0.002664 0.000000
# 2 -0.002570 0.008642 0.000700 0.000000 0.000738 0.000000
# 3 -0.004406 0.000700 0.020962 0.000000 0.004274 0.000000
# 4 0.000000 0.000000 0.000000 0.048517 0.000000 0.001325
# 5 0.002664 0.000738 0.004274 0.000000 0.033147 0.000000
# 6 0.000000 0.000000 0.000000 0.001325 0.000000 0.021383
#
#
# Mechanical properties :
#
#
# Convention : Reuss Voigt Hill
#
# Bulk Modulus (GPa) = 33.10455 40.48827 36.79641
# Shear Modulus (GPa) = 29.68678 34.52494 32.10586
#
# Velocity S-wave (km/s) = 3.49811 3.77241 3.63785
# Velocity P-wave (km/s) = 5.47369 5.97193 5.72823
#
# Compressibility (1/GPa) = 0.03020733
#
# Stress axis : x y z
#
# Youngs Moduli (GPa) = 76.02279 115.71629 47.70424
#
# Poissons Ratio (x) = 0.29740 0.21017
# Poissons Ratio (y) = 0.19539 -0.03341
# Poissons Ratio (z) = 0.33493 -0.08103
#
# Static dielectric constant tensor:
#      x y z
#    x 2.007800 0.000000 0.052500 
#    y 0.000000 2.003110 0.000000 
#    z 0.052500 0.000000 2.028550 
# 
# From -- ./inp_files/123590.got.cif
#   From: 2010.05.17/outbox.cif.g08.bks.cpg/sg15_62_cif.got.tgz:123590.got - 2010.06.03 18:47:42.
