data_PCOD9272682
_publ_section_title
;
Structure prediction by ZEFSAII (Michael W. Deem and Ramdas Pophale) SiO2 
 PCOD9272682
Probable space group: C 2/C
;
_chemical_formula_sum "Si O2"
_cell_formula_units_Z 56
_cell_length_a 25.546866
_cell_length_b 7.509983
_cell_length_c 13.628376
_cell_angle_alpha 90.000000
_cell_angle_beta 62.477316
_cell_angle_gamma 90.000000
_cell_volume 2318.782769
_symmetry_space_group_name_H-M "C 2/C"
_symmetry_group_IT_number 15
_symmetry_cell_setting 'monoclinic'
loop_
_space_group_symop_operation_xyz
x,y,z
-x,y,1/2-z
-x,-y,-z
x,-y,1/2+z
1/2+x,1/2+y,z
1/2-x,1/2+y,1/2-z
1/2-x,1/2-y,-z
1/2+x,1/2-y,1/2+z
loop_
_atom_site_type_symbol
_atom_site_label
_atom_site_fract_x
_atom_site_fract_y
_atom_site_fract_z
Si Si1 0.111938 0.229303 0.296328
Si Si2 0.801116 0.451573 0.142452
Si Si3 0.559432 0.172352 0.156224
Si Si4 0.165802 0.394620 0.068952
Si Si5 0.004634 0.787966 0.001210
Si Si6 0.733376 0.875131 0.652436
Si Si7 0.109716 0.178845 0.801413
O O1 0.148608 0.365452 0.332472
O O2 0.138543 0.246999 0.163864
O O3 0.042635 0.273920 0.374706
O O4 0.119207 0.025137 0.321946
O O5 0.778272 0.285141 0.097457
O O6 0.751945 0.518024 0.261314
O O7 0.815991 0.617932 0.059643
O O8 0.500000 0.086197 0.250000
O O9 0.613164 0.037897 0.107785
O O10 0.543941 0.241483 0.062238
O O11 0.576773 0.318674 0.223410
O O12 0.221082 0.482869 0.078415
O O13 0.937513 0.729285 0.083122
O O14 0.000000 0.000000 0.000000
O O15 0.670146 0.783486 0.732340
#
# Coordination Sequence:
#
# PCOD9272682 Si02
#       7
#     8   8   8   8   8   8   8
#     4  10  20  37  59  90 122 154 203 250 291 368
#     4  11  21  40  61  85 122 156 204 251 310 352
#     4   9  17  35  56  83 120 160 190 236 297 355
#     4  10  21  38  57  89 120 155 199 246 305 357
#     4   9  17  34  60  85 119 158 195 242 297 356
#     4  10  22  39  60  84 115 160 202 250 301 365
#     4   9  19  37  58  86 121 153 204 241 296 362
#
# _framework density 24.150601000000002
#
# number of rings (size 3 to 8) (size 9 to 14) (size 15 to 20)
#    0.000    2.286    1.429    1.286    0.000    0.000 
#    7.714   12.857    0.000    0.000    0.000    0.000 
#    0.000    0.000    0.000    0.000    0.000    0.000 
#
# Total GULP energy -156262.844322 kJ/mol
# GULP energy per Si atom -5580.815869 kJ/mol
# Density = 2.409563 g / cm^3
# Si number density = 24.150601 Si / 1000 Ang^3
#
#
#
# Elastic Constant Matrix: (Units=GPa)
#
#
# Indices 1 2 3 4 5 6 
#
# 1 57.3992 11.6830 -0.8283 0.0000 -5.1327 0.0000
# 2 11.6830 49.6055 -2.1890 0.0000 -3.7111 0.0000
# 3 -0.8283 -2.1890 54.5275 0.0000 10.3263 0.0000
# 4 0.0000 0.0000 0.0000 30.6426 0.0000 -4.4142
# 5 -5.1327 -3.7111 10.3263 0.0000 23.5556 0.0000
# 6 0.0000 0.0000 0.0000 -4.4142 0.0000 23.8957
#
#
#
# Elastic Compliance Matrix: (Units=1/GPa)
#
#
# Indices 1 2 3 4 5 6 
#
# 1 0.018580 -0.004128 -0.000575 0.000000 0.003650 0.000000
# 2 -0.004128 0.021319 0.000357 0.000000 0.002303 0.000000
# 3 -0.000575 0.000357 0.020020 0.000000 -0.008845 0.000000
# 4 0.000000 0.000000 0.000000 0.033526 0.000000 0.006193
# 5 0.003650 0.002303 -0.008845 0.000000 0.047488 0.000000
# 6 0.000000 0.000000 0.000000 0.006193 0.000000 0.042993
#
#
# Mechanical properties :
#
#
# Convention : Reuss Voigt Hill
#
# Bulk Modulus (GPa) = 19.52067 19.87375 19.69721
# Shear Modulus (GPa) = 23.84414 25.80987 24.82701
#
# Velocity S-wave (km/s) = 3.14556 3.27265 3.20973
# Velocity P-wave (km/s) = 4.61445 4.74629 4.68084
#
# Compressibility (1/GPa) = 0.05122776
#
# Stress axis : x y z
#
# Youngs Moduli (GPa) = 53.82067 46.90565 49.94984
#
# Poissons Ratio (x) = 0.19364 0.02871
# Poissons Ratio (y) = 0.22219 -0.01783
# Poissons Ratio (z) = 0.03093 -0.01675
#
# Static dielectric constant tensor:
#      x y z
#    x 1.971020 0.000000 0.081830 
#    y 0.000000 1.886680 0.000000 
#    z 0.081830 0.000000 2.326590 
# 
# From -- ./inp_files/180497.got.cif
#   From: 2010.05.17/outbox.cif.g08.bks.cpg/sg15_91_cif.got.tgz:180497.got - 2010.06.03 18:47:42.
