data_PCOD9272276
_publ_section_title
;
Structure prediction by ZEFSAII (Michael W. Deem and Ramdas Pophale) SiO2 
 PCOD9272276
Probable space group: C 2/C
;
_chemical_formula_sum "Si O2"
_cell_formula_units_Z 60
_cell_length_a 20.174349
_cell_length_b 10.286715
_cell_length_c 32.068120
_cell_angle_alpha 90.000000
_cell_angle_beta 153.705294
_cell_angle_gamma 90.000000
_cell_volume 2948.098893
_symmetry_space_group_name_H-M "C 2/C"
_symmetry_group_IT_number 15
_symmetry_cell_setting 'monoclinic'
loop_
_space_group_symop_operation_xyz
x,y,z
-x,y,1/2-z
-x,-y,-z
x,-y,1/2+z
1/2+x,1/2+y,z
1/2-x,1/2+y,1/2-z
1/2-x,1/2-y,-z
1/2+x,1/2-y,1/2+z
loop_
_atom_site_type_symbol
_atom_site_label
_atom_site_fract_x
_atom_site_fract_y
_atom_site_fract_z
Si Si1 0.865353 0.862429 0.052618
Si Si2 0.925212 0.916976 0.399901
Si Si3 0.626655 0.332714 0.036281
Si Si4 0.615991 0.013306 0.196579
Si Si5 0.000000 0.333495 0.750000
Si Si6 0.640430 0.955049 0.389465
Si Si7 0.142853 0.207905 0.757639
Si Si8 0.960080 0.568819 0.934064
O O1 0.952456 0.839427 0.058029
O O2 0.997020 0.869972 0.160429
O O3 0.750000 0.750000 0.000000
O O4 0.770616 0.993219 0.993268
O O5 0.872358 0.850683 0.413042
O O6 0.777936 0.945732 0.289726
O O7 0.007926 0.054358 0.456179
O O8 0.782247 0.359460 0.099964
O O9 0.568899 0.192024 0.991189
O O10 0.504633 0.931115 0.164003
O O11 0.639390 0.157691 0.228842
O O12 0.543908 0.017073 0.110146
O O13 0.910748 0.423191 0.667590
O O14 0.883103 0.250599 0.709702
O O15 0.294683 0.130241 0.841522
O O16 0.000000 0.500000 0.000000
#
# Coordination Sequence:
#
# PCOD9272276 Si02
#       8
#     8   8   8   8   4   8   8   8
#     4  11  20  36  61  99 121 165 218 284 333 388
#     4  10  21  37  69  90 129 170 220 280 337 400
#     4  10  22  40  60  98 128 166 223 280 332 402
#     4  11  22  42  64  92 129 179 225 269 335 416
#     4  10  20  36  66  98 124 156 226 290 328 380
#     4  10  22  36  65  93 122 168 225 273 338 398
#     4  11  23  39  62  92 131 168 225 278 331 399
#     4  12  28  40  63  97 140 182 224 276 347 410
#
# _framework density 20.352098999999999
#
# number of rings (size 3 to 8) (size 9 to 14) (size 15 to 20)
#    0.000    1.333    5.333    1.600    5.600    1.600 
#    0.000    0.000    0.000    5.600    0.000    0.000 
#    0.000    0.000    0.000    0.000    0.000    0.000 
#
# Total GULP energy -167435.358982 kJ/mol
# GULP energy per Si atom -5581.178633 kJ/mol
# Density = 2.030578 g / cm^3
# Si number density = 20.352099 Si / 1000 Ang^3
#
#
#
# Elastic Constant Matrix: (Units=GPa)
#
#
# Indices 1 2 3 4 5 6 
#
# 1 128.6367 32.8299 42.0264 -0.0001 0.1970 0.0000
# 2 32.8299 44.4917 16.1229 0.0000 3.2683 0.0000
# 3 42.0264 16.1229 90.5753 0.0003 4.7331 0.0003
# 4 -0.0001 0.0000 0.0003 21.6053 0.0003 1.9445
# 5 0.1970 3.2683 4.7331 0.0003 39.5034 -0.0001
# 6 0.0000 0.0000 0.0003 1.9445 -0.0001 21.9791
#
#
#
# Elastic Compliance Matrix: (Units=1/GPa)
#
#
# Indices 1 2 3 4 5 6 
#
# 1 0.010708 -0.006577 -0.003847 0.000000 0.000952 0.000000
# 2 -0.006577 0.028152 -0.001851 0.000000 -0.002075 0.000000
# 3 -0.003847 -0.001851 0.013229 0.000000 -0.001413 0.000000
# 4 0.000000 0.000000 0.000000 0.046656 0.000000 -0.004128
# 5 0.000952 -0.002075 -0.001413 0.000000 0.025650 0.000000
# 6 0.000000 0.000000 0.000000 -0.004128 0.000000 0.045863
#
#
# Mechanical properties :
#
#
# Convention : Reuss Voigt Hill
#
# Bulk Modulus (GPa) = 36.31313 49.51802 42.91557
# Shear Modulus (GPa) = 24.51108 28.13255 26.32182
#
# Velocity S-wave (km/s) = 3.47414 3.72195 3.60018
# Velocity P-wave (km/s) = 5.82873 6.54630 6.19791
#
# Compressibility (1/GPa) = 0.02753825
#
# Stress axis : x y z
#
# Youngs Moduli (GPa) = 93.38928 35.52099 75.59117
#
# Poissons Ratio (x) = 0.23362 0.29083
# Poissons Ratio (y) = 0.61421 0.13994
# Poissons Ratio (z) = 0.35931 0.06576
#
# Static dielectric constant tensor:
#      x y z
#    x 1.759970 0.000000 -0.054490 
#    y 0.000000 1.720960 0.000000 
#    z -0.054490 0.000000 1.560840 
# 
# From -- ./inp_files/316090.got.cif
#   From: 2010.05.17/outbox.cif.g08.bks.cpg/sg15_159_cif.got.tgz:316090.got - 2010.06.03 18:47:42.
