data_PCOD9272123
_publ_section_title
;
Structure prediction by ZEFSAII (Michael W. Deem and Ramdas Pophale) SiO2 
 PCOD9272123
Probable space group: C 2/C
;
_chemical_formula_sum "Si O2"
_cell_formula_units_Z 64
_cell_length_a 12.184579
_cell_length_b 13.520794
_cell_length_c 32.734487
_cell_angle_alpha 90.000000
_cell_angle_beta 144.315664
_cell_angle_gamma 90.000000
_cell_volume 3145.752254
_symmetry_space_group_name_H-M "C 2/C"
_symmetry_group_IT_number 15
_symmetry_cell_setting 'monoclinic'
loop_
_space_group_symop_operation_xyz
x,y,z
-x,y,1/2-z
-x,-y,-z
x,-y,1/2+z
1/2+x,1/2+y,z
1/2-x,1/2+y,1/2-z
1/2-x,1/2-y,-z
1/2+x,1/2-y,1/2+z
loop_
_atom_site_type_symbol
_atom_site_label
_atom_site_fract_x
_atom_site_fract_y
_atom_site_fract_z
Si Si1 0.406122 0.330874 0.403961
Si Si2 0.968652 0.634836 0.041898
Si Si3 0.161674 0.012964 0.453490
Si Si4 0.797713 0.948432 0.442845
Si Si5 0.880280 0.072845 0.752180
Si Si6 0.262159 0.753994 0.231433
Si Si7 0.462251 0.931795 0.848259
Si Si8 0.598724 0.615639 0.355024
O O1 0.560851 0.252606 0.467594
O O2 0.504010 0.430600 0.416751
O O3 0.295390 0.356967 0.411722
O O4 0.285696 0.285297 0.329996
O O5 0.954011 0.611574 0.085207
O O6 0.184060 0.622942 0.092773
O O7 0.823438 0.554771 0.980488
O O8 0.228491 0.062995 0.516325
O O9 0.094008 0.096908 0.402114
O O10 0.632008 0.018006 0.376381
O O11 0.000000 0.000000 0.500000
O O12 0.808035 0.156447 0.761481
O O13 0.000000 0.112563 0.750000
O O14 0.691309 0.012309 0.684318
O O15 0.010787 0.986055 0.810490
O O16 0.135843 0.658188 0.203867
O O17 0.469786 0.707416 0.300934
#
# Coordination Sequence:
#
# PCOD9272123 Si02
#       8
#     8   8   8   8   8   8   8   8
#     4  10  20  38  63  94 117 166 217 252 308 370
#     4  10  20  36  64  90 120 161 211 255 304 373
#     4  10  20  40  63  89 130 161 203 260 321 372
#     4   9  20  39  63  88 127 162 200 261 317 367
#     4  11  21  41  60  83 124 167 205 261 315 372
#     4  10  23  39  61  90 123 163 210 262 304 383
#     4   9  20  38  61  87 120 159 211 255 308 367
#     4  11  22  40  61  94 124 161 208 261 316 370
#
# _framework density 20.344894
#
# number of rings (size 3 to 8) (size 9 to 14) (size 15 to 20)
#    0.000    2.000    2.500    0.750    1.750    1.000 
#    4.500    0.625    0.000    0.000    0.000    0.000 
#    0.000    0.000    0.000    0.000    0.000    0.000 
#
# Total GULP energy -178201.313018 kJ/mol
# GULP energy per Si atom -5568.791032 kJ/mol
# Density = 2.029859 g / cm^3
# Si number density = 20.344894 Si / 1000 Ang^3
#
#
#
# Elastic Constant Matrix: (Units=GPa)
#
#
# Indices 1 2 3 4 5 6 
#
# 1 86.6144 47.2000 37.4491 0.0000 1.0243 0.0000
# 2 47.2000 83.8879 35.6906 0.0000 -4.5234 0.0000
# 3 37.4491 35.6906 78.7470 0.0000 2.0255 0.0000
# 4 0.0000 0.0000 0.0000 36.3516 0.0000 -0.7487
# 5 1.0243 -4.5234 2.0255 0.0000 32.5427 0.0000
# 6 0.0000 0.0000 0.0000 -0.7487 0.0000 40.4716
#
#
#
# Elastic Compliance Matrix: (Units=1/GPa)
#
#
# Indices 1 2 3 4 5 6 
#
# 1 0.018143 -0.008212 -0.004870 0.000000 -0.001409 0.000000
# 2 -0.008212 0.018687 -0.004645 0.000000 0.003145 0.000000
# 3 -0.004870 -0.004645 0.017160 0.000000 -0.001560 0.000000
# 4 0.000000 0.000000 0.000000 0.027520 0.000000 0.000509
# 5 -0.001409 0.003145 -0.001560 0.000000 0.031308 0.000000
# 6 0.000000 0.000000 0.000000 0.000509 0.000000 0.024718
#
#
# Mechanical properties :
#
#
# Convention : Reuss Voigt Hill
#
# Bulk Modulus (GPa) = 53.94895 54.43653 54.19274
# Shear Modulus (GPa) = 27.90669 30.46715 29.18692
#
# Velocity S-wave (km/s) = 3.70764 3.87400 3.79173
# Velocity P-wave (km/s) = 6.70101 6.84291 6.77233
#
# Compressibility (1/GPa) = 0.01853604
#
# Stress axis : x y z
#
# Youngs Moduli (GPa) = 55.11808 53.51237 58.27444
#
# Poissons Ratio (x) = 0.43946 0.28378
# Poissons Ratio (y) = 0.45265 0.27069
# Poissons Ratio (z) = 0.26841 0.24857
#
# Static dielectric constant tensor:
#      x y z
#    x 1.732290 0.000000 -0.010070 
#    y 0.000000 1.797010 0.000000 
#    z -0.010070 0.000000 1.665710 
# 
# From -- ./inp_files/311205.got.cif
#   From: 2010.05.17/outbox.cif.g08.bks.cpg/sg15_156_cif.got.tgz:311205.got - 2010.06.03 18:47:42.
