data_PCOD9272135
_publ_section_title
;
Structure prediction by ZEFSAII (Michael W. Deem and Ramdas Pophale) SiO2 
 PCOD9272135
Probable space group: C 2/C
;
_chemical_formula_sum "Si O2"
_cell_formula_units_Z 64
_cell_length_a 17.988864
_cell_length_b 19.658876
_cell_length_c 27.038347
_cell_angle_alpha 90.000000
_cell_angle_beta 159.850720
_cell_angle_gamma 90.000000
_cell_volume 3293.749266
_symmetry_space_group_name_H-M "C 2/C"
_symmetry_group_IT_number 15
_symmetry_cell_setting 'monoclinic'
loop_
_space_group_symop_operation_xyz
x,y,z
-x,y,1/2-z
-x,-y,-z
x,-y,1/2+z
1/2+x,1/2+y,z
1/2-x,1/2+y,1/2-z
1/2-x,1/2-y,-z
1/2+x,1/2-y,1/2+z
loop_
_atom_site_type_symbol
_atom_site_label
_atom_site_fract_x
_atom_site_fract_y
_atom_site_fract_z
Si Si1 0.619280 0.794889 0.077458
Si Si2 0.396948 0.967476 0.057082
Si Si3 0.770237 0.346519 0.631069
Si Si4 0.554595 0.467963 0.673529
Si Si5 0.728963 0.628028 0.368510
Si Si6 0.730832 0.392079 0.416677
Si Si7 0.015906 0.873129 0.142767
Si Si8 0.302959 0.470386 0.846121
O O1 0.675270 0.717950 0.100241
O O2 0.667756 0.840015 0.058557
O O3 0.786806 0.823126 0.223048
O O4 0.375731 0.810700 0.941180
O O5 0.625499 0.971327 0.226034
O O6 0.198535 0.961106 0.971277
O O7 0.363936 0.911464 0.994757
O O8 0.369145 0.041084 0.013288
O O9 0.600796 0.366674 0.482376
O O10 0.799685 0.409479 0.686534
O O11 0.000000 0.329042 0.750000
O O12 0.679426 0.425162 0.793177
O O13 0.596021 0.549226 0.701151
O O14 0.614439 0.445724 0.655810
O O15 0.500000 0.646981 0.250000
O O16 0.500000 0.415291 0.250000
O O17 0.664559 0.359379 0.427564
O O18 0.500000 0.500000 0.000000
#
# Coordination Sequence:
#
# PCOD9272135 Si02
#       8
#     8   8   8   8   8   8   8   8
#     4  11  23  37  60  88 126 163 203 252 304 370
#     4  10  20  36  64  91 123 153 200 264 313 356
#     4  12  26  42  61  89 126 168 205 242 301 378
#     4  10  20  39  64  93 123 153 205 264 315 358
#     4  10  21  38  66  94 118 156 209 266 319 354
#     4   9  17  32  57  93 121 152 193 247 314 366
#     4  10  20  37  59  89 128 159 199 252 306 366
#     4  12  25  38  60  88 121 166 205 244 301 368
#
# _framework density 19.430744000000001
#
# number of rings (size 3 to 8) (size 9 to 14) (size 15 to 20)
#    0.000    1.500    1.250    6.750    0.000    5.500 
#    0.000    0.000    2.750    2.250    0.000    0.000 
#    0.000    0.000    0.000    0.000    0.000    0.000 
#
# Total GULP energy -178850.417425 kJ/mol
# GULP energy per Si atom -5589.075545 kJ/mol
# Density = 1.938652 g / cm^3
# Si number density = 19.430744 Si / 1000 Ang^3
#
#
#
# Elastic Constant Matrix: (Units=GPa)
#
#
# Indices 1 2 3 4 5 6 
#
# 1 101.7988 24.5823 48.4275 -0.0244 -4.5529 0.0142
# 2 24.5823 49.8016 36.9324 0.0228 11.0005 -0.0009
# 3 48.4275 36.9324 103.9389 0.0115 6.3363 0.0170
# 4 -0.0244 0.0228 0.0115 12.8460 -0.0001 11.3378
# 5 -4.5529 11.0005 6.3363 -0.0001 23.2617 0.0093
# 6 0.0142 -0.0009 0.0170 11.3378 0.0093 25.7674
#
#
#
# Elastic Compliance Matrix: (Units=1/GPa)
#
#
# Indices 1 2 3 4 5 6 
#
# 1 0.013583 -0.004175 -0.005214 0.000071 0.006053 -0.000038
# 2 -0.004175 0.031284 -0.008358 -0.000112 -0.013335 0.000063
# 3 -0.005214 -0.008358 0.015092 -0.000004 -0.001179 -0.000005
# 4 0.000071 -0.000112 -0.000004 0.127270 0.000091 -0.056000
# 5 0.006053 -0.013335 -0.001179 0.000091 0.050801 -0.000061
# 6 -0.000038 0.000063 -0.000005 -0.056000 -0.000061 0.063449
#
#
# Mechanical properties :
#
#
# Convention : Reuss Voigt Hill
#
# Bulk Modulus (GPa) = 40.87468 52.82485 46.84976
# Shear Modulus (GPa) = 14.48738 22.08150 18.28444
#
# Velocity S-wave (km/s) = 2.73351 3.37474 3.07091
# Velocity P-wave (km/s) = 5.57176 6.51386 6.06114
#
# Compressibility (1/GPa) = 0.02446503
#
# Stress axis : x y z
#
# Youngs Moduli (GPa) = 73.62388 31.96504 66.25990
#
# Poissons Ratio (x) = 0.13345 0.34548
# Poissons Ratio (y) = 0.30737 0.55381
# Poissons Ratio (z) = 0.38387 0.26717
#
# Static dielectric constant tensor:
#      x y z
#    x 1.708480 0.000010 0.008110 
#    y 0.000010 1.653540 -0.000020 
#    z 0.008110 -0.000020 1.701390 
# 
# From -- ./inp_files/299526.got.cif
#   From: 2010.05.17/outbox.cif.g08.bks.cpg/sg15_150_cif.got.tgz:299526.got - 2010.06.03 18:47:42.
