data_PCOD9272932
_publ_section_title
;
Structure prediction by ZEFSAII (Michael W. Deem and Ramdas Pophale) SiO2 
 PCOD9272932
Probable space group: C 2/C
;
_chemical_formula_sum "Si O2"
_cell_formula_units_Z 60
_cell_length_a 7.412101
_cell_length_b 14.284509
_cell_length_c 26.984098
_cell_angle_alpha 90.000000
_cell_angle_beta 78.033892
_cell_angle_gamma 90.000000
_cell_volume 2794.946317
_symmetry_space_group_name_H-M "C 2/C"
_symmetry_group_IT_number 15
_symmetry_cell_setting 'monoclinic'
loop_
_space_group_symop_operation_xyz
x,y,z
-x,y,1/2-z
-x,-y,-z
x,-y,1/2+z
1/2+x,1/2+y,z
1/2-x,1/2+y,1/2-z
1/2-x,1/2-y,-z
1/2+x,1/2-y,1/2+z
loop_
_atom_site_type_symbol
_atom_site_label
_atom_site_fract_x
_atom_site_fract_y
_atom_site_fract_z
Si Si1 0.000000 0.518135 0.750000
Si Si2 0.705824 0.786810 0.558144
Si Si3 0.524082 0.879750 0.349484
Si Si4 0.119379 0.496226 0.058326
Si Si5 0.103449 0.024691 0.297089
Si Si6 0.723099 0.469238 0.547189
Si Si7 0.069436 0.882915 0.122843
Si Si8 0.537033 0.679103 0.116477
O O1 0.047011 0.583109 0.793479
O O2 0.181078 0.460739 0.725506
O O3 0.750000 0.750000 0.500000
O O4 0.566851 0.716936 0.595209
O O5 0.888792 0.796884 0.581770
O O6 0.638850 0.892938 0.558932
O O7 0.392173 0.949141 0.387906
O O8 0.729569 0.881715 0.361412
O O9 0.434330 0.777840 0.358909
O O10 0.915259 0.478849 0.047909
O O11 0.269410 0.455670 0.011819
O O12 0.000000 0.025746 0.250000
O O13 0.065990 0.925497 0.327698
O O14 0.032263 0.105427 0.338245
O O15 0.574260 0.539363 0.578731
O O16 0.701308 0.373349 0.578434
#
# Coordination Sequence:
#
# PCOD9272932 Si02
#       8
#     4   8   8   8   8   8   8   8
#     4  12  24  42  68  96 122 172 222 274 332 396
#     4  11  21  39  63  94 133 171 213 267 326 399
#     4  10  22  40  62  91 131 165 220 269 324 394
#     4  10  20  37  61  90 124 172 207 262 323 391
#     4  11  23  45  71  95 129 173 220 280 337 383
#     4   9  19  37  61  87 124 165 210 258 325 385
#     4   9  19  41  63  89 130 170 205 270 335 386
#     4  10  24  41  62  96 128 168 217 272 330 400
#
# _framework density 21.467317999999999
#
# number of rings (size 3 to 8) (size 9 to 14) (size 15 to 20)
#    0.000    1.867    2.667    0.800    2.800    2.133 
#    2.400    4.000    1.467    0.000    0.000    0.000 
#    0.000    0.000    0.000    0.000    0.000    0.000 
#
# Total GULP energy -167399.103419 kJ/mol
# GULP energy per Si atom -5579.970114 kJ/mol
# Density = 2.141846 g / cm^3
# Si number density = 21.467318 Si / 1000 Ang^3
#
#
#
# Elastic Constant Matrix: (Units=GPa)
#
#
# Indices 1 2 3 4 5 6 
#
# 1 54.2587 -6.9627 27.6263 0.0000 -3.6717 0.0000
# 2 -6.9627 106.9650 58.2932 0.0000 -12.2093 0.0000
# 3 27.6263 58.2932 163.9722 0.0000 -3.1695 0.0000
# 4 0.0000 0.0000 0.0000 19.2346 0.0000 0.6040
# 5 -3.6717 -12.2093 -3.1695 0.0000 35.4212 0.0000
# 6 0.0000 0.0000 0.0000 0.6040 0.0000 21.7207
#
#
#
# Elastic Compliance Matrix: (Units=1/GPa)
#
#
# Indices 1 2 3 4 5 6 
#
# 1 0.021972 0.004717 -0.005313 0.000000 0.003428 0.000000
# 2 0.004717 0.013095 -0.005362 0.000000 0.004523 0.000000
# 3 -0.005313 -0.005362 0.008869 0.000000 -0.001605 0.000000
# 4 0.000000 0.000000 0.000000 0.052035 0.000000 -0.001447
# 5 0.003428 0.004523 -0.001605 0.000000 0.030002 0.000000
# 6 0.000000 0.000000 0.000000 -0.001447 0.000000 0.046079
#
#
# Mechanical properties :
#
#
# Convention : Reuss Voigt Hill
#
# Bulk Modulus (GPa) = 31.23103 53.67884 42.45494
# Shear Modulus (GPa) = 25.68815 31.69124 28.68969
#
# Velocity S-wave (km/s) = 3.46297 3.84637 3.65970
# Velocity P-wave (km/s) = 5.52895 6.69218 6.13818
#
# Compressibility (1/GPa) = 0.03201943
#
# Stress axis : x y z
#
# Youngs Moduli (GPa) = 45.51172 76.36794 112.75225
#
# Poissons Ratio (x) = -0.36021 0.59900
# Poissons Ratio (y) = -0.21467 0.60463
# Poissons Ratio (z) = 0.24178 0.40952
#
# Static dielectric constant tensor:
#      x y z
#    x 1.862050 0.000000 0.007010 
#    y 0.000000 1.767070 0.000000 
#    z 0.007010 0.000000 1.787580 
# 
# From -- ./inp_files/264328.got.cif
#   From: 2010.05.17/outbox.cif.g08.bks.cpg/sg15_133_cif.got.tgz:264328.got - 2010.06.03 18:47:42.
