data_PCOD9272902
_publ_section_title
;
Structure prediction by ZEFSAII (Michael W. Deem and Ramdas Pophale) SiO2 
 PCOD9272902
Probable space group: C 2/C
;
_chemical_formula_sum "Si O2"
_cell_formula_units_Z 56
_cell_length_a 11.021850
_cell_length_b 19.093378
_cell_length_c 13.554836
_cell_angle_alpha 90.000000
_cell_angle_beta 57.968198
_cell_angle_gamma 90.000000
_cell_volume 2418.250559
_symmetry_space_group_name_H-M "C 2/C"
_symmetry_group_IT_number 15
_symmetry_cell_setting 'monoclinic'
loop_
_space_group_symop_operation_xyz
x,y,z
-x,y,1/2-z
-x,-y,-z
x,-y,1/2+z
1/2+x,1/2+y,z
1/2-x,1/2+y,1/2-z
1/2-x,1/2-y,-z
1/2+x,1/2-y,1/2+z
loop_
_atom_site_type_symbol
_atom_site_label
_atom_site_fract_x
_atom_site_fract_y
_atom_site_fract_z
Si Si1 0.801776 0.959201 0.979029
Si Si2 0.968054 0.210104 0.654703
Si Si3 0.988274 0.645479 0.076124
Si Si4 0.210815 0.880818 0.953761
Si Si5 0.989330 0.398227 0.149081
Si Si6 0.323165 0.430472 0.184223
Si Si7 0.697971 0.575581 0.235093
O O1 0.631752 0.943303 0.068269
O O2 0.868556 0.929482 0.050753
O O3 0.818638 0.043482 0.980085
O O4 0.846131 0.916533 0.861913
O O5 0.863417 0.144043 0.709331
O O6 0.000000 0.234700 0.750000
O O7 0.915574 0.278669 0.621444
O O8 0.108596 0.178084 0.543081
O O9 0.125661 0.636451 0.086999
O O10 0.869956 0.586585 0.148248
O O11 0.034378 0.642221 0.942102
O O12 0.181252 0.886418 0.848886
O O13 0.846343 0.441659 0.230006
O O14 0.000000 0.357882 0.250000
O O15 0.375847 0.500547 0.211849
#
# Coordination Sequence:
#
# PCOD9272902 Si02
#       7
#     8   8   8   8   8   8   8
#     4   9  19  36  61  89 112 145 198 252 290 334
#     4  12  25  39  56  85 124 160 190 234 295 355
#     4  11  22  38  60  89 119 152 198 243 288 344
#     4  11  22  37  60  87 119 157 194 237 292 348
#     4   9  18  36  61  86 111 147 196 247 292 337
#     4  10  21  38  59  85 119 155 195 241 292 345
#     4  10  20  37  61  88 113 149 201 248 287 338
#
# _framework density 23.157236999999999
#
# number of rings (size 3 to 8) (size 9 to 14) (size 15 to 20)
#    0.000    1.714    0.000    5.143    0.000    8.000 
#    0.000   10.000    0.000    0.000    0.000    3.000 
#    0.000    0.000    0.000    0.000    0.000    0.000 
#
# Total GULP energy -156063.519191 kJ/mol
# GULP energy per Si atom -5573.697114 kJ/mol
# Density = 2.310453 g / cm^3
# Si number density = 23.157237 Si / 1000 Ang^3
#
#
#
# Elastic Constant Matrix: (Units=GPa)
#
#
# Indices 1 2 3 4 5 6 
#
# 1 51.8730 15.9261 33.8214 0.0000 3.2452 0.0000
# 2 15.9261 77.5679 27.0874 0.0000 11.2927 0.0000
# 3 33.8214 27.0874 165.8678 0.0000 30.3560 0.0000
# 4 0.0000 0.0000 0.0000 9.6541 0.0000 1.0247
# 5 3.2452 11.2927 30.3560 0.0000 49.2006 0.0000
# 6 0.0000 0.0000 0.0000 1.0247 0.0000 7.0260
#
#
#
# Elastic Compliance Matrix: (Units=1/GPa)
#
#
# Indices 1 2 3 4 5 6 
#
# 1 0.023173 -0.003475 -0.004536 0.000000 0.002068 0.000000
# 2 -0.003475 0.014367 -0.001213 0.000000 -0.002320 0.000000
# 3 -0.004536 -0.001213 0.007943 0.000000 -0.004323 0.000000
# 4 0.000000 0.000000 0.000000 0.105211 0.000000 -0.015344
# 5 0.002068 -0.002320 -0.004323 0.000000 0.023388 0.000000
# 6 0.000000 0.000000 0.000000 -0.015344 0.000000 0.144567
#
#
# Mechanical properties :
#
#
# Convention : Reuss Voigt Hill
#
# Bulk Modulus (GPa) = 36.98935 49.88650 43.43792
# Shear Modulus (GPa) = 14.44633 27.74106 21.09369
#
# Velocity S-wave (km/s) = 2.50038 3.46489 3.02137
# Velocity P-wave (km/s) = 4.93393 6.13160 5.56508
#
# Compressibility (1/GPa) = 0.02703481
#
# Stress axis : x y z
#
# Youngs Moduli (GPa) = 43.15398 69.60530 125.89505
#
# Poissons Ratio (x) = 0.24186 0.57106
# Poissons Ratio (y) = 0.14995 0.15272
# Poissons Ratio (z) = 0.19575 0.08444
#
# Static dielectric constant tensor:
#      x y z
#    x 1.982620 0.000000 -0.008860 
#    y 0.000000 1.847760 0.000000 
#    z -0.008860 0.000000 1.893730 
# 
# From -- ./inp_files/145976.got.cif
#   From: 2010.05.17/outbox.cif.g08.bks.cpg/sg15_73_cif.got.tgz:145976.got - 2010.06.03 18:47:42.
