data_PCOD9272380
_publ_section_title
;
Structure prediction by ZEFSAII (Michael W. Deem and Ramdas Pophale) SiO2 
 PCOD9272380
Probable space group: C 2/C
;
_chemical_formula_sum "Si O2"
_cell_formula_units_Z 56
_cell_length_a 22.742179
_cell_length_b 22.236544
_cell_length_c 18.376087
_cell_angle_alpha 90.000000
_cell_angle_beta 161.416601
_cell_angle_gamma 90.000000
_cell_volume 2961.512694
_symmetry_space_group_name_H-M "C 2/C"
_symmetry_group_IT_number 15
_symmetry_cell_setting 'monoclinic'
loop_
_space_group_symop_operation_xyz
x,y,z
-x,y,1/2-z
-x,-y,-z
x,-y,1/2+z
1/2+x,1/2+y,z
1/2-x,1/2+y,1/2-z
1/2-x,1/2-y,-z
1/2+x,1/2-y,1/2+z
loop_
_atom_site_type_symbol
_atom_site_label
_atom_site_fract_x
_atom_site_fract_y
_atom_site_fract_z
Si Si1 0.372439 0.184792 0.761873
Si Si2 0.815103 0.902648 0.569619
Si Si3 0.186086 0.585230 0.695206
Si Si4 0.959772 0.055252 0.898750
Si Si5 0.679723 0.811648 0.516493
Si Si6 0.217147 0.461367 0.815089
Si Si7 0.803197 0.528945 0.045783
O O1 0.243942 0.147746 0.556191
O O2 0.348079 0.149098 0.807547
O O3 0.578313 0.176425 0.973204
O O4 0.303472 0.252723 0.671714
O O5 0.805576 0.865999 0.634073
O O6 0.676806 0.957605 0.415591
O O7 0.000000 0.927701 0.750000
O O8 0.333268 0.594528 0.803456
O O9 0.241348 0.532040 0.818567
O O10 0.995591 0.557480 0.441711
O O11 0.839757 0.036362 0.687600
O O12 0.153726 0.073931 0.090677
O O13 0.000000 0.000000 0.000000
O O14 0.500000 0.803034 0.250000
O O15 0.263256 0.448545 0.953351
O O16 0.000000 0.553469 0.250000
#
# Coordination Sequence:
#
# PCOD9272380 Si02
#       7
#     8   8   8   8   8   8   8
#     4  11  20  37  50  76 105 149 187 236 284 326
#     4  11  21  31  51  77 104 151 194 230 271 331
#     4  10  21  36  54  76 114 147 187 236 288 320
#     4  10  22  36  52  80 112 147 187 236 278 334
#     4  10  21  35  51  71 107 143 196 243 271 330
#     4  10  20  37  54  80 110 146 193 235 269 347
#     4  12  21  35  56  82 115 154 194 225 280 346
#
# _framework density 18.909255999999999
#
# number of rings (size 3 to 8) (size 9 to 14) (size 15 to 20)
#    0.000    1.429    2.857    5.571    2.000    0.000 
#    2.571    0.000    0.000    0.000    0.000    0.000 
#    0.000    4.571    0.000    0.000    0.000    0.000 
#
# Total GULP energy -155998.236933 kJ/mol
# GULP energy per Si atom -5571.365605 kJ/mol
# Density = 1.886622 g / cm^3
# Si number density = 18.909256 Si / 1000 Ang^3
#
#
#
# Elastic Constant Matrix: (Units=GPa)
#
#
# Indices 1 2 3 4 5 6 
#
# 1 46.3315 91.4882 -52.5167 0.0005 -10.4578 -0.0001
# 2 91.4882 -34.8499 48.5875 -0.0003 36.9407 0.0000
# 3 -52.5167 48.5875 -19.8223 0.0007 -17.3312 -0.0001
# 4 0.0005 -0.0003 0.0007 6.5415 0.0003 5.4055
# 5 -10.4578 36.9407 -17.3312 0.0003 31.1922 0.0000
# 6 -0.0001 0.0000 -0.0001 5.4055 0.0000 26.6397
#
#
#
# Elastic Compliance Matrix: (Units=1/GPa)
#
#
# Indices 1 2 3 4 5 6 
#
# 1 0.006882 0.002717 -0.007253 0.000001 -0.004941 0.000000
# 2 0.002717 0.013037 0.025212 -0.000003 -0.000520 0.000001
# 3 -0.007253 0.025212 0.039573 -0.000002 -0.010302 0.000001
# 4 0.000001 -0.000003 -0.000002 0.183666 0.000000 -0.037268
# 5 -0.004941 -0.000520 -0.010302 0.000000 0.025295 0.000000
# 6 0.000000 0.000001 0.000001 -0.037268 0.000000 0.045100
#
#
# Mechanical properties :
#
#
# Convention : Reuss Voigt Hill
#
# Bulk Modulus (GPa) = 9.91642 18.53083 14.22362
# Shear Modulus (GPa) = 16.34969 6.48136 11.41552
#
# Velocity S-wave (km/s) = 2.94367 1.85339 2.45970
# Velocity P-wave (km/s) = 4.09990 3.79489 3.95034
#
# Compressibility (1/GPa) = 0.10084285
#
# Stress axis : x y z
#
# Youngs Moduli (GPa) = 145.30971 76.70591 25.26958
#
# Poissons Ratio (x) = -0.20841 0.18329
# Poissons Ratio (y) = -0.39480 -0.63709
# Poissons Ratio (z) = 1.05397 -1.93389
#
# Static dielectric constant tensor:
#      x y z
#    x 1.733700 0.000000 0.023120 
#    y 0.000000 1.631320 0.000000 
#    z 0.023120 0.000000 1.755720 
# 
# From -- ./inp_files/157210.got.cif
#   From: 2010.05.17/outbox.cif.g08.bks.cpg/sg15_79_cif.got.tgz:157210.got - 2010.06.03 18:47:42.
