data_PCOD9272467
_publ_section_title
;
Structure prediction by ZEFSAII (Michael W. Deem and Ramdas Pophale) SiO2 
 PCOD9272467
Probable space group: C 2/C
;
_chemical_formula_sum "Si O2"
_cell_formula_units_Z 52
_cell_length_a 13.185951
_cell_length_b 25.903411
_cell_length_c 8.077275
_cell_angle_alpha 90.000000
_cell_angle_beta 84.754931
_cell_angle_gamma 90.000000
_cell_volume 2747.331002
_symmetry_space_group_name_H-M "C 2/C"
_symmetry_group_IT_number 15
_symmetry_cell_setting 'monoclinic'
loop_
_space_group_symop_operation_xyz
x,y,z
-x,y,1/2-z
-x,-y,-z
x,-y,1/2+z
1/2+x,1/2+y,z
1/2-x,1/2+y,1/2-z
1/2-x,1/2-y,-z
1/2+x,1/2-y,1/2+z
loop_
_atom_site_type_symbol
_atom_site_label
_atom_site_fract_x
_atom_site_fract_y
_atom_site_fract_z
Si Si1 0.850124 0.529487 0.028284
Si Si2 0.500000 0.966507 0.250000
Si Si3 0.500000 0.127360 0.250000
Si Si4 0.062985 0.284937 0.979424
Si Si5 0.845029 0.270001 0.190974
Si Si6 0.703382 0.927534 0.645545
Si Si7 0.500000 0.301658 0.250000
Si Si8 0.319482 0.330887 0.496573
O O1 0.929907 0.501637 0.141707
O O2 0.782901 0.563371 0.160201
O O3 0.792828 0.482670 0.946577
O O4 0.918060 0.560031 0.882649
O O5 0.439561 0.164091 0.131949
O O6 0.412515 0.094492 0.353594
O O7 0.068087 0.236957 0.852372
O O8 0.141790 0.280685 0.117162
O O9 0.951769 0.281960 0.082456
O O10 0.761266 0.305590 0.117710
O O11 0.824011 0.210237 0.147226
O O12 0.779083 0.885734 0.561305
O O13 0.426788 0.332230 0.384714
#
# Coordination Sequence:
#
# PCOD9272467 Si02
#       8
#     8   4   4   8   8   8   4   8
#     4   9  18  32  51  70 111 145 182 236 269 324
#     4   8  13  30  49  72  98 148 166 203 280 333
#     4  11  19  32  54  84 118 154 180 214 273 357
#     4   9  18  34  53  85 120 149 176 224 276 344
#     4   9  18  36  55  81 116 149 183 228 279 342
#     4  11  21  37  52  80 110 154 190 231 285 334
#     4   9  20  36  57  78 116 150 186 241 283 326
#     4  10  20  37  57  79 112 152 196 236 284 334
#
# _framework density 18.927461000000001
#
# number of rings (size 3 to 8) (size 9 to 14) (size 15 to 20)
#    0.000    2.462    1.538    2.769    2.154    0.615 
#    8.308    0.000    0.000    0.923    0.000    0.000 
#    0.000    0.000    0.000    0.000    0.000    0.000 
#
# Total GULP energy -144999.419058 kJ/mol
# GULP energy per Si atom -5576.900733 kJ/mol
# Density = 1.888438 g / cm^3
# Si number density = 18.927461 Si / 1000 Ang^3
#
#
#
# Elastic Constant Matrix: (Units=GPa)
#
#
# Indices 1 2 3 4 5 6 
#
# 1 35.6445 30.6228 22.6102 0.0000 -1.7939 0.0000
# 2 30.6228 88.4403 51.4417 0.0000 -18.7410 0.0000
# 3 22.6102 51.4417 114.1266 0.0000 0.4051 0.0000
# 4 0.0000 0.0000 0.0000 14.6796 0.0000 -0.6217
# 5 -1.7939 -18.7410 0.4051 0.0000 34.1949 0.0000
# 6 0.0000 0.0000 0.0000 -0.6217 0.0000 19.4474
#
#
#
# Elastic Compliance Matrix: (Units=1/GPa)
#
#
# Indices 1 2 3 4 5 6 
#
# 1 0.041329 -0.014632 -0.001572 0.000000 -0.005832 0.000000
# 2 -0.014632 0.023435 -0.007707 0.000000 0.012168 0.000000
# 3 -0.001572 -0.007707 0.012564 0.000000 -0.004455 0.000000
# 4 0.000000 0.000000 0.000000 0.068214 0.000000 0.002181
# 5 -0.005832 0.012168 -0.004455 0.000000 0.035660 0.000000
# 6 0.000000 0.000000 0.000000 0.002181 0.000000 0.051490
#
#
# Mechanical properties :
#
#
# Convention : Reuss Voigt Hill
#
# Bulk Modulus (GPa) = 33.89294 49.72899 41.81097
# Shear Modulus (GPa) = 17.22066 22.56684 19.89375
#
# Velocity S-wave (km/s) = 3.01960 3.45669 3.24551
# Velocity P-wave (km/s) = 5.48662 6.50093 6.01519
#
# Compressibility (1/GPa) = 0.02950467
#
# Stress axis : x y z
#
# Youngs Moduli (GPa) = 24.19610 42.67147 79.59546
#
# Poissons Ratio (x) = 0.62436 0.12512
# Poissons Ratio (y) = 0.35403 0.61348
# Poissons Ratio (z) = 0.03804 0.32889
#
# Static dielectric constant tensor:
#      x y z
#    x 1.659750 0.000000 -0.008570 
#    y 0.000000 1.669340 0.000000 
#    z -0.008570 0.000000 1.716470 
# 
# From -- ./inp_files/41729.got.cif
#   From: 2010.05.17/outbox.cif.g08.bks.cpg/sg15_21_cif.got.tgz:41729.got - 2010.06.03 18:47:42.
