data_PCOD9272472
_publ_section_title
;
Structure prediction by ZEFSAII (Michael W. Deem and Ramdas Pophale) SiO2 
 PCOD9272472
Probable space group: C 2/C
;
_chemical_formula_sum "Si O2"
_cell_formula_units_Z 40
_cell_length_a 12.578314
_cell_length_b 14.068228
_cell_length_c 23.409780
_cell_angle_alpha 90.000000
_cell_angle_beta 29.963160
_cell_angle_gamma 90.000000
_cell_volume 2068.926897
_symmetry_space_group_name_H-M "C 2/C"
_symmetry_group_IT_number 15
_symmetry_cell_setting 'monoclinic'
loop_
_space_group_symop_operation_xyz
x,y,z
-x,y,1/2-z
-x,-y,-z
x,-y,1/2+z
1/2+x,1/2+y,z
1/2-x,1/2+y,1/2-z
1/2-x,1/2-y,-z
1/2+x,1/2-y,1/2+z
loop_
_atom_site_type_symbol
_atom_site_label
_atom_site_fract_x
_atom_site_fract_y
_atom_site_fract_z
Si Si1 0.624730 0.096743 0.540735
Si Si2 0.159715 0.130803 0.722638
Si Si3 0.224233 0.115322 0.520218
Si Si4 0.312649 0.233300 0.881898
Si Si5 0.360910 0.733705 0.043517
O O1 0.383127 0.081490 0.631340
O O2 0.621126 0.157872 0.600563
O O3 0.752090 0.165678 0.438539
O O4 0.733735 0.995577 0.496767
O O5 0.232101 0.229754 0.658858
O O6 0.000000 0.084818 0.750000
O O7 0.014562 0.139216 0.846118
O O8 0.369533 0.173816 0.497568
O O9 0.250062 0.156131 0.444759
O O10 0.500000 0.243634 0.750000
O O11 0.092704 0.201323 0.954764
#
# Coordination Sequence:
#
# PCOD9272472 Si02
#       5
#     8   8   8   8   8
#     4  10  22  37  57  85 109 140 189 226 266 328
#     4   9  19  36  56  78 110 143 178 222 271 321
#     4  10  20  37  57  81 112 144 182 227 267 322
#     4  10  21  38  57  81 114 145 177 227 277 319
#     4   9  20  36  56  80 111 145 181 220 272 329
#
# _framework density 19.333694000000001
#
# number of rings (size 3 to 8) (size 9 to 14) (size 15 to 20)
#    0.000    2.400    0.000    1.200    0.000   12.000 
#    0.000   15.000    0.000    0.000    0.000    0.000 
#    0.000    0.000    0.000    0.000    0.000    0.000 
#
# Total GULP energy -111516.510611 kJ/mol
# GULP energy per Si atom -5575.825531 kJ/mol
# Density = 1.928969 g / cm^3
# Si number density = 19.333694 Si / 1000 Ang^3
#
#
#
# Elastic Constant Matrix: (Units=GPa)
#
#
# Indices 1 2 3 4 5 6 
#
# 1 79.3668 37.1484 44.7764 0.0001 -9.1351 0.0000
# 2 37.1484 75.8428 22.3926 -0.0003 -6.7568 -0.0001
# 3 44.7764 22.3926 121.5291 -0.0006 -3.1360 -0.0017
# 4 0.0001 -0.0003 -0.0006 4.3306 -0.0004 -4.4694
# 5 -9.1351 -6.7568 -3.1360 -0.0004 29.0212 -0.0002
# 6 0.0000 -0.0001 -0.0017 -4.4694 -0.0002 5.9966
#
#
#
# Elastic Compliance Matrix: (Units=1/GPa)
#
#
# Indices 1 2 3 4 5 6 
#
# 1 0.019935 -0.007701 -0.005826 -0.000014 0.003852 -0.000012
# 2 -0.007701 0.017180 -0.000288 0.000008 0.001545 0.000006
# 3 -0.005826 -0.000288 0.010408 0.000020 -0.000776 0.000018
# 4 -0.000014 0.000008 0.000020 1.000468 0.000018 0.745667
# 5 0.003852 0.001545 -0.000776 0.000018 0.035946 0.000014
# 6 -0.000012 0.000006 0.000018 0.745667 0.000014 0.722521
#
#
# Mechanical properties :
#
#
# Convention : Reuss Voigt Hill
#
# Bulk Modulus (GPa) = 50.27223 53.93039 52.10131
# Shear Modulus (GPa) = 2.71633 19.36443 11.04038
#
# Velocity S-wave (km/s) = 1.18660 3.16822 2.39224
# Velocity P-wave (km/s) = 5.28547 6.42951 5.88535
#
# Compressibility (1/GPa) = 0.01989170
#
# Stress axis : x y z
#
# Youngs Moduli (GPa) = 50.16400 58.20797 96.07731
#
# Poissons Ratio (x) = 0.44824 0.55979
# Poissons Ratio (y) = 0.38630 0.02771
# Poissons Ratio (z) = 0.29228 0.01679
#
# Static dielectric constant tensor:
#      x y z
#    x 1.702590 0.000000 0.005000 
#    y 0.000000 1.651060 0.000000 
#    z 0.005000 0.000000 1.688720 
# 
# From -- ./inp_files/118673.got.cif
#   From: 2010.05.17/outbox.cif.g08.bks.cpg/sg15_60_cif.got.tgz:118673.got - 2010.06.03 18:47:42.
