data_PCOD9272599
_publ_section_title
;
Structure prediction by ZEFSAII (Michael W. Deem and Ramdas Pophale) SiO2 
 PCOD9272599
Probable space group: C 2/C
;
_chemical_formula_sum "Si O2"
_cell_formula_units_Z 40
_cell_length_a 29.804524
_cell_length_b 5.047460
_cell_length_c 13.782869
_cell_angle_alpha 90.000000
_cell_angle_beta 72.616965
_cell_angle_gamma 90.000000
_cell_volume 1978.758298
_symmetry_space_group_name_H-M "C 2/C"
_symmetry_group_IT_number 15
_symmetry_cell_setting 'monoclinic'
loop_
_space_group_symop_operation_xyz
x,y,z
-x,y,1/2-z
-x,-y,-z
x,-y,1/2+z
1/2+x,1/2+y,z
1/2-x,1/2+y,1/2-z
1/2-x,1/2-y,-z
1/2+x,1/2-y,1/2+z
loop_
_atom_site_type_symbol
_atom_site_label
_atom_site_fract_x
_atom_site_fract_y
_atom_site_fract_z
Si Si1 0.197363 0.307197 0.073427
Si Si2 0.492508 0.728681 0.370260
Si Si3 0.660378 0.329781 0.998682
Si Si4 0.055833 0.722559 0.009516
Si Si5 0.748140 0.414176 0.805762
O O1 0.208410 0.441944 0.169037
O O2 0.250000 0.250000 0.000000
O O3 0.174261 0.538602 0.025179
O O4 0.166414 0.044278 0.081311
O O5 0.500000 0.750321 0.250000
O O6 0.475481 0.436783 0.411921
O O7 0.537718 0.786774 0.409988
O O8 0.454173 0.940765 0.433394
O O9 0.700372 0.419830 0.897578
O O10 0.609193 0.314561 0.986066
O O11 0.740758 0.608072 0.719719
#
# Coordination Sequence:
#
# PCOD9272599 Si02
#       5
#     8   8   8   8   8
#     4  10  20  37  59  76 115 166 195 235 297 355
#     4  10  21  42  67  92 124 161 198 247 324 374
#     4  11  21  39  59  86 119 160 207 241 296 364
#     4  10  22  40  65  92 127 160 198 260 304 365
#     4  11  21  36  56  84 120 160 201 250 296 341
#
# _framework density 20.214696
#
# number of rings (size 3 to 8) (size 9 to 14) (size 15 to 20)
#    0.000    1.600    0.000    7.800    0.000    0.000 
#   10.800    0.000    0.000    0.000    0.000    0.000 
#    0.000    0.000    0.000    0.000    0.000    0.000 
#
# Total GULP energy -111592.209937 kJ/mol
# GULP energy per Si atom -5579.610497 kJ/mol
# Density = 2.016869 g / cm^3
# Si number density = 20.214696 Si / 1000 Ang^3
#
#
#
# Elastic Constant Matrix: (Units=GPa)
#
#
# Indices 1 2 3 4 5 6 
#
# 1 110.4197 13.6319 30.7453 0.0000 23.2321 0.0000
# 2 13.6319 79.5808 8.8601 0.0000 6.1674 0.0000
# 3 30.7453 8.8601 94.0566 0.0000 19.5784 0.0000
# 4 0.0000 0.0000 0.0000 26.6359 0.0000 11.8053
# 5 23.2321 6.1674 19.5784 0.0000 15.3792 0.0000
# 6 0.0000 0.0000 0.0000 11.8053 0.0000 33.7770
#
#
#
# Elastic Compliance Matrix: (Units=1/GPa)
#
#
# Indices 1 2 3 4 5 6 
#
# 1 0.013322 -0.000743 -0.000215 0.000000 -0.019553 0.000000
# 2 -0.000743 0.013013 -0.000177 0.000000 -0.003871 0.000000
# 3 -0.000215 -0.000177 0.014471 0.000000 -0.018027 0.000000
# 4 0.000000 0.000000 0.000000 0.044425 0.000000 -0.015527
# 5 -0.019553 -0.003871 -0.018027 0.000000 0.119062 0.000000
# 6 0.000000 0.000000 0.000000 -0.015527 0.000000 0.035033
#
#
# Mechanical properties :
#
#
# Convention : Reuss Voigt Hill
#
# Bulk Modulus (GPa) = 25.94946 43.39240 34.67093
# Shear Modulus (GPa) = 19.65102 30.54640 25.09871
#
# Velocity S-wave (km/s) = 3.12126 3.89150 3.52747
# Velocity P-wave (km/s) = 5.08473 6.45787 5.81199
#
# Compressibility (1/GPa) = 0.03853644
#
# Stress axis : x y z
#
# Youngs Moduli (GPa) = 75.06542 76.84753 69.10271
#
# Poissons Ratio (x) = 0.05708 0.01483
# Poissons Ratio (y) = 0.05575 0.01225
# Poissons Ratio (z) = 0.01611 0.01363
#
# Static dielectric constant tensor:
#      x y z
#    x 1.693180 0.000000 0.048870 
#    y 0.000000 1.761560 0.000000 
#    z 0.048870 0.000000 1.779240 
# 
# From -- ./inp_files/120837.got.cif
#   From: 2010.05.17/outbox.cif.g08.bks.cpg/sg15_61_cif.got.tgz:120837.got - 2010.06.03 18:47:42.
