data_PCOD9272950
_publ_section_title
;
Structure prediction by ZEFSAII (Michael W. Deem and Ramdas Pophale) SiO2 
 PCOD9272950
Probable space group: C 2/C
;
_chemical_formula_sum "Si O2"
_cell_formula_units_Z 32
_cell_length_a 9.743803
_cell_length_b 20.060524
_cell_length_c 13.831744
_cell_angle_alpha 90.000000
_cell_angle_beta 39.662574
_cell_angle_gamma 90.000000
_cell_volume 1725.634485
_symmetry_space_group_name_H-M "C 2/C"
_symmetry_group_IT_number 15
_symmetry_cell_setting 'monoclinic'
loop_
_space_group_symop_operation_xyz
x,y,z
-x,y,1/2-z
-x,-y,-z
x,-y,1/2+z
1/2+x,1/2+y,z
1/2-x,1/2+y,1/2-z
1/2-x,1/2-y,-z
1/2+x,1/2-y,1/2+z
loop_
_atom_site_type_symbol
_atom_site_label
_atom_site_fract_x
_atom_site_fract_y
_atom_site_fract_z
Si Si1 0.856431 0.322027 0.423493
Si Si2 0.709783 0.043193 0.078218
Si Si3 0.976874 0.922910 0.617977
Si Si4 0.959457 0.580133 0.037339
O O1 0.750000 0.250000 0.500000
O O2 0.646699 0.365499 0.520045
O O3 0.983026 0.365414 0.438827
O O4 0.000000 0.318618 0.250000
O O5 0.500000 0.013523 0.250000
O O6 0.614429 0.090269 0.046324
O O7 0.849075 0.075906 0.086470
O O8 0.875133 0.988361 0.948082
O O9 0.789639 0.914630 0.797214
O O10 0.000000 0.500000 0.000000
#
# Coordination Sequence:
#
# PCOD9272950 Si02
#       4
#     8   8   8   8
#     4  12  26  44  64  90 127 175 219 261 324 395
#     4   9  19  34  59  93 126 157 203 261 314 364
#     4  10  20  37  61  91 129 161 205 260 318 371
#     4  11  22  36  61  96 128 164 212 264 316 377
#
# _framework density 18.543904000000001
#
# number of rings (size 3 to 8) (size 9 to 14) (size 15 to 20)
#    0.000    1.500    2.500    3.000    7.000    0.000 
#    0.000    1.250    0.000    0.000    0.000    0.000 
#    0.000    0.000    0.000    0.000    0.000    0.000 
#
# Total GULP energy -89067.914473 kJ/mol
# GULP energy per Si atom -5566.744655 kJ/mol
# Density = 1.850170 g / cm^3
# Si number density = 18.543904 Si / 1000 Ang^3
#
#
#
# Elastic Constant Matrix: (Units=GPa)
#
#
# Indices 1 2 3 4 5 6 
#
# 1 144.1079 41.6289 57.5408 0.0002 -0.6017 -0.0002
# 2 41.6289 75.4865 48.1405 0.0001 13.9890 -0.0001
# 3 57.5408 48.1405 132.0099 0.0008 12.6031 -0.0006
# 4 0.0002 0.0001 0.0008 33.7488 -0.0003 -2.7071
# 5 -0.6017 13.9890 12.6031 -0.0003 34.6528 0.0002
# 6 -0.0002 -0.0001 -0.0006 -2.7071 0.0002 15.1040
#
#
#
# Elastic Compliance Matrix: (Units=1/GPa)
#
#
# Indices 1 2 3 4 5 6 
#
# 1 0.009185 -0.003714 -0.002909 0.000000 0.002716 0.000000
# 2 -0.003714 0.019587 -0.004934 0.000000 -0.006177 0.000000
# 3 -0.002909 -0.004934 0.010833 0.000000 -0.001999 0.000000
# 4 0.000000 0.000000 0.000000 0.030063 0.000000 0.005388
# 5 0.002716 -0.006177 -0.001999 0.000000 0.032125 0.000000
# 6 0.000000 0.000000 0.000000 0.005388 0.000000 0.067173
#
#
# Mechanical properties :
#
#
# Convention : Reuss Voigt Hill
#
# Bulk Modulus (GPa) = 60.63666 71.80275 66.21971
# Shear Modulus (GPa) = 25.30662 30.32073 27.81368
#
# Velocity S-wave (km/s) = 3.69817 4.04800 3.87703
# Velocity P-wave (km/s) = 7.14180 7.78799 7.47188
#
# Compressibility (1/GPa) = 0.01649167
#
# Stress axis : x y z
#
# Youngs Moduli (GPa) = 108.87664 51.05443 92.30878
#
# Poissons Ratio (x) = 0.18960 0.26848
# Poissons Ratio (y) = 0.40433 0.45549
# Poissons Ratio (z) = 0.31667 0.25192
#
# Static dielectric constant tensor:
#      x y z
#    x 1.709210 0.000000 0.059750 
#    y 0.000000 1.553300 0.000000 
#    z 0.059750 0.000000 1.664750 
# 
# From -- ./inp_files/145927.got.cif
#   From: 2010.05.17/outbox.cif.g08.bks.cpg/sg15_73_cif.got.tgz:145927.got - 2010.06.03 18:47:42.
