data_PCOD9272727
_publ_section_title
;
Structure prediction by ZEFSAII (Michael W. Deem and Ramdas Pophale) SiO2 
 PCOD9272727
Probable space group: C 2/C
;
_chemical_formula_sum "Si O2"
_cell_formula_units_Z 56
_cell_length_a 18.514277
_cell_length_b 14.605477
_cell_length_c 12.956422
_cell_angle_alpha 90.000000
_cell_angle_beta 61.136834
_cell_angle_gamma 90.000000
_cell_volume 3068.316451
_symmetry_space_group_name_H-M "C 2/C"
_symmetry_group_IT_number 15
_symmetry_cell_setting 'monoclinic'
loop_
_space_group_symop_operation_xyz
x,y,z
-x,y,1/2-z
-x,-y,-z
x,-y,1/2+z
1/2+x,1/2+y,z
1/2-x,1/2+y,1/2-z
1/2-x,1/2-y,-z
1/2+x,1/2-y,1/2+z
loop_
_atom_site_type_symbol
_atom_site_label
_atom_site_fract_x
_atom_site_fract_y
_atom_site_fract_z
Si Si1 0.846895 0.691650 0.256542
Si Si2 0.953214 0.596235 0.025433
Si Si3 0.395117 0.229169 0.553276
Si Si4 0.305076 0.891760 0.474537
Si Si5 0.219002 0.754068 0.683882
Si Si6 0.268121 0.894883 0.007761
Si Si7 0.083707 0.155436 0.658984
O O1 0.799133 0.749765 0.202823
O O2 0.783801 0.655794 0.387290
O O3 0.911480 0.754895 0.271354
O O4 0.893476 0.610327 0.165530
O O5 0.894745 0.611470 0.966972
O O6 0.022621 0.673258 0.981184
O O7 0.000000 0.500000 0.000000
O O8 0.355387 0.266494 0.685354
O O9 0.329736 0.158492 0.543536
O O10 0.416023 0.308740 0.458077
O O11 0.240251 0.838939 0.594138
O O12 0.298287 0.835361 0.373063
O O13 0.287883 0.999063 0.478992
O O14 0.173828 0.888555 0.109674
O O15 0.000000 0.104940 0.750000
#
# Coordination Sequence:
#
# PCOD9272727 Si02
#       7
#     8   8   8   8   8   8   8
#     4  10  20  37  60  84 123 156 201 241 304 359
#     4  11  22  36  57  97 125 155 193 255 306 353
#     4  11  20  37  61  88 125 157 199 239 306 368
#     4  10  24  39  60  88 123 159 205 243 298 363
#     4  10  21  41  59  82 115 171 198 234 299 367
#     4  11  21  37  62  92 115 161 199 251 299 360
#     4  11  20  37  62  90 114 154 204 257 293 352
#
# _framework density 18.251052000000001
#
# number of rings (size 3 to 8) (size 9 to 14) (size 15 to 20)
#    0.000    1.429    5.714    0.857    2.000    0.571 
#    0.000    0.000    9.429    1.714    0.000    0.000 
#    0.000    0.000    0.000    0.000    0.000    0.000 
#
# Total GULP energy -156127.115806 kJ/mol
# GULP energy per Si atom -5575.968422 kJ/mol
# Density = 1.820951 g / cm^3
# Si number density = 18.251052 Si / 1000 Ang^3
#
#
#
# Elastic Constant Matrix: (Units=GPa)
#
#
# Indices 1 2 3 4 5 6 
#
# 1 109.1607 31.0799 41.2377 0.0000 -9.9082 0.0000
# 2 31.0799 49.3563 12.0937 0.0000 9.4743 0.0000
# 3 41.2377 12.0937 102.6213 0.0000 0.5235 0.0000
# 4 0.0000 0.0000 0.0000 8.5777 0.0000 -0.1456
# 5 -9.9082 9.4743 0.5235 0.0000 32.3642 0.0000
# 6 0.0000 0.0000 0.0000 -0.1456 0.0000 25.2182
#
#
#
# Elastic Compliance Matrix: (Units=1/GPa)
#
#
# Indices 1 2 3 4 5 6 
#
# 1 0.014163 -0.009139 -0.004650 0.000000 0.007087 0.000000
# 2 -0.009139 0.028025 0.000426 0.000000 -0.011009 0.000000
# 3 -0.004650 0.000426 0.011572 0.000000 -0.001736 0.000000
# 4 0.000000 0.000000 0.000000 0.116593 0.000000 0.000673
# 5 0.007087 -0.011009 -0.001736 0.000000 0.036319 0.000000
# 6 0.000000 0.000000 0.000000 0.000673 0.000000 0.039658
#
#
# Mechanical properties :
#
#
# Convention : Reuss Voigt Hill
#
# Bulk Modulus (GPa) = 36.99270 47.77343 42.38306
# Shear Modulus (GPa) = 17.72629 25.01383 21.37006
#
# Velocity S-wave (km/s) = 3.11987 3.70610 3.42555
# Velocity P-wave (km/s) = 5.76983 6.67429 6.23847
#
# Compressibility (1/GPa) = 0.02703236
#
# Stress axis : x y z
#
# Youngs Moduli (GPa) = 70.60671 35.68272 86.41599
#
# Poissons Ratio (x) = 0.32612 0.40187
# Poissons Ratio (y) = 0.64530 -0.03682
# Poissons Ratio (z) = 0.32835 -0.01520
#
# Static dielectric constant tensor:
#      x y z
#    x 1.644580 0.000000 -0.008550 
#    y 0.000000 1.605260 0.000000 
#    z -0.008550 0.000000 1.651070 
# 
# From -- ./inp_files/105276.got.cif
#   From: 2010.05.17/outbox.cif.g08.bks.cpg/sg15_53_cif.got.tgz:105276.got - 2010.06.03 18:47:42.
