data_PCOD9272308
_publ_section_title
;
Structure prediction by ZEFSAII (Michael W. Deem and Ramdas Pophale) SiO2 
 PCOD9272308
Probable space group: C 2/C
;
_chemical_formula_sum "Si O2"
_cell_formula_units_Z 44
_cell_length_a 10.007029
_cell_length_b 26.999499
_cell_length_c 8.773839
_cell_angle_alpha 90.000000
_cell_angle_beta 122.987024
_cell_angle_gamma 90.000000
_cell_volume 1988.409295
_symmetry_space_group_name_H-M "C 2/C"
_symmetry_group_IT_number 15
_symmetry_cell_setting 'monoclinic'
loop_
_space_group_symop_operation_xyz
x,y,z
-x,y,1/2-z
-x,-y,-z
x,-y,1/2+z
1/2+x,1/2+y,z
1/2-x,1/2+y,1/2-z
1/2-x,1/2-y,-z
1/2+x,1/2-y,1/2+z
loop_
_atom_site_type_symbol
_atom_site_label
_atom_site_fract_x
_atom_site_fract_y
_atom_site_fract_z
Si Si1 0.500000 0.529815 0.250000
Si Si2 0.500000 0.862280 0.250000
Si Si3 0.000000 0.803443 0.750000
Si Si4 0.782984 0.455772 0.353615
Si Si5 0.500000 0.984266 0.750000
Si Si6 0.327626 0.388956 0.455661
Si Si7 0.337106 0.219985 0.850644
Si Si8 0.500000 0.257545 0.250000
O O1 0.644193 0.495052 0.293552
O O2 0.561632 0.566531 0.418546
O O3 0.648637 0.890607 0.416949
O O4 0.587350 0.826126 0.187416
O O5 0.120816 0.767695 0.730889
O O6 0.908441 0.839150 0.572661
O O7 0.884890 0.452013 0.570885
O O8 0.708826 0.405227 0.241024
O O9 0.896073 0.480801 0.296216
O O10 0.150269 0.214618 0.769091
O O11 0.423758 0.226903 0.065236
#
# Coordination Sequence:
#
# PCOD9272308 Si02
#       8
#     4   4   4   8   4   8   8   4
#     4  11  24  41  67  92 135 177 220 275 337 385
#     4  11  23  41  66  94 125 178 229 265 312 410
#     4  10  22  42  67  94 129 182 225 261 314 412
#     4  11  22  44  65  98 123 179 215 279 329 399
#     4  10  23  38  74  88 125 167 224 259 340 398
#     4  11  23  38  65  97 130 167 230 276 312 382
#     4  10  21  41  68  95 131 175 215 262 342 387
#     4  10  20  36  68  94 126 164 212 276 323 397
#
# _framework density 22.128240000000002
#
# number of rings (size 3 to 8) (size 9 to 14) (size 15 to 20)
#    0.000    1.455    1.818    3.273    2.545    2.909 
#    0.000    6.364    0.000    0.000    0.000    0.000 
#    0.000    0.000    0.000    0.000    0.000    0.000 
#
# Total GULP energy -122842.830638 kJ/mol
# GULP energy per Si atom -5583.765029 kJ/mol
# Density = 2.207787 g / cm^3
# Si number density = 22.128240 Si / 1000 Ang^3
#
#
#
# Elastic Constant Matrix: (Units=GPa)
#
#
# Indices 1 2 3 4 5 6 
#
# 1 112.3403 14.6556 38.1663 0.0000 12.0382 0.0000
# 2 14.6556 93.5681 55.8761 0.0000 -1.2597 0.0000
# 3 38.1663 55.8761 175.2728 0.0000 7.0942 0.0000
# 4 0.0000 0.0000 0.0000 6.9006 0.0000 16.0898
# 5 12.0382 -1.2597 7.0942 0.0000 38.5228 0.0000
# 6 0.0000 0.0000 0.0000 16.0898 0.0000 14.5233
#
#
#
# Elastic Compliance Matrix: (Units=1/GPa)
#
#
# Indices 1 2 3 4 5 6 
#
# 1 0.009902 -0.000454 -0.001900 0.000000 -0.002759 0.000000
# 2 -0.000454 0.013278 -0.004189 0.000000 0.001347 0.000000
# 3 -0.001900 -0.004189 0.007492 0.000000 -0.000923 0.000000
# 4 0.000000 0.000000 0.000000 -0.091536 0.000000 0.101409
# 5 -0.002759 0.001347 -0.000923 0.000000 0.027035 0.000000
# 6 0.000000 0.000000 0.000000 0.101409 0.000000 -0.043492
#
#
# Mechanical properties :
#
#
# Convention : Reuss Voigt Hill
#
# Bulk Modulus (GPa) = 56.85918 66.50859 61.68389
# Shear Modulus (GPa) = -85.65361 30.15488 -27.74937
#
# Velocity S-wave (km/s) = -6.22831 3.69553 -3.54506
# Velocity P-wave (km/s) = 5.09621 6.95201 3.34358
#
# Compressibility (1/GPa) = 0.01758731
#
# Stress axis : x y z
#
# Youngs Moduli (GPa) = 100.99145 75.31284 133.47922
#
# Poissons Ratio (x) = 0.03416 0.25360
# Poissons Ratio (y) = 0.04580 0.55911
# Poissons Ratio (z) = 0.19187 0.31546
#
# Static dielectric constant tensor:
#      x y z
#    x 1.833520 0.000000 0.024530 
#    y 0.000000 1.829920 0.000000 
#    z 0.024530 0.000000 1.866610 
# 
# From -- ./inp_files/26048.got.cif
#   From: 2010.05.17/outbox.cif.g08.bks.cpg/sg15_14_cif.got.tgz:26048.got - 2010.06.03 18:47:42.
