data_PCOD9272935
_publ_section_title
;
Structure prediction by ZEFSAII (Michael W. Deem and Ramdas Pophale) SiO2 
 PCOD9272935
Probable space group: C 2/C
;
_chemical_formula_sum "Si O2"
_cell_formula_units_Z 52
_cell_length_a 18.385705
_cell_length_b 20.702845
_cell_length_c 7.894876
_cell_angle_alpha 90.000000
_cell_angle_beta 122.281572
_cell_angle_gamma 90.000000
_cell_volume 2540.593382
_symmetry_space_group_name_H-M "C 2/C"
_symmetry_group_IT_number 15
_symmetry_cell_setting 'monoclinic'
loop_
_space_group_symop_operation_xyz
x,y,z
-x,y,1/2-z
-x,-y,-z
x,-y,1/2+z
1/2+x,1/2+y,z
1/2-x,1/2+y,1/2-z
1/2-x,1/2-y,-z
1/2+x,1/2-y,1/2+z
loop_
_atom_site_type_symbol
_atom_site_label
_atom_site_fract_x
_atom_site_fract_y
_atom_site_fract_z
Si Si1 0.309132 0.846104 0.461384
Si Si2 0.194876 0.958287 0.164707
Si Si3 0.169686 0.911749 0.750235
Si Si4 0.444559 0.256670 0.513842
Si Si5 0.000000 0.320330 0.750000
Si Si6 0.021715 0.906364 0.973411
Si Si7 0.252102 0.785087 0.745283
O O1 0.260496 0.908384 0.330548
O O2 0.410428 0.858170 0.614601
O O3 0.263852 0.820110 0.576831
O O4 0.298652 0.782199 0.331177
O O5 0.219232 0.033395 0.205564
O O6 0.180235 0.936523 0.954625
O O7 0.100012 0.950305 0.132940
O O8 0.204787 0.839318 0.793492
O O9 0.071786 0.909029 0.559189
O O10 0.500000 0.244679 0.750000
O O11 0.483312 0.222979 0.395706
O O12 0.443771 0.333281 0.479858
O O13 0.348202 0.231631 0.421633
O O14 0.000000 0.921552 0.750000
#
# Coordination Sequence:
#
# PCOD9272935 Si02
#       7
#     8   8   8   8   4   8   8
#     4  10  21  39  61  85 125 151 208 253 308 356
#     4  11  22  39  59  84 125 162 201 255 301 372
#     4  11  23  37  61  88 123 163 206 241 313 365
#     4  10  20  37  61  90 129 154 206 253 308 363
#     4  10  22  36  58  92 116 164 200 258 306 364
#     4   9  19  37  56  88 121 162 199 245 301 371
#     4  10  21  38  60  91 118 160 200 259 302 366
#
# _framework density 20.467659999999999
#
# number of rings (size 3 to 8) (size 9 to 14) (size 15 to 20)
#    0.000    1.846    1.538    2.308    2.154    0.615 
#    2.769    0.000    1.692    2.769    0.000    0.000 
#    0.000    0.000    0.000    0.000    0.000    0.000 
#
# Total GULP energy -145236.526617 kJ/mol
# GULP energy per Si atom -5586.020255 kJ/mol
# Density = 2.042107 g / cm^3
# Si number density = 20.467660 Si / 1000 Ang^3
#
#
#
# Elastic Constant Matrix: (Units=GPa)
#
#
# Indices 1 2 3 4 5 6 
#
# 1 43.2135 16.2646 8.7518 0.0000 12.4439 0.0000
# 2 16.2646 109.8168 31.6799 0.0000 14.2183 0.0000
# 3 8.7518 31.6799 53.8576 0.0000 13.1493 0.0000
# 4 0.0000 0.0000 0.0000 21.7370 0.0000 -6.0814
# 5 12.4439 14.2183 13.1493 0.0000 29.9445 0.0000
# 6 0.0000 0.0000 0.0000 -6.0814 0.0000 11.4080
#
#
#
# Elastic Compliance Matrix: (Units=1/GPa)
#
#
# Indices 1 2 3 4 5 6 
#
# 1 0.027035 -0.002600 -0.000473 0.000000 -0.009793 0.000000
# 2 -0.002600 0.011409 -0.005858 0.000000 -0.001765 0.000000
# 3 -0.000473 -0.005858 0.023928 0.000000 -0.007529 0.000000
# 4 0.000000 0.000000 0.000000 0.054068 0.000000 0.028823
# 5 -0.009793 -0.001765 -0.007529 0.000000 0.041609 0.000000
# 6 0.000000 0.000000 0.000000 0.028823 0.000000 0.103023
#
#
# Mechanical properties :
#
#
# Convention : Reuss Voigt Hill
#
# Bulk Modulus (GPa) = 22.46606 35.58674 29.02640
# Shear Modulus (GPa) = 17.01999 22.63065 19.82532
#
# Velocity S-wave (km/s) = 2.88680 3.32878 3.11564
# Velocity P-wave (km/s) = 4.70230 5.67441 5.21108
#
# Compressibility (1/GPa) = 0.04451159
#
# Stress axis : x y z
#
# Youngs Moduli (GPa) = 36.98888 87.64628 41.79134
#
# Poissons Ratio (x) = 0.22786 0.01977
# Poissons Ratio (y) = 0.09616 0.24481
# Poissons Ratio (z) = 0.01750 0.51343
#
# Static dielectric constant tensor:
#      x y z
#    x 1.803930 0.000000 -0.029390 
#    y 0.000000 1.712380 0.000000 
#    z -0.029390 0.000000 1.729250 
# 
# From -- ./inp_files/48648.got.cif
#   From: 2010.05.17/outbox.cif.g08.bks.cpg/sg15_25_cif.got.tgz:48648.got - 2010.06.03 18:47:42.
