data_PCOD9272355
_publ_section_title
;
Structure prediction by ZEFSAII (Michael W. Deem and Ramdas Pophale) SiO2 
 PCOD9272355
Probable space group: C 2/C
;
_chemical_formula_sum "Si O2"
_cell_formula_units_Z 56
_cell_length_a 29.373440
_cell_length_b 13.498852
_cell_length_c 9.026319
_cell_angle_alpha 90.000000
_cell_angle_beta 131.090640
_cell_angle_gamma 90.000000
_cell_volume 2697.391585
_symmetry_space_group_name_H-M "C 2/C"
_symmetry_group_IT_number 15
_symmetry_cell_setting 'monoclinic'
loop_
_space_group_symop_operation_xyz
x,y,z
-x,y,1/2-z
-x,-y,-z
x,-y,1/2+z
1/2+x,1/2+y,z
1/2-x,1/2+y,1/2-z
1/2-x,1/2-y,-z
1/2+x,1/2-y,1/2+z
loop_
_atom_site_type_symbol
_atom_site_label
_atom_site_fract_x
_atom_site_fract_y
_atom_site_fract_z
Si Si1 0.915145 0.796923 0.815110
Si Si2 0.788420 0.187470 0.959281
Si Si3 0.379220 0.933803 0.257158
Si Si4 0.000000 0.757943 0.250000
Si Si5 0.071669 0.637201 0.158676
Si Si6 0.500000 0.752574 0.250000
Si Si7 0.701399 0.187949 0.308371
Si Si8 0.796110 0.488187 0.326023
O O1 0.849891 0.847902 0.670003
O O2 0.901495 0.677552 0.786740
O O3 0.954867 0.812173 0.753392
O O4 0.955823 0.817506 0.045800
O O5 0.810841 0.256254 0.871899
O O6 0.749912 0.101647 0.796171
O O7 0.750000 0.250000 0.000000
O O8 0.427857 0.018638 0.329295
O O9 0.356861 0.949532 0.376277
O O10 0.320934 0.964028 0.031352
O O11 0.958368 0.690120 0.266154
O O12 0.141280 0.669370 0.276191
O O13 0.036775 0.677859 0.940722
O O14 0.750000 0.250000 0.500000
O O15 0.727374 0.081696 0.317045
#
# Coordination Sequence:
#
# PCOD9272355 Si02
#       8
#     8   8   8   4   8   4   8   8
#     4  11  21  37  54  85 117 166 202 253 307 360
#     4  12  22  37  62  87 122 162 202 250 314 361
#     4  11  20  35  56  83 127 152 195 253 301 373
#     4  10  24  35  56  86 121 166 216 246 293 379
#     4  10  21  36  55  83 119 162 199 248 301 364
#     4  10  20  37  52  76 121 156 214 238 305 367
#     4  11  23  39  62  90 124 159 196 254 312 363
#     4  11  21  37  56  90 123 157 194 247 305 374
#
# _framework density 20.760795999999999
#
# number of rings (size 3 to 8) (size 9 to 14) (size 15 to 20)
#    0.000    1.143    4.286    3.429    2.000    3.429 
#    0.000    0.000    0.000    0.000    0.000    6.000 
#    0.000    0.000    0.000    0.000    0.000    0.000 
#
# Total GULP energy -156347.784285 kJ/mol
# GULP energy per Si atom -5583.849439 kJ/mol
# Density = 2.071354 g / cm^3
# Si number density = 20.760796 Si / 1000 Ang^3
#
#
#
# Elastic Constant Matrix: (Units=GPa)
#
#
# Indices 1 2 3 4 5 6 
#
# 1 69.6402 6.7448 24.6822 0.0000 -4.8042 0.0000
# 2 6.7448 36.4812 7.7669 0.0000 4.4305 0.0000
# 3 24.6822 7.7669 122.6453 0.0000 7.4263 0.0000
# 4 0.0000 0.0000 0.0000 27.7506 0.0000 4.1781
# 5 -4.8042 4.4305 7.4263 0.0000 37.7556 0.0000
# 6 0.0000 0.0000 0.0000 4.1781 0.0000 15.1249
#
#
#
# Elastic Compliance Matrix: (Units=1/GPa)
#
#
# Indices 1 2 3 4 5 6 
#
# 1 0.015962 -0.002625 -0.003226 0.000000 0.002974 0.000000
# 2 -0.002625 0.028546 -0.001069 0.000000 -0.003474 0.000000
# 3 -0.003226 -0.001069 0.008995 0.000000 -0.002054 0.000000
# 4 0.000000 0.000000 0.000000 0.037599 0.000000 -0.010386
# 5 0.002974 -0.003474 -0.002054 0.000000 0.027676 0.000000
# 6 0.000000 0.000000 0.000000 -0.010386 0.000000 0.068985
#
#
# Mechanical properties :
#
#
# Convention : Reuss Voigt Hill
#
# Bulk Modulus (GPa) = 25.21301 34.12828 29.67065
# Shear Modulus (GPa) = 23.27461 28.76441 26.01951
#
# Velocity S-wave (km/s) = 3.35189 3.72629 3.54404
# Velocity P-wave (km/s) = 5.21068 5.91508 5.57401
#
# Compressibility (1/GPa) = 0.03966207
#
# Stress axis : x y z
#
# Youngs Moduli (GPa) = 62.64724 35.03083 111.17339
#
# Poissons Ratio (x) = 0.09197 0.35867
# Poissons Ratio (y) = 0.16448 0.11885
# Poissons Ratio (z) = 0.20211 0.03745
#
# Static dielectric constant tensor:
#      x y z
#    x 1.778270 0.000000 -0.006480 
#    y 0.000000 1.729880 0.000000 
#    z -0.006480 0.000000 1.826420 
# 
# From -- ./inp_files/55684.got.cif
#   From: 2010.05.17/outbox.cif.g08.bks.cpg/sg15_28_cif.got.tgz:55684.got - 2010.06.03 18:47:42.
