data_PCOD9272178
_publ_section_title
;
Structure prediction by ZEFSAII (Michael W. Deem and Ramdas Pophale) SiO2 
 PCOD9272178
Probable space group: C 2/C
;
_chemical_formula_sum "Si O2"
_cell_formula_units_Z 48
_cell_length_a 13.954869
_cell_length_b 22.275397
_cell_length_c 11.516520
_cell_angle_alpha 90.000000
_cell_angle_beta 39.467643
_cell_angle_gamma 90.000000
_cell_volume 2275.544384
_symmetry_space_group_name_H-M "C 2/C"
_symmetry_group_IT_number 15
_symmetry_cell_setting 'monoclinic'
loop_
_space_group_symop_operation_xyz
x,y,z
-x,y,1/2-z
-x,-y,-z
x,-y,1/2+z
1/2+x,1/2+y,z
1/2-x,1/2+y,1/2-z
1/2-x,1/2-y,-z
1/2+x,1/2-y,1/2+z
loop_
_atom_site_type_symbol
_atom_site_label
_atom_site_fract_x
_atom_site_fract_y
_atom_site_fract_z
Si Si1 0.731636 0.608332 0.143488
Si Si2 0.676775 0.261540 0.730684
Si Si3 0.000000 0.662839 0.750000
Si Si4 0.000000 0.381138 0.750000
Si Si5 0.000000 0.016390 0.250000
Si Si6 0.455281 0.227152 0.117189
Si Si7 0.802003 0.080329 0.055607
Si Si8 0.500000 0.679867 0.750000
O O1 0.640197 0.671685 0.222070
O O2 0.632060 0.557841 0.176237
O O3 0.741203 0.589319 0.269746
O O4 0.893920 0.621346 0.931463
O O5 0.619050 0.207619 0.704025
O O6 0.852312 0.268157 0.598883
O O7 0.610818 0.249483 0.919202
O O8 0.980779 0.335769 0.658030
O O9 0.849092 0.420780 0.882061
O O10 0.916206 0.974103 0.422767
O O11 0.404999 0.275660 0.258435
O O12 0.893694 0.138340 0.926193
#
# Coordination Sequence:
#
# PCOD9272178 Si02
#       8
#     8   8   4   4   4   8   8   4
#     4  12  25  47  67  99 134 179 226 274 330 392
#     4  12  22  40  63 103 140 177 208 260 329 410
#     4  12  27  41  67 101 139 181 214 264 332 410
#     4  11  20  40  66 102 138 170 213 272 328 406
#     4  11  29  47  72  94 125 175 235 294 330 380
#     4  11  21  35  65 104 141 172 210 255 337 406
#     4  11  23  45  69  96 131 174 230 279 335 377
#     4  10  20  36  65 101 136 176 210 268 324 408
#
# _framework density 21.093855000000001
#
# number of rings (size 3 to 8) (size 9 to 14) (size 15 to 20)
#    0.000    0.667    5.000    2.500    2.333    3.333 
#    0.000    6.667    0.000    0.000    0.000    0.000 
#    0.000    0.000    0.000    0.000    0.000    0.000 
#
# Total GULP energy -133863.891685 kJ/mol
# GULP energy per Si atom -5577.662154 kJ/mol
# Density = 2.104584 g / cm^3
# Si number density = 21.093855 Si / 1000 Ang^3
#
#
#
# Elastic Constant Matrix: (Units=GPa)
#
#
# Indices 1 2 3 4 5 6 
#
# 1 125.8188 48.3382 46.1167 0.0000 -3.8226 0.0001
# 2 48.3382 96.4582 52.8967 0.0000 2.8717 0.0000
# 3 46.1167 52.8967 127.1003 0.0000 8.3973 0.0002
# 4 0.0000 0.0000 0.0000 25.8195 0.0000 -8.1180
# 5 -3.8226 2.8717 8.3973 0.0000 34.9028 -0.0002
# 6 0.0001 0.0000 0.0002 -8.1180 -0.0002 92.7705
#
#
#
# Elastic Compliance Matrix: (Units=1/GPa)
#
#
# Indices 1 2 3 4 5 6 
#
# 1 0.010374 -0.004045 -0.002213 0.000000 0.002001 0.000000
# 2 -0.004045 0.015012 -0.004745 0.000000 -0.000537 0.000000
# 3 -0.002213 -0.004745 0.010807 0.000000 -0.002452 0.000000
# 4 0.000000 0.000000 0.000000 0.039826 0.000000 0.003485
# 5 0.002001 -0.000537 -0.002452 0.000000 0.029504 0.000000
# 6 0.000000 0.000000 0.000000 0.003485 0.000000 0.011084
#
#
# Mechanical properties :
#
#
# Convention : Reuss Voigt Hill
#
# Bulk Modulus (GPa) = 70.47901 71.56451 71.02176
# Shear Modulus (GPa) = 34.88163 44.16695 39.52429
#
# Velocity S-wave (km/s) = 4.07091 4.58080 4.33336
# Velocity P-wave (km/s) = 7.45527 7.87266 7.66680
#
# Compressibility (1/GPa) = 0.01418862
#
# Stress axis : x y z
#
# Youngs Moduli (GPa) = 96.39713 66.61334 92.52929
#
# Poissons Ratio (x) = 0.26943 0.20476
# Poissons Ratio (y) = 0.38989 0.43902
# Poissons Ratio (z) = 0.21332 0.31606
#
# Static dielectric constant tensor:
#      x y z
#    x 1.827750 0.000000 -0.021240 
#    y 0.000000 1.759790 0.000000 
#    z -0.021240 0.000000 1.789890 
# 
# From -- ./inp_files/50450.got.cif
#   From: 2010.05.17/outbox.cif.g08.bks.cpg/sg15_26_cif.got.tgz:50450.got - 2010.06.03 18:47:42.
