data_PCOD9272511
_publ_section_title
;
Structure prediction by ZEFSAII (Michael W. Deem and Ramdas Pophale) SiO2 
 PCOD9272511
Probable space group: C 2/C
;
_chemical_formula_sum "Si O2"
_cell_formula_units_Z 52
_cell_length_a 12.197929
_cell_length_b 18.207036
_cell_length_c 13.521415
_cell_angle_alpha 90.000000
_cell_angle_beta 55.795657
_cell_angle_gamma 90.000000
_cell_volume 2483.550191
_symmetry_space_group_name_H-M "C 2/C"
_symmetry_group_IT_number 15
_symmetry_cell_setting 'monoclinic'
loop_
_space_group_symop_operation_xyz
x,y,z
-x,y,1/2-z
-x,-y,-z
x,-y,1/2+z
1/2+x,1/2+y,z
1/2-x,1/2+y,1/2-z
1/2-x,1/2-y,-z
1/2+x,1/2-y,1/2+z
loop_
_atom_site_type_symbol
_atom_site_label
_atom_site_fract_x
_atom_site_fract_y
_atom_site_fract_z
Si Si1 0.000000 0.495218 0.250000
Si Si2 0.687259 0.045869 0.989650
Si Si3 0.021348 0.956708 0.123299
Si Si4 0.297216 0.125581 0.039170
Si Si5 0.897909 0.625469 0.663707
Si Si6 0.554557 0.382389 0.522004
Si Si7 0.379187 0.282944 0.731598
O O1 0.072884 0.541763 0.129432
O O2 0.099890 0.440205 0.257142
O O3 0.825285 0.063510 0.972248
O O4 0.656818 0.096432 0.912198
O O5 0.701231 0.962025 0.942838
O O6 0.000000 0.948671 0.250000
O O7 0.006022 0.041912 0.100433
O O8 0.934127 0.905510 0.097503
O O9 0.192636 0.138287 0.003593
O O10 0.238348 0.169585 0.161132
O O11 0.445847 0.144774 0.932936
O O12 0.835152 0.700651 0.731849
O O13 0.445199 0.321739 0.603104
O O14 0.500000 0.282256 0.750000
#
# Coordination Sequence:
#
# PCOD9272511 Si02
#       7
#     4   8   8   8   8   8   8
#     4  10  20  38  58  88 120 158 202 254 304 352
#     4  10  22  38  62  90 122 157 204 252 296 365
#     4  10  20  37  57  90 118 158 208 245 291 358
#     4   9  19  37  61  88 120 155 197 255 305 352
#     4  11  22  38  59  94 121 156 202 246 310 365
#     4   9  19  34  59  84 117 160 199 252 299 345
#     4  10  20  38  59  91 124 156 197 254 311 354
#
# _framework density 20.937768999999999
#
# number of rings (size 3 to 8) (size 9 to 14) (size 15 to 20)
#    0.000    2.154    0.769    4.154    0.000    9.846 
#    5.538    0.769    1.692    0.000    0.000    0.000 
#    0.000    0.000    0.000    0.000    0.000    0.000 
#
# Total GULP energy -145365.796007 kJ/mol
# GULP energy per Si atom -5590.992154 kJ/mol
# Density = 2.089011 g / cm^3
# Si number density = 20.937769 Si / 1000 Ang^3
#
#
#
# Elastic Constant Matrix: (Units=GPa)
#
#
# Indices 1 2 3 4 5 6 
#
# 1 44.7069 16.9518 6.0045 0.0000 5.3948 0.0000
# 2 16.9518 46.4664 26.5093 0.0000 5.1860 0.0000
# 3 6.0045 26.5093 64.3620 0.0000 13.1872 0.0000
# 4 0.0000 0.0000 0.0000 18.6869 0.0000 10.8589
# 5 5.3948 5.1860 13.1872 0.0000 30.4396 0.0000
# 6 0.0000 0.0000 0.0000 10.8589 0.0000 17.9131
#
#
#
# Elastic Compliance Matrix: (Units=1/GPa)
#
#
# Indices 1 2 3 4 5 6 
#
# 1 0.026600 -0.010863 0.002830 0.000000 -0.004090 0.000000
# 2 -0.010863 0.032569 -0.012794 0.000000 0.001919 0.000000
# 3 0.002830 -0.012794 0.022166 0.000000 -0.007925 0.000000
# 4 0.000000 0.000000 0.000000 0.082616 0.000000 -0.050082
# 5 -0.004090 0.001919 -0.007925 0.000000 0.036683 0.000000
# 6 0.000000 0.000000 0.000000 -0.050082 0.000000 0.086184
#
#
# Mechanical properties :
#
#
# Convention : Reuss Voigt Hill
#
# Bulk Modulus (GPa) = 25.19988 28.27408 26.73698
# Shear Modulus (GPa) = 14.63277 20.47923 17.55600
#
# Velocity S-wave (km/s) = 2.64648 3.13085 2.89880
# Velocity P-wave (km/s) = 4.62604 5.15779 4.89914
#
# Compressibility (1/GPa) = 0.03968273
#
# Stress axis : x y z
#
# Youngs Moduli (GPa) = 37.59384 30.70431 45.11324
#
# Poissons Ratio (x) = 0.33353 -0.12769
# Poissons Ratio (y) = 0.40836 0.57719
# Poissons Ratio (z) = -0.10641 0.39284
#
# Static dielectric constant tensor:
#      x y z
#    x 1.775110 0.000000 -0.033030 
#    y 0.000000 1.756220 0.000000 
#    z -0.033030 0.000000 1.790420 
# 
# From -- ./inp_files/145481.got.cif
#   From: 2010.05.17/outbox.cif.g08.bks.cpg/sg15_73_cif.got.tgz:145481.got - 2010.06.03 18:47:42.
