data_PCOD9272742
_publ_section_title
;
Structure prediction by ZEFSAII (Michael W. Deem and Ramdas Pophale) SiO2 
 PCOD9272742
Probable space group: C 2/C
;
_chemical_formula_sum "Si O2"
_cell_formula_units_Z 60
_cell_length_a 28.910957
_cell_length_b 8.643398
_cell_length_c 22.929208
_cell_angle_alpha 90.000000
_cell_angle_beta 33.045156
_cell_angle_gamma 90.000000
_cell_volume 3124.434344
_symmetry_space_group_name_H-M "C 2/C"
_symmetry_group_IT_number 15
_symmetry_cell_setting 'monoclinic'
loop_
_space_group_symop_operation_xyz
x,y,z
-x,y,1/2-z
-x,-y,-z
x,-y,1/2+z
1/2+x,1/2+y,z
1/2-x,1/2+y,1/2-z
1/2-x,1/2-y,-z
1/2+x,1/2-y,1/2+z
loop_
_atom_site_type_symbol
_atom_site_label
_atom_site_fract_x
_atom_site_fract_y
_atom_site_fract_z
Si Si1 0.250282 0.966999 0.370581
Si Si2 0.304387 0.963770 0.081391
Si Si3 0.889707 0.179874 0.043656
Si Si4 0.160236 0.832523 0.773100
Si Si5 0.806149 0.255948 0.881675
Si Si6 0.045642 0.958986 0.308366
Si Si7 0.000000 0.161134 0.250000
Si Si8 0.327344 0.772320 0.463187
O O1 0.189829 0.073079 0.394025
O O2 0.306152 0.072823 0.354979
O O3 0.309189 0.839307 0.277091
O O4 0.186477 0.869184 0.478089
O O5 0.247096 0.066521 0.185236
O O6 0.373145 0.856652 0.040180
O O7 0.244260 0.841688 0.113103
O O8 0.329625 0.077493 0.001892
O O9 0.888601 0.171103 0.114514
O O10 0.976356 0.118472 0.923633
O O11 0.104747 0.921594 0.782719
O O12 0.896153 0.168917 0.786455
O O13 0.750000 0.250000 0.000000
O O14 0.999158 0.055095 0.307703
O O15 0.915018 0.259653 0.337171
O O16 0.250000 0.750000 0.500000
#
# Coordination Sequence:
#
# PCOD9272742 Si02
#       8
#     8   8   8   8   8   8   4   8
#     4  10  20  38  62  90 115 161 215 250 311 384
#     4   9  21  37  58  91 115 157 212 248 309 383
#     4  11  21  40  61  92 127 158 207 269 315 370
#     4  10  21  41  65  85 122 170 210 256 315 383
#     4  10  20  37  60  85 121 161 201 254 318 380
#     4  11  24  39  60  92 126 163 212 260 322 377
#     4  12  22  40  64  92 128 166 208 264 318 380
#     4  11  21  40  62  91 128 164 209 255 314 389
#
# _framework density 19.203476999999999
#
# number of rings (size 3 to 8) (size 9 to 14) (size 15 to 20)
#    0.000    1.600    1.333    5.200    1.867    0.000 
#    7.200    0.667    0.000    0.000    0.000    0.000 
#    0.000    0.000    0.000    0.000    0.000    0.000 
#
# Total GULP energy -167270.727392 kJ/mol
# GULP energy per Si atom -5575.690913 kJ/mol
# Density = 1.915977 g / cm^3
# Si number density = 19.203477 Si / 1000 Ang^3
#
#
#
# Elastic Constant Matrix: (Units=GPa)
#
#
# Indices 1 2 3 4 5 6 
#
# 1 64.1385 29.3196 33.6128 0.0008 3.4925 0.0000
# 2 29.3196 113.7936 43.7742 -0.0039 1.7968 0.0022
# 3 33.6128 43.7742 142.6440 -0.0029 6.8217 0.0002
# 4 0.0008 -0.0039 -0.0029 20.0879 0.0032 -4.6426
# 5 3.4925 1.7968 6.8217 0.0032 31.1376 -0.0008
# 6 0.0000 0.0022 0.0002 -4.6426 -0.0008 17.1919
#
#
#
# Elastic Compliance Matrix: (Units=1/GPa)
#
#
# Indices 1 2 3 4 5 6 
#
# 1 0.019049 -0.003611 -0.003323 -0.000002 -0.001200 0.000000
# 2 -0.003611 0.010649 -0.002433 0.000002 0.000323 -0.000001
# 3 -0.003323 -0.002433 0.008606 0.000001 -0.001372 0.000001
# 4 -0.000002 0.000002 0.000001 0.053095 -0.000005 0.014338
# 5 -0.001200 0.000323 -0.001372 -0.000005 0.032532 0.000000
# 6 0.000000 -0.000001 0.000001 0.014338 0.000000 0.062039
#
#
# Mechanical properties :
#
#
# Convention : Reuss Voigt Hill
#
# Bulk Modulus (GPa) = 51.09774 59.33214 55.21494
# Shear Modulus (GPa) = 23.67138 27.94143 25.80641
#
# Velocity S-wave (km/s) = 3.51474 3.81861 3.66982
# Velocity P-wave (km/s) = 6.56792 7.09972 6.83899
#
# Compressibility (1/GPa) = 0.01957034
#
# Stress axis : x y z
#
# Youngs Moduli (GPa) = 52.49683 93.90737 116.20261
#
# Poissons Ratio (x) = 0.33907 0.38617
# Poissons Ratio (y) = 0.18955 0.28266
# Poissons Ratio (z) = 0.17446 0.22843
#
# Static dielectric constant tensor:
#      x y z
#    x 1.737500 0.000000 -0.011790 
#    y 0.000000 1.733960 -0.000010 
#    z -0.011790 -0.000010 1.596610 
# 
# From -- ./inp_files/255187.got.cif
#   From: 2010.05.17/outbox.cif.g08.bks.cpg/sg15_128_cif.got.tgz:255187.got - 2010.06.03 18:47:42.
