data_PCOD9272979
_publ_section_title
;
Structure prediction by ZEFSAII (Michael W. Deem and Ramdas Pophale) SiO2 
 PCOD9272979
Probable space group: C 2/C
;
_chemical_formula_sum "Si O2"
_cell_formula_units_Z 56
_cell_length_a 9.127319
_cell_length_b 21.479591
_cell_length_c 14.484701
_cell_angle_alpha 90.000000
_cell_angle_beta 91.442675
_cell_angle_gamma 90.000000
_cell_volume 2838.841105
_symmetry_space_group_name_H-M "C 2/C"
_symmetry_group_IT_number 15
_symmetry_cell_setting 'monoclinic'
loop_
_space_group_symop_operation_xyz
x,y,z
-x,y,1/2-z
-x,-y,-z
x,-y,1/2+z
1/2+x,1/2+y,z
1/2-x,1/2+y,1/2-z
1/2-x,1/2-y,-z
1/2+x,1/2-y,1/2+z
loop_
_atom_site_type_symbol
_atom_site_label
_atom_site_fract_x
_atom_site_fract_y
_atom_site_fract_z
Si Si1 0.175760 0.191653 0.087503
Si Si2 0.776031 0.695778 0.426475
Si Si3 0.572769 0.542404 0.855049
Si Si4 0.034444 0.091343 0.449611
Si Si5 0.132451 0.606618 0.693138
Si Si6 0.056451 0.313399 0.028470
Si Si7 0.675965 0.727205 0.754306
O O1 0.050815 0.241793 0.060754
O O2 0.278233 0.228651 0.159727
O O3 0.097544 0.127082 0.105726
O O4 0.277298 0.179072 0.001672
O O5 0.750000 0.750000 0.500000
O O6 0.671519 0.637322 0.440272
O O7 0.772390 0.731311 0.330258
O O8 0.942161 0.673639 0.447263
O O9 0.500000 0.547809 0.750000
O O10 0.559680 0.473449 0.897950
O O11 0.742609 0.561102 0.842985
O O12 0.504017 0.582780 0.940696
O O13 0.039577 0.640671 0.612111
O O14 0.229522 0.663437 0.739271
O O15 0.000000 0.577561 0.750000
O O16 0.500000 0.715231 0.750000
#
# Coordination Sequence:
#
# PCOD9272979 Si02
#       7
#     8   8   8   8   8   8   8
#     4  10  20  39  65  92 137 173 211 267 337 404
#     4  12  24  38  66 103 136 171 217 284 342 404
#     4  11  27  48  71  93 130 189 234 277 322 407
#     4  11  26  47  69  98 136 179 231 276 337 404
#     4  11  24  41  66  99 131 174 231 276 331 399
#     4  10  20  37  61  99 133 167 203 277 340 388
#     4  11  24  38  64 103 142 176 216 277 351 411
#
# _framework density 19.72636
#
# number of rings (size 3 to 8) (size 9 to 14) (size 15 to 20)
#    0.000    1.143    4.286    1.286   10.000    0.000 
#    0.000    2.857    0.000    0.000    0.000    0.000 
#    0.000    0.000    0.000    0.000    0.000    0.000 
#
# Total GULP energy -156037.856159 kJ/mol
# GULP energy per Si atom -5572.780577 kJ/mol
# Density = 1.968146 g / cm^3
# Si number density = 19.726360 Si / 1000 Ang^3
#
#
#
# Elastic Constant Matrix: (Units=GPa)
#
#
# Indices 1 2 3 4 5 6 
#
# 1 81.0215 45.4158 36.1806 0.0000 -8.9340 0.0000
# 2 45.4158 83.5837 12.7832 0.0000 -8.2675 0.0000
# 3 36.1806 12.7832 70.1754 0.0000 -8.6043 0.0000
# 4 0.0000 0.0000 0.0000 16.1816 0.0000 -6.2524
# 5 -8.9340 -8.2675 -8.6043 0.0000 33.7228 0.0000
# 6 0.0000 0.0000 0.0000 -6.2524 0.0000 13.2720
#
#
#
# Elastic Compliance Matrix: (Units=1/GPa)
#
#
# Indices 1 2 3 4 5 6 
#
# 1 0.022850 -0.010842 -0.009693 0.000000 0.000922 0.000000
# 2 -0.010842 0.017663 0.002633 0.000000 0.002130 0.000000
# 3 -0.009693 0.002633 0.019130 0.000000 0.002959 0.000000
# 4 0.000000 0.000000 0.000000 0.075551 0.000000 0.035592
# 5 0.000922 0.002130 0.002959 0.000000 0.031175 0.000000
# 6 0.000000 0.000000 0.000000 0.035592 0.000000 0.092113
#
#
# Mechanical properties :
#
#
# Convention : Reuss Voigt Hill
#
# Bulk Modulus (GPa) = 41.94480 47.05995 44.50238
# Shear Modulus (GPa) = 16.54360 21.99535 19.26947
#
# Velocity S-wave (km/s) = 2.89909 3.34282 3.12883
# Velocity P-wave (km/s) = 5.70226 6.22956 5.97173
#
# Compressibility (1/GPa) = 0.02384086
#
# Stress axis : x y z
#
# Youngs Moduli (GPa) = 43.76410 56.61544 52.27288
#
# Poissons Ratio (x) = 0.61382 0.50666
# Poissons Ratio (y) = 0.47449 -0.13766
# Poissons Ratio (z) = 0.42419 -0.14910
#
# Static dielectric constant tensor:
#      x y z
#    x 1.748600 0.000000 0.173720 
#    y 0.000000 1.699700 0.000000 
#    z 0.173720 0.000000 1.151450 
# 
# From -- ./inp_files/136431.got.cif
#   From: 2010.05.17/outbox.cif.g08.bks.cpg/sg15_69_cif.got.tgz:136431.got - 2010.06.03 18:47:42.
