data_PCOD9272356
_publ_section_title
;
Structure prediction by ZEFSAII (Michael W. Deem and Ramdas Pophale) SiO2 
 PCOD9272356
Probable space group: C 2/C
;
_chemical_formula_sum "Si O2"
_cell_formula_units_Z 48
_cell_length_a 19.681969
_cell_length_b 23.875529
_cell_length_c 5.869553
_cell_angle_alpha 90.000000
_cell_angle_beta 125.812142
_cell_angle_gamma 90.000000
_cell_volume 2236.738487
_symmetry_space_group_name_H-M "C 2/C"
_symmetry_group_IT_number 15
_symmetry_cell_setting 'monoclinic'
loop_
_space_group_symop_operation_xyz
x,y,z
-x,y,1/2-z
-x,-y,-z
x,-y,1/2+z
1/2+x,1/2+y,z
1/2-x,1/2+y,1/2-z
1/2-x,1/2-y,-z
1/2+x,1/2-y,1/2+z
loop_
_atom_site_type_symbol
_atom_site_label
_atom_site_fract_x
_atom_site_fract_y
_atom_site_fract_z
Si Si1 0.389979 0.842878 0.391418
Si Si2 0.042610 0.223323 0.086621
Si Si3 0.223259 0.811238 0.866868
Si Si4 0.313747 0.864859 0.663627
Si Si5 0.083466 0.445168 0.300550
Si Si6 0.248860 0.517693 0.573803
O O1 0.430291 0.789295 0.352918
O O2 0.376060 0.829923 0.627922
O O3 0.433241 0.902387 0.438942
O O4 0.292281 0.849603 0.124595
O O5 0.126514 0.185287 0.234425
O O6 0.000000 0.211648 0.250000
O O7 0.000000 0.216384 0.750000
O O8 0.247868 0.824040 0.655561
O O9 0.250000 0.750000 0.000000
O O10 0.262333 0.915855 0.451801
O O11 0.376363 0.899824 0.947862
O O12 0.156036 0.488958 0.386901
O O13 0.000000 0.469336 0.250000
O O14 0.285541 0.501025 0.393730
#
# Coordination Sequence:
#
# PCOD9272356 Si02
#       6
#     8   8   8   8   8   8
#     4  10  21  37  58  82 116 165 201 240 286 359
#     4  11  26  40  60  89 119 150 197 254 304 353
#     4   9  22  40  60  80 117 156 198 247 305 352
#     4  10  21  35  58  79 110 162 208 240 285 350
#     4  10  21  34  50  80 123 162 203 242 289 332
#     4  10  20  37  52  79 115 154 199 245 279 330
#
# _framework density 21.459817999999999
#
# number of rings (size 3 to 8) (size 9 to 14) (size 15 to 20)
#    0.000    2.000    1.667    0.500   11.667    4.000 
#    0.000    0.000    0.000    0.000    0.000    0.000 
#    0.000   36.000    0.000    0.000    0.000    0.000 
#
# Total GULP energy -133608.617970 kJ/mol
# GULP energy per Si atom -5567.025749 kJ/mol
# Density = 2.141097 g / cm^3
# Si number density = 21.459818 Si / 1000 Ang^3
#
#
#
# Elastic Constant Matrix: (Units=GPa)
#
#
# Indices 1 2 3 4 5 6 
#
# 1 118.2134 27.7376 42.6413 0.0000 -19.7569 0.0000
# 2 27.7376 49.2790 -1.2177 0.0000 -8.6910 0.0000
# 3 42.6413 -1.2177 86.3243 0.0000 -11.9537 0.0000
# 4 0.0000 0.0000 0.0000 19.4929 0.0000 -14.6900
# 5 -19.7569 -8.6910 -11.9537 0.0000 36.1365 0.0000
# 6 0.0000 0.0000 0.0000 -14.6900 0.0000 41.4000
#
#
#
# Elastic Compliance Matrix: (Units=1/GPa)
#
#
# Indices 1 2 3 4 5 6 
#
# 1 0.012736 -0.006717 -0.005916 0.000000 0.003391 0.000000
# 2 -0.006717 0.024826 0.004178 0.000000 0.003680 0.000000
# 3 -0.005916 0.004178 0.014941 0.000000 0.002713 0.000000
# 4 0.000000 0.000000 0.000000 0.070026 0.000000 0.024847
# 5 0.003391 0.003680 0.002713 0.000000 0.031309 0.000000
# 6 0.000000 0.000000 0.000000 0.024847 0.000000 0.032971
#
#
# Mechanical properties :
#
#
# Convention : Reuss Voigt Hill
#
# Bulk Modulus (GPa) = 28.09634 43.57099 35.83366
# Shear Modulus (GPa) = 23.19274 31.71624 27.45449
#
# Velocity S-wave (km/s) = 3.29105 3.84856 3.58067
# Velocity P-wave (km/s) = 5.24998 6.33216 5.81629
#
# Compressibility (1/GPa) = 0.03559183
#
# Stress axis : x y z
#
# Youngs Moduli (GPa) = 78.51639 40.28083 66.92855
#
# Poissons Ratio (x) = 0.27057 0.39598
# Poissons Ratio (y) = 0.52740 -0.27961
# Poissons Ratio (z) = 0.46454 -0.16828
#
# Static dielectric constant tensor:
#      x y z
#    x 1.933240 0.000000 -0.111310 
#    y 0.000000 1.785870 0.000000 
#    z -0.111310 0.000000 2.096430 
# 
# From -- ./inp_files/10654.got.cif
#   From: 2010.05.17/outbox.cif.g08.bks.cpg/sg15_6_cif.got.tgz:10654.got - 2010.06.03 18:47:42.
