data_PCOD9272510
_publ_section_title
;
Structure prediction by ZEFSAII (Michael W. Deem and Ramdas Pophale) SiO2 
 PCOD9272510
Probable space group: C 2/C
;
_chemical_formula_sum "Si O2"
_cell_formula_units_Z 48
_cell_length_a 10.118537
_cell_length_b 15.999784
_cell_length_c 13.957087
_cell_angle_alpha 90.000000
_cell_angle_beta 86.083066
_cell_angle_gamma 90.000000
_cell_volume 2254.296250
_symmetry_space_group_name_H-M "C 2/C"
_symmetry_group_IT_number 15
_symmetry_cell_setting 'monoclinic'
loop_
_space_group_symop_operation_xyz
x,y,z
-x,y,1/2-z
-x,-y,-z
x,-y,1/2+z
1/2+x,1/2+y,z
1/2-x,1/2+y,1/2-z
1/2-x,1/2-y,-z
1/2+x,1/2-y,1/2+z
loop_
_atom_site_type_symbol
_atom_site_label
_atom_site_fract_x
_atom_site_fract_y
_atom_site_fract_z
Si Si1 0.698353 0.011658 0.566360
Si Si2 0.219037 0.638457 0.730310
Si Si3 0.633367 0.656379 0.424472
Si Si4 0.000000 0.357177 0.750000
Si Si5 0.110547 0.488408 0.861415
Si Si6 0.877477 0.221797 0.874312
Si Si7 0.500000 0.720792 0.250000
O O1 0.788172 0.930526 0.579066
O O2 0.544632 0.992924 0.601916
O O3 0.741539 0.088114 0.631464
O O4 0.693471 0.028119 0.452708
O O5 0.148675 0.574464 0.808263
O O6 0.348386 0.667814 0.781213
O O7 0.122361 0.717158 0.719690
O O8 0.736714 0.732894 0.402890
O O9 0.578305 0.672298 0.534097
O O10 0.533657 0.665862 0.341335
O O11 0.881868 0.415973 0.718474
O O12 0.969219 0.298427 0.840771
#
# Coordination Sequence:
#
# PCOD9272510 Si02
#       7
#     8   8   8   4   8   8   4
#     4  11  20  33  60  88 118 149 192 243 296 343
#     4  11  19  37  56  91 117 151 194 246 287 344
#     4  10  20  37  57  90 116 161 193 240 294 357
#     4  12  21  38  57  90 122 156 188 244 301 346
#     4  11  20  32  58  93 116 148 190 247 292 348
#     4  10  22  35  60  84 125 153 193 241 301 347
#     4  10  21  32  59  86 122 152 200 236 287 354
#
# _framework density 21.292676
#
# number of rings (size 3 to 8) (size 9 to 14) (size 15 to 20)
#    0.000    1.333    6.667    0.000    2.333    0.000 
#    0.000    1.667    3.667    2.000    0.000    0.000 
#    0.000    0.000    0.000    0.000    0.000    0.000 
#
# Total GULP energy -134014.532753 kJ/mol
# GULP energy per Si atom -5583.938865 kJ/mol
# Density = 2.124421 g / cm^3
# Si number density = 21.292676 Si / 1000 Ang^3
#
#
#
# Elastic Constant Matrix: (Units=GPa)
#
#
# Indices 1 2 3 4 5 6 
#
# 1 40.5334 33.4230 35.8191 0.0000 19.9149 0.0000
# 2 33.4230 92.1934 50.6427 0.0000 27.9607 0.0000
# 3 35.8191 50.6427 148.4038 0.0000 53.5854 0.0000
# 4 0.0000 0.0000 0.0000 31.7613 0.0000 2.9856
# 5 19.9149 27.9607 53.5854 0.0000 36.0327 0.0000
# 6 0.0000 0.0000 0.0000 2.9856 0.0000 22.8204
#
#
#
# Elastic Compliance Matrix: (Units=1/GPa)
#
#
# Indices 1 2 3 4 5 6 
#
# 1 0.040450 -0.010011 -0.002331 0.000000 -0.011121 0.000000
# 2 -0.010011 0.016907 -0.001326 0.000000 -0.005615 0.000000
# 3 -0.002331 -0.001326 0.014938 0.000000 -0.019898 0.000000
# 4 0.000000 0.000000 0.000000 0.031877 0.000000 -0.004170
# 5 -0.011121 -0.005615 -0.019898 0.000000 0.067847 0.000000
# 6 0.000000 0.000000 0.000000 -0.004170 0.000000 0.044366
#
#
# Mechanical properties :
#
#
# Convention : Reuss Voigt Hill
#
# Bulk Modulus (GPa) = 22.24241 57.87782 40.06011
# Shear Modulus (GPa) = 19.32682 28.87260 24.09971
#
# Velocity S-wave (km/s) = 3.01603 3.68637 3.36792
# Velocity P-wave (km/s) = 4.75366 6.73499 5.82913
#
# Compressibility (1/GPa) = 0.04495916
#
# Stress axis : x y z
#
# Youngs Moduli (GPa) = 24.72184 59.14599 66.94278
#
# Poissons Ratio (x) = 0.59211 0.15606
# Poissons Ratio (y) = 0.24749 0.08876
# Poissons Ratio (z) = 0.05763 0.07842
#
# Static dielectric constant tensor:
#      x y z
#    x 1.795510 0.000000 -0.020360 
#    y 0.000000 1.755880 0.000000 
#    z -0.020360 0.000000 1.807370 
# 
# From -- ./inp_files/143599.got.cif
#   From: 2010.05.17/outbox.cif.g08.bks.cpg/sg15_72_cif.got.tgz:143599.got - 2010.06.03 18:47:42.
