data_PCOD9272949
_publ_section_title
;
Structure prediction by ZEFSAII (Michael W. Deem and Ramdas Pophale) SiO2 
 PCOD9272949
Probable space group: C 2/C
;
_chemical_formula_sum "Si O2"
_cell_formula_units_Z 40
_cell_length_a 11.807699
_cell_length_b 24.516424
_cell_length_c 5.340027
_cell_angle_alpha 90.000000
_cell_angle_beta 100.903159
_cell_angle_gamma 90.000000
_cell_volume 1517.939514
_symmetry_space_group_name_H-M "C 2/C"
_symmetry_group_IT_number 15
_symmetry_cell_setting 'monoclinic'
loop_
_space_group_symop_operation_xyz
x,y,z
-x,y,1/2-z
-x,-y,-z
x,-y,1/2+z
1/2+x,1/2+y,z
1/2-x,1/2+y,1/2-z
1/2-x,1/2-y,-z
1/2+x,1/2-y,1/2+z
loop_
_atom_site_type_symbol
_atom_site_label
_atom_site_fract_x
_atom_site_fract_y
_atom_site_fract_z
Si Si1 0.214535 0.875083 0.402219
Si Si2 0.347180 0.815018 0.827607
Si Si3 0.881801 0.429304 0.080210
Si Si4 0.820794 0.971349 0.780370
Si Si5 0.400819 0.699031 0.012199
O O1 0.308681 0.830505 0.531375
O O2 0.285462 0.915966 0.252409
O O3 0.163856 0.909895 0.611938
O O4 0.116324 0.844367 0.213507
O O5 0.222949 0.805447 0.903639
O O6 0.403470 0.869921 0.961481
O O7 0.414177 0.760004 0.909866
O O8 0.000000 0.448632 0.250000
O O9 0.817441 0.466718 0.846844
O O10 0.865384 0.007407 0.032390
O O11 0.500000 0.688151 0.250000
#
# Coordination Sequence:
#
# PCOD9272949 Si02
#       5
#     8   8   8   8   8
#     4  10  21  39  59  88 124 165 208 257 310 376
#     4   9  20  36  58  90 128 166 201 247 309 370
#     4  10  21  37  58  90 126 165 209 255 308 374
#     4  11  22  40  62  89 123 169 209 264 322 371
#     4  10  20  37  61  91 126 164 208 253 304 369
#
# _framework density 26.351509
#
# number of rings (size 3 to 8) (size 9 to 14) (size 15 to 20)
#    0.000    2.000    2.000    1.200    0.000    4.800 
#    0.000    2.000    0.000    1.200    0.000    0.000 
#    0.000    0.000    0.000    0.000    0.000    0.000 
#
# Total GULP energy -111896.533059 kJ/mol
# GULP energy per Si atom -5594.826653 kJ/mol
# Density = 2.629153 g / cm^3
# Si number density = 26.351509 Si / 1000 Ang^3
#
#
#
# Elastic Constant Matrix: (Units=GPa)
#
#
# Indices 1 2 3 4 5 6 
#
# 1 77.7979 10.4226 31.4556 0.0000 -0.3888 0.0000
# 2 10.4226 127.3561 74.0822 0.0000 1.9120 0.0000
# 3 31.4556 74.0822 214.9924 0.0000 15.8931 0.0000
# 4 0.0000 0.0000 0.0000 39.0748 0.0000 0.0332
# 5 -0.3888 1.9120 15.8931 0.0000 31.7426 0.0000
# 6 0.0000 0.0000 0.0000 0.0332 0.0000 -4.5971
#
#
#
# Elastic Compliance Matrix: (Units=1/GPa)
#
#
# Indices 1 2 3 4 5 6 
#
# 1 0.013708 0.000099 -0.002131 0.000000 0.001229 0.000000
# 2 0.000099 0.009861 -0.003498 0.000000 0.001159 0.000000
# 3 -0.002131 -0.003498 0.006391 0.000000 -0.003015 0.000000
# 4 0.000000 0.000000 0.000000 0.025592 0.000000 0.000185
# 5 0.001229 0.001159 -0.003015 0.000000 0.032958 0.000000
# 6 0.000000 0.000000 0.000000 0.000185 0.000000 -0.217527
#
#
# Mechanical properties :
#
#
# Convention : Reuss Voigt Hill
#
# Bulk Modulus (GPa) = 52.90605 72.45190 62.67898
# Shear Modulus (GPa) = -44.78043 33.52312 -5.62866
#
# Velocity S-wave (km/s) = -4.12679 3.57059 -1.46309
# Velocity P-wave (km/s) = 1.60828 6.67480 4.58074
#
# Compressibility (1/GPa) = 0.01890143
#
# Stress axis : x y z
#
# Youngs Moduli (GPa) = 72.94931 101.40580 156.46078
#
# Poissons Ratio (x) = -0.01004 0.33336
# Poissons Ratio (y) = -0.00723 0.54733
# Poissons Ratio (z) = 0.15543 0.35474
#
# Static dielectric constant tensor:
#      x y z
#    x 2.097070 0.000000 -0.103860 
#    y 0.000000 2.087170 0.000000 
#    z -0.103860 0.000000 2.080170 
# 
# From -- ./inp_files/7936.got.cif
#   From: 2010.05.17/outbox.cif.g08.bks.cpg/sg15_4_cif.got.tgz:7936.got - 2010.06.03 18:47:42.
