data_PCOD9272847
_publ_section_title
;
Structure prediction by ZEFSAII (Michael W. Deem and Ramdas Pophale) SiO2 
 PCOD9272847
Probable space group: C 2/C
;
_chemical_formula_sum "Si O2"
_cell_formula_units_Z 48
_cell_length_a 15.665864
_cell_length_b 28.120299
_cell_length_c 8.789858
_cell_angle_alpha 90.000000
_cell_angle_beta 36.670384
_cell_angle_gamma 90.000000
_cell_volume 2312.510301
_symmetry_space_group_name_H-M "C 2/C"
_symmetry_group_IT_number 15
_symmetry_cell_setting 'monoclinic'
loop_
_space_group_symop_operation_xyz
x,y,z
-x,y,1/2-z
-x,-y,-z
x,-y,1/2+z
1/2+x,1/2+y,z
1/2-x,1/2+y,1/2-z
1/2-x,1/2-y,-z
1/2+x,1/2-y,1/2+z
loop_
_atom_site_type_symbol
_atom_site_label
_atom_site_fract_x
_atom_site_fract_y
_atom_site_fract_z
Si Si1 0.663396 0.853330 0.483284
Si Si2 0.854393 0.483196 0.285673
Si Si3 0.751860 0.850049 0.703668
Si Si4 0.000000 0.920652 0.250000
Si Si5 0.800400 0.950916 0.267805
Si Si6 0.662746 0.250694 0.966941
Si Si7 0.500000 0.898558 0.250000
O O1 0.500000 0.867045 0.750000
O O2 0.719836 0.845188 0.571583
O O3 0.753312 0.897307 0.293761
O O4 0.673422 0.802732 0.383433
O O5 0.719327 0.478283 0.363825
O O6 0.817705 0.522655 0.461694
O O7 0.897087 0.433213 0.299917
O O8 0.000000 0.500000 0.000000
O O9 0.793400 0.796531 0.694289
O O10 0.881743 0.887788 0.506437
O O11 0.610591 0.868714 0.989795
O O12 0.070182 0.947873 0.295399
O O13 0.500000 0.257483 0.250000
O O14 0.750000 0.250000 0.000000
#
# Coordination Sequence:
#
# PCOD9272847 Si02
#       7
#     8   8   8   4   8   8   4
#     4   9  17  32  59  90 119 157 220 268 310 379
#     4  12  22  40  62  91 127 169 220 278 327 390
#     4  10  20  37  60  92 126 168 212 264 330 387
#     4  10  22  40  62  89 131 176 216 264 324 404
#     4  11  23  37  61  90 126 172 220 268 324 392
#     4   9  17  32  60  94 119 163 215 272 311 387
#     4  12  24  38  66  95 133 166 216 276 336 388
#
# _framework density 20.756663
#
# number of rings (size 3 to 8) (size 9 to 14) (size 15 to 20)
#    0.000    1.667    2.500    4.000    0.000    0.667 
#    0.000    0.000    0.000   16.000    0.000    0.000 
#    0.000    0.000    0.000    0.000    0.000    0.000 
#
# Total GULP energy -133627.187166 kJ/mol
# GULP energy per Si atom -5567.799465 kJ/mol
# Density = 2.070942 g / cm^3
# Si number density = 20.756663 Si / 1000 Ang^3
#
#
#
# Elastic Constant Matrix: (Units=GPa)
#
#
# Indices 1 2 3 4 5 6 
#
# 1 103.8248 12.3316 -1.9618 0.0000 -22.5513 0.0000
# 2 12.3316 89.9355 27.5753 0.0000 1.6272 0.0000
# 3 -1.9618 27.5753 54.3162 0.0000 -9.6729 0.0000
# 4 0.0000 0.0000 0.0000 -33.1181 0.0000 -7.6147
# 5 -22.5513 1.6272 -9.6729 0.0000 28.7429 0.0000
# 6 0.0000 0.0000 0.0000 -7.6147 0.0000 30.7164
#
#
#
# Elastic Compliance Matrix: (Units=1/GPa)
#
#
# Indices 1 2 3 4 5 6 
#
# 1 0.012570 -0.003190 0.004108 0.000000 0.011425 0.000000
# 2 -0.003190 0.014259 -0.008450 0.000000 -0.006153 0.000000
# 3 0.004108 -0.008450 0.025007 0.000000 0.012117 0.000000
# 4 0.000000 0.000000 0.000000 -0.028567 0.000000 -0.007082
# 5 0.011425 -0.006153 0.012117 0.000000 0.048181 0.000000
# 6 0.000000 0.000000 0.000000 -0.007082 0.000000 0.030800
#
#
# Mechanical properties :
#
#
# Convention : Reuss Voigt Hill
#
# Bulk Modulus (GPa) = 27.19482 35.99632 31.59557
# Shear Modulus (GPa) = 38.58908 19.27701 28.93305
#
# Velocity S-wave (km/s) = 4.31643 3.05079 3.73757
# Velocity P-wave (km/s) = 6.16216 5.45797 5.82072
#
# Compressibility (1/GPa) = 0.03677170
#
# Stress axis : x y z
#
# Youngs Moduli (GPa) = 79.55665 70.13294 39.98917
#
# Poissons Ratio (x) = 0.22371 -0.16428
# Poissons Ratio (y) = 0.25377 0.33790
# Poissons Ratio (z) = -0.32682 0.59262
#
# Static dielectric constant tensor:
#      x y z
#    x 1.921670 0.000000 -0.088580 
#    y 0.000000 1.929300 0.000000 
#    z -0.088580 0.000000 1.723900 
# 
# From -- ./inp_files/44462.got.cif
#   From: 2010.05.17/outbox.cif.g08.bks.cpg/sg15_23_cif.got.tgz:44462.got - 2010.06.03 18:47:42.
