data_PCOD9272227
_publ_section_title
;
Structure prediction by ZEFSAII (Michael W. Deem and Ramdas Pophale) SiO2 
 PCOD9272227
Probable space group: C 2/C
;
_chemical_formula_sum "Si O2"
_cell_formula_units_Z 44
_cell_length_a 11.889563
_cell_length_b 11.358481
_cell_length_c 17.071868
_cell_angle_alpha 90.000000
_cell_angle_beta 50.321473
_cell_angle_gamma 90.000000
_cell_volume 1774.410913
_symmetry_space_group_name_H-M "C 2/C"
_symmetry_group_IT_number 15
_symmetry_cell_setting 'monoclinic'
loop_
_space_group_symop_operation_xyz
x,y,z
-x,y,1/2-z
-x,-y,-z
x,-y,1/2+z
1/2+x,1/2+y,z
1/2-x,1/2+y,1/2-z
1/2-x,1/2-y,-z
1/2+x,1/2-y,1/2+z
loop_
_atom_site_type_symbol
_atom_site_label
_atom_site_fract_x
_atom_site_fract_y
_atom_site_fract_z
Si Si1 0.716304 0.763499 0.757801
Si Si2 0.350794 0.413744 0.470442
Si Si3 0.022436 0.292451 0.091337
Si Si4 0.000000 0.126054 0.750000
Si Si5 0.044513 0.352508 0.539104
Si Si6 0.742432 0.626215 0.900082
O O1 0.632053 0.711258 0.720081
O O2 0.608019 0.858093 0.845619
O O3 0.735546 0.658988 0.812887
O O4 0.885043 0.792202 0.669425
O O5 0.444411 0.443791 0.350815
O O6 0.183398 0.412065 0.515549
O O7 0.409799 0.286969 0.471165
O O8 0.336271 0.504154 0.547179
O O9 0.098598 0.354241 0.131204
O O10 0.144475 0.220342 0.990408
O O11 0.968346 0.380467 0.047029
#
# Coordination Sequence:
#
# PCOD9272227 Si02
#       6
#     8   8   8   4   8   8
#     4  10  20  39  63  89 120 166 201 250 302 360
#     4  10  20  41  60  95 121 161 203 253 306 354
#     4  10  20  41  61  87 124 164 197 251 305 365
#     4  10  20  36  66  84 124 156 204 256 292 364
#     4   9  20  37  66  85 123 159 197 258 296 361
#     4  10  23  39  64  88 129 160 200 253 306 364
#
# _framework density 24.796963000000002
#
# number of rings (size 3 to 8) (size 9 to 14) (size 15 to 20)
#    0.000    2.182    1.818    0.545    0.000    7.273 
#    9.818    5.455    0.000    0.000    0.000    0.000 
#    0.000    0.000    0.000    0.000    0.000    0.000 
#
# Total GULP energy -122901.279913 kJ/mol
# GULP energy per Si atom -5586.421814 kJ/mol
# Density = 2.474052 g / cm^3
# Si number density = 24.796963 Si / 1000 Ang^3
#
#
#
# Elastic Constant Matrix: (Units=GPa)
#
#
# Indices 1 2 3 4 5 6 
#
# 1 165.7949 -2.3758 29.0500 0.0000 -14.4022 0.0000
# 2 -2.3758 25.1135 -7.3719 0.0000 8.6596 0.0000
# 3 29.0500 -7.3719 90.3409 0.0000 4.5935 0.0000
# 4 0.0000 0.0000 0.0000 19.0605 0.0000 3.0456
# 5 -14.4022 8.6596 4.5935 0.0000 32.7996 0.0000
# 6 0.0000 0.0000 0.0000 3.0456 0.0000 7.6070
#
#
#
# Elastic Compliance Matrix: (Units=1/GPa)
#
#
# Indices 1 2 3 4 5 6 
#
# 1 0.006764 -0.001353 -0.002472 0.000000 0.003674 0.000000
# 2 -0.001353 0.045713 0.004844 0.000000 -0.013341 0.000000
# 3 -0.002472 0.004844 0.012468 0.000000 -0.004111 0.000000
# 4 0.000000 0.000000 0.000000 0.056050 0.000000 -0.022441
# 5 0.003674 -0.013341 -0.004111 0.000000 0.036199 0.000000
# 6 0.000000 0.000000 0.000000 -0.022441 0.000000 0.140442
#
#
# Mechanical properties :
#
#
# Convention : Reuss Voigt Hill
#
# Bulk Modulus (GPa) = 14.92901 35.53930 25.23416
# Shear Modulus (GPa) = 15.72682 29.35657 22.54170
#
# Velocity S-wave (km/s) = 2.52111 3.44449 3.01832
# Velocity P-wave (km/s) = 3.80897 5.49386 4.72709
#
# Compressibility (1/GPa) = 0.06698369
#
# Stress axis : x y z
#
# Youngs Moduli (GPa) = 147.83102 21.87542 80.20253
#
# Poissons Ratio (x) = 0.02959 0.19829
# Poissons Ratio (y) = 0.19995 -0.38847
# Poissons Ratio (z) = 0.36549 -0.10595
#
# Static dielectric constant tensor:
#      x y z
#    x 2.017800 0.000000 -0.004680 
#    y 0.000000 2.019380 0.000000 
#    z -0.004680 0.000000 2.017760 
# 
# From -- ./inp_files/123248.got.cif
#   From: 2010.05.17/outbox.cif.g08.bks.cpg/sg15_62_cif.got.tgz:123248.got - 2010.06.03 18:47:42.
