data_PCOD9272636
_publ_section_title
;
Structure prediction by ZEFSAII (Michael W. Deem and Ramdas Pophale) SiO2 
 PCOD9272636
Probable space group: C 2/C
;
_chemical_formula_sum "Si O2"
_cell_formula_units_Z 40
_cell_length_a 13.340469
_cell_length_b 10.538445
_cell_length_c 15.236953
_cell_angle_alpha 90.000000
_cell_angle_beta 69.604393
_cell_angle_gamma 90.000000
_cell_volume 2007.836815
_symmetry_space_group_name_H-M "C 2/C"
_symmetry_group_IT_number 15
_symmetry_cell_setting 'monoclinic'
loop_
_space_group_symop_operation_xyz
x,y,z
-x,y,1/2-z
-x,-y,-z
x,-y,1/2+z
1/2+x,1/2+y,z
1/2-x,1/2+y,1/2-z
1/2-x,1/2-y,-z
1/2+x,1/2-y,1/2+z
loop_
_atom_site_type_symbol
_atom_site_label
_atom_site_fract_x
_atom_site_fract_y
_atom_site_fract_z
Si Si1 0.414949 0.223377 0.698922
Si Si2 0.097331 0.979871 0.903654
Si Si3 0.979985 0.454535 0.649667
Si Si4 0.331053 0.272979 0.215815
Si Si5 0.299548 0.154740 0.415662
O O1 0.500000 0.230285 0.750000
O O2 0.424988 0.349753 0.640070
O O3 0.293516 0.217196 0.770835
O O4 0.439496 0.094052 0.638857
O O5 0.211351 0.949804 0.915172
O O6 0.111957 0.098707 0.833461
O O7 0.000000 0.000000 0.000000
O O8 0.892345 0.347618 0.656462
O O9 0.000000 0.457043 0.750000
O O10 0.094754 0.412420 0.579866
O O11 0.329943 0.239191 0.320181
O O12 0.250000 0.250000 0.500000
#
# Coordination Sequence:
#
# PCOD9272636 Si02
#       5
#     8   8   8   8   8
#     4  10  20  37  59  85 114 151 195 244 299 357
#     4  11  23  38  57  89 123 152 198 254 301 357
#     4   9  18  36  59  81 111 151 191 235 292 356
#     4  10  20  38  61  85 116 154 194 243 297 357
#     4  10  21  39  62  86 118 160 205 246 300 367
#
# _framework density 19.921938000000001
#
# number of rings (size 3 to 8) (size 9 to 14) (size 15 to 20)
#    0.000    2.000    0.000    6.000    0.000    4.000 
#    0.000   17.000    0.000    0.000    0.000    0.000 
#    0.000    0.000    0.000    0.000    0.000    0.000 
#
# Total GULP energy -111647.375968 kJ/mol
# GULP energy per Si atom -5582.368798 kJ/mol
# Density = 1.987659 g / cm^3
# Si number density = 19.921938 Si / 1000 Ang^3
#
#
#
# Elastic Constant Matrix: (Units=GPa)
#
#
# Indices 1 2 3 4 5 6 
#
# 1 133.5012 79.5151 39.3345 0.0000 -29.4146 0.0000
# 2 79.5151 198.2502 59.4552 0.0000 -31.1362 0.0000
# 3 39.3345 59.4552 73.6144 0.0000 -31.7604 0.0000
# 4 0.0000 0.0000 0.0000 7.0486 0.0000 3.6181
# 5 -29.4146 -31.1362 -31.7604 0.0000 28.9020 0.0000
# 6 0.0000 0.0000 0.0000 3.6181 0.0000 14.2545
#
#
#
# Elastic Compliance Matrix: (Units=1/GPa)
#
#
# Indices 1 2 3 4 5 6 
#
# 1 0.011151 -0.003254 0.000102 0.000000 0.007956 0.000000
# 2 -0.003254 0.007695 -0.004427 0.000000 0.000113 0.000000
# 3 0.000102 -0.004427 0.028699 0.000000 0.026871 0.000000
# 4 0.000000 0.000000 0.000000 0.163125 0.000000 -0.041405
# 5 0.007956 0.000113 0.026871 0.000000 0.072347 0.000000
# 6 0.000000 0.000000 0.000000 -0.041405 0.000000 0.080663
#
#
# Mechanical properties :
#
#
# Convention : Reuss Voigt Hill
#
# Bulk Modulus (GPa) = 30.87691 84.66392 57.77042
# Shear Modulus (GPa) = 12.83256 25.17843 19.00549
#
# Velocity S-wave (km/s) = 2.54075 3.55893 3.09204
# Velocity P-wave (km/s) = 4.91323 7.71220 6.46598
#
# Compressibility (1/GPa) = 0.03238666
#
# Stress axis : x y z
#
# Youngs Moduli (GPa) = 89.67441 129.96081 34.84418
#
# Poissons Ratio (x) = 0.42285 -0.00355
# Poissons Ratio (y) = 0.29177 0.15427
# Poissons Ratio (z) = -0.00913 0.57539
#
# Static dielectric constant tensor:
#      x y z
#    x 1.714680 0.000000 -0.005940 
#    y 0.000000 1.695500 0.000000 
#    z -0.005940 0.000000 1.724750 
# 
# From -- ./inp_files/150575.got.cif
#   From: 2010.05.17/outbox.cif.g08.bks.cpg/sg15_76_cif.got.tgz:150575.got - 2010.06.03 18:47:42.
