data_PCOD9272520
_publ_section_title
;
Structure prediction by ZEFSAII (Michael W. Deem and Ramdas Pophale) SiO2 
 PCOD9272520
Probable space group: C 2/C
;
_chemical_formula_sum "Si O2"
_cell_formula_units_Z 56
_cell_length_a 23.282002
_cell_length_b 16.148913
_cell_length_c 15.957312
_cell_angle_alpha 90.000000
_cell_angle_beta 30.144648
_cell_angle_gamma 90.000000
_cell_volume 3012.915008
_symmetry_space_group_name_H-M "C 2/C"
_symmetry_group_IT_number 15
_symmetry_cell_setting 'monoclinic'
loop_
_space_group_symop_operation_xyz
x,y,z
-x,y,1/2-z
-x,-y,-z
x,-y,1/2+z
1/2+x,1/2+y,z
1/2-x,1/2+y,1/2-z
1/2-x,1/2-y,-z
1/2+x,1/2-y,1/2+z
loop_
_atom_site_type_symbol
_atom_site_label
_atom_site_fract_x
_atom_site_fract_y
_atom_site_fract_z
Si Si1 0.382968 0.984063 0.596942
Si Si2 0.236446 0.400731 0.138818
Si Si3 0.531312 0.585684 0.915165
Si Si4 0.800688 0.152705 0.117501
Si Si5 0.629256 0.551892 0.616890
Si Si6 0.000942 0.362636 0.345543
Si Si7 0.146341 0.783012 0.393274
O O1 0.301684 0.911512 0.733983
O O2 0.427924 0.947640 0.452784
O O3 0.500000 0.000000 0.500000
O O4 0.308127 0.063818 0.714475
O O5 0.314823 0.325335 0.068719
O O6 0.127265 0.374751 0.222709
O O7 0.298938 0.473842 0.008433
O O8 0.618972 0.565530 0.728788
O O9 0.585524 0.649635 0.911754
O O10 0.500000 0.500000 0.000000
O O11 0.414920 0.624778 0.022996
O O12 0.752636 0.240027 0.210169
O O13 0.828888 0.134598 0.984626
O O14 0.500000 0.535611 0.750000
O O15 0.941335 0.289793 0.472786
O O16 0.000000 0.342184 0.250000
#
# Coordination Sequence:
#
# PCOD9272520 Si02
#       7
#     8   8   8   8   8   8   8
#     4   8  16  34  56  76 103 140 178 216 269 324
#     4  10  20  37  58  78 108 144 179 228 277 324
#     4  11  22  36  58  84 110 147 193 231 273 336
#     4   9  19  36  54  79 114 145 179 232 281 324
#     4   9  19  36  58  81 107 141 183 231 276 323
#     4  10  22  36  54  81 110 140 177 223 274 332
#     4  11  22  35  55  81 111 147 182 221 281 336
#
# _framework density 18.586652000000001
#
# number of rings (size 3 to 8) (size 9 to 14) (size 15 to 20)
#    0.000    2.286    0.000    3.429    0.000    6.286 
#    0.000    0.000    0.000    4.286    0.000    0.000 
#    0.000    0.000    0.000    0.000    0.000    0.000 
#
# Total GULP energy -155903.949095 kJ/mol
# GULP energy per Si atom -5567.998182 kJ/mol
# Density = 1.854435 g / cm^3
# Si number density = 18.586652 Si / 1000 Ang^3
#
#
#
# Elastic Constant Matrix: (Units=GPa)
#
#
# Indices 1 2 3 4 5 6 
#
# 1 78.9811 45.7096 52.9783 0.0000 11.2046 0.0000
# 2 45.7096 90.6323 42.4788 0.0000 0.8726 0.0000
# 3 52.9783 42.4788 101.9134 0.0000 3.9454 0.0000
# 4 0.0000 0.0000 0.0000 34.2175 0.0000 -4.3046
# 5 11.2046 0.8726 3.9454 0.0000 29.3138 0.0000
# 6 0.0000 0.0000 0.0000 -4.3046 0.0000 24.9791
#
#
#
# Elastic Compliance Matrix: (Units=1/GPa)
#
#
# Indices 1 2 3 4 5 6 
#
# 1 0.024538 -0.008034 -0.009101 0.000000 -0.007915 0.000000
# 2 -0.008034 0.016347 -0.002752 0.000000 0.002955 0.000000
# 3 -0.009101 -0.002752 0.015634 0.000000 0.001456 0.000000
# 4 0.000000 0.000000 0.000000 0.029872 0.000000 0.005148
# 5 -0.007915 0.002955 0.001456 0.000000 0.036855 0.000000
# 6 0.000000 0.000000 0.000000 0.005148 0.000000 0.040921
#
#
# Mechanical properties :
#
#
# Convention : Reuss Voigt Hill
#
# Bulk Modulus (GPa) = 59.71574 61.54002 60.62788
# Shear Modulus (GPa) = 23.86391 26.39275 25.12833
#
# Velocity S-wave (km/s) = 3.58708 3.77236 3.68088
# Velocity P-wave (km/s) = 7.02526 7.22190 7.12426
#
# Compressibility (1/GPa) = 0.01674600
#
# Stress axis : x y z
#
# Youngs Moduli (GPa) = 40.75258 61.17464 63.96457
#
# Poissons Ratio (x) = 0.49148 0.58213
# Poissons Ratio (y) = 0.32741 0.17600
# Poissons Ratio (z) = 0.37088 0.16832
#
# Static dielectric constant tensor:
#      x y z
#    x 1.637160 0.000000 0.027720 
#    y 0.000000 1.640660 0.000000 
#    z 0.027720 0.000000 1.698270 
# 
# From -- ./inp_files/173787.got.cif
#   From: 2010.05.17/outbox.cif.g08.bks.cpg/sg15_87_cif.got.tgz:173787.got - 2010.06.03 18:47:42.
