data_PCOD9272534
_publ_section_title
;
Structure prediction by ZEFSAII (Michael W. Deem and Ramdas Pophale) SiO2 
 PCOD9272534
Probable space group: C 2/C
;
_chemical_formula_sum "Si O2"
_cell_formula_units_Z 48
_cell_length_a 22.886374
_cell_length_b 19.853932
_cell_length_c 8.908046
_cell_angle_alpha 90.000000
_cell_angle_beta 141.632482
_cell_angle_gamma 90.000000
_cell_volume 2512.407549
_symmetry_space_group_name_H-M "C 2/C"
_symmetry_group_IT_number 15
_symmetry_cell_setting 'monoclinic'
loop_
_space_group_symop_operation_xyz
x,y,z
-x,y,1/2-z
-x,-y,-z
x,-y,1/2+z
1/2+x,1/2+y,z
1/2-x,1/2+y,1/2-z
1/2-x,1/2-y,-z
1/2+x,1/2-y,1/2+z
loop_
_atom_site_type_symbol
_atom_site_label
_atom_site_fract_x
_atom_site_fract_y
_atom_site_fract_z
Si Si1 0.913955 0.405401 0.658406
Si Si2 0.167078 0.208489 0.252942
Si Si3 0.860293 0.522221 0.325513
Si Si4 0.303609 0.905780 0.998514
Si Si5 0.168922 0.281391 0.941360
Si Si6 0.972913 0.296080 0.368612
O O1 0.902767 0.468809 0.526154
O O2 0.928824 0.436056 0.854075
O O3 0.821171 0.358204 0.475308
O O4 0.000000 0.367149 0.750000
O O5 0.250000 0.250000 0.500000
O O6 0.207474 0.133792 0.333061
O O7 0.077610 0.229370 0.169488
O O8 0.156110 0.234711 0.060621
O O9 0.805095 0.473932 0.099236
O O10 0.811373 0.575196 0.338102
O O11 0.393969 0.856928 0.221654
O O12 0.072720 0.295264 0.656109
O O13 0.250000 0.250000 0.000000
O O14 0.000000 0.293081 0.250000
#
# Coordination Sequence:
#
# PCOD9272534 Si02
#       6
#     8   8   8   8   8   8
#     4  11  20  33  50  77 110 145 184 225 274 339
#     4  10  20  37  58  82 114 153 193 240 289 338
#     4  10  21  33  53  81 114 153 184 221 281 347
#     4  10  21  38  57  85 121 152 189 235 283 346
#     4  12  23  36  56  84 115 154 198 244 294 344
#     4  11  22  37  57  85 119 153 191 241 292 346
#
# _framework density 19.105180000000001
#
# number of rings (size 3 to 8) (size 9 to 14) (size 15 to 20)
#    0.000    1.333    0.000    9.000    0.000    4.000 
#    0.000    0.000    0.000    0.000    0.000   29.167 
#    0.000    0.000    0.000    0.000    0.000    0.000 
#
# Total GULP energy -133707.489286 kJ/mol
# GULP energy per Si atom -5571.145387 kJ/mol
# Density = 1.906170 g / cm^3
# Si number density = 19.105180 Si / 1000 Ang^3
#
#
#
# Elastic Constant Matrix: (Units=GPa)
#
#
# Indices 1 2 3 4 5 6 
#
# 1 77.8516 40.7672 21.0210 0.0000 0.8363 0.0000
# 2 40.7672 94.3054 28.6628 0.0000 15.3804 0.0000
# 3 21.0210 28.6628 65.4201 0.0000 -8.6995 0.0000
# 4 0.0000 0.0000 0.0000 26.2795 0.0000 0.5547
# 5 0.8363 15.3804 -8.6995 0.0000 30.2243 0.0000
# 6 0.0000 0.0000 0.0000 0.5547 0.0000 45.7317
#
#
#
# Elastic Compliance Matrix: (Units=1/GPa)
#
#
# Indices 1 2 3 4 5 6 
#
# 1 0.017143 -0.007237 -0.001987 0.000000 0.002636 0.000000
# 2 -0.007237 0.017532 -0.006775 0.000000 -0.010671 0.000000
# 3 -0.001987 -0.006775 0.020129 0.000000 0.009296 0.000000
# 4 0.000000 0.000000 0.000000 0.038062 0.000000 -0.000462
# 5 0.002636 -0.010671 0.009296 0.000000 0.041119 0.000000
# 6 0.000000 0.000000 0.000000 -0.000462 0.000000 0.021872
#
#
# Mechanical properties :
#
#
# Convention : Reuss Voigt Hill
#
# Bulk Modulus (GPa) = 43.84857 46.49768 45.17312
# Shear Modulus (GPa) = 25.58118 30.25551 27.91834
#
# Velocity S-wave (km/s) = 3.66316 3.98380 3.82684
# Velocity P-wave (km/s) = 6.39473 6.74918 6.57435
#
# Compressibility (1/GPa) = 0.02280576
#
# Stress axis : x y z
#
# Youngs Moduli (GPa) = 58.33409 57.03965 49.67972
#
# Poissons Ratio (x) = 0.41277 0.09872
# Poissons Ratio (y) = 0.42214 0.33658
# Poissons Ratio (z) = 0.11592 0.38644
#
# Static dielectric constant tensor:
#      x y z
#    x 1.716510 0.000000 -0.048640 
#    y 0.000000 1.736780 0.000000 
#    z -0.048640 0.000000 1.744900 
# 
# From -- ./inp_files/57984.got.cif
#   From: 2010.05.17/outbox.cif.g08.bks.cpg/sg15_29_cif.got.tgz:57984.got - 2010.06.03 18:47:42.
