data_PCOD9272581
_publ_section_title
;
Structure prediction by ZEFSAII (Michael W. Deem and Ramdas Pophale) SiO2 
 PCOD9272581
Probable space group: C 2/C
;
_chemical_formula_sum "Si O2"
_cell_formula_units_Z 56
_cell_length_a 27.731981
_cell_length_b 10.600400
_cell_length_c 8.681190
_cell_angle_alpha 90.000000
_cell_angle_beta 113.464740
_cell_angle_gamma 90.000000
_cell_volume 2340.972478
_symmetry_space_group_name_H-M "C 2/C"
_symmetry_group_IT_number 15
_symmetry_cell_setting 'monoclinic'
loop_
_space_group_symop_operation_xyz
x,y,z
-x,y,1/2-z
-x,-y,-z
x,-y,1/2+z
1/2+x,1/2+y,z
1/2-x,1/2+y,1/2-z
1/2-x,1/2-y,-z
1/2+x,1/2-y,1/2+z
loop_
_atom_site_type_symbol
_atom_site_label
_atom_site_fract_x
_atom_site_fract_y
_atom_site_fract_z
Si Si1 0.953197 0.676662 0.904054
Si Si2 0.819461 0.007507 0.642048
Si Si3 0.608126 0.612750 0.513609
Si Si4 0.500000 0.384114 0.750000
Si Si5 0.840991 0.633369 0.784574
Si Si6 0.000000 0.529590 0.250000
Si Si7 0.846116 0.366011 0.934150
Si Si8 0.234499 0.827679 0.676704
O O1 0.893374 0.717038 0.856876
O O2 0.982568 0.795007 0.869410
O O3 0.958948 0.563811 0.784426
O O4 0.976086 0.617939 0.088271
O O5 0.869098 0.064025 0.797165
O O6 0.785407 0.111180 0.507226
O O7 0.845245 0.917669 0.546856
O O8 0.784924 0.926051 0.715872
O O9 0.553536 0.554345 0.383242
O O10 0.606873 0.765192 0.517645
O O11 0.857920 0.501412 0.879115
O O12 0.828488 0.618981 0.588853
O O13 0.794583 0.698260 0.818513
O O14 0.796529 0.315751 0.774121
#
# Coordination Sequence:
#
# PCOD9272581 Si02
#       8
#     8   8   8   4   8   4   8   8
#     4  10  20  37  58  88 129 170 212 267 322 389
#     4  10  24  46  70  94 132 176 225 278 322 395
#     4  11  25  45  68  97 131 174 225 277 331 389
#     4  11  22  42  66  95 130 168 221 278 331 388
#     4  12  25  41  64  98 135 173 218 269 333 399
#     4   9  20  32  58  83 126 172 211 256 327 382
#     4  12  26  41  66 100 136 175 219 273 332 401
#     4  11  24  44  67  95 135 176 221 272 333 389
#
# _framework density 23.921682000000001
#
# number of rings (size 3 to 8) (size 9 to 14) (size 15 to 20)
#    0.000    1.143    2.857    2.143   10.000    2.286 
#    0.000    0.000    0.000    0.000    0.000    0.000 
#    0.000    0.000    0.000    0.000    0.000    0.000 
#
# Total GULP energy -156808.559027 kJ/mol
# GULP energy per Si atom -5600.305680 kJ/mol
# Density = 2.386723 g / cm^3
# Si number density = 23.921682 Si / 1000 Ang^3
#
#
#
# Elastic Constant Matrix: (Units=GPa)
#
#
# Indices 1 2 3 4 5 6 
#
# 1 71.4766 -9.6462 12.6136 0.0000 11.8576 0.0000
# 2 -9.6462 46.3931 18.9117 0.0000 -9.4117 0.0000
# 3 12.6136 18.9117 138.0581 0.0000 3.1428 0.0000
# 4 0.0000 0.0000 0.0000 29.8780 0.0000 6.5936
# 5 11.8576 -9.4117 3.1428 0.0000 42.5135 0.0000
# 6 0.0000 0.0000 0.0000 6.5936 0.0000 25.9681
#
#
#
# Elastic Compliance Matrix: (Units=1/GPa)
#
#
# Indices 1 2 3 4 5 6 
#
# 1 0.015302 0.003203 -0.001759 0.000000 -0.003429 0.000000
# 2 0.003203 0.024755 -0.003795 0.000000 0.004867 0.000000
# 3 -0.001759 -0.003795 0.007945 0.000000 -0.000937 0.000000
# 4 0.000000 0.000000 0.000000 0.035456 0.000000 -0.009003
# 5 -0.003429 0.004867 -0.000937 0.000000 0.025625 0.000000
# 6 0.000000 0.000000 0.000000 -0.009003 0.000000 0.040795
#
#
# Mechanical properties :
#
#
# Convention : Reuss Voigt Hill
#
# Bulk Modulus (GPa) = 23.09373 33.29844 28.19609
# Shear Modulus (GPa) = 29.58354 35.27516 32.42935
#
# Velocity S-wave (km/s) = 3.52047 3.84423 3.68591
# Velocity P-wave (km/s) = 5.11857 5.80122 5.47055
#
# Compressibility (1/GPa) = 0.04330179
#
# Stress axis : x y z
#
# Youngs Moduli (GPa) = 65.35064 40.39562 125.86327
#
# Poissons Ratio (x) = -0.12939 0.22136
# Poissons Ratio (y) = -0.20932 0.47759
# Poissons Ratio (z) = 0.11494 0.15328
#
# Static dielectric constant tensor:
#      x y z
#    x 1.918050 0.000000 0.024970 
#    y 0.000000 1.934420 0.000000 
#    z 0.024970 0.000000 1.908750 
# 
# From -- ./inp_files/65461.got.cif
#   From: 2010.05.17/outbox.cif.g08.bks.cpg/sg15_33_cif.got.tgz:65461.got - 2010.06.03 18:47:42.
