data_PCOD9272009
_publ_section_title
;
Structure prediction by ZEFSAII (Michael W. Deem and Ramdas Pophale) SiO2 
 PCOD9272009
Probable space group: C 2/C
;
_chemical_formula_sum "Si O2"
_cell_formula_units_Z 56
_cell_length_a 26.226287
_cell_length_b 6.603008
_cell_length_c 16.603464
_cell_angle_alpha 90.000000
_cell_angle_beta 74.735984
_cell_angle_gamma 90.000000
_cell_volume 2773.830686
_symmetry_space_group_name_H-M "C 2/C"
_symmetry_group_IT_number 15
_symmetry_cell_setting 'monoclinic'
loop_
_space_group_symop_operation_xyz
x,y,z
-x,y,1/2-z
-x,-y,-z
x,-y,1/2+z
1/2+x,1/2+y,z
1/2-x,1/2+y,1/2-z
1/2-x,1/2-y,-z
1/2+x,1/2-y,1/2+z
loop_
_atom_site_type_symbol
_atom_site_label
_atom_site_fract_x
_atom_site_fract_y
_atom_site_fract_z
Si Si1 0.454740 0.904120 0.331050
Si Si2 0.864209 0.717137 0.399277
Si Si3 0.623635 0.592774 0.224799
Si Si4 0.206203 0.651789 0.623232
Si Si5 0.319014 0.437306 0.020426
Si Si6 0.504238 0.773044 0.473362
Si Si7 0.584925 0.526738 0.914208
O O1 0.500000 0.979704 0.250000
O O2 0.417109 0.757291 0.294264
O O3 0.480757 0.771299 0.392184
O O4 0.418007 0.082881 0.383953
O O5 0.824120 0.558478 0.375851
O O6 0.875794 0.904416 0.335925
O O7 0.832821 0.833537 0.484754
O O8 0.679730 0.712502 0.203961
O O9 0.606619 0.504426 0.316929
O O10 0.267778 0.596911 0.597177
O O11 0.192180 0.791268 0.550815
O O12 0.371528 0.377182 0.046263
O O13 0.468440 0.652861 0.552094
O O14 0.563726 0.692344 0.450668
O O15 0.500000 0.000000 0.500000
#
# Coordination Sequence:
#
# PCOD9272009 Si02
#       7
#     8   8   8   8   8   8   8
#     4  11  22  39  59  86 123 166 202 254 306 367
#     4  10  20  36  63  88 110 156 209 239 297 372
#     4  10  22  39  58  87 126 156 199 252 303 365
#     4   9  20  39  63  87 115 153 203 250 298 363
#     4  10  20  40  63  85 118 154 198 255 301 358
#     4  11  24  39  60  87 120 160 204 248 302 365
#     4  11  23  39  57  87 124 155 195 252 304 360
#
# _framework density 20.188687000000002
#
# number of rings (size 3 to 8) (size 9 to 14) (size 15 to 20)
#    0.000    1.714    1.429    3.857    2.000    1.714 
#    2.571    0.000    0.000    0.000    0.000    0.000 
#    0.000    0.000    0.000    0.000    0.000    0.000 
#
# Total GULP energy -156063.258936 kJ/mol
# GULP energy per Si atom -5573.687819 kJ/mol
# Density = 2.014274 g / cm^3
# Si number density = 20.188687 Si / 1000 Ang^3
#
#
#
# Elastic Constant Matrix: (Units=GPa)
#
#
# Indices 1 2 3 4 5 6 
#
# 1 86.4779 9.8506 20.7941 0.0000 -25.2795 0.0000
# 2 9.8506 70.2480 1.4037 0.0000 -11.9401 0.0000
# 3 20.7941 1.4037 77.5597 0.0000 -21.8050 0.0000
# 4 0.0000 0.0000 0.0000 18.8258 0.0000 -6.5450
# 5 -25.2795 -11.9401 -21.8050 0.0000 26.6070 0.0000
# 6 0.0000 0.0000 0.0000 -6.5450 0.0000 29.6598
#
#
#
# Elastic Compliance Matrix: (Units=1/GPa)
#
#
# Indices 1 2 3 4 5 6 
#
# 1 0.016019 0.000373 0.000032 0.000000 0.015413 0.000000
# 2 0.000373 0.015704 0.002205 0.000000 0.009208 0.000000
# 3 0.000032 0.002205 0.017063 0.000000 0.015003 0.000000
# 4 0.000000 0.000000 0.000000 0.057532 0.000000 0.012696
# 5 0.015413 0.009208 0.015003 0.000000 0.068656 0.000000
# 6 0.000000 0.000000 0.000000 0.012696 0.000000 0.036517
#
#
# Mechanical properties :
#
#
# Convention : Reuss Voigt Hill
#
# Bulk Modulus (GPa) = 18.51702 33.15359 25.83531
# Shear Modulus (GPa) = 22.29412 28.50101 25.39757
#
# Velocity S-wave (km/s) = 3.32669 3.76138 3.55069
# Velocity P-wave (km/s) = 4.89364 5.94319 5.44377
#
# Compressibility (1/GPa) = 0.05400437
#
# Stress axis : x y z
#
# Youngs Moduli (GPa) = 62.42509 63.67762 58.60734
#
# Poissons Ratio (x) = -0.02374 -0.00186
# Poissons Ratio (y) = -0.02328 -0.12921
# Poissons Ratio (z) = -0.00198 -0.14039
#
# Static dielectric constant tensor:
#      x y z
#    x 1.767500 0.000000 -0.006470 
#    y 0.000000 1.751780 0.000000 
#    z -0.006470 0.000000 1.762230 
# 
# From -- ./inp_files/221221.got.cif
#   From: 2010.05.17/outbox.cif.g08.bks.cpg/sg15_111_cif.got.tgz:221221.got - 2010.06.03 18:47:42.
