data_PCOD9272034
_publ_section_title
;
Structure prediction by ZEFSAII (Michael W. Deem and Ramdas Pophale) SiO2 
 PCOD9272034
Probable space group: C 2/C
;
_chemical_formula_sum "Si O2"
_cell_formula_units_Z 48
_cell_length_a 17.008469
_cell_length_b 29.956042
_cell_length_c 8.995686
_cell_angle_alpha 90.000000
_cell_angle_beta 30.166111
_cell_angle_gamma 90.000000
_cell_volume 2303.177948
_symmetry_space_group_name_H-M "C 2/C"
_symmetry_group_IT_number 15
_symmetry_cell_setting 'monoclinic'
loop_
_space_group_symop_operation_xyz
x,y,z
-x,y,1/2-z
-x,-y,-z
x,-y,1/2+z
1/2+x,1/2+y,z
1/2-x,1/2+y,1/2-z
1/2-x,1/2-y,-z
1/2+x,1/2-y,1/2+z
loop_
_atom_site_type_symbol
_atom_site_label
_atom_site_fract_x
_atom_site_fract_y
_atom_site_fract_z
Si Si1 0.884890 0.714905 0.817964
Si Si2 0.329867 0.048436 0.452326
Si Si3 0.667783 0.640227 0.678815
Si Si4 0.115514 0.716627 0.174806
Si Si5 0.186102 0.861925 0.791060
Si Si6 0.672653 0.042915 0.399879
O O1 0.000000 0.736752 0.750000
O O2 0.999387 0.702867 0.495865
O O3 0.750000 0.750000 0.000000
O O4 0.809155 0.670660 0.012315
O O5 0.500000 0.056903 0.250000
O O6 0.219393 0.091318 0.645830
O O7 0.343329 0.040787 0.252622
O O8 0.266223 0.003869 0.635176
O O9 0.791264 0.674853 0.545271
O O10 0.687349 0.645862 0.467427
O O11 0.484009 0.647823 0.000591
O O12 0.000000 0.740485 0.250000
O O13 0.250000 0.750000 0.000000
O O14 0.227594 0.914300 0.713229
O O15 0.500000 0.048682 0.750000
#
# Coordination Sequence:
#
# PCOD9272034 Si02
#       6
#     8   8   8   8   8   8
#     4  12  24  43  69  96 127 166 217 266 317 388
#     4  10  20  37  63  92 126 167 212 262 315 380
#     4  10  22  41  63  92 130 169 212 261 324 380
#     4  12  26  43  68  96 130 168 210 266 326 385
#     4  10  22  40  65  92 127 171 212 263 320 380
#     4  10  20  36  63  91 125 166 213 260 318 377
#
# _framework density 20.840769999999999
#
# number of rings (size 3 to 8) (size 9 to 14) (size 15 to 20)
#    0.000    1.333    1.667    5.000    4.667    0.667 
#    3.000    0.000    0.000    0.000    0.000    0.000 
#    0.000    0.000    0.000    0.000    0.000    0.000 
#
# Total GULP energy -134099.058701 kJ/mol
# GULP energy per Si atom -5587.460779 kJ/mol
# Density = 2.079334 g / cm^3
# Si number density = 20.840770 Si / 1000 Ang^3
#
#
#
# Elastic Constant Matrix: (Units=GPa)
#
#
# Indices 1 2 3 4 5 6 
#
# 1 114.0879 43.3395 41.3149 0.0000 -24.0822 0.0000
# 2 43.3395 108.7406 42.4188 0.0000 -16.2337 0.0000
# 3 41.3149 42.4188 92.5810 0.0000 -19.4333 0.0000
# 4 0.0000 0.0000 0.0000 13.0888 0.0000 -7.1863
# 5 -24.0822 -16.2337 -19.4333 0.0000 30.9685 0.0000
# 6 0.0000 0.0000 0.0000 -7.1863 0.0000 30.9977
#
#
#
# Elastic Compliance Matrix: (Units=1/GPa)
#
#
# Indices 1 2 3 4 5 6 
#
# 1 0.012174 -0.002818 -0.002838 0.000000 0.006209 0.000000
# 2 -0.002818 0.012106 -0.003936 0.000000 0.001685 0.000000
# 3 -0.002838 -0.003936 0.014943 0.000000 0.005107 0.000000
# 4 0.000000 0.000000 0.000000 0.087544 0.000000 0.020296
# 5 0.006209 0.001685 0.005107 0.000000 0.041207 0.000000
# 6 0.000000 0.000000 0.000000 0.020296 0.000000 0.036966
#
#
# Mechanical properties :
#
#
# Convention : Reuss Voigt Hill
#
# Bulk Modulus (GPa) = 49.90134 63.28396 56.59265
# Shear Modulus (GPa) = 21.66343 27.56675 24.61509
#
# Velocity S-wave (km/s) = 3.22758 3.64088 3.44045
# Velocity P-wave (km/s) = 6.15515 6.93586 6.55713
#
# Compressibility (1/GPa) = 0.02003954
#
# Stress axis : x y z
#
# Youngs Moduli (GPa) = 82.14173 82.60299 66.92031
#
# Poissons Ratio (x) = 0.23277 0.18995
# Poissons Ratio (y) = 0.23147 0.26337
# Poissons Ratio (z) = 0.23315 0.32509
#
# Static dielectric constant tensor:
#      x y z
#    x 1.798050 0.000000 0.023560 
#    y 0.000000 1.756410 0.000000 
#    z 0.023560 0.000000 1.729130 
# 
# From -- ./inp_files/52742.got.cif
#   From: 2010.05.17/outbox.cif.g08.bks.cpg/sg15_27_cif.got.tgz:52742.got - 2010.06.03 18:47:42.
