data_PCOD9272973
_publ_section_title
;
Structure prediction by ZEFSAII (Michael W. Deem and Ramdas Pophale) SiO2 
 PCOD9272973
Probable space group: C 2/C
;
_chemical_formula_sum "Si O2"
_cell_formula_units_Z 36
_cell_length_a 23.496444
_cell_length_b 5.349218
_cell_length_c 24.430691
_cell_angle_alpha 90.000000
_cell_angle_beta 141.997047
_cell_angle_gamma 90.000000
_cell_volume 1890.596349
_symmetry_space_group_name_H-M "C 2/C"
_symmetry_group_IT_number 15
_symmetry_cell_setting 'monoclinic'
loop_
_space_group_symop_operation_xyz
x,y,z
-x,y,1/2-z
-x,-y,-z
x,-y,1/2+z
1/2+x,1/2+y,z
1/2-x,1/2+y,1/2-z
1/2-x,1/2-y,-z
1/2+x,1/2-y,1/2+z
loop_
_atom_site_type_symbol
_atom_site_label
_atom_site_fract_x
_atom_site_fract_y
_atom_site_fract_z
Si Si1 0.440306 0.744363 0.609468
Si Si2 0.327438 0.476200 0.439103
Si Si3 0.825263 0.610447 0.594744
Si Si4 0.000000 0.036841 0.250000
Si Si5 0.918388 0.529148 0.981237
O O1 0.395038 0.513411 0.542847
O O2 0.514159 0.639653 0.707786
O O3 0.364137 0.879243 0.589351
O O4 0.461789 0.928834 0.575264
O O5 0.226332 0.472488 0.388833
O O6 0.354989 0.215988 0.433093
O O7 0.355695 0.721600 0.425975
O O8 0.750000 0.750000 0.500000
O O9 0.911080 0.790687 0.672994
O O10 0.000000 0.500000 0.000000
#
# Coordination Sequence:
#
# PCOD9272973 Si02
#       5
#     8   8   8   4   8
#     4  10  22  35  61  95 125 166 213 264 327 389
#     4  10  21  35  65  89 124 165 210 267 312 382
#     4  12  20  40  59  93 134 163 216 266 335 392
#     4  12  24  34  60  98 134 170 206 276 340 390
#     4  10  20  37  61  95 122 164 215 263 317 385
#
# _framework density 19.041609999999999
#
# number of rings (size 3 to 8) (size 9 to 14) (size 15 to 20)
#    1.333    0.000    4.444    2.000    3.111    0.000 
#    0.000    0.000    0.000    0.000   17.333    0.000 
#    0.000    0.000    0.000    0.000    0.000    0.000 
#
# Total GULP energy -100246.955212 kJ/mol
# GULP energy per Si atom -5569.275290 kJ/mol
# Density = 1.899827 g / cm^3
# Si number density = 19.041610 Si / 1000 Ang^3
#
#
#
# Elastic Constant Matrix: (Units=GPa)
#
#
# Indices 1 2 3 4 5 6 
#
# 1 136.6020 49.3020 13.8242 -0.0020 37.4342 -0.0002
# 2 49.3020 120.3948 23.0711 -0.0020 15.9719 -0.0010
# 3 13.8242 23.0711 65.1994 0.0029 9.0453 0.0009
# 4 -0.0020 -0.0020 0.0029 18.5090 -0.0019 5.8656
# 5 37.4342 15.9719 9.0453 -0.0019 20.2374 -0.0003
# 6 -0.0002 -0.0010 0.0009 5.8656 -0.0003 21.5042
#
#
#
# Elastic Compliance Matrix: (Units=1/GPa)
#
#
# Indices 1 2 3 4 5 6 
#
# 1 0.015833 -0.003134 0.001569 -0.000002 -0.027515 0.000000
# 2 -0.003134 0.010269 -0.002824 0.000001 -0.001045 0.000000
# 3 0.001569 -0.002824 0.017162 -0.000004 -0.008344 0.000000
# 4 -0.000002 0.000001 -0.000004 0.059140 0.000009 -0.016131
# 5 -0.027515 -0.001045 -0.008344 0.000009 0.104864 -0.000001
# 6 0.000000 0.000000 0.000000 -0.016131 -0.000001 0.050903
#
#
# Mechanical properties :
#
#
# Convention : Reuss Voigt Hill
#
# Bulk Modulus (GPa) = 28.99754 54.95453 41.97604
# Shear Modulus (GPa) = 17.95690 27.78337 22.87014
#
# Velocity S-wave (km/s) = 3.07422 3.82394 3.46939
# Velocity P-wave (km/s) = 5.27851 6.95842 6.17585
#
# Compressibility (1/GPa) = 0.03448568
#
# Stress axis : x y z
#
# Youngs Moduli (GPa) = 63.15883 97.37744 58.26869
#
# Poissons Ratio (x) = 0.30520 -0.09143
# Poissons Ratio (y) = 0.19795 0.16457
# Poissons Ratio (z) = -0.09911 0.27503
#
# Static dielectric constant tensor:
#      x y z
#    x 1.666920 0.000000 -0.016400 
#    y 0.000000 1.722530 0.000000 
#    z -0.016400 0.000000 1.658650 
# 
# From -- ./inp_files/170260.got.cif
#   From: 2010.05.17/outbox.cif.g08.bks.cpg/sg15_86_cif.got.tgz:170260.got - 2010.06.03 18:47:42.
