data_PCOD9272926
_publ_section_title
;
Structure prediction by ZEFSAII (Michael W. Deem and Ramdas Pophale) SiO2 
 PCOD9272926
Probable space group: C 2/C
;
_chemical_formula_sum "Si O2"
_cell_formula_units_Z 56
_cell_length_a 8.216201
_cell_length_b 29.126107
_cell_length_c 13.613274
_cell_angle_alpha 90.000000
_cell_angle_beta 124.838336
_cell_angle_gamma 90.000000
_cell_volume 2673.843946
_symmetry_space_group_name_H-M "C 2/C"
_symmetry_group_IT_number 15
_symmetry_cell_setting 'monoclinic'
loop_
_space_group_symop_operation_xyz
x,y,z
-x,y,1/2-z
-x,-y,-z
x,-y,1/2+z
1/2+x,1/2+y,z
1/2-x,1/2+y,1/2-z
1/2-x,1/2-y,-z
1/2+x,1/2-y,1/2+z
loop_
_atom_site_type_symbol
_atom_site_label
_atom_site_fract_x
_atom_site_fract_y
_atom_site_fract_z
Si Si1 0.405674 0.862403 0.029371
Si Si2 0.963492 0.375836 0.622828
Si Si3 0.700897 0.782655 0.889372
Si Si4 0.288794 0.423067 0.195916
Si Si5 0.754881 0.967534 0.989335
Si Si6 0.038062 0.739304 0.878773
Si Si7 0.178454 0.937030 0.065970
O O1 0.605382 0.892098 0.104741
O O2 0.470692 0.814606 0.098451
O O3 0.238302 0.890567 0.030575
O O4 0.370832 0.860476 0.899638
O O5 0.805812 0.333712 0.565044
O O6 0.906783 0.428587 0.583693
O O7 0.000000 0.375463 0.750000
O O8 0.500000 0.775887 0.750000
O O9 0.879362 0.771454 0.877842
O O10 0.750000 0.750000 0.000000
O O11 0.500000 0.398406 0.250000
O O12 0.263091 0.434844 0.300061
O O13 0.300006 0.464483 0.121313
O O14 0.713558 0.019449 0.945875
O O15 0.944939 0.949442 0.992058
O O16 0.000000 0.744976 0.750000
O O17 0.250000 0.750000 0.000000
#
# Coordination Sequence:
#
# PCOD9272926 Si02
#       7
#     8   8   8   8   8   8   8
#     4  11  23  41  62  95 121 164 218 269 326 389
#     4  10  23  41  63  89 124 166 221 258 325 402
#     4  11  23  46  70  95 134 181 224 277 337 416
#     4   9  19  37  60  87 125 161 208 259 316 391
#     4   9  21  38  58  91 122 171 204 252 328 393
#     4  12  27  44  68 103 137 173 227 285 346 394
#     4  10  20  37  61  89 130 158 209 266 319 383
#
# _framework density 20.943629999999999
#
# number of rings (size 3 to 8) (size 9 to 14) (size 15 to 20)
#    0.000    1.714    1.429    2.143    4.000    5.143 
#    5.143    2.143    0.000    0.000    0.000    0.000 
#    0.000    0.000    0.000    0.000    0.000    0.000 
#
# Total GULP energy -155898.891821 kJ/mol
# GULP energy per Si atom -5567.817565 kJ/mol
# Density = 2.089596 g / cm^3
# Si number density = 20.943630 Si / 1000 Ang^3
#
#
#
# Elastic Constant Matrix: (Units=GPa)
#
#
# Indices 1 2 3 4 5 6 
#
# 1 82.7260 6.0094 28.3006 0.0000 -21.0957 0.0000
# 2 6.0094 54.9644 -4.7759 0.0000 -17.0676 0.0000
# 3 28.3006 -4.7759 98.9968 0.0000 -28.5925 0.0000
# 4 0.0000 0.0000 0.0000 17.9408 0.0000 -0.9414
# 5 -21.0957 -17.0676 -28.5925 0.0000 49.7034 0.0000
# 6 0.0000 0.0000 0.0000 -0.9414 0.0000 24.4343
#
#
#
# Elastic Compliance Matrix: (Units=1/GPa)
#
#
# Indices 1 2 3 4 5 6 
#
# 1 0.014174 -0.000495 -0.002863 0.000000 0.004199 0.000000
# 2 -0.000495 0.021512 0.003900 0.000000 0.009421 0.000000
# 3 -0.002863 0.003900 0.013364 0.000000 0.007812 0.000000
# 4 0.000000 0.000000 0.000000 0.055852 0.000000 0.002152
# 5 0.004199 0.009421 0.007812 0.000000 0.029630 0.000000
# 6 0.000000 0.000000 0.000000 0.002152 0.000000 0.041009
#
#
# Mechanical properties :
#
#
# Convention : Reuss Voigt Hill
#
# Bulk Modulus (GPa) = 19.94610 32.86171 26.40390
# Shear Modulus (GPa) = 26.15492 32.22590 29.19041
#
# Velocity S-wave (km/s) = 3.53770 3.92688 3.73736
# Velocity P-wave (km/s) = 5.12167 6.02371 5.59091
#
# Compressibility (1/GPa) = 0.05013512
#
# Stress axis : x y z
#
# Youngs Moduli (GPa) = 70.55015 46.48611 74.82646
#
# Poissons Ratio (x) = 0.02299 0.21424
# Poissons Ratio (y) = 0.03489 -0.29183
# Poissons Ratio (z) = 0.20199 -0.18130
#
# Static dielectric constant tensor:
#      x y z
#    x 1.807290 0.000000 -0.039790 
#    y 0.000000 0.172260 0.000000 
#    z -0.039790 0.000000 1.879290 
# 
# From -- ./inp_files/82703.got.cif
#   From: 2010.05.17/outbox.cif.g08.bks.cpg/sg15_42_cif.got.tgz:82703.got - 2010.06.03 18:47:42.
