data_PCOD9272262
_publ_section_title
;
Structure prediction by ZEFSAII (Michael W. Deem and Ramdas Pophale) SiO2 
 PCOD9272262
Probable space group: C 2/C
;
_chemical_formula_sum "Si O2"
_cell_formula_units_Z 52
_cell_length_a 9.594428
_cell_length_b 22.854494
_cell_length_c 11.121609
_cell_angle_alpha 90.000000
_cell_angle_beta 97.281030
_cell_angle_gamma 90.000000
_cell_volume 2419.035122
_symmetry_space_group_name_H-M "C 2/C"
_symmetry_group_IT_number 15
_symmetry_cell_setting 'monoclinic'
loop_
_space_group_symop_operation_xyz
x,y,z
-x,y,1/2-z
-x,-y,-z
x,-y,1/2+z
1/2+x,1/2+y,z
1/2-x,1/2+y,1/2-z
1/2-x,1/2-y,-z
1/2+x,1/2-y,1/2+z
loop_
_atom_site_type_symbol
_atom_site_label
_atom_site_fract_x
_atom_site_fract_y
_atom_site_fract_z
Si Si1 0.609399 0.761103 0.611807
Si Si2 0.539477 0.371278 0.115416
Si Si3 0.501393 0.046202 0.108066
Si Si4 0.199452 0.283927 0.876145
Si Si5 0.308769 0.408709 0.917632
Si Si6 0.742798 0.372321 0.950873
Si Si7 0.000000 0.088309 0.250000
O O1 0.550674 0.696955 0.574464
O O2 0.694894 0.752083 0.746397
O O3 0.464986 0.796764 0.619713
O O4 0.698645 0.805845 0.540882
O O5 0.500000 0.370625 0.250000
O O6 0.411649 0.405738 0.040978
O O7 0.687501 0.393637 0.075762
O O8 0.500000 0.027916 0.250000
O O9 0.348467 0.074355 0.074886
O O10 0.635502 0.088044 0.095427
O O11 0.500000 0.000000 0.000000
O O12 0.291320 0.341736 0.870660
O O13 0.250000 0.250000 0.000000
O O14 0.390223 0.444797 0.823776
O O15 0.602472 0.377573 0.853407
#
# Coordination Sequence:
#
# PCOD9272262 Si02
#       7
#     8   8   8   8   8   8   4
#     4  11  19  34  58  94 132 176 221 263 303 385
#     4  11  23  39  60  96 144 178 218 271 327 382
#     4  12  26  48  76 101 129 165 226 289 346 410
#     4  11  18  31  58  89 130 177 215 257 314 374
#     4  11  21  40  68  91 129 177 219 268 326 402
#     4  11  23  40  67  95 131 176 227 265 325 402
#     4  10  20  36  66  96 114 168 220 254 316 382
#
# _framework density 21.496174
#
# number of rings (size 3 to 8) (size 9 to 14) (size 15 to 20)
#    0.000    0.923    7.692    0.462    0.000    1.231 
#    0.000    3.077    3.385    0.000    0.000    0.000 
#    0.000    0.000    0.000    0.000    0.000    0.000 
#
# Total GULP energy -144734.736406 kJ/mol
# GULP energy per Si atom -5566.720631 kJ/mol
# Density = 2.144725 g / cm^3
# Si number density = 21.496174 Si / 1000 Ang^3
#
#
#
# Elastic Constant Matrix: (Units=GPa)
#
#
# Indices 1 2 3 4 5 6 
#
# 1 155.2842 21.4575 64.7454 0.0000 -15.1255 0.0000
# 2 21.4575 31.7750 37.0200 0.0000 -0.4052 0.0000
# 3 64.7454 37.0200 119.7894 0.0000 -21.9822 0.0000
# 4 0.0000 0.0000 0.0000 19.9252 0.0000 -3.0315
# 5 -15.1255 -0.4052 -21.9822 0.0000 36.7632 0.0000
# 6 0.0000 0.0000 0.0000 -3.0315 0.0000 6.5843
#
#
#
# Elastic Compliance Matrix: (Units=1/GPa)
#
#
# Indices 1 2 3 4 5 6 
#
# 1 0.008351 -0.000911 -0.004048 0.000000 0.001006 0.000000
# 2 -0.000911 0.052490 -0.017626 0.000000 -0.010335 0.000000
# 3 -0.004048 -0.017626 0.017570 0.000000 0.008646 0.000000
# 4 0.000000 0.000000 0.000000 0.053968 0.000000 0.024848
# 5 0.001006 -0.010335 0.008646 0.000000 0.032671 0.000000
# 6 0.000000 0.000000 0.000000 0.024848 0.000000 0.163318
#
#
# Mechanical properties :
#
#
# Convention : Reuss Voigt Hill
#
# Bulk Modulus (GPa) = 30.08277 61.47717 45.77997
# Shear Modulus (GPa) = 12.99993 24.89624 18.94808
#
# Velocity S-wave (km/s) = 2.46185 3.40688 2.97217
# Velocity P-wave (km/s) = 4.70168 6.64357 5.75512
#
# Compressibility (1/GPa) = 0.03324162
#
# Stress axis : x y z
#
# Youngs Moduli (GPa) = 119.74104 19.05129 56.91655
#
# Poissons Ratio (x) = 0.01735 0.23039
# Poissons Ratio (y) = 0.10906 1.00321
# Poissons Ratio (z) = 0.48469 0.33580
#
# Static dielectric constant tensor:
#      x y z
#    x 1.828180 0.000000 -0.072000 
#    y 0.000000 1.841340 0.000000 
#    z -0.072000 0.000000 1.873900 
# 
# From -- ./inp_files/80811.got.cif
#   From: 2010.05.17/outbox.cif.g08.bks.cpg/sg15_41_cif.got.tgz:80811.got - 2010.06.03 18:47:42.
