data_PCOD9272003
_publ_section_title
;
Structure prediction by ZEFSAII (Michael W. Deem and Ramdas Pophale) SiO2 
 PCOD9272003
Probable space group: C 2/C
;
_chemical_formula_sum "Si O2"
_cell_formula_units_Z 56
_cell_length_a 27.831528
_cell_length_b 17.562697
_cell_length_c 9.511624
_cell_angle_alpha 90.000000
_cell_angle_beta 36.817639
_cell_angle_gamma 90.000000
_cell_volume 2786.156645
_symmetry_space_group_name_H-M "C 2/C"
_symmetry_group_IT_number 15
_symmetry_cell_setting 'monoclinic'
loop_
_space_group_symop_operation_xyz
x,y,z
-x,y,1/2-z
-x,-y,-z
x,-y,1/2+z
1/2+x,1/2+y,z
1/2-x,1/2+y,1/2-z
1/2-x,1/2-y,-z
1/2+x,1/2-y,1/2+z
loop_
_atom_site_type_symbol
_atom_site_label
_atom_site_fract_x
_atom_site_fract_y
_atom_site_fract_z
Si Si1 0.235849 0.321898 0.632844
Si Si2 0.079585 0.418309 0.976938
Si Si3 0.659257 0.669899 0.100244
Si Si4 0.858185 0.500051 0.418149
Si Si5 0.052642 0.957054 0.994901
Si Si6 0.306134 0.166523 0.961089
Si Si7 0.312613 0.423327 0.239749
O O1 0.250000 0.250000 0.500000
O O2 0.144371 0.350763 0.829224
O O3 0.246726 0.316219 0.774119
O O4 0.293070 0.386704 0.436075
O O5 0.080048 0.449672 0.817257
O O6 0.116479 0.488130 0.981124
O O7 0.000000 0.398113 0.250000
O O8 0.598566 0.613059 0.317425
O O9 0.746397 0.661506 0.969853
O O10 0.638397 0.758613 0.171680
O O11 0.665527 0.641457 0.924953
O O12 0.850083 0.413467 0.380053
O O13 0.770368 0.537096 0.613113
O O14 0.117915 0.015784 0.904270
O O15 0.000000 0.931687 0.250000
O O16 0.000000 0.000000 0.000000
#
# Coordination Sequence:
#
# PCOD9272003 Si02
#       7
#     8   8   8   8   8   8   8
#     4  10  21  39  61  90 123 164 212 256 314 383
#     4  10  21  36  60  90 121 155 203 263 318 374
#     4  11  22  39  61  89 127 158 215 266 324 373
#     4  10  20  36  63  86 118 159 209 256 314 381
#     4  12  26  41  62  92 129 173 217 273 332 392
#     4  10  21  37  63  90 120 161 210 270 307 381
#     4  11  22  39  64  91 120 167 222 267 314 395
#
# _framework density 20.099373
#
# number of rings (size 3 to 8) (size 9 to 14) (size 15 to 20)
#    0.000    1.429    4.286    1.286    6.000    0.000 
#    0.000    4.286    0.000    0.000    0.000    0.000 
#    0.000    0.000    0.000    0.000    0.000    0.000 
#
# Total GULP energy -156296.461168 kJ/mol
# GULP energy per Si atom -5582.016470 kJ/mol
# Density = 2.005363 g / cm^3
# Si number density = 20.099373 Si / 1000 Ang^3
#
#
#
# Elastic Constant Matrix: (Units=GPa)
#
#
# Indices 1 2 3 4 5 6 
#
# 1 35.9607 -9.2752 21.2516 0.0000 13.4499 0.0000
# 2 -9.2752 72.7124 36.9051 0.0000 -1.0550 0.0000
# 3 21.2516 36.9051 102.4800 0.0000 0.0851 0.0000
# 4 0.0000 0.0000 0.0000 27.6520 0.0000 11.4067
# 5 13.4499 -1.0550 0.0851 0.0000 29.3490 0.0000
# 6 0.0000 0.0000 0.0000 11.4067 0.0000 23.8904
#
#
#
# Elastic Compliance Matrix: (Units=1/GPa)
#
#
# Indices 1 2 3 4 5 6 
#
# 1 0.047940 0.013265 -0.014701 0.000000 -0.021450 0.000000
# 2 0.013265 0.020511 -0.010133 0.000000 -0.005313 0.000000
# 3 -0.014701 -0.010133 0.016450 0.000000 0.006325 0.000000
# 4 0.000000 0.000000 0.000000 0.045033 0.000000 -0.021502
# 5 -0.021450 -0.005313 0.006325 0.000000 0.043694 0.000000
# 6 0.000000 0.000000 0.000000 -0.021502 0.000000 0.052124
#
#
# Mechanical properties :
#
#
# Convention : Reuss Voigt Hill
#
# Bulk Modulus (GPa) = 16.19048 34.32401 25.25725
# Shear Modulus (GPa) = 18.55448 26.99639 22.77543
#
# Velocity S-wave (km/s) = 3.04161 3.66887 3.36987
# Velocity P-wave (km/s) = 4.51751 5.92129 5.26639
#
# Compressibility (1/GPa) = 0.06176467
#
# Stress axis : x y z
#
# Youngs Moduli (GPa) = 20.85939 48.75494 60.78911
#
# Poissons Ratio (x) = -0.64675 0.89365
# Poissons Ratio (y) = -0.27671 0.61596
# Poissons Ratio (z) = 0.30665 0.49402
#
# Static dielectric constant tensor:
#      x y z
#    x 1.727860 0.000000 0.002110 
#    y 0.000000 1.729500 0.000000 
#    z 0.002110 0.000000 1.707780 
# 
# From -- ./inp_files/67136.got.cif
#   From: 2010.05.17/outbox.cif.g08.bks.cpg/sg15_34_cif.got.tgz:67136.got - 2010.06.03 18:47:42.
