data_PCOD9272804
_publ_section_title
;
Structure prediction by ZEFSAII (Michael W. Deem and Ramdas Pophale) SiO2 
 PCOD9272804
Probable space group: C 2/C
;
_chemical_formula_sum "Si O2"
_cell_formula_units_Z 40
_cell_length_a 21.856481
_cell_length_b 9.116134
_cell_length_c 17.634551
_cell_angle_alpha 90.000000
_cell_angle_beta 27.578516
_cell_angle_gamma 90.000000
_cell_volume 1626.680619
_symmetry_space_group_name_H-M "C 2/C"
_symmetry_group_IT_number 15
_symmetry_cell_setting 'monoclinic'
loop_
_space_group_symop_operation_xyz
x,y,z
-x,y,1/2-z
-x,-y,-z
x,-y,1/2+z
1/2+x,1/2+y,z
1/2-x,1/2+y,1/2-z
1/2-x,1/2-y,-z
1/2+x,1/2-y,1/2+z
loop_
_atom_site_type_symbol
_atom_site_label
_atom_site_fract_x
_atom_site_fract_y
_atom_site_fract_z
Si Si1 0.945669 0.287985 0.447804
Si Si2 0.229238 0.393530 0.116248
Si Si3 0.314639 0.033076 0.490372
Si Si4 0.076851 0.370957 0.870464
Si Si5 0.567435 0.299114 0.243554
O O1 0.870591 0.165484 0.483465
O O2 0.900438 0.441473 0.456343
O O3 0.887972 0.273254 0.596074
O O4 0.104666 0.288505 0.274906
O O5 0.195315 0.546199 0.197007
O O6 0.215785 0.418381 0.042360
O O7 0.375252 0.169602 0.375133
O O8 0.177225 0.104335 0.665777
O O9 0.999717 0.281601 0.889440
O O10 0.000000 0.500000 0.000000
O O11 0.500000 0.391194 0.250000
#
# Coordination Sequence:
#
# PCOD9272804 Si02
#       5
#     8   8   8   8   8
#     4  11  22  39  64  87 127 163 207 257 316 376
#     4  10  22  40  59  91 119 168 209 254 313 374
#     4  10  21  36  60  87 121 162 204 257 308 370
#     4   9  20  38  60  86 125 165 202 253 319 377
#     4  10  20  37  60  89 120 162 212 254 303 368
#
# _framework density 24.589952
#
# number of rings (size 3 to 8) (size 9 to 14) (size 15 to 20)
#    0.000    2.000    0.000    4.800    2.800    1.600 
#   10.800    1.000    0.000    0.000    0.000    0.000 
#    0.000    0.000    0.000    0.000    0.000    0.000 
#
# Total GULP energy -111466.253841 kJ/mol
# GULP energy per Si atom -5573.312692 kJ/mol
# Density = 2.453398 g / cm^3
# Si number density = 24.589952 Si / 1000 Ang^3
#
#
#
# Elastic Constant Matrix: (Units=GPa)
#
#
# Indices 1 2 3 4 5 6 
#
# 1 102.6764 8.9786 16.7115 0.0000 36.8880 0.0000
# 2 8.9786 36.4430 18.6964 -0.0001 1.4521 0.0000
# 3 16.7115 18.6964 41.9174 0.0000 16.9344 0.0000
# 4 0.0000 -0.0001 0.0000 30.7611 0.0000 -4.4475
# 5 36.8880 1.4521 16.9344 0.0000 43.3244 0.0000
# 6 0.0000 0.0000 0.0000 -4.4475 0.0000 30.3278
#
#
#
# Elastic Compliance Matrix: (Units=1/GPa)
#
#
# Indices 1 2 3 4 5 6 
#
# 1 0.014383 -0.003486 0.000856 0.000000 -0.012464 0.000000
# 2 -0.003486 0.037768 -0.019171 0.000000 0.009196 0.000000
# 3 0.000856 -0.019171 0.038120 0.000000 -0.014987 0.000000
# 4 0.000000 0.000000 0.000000 0.033213 0.000000 0.004871
# 5 -0.012464 0.009196 -0.014987 0.000000 0.039244 0.000000
# 6 0.000000 0.000000 0.000000 0.004871 0.000000 0.033687
#
#
# Mechanical properties :
#
#
# Convention : Reuss Voigt Hill
#
# Bulk Modulus (GPa) = 21.42731 29.97888 25.70309
# Shear Modulus (GPa) = 19.56397 29.99268 24.77832
#
# Velocity S-wave (km/s) = 2.82371 3.49623 3.17781
# Velocity P-wave (km/s) = 4.40044 5.34005 4.89285
#
# Compressibility (1/GPa) = 0.04666942
#
# Stress axis : x y z
#
# Youngs Moduli (GPa) = 69.52847 26.47766 26.23271
#
# Poissons Ratio (x) = 0.09230 -0.02246
# Poissons Ratio (y) = 0.24238 0.50290
# Poissons Ratio (z) = -0.05953 0.50759
#
# Static dielectric constant tensor:
#      x y z
#    x 2.090210 0.000000 -0.096400 
#    y 0.000000 2.122220 0.000000 
#    z -0.096400 0.000000 2.066500 
# 
# From -- ./inp_files/218780.got.cif
#   From: 2010.05.17/outbox.cif.g08.bks.cpg/sg15_110_cif.got.tgz:218780.got - 2010.06.03 18:47:42.
