data_PCOD9272324
_publ_section_title
;
Structure prediction by ZEFSAII (Michael W. Deem and Ramdas Pophale) SiO2 
 PCOD9272324
Probable space group: C 2/C
;
_chemical_formula_sum "Si O2"
_cell_formula_units_Z 52
_cell_length_a 28.756547
_cell_length_b 9.184587
_cell_length_c 29.110586
_cell_angle_alpha 90.000000
_cell_angle_beta 160.871496
_cell_angle_gamma 90.000000
_cell_volume 2519.461932
_symmetry_space_group_name_H-M "C 2/C"
_symmetry_group_IT_number 15
_symmetry_cell_setting 'monoclinic'
loop_
_space_group_symop_operation_xyz
x,y,z
-x,y,1/2-z
-x,-y,-z
x,-y,1/2+z
1/2+x,1/2+y,z
1/2-x,1/2+y,1/2-z
1/2-x,1/2-y,-z
1/2+x,1/2-y,1/2+z
loop_
_atom_site_type_symbol
_atom_site_label
_atom_site_fract_x
_atom_site_fract_y
_atom_site_fract_z
Si Si1 0.000000 0.778633 0.250000
Si Si2 0.918015 0.648632 0.023499
Si Si3 0.817731 0.540077 0.699009
Si Si4 0.396164 0.092207 0.434692
Si Si5 0.783618 0.859421 0.972762
Si Si6 0.111195 0.188889 0.182793
Si Si7 0.449522 0.560142 0.502079
O O1 0.867751 0.684632 0.146328
O O2 0.085372 0.866235 0.369322
O O3 0.045723 0.563626 0.167795
O O4 0.845235 0.520780 0.926494
O O5 0.825560 0.734934 0.974491
O O6 0.967273 0.771855 0.032571
O O7 0.743543 0.504176 0.581913
O O8 0.847381 0.709267 0.735877
O O9 0.712595 0.485650 0.641124
O O10 0.251515 0.164855 0.282680
O O11 0.493888 0.215707 0.547496
O O12 0.500000 0.000000 0.500000
O O13 0.038695 0.034198 0.122095
O O14 0.500000 0.500000 0.500000
#
# Coordination Sequence:
#
# PCOD9272324 Si02
#       7
#     4   8   8   8   8   8   8
#     4  10  20  36  70 102 136 154 214 270 340 400
#     4  10  23  38  63  91 132 169 214 275 317 377
#     4  10  22  40  56  91 134 162 213 262 326 382
#     4  11  25  41  62  86 131 174 229 264 320 369
#     4  10  20  39  63 104 132 164 204 274 328 393
#     4  11  24  41  56  89 121 178 215 270 321 377
#     4  11  24  36  60  87 126 176 228 263 310 373
#
# _framework density 20.639329
#
# number of rings (size 3 to 8) (size 9 to 14) (size 15 to 20)
#    0.000    1.538    3.077    0.923    8.615    0.000 
#    0.000    0.000    0.000    0.000    0.000   36.615 
#    0.000    0.000    0.000    0.000    0.000    0.000 
#
# Total GULP energy -145028.110700 kJ/mol
# GULP energy per Si atom -5578.004258 kJ/mol
# Density = 2.059235 g / cm^3
# Si number density = 20.639329 Si / 1000 Ang^3
#
#
#
# Elastic Constant Matrix: (Units=GPa)
#
#
# Indices 1 2 3 4 5 6 
#
# 1 70.5587 11.6448 21.7258 -0.0009 2.8058 0.0000
# 2 11.6448 93.6445 33.2149 -0.0033 -4.0441 -0.0009
# 3 21.7258 33.2149 99.6015 -0.0096 9.9105 -0.0018
# 4 -0.0009 -0.0033 -0.0096 25.2371 -0.0018 -5.7874
# 5 2.8058 -4.0441 9.9105 -0.0018 35.8268 -0.0001
# 6 0.0000 -0.0009 -0.0018 -5.7874 -0.0001 24.1306
#
#
#
# Elastic Compliance Matrix: (Units=1/GPa)
#
#
# Indices 1 2 3 4 5 6 
#
# 1 0.015255 -0.000854 -0.002997 -0.000001 -0.000462 0.000000
# 2 -0.000854 0.012391 -0.004207 0.000000 0.002629 0.000000
# 3 -0.002997 -0.004207 0.012464 0.000004 -0.003688 0.000002
# 4 -0.000001 0.000000 0.000004 0.041930 0.000001 0.010056
# 5 -0.000462 0.002629 -0.003688 0.000001 0.029265 0.000000
# 6 0.000000 0.000000 0.000002 0.010056 0.000000 0.043853
#
#
# Mechanical properties :
#
#
# Convention : Reuss Voigt Hill
#
# Bulk Modulus (GPa) = 41.67892 44.10842 42.89367
# Shear Modulus (GPa) = 27.89067 30.18685 29.03876
#
# Velocity S-wave (km/s) = 3.68004 3.82853 3.75502
# Velocity P-wave (km/s) = 6.18827 6.40008 6.29506
#
# Compressibility (1/GPa) = 0.02399295
#
# Stress axis : x y z
#
# Youngs Moduli (GPa) = 65.55394 80.70529 80.23301
#
# Poissons Ratio (x) = 0.06892 0.24043
# Poissons Ratio (y) = 0.05598 0.33757
# Poissons Ratio (z) = 0.19644 0.33956
#
# Static dielectric constant tensor:
#      x y z
#    x 1.792420 0.000000 -0.028420 
#    y 0.000000 2.036960 -0.000010 
#    z -0.028420 -0.000010 1.786430 
# 
# From -- ./inp_files/320200.got.cif
#   From: 2010.05.17/outbox.cif.g08.bks.cpg/sg15_161_cif.got.tgz:320200.got - 2010.06.03 18:47:42.
