data_PCOD9272488
_publ_section_title
;
Structure prediction by ZEFSAII (Michael W. Deem and Ramdas Pophale) SiO2 
 PCOD9272488
Probable space group: C 2/C
;
_chemical_formula_sum "Si O2"
_cell_formula_units_Z 52
_cell_length_a 6.883161
_cell_length_b 13.997515
_cell_length_c 22.312741
_cell_angle_alpha 90.000000
_cell_angle_beta 90.243826
_cell_angle_gamma 90.000000
_cell_volume 2149.749523
_symmetry_space_group_name_H-M "C 2/C"
_symmetry_group_IT_number 15
_symmetry_cell_setting 'monoclinic'
loop_
_space_group_symop_operation_xyz
x,y,z
-x,y,1/2-z
-x,-y,-z
x,-y,1/2+z
1/2+x,1/2+y,z
1/2-x,1/2+y,1/2-z
1/2-x,1/2-y,-z
1/2+x,1/2-y,1/2+z
loop_
_atom_site_type_symbol
_atom_site_label
_atom_site_fract_x
_atom_site_fract_y
_atom_site_fract_z
Si Si1 0.697517 0.068925 0.321936
Si Si2 0.500000 0.551168 0.750000
Si Si3 0.281774 0.278127 0.206890
Si Si4 0.729397 0.571725 0.984124
Si Si5 0.033970 0.101201 0.418827
Si Si6 0.348811 0.231784 0.655691
Si Si7 0.583497 0.063321 0.913602
O O1 0.626200 0.175529 0.309022
O O2 0.871260 0.081646 0.369425
O O3 0.540598 0.003917 0.355838
O O4 0.815918 0.013927 0.269696
O O5 0.591333 0.626084 0.798296
O O6 0.233986 0.268446 0.277701
O O7 0.079953 0.283604 0.170335
O O8 0.628984 0.497331 0.939219
O O9 0.905036 0.614678 0.946740
O O10 0.576505 0.635657 0.020464
O O11 0.822199 0.503159 0.035631
O O12 0.173078 0.175603 0.385914
O O13 0.281178 0.143189 0.615451
#
# Coordination Sequence:
#
# PCOD9272488 Si02
#       7
#     8   4   8   8   8   8   8
#     4  10  21  40  60  85 122 158 194 259 308 356
#     4  12  22  40  64  90 120 166 208 250 306 384
#     4  10  23  40  58  92 118 154 213 245 302 389
#     4   9  20  36  57  87 111 156 203 237 306 370
#     4   9  19  37  61  82 115 156 194 248 303 358
#     4  10  20  39  57  84 120 151 196 252 302 363
#     4  10  20  37  57  84 122 152 194 250 305 357
#
# _framework density 24.188863000000001
#
# number of rings (size 3 to 8) (size 9 to 14) (size 15 to 20)
#    0.000    2.154    1.538    1.846    2.154    2.462 
#    2.769    0.000    0.000    0.000    0.000    0.000 
#    0.000    0.000    0.000    0.000    0.000    0.000 
#
# Total GULP energy -144995.082380 kJ/mol
# GULP energy per Si atom -5576.733938 kJ/mol
# Density = 2.413381 g / cm^3
# Si number density = 24.188863 Si / 1000 Ang^3
#
#
#
# Elastic Constant Matrix: (Units=GPa)
#
#
# Indices 1 2 3 4 5 6 
#
# 1 34.7189 -8.4445 7.5198 0.0000 -3.7558 0.0000
# 2 -8.4445 75.2191 38.1837 0.0000 -4.5097 0.0000
# 3 7.5198 38.1837 113.3652 0.0000 -12.2265 0.0000
# 4 0.0000 0.0000 0.0000 33.0312 0.0000 -9.7483
# 5 -3.7558 -4.5097 -12.2265 0.0000 21.3985 0.0000
# 6 0.0000 0.0000 0.0000 -9.7483 0.0000 18.0256
#
#
#
# Elastic Compliance Matrix: (Units=1/GPa)
#
#
# Indices 1 2 3 4 5 6 
#
# 1 0.031412 0.005559 -0.003448 0.000000 0.004715 0.000000
# 2 0.005559 0.017022 -0.005978 0.000000 0.001147 0.000000
# 3 -0.003448 -0.005978 0.011576 0.000000 0.004749 0.000000
# 4 0.000000 0.000000 0.000000 0.036024 0.000000 0.019482
# 5 0.004715 0.001147 0.004749 0.000000 0.050515 0.000000
# 6 0.000000 0.000000 0.000000 0.019482 0.000000 0.066013
#
#
# Mechanical properties :
#
#
# Convention : Reuss Voigt Hill
#
# Bulk Modulus (GPa) = 19.12928 33.09124 26.11026
# Shear Modulus (GPa) = 21.03315 26.89399 23.96357
#
# Velocity S-wave (km/s) = 2.95199 3.33803 3.15093
# Velocity P-wave (km/s) = 4.42091 5.34478 4.90465
#
# Compressibility (1/GPa) = 0.05227588
#
# Stress axis : x y z
#
# Youngs Moduli (GPa) = 31.83530 58.74664 86.38881
#
# Poissons Ratio (x) = -0.32659 0.29783
# Poissons Ratio (y) = -0.17698 0.51647
# Poissons Ratio (z) = 0.10975 0.35121
#
# Static dielectric constant tensor:
#      x y z
#    x 2.042120 0.000000 -0.056180 
#    y 0.000000 1.976290 0.000000 
#    z -0.056180 0.000000 1.940660 
# 
# From -- ./inp_files/231167.got.cif
#   From: 2010.05.17/outbox.cif.g08.bks.cpg/sg15_116_cif.got.tgz:231167.got - 2010.06.03 18:47:42.
