data_PCOD9272630
_publ_section_title
;
Structure prediction by ZEFSAII (Michael W. Deem and Ramdas Pophale) SiO2 
 PCOD9272630
Probable space group: C 2/C
;
_chemical_formula_sum "Si O2"
_cell_formula_units_Z 64
_cell_length_a 10.992933
_cell_length_b 11.612566
_cell_length_c 26.538509
_cell_angle_alpha 90.000000
_cell_angle_beta 93.377765
_cell_angle_gamma 90.000000
_cell_volume 3381.918749
_symmetry_space_group_name_H-M "C 2/C"
_symmetry_group_IT_number 15
_symmetry_cell_setting 'monoclinic'
loop_
_space_group_symop_operation_xyz
x,y,z
-x,y,1/2-z
-x,-y,-z
x,-y,1/2+z
1/2+x,1/2+y,z
1/2-x,1/2+y,1/2-z
1/2-x,1/2-y,-z
1/2+x,1/2-y,1/2+z
loop_
_atom_site_type_symbol
_atom_site_label
_atom_site_fract_x
_atom_site_fract_y
_atom_site_fract_z
Si Si1 0.247560 0.160964 0.820888
Si Si2 0.134680 0.583491 0.775321
Si Si3 0.767925 0.029454 0.429149
Si Si4 0.624531 0.950364 0.026096
Si Si5 0.667306 0.930638 0.633501
Si Si6 0.810209 0.701430 0.618495
Si Si7 0.426333 0.264733 0.909886
Si Si8 0.099918 0.624627 0.336142
O O1 0.279498 0.145264 0.763084
O O2 0.354557 0.221780 0.857449
O O3 0.130636 0.241748 0.827268
O O4 0.248737 0.029389 0.839979
O O5 0.143187 0.644325 0.829072
O O6 0.156443 0.449824 0.791304
O O7 0.000000 0.592391 0.750000
O O8 0.725963 0.040101 0.485603
O O9 0.887413 0.104731 0.420561
O O10 0.666587 0.087861 0.389775
O O11 0.764661 0.895954 0.413410
O O12 0.615804 0.819824 0.046184
O O13 0.645010 0.024834 0.076556
O O14 0.500000 0.000000 0.000000
O O15 0.729757 0.808772 0.631224
O O16 0.539860 0.914099 0.660102
O O17 0.930629 0.742964 0.592457
#
# Coordination Sequence:
#
# PCOD9272630 Si02
#       8
#     8   8   8   8   8   8   8   8
#     4  10  21  37  60  86 111 150 199 242 290 353
#     4  11  19  37  63  82 108 153 197 238 296 359
#     4  10  20  38  59  85 115 153 200 243 293 355
#     4  11  18  37  64  84 110 157 210 242 291 361
#     4  11  23  38  57  88 125 153 191 252 299 353
#     4  11  23  37  56  86 123 154 189 245 307 362
#     4  10  20  37  59  84 116 151 196 248 293 351
#     4  10  21  37  61  85 112 152 197 246 288 348
#
# _framework density 18.924167000000001
#
# number of rings (size 3 to 8) (size 9 to 14) (size 15 to 20)
#    0.000    1.500    5.000    1.875    1.750    1.500 
#    0.000    0.625    0.000    0.750    0.000    0.000 
#    0.000    0.000    0.000    0.000    0.000    0.000 
#
# Total GULP energy -178484.755194 kJ/mol
# GULP energy per Si atom -5577.648600 kJ/mol
# Density = 1.888109 g / cm^3
# Si number density = 18.924167 Si / 1000 Ang^3
#
#
#
# Elastic Constant Matrix: (Units=GPa)
#
#
# Indices 1 2 3 4 5 6 
#
# 1 14.9159 59.0829 22.8749 0.0000 -5.6574 0.0000
# 2 59.0829 126.4173 17.2481 0.0000 -23.0670 0.0000
# 3 22.8749 17.2481 75.9968 0.0000 -18.6240 0.0000
# 4 0.0000 0.0000 0.0000 14.9078 0.0000 -7.3801
# 5 -5.6574 -23.0670 -18.6240 0.0000 17.1828 0.0000
# 6 0.0000 0.0000 0.0000 -7.3801 0.0000 30.2866
#
#
#
# Elastic Compliance Matrix: (Units=1/GPa)
#
#
# Indices 1 2 3 4 5 6 
#
# 1 -0.044139 0.025169 0.016738 0.000000 0.037398 0.000000
# 2 0.025169 -0.003756 -0.008072 0.000000 -0.005505 0.000000
# 3 0.016738 -0.008072 0.011775 0.000000 0.007437 0.000000
# 4 0.000000 0.000000 0.000000 0.076280 0.000000 0.018588
# 5 0.037398 -0.005505 0.007437 0.000000 0.071182 0.000000
# 6 0.000000 0.000000 0.000000 0.018588 0.000000 0.037547
#
#
# Mechanical properties :
#
#
# Convention : Reuss Voigt Hill
#
# Bulk Modulus (GPa) = 31.69583 46.19354 38.94468
# Shear Modulus (GPa) = 54.50365 20.35038 37.42702
#
# Velocity S-wave (km/s) = 5.37249 3.28283 4.45200
# Velocity P-wave (km/s) = 7.43438 6.23154 6.85938
#
# Compressibility (1/GPa) = 0.03154989
#
# Stress axis : x y z
#
# Youngs Moduli (GPa) = -22.65581 -266.25453 84.92679
#
# Poissons Ratio (x) = 6.70136 -1.42152
# Poissons Ratio (y) = 0.57022 0.68556
# Poissons Ratio (z) = 0.37922 -2.14931
#
# Static dielectric constant tensor:
#      x y z
#    x 1.652710 0.000000 0.000570 
#    y 0.000000 1.718340 0.000000 
#    z 0.000570 0.000000 1.670430 
# 
# From -- ./inp_files/268839.got.cif
#   From: 2010.05.17/outbox.cif.g08.bks.cpg/sg15_135_cif.got.tgz:268839.got - 2010.06.03 18:47:42.
