data_PCOD9272878
_publ_section_title
;
Structure prediction by ZEFSAII (Michael W. Deem and Ramdas Pophale) SiO2 
 PCOD9272878
Probable space group: C 2/C
;
_chemical_formula_sum "Si O2"
_cell_formula_units_Z 48
_cell_length_a 30.458650
_cell_length_b 7.160775
_cell_length_c 8.695578
_cell_angle_alpha 90.000000
_cell_angle_beta 73.007314
_cell_angle_gamma 90.000000
_cell_volume 1813.770753
_symmetry_space_group_name_H-M "C 2/C"
_symmetry_group_IT_number 15
_symmetry_cell_setting 'monoclinic'
loop_
_space_group_symop_operation_xyz
x,y,z
-x,y,1/2-z
-x,-y,-z
x,-y,1/2+z
1/2+x,1/2+y,z
1/2-x,1/2+y,1/2-z
1/2-x,1/2-y,-z
1/2+x,1/2-y,1/2+z
loop_
_atom_site_type_symbol
_atom_site_label
_atom_site_fract_x
_atom_site_fract_y
_atom_site_fract_z
Si Si1 0.895176 0.905475 0.012181
Si Si2 0.625757 0.719202 0.276756
Si Si3 0.467406 0.095688 0.659721
Si Si4 0.448027 0.298732 0.248748
Si Si5 0.747735 0.944136 0.094969
Si Si6 0.699894 0.188288 0.930406
O O1 0.869969 0.775147 0.912965
O O2 0.916581 0.064881 0.880077
O O3 0.934938 0.824933 0.082003
O O4 0.864331 0.010832 0.169221
O O5 0.572232 0.770254 0.356531
O O6 0.656164 0.833918 0.365282
O O7 0.500000 0.193719 0.750000
O O8 0.500000 0.000000 0.500000
O O9 0.442460 0.923877 0.773104
O O10 0.500000 0.336675 0.250000
O O11 0.740600 0.886236 0.277906
O O12 0.788228 0.097065 0.041315
O O13 0.750000 0.750000 0.000000
O O14 0.703973 0.060537 0.075024
#
# Coordination Sequence:
#
# PCOD9272878 Si02
#       6
#     8   8   8   8   8   8
#     4  10  23  39  58  89 133 161 222 282 337 409
#     4  11  25  43  63 101 130 183 228 287 355 414
#     4  11  23  40  61  87 129 172 226 277 334 402
#     4  10  20  37  61  85 118 170 219 278 336 399
#     4  11  24  47  73 109 145 190 239 294 369 442
#     4  11  26  45  76 107 147 192 239 297 363 446
#
# _framework density 26.464205
#
# number of rings (size 3 to 8) (size 9 to 14) (size 15 to 20)
#    0.000    1.333    1.667    3.500    2.333    8.000 
#    3.000    0.000    0.000    0.000    0.000    0.000 
#    0.000    0.000    0.000    0.000    0.000    0.000 
#
# Total GULP energy -134088.898694 kJ/mol
# GULP energy per Si atom -5587.037446 kJ/mol
# Density = 2.640397 g / cm^3
# Si number density = 26.464205 Si / 1000 Ang^3
#
#
#
# Elastic Constant Matrix: (Units=GPa)
#
#
# Indices 1 2 3 4 5 6 
#
# 1 130.7612 31.3928 50.9110 0.0000 64.0974 0.0000
# 2 31.3928 109.9564 26.6520 0.0000 16.2932 0.0000
# 3 50.9110 26.6520 131.4345 0.0000 51.9048 0.0000
# 4 0.0000 0.0000 0.0000 57.5365 0.0000 11.9305
# 5 64.0974 16.2932 51.9048 0.0000 61.0511 0.0000
# 6 0.0000 0.0000 0.0000 11.9305 0.0000 34.2550
#
#
#
# Elastic Compliance Matrix: (Units=1/GPa)
#
#
# Indices 1 2 3 4 5 6 
#
# 1 0.016339 -0.002333 0.001013 0.000000 -0.017393 0.000000
# 2 -0.002333 0.009973 -0.001558 0.000000 0.001112 0.000000
# 3 0.001013 -0.001558 0.011724 0.000000 -0.010615 0.000000
# 4 0.000000 0.000000 0.000000 0.018733 0.000000 -0.006524
# 5 -0.017393 0.001112 -0.010615 0.000000 0.043368 0.000000
# 6 0.000000 0.000000 0.000000 -0.006524 0.000000 0.031465
#
#
# Mechanical properties :
#
#
# Convention : Reuss Voigt Hill
#
# Bulk Modulus (GPa) = 30.97915 65.56265 48.27090
# Shear Modulus (GPa) = 33.75654 48.11492 40.93573
#
# Velocity S-wave (km/s) = 3.57537 4.26856 3.93725
# Velocity P-wave (km/s) = 5.36431 7.00871 6.24091
#
# Compressibility (1/GPa) = 0.03227978
#
# Stress axis : x y z
#
# Youngs Moduli (GPa) = 61.20325 100.26658 85.29534
#
# Poissons Ratio (x) = 0.23393 -0.08638
# Poissons Ratio (y) = 0.14279 0.13289
# Poissons Ratio (z) = -0.06198 0.15621
#
# Static dielectric constant tensor:
#      x y z
#    x 2.141310 0.000000 -0.008160 
#    y 0.000000 2.103320 0.000000 
#    z -0.008160 0.000000 2.131270 
# 
# From -- ./inp_files/68595.got.cif
#   From: 2010.05.17/outbox.cif.g08.bks.cpg/sg15_35_cif.got.tgz:68595.got - 2010.06.03 18:47:42.
