data_PCOD9272189
_publ_section_title
;
Structure prediction by ZEFSAII (Michael W. Deem and Ramdas Pophale) SiO2 
 PCOD9272189
Probable space group: C 2/C
;
_chemical_formula_sum "Si O2"
_cell_formula_units_Z 56
_cell_length_a 27.736510
_cell_length_b 8.973601
_cell_length_c 12.590531
_cell_angle_alpha 90.000000
_cell_angle_beta 114.771603
_cell_angle_gamma 90.000000
_cell_volume 2845.387457
_symmetry_space_group_name_H-M "C 2/C"
_symmetry_group_IT_number 15
_symmetry_cell_setting 'monoclinic'
loop_
_space_group_symop_operation_xyz
x,y,z
-x,y,1/2-z
-x,-y,-z
x,-y,1/2+z
1/2+x,1/2+y,z
1/2-x,1/2+y,1/2-z
1/2-x,1/2-y,-z
1/2+x,1/2-y,1/2+z
loop_
_atom_site_type_symbol
_atom_site_label
_atom_site_fract_x
_atom_site_fract_y
_atom_site_fract_z
Si Si1 0.200060 0.328441 0.008980
Si Si2 0.438964 0.814317 0.403675
Si Si3 0.738761 0.581562 0.354716
Si Si4 0.688831 0.333516 0.014660
Si Si5 0.030566 0.472279 0.377059
Si Si6 0.857275 0.912070 0.900951
Si Si7 0.133387 0.574584 0.841617
O O1 0.166451 0.425503 0.893222
O O2 0.250000 0.250000 0.000000
O O3 0.221260 0.443040 0.118975
O O4 0.162422 0.209851 0.031861
O O5 0.455896 0.906014 0.522644
O O6 0.412551 0.654093 0.405452
O O7 0.392607 0.902330 0.296983
O O8 0.492083 0.838540 0.381542
O O9 0.721911 0.565040 0.463585
O O10 0.772277 0.734467 0.376407
O O11 0.688353 0.577655 0.231644
O O12 0.646688 0.429481 0.041768
O O13 0.666820 0.216250 0.908556
O O14 0.085683 0.418973 0.381784
O O15 0.000000 0.545766 0.250000
#
# Coordination Sequence:
#
# PCOD9272189 Si02
#       7
#     8   8   8   8   8   8   8
#     4  11  22  35  56  87 124 159 202 242 284 344
#     4  10  20  36  65  89 111 148 202 247 303 354
#     4  10  21  37  53  79 120 165 197 234 282 357
#     4  10  21  36  55  80 121 160 193 234 293 345
#     4   9  19  38  63  91 113 144 194 254 303 357
#     4  12  21  36  58  87 117 159 200 246 290 352
#     4  10  20  39  60  86 123 157 193 245 302 355
#
# _framework density 19.680976000000001
#
# number of rings (size 3 to 8) (size 9 to 14) (size 15 to 20)
#    0.000    1.714    4.286    0.857    0.000    1.143 
#    2.571    0.714    0.000    2.571    0.000    0.000 
#    0.000    0.000    0.000    0.000    0.000    0.000 
#
# Total GULP energy -155984.050128 kJ/mol
# GULP energy per Si atom -5570.858933 kJ/mol
# Density = 1.963618 g / cm^3
# Si number density = 19.680976 Si / 1000 Ang^3
#
#
#
# Elastic Constant Matrix: (Units=GPa)
#
#
# Indices 1 2 3 4 5 6 
#
# 1 80.9846 24.2850 11.7504 0.0000 6.3927 0.0000
# 2 24.2850 78.4420 22.7942 0.0000 2.8144 0.0000
# 3 11.7504 22.7942 74.2689 0.0000 3.5556 0.0000
# 4 0.0000 0.0000 0.0000 13.3010 0.0000 -4.3517
# 5 6.3927 2.8144 3.5556 0.0000 20.9189 0.0000
# 6 0.0000 0.0000 0.0000 -4.3517 0.0000 34.2176
#
#
#
# Elastic Compliance Matrix: (Units=1/GPa)
#
#
# Indices 1 2 3 4 5 6 
#
# 1 0.013934 -0.003946 -0.000822 0.000000 -0.003587 0.000000
# 2 -0.003946 0.015142 -0.004016 0.000000 -0.000149 0.000000
# 3 -0.000822 -0.004016 0.014911 0.000000 -0.001743 0.000000
# 4 0.000000 0.000000 0.000000 0.078446 0.000000 0.009977
# 5 -0.003587 -0.000149 -0.001743 0.000000 0.049216 0.000000
# 6 0.000000 0.000000 0.000000 0.009977 0.000000 0.030494
#
#
# Mechanical properties :
#
#
# Convention : Reuss Voigt Hill
#
# Bulk Modulus (GPa) = 37.85151 39.03941 38.44546
# Shear Modulus (GPa) = 21.88022 25.34522 23.61272
#
# Velocity S-wave (km/s) = 3.33790 3.59249 3.46753
# Velocity P-wave (km/s) = 5.84207 6.08992 5.96728
#
# Compressibility (1/GPa) = 0.02641903
#
# Stress axis : x y z
#
# Youngs Moduli (GPa) = 71.76780 66.04002 67.06654
#
# Poissons Ratio (x) = 0.26062 0.05510
# Poissons Ratio (y) = 0.28322 0.26933
# Poissons Ratio (z) = 0.05896 0.26521
#
# Static dielectric constant tensor:
#      x y z
#    x 1.835300 0.000000 -0.006740 
#    y 0.000000 1.723980 0.000000 
#    z -0.006740 0.000000 1.719680 
# 
# From -- ./inp_files/122003.got.cif
#   From: 2010.05.17/outbox.cif.g08.bks.cpg/sg15_62_cif.got.tgz:122003.got - 2010.06.03 18:47:42.
