data_PCOD9272406
_publ_section_title
;
Structure prediction by ZEFSAII (Michael W. Deem and Ramdas Pophale) SiO2 
 PCOD9272406
Probable space group: C 2/C
;
_chemical_formula_sum "Si O2"
_cell_formula_units_Z 56
_cell_length_a 25.715563
_cell_length_b 21.855319
_cell_length_c 9.217162
_cell_angle_alpha 90.000000
_cell_angle_beta 150.455526
_cell_angle_gamma 90.000000
_cell_volume 2554.374245
_symmetry_space_group_name_H-M "C 2/C"
_symmetry_group_IT_number 15
_symmetry_cell_setting 'monoclinic'
loop_
_space_group_symop_operation_xyz
x,y,z
-x,y,1/2-z
-x,-y,-z
x,-y,1/2+z
1/2+x,1/2+y,z
1/2-x,1/2+y,1/2-z
1/2-x,1/2-y,-z
1/2+x,1/2-y,1/2+z
loop_
_atom_site_type_symbol
_atom_site_label
_atom_site_fract_x
_atom_site_fract_y
_atom_site_fract_z
Si Si1 0.931138 0.365131 0.894761
Si Si2 0.170036 0.353323 0.433527
Si Si3 0.180861 0.734032 0.190571
Si Si4 0.628917 0.096432 0.543386
Si Si5 0.669029 0.045439 0.167265
Si Si6 0.500000 0.530247 0.750000
Si Si7 0.400830 0.571289 0.801389
Si Si8 0.000000 0.829911 0.750000
O O1 0.887446 0.321771 0.911542
O O2 0.859242 0.368780 0.578847
O O3 0.924410 0.432387 0.951594
O O4 0.044626 0.339846 0.127574
O O5 0.228789 0.299518 0.664236
O O6 0.192409 0.367717 0.321451
O O7 0.172103 0.417850 0.523826
O O8 0.250000 0.750000 0.500000
O O9 0.100645 0.787943 0.955940
O O10 0.667022 0.026496 0.636433
O O11 0.500000 0.093485 0.250000
O O12 0.775087 0.070013 0.501189
O O13 0.432841 0.566292 0.708663
O O14 0.433404 0.486564 0.480712
O O15 0.459580 0.627791 0.019850
#
# Coordination Sequence:
#
# PCOD9272406 Si02
#       8
#     8   8   8   8   8   4   8   4
#     4  10  20  37  56  84 124 159 196 247 302 358
#     4  10  20  37  55  86 125 157 196 250 299 355
#     4  11  21  39  62  84 113 159 213 253 298 357
#     4  10  21  34  56  89 128 162 192 239 315 362
#     4  11  20  33  58  91 118 157 202 238 293 377
#     4   9  22  46  56  82 126 150 189 254 302 354
#     4  10  23  39  65  87 117 160 200 242 308 359
#     4  11  20  42  64  88 114 164 207 254 300 354
#
# _framework density 21.923176999999999
#
# number of rings (size 3 to 8) (size 9 to 14) (size 15 to 20)
#    0.000    1.714    1.429    4.714    4.000    2.286 
#    2.571    2.143    0.000    0.000    0.000    0.000 
#    0.000    0.000    0.000    0.000    0.000    0.000 
#
# Total GULP energy -156109.060772 kJ/mol
# GULP energy per Si atom -5575.323599 kJ/mol
# Density = 2.187328 g / cm^3
# Si number density = 21.923177 Si / 1000 Ang^3
#
#
#
# Elastic Constant Matrix: (Units=GPa)
#
#
# Indices 1 2 3 4 5 6 
#
# 1 55.3368 15.6515 25.1710 0.0000 -27.4238 0.0000
# 2 15.6515 82.8231 32.3302 0.0000 -16.5038 0.0000
# 3 25.1710 32.3302 116.1338 0.0000 -29.9582 0.0000
# 4 0.0000 0.0000 0.0000 -10.7401 0.0000 30.6083
# 5 -27.4238 -16.5038 -29.9582 0.0000 45.4654 0.0000
# 6 0.0000 0.0000 0.0000 30.6083 0.0000 -42.0389
#
#
#
# Elastic Compliance Matrix: (Units=1/GPa)
#
#
# Indices 1 2 3 4 5 6 
#
# 1 0.026290 -0.001502 -0.001602 0.000000 0.014257 0.000000
# 2 -0.001502 0.013964 -0.002997 0.000000 0.002188 0.000000
# 3 -0.001602 -0.002997 0.011159 0.000000 0.005299 0.000000
# 4 0.000000 0.000000 0.000000 0.086612 0.000000 0.063062
# 5 0.014257 0.002188 0.005299 0.000000 0.034880 0.000000
# 6 0.000000 0.000000 0.000000 0.063062 0.000000 0.022128
#
#
# Mechanical properties :
#
#
# Convention : Reuss Voigt Hill
#
# Bulk Modulus (GPa) = 25.50376 44.51102 35.00739
# Shear Modulus (GPa) = 22.69571 10.61336 16.65454
#
# Velocity S-wave (km/s) = 3.22100 2.20265 2.75921
# Velocity P-wave (km/s) = 5.04892 5.17843 5.11409
#
# Compressibility (1/GPa) = 0.03920990
#
# Stress axis : x y z
#
# Youngs Moduli (GPa) = 38.03707 71.61398 89.61106
#
# Poissons Ratio (x) = 0.10755 0.14359
# Poissons Ratio (y) = 0.05713 0.26860
# Poissons Ratio (z) = 0.06095 0.21466
#
# Static dielectric constant tensor:
#      x y z
#    x 1.894220 0.000000 0.011720 
#    y 0.000000 1.822440 0.000000 
#    z 0.011720 0.000000 1.885840 
# 
# From -- ./inp_files/51186.got.cif
#   From: 2010.05.17/outbox.cif.g08.bks.cpg/sg15_26_cif.got.tgz:51186.got - 2010.06.03 18:47:42.
