data_PCOD9272223
_publ_section_title
;
Structure prediction by ZEFSAII (Michael W. Deem and Ramdas Pophale) SiO2 
 PCOD9272223
Probable space group: C 2/C
;
_chemical_formula_sum "Si O2"
_cell_formula_units_Z 56
_cell_length_a 24.528450
_cell_length_b 15.211341
_cell_length_c 16.196019
_cell_angle_alpha 90.000000
_cell_angle_beta 25.992980
_cell_angle_gamma 90.000000
_cell_volume 2648.370438
_symmetry_space_group_name_H-M "C 2/C"
_symmetry_group_IT_number 15
_symmetry_cell_setting 'monoclinic'
loop_
_space_group_symop_operation_xyz
x,y,z
-x,y,1/2-z
-x,-y,-z
x,-y,1/2+z
1/2+x,1/2+y,z
1/2-x,1/2+y,1/2-z
1/2-x,1/2-y,-z
1/2+x,1/2-y,1/2+z
loop_
_atom_site_type_symbol
_atom_site_label
_atom_site_fract_x
_atom_site_fract_y
_atom_site_fract_z
Si Si1 0.210136 0.145936 0.965214
Si Si2 0.000000 0.430348 0.750000
Si Si3 0.668729 0.329002 0.707560
Si Si4 0.000000 0.728498 0.750000
Si Si5 0.002576 0.084083 0.556534
Si Si6 0.095741 0.411647 0.016139
Si Si7 0.734113 0.453649 0.863020
Si Si8 0.750891 0.646102 0.513316
O O1 0.166107 0.129472 0.119669
O O2 0.097565 0.202101 0.080668
O O3 0.307857 0.225554 0.833787
O O4 0.240764 0.057333 0.876191
O O5 0.047120 0.495021 0.613502
O O6 0.119517 0.377657 0.618551
O O7 0.785783 0.377699 0.591560
O O8 0.554957 0.342197 0.923467
O O9 0.991044 0.658557 0.686681
O O10 0.868417 0.111059 0.773215
O O11 0.105253 0.066233 0.488691
O O12 0.000000 0.000000 0.500000
O O13 0.150761 0.422320 0.850494
O O14 0.740445 0.402051 0.939731
O O15 0.750000 0.750000 0.500000
#
# Coordination Sequence:
#
# PCOD9272223 Si02
#       8
#     8   4   8   4   8   8   8   8
#     4  10  20  36  66 102 130 171 228 287 345 405
#     4  11  24  48  71  92 138 184 231 286 364 417
#     4   9  20  39  65  99 137 172 222 288 351 411
#     4   9  20  34  61  96 134 174 213 282 342 401
#     4  11  24  45  70 102 145 187 232 289 353 424
#     4   9  20  43  65  95 135 174 219 282 347 420
#     4  11  24  43  71 103 137 178 240 287 346 430
#     4  12  29  46  69  98 140 190 237 293 351 425
#
# _framework density 21.145078999999999
#
# number of rings (size 3 to 8) (size 9 to 14) (size 15 to 20)
#    0.000    1.714    0.000    3.857    6.000    4.000 
#   10.286    0.000    0.000    0.000    0.000    0.000 
#    0.000    0.000    0.000    0.000    0.000    0.000 
#
# Total GULP energy -156167.819184 kJ/mol
# GULP energy per Si atom -5577.422114 kJ/mol
# Density = 2.109695 g / cm^3
# Si number density = 21.145079 Si / 1000 Ang^3
#
#
#
# Elastic Constant Matrix: (Units=GPa)
#
#
# Indices 1 2 3 4 5 6 
#
# 1 68.0295 25.6314 54.1634 0.0000 4.5948 0.0000
# 2 25.6314 128.5833 59.8961 0.0000 6.7301 0.0000
# 3 54.1634 59.8961 173.8713 0.0000 19.1995 0.0000
# 4 0.0000 0.0000 0.0000 19.9117 0.0000 7.4725
# 5 4.5948 6.7301 19.1995 0.0000 34.6786 0.0000
# 6 0.0000 0.0000 0.0000 7.4725 0.0000 16.2443
#
#
#
# Elastic Compliance Matrix: (Units=1/GPa)
#
#
# Indices 1 2 3 4 5 6 
#
# 1 0.019745 -0.001276 -0.005804 0.000000 0.000845 0.000000
# 2 -0.001276 0.009346 -0.002812 0.000000 -0.000088 0.000000
# 3 -0.005804 -0.002812 0.008929 0.000000 -0.003629 0.000000
# 4 0.000000 0.000000 0.000000 0.060700 0.000000 -0.027922
# 5 0.000845 -0.000088 -0.003629 0.000000 0.030750 0.000000
# 6 0.000000 0.000000 0.000000 -0.027922 0.000000 0.074404
#
#
# Mechanical properties :
#
#
# Convention : Reuss Voigt Hill
#
# Bulk Modulus (GPa) = 54.84346 72.20730 63.52538
# Shear Modulus (GPa) = 21.76386 29.55315 25.65851
#
# Velocity S-wave (km/s) = 3.21169 3.74255 3.48724
# Velocity P-wave (km/s) = 6.30447 7.27312 6.80605
#
# Compressibility (1/GPa) = 0.01823371
#
# Stress axis : x y z
#
# Youngs Moduli (GPa) = 50.64675 106.99664 111.99436
#
# Poissons Ratio (x) = 0.13656 0.65006
# Poissons Ratio (y) = 0.06464 0.31496
# Poissons Ratio (z) = 0.29397 0.30091
#
# Static dielectric constant tensor:
#      x y z
#    x 1.829090 0.000000 -0.091460 
#    y 0.000000 1.778610 0.000000 
#    z -0.091460 0.000000 1.846480 
# 
# From -- ./inp_files/173817.got.cif
#   From: 2010.05.17/outbox.cif.g08.bks.cpg/sg15_87_cif.got.tgz:173817.got - 2010.06.03 18:47:42.
