data_PCOD9272245
_publ_section_title
;
Structure prediction by ZEFSAII (Michael W. Deem and Ramdas Pophale) SiO2 
 PCOD9272245
Probable space group: C 2/C
;
_chemical_formula_sum "Si O2"
_cell_formula_units_Z 36
_cell_length_a 14.527238
_cell_length_b 20.088639
_cell_length_c 8.626500
_cell_angle_alpha 90.000000
_cell_angle_beta 141.547087
_cell_angle_gamma 90.000000
_cell_volume 1565.556262
_symmetry_space_group_name_H-M "C 2/C"
_symmetry_group_IT_number 15
_symmetry_cell_setting 'monoclinic'
loop_
_space_group_symop_operation_xyz
x,y,z
-x,y,1/2-z
-x,-y,-z
x,-y,1/2+z
1/2+x,1/2+y,z
1/2-x,1/2+y,1/2-z
1/2-x,1/2-y,-z
1/2+x,1/2-y,1/2+z
loop_
_atom_site_type_symbol
_atom_site_label
_atom_site_fract_x
_atom_site_fract_y
_atom_site_fract_z
Si Si1 0.397128 0.041112 0.482049
Si Si2 0.403887 0.298687 0.351165
Si Si3 0.500000 0.518488 0.750000
Si Si4 0.824740 0.066563 0.801629
Si Si5 0.277871 0.326360 0.836999
O O1 0.290856 0.099576 0.274691
O O2 0.500000 0.000000 0.500000
O O3 0.305026 0.979386 0.432198
O O4 0.500000 0.072214 0.750000
O O5 0.312491 0.356237 0.319171
O O6 0.580665 0.310925 0.586022
O O7 0.353906 0.227330 0.347179
O O8 0.344258 0.311184 0.096423
O O9 0.449638 0.559784 0.832470
O O10 0.373828 0.470060 0.521624
#
# Coordination Sequence:
#
# PCOD9272245 Si02
#       5
#     8   8   4   8   8
#     4  12  26  42  65  97 138 175 218 273 329 390
#     4  10  21  39  68  91 130 169 220 267 328 391
#     4  10  20  36  66  92 122 150 226 272 320 376
#     4  11  21  39  64  94 122 171 212 272 322 387
#     4  10  22  41  62  98 127 173 219 268 322 394
#
# _framework density 22.995023
#
# number of rings (size 3 to 8) (size 9 to 14) (size 15 to 20)
#    0.000    1.333    0.000    8.000    3.111    0.000 
#    2.000    1.111    0.000    0.000    0.000    0.000 
#    0.000    0.000    0.000    0.000    0.000    0.000 
#
# Total GULP energy -100416.992870 kJ/mol
# GULP energy per Si atom -5578.721826 kJ/mol
# Density = 2.294269 g / cm^3
# Si number density = 22.995023 Si / 1000 Ang^3
#
#
#
# Elastic Constant Matrix: (Units=GPa)
#
#
# Indices 1 2 3 4 5 6 
#
# 1 82.6027 56.9103 26.6049 0.0000 27.1521 0.0000
# 2 56.9103 173.6625 21.2128 0.0000 31.3181 0.0000
# 3 26.6049 21.2128 71.1633 0.0000 16.3624 0.0000
# 4 0.0000 0.0000 0.0000 25.4130 0.0000 17.8458
# 5 27.1521 31.3181 16.3624 0.0000 32.7355 0.0000
# 6 0.0000 0.0000 0.0000 17.8458 0.0000 20.5114
#
#
#
# Elastic Compliance Matrix: (Units=1/GPa)
#
#
# Indices 1 2 3 4 5 6 
#
# 1 0.019535 -0.004063 -0.003684 0.000000 -0.010475 0.000000
# 2 -0.004063 0.007828 0.000150 0.000000 -0.004194 0.000000
# 3 -0.003684 0.000150 0.016626 0.000000 -0.005398 0.000000
# 4 0.000000 0.000000 0.000000 0.101149 0.000000 -0.088004
# 5 -0.010475 -0.004194 -0.005398 0.000000 0.045947 0.000000
# 6 0.000000 0.000000 0.000000 -0.088004 0.000000 0.125320
#
#
# Mechanical properties :
#
#
# Convention : Reuss Voigt Hill
#
# Bulk Modulus (GPa) = 34.72801 59.65383 47.19092
# Shear Modulus (GPa) = 14.65435 30.57868 22.61651
#
# Velocity S-wave (km/s) = 2.52719 3.65059 3.13955
# Velocity P-wave (km/s) = 4.86320 6.61570 5.80595
#
# Compressibility (1/GPa) = 0.02879520
#
# Stress axis : x y z
#
# Youngs Moduli (GPa) = 51.19062 127.75164 60.14712
#
# Poissons Ratio (x) = 0.51902 0.22157
# Poissons Ratio (y) = 0.20797 -0.00901
# Poissons Ratio (z) = 0.18857 -0.01914
#
# Static dielectric constant tensor:
#      x y z
#    x 2.085390 0.000000 0.030100 
#    y 0.000000 1.944790 0.000000 
#    z 0.030100 0.000000 1.935740 
# 
# From -- ./inp_files/41313.got.cif
#   From: 2010.05.17/outbox.cif.g08.bks.cpg/sg15_21_cif.got.tgz:41313.got - 2010.06.03 18:47:42.
