data_PCOD9272128
_publ_section_title
;
Structure prediction by ZEFSAII (Michael W. Deem and Ramdas Pophale) SiO2 
 PCOD9272128
Probable space group: C 2/C
;
_chemical_formula_sum "Si O2"
_cell_formula_units_Z 60
_cell_length_a 17.213385
_cell_length_b 12.617768
_cell_length_c 19.132174
_cell_angle_alpha 90.000000
_cell_angle_beta 46.032317
_cell_angle_gamma 90.000000
_cell_volume 2990.774387
_symmetry_space_group_name_H-M "C 2/C"
_symmetry_group_IT_number 15
_symmetry_cell_setting 'monoclinic'
loop_
_space_group_symop_operation_xyz
x,y,z
-x,y,1/2-z
-x,-y,-z
x,-y,1/2+z
1/2+x,1/2+y,z
1/2-x,1/2+y,1/2-z
1/2-x,1/2-y,-z
1/2+x,1/2-y,1/2+z
loop_
_atom_site_type_symbol
_atom_site_label
_atom_site_fract_x
_atom_site_fract_y
_atom_site_fract_z
Si Si1 0.044260 0.789675 0.518698
Si Si2 0.324680 0.193774 0.642001
Si Si3 0.361036 0.268313 0.470929
Si Si4 0.354617 0.003286 0.729459
Si Si5 0.092981 0.268354 0.830003
Si Si6 0.500000 0.099655 0.750000
Si Si7 0.667480 0.844508 0.047149
Si Si8 0.312465 0.491189 0.037168
O O1 0.074134 0.781942 0.418262
O O2 0.097043 0.686149 0.523695
O O3 0.097386 0.898870 0.512706
O O4 0.915420 0.779004 0.611496
O O5 0.354577 0.190239 0.541920
O O6 0.340059 0.090857 0.679491
O O7 0.199052 0.222389 0.726932
O O8 0.250000 0.250000 0.500000
O O9 0.477576 0.246149 0.363721
O O10 0.357973 0.391999 0.495634
O O11 0.458366 0.030961 0.711967
O O12 0.257130 0.004519 0.847262
O O13 0.376415 0.890803 0.682051
O O14 0.405805 0.169871 0.838715
O O15 0.731516 0.952980 0.024830
O O16 0.750000 0.750000 0.000000
#
# Coordination Sequence:
#
# PCOD9272128 Si02
#       8
#     8   8   8   8   8   4   8   8
#     4  10  21  39  65  95 131 160 215 264 318 370
#     4  11  23  42  63  97 129 164 214 268 312 383
#     4  11  27  43  65  93 128 169 219 266 321 384
#     4  11  22  39  68  94 125 172 212 256 324 375
#     4  11  25  40  64  95 125 166 211 269 311 383
#     4  10  20  36  64  90 124 168 208 246 312 386
#     4   9  19  34  61  97 124 158 208 261 302 374
#     4  10  21  41  67  91 124 178 210 253 322 385
#
# _framework density 20.061693999999999
#
# number of rings (size 3 to 8) (size 9 to 14) (size 15 to 20)
#    0.000    1.600    4.000    0.000    3.733    6.933 
#    0.000    0.000    0.000    1.600    0.000    0.000 
#    0.000    0.000    0.000    0.000    0.000    0.000 
#
# Total GULP energy -167139.463236 kJ/mol
# GULP energy per Si atom -5571.315441 kJ/mol
# Density = 2.001603 g / cm^3
# Si number density = 20.061694 Si / 1000 Ang^3
#
#
#
# Elastic Constant Matrix: (Units=GPa)
#
#
# Indices 1 2 3 4 5 6 
#
# 1 77.7281 8.7241 7.4153 0.0000 -21.4492 0.0000
# 2 8.7241 86.3251 21.0341 0.0000 -11.4566 0.0000
# 3 7.4153 21.0341 69.8499 0.0000 -36.8988 0.0000
# 4 0.0000 0.0000 0.0000 22.4761 0.0000 -0.3789
# 5 -21.4492 -11.4566 -36.8988 0.0000 37.3093 0.0000
# 6 0.0000 0.0000 0.0000 -0.3789 0.0000 20.7511
#
#
#
# Elastic Compliance Matrix: (Units=1/GPa)
#
#
# Indices 1 2 3 4 5 6 
#
# 1 0.016887 -0.001299 0.007363 0.000000 0.016592 0.000000
# 2 -0.001299 0.012602 -0.004203 0.000000 -0.001034 0.000000
# 3 0.007363 -0.004203 0.034247 0.000000 0.036813 0.000000
# 4 0.000000 0.000000 0.000000 0.044505 0.000000 0.000813
# 5 0.016592 -0.001034 0.036813 0.000000 0.072432 0.000000
# 6 0.000000 0.000000 0.000000 0.000813 0.000000 0.048205
#
#
# Mechanical properties :
#
#
# Convention : Reuss Voigt Hill
#
# Bulk Modulus (GPa) = 14.82388 34.25001 24.53694
# Shear Modulus (GPa) = 20.19037 29.22261 24.70649
#
# Velocity S-wave (km/s) = 3.17584 3.82073 3.51312
# Velocity P-wave (km/s) = 4.56653 6.04759 5.35848
#
# Compressibility (1/GPa) = 0.06745874
#
# Stress axis : x y z
#
# Youngs Moduli (GPa) = 59.21633 79.35040 29.19957
#
# Poissons Ratio (x) = 0.10306 -0.21500
# Poissons Ratio (y) = 0.07691 0.12273
# Poissons Ratio (z) = -0.43602 0.33353
#
# Static dielectric constant tensor:
#      x y z
#    x 1.817050 0.000000 -0.050370 
#    y 0.000000 1.449760 0.000000 
#    z -0.050370 0.000000 1.708600 
# 
# From -- ./inp_files/248766.got.cif
#   From: 2010.05.17/outbox.cif.g08.bks.cpg/sg15_125_cif.got.tgz:248766.got - 2010.06.03 18:47:42.
