data_PCOD9272986
_publ_section_title
;
Structure prediction by ZEFSAII (Michael W. Deem and Ramdas Pophale) SiO2 
 PCOD9272986
Probable space group: C 2/C
;
_chemical_formula_sum "Si O2"
_cell_formula_units_Z 48
_cell_length_a 23.780223
_cell_length_b 10.006944
_cell_length_c 13.874107
_cell_angle_alpha 90.000000
_cell_angle_beta 42.117501
_cell_angle_gamma 90.000000
_cell_volume 2214.218366
_symmetry_space_group_name_H-M "C 2/C"
_symmetry_group_IT_number 15
_symmetry_cell_setting 'monoclinic'
loop_
_space_group_symop_operation_xyz
x,y,z
-x,y,1/2-z
-x,-y,-z
x,-y,1/2+z
1/2+x,1/2+y,z
1/2-x,1/2+y,1/2-z
1/2-x,1/2-y,-z
1/2+x,1/2-y,1/2+z
loop_
_atom_site_type_symbol
_atom_site_label
_atom_site_fract_x
_atom_site_fract_y
_atom_site_fract_z
Si Si1 0.135390 0.630005 0.963962
Si Si2 0.668381 0.870801 0.213302
Si Si3 0.594504 0.667646 0.670344
Si Si4 0.944041 0.634475 0.124439
Si Si5 0.075715 0.644025 0.578358
Si Si6 0.652934 0.368484 0.602963
O O1 0.147536 0.748327 0.024239
O O2 0.138534 0.482685 0.006098
O O3 0.038612 0.632609 0.046485
O O4 0.190317 0.641256 0.798354
O O5 0.634931 0.728089 0.217098
O O6 0.606145 0.997910 0.287067
O O7 0.749547 0.890148 0.044293
O O8 0.500000 0.677160 0.750000
O O9 0.600419 0.745806 0.763147
O O10 0.614580 0.513870 0.657797
O O11 0.945794 0.653301 0.007422
O O12 0.115727 0.781572 0.562651
O O13 0.000000 0.617462 0.750000
#
# Coordination Sequence:
#
# PCOD9272986 Si02
#       6
#     8   8   8   8   8   8
#     4  10  20  37  62  84 109 145 191 234 273 326
#     4  10  22  39  58  80 112 153 191 226 269 333
#     4  10  22  38  58  86 115 144 182 233 284 329
#     4  10  21  39  61  84 109 146 191 231 275 328
#     4  11  20  36  62  84 109 145 189 233 274 329
#     4  11  23  37  55  84 118 149 183 227 282 332
#
# _framework density 21.678077999999999
#
# number of rings (size 3 to 8) (size 9 to 14) (size 15 to 20)
#    0.000    1.667    0.000    7.000    0.000    4.667 
#    0.000    7.500    0.000    0.000    0.000    0.000 
#    0.000    0.000    0.000    0.000    0.000    0.000 
#
# Total GULP energy -134064.689748 kJ/mol
# GULP energy per Si atom -5586.028740 kJ/mol
# Density = 2.162874 g / cm^3
# Si number density = 21.678078 Si / 1000 Ang^3
#
#
#
# Elastic Constant Matrix: (Units=GPa)
#
#
# Indices 1 2 3 4 5 6 
#
# 1 51.0088 43.3008 44.3139 0.0000 32.4072 0.0000
# 2 43.3008 193.5888 59.0137 0.0001 34.0233 0.0000
# 3 44.3139 59.0137 101.9722 0.0000 33.4346 0.0000
# 4 0.0000 0.0001 0.0000 13.5707 0.0000 17.9175
# 5 32.4072 34.0233 33.4346 0.0000 29.7098 0.0000
# 6 0.0000 0.0000 0.0000 17.9175 0.0000 -22.4841
#
#
#
# Elastic Compliance Matrix: (Units=1/GPa)
#
#
# Indices 1 2 3 4 5 6 
#
# 1 0.068435 -0.001694 -0.007797 0.000000 -0.063934 0.000000
# 2 -0.001694 0.006801 -0.001984 0.000000 -0.003708 0.000000
# 3 -0.007797 -0.001984 0.017130 0.000000 -0.008502 0.000000
# 4 0.000000 0.000000 0.000000 0.035908 0.000000 0.028615
# 5 -0.063934 -0.003708 -0.008502 0.000000 0.117211 0.000000
# 6 0.000000 0.000000 0.000000 0.028615 0.000000 -0.021673
#
#
# Mechanical properties :
#
#
# Convention : Reuss Voigt Hill
#
# Bulk Modulus (GPa) = 14.40568 71.09186 42.74877
# Shear Modulus (GPa) = 18.52535 17.48872 18.00703
#
# Velocity S-wave (km/s) = 2.92647 2.84341 2.88524
# Velocity P-wave (km/s) = 4.25190 6.60648 5.55537
#
# Compressibility (1/GPa) = 0.06941705
#
# Stress axis : x y z
#
# Youngs Moduli (GPa) = 14.61248 147.03847 58.37568
#
# Poissons Ratio (x) = 0.24907 0.45513
# Poissons Ratio (y) = 0.02475 0.11582
# Poissons Ratio (z) = 0.11393 0.29172
#
# Static dielectric constant tensor:
#      x y z
#    x 1.859510 0.000000 -0.023850 
#    y 0.000000 1.789990 0.000000 
#    z -0.023850 0.000000 1.811140 
# 
# From -- ./inp_files/180699.got.cif
#   From: 2010.05.17/outbox.cif.g08.bks.cpg/sg15_91_cif.got.tgz:180699.got - 2010.06.03 18:47:42.
