data_PCOD9272051
_publ_section_title
;
Structure prediction by ZEFSAII (Michael W. Deem and Ramdas Pophale) SiO2 
 PCOD9272051
Probable space group: C 2/C
;
_chemical_formula_sum "Si O2"
_cell_formula_units_Z 56
_cell_length_a 29.835184
_cell_length_b 15.775010
_cell_length_c 17.355088
_cell_angle_alpha 90.000000
_cell_angle_beta 161.530095
_cell_angle_gamma 90.000000
_cell_volume 2587.731821
_symmetry_space_group_name_H-M "C 2/C"
_symmetry_group_IT_number 15
_symmetry_cell_setting 'monoclinic'
loop_
_space_group_symop_operation_xyz
x,y,z
-x,y,1/2-z
-x,-y,-z
x,-y,1/2+z
1/2+x,1/2+y,z
1/2-x,1/2+y,1/2-z
1/2-x,1/2-y,-z
1/2+x,1/2-y,1/2+z
loop_
_atom_site_type_symbol
_atom_site_label
_atom_site_fract_x
_atom_site_fract_y
_atom_site_fract_z
Si Si1 0.596234 0.499121 0.340355
Si Si2 0.622355 0.880734 0.007357
Si Si3 0.800255 0.423154 0.895528
Si Si4 0.040875 0.341279 0.200892
Si Si5 0.012963 0.087353 0.569051
Si Si6 0.896748 0.424143 0.354546
Si Si7 0.561494 0.338125 0.989786
O O1 0.500000 0.460362 0.250000
O O2 0.625362 0.433244 0.318814
O O3 0.739802 0.537853 0.606239
O O4 0.503960 0.577559 0.155543
O O5 0.564370 0.885849 0.999623
O O6 0.770895 0.831386 0.251038
O O7 0.668063 0.976386 0.055210
O O8 0.500000 0.850932 0.750000
O O9 0.635666 0.402208 0.629918
O O10 0.862472 0.384108 0.076185
O O11 0.887284 0.382701 0.967166
O O12 0.098013 0.361461 0.209524
O O13 0.022203 0.241542 0.179931
O O14 0.041856 0.155408 0.550373
O O15 0.000000 0.000000 0.500000
O O16 0.000000 0.500000 0.500000
#
# Coordination Sequence:
#
# PCOD9272051 Si02
#       7
#     8   8   8   8   8   8   8
#     4  11  22  39  68 103 134 175 227 287 337 410
#     4  12  23  43  70  94 134 186 234 281 337 423
#     4  11  20  40  67 100 134 177 224 283 340 403
#     4  11  25  39  67 103 136 167 228 288 343 392
#     4  10  20  36  63  93 134 175 221 266 340 410
#     4  12  24  40  69 101 132 177 238 278 334 415
#     4  11  25  42  65 102 140 176 222 288 355 401
#
# _framework density 21.640574000000001
#
# number of rings (size 3 to 8) (size 9 to 14) (size 15 to 20)
#    0.000    0.857    7.143    1.714    4.000    3.429 
#    0.000    0.714    3.143    0.000    0.000    0.000 
#    0.000    0.000    0.000    0.000    0.000    0.000 
#
# Total GULP energy -156518.505880 kJ/mol
# GULP energy per Si atom -5589.946639 kJ/mol
# Density = 2.159132 g / cm^3
# Si number density = 21.640574 Si / 1000 Ang^3
#
#
#
# Elastic Constant Matrix: (Units=GPa)
#
#
# Indices 1 2 3 4 5 6 
#
# 1 123.8317 1.6669 21.8418 0.0000 -12.3122 0.0000
# 2 1.6669 40.0125 -9.8901 0.0000 -8.6180 0.0000
# 3 21.8418 -9.8901 73.2747 0.0000 -2.6541 0.0000
# 4 0.0000 0.0000 0.0000 13.3159 0.0000 8.3834
# 5 -12.3122 -8.6180 -2.6541 0.0000 38.5661 0.0000
# 6 0.0000 0.0000 0.0000 8.3834 0.0000 4.1915
#
#
#
# Elastic Compliance Matrix: (Units=1/GPa)
#
#
# Indices 1 2 3 4 5 6 
#
# 1 0.008790 -0.000463 -0.002591 0.000000 0.002524 0.000000
# 2 -0.000463 0.027359 0.004057 0.000000 0.006245 0.000000
# 3 -0.002591 0.004057 0.015007 0.000000 0.001112 0.000000
# 4 0.000000 0.000000 0.000000 -0.289724 0.000000 0.579473
# 5 0.002524 0.006245 0.001112 0.000000 0.028207 0.000000
# 6 0.000000 0.000000 0.000000 0.579473 0.000000 -0.920417
#
#
# Mechanical properties :
#
#
# Convention : Reuss Voigt Hill
#
# Bulk Modulus (GPa) = 18.81029 29.37291 24.09160
# Shear Modulus (GPa) = -4.48405 26.11473 10.81534
#
# Velocity S-wave (km/s) = -1.44103 3.47760 2.23798
# Velocity P-wave (km/s) = 2.43768 5.45229 4.22313
#
# Compressibility (1/GPa) = 0.05316241
#
# Stress axis : x y z
#
# Youngs Moduli (GPa) = 113.76926 36.55060 66.63337
#
# Poissons Ratio (x) = 0.01692 0.17265
# Poissons Ratio (y) = 0.05267 -0.27033
# Poissons Ratio (z) = 0.29479 -0.14828
#
# Static dielectric constant tensor:
#      x y z
#    x 1.821420 0.000000 -0.022730 
#    y 0.000000 1.784470 0.000000 
#    z -0.022730 0.000000 1.823620 
# 
# From -- ./inp_files/225742.got.cif
#   From: 2010.05.17/outbox.cif.g08.bks.cpg/sg15_113_cif.got.tgz:225742.got - 2010.06.03 18:47:42.
