data_PCOD9272686
_publ_section_title
;
Structure prediction by ZEFSAII (Michael W. Deem and Ramdas Pophale) SiO2 
 PCOD9272686
Probable space group: C 2/C
;
_chemical_formula_sum "Si O2"
_cell_formula_units_Z 60
_cell_length_a 20.177721
_cell_length_b 23.822746
_cell_length_c 13.426924
_cell_angle_alpha 90.000000
_cell_angle_beta 21.363095
_cell_angle_gamma 90.000000
_cell_volume 2351.106046
_symmetry_space_group_name_H-M "C 2/C"
_symmetry_group_IT_number 15
_symmetry_cell_setting 'monoclinic'
loop_
_space_group_symop_operation_xyz
x,y,z
-x,y,1/2-z
-x,-y,-z
x,-y,1/2+z
1/2+x,1/2+y,z
1/2-x,1/2+y,1/2-z
1/2-x,1/2-y,-z
1/2+x,1/2-y,1/2+z
loop_
_atom_site_type_symbol
_atom_site_label
_atom_site_fract_x
_atom_site_fract_y
_atom_site_fract_z
Si Si1 0.894695 0.148398 0.252733
Si Si2 0.000000 0.042394 0.750000
Si Si3 0.536169 0.237480 0.509343
Si Si4 0.762623 0.924766 0.765730
Si Si5 0.299947 0.878833 0.123418
Si Si6 0.286813 0.018942 0.515947
Si Si7 0.894986 0.610354 0.695883
Si Si8 0.433526 0.246672 0.446293
O O1 0.792112 0.127787 0.297452
O O2 0.794783 0.115444 0.480723
O O3 0.916510 0.215662 0.231954
O O4 0.100978 0.131142 0.945981
O O5 0.832846 0.012733 0.919098
O O6 0.111602 0.075429 0.508083
O O7 0.453344 0.176040 0.618889
O O8 0.567454 0.257025 0.350419
O O9 0.740615 0.234301 0.261056
O O10 0.807336 0.978872 0.770322
O O11 0.551618 0.923652 0.030864
O O12 0.277763 0.915062 0.056400
O O13 0.393480 0.910813 0.084741
O O14 0.399777 0.819585 0.975909
O O15 0.500000 0.008329 0.250000
O O16 0.500000 0.272675 0.250000
#
# Coordination Sequence:
#
# PCOD9272686 Si02
#       8
#     8   4   8   8   8   8   8   8
#     4  11  22  43  67 101 142 183 239 300 350 438
#     4  12  28  50  76 104 152 198 232 306 374 428
#     4  10  22  39  62  99 135 183 241 288 368 422
#     4  12  27  48  70 109 141 186 243 296 361 435
#     4  10  23  41  66 101 137 181 240 285 367 430
#     4  12  26  50  76 109 147 190 243 304 360 441
#     4  11  23  43  70 102 139 189 237 301 365 424
#     4  10  20  37  59  90 134 184 234 293 349 434
#
# _framework density 25.519905000000001
#
# number of rings (size 3 to 8) (size 9 to 14) (size 15 to 20)
#    0.000    1.067    1.333    4.800    0.000    4.267 
#    4.800    4.000    0.000    0.000    0.000    0.000 
#    0.000    0.000    0.000    0.000    0.000    0.000 
#
# Total GULP energy -167507.855551 kJ/mol
# GULP energy per Si atom -5583.595185 kJ/mol
# Density = 2.546182 g / cm^3
# Si number density = 25.519905 Si / 1000 Ang^3
#
#
#
# Elastic Constant Matrix: (Units=GPa)
#
#
# Indices 1 2 3 4 5 6 
#
# 1 116.4702 10.3453 27.7177 -0.0258 -21.4492 -0.0057
# 2 10.3453 61.3076 -6.0268 -0.0498 -3.6838 -0.0234
# 3 27.7177 -6.0268 102.1363 -0.0152 -4.4511 -0.0289
# 4 -0.0258 -0.0498 -0.0152 -12.6656 0.0145 7.3836
# 5 -21.4492 -3.6838 -4.4511 0.0145 47.9224 0.0053
# 6 -0.0057 -0.0234 -0.0289 7.3836 0.0053 36.1815
#
#
#
# Elastic Compliance Matrix: (Units=1/GPa)
#
#
# Indices 1 2 3 4 5 6 
#
# 1 0.010141 -0.001724 -0.002673 -0.000006 0.004158 -0.000001
# 2 -0.001724 0.016788 0.001487 -0.000051 0.000657 0.000022
# 3 -0.002673 0.001487 0.010600 -0.000007 -0.000097 0.000010
# 4 -0.000006 -0.000051 -0.000007 -0.070560 0.000012 0.014399
# 5 0.004158 0.000657 -0.000097 0.000012 0.022770 -0.000005
# 6 -0.000001 0.000022 0.000010 0.014399 -0.000005 0.024700
#
#
# Mechanical properties :
#
#
# Convention : Reuss Voigt Hill
#
# Bulk Modulus (GPa) = 31.53663 38.22073 34.87868
# Shear Modulus (GPa) = 162.19667 30.81287 96.50477
#
# Velocity S-wave (km/s) = 7.98091 3.47854 6.15610
# Velocity P-wave (km/s) = 9.86463 5.58059 8.01418
#
# Compressibility (1/GPa) = 0.03170916
#
# Stress axis : x y z
#
# Youngs Moduli (GPa) = 98.61168 59.56726 94.34309
#
# Poissons Ratio (x) = 0.10270 0.25213
# Poissons Ratio (y) = 0.17001 -0.14030
# Poissons Ratio (z) = 0.26354 -0.08858
#
# Static dielectric constant tensor:
#      x y z
#    x 2.045080 0.000010 0.012230 
#    y 0.000010 2.003460 0.000060 
#    z 0.012230 0.000060 2.010880 
# 
# From -- ./inp_files/169936.got.cif
#   From: 2010.05.17/outbox.cif.g08.bks.cpg/sg15_85_cif.got.tgz:169936.got - 2010.06.03 18:47:42.
