data_PCOD9272896
_publ_section_title
;
Structure prediction by ZEFSAII (Michael W. Deem and Ramdas Pophale) SiO2 
 PCOD9272896
Probable space group: C 2/C
;
_chemical_formula_sum "Si O2"
_cell_formula_units_Z 48
_cell_length_a 15.319729
_cell_length_b 25.883467
_cell_length_c 9.188777
_cell_angle_alpha 90.000000
_cell_angle_beta 38.421151
_cell_angle_gamma 90.000000
_cell_volume 2264.270871
_symmetry_space_group_name_H-M "C 2/C"
_symmetry_group_IT_number 15
_symmetry_cell_setting 'monoclinic'
loop_
_space_group_symop_operation_xyz
x,y,z
-x,y,1/2-z
-x,-y,-z
x,-y,1/2+z
1/2+x,1/2+y,z
1/2-x,1/2+y,1/2-z
1/2-x,1/2-y,-z
1/2+x,1/2-y,1/2+z
loop_
_atom_site_type_symbol
_atom_site_label
_atom_site_fract_x
_atom_site_fract_y
_atom_site_fract_z
Si Si1 0.111033 0.529681 0.982573
Si Si2 0.709821 0.519123 0.482116
Si Si3 0.000000 0.075533 0.250000
Si Si4 0.595300 0.759849 0.770300
Si Si5 0.000000 0.897870 0.250000
Si Si6 0.120310 0.156689 0.864354
Si Si7 0.054594 0.359488 0.515376
O O1 0.163630 0.490043 0.794251
O O2 0.067808 0.581235 0.950550
O O3 0.243360 0.539534 0.920090
O O4 0.000000 0.512566 0.250000
O O5 0.628288 0.464718 0.608150
O O6 0.609669 0.561528 0.538435
O O7 0.956539 0.114922 0.434400
O O8 0.500000 0.756172 0.750000
O O9 0.750000 0.750000 0.500000
O O10 0.565654 0.715324 0.926651
O O11 0.553681 0.815453 0.895039
O O12 0.088783 0.863151 0.242801
O O13 0.284743 0.159642 0.690386
O O14 0.000000 0.368453 0.750000
#
# Coordination Sequence:
#
# PCOD9272896 Si02
#       7
#     8   8   4   8   4   8   8
#     4  11  22  37  61  90 121 164 200 255 309 374
#     4  11  21  40  60  89 126 164 207 246 309 371
#     4  11  24  38  60  88 134 164 200 253 312 378
#     4  11  21  37  66  94 115 156 214 268 309 362
#     4  11  22  34  64  94 120 160 216 253 294 380
#     4  12  21  39  60  94 121 164 205 261 312 364
#     4  10  20  37  61  87 121 153 205 254 309 354
#
# _framework density 21.198875999999998
#
# number of rings (size 3 to 8) (size 9 to 14) (size 15 to 20)
#    0.000    1.000    7.500    1.500    0.000    2.667 
#    0.000    0.833    0.000    0.000    0.000    0.000 
#    0.000    0.000    0.000    0.000    0.000    0.000 
#
# Total GULP energy -133674.320967 kJ/mol
# GULP energy per Si atom -5569.763374 kJ/mol
# Density = 2.115063 g / cm^3
# Si number density = 21.198876 Si / 1000 Ang^3
#
#
#
# Elastic Constant Matrix: (Units=GPa)
#
#
# Indices 1 2 3 4 5 6 
#
# 1 55.6312 22.3345 19.3468 0.0000 -13.9967 0.0000
# 2 22.3345 133.9307 41.9558 0.0000 -14.4238 0.0000
# 3 19.3468 41.9558 74.4747 0.0000 -14.6882 0.0000
# 4 0.0000 0.0000 0.0000 23.1772 0.0000 -11.5100
# 5 -13.9967 -14.4238 -14.6882 0.0000 22.7755 0.0000
# 6 0.0000 0.0000 0.0000 -11.5100 0.0000 32.1447
#
#
#
# Elastic Compliance Matrix: (Units=1/GPa)
#
#
# Indices 1 2 3 4 5 6 
#
# 1 0.022343 -0.001708 -0.002689 0.000000 0.010915 0.000000
# 2 -0.001708 0.009356 -0.004429 0.000000 0.002019 0.000000
# 3 -0.002689 -0.004429 0.018036 0.000000 0.007174 0.000000
# 4 0.000000 0.000000 0.000000 0.052477 0.000000 0.018790
# 5 0.010915 0.002019 0.007174 0.000000 0.056520 0.000000
# 6 0.000000 0.000000 0.000000 0.018790 0.000000 0.037838
#
#
# Mechanical properties :
#
#
# Convention : Reuss Voigt Hill
#
# Bulk Modulus (GPa) = 31.16968 47.92344 39.54656
# Shear Modulus (GPa) = 22.23049 27.64611 24.93830
#
# Velocity S-wave (km/s) = 3.24182 3.61519 3.43359
# Velocity P-wave (km/s) = 5.36171 6.33102 5.86642
#
# Compressibility (1/GPa) = 0.03208246
#
# Stress axis : x y z
#
# Youngs Moduli (GPa) = 44.75759 106.87995 55.44480
#
# Poissons Ratio (x) = 0.18255 0.14911
# Poissons Ratio (y) = 0.07644 0.24556
# Poissons Ratio (z) = 0.12036 0.47337
#
# Static dielectric constant tensor:
#      x y z
#    x 1.905170 0.000000 -0.096960 
#    y 0.000000 1.871830 0.000000 
#    z -0.096960 0.000000 1.796620 
# 
# From -- ./inp_files/44458.got.cif
#   From: 2010.05.17/outbox.cif.g08.bks.cpg/sg15_23_cif.got.tgz:44458.got - 2010.06.03 18:47:42.
