data_PCOD9272112
_publ_section_title
;
Structure prediction by ZEFSAII (Michael W. Deem and Ramdas Pophale) SiO2 
 PCOD9272112
Probable space group: C 2/C
;
_chemical_formula_sum "Si O2"
_cell_formula_units_Z 60
_cell_length_a 21.316749
_cell_length_b 18.472719
_cell_length_c 8.576436
_cell_angle_alpha 90.000000
_cell_angle_beta 114.438633
_cell_angle_gamma 90.000000
_cell_volume 3074.632668
_symmetry_space_group_name_H-M "C 2/C"
_symmetry_group_IT_number 15
_symmetry_cell_setting 'monoclinic'
loop_
_space_group_symop_operation_xyz
x,y,z
-x,y,1/2-z
-x,-y,-z
x,-y,1/2+z
1/2+x,1/2+y,z
1/2-x,1/2+y,1/2-z
1/2-x,1/2-y,-z
1/2+x,1/2-y,1/2+z
loop_
_atom_site_type_symbol
_atom_site_label
_atom_site_fract_x
_atom_site_fract_y
_atom_site_fract_z
Si Si1 0.000000 0.999206 0.250000
Si Si2 0.198653 0.802928 0.727380
Si Si3 0.903474 0.929099 0.902182
Si Si4 0.572576 0.086496 0.763987
Si Si5 0.737472 0.480940 0.272502
Si Si6 0.572272 0.922292 0.889051
Si Si7 0.209936 0.401469 0.872124
Si Si8 0.285890 0.152418 0.617766
O O1 0.053578 0.949334 0.399939
O O2 0.955215 0.049892 0.317118
O O3 0.127902 0.848270 0.637506
O O4 0.247480 0.832487 0.640220
O O5 0.198242 0.716916 0.744063
O O6 0.233875 0.826076 0.927505
O O7 0.836837 0.981936 0.820576
O O8 0.500000 0.117302 0.750000
O O9 0.573270 0.081511 0.576573
O O10 0.640210 0.131036 0.876788
O O11 0.577522 0.006154 0.840927
O O12 0.750092 0.448620 0.456051
O O13 0.791137 0.543686 0.276639
O O14 0.752278 0.414714 0.172647
O O15 0.500000 0.894065 0.750000
O O16 0.636588 0.884835 0.871272
#
# Coordination Sequence:
#
# PCOD9272112 Si02
#       8
#     4   8   8   8   8   8   8   8
#     4  10  20  36  64  88 116 146 192 252 308 368
#     4  10  24  38  61  85 121 156 203 250 302 362
#     4  10  20  37  60  92 115 148 196 250 306 361
#     4  11  23  36  57  87 121 156 198 242 294 356
#     4  11  20  35  62  88 116 148 198 253 307 353
#     4  11  21  34  57  88 117 153 195 240 295 344
#     4  11  20  35  58  89 117 156 196 256 297 350
#     4  11  22  40  58  87 118 163 204 245 301 360
#
# _framework density 19.514526
#
# number of rings (size 3 to 8) (size 9 to 14) (size 15 to 20)
#    0.000    1.333    2.667    5.600    3.733    0.533 
#    1.200    0.000    1.467    0.000    0.000    0.000 
#    0.000    0.000    0.000    0.000    0.000    0.000 
#
# Total GULP energy -167586.048610 kJ/mol
# GULP energy per Si atom -5586.201620 kJ/mol
# Density = 1.947011 g / cm^3
# Si number density = 19.514526 Si / 1000 Ang^3
#
#
#
# Elastic Constant Matrix: (Units=GPa)
#
#
# Indices 1 2 3 4 5 6 
#
# 1 110.9653 30.1507 27.1013 0.0000 -4.0159 0.0000
# 2 30.1507 52.8453 7.2803 0.0000 -4.3488 0.0000
# 3 27.1013 7.2803 70.1249 0.0000 7.2238 0.0000
# 4 0.0000 0.0000 0.0000 27.9681 0.0000 -5.0696
# 5 -4.0159 -4.3488 7.2238 0.0000 31.5390 0.0000
# 6 0.0000 0.0000 0.0000 -5.0696 0.0000 15.3313
#
#
#
# Elastic Compliance Matrix: (Units=1/GPa)
#
#
# Indices 1 2 3 4 5 6 
#
# 1 0.011685 -0.005976 -0.004060 0.000000 0.001594 0.000000
# 2 -0.005976 0.022571 -0.000282 0.000000 0.002416 0.000000
# 3 -0.004060 -0.000282 0.016300 0.000000 -0.004289 0.000000
# 4 0.000000 0.000000 0.000000 0.038035 0.000000 0.012577
# 5 0.001594 0.002416 -0.004289 0.000000 0.033225 0.000000
# 6 0.000000 0.000000 0.000000 0.012577 0.000000 0.069385
#
#
# Mechanical properties :
#
#
# Convention : Reuss Voigt Hill
#
# Bulk Modulus (GPa) = 33.42342 40.33336 36.87839
# Shear Modulus (GPa) = 22.54174 26.26120 24.40147
#
# Velocity S-wave (km/s) = 3.40240 3.67239 3.53997
# Velocity P-wave (km/s) = 5.70962 6.22055 5.97055
#
# Compressibility (1/GPa) = 0.02991914
#
# Stress axis : x y z
#
# Youngs Moduli (GPa) = 85.58114 44.30534 61.34837
#
# Poissons Ratio (x) = 0.26478 0.24905
# Poissons Ratio (y) = 0.51146 0.01733
# Poissons Ratio (z) = 0.34742 0.01251
#
# Static dielectric constant tensor:
#      x y z
#    x 1.696410 0.000000 0.003530 
#    y 0.000000 1.698660 0.000000 
#    z 0.003530 0.000000 1.725070 
# 
# From -- ./inp_files/56675.got.cif
#   From: 2010.05.17/outbox.cif.g08.bks.cpg/sg15_29_cif.got.tgz:56675.got - 2010.06.03 18:47:42.
