data_PCOD9272982
_publ_section_title
;
Structure prediction by ZEFSAII (Michael W. Deem and Ramdas Pophale) SiO2 
 PCOD9272982
Probable space group: C 2/C
;
_chemical_formula_sum "Si O2"
_cell_formula_units_Z 52
_cell_length_a 8.388482
_cell_length_b 11.756769
_cell_length_c 23.354520
_cell_angle_alpha 90.000000
_cell_angle_beta 67.878129
_cell_angle_gamma 90.000000
_cell_volume 2133.702171
_symmetry_space_group_name_H-M "C 2/C"
_symmetry_group_IT_number 15
_symmetry_cell_setting 'monoclinic'
loop_
_space_group_symop_operation_xyz
x,y,z
-x,y,1/2-z
-x,-y,-z
x,-y,1/2+z
1/2+x,1/2+y,z
1/2-x,1/2+y,1/2-z
1/2-x,1/2-y,-z
1/2+x,1/2-y,1/2+z
loop_
_atom_site_type_symbol
_atom_site_label
_atom_site_fract_x
_atom_site_fract_y
_atom_site_fract_z
Si Si1 0.892640 0.702451 0.357122
Si Si2 0.950870 0.138461 0.951291
Si Si3 0.500000 0.780077 0.250000
Si Si4 0.707044 0.370404 0.212816
Si Si5 0.239745 0.619359 0.343729
Si Si6 0.224386 0.485466 0.057228
Si Si7 0.604659 0.172881 0.489901
O O1 0.777352 0.749891 0.322414
O O2 0.825955 0.589466 0.396683
O O3 0.900278 0.810037 0.398558
O O4 0.092609 0.671239 0.321572
O O5 0.947577 0.243978 0.996497
O O6 0.148744 0.096297 0.924748
O O7 0.838255 0.036441 0.989921
O O8 0.349043 0.858453 0.243520
O O9 0.407586 0.695505 0.308242
O O10 0.500000 0.375537 0.250000
O O11 0.742303 0.487628 0.174471
O O12 0.173851 0.634199 0.418232
O O13 0.074998 0.421366 0.042551
O O14 0.750000 0.250000 0.500000
#
# Coordination Sequence:
#
# PCOD9272982 Si02
#       7
#     8   8   4   8   8   8   8
#     4  11  24  41  68 103 142 181 240 294 357 429
#     4   9  20  36  59  95 144 186 229 279 350 424
#     4  12  28  50  78 104 142 194 250 302 376 420
#     4  12  27  49  75 105 141 189 251 306 362 434
#     4  11  25  47  73 106 146 196 240 307 364 430
#     4  10  20  37  62 102 140 191 226 281 352 431
#     4   9  20  39  67 102 147 185 239 286 361 437
#
# _framework density 24.370787
#
# number of rings (size 3 to 8) (size 9 to 14) (size 15 to 20)
#    0.000    1.538    2.308    1.385    0.000   13.538 
#    0.000    0.000    0.000    0.000    0.000    0.000 
#    0.000    0.000    0.000    0.000    0.000    0.000 
#
# Total GULP energy -145301.335127 kJ/mol
# GULP energy per Si atom -5588.512889 kJ/mol
# Density = 2.431532 g / cm^3
# Si number density = 24.370787 Si / 1000 Ang^3
#
#
#
# Elastic Constant Matrix: (Units=GPa)
#
#
# Indices 1 2 3 4 5 6 
#
# 1 130.5352 44.0380 28.0165 0.0000 8.0996 0.0000
# 2 44.0380 116.8485 45.0133 0.0000 7.0138 0.0000
# 3 28.0165 45.0133 43.1749 0.0000 2.6142 0.0000
# 4 0.0000 0.0000 0.0000 24.4611 0.0000 -4.3412
# 5 8.0996 7.0138 2.6142 0.0000 30.0000 0.0000
# 6 0.0000 0.0000 0.0000 -4.3412 0.0000 28.7305
#
#
#
# Elastic Compliance Matrix: (Units=1/GPa)
#
#
# Indices 1 2 3 4 5 6 
#
# 1 0.009243 -0.001855 -0.003960 0.000000 -0.001717 0.000000
# 2 -0.001855 0.014802 -0.014124 0.000000 -0.001729 0.000000
# 3 -0.003960 -0.014124 0.040405 0.000000 0.000850 0.000000
# 4 0.000000 0.000000 0.000000 0.042008 0.000000 0.006347
# 5 -0.001717 -0.001729 0.000850 0.000000 0.034127 0.000000
# 6 0.000000 0.000000 0.000000 0.006347 0.000000 0.035765
#
#
# Mechanical properties :
#
#
# Convention : Reuss Voigt Hill
#
# Bulk Modulus (GPa) = 40.69599 58.29934 49.49766
# Shear Modulus (GPa) = 22.27989 28.20438 25.24214
#
# Velocity S-wave (km/s) = 3.02686 3.40561 3.22180
# Velocity P-wave (km/s) = 5.38059 6.27996 5.84760
#
# Compressibility (1/GPa) = 0.02457245
#
# Stress axis : x y z
#
# Youngs Moduli (GPa) = 108.18989 67.55928 24.74953
#
# Poissons Ratio (x) = 0.12532 0.09801
# Poissons Ratio (y) = 0.20069 0.34955
# Poissons Ratio (z) = 0.42842 0.95418
#
# Static dielectric constant tensor:
#      x y z
#    x 1.976960 0.000000 -0.020960 
#    y 0.000000 1.968150 0.000000 
#    z -0.020960 0.000000 2.000850 
# 
# From -- ./inp_files/287911.got.cif
#   From: 2010.05.17/outbox.cif.g08.bks.cpg/sg15_144_cif.got.tgz:287911.got - 2010.06.03 18:47:42.
