data_PCOD9272681
_publ_section_title
;
Structure prediction by ZEFSAII (Michael W. Deem and Ramdas Pophale) SiO2 
 PCOD9272681
Probable space group: C 2/C
;
_chemical_formula_sum "Si O2"
_cell_formula_units_Z 32
_cell_length_a 13.109322
_cell_length_b 7.130355
_cell_length_c 17.884886
_cell_angle_alpha 90.000000
_cell_angle_beta 51.354138
_cell_angle_gamma 90.000000
_cell_volume 1305.690317
_symmetry_space_group_name_H-M "C 2/C"
_symmetry_group_IT_number 15
_symmetry_cell_setting 'monoclinic'
loop_
_space_group_symop_operation_xyz
x,y,z
-x,y,1/2-z
-x,-y,-z
x,-y,1/2+z
1/2+x,1/2+y,z
1/2-x,1/2+y,1/2-z
1/2-x,1/2-y,-z
1/2+x,1/2-y,1/2+z
loop_
_atom_site_type_symbol
_atom_site_label
_atom_site_fract_x
_atom_site_fract_y
_atom_site_fract_z
Si Si1 0.546863 0.761247 0.564379
Si Si2 0.676724 0.770785 0.728863
Si Si3 0.709863 0.507666 0.085686
Si Si4 0.281100 0.646953 0.630158
O O1 0.462344 0.833952 0.674153
O O2 0.622820 0.578716 0.560070
O O3 0.646227 0.918587 0.492024
O O4 0.434940 0.697156 0.558289
O O5 0.662720 0.589003 0.684309
O O6 0.754954 0.717527 0.768630
O O7 0.745760 0.930345 0.649173
O O8 0.711520 0.727891 0.100036
#
# Coordination Sequence:
#
# PCOD9272681 Si02
#       4
#     8   8   8   8
#     4   9  22  39  61  89 126 164 201 267 306 365
#     4  10  20  37  59  90 121 161 210 250 310 376
#     4  11  20  41  63  88 126 161 210 259 311 369
#     4  10  20  37  61  88 122 166 198 254 317 363
#
# _framework density 24.508109999999999
#
# number of rings (size 3 to 8) (size 9 to 14) (size 15 to 20)
#    1.500    0.500    2.500    1.500    0.000    1.000 
#    0.000   20.000    0.000    0.000    0.000    0.000 
#    0.000    0.000    0.000    0.000    0.000    0.000 
#
# Total GULP energy -89430.341047 kJ/mol
# GULP energy per Si atom -5589.396315 kJ/mol
# Density = 2.445233 g / cm^3
# Si number density = 24.508110 Si / 1000 Ang^3
#
#
#
# Elastic Constant Matrix: (Units=GPa)
#
#
# Indices 1 2 3 4 5 6 
#
# 1 55.9159 28.9441 1.3975 0.0000 4.4637 0.0000
# 2 28.9441 73.3311 -14.6982 0.0000 12.6207 0.0001
# 3 1.3975 -14.6982 85.9422 0.0000 4.9662 0.0000
# 4 0.0000 0.0000 0.0000 26.3408 0.0000 13.9444
# 5 4.4637 12.6207 4.9662 0.0000 37.9397 0.0000
# 6 0.0000 0.0001 0.0000 13.9444 0.0000 28.7734
#
#
#
# Elastic Compliance Matrix: (Units=1/GPa)
#
#
# Indices 1 2 3 4 5 6 
#
# 1 0.022816 -0.009547 -0.002048 0.000000 0.000759 0.000000
# 2 -0.009547 0.019146 0.003761 0.000000 -0.005738 0.000000
# 3 -0.002048 0.003761 0.012465 0.000000 -0.002642 0.000000
# 4 0.000000 0.000000 0.000000 0.051065 0.000000 -0.024747
# 5 0.000759 -0.005738 -0.002642 0.000000 0.028523 0.000000
# 6 0.000000 0.000000 0.000000 -0.024747 0.000000 0.046747
#
#
# Mechanical properties :
#
#
# Convention : Reuss Voigt Hill
#
# Bulk Modulus (GPa) = 25.79878 27.38621 26.59250
# Shear Modulus (GPa) = 23.88347 31.91384 27.89865
#
# Velocity S-wave (km/s) = 3.12511 3.61248 3.37760
# Velocity P-wave (km/s) = 4.85502 5.34777 5.10734
#
# Compressibility (1/GPa) = 0.03876152
#
# Stress axis : x y z
#
# Youngs Moduli (GPa) = 43.82818 52.22898 80.22481
#
# Poissons Ratio (x) = 0.49862 0.16427
# Poissons Ratio (y) = 0.41842 -0.30175
# Poissons Ratio (z) = 0.08974 -0.19645
#
# Static dielectric constant tensor:
#      x y z
#    x 1.941430 0.000000 0.005770 
#    y 0.000000 1.871680 0.000000 
#    z 0.005770 0.000000 1.983410 
# 
# From -- ./inp_files/149894.got.cif
#   From: 2010.05.17/outbox.cif.g08.bks.cpg/sg15_75_cif.got.tgz:149894.got - 2010.06.03 18:47:42.
