data_PCOD9272349
_publ_section_title
;
Structure prediction by ZEFSAII (Michael W. Deem and Ramdas Pophale) SiO2 
 PCOD9272349
Probable space group: C 2/C
;
_chemical_formula_sum "Si O2"
_cell_formula_units_Z 44
_cell_length_a 13.330063
_cell_length_b 16.612850
_cell_length_c 9.661190
_cell_angle_alpha 90.000000
_cell_angle_beta 121.545680
_cell_angle_gamma 90.000000
_cell_volume 1823.309456
_symmetry_space_group_name_H-M "C 2/C"
_symmetry_group_IT_number 15
_symmetry_cell_setting 'monoclinic'
loop_
_space_group_symop_operation_xyz
x,y,z
-x,y,1/2-z
-x,-y,-z
x,-y,1/2+z
1/2+x,1/2+y,z
1/2-x,1/2+y,1/2-z
1/2-x,1/2-y,-z
1/2+x,1/2-y,1/2+z
loop_
_atom_site_type_symbol
_atom_site_label
_atom_site_fract_x
_atom_site_fract_y
_atom_site_fract_z
Si Si1 0.330112 0.020816 0.052349
Si Si2 0.784736 0.719061 0.674879
Si Si3 0.000000 0.389902 0.250000
Si Si4 0.500000 0.843857 0.750000
Si Si5 0.863273 0.783246 0.000256
Si Si6 0.000000 0.922582 0.250000
Si Si7 0.187245 0.939933 0.184669
O O1 0.390264 0.094957 0.177033
O O2 0.426464 0.950678 0.101108
O O3 0.227450 0.983532 0.074157
O O4 0.287509 0.047436 0.872284
O O5 0.750000 0.750000 0.500000
O O6 0.819060 0.786451 0.811031
O O7 0.685080 0.656139 0.654369
O O8 0.902066 0.665292 0.747510
O O9 0.466246 0.783290 0.601100
O O10 0.750000 0.750000 0.000000
O O11 0.909076 0.864251 0.103188
O O12 0.071479 0.968028 0.182531
#
# Coordination Sequence:
#
# PCOD9272349 Si02
#       7
#     8   8   4   4   8   4   8
#     4  10  22  43  71  99 137 173 238 284 337 407
#     4  11  24  42  65 104 142 173 229 287 350 406
#     4   9  24  39  68 101 134 179 218 286 342 397
#     4  10  20  36  74  98 130 182 230 286 342 404
#     4  11  22  41  68  99 136 183 227 287 343 422
#     4  11  24  43  70  97 138 181 240 276 364 405
#     4  11  24  46  65 103 134 182 232 287 340 415
#
# _framework density 24.131943
#
# number of rings (size 3 to 8) (size 9 to 14) (size 15 to 20)
#    0.000    1.455    3.636    0.000    5.091    2.909 
#    9.818    0.000    0.000    0.000    0.000    0.000 
#    0.000    0.000    0.000    0.000    0.000    0.000 
#
# Total GULP energy -123036.756047 kJ/mol
# GULP energy per Si atom -5592.579820 kJ/mol
# Density = 2.407702 g / cm^3
# Si number density = 24.131943 Si / 1000 Ang^3
#
#
#
# Elastic Constant Matrix: (Units=GPa)
#
#
# Indices 1 2 3 4 5 6 
#
# 1 84.9051 12.3470 13.8881 0.0000 -4.8078 0.0000
# 2 12.3470 59.4378 33.9974 0.0000 -2.3078 0.0000
# 3 13.8881 33.9974 173.5757 0.0000 -20.6764 0.0000
# 4 0.0000 0.0000 0.0000 38.3097 0.0000 2.5254
# 5 -4.8078 -2.3078 -20.6764 0.0000 27.3815 0.0000
# 6 0.0000 0.0000 0.0000 2.5254 0.0000 36.2715
#
#
#
# Elastic Compliance Matrix: (Units=1/GPa)
#
#
# Indices 1 2 3 4 5 6 
#
# 1 0.012262 -0.002293 -0.000328 0.000000 0.001712 0.000000
# 2 -0.002293 0.019420 -0.003816 0.000000 -0.001648 0.000000
# 3 -0.000328 -0.003816 0.007131 0.000000 0.005006 0.000000
# 4 0.000000 0.000000 0.000000 0.026223 0.000000 -0.001826
# 5 0.001712 -0.001648 0.005006 0.000000 0.040463 0.000000
# 6 0.000000 0.000000 0.000000 -0.001826 0.000000 0.027697
#
#
# Mechanical properties :
#
#
# Convention : Reuss Voigt Hill
#
# Bulk Modulus (GPa) = 38.55394 48.70928 43.63161
# Shear Modulus (GPa) = 32.31715 37.57162 34.94439
#
# Velocity S-wave (km/s) = 3.66346 3.95007 3.80946
# Velocity P-wave (km/s) = 5.82285 6.40566 6.12119
#
# Compressibility (1/GPa) = 0.02593769
#
# Stress axis : x y z
#
# Youngs Moduli (GPa) = 81.55330 51.49436 140.22879
#
# Poissons Ratio (x) = 0.11808 0.04600
# Poissons Ratio (y) = 0.18701 0.53517
# Poissons Ratio (z) = 0.02675 0.19652
#
# Static dielectric constant tensor:
#      x y z
#    x 2.001240 0.000000 0.050210 
#    y 0.000000 1.935030 0.000000 
#    z 0.050210 0.000000 1.873820 
# 
# From -- ./inp_files/39781.got.cif
#   From: 2010.05.17/outbox.cif.g08.bks.cpg/sg15_20_cif.got.tgz:39781.got - 2010.06.03 18:47:42.
