data_PCOD9272066
_publ_section_title
;
Structure prediction by ZEFSAII (Michael W. Deem and Ramdas Pophale) SiO2 
 PCOD9272066
Probable space group: C 2/C
;
_chemical_formula_sum "Si O2"
_cell_formula_units_Z 64
_cell_length_a 18.000689
_cell_length_b 19.096953
_cell_length_c 12.503913
_cell_angle_alpha 90.000000
_cell_angle_beta 127.000548
_cell_angle_gamma 90.000000
_cell_volume 3432.769458
_symmetry_space_group_name_H-M "C 2/C"
_symmetry_group_IT_number 15
_symmetry_cell_setting 'monoclinic'
loop_
_space_group_symop_operation_xyz
x,y,z
-x,y,1/2-z
-x,-y,-z
x,-y,1/2+z
1/2+x,1/2+y,z
1/2-x,1/2+y,1/2-z
1/2-x,1/2-y,-z
1/2+x,1/2-y,1/2+z
loop_
_atom_site_type_symbol
_atom_site_label
_atom_site_fract_x
_atom_site_fract_y
_atom_site_fract_z
Si Si1 0.804385 0.164404 0.938726
Si Si2 0.797443 0.187875 0.181213
Si Si3 0.243764 0.360300 0.976758
Si Si4 0.514781 0.852179 0.002547
Si Si5 0.407523 0.254728 0.106867
Si Si6 0.500941 0.274979 0.878121
Si Si7 0.709059 0.074629 0.679093
Si Si8 0.821410 0.419077 0.786807
O O1 0.742475 0.233531 0.862569
O O2 0.767304 0.104111 0.829666
O O3 0.799534 0.155260 0.063154
O O4 0.910971 0.182664 0.003024
O O5 0.900276 0.194593 0.319858
O O6 0.731793 0.143217 0.199429
O O7 0.162020 0.301364 0.896828
O O8 0.215474 0.418719 0.866589
O O9 0.339802 0.320829 0.031253
O O10 0.243821 0.391106 0.097297
O O11 0.550777 0.791206 0.953840
O O12 0.430166 0.898430 0.885632
O O13 0.485336 0.805839 0.078178
O O14 0.603516 0.899174 0.102830
O O15 0.500000 0.276081 0.250000
O O16 0.500000 0.278840 0.750000
O O17 0.704084 0.991141 0.677369
#
# Coordination Sequence:
#
# PCOD9272066 Si02
#       8
#     8   8   8   8   8   8   8   8
#     4  10  21  39  63  90 122 161 204 255 304 356
#     4  10  21  38  65  92 118 161 208 256 302 357
#     4  10  24  40  61  93 118 166 210 246 318 366
#     4  11  21  37  62  95 122 157 201 252 316 362
#     4  10  20  37  66  91 120 149 204 269 295 359
#     4  10  20  36  63  96 118 148 207 260 298 352
#     4  11  26  40  61  88 132 165 203 250 311 381
#     4  12  24  41  62  89 129 169 198 253 313 384
#
# _framework density 18.643839
#
# number of rings (size 3 to 8) (size 9 to 14) (size 15 to 20)
#    0.000    1.500    3.750    1.125    7.000    0.000 
#    0.000    0.625    0.000    0.000    0.000    0.000 
#    0.000    0.000    0.000    0.000    0.000    0.000 
#
# Total GULP energy -178510.877966 kJ/mol
# GULP energy per Si atom -5578.464936 kJ/mol
# Density = 1.860140 g / cm^3
# Si number density = 18.643839 Si / 1000 Ang^3
#
#
#
# Elastic Constant Matrix: (Units=GPa)
#
#
# Indices 1 2 3 4 5 6 
#
# 1 61.3157 9.6550 32.1791 0.0000 18.6884 0.0000
# 2 9.6550 43.9263 10.1204 0.0000 -2.0354 0.0000
# 3 32.1791 10.1204 72.5435 0.0000 17.8030 0.0000
# 4 0.0000 0.0000 0.0000 20.6408 0.0000 -2.8483
# 5 18.6884 -2.0354 17.8030 0.0000 28.1801 0.0000
# 6 0.0000 0.0000 0.0000 -2.8483 0.0000 15.9562
#
#
#
# Elastic Compliance Matrix: (Units=1/GPa)
#
#
# Indices 1 2 3 4 5 6 
#
# 1 0.024449 -0.004234 -0.007338 0.000000 -0.011884 0.000000
# 2 -0.004234 0.024739 -0.003196 0.000000 0.006614 0.000000
# 3 -0.007338 -0.003196 0.019348 0.000000 -0.007588 0.000000
# 4 0.000000 0.000000 0.000000 0.049671 0.000000 0.008867
# 5 -0.011884 0.006614 -0.007588 0.000000 0.048639 0.000000
# 6 0.000000 0.000000 0.000000 0.008867 0.000000 0.064254
#
#
# Mechanical properties :
#
#
# Convention : Reuss Voigt Hill
#
# Bulk Modulus (GPa) = 25.64155 31.29938 28.47047
# Shear Modulus (GPa) = 18.27244 21.34413 19.80828
#
# Velocity S-wave (km/s) = 3.13402 3.38721 3.26307
# Velocity P-wave (km/s) = 5.18453 5.66764 5.43146
#
# Compressibility (1/GPa) = 0.03899920
#
# Stress axis : x y z
#
# Youngs Moduli (GPa) = 40.90164 40.42212 51.68529
#
# Poissons Ratio (x) = 0.17114 0.37927
# Poissons Ratio (y) = 0.17317 0.16521
# Poissons Ratio (z) = 0.30014 0.12920
#
# Static dielectric constant tensor:
#      x y z
#    x 1.694090 0.000000 -0.022280 
#    y 0.000000 1.630270 0.000000 
#    z -0.022280 0.000000 1.668700 
# 
# From -- ./inp_files/107520.got.cif
#   From: 2010.05.17/outbox.cif.g08.bks.cpg/sg15_54_cif.got.tgz:107520.got - 2010.06.03 18:47:42.
