data_PCOD9272698
_publ_section_title
;
Structure prediction by ZEFSAII (Michael W. Deem and Ramdas Pophale) SiO2 
 PCOD9272698
Probable space group: C 2/C
;
_chemical_formula_sum "Si O2"
_cell_formula_units_Z 44
_cell_length_a 7.932169
_cell_length_b 29.823906
_cell_length_c 8.357832
_cell_angle_alpha 90.000000
_cell_angle_beta 104.530632
_cell_angle_gamma 90.000000
_cell_volume 1913.954438
_symmetry_space_group_name_H-M "C 2/C"
_symmetry_group_IT_number 15
_symmetry_cell_setting 'monoclinic'
loop_
_space_group_symop_operation_xyz
x,y,z
-x,y,1/2-z
-x,-y,-z
x,-y,1/2+z
1/2+x,1/2+y,z
1/2-x,1/2+y,1/2-z
1/2-x,1/2-y,-z
1/2+x,1/2-y,1/2+z
loop_
_atom_site_type_symbol
_atom_site_label
_atom_site_fract_x
_atom_site_fract_y
_atom_site_fract_z
Si Si1 0.500000 0.541125 0.250000
Si Si2 0.529567 0.214649 0.943571
Si Si3 0.433432 0.689382 0.053127
Si Si4 0.948031 0.376997 0.556776
Si Si5 0.110355 0.536824 0.115808
Si Si6 0.446250 0.597271 0.559812
O O1 0.306186 0.520333 0.195603
O O2 0.498130 0.568015 0.417753
O O3 0.500000 0.221557 0.750000
O O4 0.490256 0.264109 0.001941
O O5 0.728998 0.200203 0.021395
O O6 0.426582 0.170668 0.967648
O O7 0.500000 0.679989 0.250000
O O8 0.475250 0.646650 0.955492
O O9 0.762016 0.400177 0.498278
O O10 0.000000 0.364912 0.750000
O O11 0.092744 0.413313 0.532140
O O12 0.000000 0.543950 0.250000
O O13 0.000000 0.500000 0.000000
O O14 0.500000 0.581603 0.750000
#
# Coordination Sequence:
#
# PCOD9272698 Si02
#       6
#     4   8   8   8   8   8
#     4  12  24  52  78 102 160 186 226 314 360 418
#     4  10  21  36  60  91 136 183 241 294 348 420
#     4  10  20  37  59  94 136 189 236 293 357 408
#     4  11  22  43  63  98 143 179 238 298 352 428
#     4  11  26  49  76 110 142 187 238 290 370 440
#     4  12  24  40  73 105 140 194 247 285 360 431
#
# _framework density 22.989052999999998
#
# number of rings (size 3 to 8) (size 9 to 14) (size 15 to 20)
#    0.000    1.091    4.545    3.273    0.000    4.364 
#    1.636    0.000    0.000    0.000    0.000    0.000 
#    0.000    0.000    0.000    0.000    0.000    0.000 
#
# Total GULP energy -122827.659551 kJ/mol
# GULP energy per Si atom -5583.075434 kJ/mol
# Density = 2.293673 g / cm^3
# Si number density = 22.989053 Si / 1000 Ang^3
#
#
#
# Elastic Constant Matrix: (Units=GPa)
#
#
# Indices 1 2 3 4 5 6 
#
# 1 105.6629 4.4868 26.9906 0.0000 29.7497 0.0000
# 2 4.4868 80.7614 13.2974 0.0000 -9.9292 0.0000
# 3 26.9906 13.2974 114.0481 0.0000 11.8332 0.0000
# 4 0.0000 0.0000 0.0000 21.6839 0.0000 21.8594
# 5 29.7497 -9.9292 11.8332 0.0000 28.4221 0.0000
# 6 0.0000 0.0000 0.0000 21.8594 0.0000 20.4648
#
#
#
# Elastic Compliance Matrix: (Units=1/GPa)
#
#
# Indices 1 2 3 4 5 6 
#
# 1 0.014193 -0.002390 -0.001518 0.000000 -0.015059 0.000000
# 2 -0.002390 0.013824 -0.001888 0.000000 0.008117 0.000000
# 3 -0.001518 -0.001888 0.009669 0.000000 -0.003096 0.000000
# 4 0.000000 0.000000 0.000000 -0.600599 0.000000 0.641526
# 5 -0.015059 0.008117 -0.003096 0.000000 0.055071 0.000000
# 6 0.000000 0.000000 0.000000 0.641526 0.000000 -0.636377
#
#
# Mechanical properties :
#
#
# Convention : Reuss Voigt Hill
#
# Bulk Modulus (GPa) = 38.32378 43.33578 40.82978
# Shear Modulus (GPa) = -4.44868 31.16068 13.35600
#
# Velocity S-wave (km/s) = -1.39260 3.68565 2.41295
# Velocity P-wave (km/s) = 3.75777 6.08305 5.05591
#
# Compressibility (1/GPa) = 0.02609346
#
# Stress axis : x y z
#
# Youngs Moduli (GPa) = 70.45604 72.33887 103.42445
#
# Poissons Ratio (x) = 0.17290 0.15698
# Poissons Ratio (y) = 0.16840 0.19530
# Poissons Ratio (z) = 0.10694 0.13660
#
# Static dielectric constant tensor:
#      x y z
#    x 1.885910 0.000000 -0.036950 
#    y 0.000000 2.045660 0.000000 
#    z -0.036950 0.000000 1.840230 
# 
# From -- ./inp_files/25736.got.cif
#   From: 2010.05.17/outbox.cif.g08.bks.cpg/sg15_13_cif.got.tgz:25736.got - 2010.06.03 18:47:42.
