data_PCOD9272858
_publ_section_title
;
Structure prediction by ZEFSAII (Michael W. Deem and Ramdas Pophale) SiO2 
 PCOD9272858
Probable space group: C 2/C
;
_chemical_formula_sum "Si O2"
_cell_formula_units_Z 56
_cell_length_a 10.413317
_cell_length_b 26.153821
_cell_length_c 9.486309
_cell_angle_alpha 90.000000
_cell_angle_beta 99.904554
_cell_angle_gamma 90.000000
_cell_volume 2545.071033
_symmetry_space_group_name_H-M "C 2/C"
_symmetry_group_IT_number 15
_symmetry_cell_setting 'monoclinic'
loop_
_space_group_symop_operation_xyz
x,y,z
-x,y,1/2-z
-x,-y,-z
x,-y,1/2+z
1/2+x,1/2+y,z
1/2-x,1/2+y,1/2-z
1/2-x,1/2-y,-z
1/2+x,1/2-y,1/2+z
loop_
_atom_site_type_symbol
_atom_site_label
_atom_site_fract_x
_atom_site_fract_y
_atom_site_fract_z
Si Si1 0.500000 0.346983 0.750000
Si Si2 0.826945 0.798968 0.466662
Si Si3 0.387959 0.114683 0.626580
Si Si4 0.926860 0.608601 0.104813
Si Si5 0.146667 0.874324 0.500993
Si Si6 0.866187 0.494991 0.062291
Si Si7 0.500000 0.696532 0.750000
Si Si8 0.096042 0.986799 0.393681
O O1 0.413254 0.315596 0.619803
O O2 0.590188 0.376677 0.651056
O O3 0.750000 0.750000 0.500000
O O4 0.736072 0.848377 0.410207
O O5 0.895890 0.779284 0.335376
O O6 0.500000 0.135809 0.750000
O O7 0.463903 0.107554 0.494279
O O8 0.358995 0.054950 0.661403
O O9 0.798901 0.638487 0.035295
O O10 0.000000 0.631558 0.250000
O O11 0.869134 0.551598 0.132489
O O12 0.074372 0.835567 0.384588
O O13 0.127314 0.927237 0.415171
O O14 0.738172 0.488279 0.940118
O O15 0.000000 0.500000 0.000000
O O16 0.000000 0.999271 0.250000
O O17 0.000000 0.000000 0.500000
#
# Coordination Sequence:
#
# PCOD9272858 Si02
#       8
#     4   8   8   8   8   8   4   8
#     4  10  24  44  69  94 134 170 217 280 346 408
#     4  11  26  47  71 102 130 171 226 288 353 426
#     4  11  23  40  69  94 128 172 221 274 338 409
#     4  10  20  37  60  96 133 172 219 263 320 400
#     4  10  21  41  65  95 136 179 220 273 341 403
#     4   9  22  40  61  92 134 179 221 276 332 394
#     4  10  22  46  71  94 136 172 219 286 352 406
#     4  11  25  37  60  97 138 182 238 279 328 406
#
# _framework density 22.003315000000001
#
# number of rings (size 3 to 8) (size 9 to 14) (size 15 to 20)
#    0.000    1.714    0.714    2.143    6.000    8.000 
#    3.857    1.429    0.000    0.000    0.000    0.000 
#    0.000    0.000    0.000    0.000    0.000    0.000 
#
# Total GULP energy -155998.330321 kJ/mol
# GULP energy per Si atom -5571.368940 kJ/mol
# Density = 2.195323 g / cm^3
# Si number density = 22.003315 Si / 1000 Ang^3
#
#
#
# Elastic Constant Matrix: (Units=GPa)
#
#
# Indices 1 2 3 4 5 6 
#
# 1 117.0649 13.0394 41.1832 0.0000 9.3743 0.0000
# 2 13.0394 39.0960 -1.7701 0.0000 -4.2545 0.0000
# 3 41.1832 -1.7701 125.7905 0.0000 8.6856 0.0000
# 4 0.0000 0.0000 0.0000 11.8588 0.0000 -0.1457
# 5 9.3743 -4.2545 8.6856 0.0000 54.4383 0.0000
# 6 0.0000 0.0000 0.0000 -0.1457 0.0000 -97.7990
#
#
#
# Elastic Compliance Matrix: (Units=1/GPa)
#
#
# Indices 1 2 3 4 5 6 
#
# 1 0.010241 -0.003731 -0.003300 0.000000 -0.001529 0.000000
# 2 -0.003731 0.027163 0.001429 0.000000 0.002538 0.000000
# 3 -0.003300 0.001429 0.009104 0.000000 -0.000773 0.000000
# 4 0.000000 0.000000 0.000000 0.084324 0.000000 -0.000126
# 5 -0.001529 0.002538 -0.000773 0.000000 0.018954 0.000000
# 6 0.000000 0.000000 0.000000 -0.000126 0.000000 -0.010225
#
#
# Mechanical properties :
#
#
# Convention : Reuss Voigt Hill
#
# Bulk Modulus (GPa) = 28.32630 42.98406 35.65518
# Shear Modulus (GPa) = 30.76278 8.99956 19.88117
#
# Velocity S-wave (km/s) = 3.74317 2.02459 3.00918
# Velocity P-wave (km/s) = 5.61991 5.00429 5.32101
#
# Compressibility (1/GPa) = 0.03530288
#
# Stress axis : x y z
#
# Youngs Moduli (GPa) = 97.64486 36.81422 109.84748
#
# Poissons Ratio (x) = 0.13737 0.36248
# Poissons Ratio (y) = 0.36436 -0.15694
# Poissons Ratio (z) = 0.32222 -0.05260
#
# Static dielectric constant tensor:
#      x y z
#    x 2.098690 0.000000 -0.227090 
#    y 0.000000 1.957860 0.000000 
#    z -0.227090 0.000000 2.093810 
# 
# From -- ./inp_files/34403.got.cif
#   From: 2010.05.17/outbox.cif.g08.bks.cpg/sg15_18_cif.got.tgz:34403.got - 2010.06.03 18:47:42.
