data_PCOD9272659
_publ_section_title
;
Structure prediction by ZEFSAII (Michael W. Deem and Ramdas Pophale) SiO2 
 PCOD9272659
Probable space group: C 2/C
;
_chemical_formula_sum "Si O2"
_cell_formula_units_Z 52
_cell_length_a 14.241829
_cell_length_b 19.636222
_cell_length_c 20.440815
_cell_angle_alpha 90.000000
_cell_angle_beta 28.856254
_cell_angle_gamma 90.000000
_cell_volume 2758.809149
_symmetry_space_group_name_H-M "C 2/C"
_symmetry_group_IT_number 15
_symmetry_cell_setting 'monoclinic'
loop_
_space_group_symop_operation_xyz
x,y,z
-x,y,1/2-z
-x,-y,-z
x,-y,1/2+z
1/2+x,1/2+y,z
1/2-x,1/2+y,1/2-z
1/2-x,1/2-y,-z
1/2+x,1/2-y,1/2+z
loop_
_atom_site_type_symbol
_atom_site_label
_atom_site_fract_x
_atom_site_fract_y
_atom_site_fract_z
Si Si1 0.705680 0.266566 0.861006
Si Si2 0.183247 0.419837 0.722543
Si Si3 0.045808 0.087314 0.095386
Si Si4 0.076601 0.798752 0.082037
Si Si5 0.177567 0.777063 0.474297
Si Si6 0.500000 0.682132 0.250000
Si Si7 0.250560 0.552049 0.031370
O O1 0.816907 0.338482 0.787479
O O2 0.879499 0.213658 0.743247
O O3 0.576408 0.275665 0.005701
O O4 0.544583 0.257408 0.903713
O O5 0.348818 0.430448 0.675832
O O6 0.236152 0.451025 0.619583
O O7 0.963820 0.442985 0.869307
O O8 0.016419 0.132469 0.177887
O O9 0.174646 0.140552 0.972816
O O10 0.147416 0.017174 0.051431
O O11 0.250000 0.750000 0.000000
O O12 0.138018 0.877439 0.050198
O O13 0.250000 0.750000 0.500000
O O14 0.322604 0.733453 0.341526
#
# Coordination Sequence:
#
# PCOD9272659 Si02
#       7
#     8   8   8   8   8   4   8
#     4  10  21  36  61  89 115 157 206 252 297 356
#     4   9  19  37  60  80 117 158 197 247 298 345
#     4  10  21  40  56  87 119 153 195 252 304 358
#     4  11  21  37  59  90 121 158 205 246 302 362
#     4   9  21  38  61  81 113 156 198 244 303 355
#     4  10  22  40  60  84 122 150 204 252 298 366
#     4  10  20  37  59  87 119 156 199 249 295 361
#
# _framework density 18.848711000000002
#
# number of rings (size 3 to 8) (size 9 to 14) (size 15 to 20)
#    0.000    2.154    1.538    0.923    6.462    1.231 
#    8.308    0.769    0.000    0.000    0.000    0.000 
#    0.000    0.000    0.000    0.000    0.000    0.000 
#
# Total GULP energy -144739.197565 kJ/mol
# GULP energy per Si atom -5566.892214 kJ/mol
# Density = 1.880581 g / cm^3
# Si number density = 18.848711 Si / 1000 Ang^3
#
#
#
# Elastic Constant Matrix: (Units=GPa)
#
#
# Indices 1 2 3 4 5 6 
#
# 1 90.0394 34.8501 19.6689 0.0032 -19.3525 0.0000
# 2 34.8501 118.0595 56.7850 -0.0006 -11.2952 0.0017
# 3 19.6689 56.7850 63.7270 0.0055 -10.8217 -0.0032
# 4 0.0032 -0.0006 0.0055 34.7017 -0.0032 -0.2472
# 5 -19.3525 -11.2952 -10.8217 -0.0032 21.3316 0.0016
# 6 0.0000 0.0017 -0.0032 -0.2472 0.0016 20.6856
#
#
#
# Elastic Compliance Matrix: (Units=1/GPa)
#
#
# Indices 1 2 3 4 5 6 
#
# 1 0.014919 -0.003538 0.000578 0.000000 0.011955 -0.000001
# 2 -0.003538 0.015694 -0.013160 0.000003 -0.001576 -0.000003
# 3 0.000578 -0.013160 0.028610 -0.000004 0.008071 0.000005
# 4 0.000000 0.000003 -0.000004 0.028819 0.000003 0.000344
# 5 0.011955 -0.001576 0.008071 0.000003 0.060984 -0.000003
# 6 -0.000001 -0.000003 0.000005 0.000344 -0.000003 0.048347
#
#
# Mechanical properties :
#
#
# Convention : Reuss Voigt Hill
#
# Bulk Modulus (GPa) = 37.06001 54.93712 45.99856
# Shear Modulus (GPa) = 20.95500 26.04525 23.50013
#
# Velocity S-wave (km/s) = 3.33790 3.72130 3.53480
# Velocity P-wave (km/s) = 5.87877 6.90461 6.41224
#
# Compressibility (1/GPa) = 0.02698326
#
# Stress axis : x y z
#
# Youngs Moduli (GPa) = 67.02916 63.72029 34.95278
#
# Poissons Ratio (x) = 0.22547 -0.02022
# Poissons Ratio (y) = 0.23717 0.45996
# Poissons Ratio (z) = -0.03877 0.83853
#
# Static dielectric constant tensor:
#      x y z
#    x 1.730890 0.000000 0.072730 
#    y 0.000000 1.651430 0.000000 
#    z 0.072730 0.000000 1.757690 
# 
# From -- ./inp_files/98189.got.cif
#   From: 2010.05.17/outbox.cif.g08.bks.cpg/sg15_50_cif.got.tgz:98189.got - 2010.06.03 18:47:42.
