data_PCOD9272517
_publ_section_title
;
Structure prediction by ZEFSAII (Michael W. Deem and Ramdas Pophale) SiO2 
 PCOD9272517
Probable space group: C 2/C
;
_chemical_formula_sum "Si O2"
_cell_formula_units_Z 56
_cell_length_a 11.172283
_cell_length_b 16.946033
_cell_length_c 14.622981
_cell_angle_alpha 90.000000
_cell_angle_beta 66.430573
_cell_angle_gamma 90.000000
_cell_volume 2537.549248
_symmetry_space_group_name_H-M "C 2/C"
_symmetry_group_IT_number 15
_symmetry_cell_setting 'monoclinic'
loop_
_space_group_symop_operation_xyz
x,y,z
-x,y,1/2-z
-x,-y,-z
x,-y,1/2+z
1/2+x,1/2+y,z
1/2-x,1/2+y,1/2-z
1/2-x,1/2-y,-z
1/2+x,1/2-y,1/2+z
loop_
_atom_site_type_symbol
_atom_site_label
_atom_site_fract_x
_atom_site_fract_y
_atom_site_fract_z
Si Si1 0.602396 0.818229 0.799724
Si Si2 0.504233 0.969764 0.600326
Si Si3 0.059480 0.816657 0.084574
Si Si4 0.216102 0.978217 0.423816
Si Si5 0.125026 0.616084 0.760478
Si Si6 0.982942 0.997822 0.864092
Si Si7 0.197317 0.247838 0.373690
O O1 0.500000 0.836979 0.750000
O O2 0.565693 0.885705 0.880459
O O3 0.566916 0.731899 0.846584
O O4 0.746096 0.814212 0.716358
O O5 0.500000 0.000000 0.500000
O O6 0.654683 0.971119 0.589634
O O7 0.420951 0.030996 0.686447
O O8 0.045945 0.907890 0.113902
O O9 0.178604 0.776814 0.104263
O O10 0.093578 0.794325 0.970275
O O11 0.269716 0.903600 0.349854
O O12 0.113161 0.017254 0.384676
O O13 0.136682 0.959699 0.541463
O O14 0.157747 0.673275 0.833143
O O15 0.000000 0.652861 0.750000
O O16 0.000000 0.981767 0.750000
#
# Coordination Sequence:
#
# PCOD9272517 Si02
#       7
#     8   8   8   8   8   8   8
#     4  10  20  37  57  94 120 159 209 267 315 376
#     4  11  24  38  64  94 132 173 218 272 332 382
#     4  10  21  34  62  93 120 160 215 264 329 376
#     4  10  24  40  61  95 129 172 222 265 327 400
#     4  10  21  40  62  91 131 176 213 268 329 392
#     4  11  23  41  66  92 134 178 214 277 336 390
#     4  10  21  36  63  92 128 164 212 269 325 383
#
# _framework density 22.068538
#
# number of rings (size 3 to 8) (size 9 to 14) (size 15 to 20)
#    0.000    1.714    0.000    5.143   12.000    0.000 
#    0.000    1.429    0.000    6.000    0.000    0.000 
#    0.000    0.000    0.000    0.000    0.000    0.000 
#
# Total GULP energy -156372.830994 kJ/mol
# GULP energy per Si atom -5584.743964 kJ/mol
# Density = 2.201831 g / cm^3
# Si number density = 22.068538 Si / 1000 Ang^3
#
#
#
# Elastic Constant Matrix: (Units=GPa)
#
#
# Indices 1 2 3 4 5 6 
#
# 1 58.3340 10.1929 37.8331 0.0000 -3.9861 0.0000
# 2 10.1929 41.6966 17.8347 0.0000 -0.8733 0.0000
# 3 37.8331 17.8347 177.6514 0.0000 -2.6066 0.0000
# 4 0.0000 0.0000 0.0000 35.2594 0.0000 2.6725
# 5 -3.9861 -0.8733 -2.6066 0.0000 24.6211 0.0000
# 6 0.0000 0.0000 0.0000 2.6725 0.0000 20.8872
#
#
#
# Elastic Compliance Matrix: (Units=1/GPa)
#
#
# Indices 1 2 3 4 5 6 
#
# 1 0.020492 -0.003241 -0.003998 0.000000 0.002779 0.000000
# 2 -0.003241 0.025581 -0.001875 0.000000 0.000184 0.000000
# 3 -0.003998 -0.001875 0.006669 0.000000 -0.000008 0.000000
# 4 0.000000 0.000000 0.000000 0.028639 0.000000 -0.003664
# 5 0.002779 0.000184 -0.000008 0.000000 0.041071 0.000000
# 6 0.000000 0.000000 0.000000 -0.003664 0.000000 0.048345
#
#
# Mechanical properties :
#
#
# Convention : Reuss Voigt Hill
#
# Bulk Modulus (GPa) = 28.97454 45.48926 37.23190
# Shear Modulus (GPa) = 24.93406 30.27497 27.60451
#
# Velocity S-wave (km/s) = 3.36497 3.70788 3.54058
# Velocity P-wave (km/s) = 5.31556 6.24409 5.79844
#
# Compressibility (1/GPa) = 0.03451306
#
# Stress axis : x y z
#
# Youngs Moduli (GPa) = 48.80023 39.09153 149.95823
#
# Poissons Ratio (x) = 0.12670 0.59950
# Poissons Ratio (y) = 0.15817 0.28120
# Poissons Ratio (z) = 0.19509 0.07330
#
# Static dielectric constant tensor:
#      x y z
#    x 1.826310 0.000000 -0.007880 
#    y 0.000000 1.854680 0.000000 
#    z -0.007880 0.000000 1.870300 
# 
# From -- ./inp_files/145969.got.cif
#   From: 2010.05.17/outbox.cif.g08.bks.cpg/sg15_73_cif.got.tgz:145969.got - 2010.06.03 18:47:42.
