data_PCOD9272552
_publ_section_title
;
Structure prediction by ZEFSAII (Michael W. Deem and Ramdas Pophale) SiO2 
 PCOD9272552
Probable space group: C 2/C
;
_chemical_formula_sum "Si O2"
_cell_formula_units_Z 32
_cell_length_a 9.459070
_cell_length_b 18.114155
_cell_length_c 9.443519
_cell_angle_alpha 90.000000
_cell_angle_beta 108.470409
_cell_angle_gamma 90.000000
_cell_volume 1534.729868
_symmetry_space_group_name_H-M "C 2/C"
_symmetry_group_IT_number 15
_symmetry_cell_setting 'monoclinic'
loop_
_space_group_symop_operation_xyz
x,y,z
-x,y,1/2-z
-x,-y,-z
x,-y,1/2+z
1/2+x,1/2+y,z
1/2-x,1/2+y,1/2-z
1/2-x,1/2-y,-z
1/2+x,1/2-y,1/2+z
loop_
_atom_site_type_symbol
_atom_site_label
_atom_site_fract_x
_atom_site_fract_y
_atom_site_fract_z
Si Si1 0.401274 0.956849 0.857251
Si Si2 0.147107 0.786050 0.588516
Si Si3 0.105135 0.711378 0.139677
Si Si4 0.904505 0.048067 0.358660
O O1 0.500000 0.951020 0.750000
O O2 0.377347 0.873203 0.902303
O O3 0.243522 0.989634 0.754623
O O4 0.500000 0.000000 0.000000
O O5 0.250000 0.750000 0.500000
O O6 0.232067 0.762785 0.758622
O O7 0.147403 0.875153 0.585751
O O8 0.981970 0.758187 0.503899
O O9 0.000000 0.712761 0.250000
O O10 0.000000 0.067263 0.250000
O O11 0.000000 0.000000 0.500000
#
# Coordination Sequence:
#
# PCOD9272552 Si02
#       4
#     8   8   8   8
#     4  10  20  37  58  84 119 163 210 255 308 377
#     4   9  18  35  57  82 114 159 207 250 302 372
#     4   8  16  30  52  77 104 144 196 243 291 355
#     4  11  24  40  61  95 131 164 209 266 320 378
#
# _framework density 20.850574999999999
#
# number of rings (size 3 to 8) (size 9 to 14) (size 15 to 20)
#    0.000    2.500    0.000    3.000    0.000    5.000 
#    0.000    6.250    0.000    0.000    0.000    0.000 
#    0.000    0.000    0.000    0.000    0.000    0.000 
#
# Total GULP energy -89173.276106 kJ/mol
# GULP energy per Si atom -5573.329757 kJ/mol
# Density = 2.080312 g / cm^3
# Si number density = 20.850575 Si / 1000 Ang^3
#
#
#
# Elastic Constant Matrix: (Units=GPa)
#
#
# Indices 1 2 3 4 5 6 
#
# 1 62.5140 19.3244 50.9236 0.0000 25.4775 0.0000
# 2 19.3244 67.7267 74.8831 0.0000 21.9110 0.0000
# 3 50.9236 74.8831 163.8246 0.0000 70.9868 0.0000
# 4 0.0000 0.0000 0.0000 13.5985 0.0000 21.1597
# 5 25.4775 21.9110 70.9868 0.0000 69.1226 0.0000
# 6 0.0000 0.0000 0.0000 21.1597 0.0000 25.2487
#
#
#
# Elastic Compliance Matrix: (Units=1/GPa)
#
#
# Indices 1 2 3 4 5 6 
#
# 1 0.021699 0.002138 -0.007141 0.000000 -0.001343 0.000000
# 2 0.002138 0.032886 -0.019528 0.000000 0.008842 0.000000
# 3 -0.007141 -0.019528 0.024193 0.000000 -0.016023 0.000000
# 4 0.000000 0.000000 0.000000 -0.241872 0.000000 0.202701
# 5 -0.001343 0.008842 -0.016023 0.000000 0.028614 0.000000
# 6 0.000000 0.000000 0.000000 0.202701 0.000000 -0.130268
#
#
# Mechanical properties :
#
#
# Convention : Reuss Voigt Hill
#
# Bulk Modulus (GPa) = 33.65062 64.92528 49.28795
# Shear Modulus (GPa) = -24.29755 31.52292 3.61268
#
# Velocity S-wave (km/s) = -3.41738 3.89247 1.31773
# Velocity P-wave (km/s) = 0.77632 7.16992 5.09953
#
# Compressibility (1/GPa) = 0.02971714
#
# Stress axis : x y z
#
# Youngs Moduli (GPa) = 46.08431 30.40830 41.33488
#
# Poissons Ratio (x) = -0.06501 0.29515
# Poissons Ratio (y) = -0.09853 0.80718
# Poissons Ratio (z) = 0.32907 0.59381
#
# Static dielectric constant tensor:
#      x y z
#    x 1.814250 0.000000 0.037010 
#    y 0.000000 1.805440 0.000000 
#    z 0.037010 0.000000 1.756040 
# 
# From -- ./inp_files/29916.got.cif
#   From: 2010.05.17/outbox.cif.g08.bks.cpg/sg15_15_cif.got.tgz:29916.got - 2010.06.03 18:47:42.
