data_PCOD9272561
_publ_section_title
;
Structure prediction by ZEFSAII (Michael W. Deem and Ramdas Pophale) SiO2 
 PCOD9272561
Probable space group: C 2/C
;
_chemical_formula_sum "Si O2"
_cell_formula_units_Z 44
_cell_length_a 20.795756
_cell_length_b 8.965167
_cell_length_c 12.308213
_cell_angle_alpha 90.000000
_cell_angle_beta 134.168933
_cell_angle_gamma 90.000000
_cell_volume 1645.970247
_symmetry_space_group_name_H-M "C 2/C"
_symmetry_group_IT_number 15
_symmetry_cell_setting 'monoclinic'
loop_
_space_group_symop_operation_xyz
x,y,z
-x,y,1/2-z
-x,-y,-z
x,-y,1/2+z
1/2+x,1/2+y,z
1/2-x,1/2+y,1/2-z
1/2-x,1/2-y,-z
1/2+x,1/2-y,1/2+z
loop_
_atom_site_type_symbol
_atom_site_label
_atom_site_fract_x
_atom_site_fract_y
_atom_site_fract_z
Si Si1 0.527869 0.908546 0.140267
Si Si2 0.261136 0.503782 0.499157
Si Si3 0.000000 0.326086 0.750000
Si Si4 0.013651 0.832124 0.474478
Si Si5 0.197454 0.761612 0.271850
Si Si6 0.151806 0.747511 0.980276
O O1 0.558237 0.826157 0.405951
O O2 0.556006 0.049339 0.248649
O O3 0.569595 0.763250 0.129243
O O4 0.500000 0.000000 0.000000
O O5 0.233551 0.610464 0.368068
O O6 0.264208 0.603432 0.610995
O O7 0.194383 0.367587 0.445671
O O8 0.351237 0.413107 0.572960
O O9 0.952028 0.220186 0.604814
O O10 0.909364 0.782773 0.343599
O O11 0.000000 0.000000 0.500000
O O12 0.211336 0.760998 0.159351
#
# Coordination Sequence:
#
# PCOD9272561 Si02
#       6
#     8   8   4   8   8   8
#     4   9  20  38  59  84 119 162 206 255 321 389
#     4  10  21  36  60  88 115 161 208 250 321 375
#     4  10  20  38  58  80 118 164 204 254 316 384
#     4  10  22  37  57  87 119 158 211 260 318 386
#     4  10  21  38  56  84 122 155 201 263 315 375
#     4  10  20  37  58  86 118 154 207 260 308 381
#
# _framework density 26.731953000000001
#
# number of rings (size 3 to 8) (size 9 to 14) (size 15 to 20)
#    0.000    2.182    0.000    2.182    0.000    5.091 
#    0.000   18.182    0.000    0.000    0.000    0.000 
#    0.000    0.000    0.000    0.000    0.000    0.000 
#
# Total GULP energy -122664.214711 kJ/mol
# GULP energy per Si atom -5575.646123 kJ/mol
# Density = 2.667111 g / cm^3
# Si number density = 26.731953 Si / 1000 Ang^3
#
#
#
# Elastic Constant Matrix: (Units=GPa)
#
#
# Indices 1 2 3 4 5 6 
#
# 1 64.7956 42.5872 22.6241 0.0000 -11.1023 0.0000
# 2 42.5872 249.6336 95.6039 0.0000 -33.2800 0.0000
# 3 22.6241 95.6039 142.9206 0.0000 -38.1993 0.0000
# 4 0.0000 0.0000 0.0000 38.4761 0.0000 -8.5154
# 5 -11.1023 -33.2800 -38.1993 0.0000 43.8961 0.0000
# 6 0.0000 0.0000 0.0000 -8.5154 0.0000 42.1025
#
#
#
# Elastic Compliance Matrix: (Units=1/GPa)
#
#
# Indices 1 2 3 4 5 6 
#
# 1 0.017638 -0.002522 -0.000552 0.000000 0.002068 0.000000
# 2 -0.002522 0.005798 -0.003225 0.000000 0.000952 0.000000
# 3 -0.000552 -0.003225 0.011142 0.000000 0.007112 0.000000
# 4 0.000000 0.000000 0.000000 0.027208 0.000000 0.005503
# 5 0.002068 0.000952 0.007112 0.000000 0.030214 0.000000
# 6 0.000000 0.000000 0.000000 0.005503 0.000000 0.024865
#
#
# Mechanical properties :
#
#
# Convention : Reuss Voigt Hill
#
# Bulk Modulus (GPa) = 45.49545 86.55335 66.02440
# Shear Modulus (GPa) = 36.55244 44.66392 40.60818
#
# Velocity S-wave (km/s) = 3.70181 4.09198 3.90178
# Velocity P-wave (km/s) = 5.94367 7.40097 6.71199
#
# Compressibility (1/GPa) = 0.02198022
#
# Stress axis : x y z
#
# Youngs Moduli (GPa) = 56.69633 172.47294 89.74754
#
# Poissons Ratio (x) = 0.43492 0.04957
# Poissons Ratio (y) = 0.14297 0.28943
# Poissons Ratio (z) = 0.03132 0.55622
#
# Static dielectric constant tensor:
#      x y z
#    x 2.118390 0.000000 -0.234010 
#    y 0.000000 2.057210 0.000000 
#    z -0.234010 0.000000 2.045220 
# 
# From -- ./inp_files/110117.got.cif
#   From: 2010.05.17/outbox.cif.g08.bks.cpg/sg15_56_cif.got.tgz:110117.got - 2010.06.03 18:47:42.
