data_PCOD9272525
_publ_section_title
;
Structure prediction by ZEFSAII (Michael W. Deem and Ramdas Pophale) SiO2 
 PCOD9272525
Probable space group: C 2/C
;
_chemical_formula_sum "Si O2"
_cell_formula_units_Z 60
_cell_length_a 23.817015
_cell_length_b 7.932264
_cell_length_c 17.331526
_cell_angle_alpha 90.000000
_cell_angle_beta 127.416057
_cell_angle_gamma 90.000000
_cell_volume 2600.611269
_symmetry_space_group_name_H-M "C 2/C"
_symmetry_group_IT_number 15
_symmetry_cell_setting 'monoclinic'
loop_
_space_group_symop_operation_xyz
x,y,z
-x,y,1/2-z
-x,-y,-z
x,-y,1/2+z
1/2+x,1/2+y,z
1/2-x,1/2+y,1/2-z
1/2-x,1/2-y,-z
1/2+x,1/2-y,1/2+z
loop_
_atom_site_type_symbol
_atom_site_label
_atom_site_fract_x
_atom_site_fract_y
_atom_site_fract_z
Si Si1 0.964173 0.195591 0.821852
Si Si2 0.193085 0.558431 0.062747
Si Si3 0.208644 0.963423 0.079162
Si Si4 0.352164 0.887701 0.150487
Si Si5 0.068040 0.613833 0.050467
Si Si6 0.500000 0.972720 0.750000
Si Si7 0.442898 0.455841 0.517345
Si Si8 0.164102 0.984004 0.366764
O O1 0.928320 0.273839 0.868995
O O2 0.013823 0.343341 0.830873
O O3 0.900673 0.128616 0.715530
O O4 0.019515 0.044703 0.880200
O O5 0.207284 0.759036 0.084769
O O6 0.136544 0.511825 0.080620
O O7 0.265025 0.452273 0.124198
O O8 0.166269 0.554330 0.952212
O O9 0.293852 0.985859 0.154554
O O10 0.137781 0.015065 0.067419
O O11 0.185596 0.027617 0.974684
O O12 0.348332 0.685362 0.153849
O O13 0.433426 0.930700 0.226714
O O14 0.058222 0.754882 0.975567
O O15 0.000000 0.500000 0.000000
O O16 0.500000 0.500000 0.500000
#
# Coordination Sequence:
#
# PCOD9272525 Si02
#       8
#     8   8   8   8   8   4   8   8
#     4  11  23  36  51  82 119 148 183 233 284 339
#     4   8  16  35  59  79 106 146 191 230 280 345
#     4   8  15  33  59  81 104 142 188 231 278 339
#     4   9  19  35  59  84 106 142 190 239 286 334
#     4  10  20  37  58  81 109 149 195 236 276 336
#     4  12  24  36  52  88 122 142 184 238 284 330
#     4   9  19  36  57  78 107 150 190 225 277 342
#     4   9  18  35  58  82 108 144 186 234 289 336
#
# _framework density 23.071498999999999
#
# number of rings (size 3 to 8) (size 9 to 14) (size 15 to 20)
#    0.000    2.667    0.000    3.200    0.000    4.800 
#    0.000   15.333    0.000    0.000    0.000    0.000 
#    0.000    0.000    0.000    0.000    0.000    0.000 
#
# Total GULP energy -167021.476525 kJ/mol
# GULP energy per Si atom -5567.382551 kJ/mol
# Density = 2.301899 g / cm^3
# Si number density = 23.071499 Si / 1000 Ang^3
#
#
#
# Elastic Constant Matrix: (Units=GPa)
#
#
# Indices 1 2 3 4 5 6 
#
# 1 192.1699 27.4410 17.2366 0.0000 31.2011 0.0000
# 2 27.4410 28.3673 11.6403 0.0000 12.3204 0.0000
# 3 17.2366 11.6403 27.2837 0.0000 14.8473 0.0000
# 4 0.0000 0.0000 0.0000 22.7258 0.0000 -0.5736
# 5 31.2011 12.3204 14.8473 0.0000 32.7435 0.0000
# 6 0.0000 0.0000 0.0000 -0.5736 0.0000 27.0876
#
#
#
# Elastic Compliance Matrix: (Units=1/GPa)
#
#
# Indices 1 2 3 4 5 6 
#
# 1 0.006579 -0.004433 0.000317 0.000000 -0.004744 0.000000
# 2 -0.004433 0.048549 -0.013635 0.000000 -0.007860 0.000000
# 3 0.000317 -0.013635 0.052627 0.000000 -0.019036 0.000000
# 4 0.000000 0.000000 0.000000 0.044026 0.000000 0.000932
# 5 -0.004744 -0.007860 -0.019036 0.000000 0.046651 0.000000
# 6 0.000000 0.000000 0.000000 0.000932 0.000000 0.036937
#
#
# Mechanical properties :
#
#
# Convention : Reuss Voigt Hill
#
# Bulk Modulus (GPa) = 13.84012 40.05075 26.94543
# Shear Modulus (GPa) = 16.95171 29.27825 23.11498
#
# Velocity S-wave (km/s) = 2.71356 3.56620 3.16869
# Velocity P-wave (km/s) = 3.97866 5.86124 5.00918
#
# Compressibility (1/GPa) = 0.07225371
#
# Stress axis : x y z
#
# Youngs Moduli (GPa) = 152.00638 20.59764 19.00149
#
# Poissons Ratio (x) = 0.09132 -0.00603
# Poissons Ratio (y) = 0.67391 0.25908
# Poissons Ratio (z) = -0.04822 0.28084
#
# Static dielectric constant tensor:
#      x y z
#    x 2.045720 0.000000 -0.017250 
#    y 0.000000 1.892260 0.000000 
#    z -0.017250 0.000000 1.939600 
# 
# From -- ./inp_files/214296.got.cif
#   From: 2010.05.17/outbox.cif.g08.bks.cpg/sg15_108_cif.got.tgz:214296.got - 2010.06.03 18:47:42.
