data_PCOD9272446
_publ_section_title
;
Structure prediction by ZEFSAII (Michael W. Deem and Ramdas Pophale) SiO2 
 PCOD9272446
Probable space group: C 2/C
;
_chemical_formula_sum "Si O2"
_cell_formula_units_Z 64
_cell_length_a 28.045084
_cell_length_b 16.036659
_cell_length_c 12.936135
_cell_angle_alpha 90.000000
_cell_angle_beta 33.106138
_cell_angle_gamma 90.000000
_cell_volume 3177.754015
_symmetry_space_group_name_H-M "C 2/C"
_symmetry_group_IT_number 15
_symmetry_cell_setting 'monoclinic'
loop_
_space_group_symop_operation_xyz
x,y,z
-x,y,1/2-z
-x,-y,-z
x,-y,1/2+z
1/2+x,1/2+y,z
1/2-x,1/2+y,1/2-z
1/2-x,1/2-y,-z
1/2+x,1/2-y,1/2+z
loop_
_atom_site_type_symbol
_atom_site_label
_atom_site_fract_x
_atom_site_fract_y
_atom_site_fract_z
Si Si1 0.033252 0.249182 0.495715
Si Si2 0.780954 0.868809 0.032226
Si Si3 0.480180 0.436468 0.446083
Si Si4 0.832088 0.691877 0.584789
Si Si5 0.865501 0.975439 0.466802
Si Si6 0.647751 0.180316 0.611585
Si Si7 0.660638 0.803177 0.655809
Si Si8 0.292074 0.143204 0.212950
O O1 0.058638 0.151291 0.444908
O O2 0.079329 0.282044 0.516874
O O3 0.069131 0.305355 0.335430
O O4 0.929249 0.252402 0.683025
O O5 0.717221 0.868365 0.246955
O O6 0.721917 0.872943 0.036906
O O7 0.820376 0.776135 0.957699
O O8 0.849459 0.940746 0.931249
O O9 0.500000 0.500000 0.500000
O O10 0.416908 0.483069 0.480546
O O11 0.570010 0.419217 0.220155
O O12 0.839557 0.654523 0.456717
O O13 0.771881 0.775443 0.683372
O O14 0.774493 0.932904 0.658730
O O15 0.643905 0.145397 0.502287
O O16 0.750000 0.750000 0.500000
O O17 0.660657 0.853612 0.762371
#
# Coordination Sequence:
#
# PCOD9272446 Si02
#       8
#     8   8   8   8   8   8   8   8
#     4  11  20  37  62  86 119 163 208 254 306 380
#     4   9  19  36  59  87 115 160 209 248 291 378
#     4  11  24  35  54  90 131 171 198 241 327 394
#     4   9  18  36  59  81 116 160 214 241 297 362
#     4  11  23  36  56  88 131 163 200 254 326 387
#     4   9  20  37  63  84 114 164 216 248 296 369
#     4  10  21  33  56  88 114 149 199 263 308 356
#     4  10  20  37  56  85 120 157 205 258 308 358
#
# _framework density 20.140011000000001
#
# number of rings (size 3 to 8) (size 9 to 14) (size 15 to 20)
#    0.000    2.000    1.250    3.375    3.500    4.500 
#    0.000    0.000    0.000    3.000    6.500    0.000 
#    0.000    0.000    0.000    0.000    0.000    0.000 
#
# Total GULP energy -178304.021076 kJ/mol
# GULP energy per Si atom -5572.000659 kJ/mol
# Density = 2.009417 g / cm^3
# Si number density = 20.140011 Si / 1000 Ang^3
#
#
#
# Elastic Constant Matrix: (Units=GPa)
#
#
# Indices 1 2 3 4 5 6 
#
# 1 133.0979 29.0136 62.2666 0.0000 19.8854 0.0000
# 2 29.0136 31.4982 11.1160 0.0000 0.8216 0.0000
# 3 62.2666 11.1160 75.6141 0.0000 18.5128 0.0000
# 4 0.0000 0.0000 0.0000 20.6324 0.0000 -2.4127
# 5 19.8854 0.8216 18.5128 0.0000 43.0884 0.0000
# 6 0.0000 0.0000 0.0000 -2.4127 0.0000 20.7717
#
#
#
# Elastic Compliance Matrix: (Units=1/GPa)
#
#
# Indices 1 2 3 4 5 6 
#
# 1 0.014769 -0.009966 -0.010142 0.000000 -0.002269 0.000000
# 2 -0.009966 0.040315 0.001500 0.000000 0.003186 0.000000
# 3 -0.010142 0.001500 0.022594 0.000000 -0.005056 0.000000
# 4 0.000000 0.000000 0.000000 0.049135 0.000000 0.005707
# 5 -0.002269 0.003186 -0.005056 0.000000 0.026366 0.000000
# 6 0.000000 0.000000 0.000000 0.005707 0.000000 0.048805
#
#
# Mechanical properties :
#
#
# Convention : Reuss Voigt Hill
#
# Bulk Modulus (GPa) = 24.71396 49.44475 37.07936
# Shear Modulus (GPa) = 19.78729 26.08608 22.93669
#
# Velocity S-wave (km/s) = 3.13786 3.60284 3.37836
# Velocity P-wave (km/s) = 5.04242 6.47388 5.80246
#
# Compressibility (1/GPa) = 0.04046295
#
# Stress axis : x y z
#
# Youngs Moduli (GPa) = 67.70872 24.80453 44.26023
#
# Poissons Ratio (x) = 0.24720 0.44887
# Poissons Ratio (y) = 0.67478 -0.06639
# Poissons Ratio (z) = 0.68667 -0.03721
#
# Static dielectric constant tensor:
#      x y z
#    x 1.718530 0.000000 0.014340 
#    y 0.000000 2.015080 0.000000 
#    z 0.014340 0.000000 1.790650 
# 
# From -- ./inp_files/123508.got.cif
#   From: 2010.05.17/outbox.cif.g08.bks.cpg/sg15_62_cif.got.tgz:123508.got - 2010.06.03 18:47:42.
