data_PCOD9272090
_publ_section_title
;
Structure prediction by ZEFSAII (Michael W. Deem and Ramdas Pophale) SiO2 
 PCOD9272090
Probable space group: C 2/C
;
_chemical_formula_sum "Si O2"
_cell_formula_units_Z 44
_cell_length_a 16.535218
_cell_length_b 17.828626
_cell_length_c 13.380386
_cell_angle_alpha 90.000000
_cell_angle_beta 154.934775
_cell_angle_gamma 90.000000
_cell_volume 1671.103566
_symmetry_space_group_name_H-M "C 2/C"
_symmetry_group_IT_number 15
_symmetry_cell_setting 'monoclinic'
loop_
_space_group_symop_operation_xyz
x,y,z
-x,y,1/2-z
-x,-y,-z
x,-y,1/2+z
1/2+x,1/2+y,z
1/2-x,1/2+y,1/2-z
1/2-x,1/2-y,-z
1/2+x,1/2-y,1/2+z
loop_
_atom_site_type_symbol
_atom_site_label
_atom_site_fract_x
_atom_site_fract_y
_atom_site_fract_z
Si Si1 0.781004 0.831495 0.638323
Si Si2 0.345882 0.154190 0.715548
Si Si3 0.156968 0.247897 0.983523
Si Si4 0.500000 0.000000 0.000000
Si Si5 0.207859 0.587806 0.627897
Si Si6 0.614490 0.597117 0.059304
O O1 0.785818 0.856903 0.529065
O O2 0.566359 0.847947 0.431991
O O3 0.807920 0.742811 0.690421
O O4 0.926437 0.871398 0.874534
O O5 0.334047 0.097398 0.796290
O O6 0.395039 0.251075 0.196649
O O7 0.177170 0.327614 0.059250
O O8 0.172712 0.168908 0.058463
O O9 0.286836 0.958530 0.760322
O O10 0.458307 0.028869 0.072518
O O11 0.407700 0.564070 0.803264
#
# Coordination Sequence:
#
# PCOD9272090 Si02
#       6
#     8   8   8   4   8   8
#     4  10  20  36  64 103 139 174 226 294 361 434
#     4  10  20  36  64 103 139 175 225 292 364 433
#     4  12  25  46  77 115 148 198 271 329 373 445
#     4  12  28  48  72 104 156 200 240 312 390 464
#     4  12  25  46  74 107 149 194 249 315 382 455
#     4  12  25  46  74 105 148 199 250 313 381 453
#
# _framework density 26.329906000000001
#
# number of rings (size 3 to 8) (size 9 to 14) (size 15 to 20)
#    0.000    0.727    5.455    2.727    0.000    2.182 
#    0.000    5.455    0.000    0.000    0.000    0.000 
#    0.000    0.000    0.000    0.000    0.000    0.000 
#
# Total GULP energy -122499.329366 kJ/mol
# GULP energy per Si atom -5568.151335 kJ/mol
# Density = 2.626998 g / cm^3
# Si number density = 26.329906 Si / 1000 Ang^3
#
#
#
# Elastic Constant Matrix: (Units=GPa)
#
#
# Indices 1 2 3 4 5 6 
#
# 1 71.7093 31.8092 17.4433 0.0000 19.9965 0.0000
# 2 31.8092 92.3591 -0.7710 0.0000 9.7767 0.0000
# 3 17.4433 -0.7710 71.2727 0.0000 42.3456 0.0000
# 4 0.0000 0.0000 0.0000 24.4976 0.0000 36.5305
# 5 19.9965 9.7767 42.3456 0.0000 52.8787 0.0000
# 6 0.0000 0.0000 0.0000 36.5305 0.0000 3.6305
#
#
#
# Elastic Compliance Matrix: (Units=1/GPa)
#
#
# Indices 1 2 3 4 5 6 
#
# 1 0.018195 -0.005843 -0.002041 0.000000 -0.004166 0.000000
# 2 -0.005843 0.013166 0.003254 0.000000 -0.002831 0.000000
# 3 -0.002041 0.003254 0.027592 0.000000 -0.021926 0.000000
# 4 0.000000 0.000000 0.000000 -0.002915 0.000000 0.029329
# 5 -0.004166 -0.002831 -0.021926 0.000000 0.038568 0.000000
# 6 0.000000 0.000000 0.000000 0.029329 0.000000 -0.019668
#
#
# Mechanical properties :
#
#
# Convention : Reuss Voigt Hill
#
# Bulk Modulus (GPa) = 20.12287 36.92267 28.52277
# Shear Modulus (GPa) = 49.62141 28.65867 39.14004
#
# Velocity S-wave (km/s) = 4.34591 3.30274 3.85973
# Velocity P-wave (km/s) = 5.73077 5.34768 5.54254
#
# Compressibility (1/GPa) = 0.04969470
#
# Stress axis : x y z
#
# Youngs Moduli (GPa) = 54.95998 75.95108 36.24195
#
# Poissons Ratio (x) = 0.44375 0.07398
# Poissons Ratio (y) = 0.32111 -0.11794
# Poissons Ratio (z) = 0.11219 -0.24717
#
# Static dielectric constant tensor:
#      x y z
#    x 2.244270 0.000000 0.049950 
#    y 0.000000 1.212160 0.000000 
#    z 0.049950 0.000000 1.998600 
# 
# From -- ./inp_files/216201.got.cif
#   From: 2010.05.17/outbox.cif.g08.bks.cpg/sg15_109_cif.got.tgz:216201.got - 2010.06.03 18:47:42.
