data_PCOD9272213
_publ_section_title
;
Structure prediction by ZEFSAII (Michael W. Deem and Ramdas Pophale) SiO2 
 PCOD9272213
Probable space group: C 2/C
;
_chemical_formula_sum "Si O2"
_cell_formula_units_Z 56
_cell_length_a 10.349778
_cell_length_b 27.577385
_cell_length_c 22.802138
_cell_angle_alpha 90.000000
_cell_angle_beta 153.887711
_cell_angle_gamma 90.000000
_cell_volume 2864.457655
_symmetry_space_group_name_H-M "C 2/C"
_symmetry_group_IT_number 15
_symmetry_cell_setting 'monoclinic'
loop_
_space_group_symop_operation_xyz
x,y,z
-x,y,1/2-z
-x,-y,-z
x,-y,1/2+z
1/2+x,1/2+y,z
1/2-x,1/2+y,1/2-z
1/2-x,1/2-y,-z
1/2+x,1/2-y,1/2+z
loop_
_atom_site_type_symbol
_atom_site_label
_atom_site_fract_x
_atom_site_fract_y
_atom_site_fract_z
Si Si1 0.385051 0.639049 0.765714
Si Si2 0.482039 0.471589 0.553907
Si Si3 0.754898 0.260640 0.818041
Si Si4 0.358554 0.799438 0.072506
Si Si5 0.676339 0.634600 0.103176
Si Si6 0.777382 0.816596 0.991930
Si Si7 0.630223 0.948318 0.236390
O O1 0.500000 0.621068 0.750000
O O2 0.615734 0.670511 0.898707
O O3 0.281745 0.597695 0.768673
O O4 0.099058 0.671332 0.633801
O O5 0.500000 0.500000 0.500000
O O6 0.639865 0.419894 0.611327
O O7 0.647704 0.506637 0.666267
O O8 0.136617 0.461386 0.416192
O O9 0.500000 0.287742 0.750000
O O10 0.553921 0.219435 0.706227
O O11 0.024097 0.227986 0.952521
O O12 0.940821 0.298714 0.855703
O O13 0.250000 0.750000 0.000000
O O14 0.088386 0.833524 0.979081
O O15 0.000000 0.653674 0.250000
O O16 0.664499 0.638981 0.027930
O O17 0.500000 0.938327 0.250000
#
# Coordination Sequence:
#
# PCOD9272213 Si02
#       7
#     8   8   8   8   8   8   8
#     4  11  25  41  64  92 134 173 216 267 331 395
#     4  10  20  36  65  98 125 155 210 277 334 386
#     4  10  20  37  57  83 122 174 218 262 313 375
#     4  11  24  38  62  88 131 173 217 267 319 383
#     4  12  22  38  63  99 127 162 221 274 331 385
#     4  10  22  37  60  89 123 171 221 263 317 383
#     4  10  20  40  69  98 126 164 213 276 339 397
#
# _framework density 19.549948000000001
#
# number of rings (size 3 to 8) (size 9 to 14) (size 15 to 20)
#    0.000    1.429    2.857    3.857    2.000    1.714 
#    0.000    0.714    0.000    0.000    0.000    0.000 
#    0.000    0.000    0.000    0.000    0.000    0.000 
#
# Total GULP energy -155974.060822 kJ/mol
# GULP energy per Si atom -5570.502172 kJ/mol
# Density = 1.950545 g / cm^3
# Si number density = 19.549948 Si / 1000 Ang^3
#
#
#
# Elastic Constant Matrix: (Units=GPa)
#
#
# Indices 1 2 3 4 5 6 
#
# 1 75.8941 33.7731 39.1784 -0.0005 11.5955 -0.0005
# 2 33.7731 101.6188 27.3401 0.0027 12.5777 -0.0001
# 3 39.1784 27.3401 104.4928 -0.0059 25.4863 -0.0081
# 4 -0.0005 0.0027 -0.0059 39.2912 -0.0038 3.8748
# 5 11.5955 12.5777 25.4863 -0.0038 28.2042 -0.0004
# 6 -0.0005 -0.0001 -0.0081 3.8748 -0.0004 17.9797
#
#
#
# Elastic Compliance Matrix: (Units=1/GPa)
#
#
# Indices 1 2 3 4 5 6 
#
# 1 0.018073 -0.004470 -0.005491 0.000000 -0.000475 -0.000002
# 2 -0.004470 0.011873 -0.000753 -0.000001 -0.002776 0.000000
# 3 -0.005491 -0.000753 0.014358 0.000001 -0.010381 0.000006
# 4 0.000000 -0.000001 0.000001 0.026004 0.000004 -0.005604
# 5 -0.000475 -0.002776 -0.010381 0.000004 0.046270 -0.000004
# 6 -0.000002 0.000000 0.000006 -0.005604 -0.000004 0.056826
#
#
# Mechanical properties :
#
#
# Convention : Reuss Voigt Hill
#
# Bulk Modulus (GPa) = 43.71667 53.62100 48.66884
# Shear Modulus (GPa) = 24.69676 29.20928 26.95302
#
# Velocity S-wave (km/s) = 3.55810 3.86953 3.71708
# Velocity P-wave (km/s) = 6.26819 6.88851 6.58566
#
# Compressibility (1/GPa) = 0.02287457
#
# Stress axis : x y z
#
# Youngs Moduli (GPa) = 55.33256 84.22683 69.64900
#
# Poissons Ratio (x) = 0.37653 0.38241
# Poissons Ratio (y) = 0.24736 0.05246
# Poissons Ratio (z) = 0.30381 0.06344
#
# Static dielectric constant tensor:
#      x y z
#    x 1.744200 0.000000 -0.060040 
#    y 0.000000 1.708430 0.000010 
#    z -0.060040 0.000010 1.632350 
# 
# From -- ./inp_files/234986.got.cif
#   From: 2010.05.17/outbox.cif.g08.bks.cpg/sg15_118_cif.got.tgz:234986.got - 2010.06.03 18:47:42.
