data_PCOD9272486
_publ_section_title
;
Structure prediction by ZEFSAII (Michael W. Deem and Ramdas Pophale) SiO2 
 PCOD9272486
Probable space group: C 2/C
;
_chemical_formula_sum "Si O2"
_cell_formula_units_Z 48
_cell_length_a 10.473961
_cell_length_b 9.410587
_cell_length_c 22.571698
_cell_angle_alpha 90.000000
_cell_angle_beta 109.013896
_cell_angle_gamma 90.000000
_cell_volume 2103.418458
_symmetry_space_group_name_H-M "C 2/C"
_symmetry_group_IT_number 15
_symmetry_cell_setting 'monoclinic'
loop_
_space_group_symop_operation_xyz
x,y,z
-x,y,1/2-z
-x,-y,-z
x,-y,1/2+z
1/2+x,1/2+y,z
1/2-x,1/2+y,1/2-z
1/2-x,1/2-y,-z
1/2+x,1/2-y,1/2+z
loop_
_atom_site_type_symbol
_atom_site_label
_atom_site_fract_x
_atom_site_fract_y
_atom_site_fract_z
Si Si1 0.806494 0.590289 0.586739
Si Si2 0.658297 0.094923 0.288889
Si Si3 0.801699 0.897898 0.034891
Si Si4 0.643967 0.598947 0.749857
Si Si5 0.061901 0.465044 0.073720
Si Si6 0.921530 0.226732 0.886998
O O1 0.809701 0.484773 0.644343
O O2 0.735599 0.513936 0.520193
O O3 0.709627 0.716162 0.591751
O O4 0.956628 0.638996 0.590120
O O5 0.500000 0.077731 0.250000
O O6 0.687122 0.264228 0.295531
O O7 0.746035 0.019155 0.250201
O O8 0.958785 0.873014 0.070945
O O9 0.714319 0.925678 0.081127
O O10 0.750000 0.750000 0.000000
O O11 0.500000 0.539151 0.750000
O O12 0.612318 0.675142 0.682933
O O13 0.040666 0.609425 0.106602
O O14 0.000000 0.500000 0.000000
#
# Coordination Sequence:
#
# PCOD9272486 Si02
#       6
#     8   8   8   8   8   8
#     4  10  22  41  59  86 121 157 197 243 301 352
#     4  10  22  42  62  88 119 160 201 255 301 360
#     4  11  22  38  60  88 121 156 195 237 296 360
#     4  10  23  40  65  88 122 158 204 252 304 353
#     4  10  20  37  57  84 116 155 192 237 284 350
#     4  11  22  41  59  88 122 155 199 245 294 356
#
# _framework density 22.819997000000001
#
# number of rings (size 3 to 8) (size 9 to 14) (size 15 to 20)
#    0.000    1.667    3.333    2.500    0.000    6.000 
#    3.000    3.333    0.000    0.000    0.000    0.000 
#    0.000    0.000    0.000    0.000    0.000    0.000 
#
# Total GULP energy -134102.337374 kJ/mol
# GULP energy per Si atom -5587.597391 kJ/mol
# Density = 2.276806 g / cm^3
# Si number density = 22.819997 Si / 1000 Ang^3
#
#
#
# Elastic Constant Matrix: (Units=GPa)
#
#
# Indices 1 2 3 4 5 6 
#
# 1 168.6000 33.8149 7.4729 0.0000 -29.6622 0.0000
# 2 33.8149 39.5445 5.5218 0.0000 0.7660 0.0000
# 3 7.4729 5.5218 67.2499 0.0000 10.0577 0.0000
# 4 0.0000 0.0000 0.0000 17.0577 0.0000 -11.7592
# 5 -29.6622 0.7660 10.0577 0.0000 29.5487 0.0000
# 6 0.0000 0.0000 0.0000 -11.7592 0.0000 32.7929
#
#
#
# Elastic Compliance Matrix: (Units=1/GPa)
#
#
# Indices 1 2 3 4 5 6 
#
# 1 0.009443 -0.008004 -0.001940 0.000000 0.010347 0.000000
# 2 -0.008004 0.032366 -0.000465 0.000000 -0.008716 0.000000
# 3 -0.001940 -0.000465 0.016240 0.000000 -0.007463 0.000000
# 4 0.000000 0.000000 0.000000 0.077876 0.000000 0.027925
# 5 0.010347 -0.008716 -0.007463 0.000000 0.046995 0.000000
# 6 0.000000 0.000000 0.000000 0.027925 0.000000 0.040508
#
#
# Mechanical properties :
#
#
# Convention : Reuss Voigt Hill
#
# Bulk Modulus (GPa) = 26.85863 41.00151 33.93007
# Shear Modulus (GPa) = 19.48139 31.11883 25.30011
#
# Velocity S-wave (km/s) = 2.92498 3.69679 3.33330
# Velocity P-wave (km/s) = 4.81692 6.01897 5.45118
#
# Compressibility (1/GPa) = 0.03723198
#
# Stress axis : x y z
#
# Youngs Moduli (GPa) = 105.90002 30.89638 61.57767
#
# Poissons Ratio (x) = 0.24730 0.11943
# Poissons Ratio (y) = 0.84765 0.02861
# Poissons Ratio (z) = 0.20539 0.01435
#
# Static dielectric constant tensor:
#      x y z
#    x 1.929090 0.000000 -0.042520 
#    y 0.000000 1.890070 0.000000 
#    z -0.042520 0.000000 1.887250 
# 
# From -- ./inp_files/263258.got.cif
#   From: 2010.05.17/outbox.cif.g08.bks.cpg/sg15_132_cif.got.tgz:263258.got - 2010.06.03 18:47:42.
