data_PCOD9272095
_publ_section_title
;
Structure prediction by ZEFSAII (Michael W. Deem and Ramdas Pophale) SiO2 
 PCOD9272095
Probable space group: C 2/C
;
_chemical_formula_sum "Si O2"
_cell_formula_units_Z 48
_cell_length_a 14.226550
_cell_length_b 21.524597
_cell_length_c 11.870955
_cell_angle_alpha 90.000000
_cell_angle_beta 137.147225
_cell_angle_gamma 90.000000
_cell_volume 2472.315085
_symmetry_space_group_name_H-M "C 2/C"
_symmetry_group_IT_number 15
_symmetry_cell_setting 'monoclinic'
loop_
_space_group_symop_operation_xyz
x,y,z
-x,y,1/2-z
-x,-y,-z
x,-y,1/2+z
1/2+x,1/2+y,z
1/2-x,1/2+y,1/2-z
1/2-x,1/2-y,-z
1/2+x,1/2-y,1/2+z
loop_
_atom_site_type_symbol
_atom_site_label
_atom_site_fract_x
_atom_site_fract_y
_atom_site_fract_z
Si Si1 0.854669 0.177061 0.688274
Si Si2 0.656174 0.113513 0.350050
Si Si3 0.142519 0.706125 0.148932
Si Si4 0.436512 0.399672 0.461686
Si Si5 0.059261 0.225729 0.177674
Si Si6 0.887703 0.982957 0.050095
O O1 0.733180 0.164741 0.494785
O O2 0.857427 0.243066 0.751037
O O3 0.843191 0.127326 0.779394
O O4 0.000000 0.167838 0.750000
O O5 0.500000 0.106177 0.250000
O O6 0.656950 0.140102 0.223211
O O7 0.745226 0.051694 0.450496
O O8 0.275895 0.721376 0.189478
O O9 0.004479 0.720147 0.957130
O O10 0.501135 0.339557 0.577926
O O11 0.550461 0.440708 0.496521
O O12 0.369055 0.446985 0.490203
O O13 0.000000 0.233977 0.250000
O O14 0.000000 0.982474 0.250000
#
# Coordination Sequence:
#
# PCOD9272095 Si02
#       6
#     8   8   8   8   8   8
#     4  11  19  38  59  87 118 155 197 239 288 349
#     4  12  21  35  56  91 122 152 185 243 301 347
#     4  11  22  36  57  87 119 156 194 240 292 350
#     4  10  20  36  64  84 108 152 206 246 279 335
#     4  11  22  39  58  86 117 157 198 242 291 350
#     4  11  20  38  62  85 115 151 202 246 283 340
#
# _framework density 19.415001
#
# number of rings (size 3 to 8) (size 9 to 14) (size 15 to 20)
#    0.000    1.000    5.000    4.000    0.000    0.000 
#    0.000    0.833    0.000    8.000    0.000    0.000 
#    0.000    0.000    0.000    0.000    0.000    0.000 
#
# Total GULP energy -134002.067158 kJ/mol
# GULP energy per Si atom -5583.419465 kJ/mol
# Density = 1.937081 g / cm^3
# Si number density = 19.415001 Si / 1000 Ang^3
#
#
#
# Elastic Constant Matrix: (Units=GPa)
#
#
# Indices 1 2 3 4 5 6 
#
# 1 85.3906 7.4390 36.1748 0.0000 10.8864 0.0000
# 2 7.4390 61.3245 22.5025 0.0000 -9.4712 0.0000
# 3 36.1748 22.5025 67.2212 0.0000 7.0313 0.0000
# 4 0.0000 0.0000 0.0000 27.0031 0.0000 -13.4773
# 5 10.8864 -9.4712 7.0313 0.0000 31.6378 0.0000
# 6 0.0000 0.0000 0.0000 -13.4773 0.0000 22.6134
#
#
#
# Elastic Compliance Matrix: (Units=1/GPa)
#
#
# Indices 1 2 3 4 5 6 
#
# 1 0.015573 0.000617 -0.008238 0.000000 -0.003343 0.000000
# 2 0.000617 0.020322 -0.007934 0.000000 0.007634 0.000000
# 3 -0.008238 -0.007934 0.022439 0.000000 -0.004527 0.000000
# 4 0.000000 0.000000 0.000000 0.052712 0.000000 0.031416
# 5 -0.003343 0.007634 -0.004527 0.000000 0.036050 0.000000
# 6 0.000000 0.000000 0.000000 0.031416 0.000000 0.062945
#
#
# Mechanical properties :
#
#
# Convention : Reuss Voigt Hill
#
# Bulk Modulus (GPa) = 36.72956 38.46319 37.59637
# Shear Modulus (GPa) = 19.98210 26.10554 23.04382
#
# Velocity S-wave (km/s) = 3.21161 3.67087 3.44889
# Velocity P-wave (km/s) = 5.71942 6.14988 5.93855
#
# Compressibility (1/GPa) = 0.02722603
#
# Stress axis : x y z
#
# Youngs Moduli (GPa) = 64.21344 49.20752 44.56603
#
# Poissons Ratio (x) = -0.03037 0.36711
# Poissons Ratio (y) = -0.03964 0.35357
# Poissons Ratio (z) = 0.52896 0.39039
#
# Static dielectric constant tensor:
#      x y z
#    x 1.693290 0.000000 -0.013570 
#    y 0.000000 1.701700 0.000000 
#    z -0.013570 0.000000 1.672650 
# 
# From -- ./inp_files/100050.got.cif
#   From: 2010.05.17/outbox.cif.g08.bks.cpg/sg15_51_cif.got.tgz:100050.got - 2010.06.03 18:47:42.
