data_PCOD9272603
_publ_section_title
;
Structure prediction by ZEFSAII (Michael W. Deem and Ramdas Pophale) SiO2 
 PCOD9272603
Probable space group: C 2/C
;
_chemical_formula_sum "Si O2"
_cell_formula_units_Z 56
_cell_length_a 29.731986
_cell_length_b 16.429643
_cell_length_c 9.693612
_cell_angle_alpha 90.000000
_cell_angle_beta 151.189786
_cell_angle_gamma 90.000000
_cell_volume 2281.936277
_symmetry_space_group_name_H-M "C 2/C"
_symmetry_group_IT_number 15
_symmetry_cell_setting 'monoclinic'
loop_
_space_group_symop_operation_xyz
x,y,z
-x,y,1/2-z
-x,-y,-z
x,-y,1/2+z
1/2+x,1/2+y,z
1/2-x,1/2+y,1/2-z
1/2-x,1/2-y,-z
1/2+x,1/2-y,1/2+z
loop_
_atom_site_type_symbol
_atom_site_label
_atom_site_fract_x
_atom_site_fract_y
_atom_site_fract_z
Si Si1 0.324497 0.852179 0.801557
Si Si2 0.579288 0.748333 0.678550
Si Si3 0.364069 0.989326 0.088121
Si Si4 0.161660 0.939252 0.995440
Si Si5 0.379968 0.420480 0.318136
Si Si6 0.482137 0.123755 0.046732
Si Si7 0.748923 0.734548 0.660526
O O1 0.373998 0.792192 0.827998
O O2 0.227921 0.886024 0.477455
O O3 0.295819 0.803506 0.861813
O O4 0.382927 0.930671 0.007085
O O5 0.567128 0.653820 0.613859
O O6 0.485845 0.796232 0.464071
O O7 0.647834 0.765357 0.992532
O O8 0.432586 0.065725 0.273035
O O9 0.390876 0.931543 0.287335
O O10 0.257294 0.013975 0.795640
O O11 0.100428 0.932835 0.968512
O O12 0.196078 0.850686 0.041515
O O13 0.117158 0.995768 0.758415
O O14 0.500000 0.145661 0.250000
O O15 0.750000 0.750000 0.500000
#
# Coordination Sequence:
#
# PCOD9272603 Si02
#       7
#     8   8   8   8   8   8   8
#     4  10  20  37  59  79 122 165 200 247 313 371
#     4  11  21  42  55  79 124 169 208 249 304 370
#     4  10  24  36  57  88 123 163 200 250 307 378
#     4  11  21  37  60  91 124 150 203 256 322 376
#     4  10  21  35  58  87 117 161 190 259 317 368
#     4  11  25  37  57  85 125 168 209 249 301 365
#     4  11  22  34  58  87 122 161 204 253 313 376
#
# _framework density 24.540562000000001
#
# number of rings (size 3 to 8) (size 9 to 14) (size 15 to 20)
#    0.000    1.429    4.286    0.857   16.000    0.000 
#    0.000    0.000    0.000    0.000    0.000    4.000 
#    0.000    0.000    0.000    0.000    0.000    0.000 
#
# Total GULP energy -156842.489075 kJ/mol
# GULP energy per Si atom -5601.517467 kJ/mol
# Density = 2.448471 g / cm^3
# Si number density = 24.540562 Si / 1000 Ang^3
#
#
#
# Elastic Constant Matrix: (Units=GPa)
#
#
# Indices 1 2 3 4 5 6 
#
# 1 104.4145 47.1551 38.2438 0.0000 -46.6927 0.0000
# 2 47.1551 147.7120 28.9205 0.0000 -28.1762 0.0000
# 3 38.2438 28.9205 73.4311 0.0000 -17.4822 0.0000
# 4 0.0000 0.0000 0.0000 38.0142 0.0000 -12.2180
# 5 -46.6927 -28.1762 -17.4822 0.0000 43.3146 0.0000
# 6 0.0000 0.0000 0.0000 -12.2180 0.0000 21.7025
#
#
#
# Elastic Compliance Matrix: (Units=1/GPa)
#
#
# Indices 1 2 3 4 5 6 
#
# 1 0.021132 -0.001974 -0.005654 0.000000 0.019214 0.000000
# 2 -0.001974 0.008201 -0.001591 0.000000 0.002564 0.000000
# 3 -0.005654 -0.001591 0.017139 0.000000 -0.000212 0.000000
# 4 0.000000 0.000000 0.000000 0.032118 0.000000 0.018081
# 5 0.019214 0.002564 -0.000212 0.000000 0.045381 0.000000
# 6 0.000000 0.000000 0.000000 0.018081 0.000000 0.056257
#
#
# Mechanical properties :
#
#
# Convention : Reuss Voigt Hill
#
# Bulk Modulus (GPa) = 35.67204 61.57741 48.62472
# Shear Modulus (GPa) = 24.03733 34.68881 29.36307
#
# Velocity S-wave (km/s) = 3.13308 3.76377 3.46282
# Velocity P-wave (km/s) = 5.25888 6.63585 5.98708
#
# Compressibility (1/GPa) = 0.02803316
#
# Stress axis : x y z
#
# Youngs Moduli (GPa) = 47.32253 121.93896 58.34678
#
# Poissons Ratio (x) = 0.24071 0.32988
# Poissons Ratio (y) = 0.09342 0.09284
# Poissons Ratio (z) = 0.26755 0.19403
#
# Static dielectric constant tensor:
#      x y z
#    x 1.912380 0.000000 0.032450 
#    y 0.000000 1.924360 0.000000 
#    z 0.032450 0.000000 2.025060 
# 
# From -- ./inp_files/62797.got.cif
#   From: 2010.05.17/outbox.cif.g08.bks.cpg/sg15_32_cif.got.tgz:62797.got - 2010.06.03 18:47:42.
