data_PCOD9272348
_publ_section_title
;
Structure prediction by ZEFSAII (Michael W. Deem and Ramdas Pophale) SiO2 
 PCOD9272348
Probable space group: C 2/C
;
_chemical_formula_sum "Si O2"
_cell_formula_units_Z 44
_cell_length_a 16.912278
_cell_length_b 16.641605
_cell_length_c 10.843780
_cell_angle_alpha 90.000000
_cell_angle_beta 148.892987
_cell_angle_gamma 90.000000
_cell_volume 1576.755933
_symmetry_space_group_name_H-M "C 2/C"
_symmetry_group_IT_number 15
_symmetry_cell_setting 'monoclinic'
loop_
_space_group_symop_operation_xyz
x,y,z
-x,y,1/2-z
-x,-y,-z
x,-y,1/2+z
1/2+x,1/2+y,z
1/2-x,1/2+y,1/2-z
1/2-x,1/2-y,-z
1/2+x,1/2-y,1/2+z
loop_
_atom_site_type_symbol
_atom_site_label
_atom_site_fract_x
_atom_site_fract_y
_atom_site_fract_z
Si Si1 0.000000 0.437669 0.750000
Si Si2 0.507609 0.645407 0.061935
Si Si3 0.346700 0.657950 0.593276
Si Si4 0.300452 0.482535 0.548968
Si Si5 0.821352 0.291591 0.856569
Si Si6 0.941699 0.408681 0.413509
O O1 0.847887 0.490916 0.567526
O O2 0.961411 0.382751 0.580934
O O3 0.564205 0.562615 0.199104
O O4 0.666892 0.687034 0.224219
O O5 0.391011 0.633190 0.791532
O O6 0.413052 0.711636 0.011530
O O7 0.500000 0.697615 0.750000
O O8 0.331687 0.566145 0.519284
O O9 0.221582 0.707803 0.349077
O O10 0.228794 0.416672 0.361713
O O11 0.949438 0.360432 0.031276
O O12 0.000000 0.500000 0.500000
#
# Coordination Sequence:
#
# PCOD9272348 Si02
#       6
#     4   8   8   8   8   8
#     4  10  20  36  74 100 130 178 240 288 350 412
#     4  11  25  42  68 100 144 185 229 288 354 413
#     4  10  22  42  67  96 138 176 235 292 339 408
#     4  11  22  41  68 104 135 178 231 295 347 409
#     4  11  23  46  65 101 141 188 228 284 352 424
#     4  10  20  40  68  99 130 176 233 285 342 419
#
# _framework density 27.905398000000002
#
# number of rings (size 3 to 8) (size 9 to 14) (size 15 to 20)
#    0.000    1.455    3.636    3.273    2.545    2.182 
#    8.182    0.000    0.000    0.000    0.000    0.000 
#    0.000    0.000    0.000    0.000    0.000    0.000 
#
# Total GULP energy -122937.123135 kJ/mol
# GULP energy per Si atom -5588.051052 kJ/mol
# Density = 2.784188 g / cm^3
# Si number density = 27.905398 Si / 1000 Ang^3
#
#
#
# Elastic Constant Matrix: (Units=GPa)
#
#
# Indices 1 2 3 4 5 6 
#
# 1 66.5498 22.7346 29.0239 0.0000 9.1091 0.0000
# 2 22.7346 127.0796 64.4225 0.0000 27.0240 0.0000
# 3 29.0239 64.4225 161.3121 0.0000 -4.1810 0.0000
# 4 0.0000 0.0000 0.0000 54.5742 0.0000 14.8533
# 5 9.1091 27.0240 -4.1810 0.0000 52.2083 0.0000
# 6 0.0000 0.0000 0.0000 14.8533 0.0000 38.2704
#
#
#
# Elastic Compliance Matrix: (Units=1/GPa)
#
#
# Indices 1 2 3 4 5 6 
#
# 1 0.016926 -0.001130 -0.002661 0.000000 -0.002581 0.000000
# 2 -0.001130 0.011765 -0.004657 0.000000 -0.006265 0.000000
# 3 -0.002661 -0.004657 0.008630 0.000000 0.003566 0.000000
# 4 0.000000 0.000000 0.000000 0.020488 0.000000 -0.007952
# 5 -0.002581 -0.006265 0.003566 0.000000 0.023133 0.000000
# 6 0.000000 0.000000 0.000000 -0.007952 0.000000 0.029216
#
#
# Mechanical properties :
#
#
# Convention : Reuss Voigt Hill
#
# Bulk Modulus (GPa) = 48.96180 65.25594 57.10887
# Shear Modulus (GPa) = 37.35143 44.92796 41.13969
#
# Velocity S-wave (km/s) = 3.66252 4.01685 3.84377
# Velocity P-wave (km/s) = 5.95560 6.70439 6.34106
#
# Compressibility (1/GPa) = 0.02042409
#
# Stress axis : x y z
#
# Youngs Moduli (GPa) = 59.07978 84.99979 115.86952
#
# Poissons Ratio (x) = 0.09607 0.30833
# Poissons Ratio (y) = 0.06677 0.53966
# Poissons Ratio (z) = 0.15721 0.39588
#
# Static dielectric constant tensor:
#      x y z
#    x 2.415990 0.000000 -0.103000 
#    y 0.000000 2.173290 0.000000 
#    z -0.103000 0.000000 2.174670 
# 
# From -- ./inp_files/174453.got.cif
#   From: 2010.05.17/outbox.cif.g08.bks.cpg/sg15_88_cif.got.tgz:174453.got - 2010.06.03 18:47:42.
