data_PCOD9272340
_publ_section_title
;
Structure prediction by ZEFSAII (Michael W. Deem and Ramdas Pophale) SiO2 
 PCOD9272340
Probable space group: C 2/C
;
_chemical_formula_sum "Si O2"
_cell_formula_units_Z 52
_cell_length_a 30.319873
_cell_length_b 9.460432
_cell_length_c 29.932046
_cell_angle_alpha 90.000000
_cell_angle_beta 161.782231
_cell_angle_gamma 90.000000
_cell_volume 2684.137308
_symmetry_space_group_name_H-M "C 2/C"
_symmetry_group_IT_number 15
_symmetry_cell_setting 'monoclinic'
loop_
_space_group_symop_operation_xyz
x,y,z
-x,y,1/2-z
-x,-y,-z
x,-y,1/2+z
1/2+x,1/2+y,z
1/2-x,1/2+y,1/2-z
1/2-x,1/2-y,-z
1/2+x,1/2-y,1/2+z
loop_
_atom_site_type_symbol
_atom_site_label
_atom_site_fract_x
_atom_site_fract_y
_atom_site_fract_z
Si Si1 0.281470 0.950125 0.717354
Si Si2 0.211740 0.155851 0.820896
Si Si3 0.063043 0.029688 0.440746
Si Si4 0.803574 0.422377 0.842326
Si Si5 0.273770 0.346744 0.963557
Si Si6 0.551468 0.215842 0.627697
Si Si7 0.500000 0.771537 0.750000
O O1 0.325401 0.794184 0.744224
O O2 0.293528 0.969886 0.781763
O O3 0.124706 0.978228 0.547902
O O4 0.376010 0.072529 0.786581
O O5 0.276917 0.221707 0.928875
O O6 0.302745 0.052228 0.876721
O O7 0.075095 0.063443 0.701654
O O8 0.029326 0.194035 0.412660
O O9 0.179838 0.987055 0.517472
O O10 0.670453 0.322318 0.724474
O O11 0.941428 0.329316 0.983927
O O12 0.116071 0.353069 0.831681
O O13 0.393490 0.315578 0.115618
#
# Coordination Sequence:
#
# PCOD9272340 Si02
#       7
#     8   8   8   8   8   8   4
#     4  11  23  37  60  86 122 172 226 258 302 356
#     4  10  23  36  62  91 132 160 209 269 305 361
#     4  10  22  39  57  89 130 161 205 259 314 370
#     4  11  24  39  59  86 126 173 222 260 304 360
#     4  10  20  39  62 102 127 159 196 264 318 375
#     4  11  23  40  55  84 119 172 212 258 313 364
#     4  10  20  36  70  98 132 148 204 260 324 392
#
# _framework density 19.373078
#
# number of rings (size 3 to 8) (size 9 to 14) (size 15 to 20)
#    0.000    1.538    3.077    1.385    6.462    1.231 
#    0.000    0.000    0.000    0.000    0.000   36.615 
#    0.000    0.000    0.000    0.000    0.000    0.000 
#
# Total GULP energy -145061.192890 kJ/mol
# GULP energy per Si atom -5579.276650 kJ/mol
# Density = 1.932898 g / cm^3
# Si number density = 19.373078 Si / 1000 Ang^3
#
#
#
# Elastic Constant Matrix: (Units=GPa)
#
#
# Indices 1 2 3 4 5 6 
#
# 1 69.5014 25.5812 28.7142 0.0025 -6.4322 -0.0003
# 2 25.5812 99.0016 21.1265 -0.0018 3.0137 0.0019
# 3 28.7142 21.1265 91.1788 -0.0136 -6.9022 0.0011
# 4 0.0025 -0.0018 -0.0136 27.9348 -0.0014 17.2928
# 5 -6.4322 3.0137 -6.9022 -0.0014 25.1552 0.0004
# 6 -0.0003 0.0019 0.0011 17.2928 0.0004 37.1604
#
#
#
# Elastic Compliance Matrix: (Units=1/GPa)
#
#
# Indices 1 2 3 4 5 6 
#
# 1 0.018002 -0.003808 -0.004497 -0.000006 0.003825 0.000003
# 2 -0.003808 0.011530 -0.001686 0.000001 -0.002818 -0.000001
# 3 -0.004497 -0.001686 0.012972 0.000010 0.002611 -0.000005
# 4 -0.000006 0.000001 0.000010 0.050283 0.000004 -0.023400
# 5 0.003825 -0.002818 0.002611 0.000004 0.041785 -0.000002
# 6 0.000003 -0.000001 -0.000005 -0.023400 -0.000002 0.037799
#
#
# Mechanical properties :
#
#
# Convention : Reuss Voigt Hill
#
# Bulk Modulus (GPa) = 44.40105 45.61394 45.00749
# Shear Modulus (GPa) = 25.01728 30.33406 27.67567
#
# Velocity S-wave (km/s) = 3.59742 3.96129 3.78373
# Velocity P-wave (km/s) = 6.34224 6.67222 6.50932
#
# Compressibility (1/GPa) = 0.02252199
#
# Stress axis : x y z
#
# Youngs Moduli (GPa) = 55.54952 86.72756 77.08922
#
# Poissons Ratio (x) = 0.33029 0.34669
# Poissons Ratio (y) = 0.21155 0.12994
# Poissons Ratio (z) = 0.24982 0.14619
#
# Static dielectric constant tensor:
#      x y z
#    x 1.709040 0.000000 0.022170 
#    y 0.000000 1.660090 0.000000 
#    z 0.022170 0.000000 1.713480 
# 
# From -- ./inp_files/320211.got.cif
#   From: 2010.05.17/outbox.cif.g08.bks.cpg/sg15_161_cif.got.tgz:320211.got - 2010.06.03 18:47:42.
