data_PCOD9272826
_publ_section_title
;
Structure prediction by ZEFSAII (Michael W. Deem and Ramdas Pophale) SiO2 
 PCOD9272826
Probable space group: C 2/C
;
_chemical_formula_sum "Si O2"
_cell_formula_units_Z 56
_cell_length_a 21.634100
_cell_length_b 7.804133
_cell_length_c 17.782010
_cell_angle_alpha 90.000000
_cell_angle_beta 65.202475
_cell_angle_gamma 90.000000
_cell_volume 2725.413589
_symmetry_space_group_name_H-M "C 2/C"
_symmetry_group_IT_number 15
_symmetry_cell_setting 'monoclinic'
loop_
_space_group_symop_operation_xyz
x,y,z
-x,y,1/2-z
-x,-y,-z
x,-y,1/2+z
1/2+x,1/2+y,z
1/2-x,1/2+y,1/2-z
1/2-x,1/2-y,-z
1/2+x,1/2-y,1/2+z
loop_
_atom_site_type_symbol
_atom_site_label
_atom_site_fract_x
_atom_site_fract_y
_atom_site_fract_z
Si Si1 0.882071 0.689072 0.393712
Si Si2 0.119100 0.192607 0.070915
Si Si3 0.887109 0.756089 0.680352
Si Si4 0.193712 0.396139 0.143915
Si Si5 0.016618 0.471850 0.077987
Si Si6 0.329427 0.383475 0.552160
Si Si7 0.927751 0.981534 0.276550
O O1 0.864687 0.525456 0.353113
O O2 0.954493 0.643006 0.396195
O O3 0.830170 0.734529 0.488149
O O4 0.876638 0.846626 0.338598
O O5 0.186893 0.250695 0.082092
O O6 0.081465 0.344638 0.047951
O O7 0.071038 0.137505 0.164696
O O8 0.127031 0.033119 0.011116
O O9 0.827459 0.683072 0.765248
O O10 0.861197 0.800636 0.610450
O O11 0.950385 0.622888 0.646415
O O12 0.910598 0.935228 0.706458
O O13 0.260850 0.512638 0.107399
O O14 0.000000 0.500000 0.000000
O O15 0.000000 0.894156 0.250000
#
# Coordination Sequence:
#
# PCOD9272826 Si02
#       7
#     8   8   8   8   8   8   8
#     4  10  23  38  66  91 116 168 208 255 303 383
#     4   9  21  39  66  87 116 167 198 252 304 371
#     4  11  24  40  61  92 130 162 197 272 313 363
#     4  10  23  42  62  89 126 164 208 250 308 365
#     4  11  21  40  61  94 124 152 207 255 324 356
#     4  11  22  43  62  90 123 162 214 247 305 370
#     4  10  20  37  60  90 122 153 200 250 314 368
#
# _framework density 20.547339999999998
#
# number of rings (size 3 to 8) (size 9 to 14) (size 15 to 20)
#    0.000    1.714    2.857    0.857    2.000    2.857 
#    2.571    1.429    0.000    0.000    0.000    0.000 
#    0.000    0.000    0.000    0.000    0.000    0.000 
#
# Total GULP energy -155909.733988 kJ/mol
# GULP energy per Si atom -5568.204785 kJ/mol
# Density = 2.050057 g / cm^3
# Si number density = 20.547340 Si / 1000 Ang^3
#
#
#
# Elastic Constant Matrix: (Units=GPa)
#
#
# Indices 1 2 3 4 5 6 
#
# 1 55.5182 7.8801 26.7492 0.0001 3.9183 0.0001
# 2 7.8801 62.7465 22.7742 0.0001 13.5997 0.0001
# 3 26.7492 22.7742 92.5602 0.0000 10.9192 0.0001
# 4 0.0001 0.0001 0.0000 31.7291 0.0000 11.1874
# 5 3.9183 13.5997 10.9192 0.0000 29.2419 0.0000
# 6 0.0001 0.0001 0.0001 11.1874 0.0000 32.6958
#
#
#
# Elastic Compliance Matrix: (Units=1/GPa)
#
#
# Indices 1 2 3 4 5 6 
#
# 1 0.020943 -0.000396 -0.005906 0.000000 -0.000417 0.000000
# 2 -0.000396 0.018917 -0.003670 0.000000 -0.007374 0.000000
# 3 -0.005906 -0.003670 0.013723 0.000000 -0.002626 0.000000
# 4 0.000000 0.000000 0.000000 0.035841 0.000000 -0.012264
# 5 -0.000417 -0.007374 -0.002626 0.000000 0.038664 0.000000
# 6 0.000000 0.000000 0.000000 -0.012264 0.000000 0.034781
#
#
# Mechanical properties :
#
#
# Convention : Reuss Voigt Hill
#
# Bulk Modulus (GPa) = 29.72690 36.18131 32.95410
# Shear Modulus (GPa) = 25.76960 28.96144 27.36552
#
# Velocity S-wave (km/s) = 3.54525 3.75840 3.65338
# Velocity P-wave (km/s) = 5.59083 6.03996 5.81973
#
# Compressibility (1/GPa) = 0.03363956
#
# Stress axis : x y z
#
# Youngs Moduli (GPa) = 47.74812 52.86162 72.86862
#
# Poissons Ratio (x) = 0.02095 0.43034
# Poissons Ratio (y) = 0.01892 0.26743
# Poissons Ratio (z) = 0.28199 0.19401
#
# Static dielectric constant tensor:
#      x y z
#    x 1.773420 0.000000 -0.061420 
#    y 0.000000 1.805310 0.000000 
#    z -0.061420 0.000000 1.745800 
# 
# From -- ./inp_files/213810.got.cif
#   From: 2010.05.17/outbox.cif.g08.bks.cpg/sg15_107_cif.got.tgz:213810.got - 2010.06.03 18:47:42.
