data_PCOD9272109
_publ_section_title
;
Structure prediction by ZEFSAII (Michael W. Deem and Ramdas Pophale) SiO2 
 PCOD9272109
Probable space group: C 2/C
;
_chemical_formula_sum "Si O2"
_cell_formula_units_Z 36
_cell_length_a 12.639126
_cell_length_b 10.162384
_cell_length_c 15.395425
_cell_angle_alpha 90.000000
_cell_angle_beta 121.887231
_cell_angle_gamma 90.000000
_cell_volume 1679.027325
_symmetry_space_group_name_H-M "C 2/C"
_symmetry_group_IT_number 15
_symmetry_cell_setting 'monoclinic'
loop_
_space_group_symop_operation_xyz
x,y,z
-x,y,1/2-z
-x,-y,-z
x,-y,1/2+z
1/2+x,1/2+y,z
1/2-x,1/2+y,1/2-z
1/2-x,1/2-y,-z
1/2+x,1/2-y,1/2+z
loop_
_atom_site_type_symbol
_atom_site_label
_atom_site_fract_x
_atom_site_fract_y
_atom_site_fract_z
Si Si1 0.248692 0.879604 0.443158
Si Si2 0.000000 0.172820 0.750000
Si Si3 0.631090 0.143398 0.689157
Si Si4 0.143217 0.645843 0.973990
Si Si5 0.841611 0.656065 0.315972
O O1 0.250000 0.750000 0.500000
O O2 0.111024 0.906769 0.344416
O O3 0.334789 0.851384 0.397950
O O4 0.301242 0.001718 0.518726
O O5 0.934629 0.262809 0.794789
O O6 0.483975 0.163805 0.633739
O O7 0.714586 0.258807 0.765327
O O8 0.668880 0.991980 0.727054
O O9 0.114602 0.647082 0.065240
O O10 0.250000 0.750000 0.000000
#
# Coordination Sequence:
#
# PCOD9272109 Si02
#       5
#     8   4   8   8   8
#     4  10  20  38  61  85 118 159 198 239 291 352
#     4  10  20  36  64  88 112 156 202 244 290 354
#     4  10  22  40  60  87 119 153 196 244 292 346
#     4  11  24  39  59  87 123 156 191 246 294 343
#     4  10  22  40  62  88 117 153 197 244 293 348
#
# _framework density 21.440985000000001
#
# number of rings (size 3 to 8) (size 9 to 14) (size 15 to 20)
#    0.000    1.778    0.000    5.333    0.000   11.556 
#    0.000    3.333    0.000    0.000    0.000    0.000 
#    0.000    0.000    0.000    0.000    0.000    0.000 
#
# Total GULP energy -100588.307417 kJ/mol
# GULP energy per Si atom -5588.239301 kJ/mol
# Density = 2.139218 g / cm^3
# Si number density = 21.440985 Si / 1000 Ang^3
#
#
#
# Elastic Constant Matrix: (Units=GPa)
#
#
# Indices 1 2 3 4 5 6 
#
# 1 82.6337 31.4238 36.1812 0.0000 31.0011 0.0000
# 2 31.4238 84.7044 35.5409 0.0000 27.2436 0.0000
# 3 36.1812 35.5409 92.6111 0.0000 39.7262 0.0000
# 4 0.0000 0.0000 0.0000 32.9366 0.0000 1.0782
# 5 31.0011 27.2436 39.7262 0.0000 54.9867 0.0000
# 6 0.0000 0.0000 0.0000 1.0782 0.0000 23.5141
#
#
#
# Elastic Compliance Matrix: (Units=1/GPa)
#
#
# Indices 1 2 3 4 5 6 
#
# 1 0.016721 -0.003143 -0.002826 0.000000 -0.005828 0.000000
# 2 -0.003143 0.015456 -0.003157 0.000000 -0.003605 0.000000
# 3 -0.002826 -0.003157 0.017040 0.000000 -0.009153 0.000000
# 4 0.000000 0.000000 0.000000 0.030407 0.000000 -0.001394
# 5 -0.005828 -0.003605 -0.009153 0.000000 0.029871 0.000000
# 6 0.000000 0.000000 0.000000 -0.001394 0.000000 0.042592
#
#
# Mechanical properties :
#
#
# Convention : Reuss Voigt Hill
#
# Bulk Modulus (GPa) = 32.29593 51.80456 42.05025
# Shear Modulus (GPa) = 27.67629 32.74103 30.20866
#
# Velocity S-wave (km/s) = 3.59669 3.91196 3.75763
# Velocity P-wave (km/s) = 5.68714 6.67971 6.20331
#
# Compressibility (1/GPa) = 0.03096365
#
# Stress axis : x y z
#
# Youngs Moduli (GPa) = 59.80615 64.70046 58.68548
#
# Poissons Ratio (x) = 0.20333 0.16587
# Poissons Ratio (y) = 0.18795 0.18529
# Poissons Ratio (z) = 0.16904 0.20428
#
# Static dielectric constant tensor:
#      x y z
#    x 1.220910 0.000000 -0.015440 
#    y 0.000000 1.774350 0.000000 
#    z -0.015440 0.000000 1.806270 
# 
# From -- ./inp_files/84337.got.cif
#   From: 2010.05.17/outbox.cif.g08.bks.cpg/sg15_43_cif.got.tgz:84337.got - 2010.06.03 18:47:42.
