data_PCOD9272945
_publ_section_title
;
Structure prediction by ZEFSAII (Michael W. Deem and Ramdas Pophale) SiO2 
 PCOD9272945
Probable space group: C 2/C
;
_chemical_formula_sum "Si O2"
_cell_formula_units_Z 48
_cell_length_a 16.693579
_cell_length_b 9.408067
_cell_length_c 13.078770
_cell_angle_alpha 90.000000
_cell_angle_beta 119.526603
_cell_angle_gamma 90.000000
_cell_volume 1787.307955
_symmetry_space_group_name_H-M "C 2/C"
_symmetry_group_IT_number 15
_symmetry_cell_setting 'monoclinic'
loop_
_space_group_symop_operation_xyz
x,y,z
-x,y,1/2-z
-x,-y,-z
x,-y,1/2+z
1/2+x,1/2+y,z
1/2-x,1/2+y,1/2-z
1/2-x,1/2-y,-z
1/2+x,1/2-y,1/2+z
loop_
_atom_site_type_symbol
_atom_site_label
_atom_site_fract_x
_atom_site_fract_y
_atom_site_fract_z
Si Si1 0.920033 0.292540 0.900254
Si Si2 0.868358 0.350379 0.651606
Si Si3 0.461221 0.566921 0.625032
Si Si4 0.713631 0.749698 0.316984
Si Si5 0.192018 0.046897 0.128895
Si Si6 0.924696 0.640100 0.614564
O O1 0.919211 0.377239 0.793334
O O2 0.817324 0.311643 0.881132
O O3 0.953465 0.138225 0.881765
O O4 0.973230 0.326952 0.037003
O O5 0.907079 0.204180 0.634713
O O6 0.761712 0.347279 0.613110
O O7 0.885250 0.480161 0.587235
O O8 0.500000 0.488673 0.750000
O O9 0.387196 0.502520 0.501199
O O10 0.662240 0.643845 0.206001
O O11 0.657323 0.764803 0.386273
O O12 0.742743 0.911583 0.302474
O O13 0.000000 0.646245 0.750000
#
# Coordination Sequence:
#
# PCOD9272945 Si02
#       6
#     8   8   8   8   8   8
#     4  10  21  38  56  84 127 163 204 257 307 372
#     4   9  21  37  59  90 121 163 210 254 308 365
#     4  10  20  37  61  91 125 164 209 254 305 371
#     4  10  23  41  63  92 126 166 207 255 313 369
#     4  10  21  41  65  93 125 162 209 259 309 366
#     4  11  21  36  60  90 122 162 208 258 316 368
#
# _framework density 26.856031999999999
#
# number of rings (size 3 to 8) (size 9 to 14) (size 15 to 20)
#    0.000    2.000    0.000    3.500    0.000    7.333 
#    0.000   15.833    0.000    0.000    0.000    1.167 
#    0.000    0.000    0.000    0.000    0.000    0.000 
#
# Total GULP energy -134047.631059 kJ/mol
# GULP energy per Si atom -5585.317961 kJ/mol
# Density = 2.679491 g / cm^3
# Si number density = 26.856032 Si / 1000 Ang^3
#
#
#
# Elastic Constant Matrix: (Units=GPa)
#
#
# Indices 1 2 3 4 5 6 
#
# 1 77.1576 11.7074 38.8566 0.0000 -14.1388 0.0000
# 2 11.7074 105.3819 60.6228 0.0000 -23.4265 0.0000
# 3 38.8566 60.6228 160.2786 0.0000 -23.7663 0.0000
# 4 0.0000 0.0000 0.0000 37.3183 0.0000 -23.8697
# 5 -14.1388 -23.4265 -23.7663 0.0000 53.7190 0.0000
# 6 0.0000 0.0000 0.0000 -23.8697 0.0000 37.6858
#
#
#
# Elastic Compliance Matrix: (Units=1/GPa)
#
#
# Indices 1 2 3 4 5 6 
#
# 1 0.015159 0.001045 -0.003651 0.000000 0.002831 0.000000
# 2 0.001045 0.012843 -0.004538 0.000000 0.003869 0.000000
# 3 -0.003651 -0.004538 0.008995 0.000000 0.001040 0.000000
# 4 0.000000 0.000000 0.000000 0.045046 0.000000 0.028532
# 5 0.002831 0.003869 0.001040 0.000000 0.021507 0.000000
# 6 0.000000 0.000000 0.000000 0.028532 0.000000 0.044607
#
#
# Mechanical properties :
#
#
# Convention : Reuss Voigt Hill
#
# Bulk Modulus (GPa) = 44.03131 62.79910 53.41520
# Shear Modulus (GPa) = 29.40936 41.18670 35.29803
#
# Velocity S-wave (km/s) = 3.31278 3.92038 3.62932
# Velocity P-wave (km/s) = 5.57347 6.62774 6.12334
#
# Compressibility (1/GPa) = 0.02271111
#
# Stress axis : x y z
#
# Youngs Moduli (GPa) = 65.96714 77.86043 111.17753
#
# Poissons Ratio (x) = -0.08138 0.40587
# Poissons Ratio (y) = -0.06895 0.50448
# Poissons Ratio (z) = 0.24082 0.35330
#
# Static dielectric constant tensor:
#      x y z
#    x 2.147770 0.000000 0.050350 
#    y 0.000000 2.064920 0.000000 
#    z 0.050350 0.000000 2.250490 
# 
# From -- ./inp_files/104290.got.cif
#   From: 2010.05.17/outbox.cif.g08.bks.cpg/sg15_53_cif.got.tgz:104290.got - 2010.06.03 18:47:42.
