data_PCOD9272140
_publ_section_title
;
Structure prediction by ZEFSAII (Michael W. Deem and Ramdas Pophale) SiO2 
 PCOD9272140
Probable space group: C 2/C
;
_chemical_formula_sum "Si O2"
_cell_formula_units_Z 56
_cell_length_a 16.964515
_cell_length_b 19.256273
_cell_length_c 8.727057
_cell_angle_alpha 90.000000
_cell_angle_beta 58.068223
_cell_angle_gamma 90.000000
_cell_volume 2419.494749
_symmetry_space_group_name_H-M "C 2/C"
_symmetry_group_IT_number 15
_symmetry_cell_setting 'monoclinic'
loop_
_space_group_symop_operation_xyz
x,y,z
-x,y,1/2-z
-x,-y,-z
x,-y,1/2+z
1/2+x,1/2+y,z
1/2-x,1/2+y,1/2-z
1/2-x,1/2-y,-z
1/2+x,1/2-y,1/2+z
loop_
_atom_site_type_symbol
_atom_site_label
_atom_site_fract_x
_atom_site_fract_y
_atom_site_fract_z
Si Si1 0.908445 0.594542 0.078421
Si Si2 0.971886 0.745479 0.956677
Si Si3 0.729538 0.682792 0.845807
Si Si4 0.437028 0.569355 0.167881
Si Si5 0.878507 0.922416 0.227769
Si Si6 0.000000 0.494357 0.750000
Si Si7 0.773515 0.171187 0.296906
Si Si8 0.500000 0.318462 0.250000
O O1 0.804727 0.625498 0.206104
O O2 0.944460 0.553688 0.188817
O O3 0.969007 0.663037 0.982677
O O4 0.927374 0.542467 0.917917
O O5 0.000000 0.757752 0.750000
O O6 0.870784 0.780911 0.054605
O O7 0.006516 0.774823 0.086215
O O8 0.706123 0.611583 0.780216
O O9 0.787764 0.749177 0.726495
O O10 0.759879 0.671653 0.989488
O O11 0.500000 0.578688 0.250000
O O12 0.368757 0.503697 0.271954
O O13 0.370010 0.632397 0.206368
O O14 0.519500 0.569135 0.958432
O O15 0.907887 0.867311 0.326178
#
# Coordination Sequence:
#
# PCOD9272140 Si02
#       8
#     8   8   8   8   8   4   8   4
#     4  10  21  40  63  93 125 166 227 278 346 409
#     4  10  20  36  64  92 122 175 218 274 339 405
#     4   9  20  36  58  89 126 169 223 276 326 407
#     4  11  21  37  63  94 132 186 223 272 353 425
#     4  10  21  37  60  91 133 178 227 275 343 416
#     4  10  21  40  66  90 123 170 222 284 342 422
#     4  10  21  37  60  94 130 171 227 279 339 410
#     4  10  21  34  58  96 129 154 226 286 314 404
#
# _framework density 23.145327000000002
#
# number of rings (size 3 to 8) (size 9 to 14) (size 15 to 20)
#    0.000    2.000    2.857    0.429    4.000    1.143 
#    0.000    0.000    0.000    7.714    0.000    0.000 
#    0.000    0.000    0.000    0.000    0.000    0.000 
#
# Total GULP energy -156027.968046 kJ/mol
# GULP energy per Si atom -5572.427430 kJ/mol
# Density = 2.309265 g / cm^3
# Si number density = 23.145327 Si / 1000 Ang^3
#
#
#
# Elastic Constant Matrix: (Units=GPa)
#
#
# Indices 1 2 3 4 5 6 
#
# 1 77.6071 55.8785 25.8457 0.0000 24.3502 0.0000
# 2 55.8785 160.6284 36.7931 0.0000 18.6767 0.0000
# 3 25.8457 36.7931 59.6022 0.0000 26.7852 0.0000
# 4 0.0000 0.0000 0.0000 47.2207 0.0000 106.0213
# 5 24.3502 18.6767 26.7852 0.0000 28.8367 0.0000
# 6 0.0000 0.0000 0.0000 106.0213 0.0000 386.2195
#
#
#
# Elastic Compliance Matrix: (Units=1/GPa)
#
#
# Indices 1 2 3 4 5 6 
#
# 1 0.021698 -0.006038 0.001364 0.000000 -0.015679 0.000000
# 2 -0.006038 0.008945 -0.004448 0.000000 0.003436 0.000000
# 3 0.001364 -0.004448 0.031164 0.000000 -0.027218 0.000000
# 4 0.000000 0.000000 0.000000 0.055198 0.000000 -0.015152
# 5 -0.015679 0.003436 -0.027218 0.000000 0.070973 0.000000
# 6 0.000000 0.000000 0.000000 -0.015152 0.000000 0.006749
#
#
# Mechanical properties :
#
#
# Convention : Reuss Voigt Hill
#
# Bulk Modulus (GPa) = 22.95491 59.43025 41.19258
# Shear Modulus (GPa) = 21.97890 104.41006 63.19448
#
# Velocity S-wave (km/s) = 3.08491 6.72373 5.23093
# Velocity P-wave (km/s) = 4.75690 9.27420 7.37018
#
# Compressibility (1/GPa) = 0.04356366
#
# Stress axis : x y z
#
# Youngs Moduli (GPa) = 46.08809 111.79214 32.08825
#
# Poissons Ratio (x) = 0.67495 -0.04377
# Poissons Ratio (y) = 0.27826 0.14273
# Poissons Ratio (z) = -0.06287 0.49727
#
# Static dielectric constant tensor:
#      x y z
#    x 1.887170 0.000000 -0.037530 
#    y 0.000000 2.328500 0.000000 
#    z -0.037530 0.000000 2.060170 
# 
# From -- ./inp_files/50157.got.cif
#   From: 2010.05.17/outbox.cif.g08.bks.cpg/sg15_26_cif.got.tgz:50157.got - 2010.06.03 18:47:42.
