data_PCOD9272780
_publ_section_title
;
Structure prediction by ZEFSAII (Michael W. Deem and Ramdas Pophale) SiO2 
 PCOD9272780
Probable space group: C 2/C
;
_chemical_formula_sum "Si O2"
_cell_formula_units_Z 48
_cell_length_a 10.758324
_cell_length_b 23.538585
_cell_length_c 18.649341
_cell_angle_alpha 90.000000
_cell_angle_beta 33.427741
_cell_angle_gamma 90.000000
_cell_volume 2601.652683
_symmetry_space_group_name_H-M "C 2/C"
_symmetry_group_IT_number 15
_symmetry_cell_setting 'monoclinic'
loop_
_space_group_symop_operation_xyz
x,y,z
-x,y,1/2-z
-x,-y,-z
x,-y,1/2+z
1/2+x,1/2+y,z
1/2-x,1/2+y,1/2-z
1/2-x,1/2-y,-z
1/2+x,1/2-y,1/2+z
loop_
_atom_site_type_symbol
_atom_site_label
_atom_site_fract_x
_atom_site_fract_y
_atom_site_fract_z
Si Si1 0.630916 0.663442 0.759812
Si Si2 0.210028 0.656961 0.064110
Si Si3 0.005859 0.877709 0.661754
Si Si4 0.545556 0.942156 0.880643
Si Si5 0.507538 0.926638 0.070792
Si Si6 0.749627 0.791099 0.702322
O O1 0.500000 0.648101 0.750000
O O2 0.752122 0.724033 0.689727
O O3 0.812066 0.615446 0.690078
O O4 0.437390 0.668915 0.912235
O O5 0.245856 0.674835 0.129043
O O6 0.127092 0.593105 0.085961
O O7 0.992145 0.693963 0.144530
O O8 0.797691 0.919628 0.742914
O O9 0.947997 0.817920 0.653148
O O10 0.000000 0.871043 0.750000
O O11 0.246987 0.903362 0.526130
O O12 0.526162 0.009661 0.884721
O O13 0.498513 0.928127 0.987547
#
# Coordination Sequence:
#
# PCOD9272780 Si02
#       6
#     8   8   8   8   8   8
#     4  12  22  34  61  93 118 149 202 252 290 344
#     4  10  20  37  60  88 116 154 199 247 296 339
#     4   9  20  38  59  83 113 160 198 234 300 357
#     4   9  19  35  59  81 118 151 196 248 288 348
#     4  10  21  34  56  89 115 152 196 244 295 345
#     4  10  22  38  61  85 121 158 196 245 294 360
#
# _framework density 18.449811
#
# number of rings (size 3 to 8) (size 9 to 14) (size 15 to 20)
#    0.000    2.000    3.333    0.500    2.333    1.333 
#    0.000    1.667    7.333    0.000    0.000    0.000 
#    0.000    0.000    0.000    0.000    0.000    0.000 
#
# Total GULP energy -133886.430364 kJ/mol
# GULP energy per Si atom -5578.601265 kJ/mol
# Density = 1.840782 g / cm^3
# Si number density = 18.449811 Si / 1000 Ang^3
#
#
#
# Elastic Constant Matrix: (Units=GPa)
#
#
# Indices 1 2 3 4 5 6 
#
# 1 59.4080 47.3023 33.8714 0.0000 -16.4033 -0.0003
# 2 47.3023 119.7897 36.7455 0.0002 -11.5198 -0.0005
# 3 33.8714 36.7455 92.1278 -0.0014 -2.9150 -0.0008
# 4 0.0000 0.0002 -0.0014 16.4447 0.0001 -0.1518
# 5 -16.4033 -11.5198 -2.9150 0.0001 16.7548 0.0006
# 6 -0.0003 -0.0005 -0.0008 -0.1518 0.0006 20.4147
#
#
#
# Elastic Compliance Matrix: (Units=1/GPa)
#
#
# Indices 1 2 3 4 5 6 
#
# 1 0.037198 -0.009144 -0.009126 -0.000001 0.028542 -0.000001
# 2 -0.009144 0.012380 -0.001599 0.000000 -0.000719 0.000000
# 3 -0.009126 -0.001599 0.014610 0.000001 -0.007491 0.000001
# 4 -0.000001 0.000000 0.000001 0.060814 -0.000001 0.000452
# 5 0.028542 -0.000719 -0.007491 -0.000001 0.085830 -0.000002
# 6 -0.000001 0.000000 0.000001 0.000452 -0.000002 0.048988
#
#
# Mechanical properties :
#
#
# Convention : Reuss Voigt Hill
#
# Bulk Modulus (GPa) = 40.89854 56.35153 48.62504
# Shear Modulus (GPa) = 16.24921 20.94993 18.59957
#
# Velocity S-wave (km/s) = 2.97092 3.37339 3.17853
# Velocity P-wave (km/s) = 5.82959 6.76627 6.31532
#
# Compressibility (1/GPa) = 0.02445075
#
# Stress axis : x y z
#
# Youngs Moduli (GPa) = 26.88349 80.77452 68.44568
#
# Poissons Ratio (x) = 0.73863 0.62460
# Poissons Ratio (y) = 0.24583 0.10942
# Poissons Ratio (z) = 0.24533 0.12913
#
# Static dielectric constant tensor:
#      x y z
#    x 1.627120 0.000000 0.008610 
#    y 0.000000 1.640980 0.000000 
#    z 0.008610 0.000000 1.647770 
# 
# From -- ./inp_files/114185.got.cif
#   From: 2010.05.17/outbox.cif.g08.bks.cpg/sg15_58_cif.got.tgz:114185.got - 2010.06.03 18:47:42.
