data_PCOD9272660
_publ_section_title
;
Structure prediction by ZEFSAII (Michael W. Deem and Ramdas Pophale) SiO2 
 PCOD9272660
Probable space group: C 2/C
;
_chemical_formula_sum "Si O2"
_cell_formula_units_Z 48
_cell_length_a 11.235510
_cell_length_b 13.948673
_cell_length_c 21.113678
_cell_angle_alpha 90.000000
_cell_angle_beta 37.039686
_cell_angle_gamma 90.000000
_cell_volume 1993.202897
_symmetry_space_group_name_H-M "C 2/C"
_symmetry_group_IT_number 15
_symmetry_cell_setting 'monoclinic'
loop_
_space_group_symop_operation_xyz
x,y,z
-x,y,1/2-z
-x,-y,-z
x,-y,1/2+z
1/2+x,1/2+y,z
1/2-x,1/2+y,1/2-z
1/2-x,1/2-y,-z
1/2+x,1/2-y,1/2+z
loop_
_atom_site_type_symbol
_atom_site_label
_atom_site_fract_x
_atom_site_fract_y
_atom_site_fract_z
Si Si1 0.100557 0.034086 0.568400
Si Si2 0.555756 0.715914 0.931601
Si Si3 0.467012 0.906552 0.642739
Si Si4 0.364069 0.273141 0.886612
Si Si5 0.854767 0.156553 0.142741
Si Si6 0.226097 0.523141 0.386612
O O1 0.323762 0.040576 0.444600
O O2 0.984077 0.125000 0.593949
O O3 0.136189 0.042904 0.629138
O O4 0.995815 0.937388 0.588434
O O5 0.511112 0.812612 0.911569
O O6 0.773601 0.707096 0.870863
O O7 0.407557 0.709423 0.055402
O O8 0.367128 0.875000 0.749998
O O9 0.296051 0.968960 0.679106
O O10 0.583370 0.281040 0.820894
O O11 0.295811 0.375000 0.886127
O O12 0.250000 0.250000 0.000000
O O13 0.000000 0.500000 0.500000
#
# Coordination Sequence:
#
# PCOD9272660 Si02
#       6
#     8   8   8   8   8   8
#     4  10  20  37  59  87 122 157 204 263 306 363
#     4  10  20  37  59  87 122 157 204 263 306 363
#     4  10  21  39  61  87 122 167 206 249 314 374
#     4   8  16  31  52  76 107 148 190 235 287 348
#     4  10  21  39  61  87 122 167 206 249 314 374
#     4   8  16  31  52  76 107 148 190 235 287 348
#
# _framework density 24.081842999999999
#
# number of rings (size 3 to 8) (size 9 to 14) (size 15 to 20)
#    0.000    2.667    0.000    1.000    0.000    6.667 
#    0.000   20.000    0.000    0.000    0.000    0.000 
#    0.000    0.000    0.000    0.000    0.000    0.000 
#
# Total GULP energy -133855.943887 kJ/mol
# GULP energy per Si atom -5577.330995 kJ/mol
# Density = 2.402703 g / cm^3
# Si number density = 24.081843 Si / 1000 Ang^3
#
#
#
# Elastic Constant Matrix: (Units=GPa)
#
#
# Indices 1 2 3 4 5 6 
#
# 1 135.4397 48.1359 23.7905 0.0003 5.2561 0.0000
# 2 48.1359 42.5081 20.9770 0.0003 1.9289 0.0000
# 3 23.7905 20.9770 116.4107 0.0018 -3.9009 -0.0004
# 4 0.0003 0.0003 0.0018 23.9680 -0.0005 0.8145
# 5 5.2561 1.9289 -3.9009 -0.0005 19.4734 0.0000
# 6 0.0000 0.0000 -0.0004 0.8145 0.0000 35.4384
#
#
#
# Elastic Compliance Matrix: (Units=1/GPa)
#
#
# Indices 1 2 3 4 5 6 
#
# 1 0.012432 -0.013940 -0.000095 0.000000 -0.001994 0.000000
# 2 -0.013940 0.041694 -0.004708 0.000000 -0.001310 0.000000
# 3 -0.000095 -0.004708 0.009539 -0.000001 0.002403 0.000000
# 4 0.000000 0.000000 -0.000001 0.041755 0.000001 -0.000960
# 5 -0.001994 -0.001310 0.002403 0.000001 0.052501 0.000000
# 6 0.000000 0.000000 0.000000 -0.000960 0.000000 0.028240
#
#
# Mechanical properties :
#
#
# Convention : Reuss Voigt Hill
#
# Bulk Modulus (GPa) = 38.20212 53.35172 45.77692
# Shear Modulus (GPa) = 21.51707 29.20630 25.36168
#
# Velocity S-wave (km/s) = 2.99239 3.48630 3.24874
# Velocity P-wave (km/s) = 5.27608 6.19743 5.75522
#
# Compressibility (1/GPa) = 0.02617656
#
# Stress axis : x y z
#
# Youngs Moduli (GPa) = 80.43797 23.98451 104.83608
#
# Poissons Ratio (x) = 0.33435 0.01001
# Poissons Ratio (y) = 1.12133 0.49358
# Poissons Ratio (z) = 0.00768 0.11292
#
# Static dielectric constant tensor:
#      x y z
#    x 1.965000 0.000000 -0.001070 
#    y 0.000000 1.986950 0.000000 
#    z -0.001070 0.000000 1.980060 
# 
# From -- ./inp_files/144056.got.cif
#   From: 2010.05.17/outbox.cif.g08.bks.cpg/sg15_73_cif.got.tgz:144056.got - 2010.06.03 18:47:42.
