data_PCOD9272832
_publ_section_title
;
Structure prediction by ZEFSAII (Michael W. Deem and Ramdas Pophale) SiO2 
 PCOD9272832
Probable space group: C 2/C
;
_chemical_formula_sum "Si O2"
_cell_formula_units_Z 52
_cell_length_a 10.937624
_cell_length_b 11.430015
_cell_length_c 17.996795
_cell_angle_alpha 90.000000
_cell_angle_beta 54.952733
_cell_angle_gamma 90.000000
_cell_volume 1841.952346
_symmetry_space_group_name_H-M "C 2/C"
_symmetry_group_IT_number 15
_symmetry_cell_setting 'monoclinic'
loop_
_space_group_symop_operation_xyz
x,y,z
-x,y,1/2-z
-x,-y,-z
x,-y,1/2+z
1/2+x,1/2+y,z
1/2-x,1/2+y,1/2-z
1/2-x,1/2-y,-z
1/2+x,1/2-y,1/2+z
loop_
_atom_site_type_symbol
_atom_site_label
_atom_site_fract_x
_atom_site_fract_y
_atom_site_fract_z
Si Si1 0.000000 0.000455 0.250000
Si Si2 0.298488 0.376007 0.535728
Si Si3 0.787433 0.506131 0.089410
Si Si4 0.199251 0.294064 0.293778
Si Si5 0.089002 0.691023 0.547919
Si Si6 0.147599 0.454140 0.172823
Si Si7 0.494896 0.281999 0.360952
O O1 0.144141 0.071746 0.175697
O O2 0.015121 0.906576 0.311830
O O3 0.250777 0.442046 0.475381
O O4 0.290635 0.469791 0.603238
O O5 0.455071 0.315585 0.460102
O O6 0.159297 0.288296 0.602164
O O7 0.906709 0.606283 0.026765
O O8 0.802726 0.402317 0.144885
O O9 0.179069 0.355568 0.221528
O O10 0.352845 0.224555 0.222807
O O11 0.053618 0.230232 0.378344
O O12 0.250000 0.750000 0.500000
O O13 0.094128 0.601983 0.615087
O O14 0.000000 0.522241 0.250000
#
# Coordination Sequence:
#
# PCOD9272832 Si02
#       7
#     4   8   8   8   8   8   8
#     4   8  16  32  54  86 118 150 192 236 296 356
#     4   9  18  34  58  85 119 162 182 230 311 360
#     4   9  18  36  61  84 117 156 198 242 297 357
#     4  10  20  37  60  91 121 148 201 260 283 345
#     4  10  21  39  62  80 118 166 202 241 301 360
#     4   9  20  37  57  82 120 158 192 239 302 354
#     4   9  18  32  58  87 121 146 193 240 287 350
#
# _framework density 28.230913999999999
#
# number of rings (size 3 to 8) (size 9 to 14) (size 15 to 20)
#    0.000    2.769    0.000    0.462    1.077    1.846 
#    4.154    0.000   30.462    0.000    0.000    0.000 
#    0.000    0.000    0.000    0.000    0.000    0.000 
#
# Total GULP energy -144948.034964 kJ/mol
# GULP energy per Si atom -5574.924422 kJ/mol
# Density = 2.816666 g / cm^3
# Si number density = 28.230914 Si / 1000 Ang^3
#
#
#
# Elastic Constant Matrix: (Units=GPa)
#
#
# Indices 1 2 3 4 5 6 
#
# 1 47.2152 24.9333 44.2353 0.0000 -0.9432 0.0000
# 2 24.9333 62.7715 52.2425 0.0000 -8.7642 0.0000
# 3 44.2353 52.2425 284.2965 0.0000 -33.1969 0.0000
# 4 0.0000 0.0000 0.0000 33.9313 0.0000 -7.5392
# 5 -0.9432 -8.7642 -33.1969 0.0000 57.7260 0.0000
# 6 0.0000 0.0000 0.0000 -7.5392 0.0000 52.1377
#
#
#
# Elastic Compliance Matrix: (Units=1/GPa)
#
#
# Indices 1 2 3 4 5 6 
#
# 1 0.028949 -0.009286 -0.003117 0.000000 -0.002729 0.000000
# 2 -0.009286 0.021832 -0.002356 0.000000 0.001808 0.000000
# 3 -0.003117 -0.002356 0.004703 0.000000 0.002296 0.000000
# 4 0.000000 0.000000 0.000000 0.030450 0.000000 0.004403
# 5 -0.002729 0.001808 0.002296 0.000000 0.018874 0.000000
# 6 0.000000 0.000000 0.000000 0.004403 0.000000 0.019817
#
#
# Mechanical properties :
#
#
# Convention : Reuss Voigt Hill
#
# Bulk Modulus (GPa) = 38.50934 70.78948 54.64941
# Shear Modulus (GPa) = 30.71306 46.95047 38.83176
#
# Velocity S-wave (km/s) = 3.30195 4.08252 3.71280
# Velocity P-wave (km/s) = 5.31108 6.88130 6.14654
#
# Compressibility (1/GPa) = 0.02596773
#
# Stress axis : x y z
#
# Youngs Moduli (GPa) = 34.54398 45.80336 212.61015
#
# Poissons Ratio (x) = 0.42532 0.66262
# Poissons Ratio (y) = 0.32077 0.50091
# Poissons Ratio (z) = 0.10766 0.10791
#
# Static dielectric constant tensor:
#      x y z
#    x 2.539670 0.000000 -0.237710 
#    y 0.000000 2.252660 0.000000 
#    z -0.237710 0.000000 2.283910 
# 
# From -- ./inp_files/298869.got.cif
#   From: 2010.05.17/outbox.cif.g08.bks.cpg/sg15_150_cif.got.tgz:298869.got - 2010.06.03 18:47:42.
