data_PCOD9272802
_publ_section_title
;
Structure prediction by ZEFSAII (Michael W. Deem and Ramdas Pophale) SiO2 
 PCOD9272802
Probable space group: C 2/C
;
_chemical_formula_sum "Si O2"
_cell_formula_units_Z 48
_cell_length_a 9.688393
_cell_length_b 13.372950
_cell_length_c 22.983629
_cell_angle_alpha 90.000000
_cell_angle_beta 139.714462
_cell_angle_gamma 90.000000
_cell_volume 1925.446371
_symmetry_space_group_name_H-M "C 2/C"
_symmetry_group_IT_number 15
_symmetry_cell_setting 'monoclinic'
loop_
_space_group_symop_operation_xyz
x,y,z
-x,y,1/2-z
-x,-y,-z
x,-y,1/2+z
1/2+x,1/2+y,z
1/2-x,1/2+y,1/2-z
1/2-x,1/2-y,-z
1/2+x,1/2-y,1/2+z
loop_
_atom_site_type_symbol
_atom_site_label
_atom_site_fract_x
_atom_site_fract_y
_atom_site_fract_z
Si Si1 0.500000 0.009209 0.750000
Si Si2 0.385783 0.625529 0.414074
Si Si3 0.195793 0.356005 0.094917
Si Si4 0.216843 0.173739 0.435451
Si Si5 0.791086 0.129545 0.506034
Si Si6 0.500000 0.661871 0.250000
Si Si7 0.362028 0.011632 0.326998
O O1 0.310167 0.941710 0.665106
O O2 0.594361 0.047404 0.719427
O O3 0.297227 0.740080 0.384141
O O4 0.561135 0.602244 0.421764
O O5 0.450987 0.614232 0.503100
O O6 0.218368 0.427882 0.155362
O O7 0.344792 0.390800 0.090153
O O8 0.948019 0.368722 0.994801
O O9 0.250000 0.250000 0.500000
O O10 0.116406 0.213453 0.342885
O O11 0.750000 0.250000 0.500000
O O12 0.580649 0.067186 0.418880
O O13 0.680686 0.596714 0.274670
#
# Coordination Sequence:
#
# PCOD9272802 Si02
#       7
#     4   8   8   8   8   4   8
#     4  10  20  39  59  86 126 164 208 258 316 379
#     4   9  19  36  60  85 119 162 202 258 308 378
#     4  10  20  37  60  89 120 157 208 260 315 378
#     4  10  21  39  61  89 122 161 211 255 314 376
#     4   9  18  34  58  86 116 157 204 248 312 376
#     4  12  22  37  65  90 122 166 206 258 322 375
#     4  11  22  37  61  89 125 160 208 264 324 375
#
# _framework density 24.929283999999999
#
# number of rings (size 3 to 8) (size 9 to 14) (size 15 to 20)
#    0.000    2.000    3.333    0.500    0.000    0.667 
#    0.000    8.333    0.000    0.000    0.000    0.000 
#    0.000    0.000    0.000    0.000    0.000    0.000 
#
# Total GULP energy -133781.051706 kJ/mol
# GULP energy per Si atom -5574.210488 kJ/mol
# Density = 2.487254 g / cm^3
# Si number density = 24.929284 Si / 1000 Ang^3
#
#
#
# Elastic Constant Matrix: (Units=GPa)
#
#
# Indices 1 2 3 4 5 6 
#
# 1 94.2382 14.7685 28.8905 0.0001 -54.1783 0.0001
# 2 14.7685 62.1288 9.7659 0.0001 -16.7287 0.0000
# 3 28.8905 9.7659 82.0534 0.0006 -34.6730 0.0002
# 4 0.0001 0.0001 0.0006-1638.2153 0.0002 -618.2731
# 5 -54.1783 -16.7287 -34.6730 0.0002 62.3440 0.0001
# 6 0.0001 0.0000 0.0002 -618.2731 0.0001 -191.3046
#
#
#
# Elastic Compliance Matrix: (Units=1/GPa)
#
#
# Indices 1 2 3 4 5 6 
#
# 1 0.021218 -0.000088 0.000420 0.000000 0.018649 0.000000
# 2 -0.000088 0.017350 -0.000129 0.000000 0.004507 0.000000
# 3 0.000420 -0.000129 0.015940 0.000000 0.009196 0.000000
# 4 0.000000 0.000000 0.000000 0.002778 0.000000 -0.008978
# 5 0.018649 0.004507 0.009196 0.000000 0.038570 0.000000
# 6 0.000000 0.000000 0.000000 -0.008978 0.000000 0.023789
#
#
# Mechanical properties :
#
#
# Convention : Reuss Voigt Hill
#
# Bulk Modulus (GPa) = 18.21054 38.36335 28.28694
# Shear Modulus (GPa) = 36.35166 -341.10214 -152.37524
#
# Velocity S-wave (km/s) = 3.82277 -11.71004 -7.82660
# Velocity P-wave (km/s) = 5.17740 12.93874 8.38467
#
# Compressibility (1/GPa) = 0.05491326
#
# Stress axis : x y z
#
# Youngs Moduli (GPa) = 47.13060 57.63539 62.73335
#
# Poissons Ratio (x) = 0.00509 -0.02636
# Poissons Ratio (y) = 0.00416 0.00812
# Poissons Ratio (z) = -0.01980 0.00746
#
# Static dielectric constant tensor:
#      x y z
#    x 2.170250 0.000000 0.014790 
#    y 0.000000 2.068060 0.000000 
#    z 0.014790 0.000000 2.023820 
# 
# From -- ./inp_files/265376.got.cif
#   From: 2010.05.17/outbox.cif.g08.bks.cpg/sg15_133_cif.got.tgz:265376.got - 2010.06.03 18:47:42.
