data_PCOD9272115
_publ_section_title
;
Structure prediction by ZEFSAII (Michael W. Deem and Ramdas Pophale) SiO2 
 PCOD9272115
Probable space group: C 2/C
;
_chemical_formula_sum "Si O2"
_cell_formula_units_Z 44
_cell_length_a 15.758568
_cell_length_b 22.156177
_cell_length_c 4.969394
_cell_angle_alpha 90.000000
_cell_angle_beta 89.344856
_cell_angle_gamma 90.000000
_cell_volume 1734.948611
_symmetry_space_group_name_H-M "C 2/C"
_symmetry_group_IT_number 15
_symmetry_cell_setting 'monoclinic'
loop_
_space_group_symop_operation_xyz
x,y,z
-x,y,1/2-z
-x,-y,-z
x,-y,1/2+z
1/2+x,1/2+y,z
1/2-x,1/2+y,1/2-z
1/2-x,1/2-y,-z
1/2+x,1/2-y,1/2+z
loop_
_atom_site_type_symbol
_atom_site_label
_atom_site_fract_x
_atom_site_fract_y
_atom_site_fract_z
Si Si1 0.666254 0.114166 0.948969
Si Si2 0.310229 0.462073 0.730839
Si Si3 0.414326 0.209421 0.143714
Si Si4 0.555979 0.629198 0.486869
Si Si5 0.500000 0.112688 0.750000
Si Si6 0.289453 0.295522 0.281401
O O1 0.729765 0.076160 0.130714
O O2 0.581754 0.077871 0.862977
O O3 0.724523 0.149702 0.726977
O O4 0.626041 0.168840 0.120693
O O5 0.307284 0.478148 0.044234
O O6 0.396182 0.427770 0.648744
O O7 0.500000 0.241638 0.250000
O O8 0.340445 0.255795 0.057488
O O9 0.450955 0.159385 0.944595
O O10 0.500000 0.613450 0.750000
O O11 0.632052 0.671925 0.574698
O O12 0.500000 0.657157 0.250000
O O13 0.250000 0.250000 0.500000
#
# Coordination Sequence:
#
# PCOD9272115 Si02
#       6
#     8   8   8   8   4   8
#     4   9  21  39  61  89 127 166 217 271 329 386
#     4  11  25  44  71  99 129 168 219 277 342 397
#     4   9  18  36  58  88 127 166 214 256 323 385
#     4  11  24  45  68  99 137 174 220 273 324 394
#     4  10  20  36  64  88 126 172 214 270 324 392
#     4   9  19  41  58  93 131 172 219 261 321 380
#
# _framework density 25.360983999999998
#
# number of rings (size 3 to 8) (size 9 to 14) (size 15 to 20)
#    0.000    2.182    0.000    1.636    2.545    2.909 
#   36.000    0.909    0.000    0.000    0.000    0.000 
#    0.000    0.000    0.000    0.000    0.000    0.000 
#
# Total GULP energy -122922.718035 kJ/mol
# GULP energy per Si atom -5587.396274 kJ/mol
# Density = 2.530326 g / cm^3
# Si number density = 25.360984 Si / 1000 Ang^3
#
#
#
# Elastic Constant Matrix: (Units=GPa)
#
#
# Indices 1 2 3 4 5 6 
#
# 1 166.4750 14.1670 15.2818 0.0000 -13.1410 0.0000
# 2 14.1670 41.9554 -3.6927 0.0000 -13.6309 0.0000
# 3 15.2818 -3.6927 62.5614 0.0000 -4.1448 0.0000
# 4 0.0000 0.0000 0.0000 26.0640 0.0000 7.9758
# 5 -13.1410 -13.6309 -4.1448 0.0000 29.7005 0.0000
# 6 0.0000 0.0000 0.0000 7.9758 0.0000 22.9191
#
#
#
# Elastic Compliance Matrix: (Units=1/GPa)
#
#
# Indices 1 2 3 4 5 6 
#
# 1 0.006441 -0.001711 -0.001552 0.000000 0.001848 0.000000
# 2 -0.001711 0.028868 0.002977 0.000000 0.012907 0.000000
# 3 -0.001552 0.002977 0.016739 0.000000 0.003016 0.000000
# 4 0.000000 0.000000 0.000000 0.042940 0.000000 -0.014943
# 5 0.001848 0.012907 0.003016 0.000000 0.040832 0.000000
# 6 0.000000 0.000000 0.000000 -0.014943 0.000000 0.048832
#
#
# Mechanical properties :
#
#
# Convention : Reuss Voigt Hill
#
# Bulk Modulus (GPa) = 19.42654 35.83376 27.63015
# Shear Modulus (GPa) = 24.70581 32.08577 28.39579
#
# Velocity S-wave (km/s) = 3.12455 3.56077 3.34977
# Velocity P-wave (km/s) = 4.54903 5.57365 5.08721
#
# Compressibility (1/GPa) = 0.05147597
#
# Stress axis : x y z
#
# Youngs Moduli (GPa) = 155.25918 34.64036 59.74111
#
# Poissons Ratio (x) = 0.05927 0.09271
# Poissons Ratio (y) = 0.26566 -0.17785
# Poissons Ratio (z) = 0.24094 -0.10313
#
# Static dielectric constant tensor:
#      x y z
#    x 2.184740 0.000000 0.026080 
#    y 0.000000 2.050430 0.000000 
#    z 0.026080 0.000000 2.132840 
# 
# From -- ./inp_files/7556.got.cif
#   From: 2010.05.17/outbox.cif.g08.bks.cpg/sg15_4_cif.got.tgz:7556.got - 2010.06.03 18:47:42.
