data_PCOD9272845
_publ_section_title
;
Structure prediction by ZEFSAII (Michael W. Deem and Ramdas Pophale) SiO2 
 PCOD9272845
Probable space group: C 2/C
;
_chemical_formula_sum "Si O2"
_cell_formula_units_Z 60
_cell_length_a 16.521491
_cell_length_b 9.057495
_cell_length_c 19.690582
_cell_angle_alpha 90.000000
_cell_angle_beta 80.058656
_cell_angle_gamma 90.000000
_cell_volume 2902.321467
_symmetry_space_group_name_H-M "C 2/C"
_symmetry_group_IT_number 15
_symmetry_cell_setting 'monoclinic'
loop_
_space_group_symop_operation_xyz
x,y,z
-x,y,1/2-z
-x,-y,-z
x,-y,1/2+z
1/2+x,1/2+y,z
1/2-x,1/2+y,1/2-z
1/2-x,1/2-y,-z
1/2+x,1/2-y,1/2+z
loop_
_atom_site_type_symbol
_atom_site_label
_atom_site_fract_x
_atom_site_fract_y
_atom_site_fract_z
Si Si1 0.392213 0.322935 0.314067
Si Si2 0.578383 0.983876 0.641325
Si Si3 0.585789 0.432603 0.964664
Si Si4 0.933244 0.995043 0.185886
Si Si5 0.996902 0.338485 0.530147
Si Si6 0.500000 0.773667 0.250000
Si Si7 0.171946 0.357082 0.003897
Si Si8 0.223622 0.894671 0.045071
O O1 0.392813 0.144567 0.311255
O O2 0.378108 0.393338 0.242284
O O3 0.476877 0.410626 0.325631
O O4 0.324055 0.358766 0.379682
O O5 0.519183 0.876545 0.604332
O O6 0.539015 0.118105 0.688379
O O7 0.641001 0.063470 0.578847
O O8 0.597445 0.477042 0.885383
O O9 0.500000 0.500000 0.000000
O O10 0.565605 0.260937 0.984096
O O11 0.659515 0.472489 0.003298
O O12 0.942081 0.156408 0.219140
O O13 0.906448 0.283784 0.521990
O O14 0.000000 0.500000 0.500000
O O15 0.250000 0.250000 0.000000
O O16 0.202383 0.494062 0.954169
O O17 0.250000 0.750000 0.000000
#
# Coordination Sequence:
#
# PCOD9272845 Si02
#       8
#     8   8   8   8   8   4   8   8
#     4  10  20  38  62  91 123 162 218 252 314 375
#     4  11  20  40  62  92 117 174 210 259 300 384
#     4  12  21  38  68  94 119 158 220 260 302 366
#     4  10  22  37  62  95 123 165 210 277 304 365
#     4  10  20  37  60  92 122 153 212 256 302 360
#     4  10  22  34  64  88 130 154 220 258 320 360
#     4  11  24  35  60  94 133 154 199 262 327 363
#     4  12  22  39  64  95 126 167 206 258 317 385
#
# _framework density 20.673105
#
# number of rings (size 3 to 8) (size 9 to 14) (size 15 to 20)
#    0.000    1.333    4.000    4.000    3.733    0.000 
#    0.000    0.000    5.867    0.000    0.000    0.000 
#    0.000    0.000    0.000    0.000    0.000    0.000 
#
# Total GULP energy -167182.598411 kJ/mol
# GULP energy per Si atom -5572.753280 kJ/mol
# Density = 2.062605 g / cm^3
# Si number density = 20.673105 Si / 1000 Ang^3
#
#
#
# Elastic Constant Matrix: (Units=GPa)
#
#
# Indices 1 2 3 4 5 6 
#
# 1 66.1191 21.4755 18.0105 0.0000 -7.8869 0.0000
# 2 21.4755 137.2226 52.5018 0.0000 -13.8885 0.0000
# 3 18.0105 52.5018 140.5453 0.0000 -13.0735 0.0000
# 4 0.0000 0.0000 0.0000 47.1015 0.0000 -6.2214
# 5 -7.8869 -13.8885 -13.0735 0.0000 32.7730 0.0000
# 6 0.0000 0.0000 0.0000 -6.2214 0.0000 32.9186
#
#
#
# Elastic Compliance Matrix: (Units=1/GPa)
#
#
# Indices 1 2 3 4 5 6 
#
# 1 0.016360 -0.001845 -0.001157 0.000000 0.002694 0.000000
# 2 -0.001845 0.008901 -0.002886 0.000000 0.002177 0.000000
# 3 -0.001157 -0.002886 0.008518 0.000000 0.001896 0.000000
# 4 0.000000 0.000000 0.000000 0.021774 0.000000 0.004115
# 5 0.002694 0.002177 0.001896 0.000000 0.032840 0.000000
# 6 0.000000 0.000000 0.000000 0.004115 0.000000 0.031156
#
#
# Mechanical properties :
#
#
# Convention : Reuss Voigt Hill
#
# Bulk Modulus (GPa) = 45.44864 58.65140 52.05002
# Shear Modulus (GPa) = 36.05980 39.35189 37.70584
#
# Velocity S-wave (km/s) = 4.18100 4.36768 4.27536
# Velocity P-wave (km/s) = 6.73348 7.33948 7.04300
#
# Compressibility (1/GPa) = 0.02200286
#
# Stress axis : x y z
#
# Youngs Moduli (GPa) = 61.12503 112.35075 117.40032
#
# Poissons Ratio (x) = 0.20731 0.13579
# Poissons Ratio (y) = 0.11279 0.33882
# Poissons Ratio (z) = 0.07070 0.32424
#
# Static dielectric constant tensor:
#      x y z
#    x 1.840350 0.000000 -0.124110 
#    y 0.000000 1.824950 0.000000 
#    z -0.124110 0.000000 2.604220 
# 
# From -- ./inp_files/247405.got.cif
#   From: 2010.05.17/outbox.cif.g08.bks.cpg/sg15_124_cif.got.tgz:247405.got - 2010.06.03 18:47:42.
