data_PCOD9272970
_publ_section_title
;
Structure prediction by ZEFSAII (Michael W. Deem and Ramdas Pophale) SiO2 
 PCOD9272970
Probable space group: C 2/C
;
_chemical_formula_sum "Si O2"
_cell_formula_units_Z 64
_cell_length_a 15.178370
_cell_length_b 21.180104
_cell_length_c 7.686331
_cell_angle_alpha 90.000000
_cell_angle_beta 101.944249
_cell_angle_gamma 90.000000
_cell_volume 2417.499032
_symmetry_space_group_name_H-M "C 2/C"
_symmetry_group_IT_number 15
_symmetry_cell_setting 'monoclinic'
loop_
_space_group_symop_operation_xyz
x,y,z
-x,y,1/2-z
-x,-y,-z
x,-y,1/2+z
1/2+x,1/2+y,z
1/2-x,1/2+y,1/2-z
1/2-x,1/2-y,-z
1/2+x,1/2-y,1/2+z
loop_
_atom_site_type_symbol
_atom_site_label
_atom_site_fract_x
_atom_site_fract_y
_atom_site_fract_z
Si Si1 0.875882 0.580870 0.105377
Si Si2 0.836631 0.096958 0.539061
Si Si3 0.413898 0.646764 0.108741
Si Si4 0.855664 0.972936 0.692941
Si Si5 0.901028 0.220589 0.739960
Si Si6 0.226680 0.229096 0.294844
Si Si7 0.908022 0.340337 0.302954
Si Si8 0.649044 0.059010 0.010882
O O1 0.771609 0.597768 0.016248
O O2 0.928067 0.625029 0.992119
O O3 0.894210 0.507659 0.062968
O O4 0.114665 0.584132 0.183089
O O5 0.868391 0.057438 0.386262
O O6 0.875624 0.166034 0.591153
O O7 0.865719 0.047720 0.700095
O O8 0.500000 0.668961 0.250000
O O9 0.416251 0.571527 0.096780
O O10 0.327076 0.665375 0.191698
O O11 0.405893 0.682720 0.924645
O O12 0.753287 0.959809 0.585499
O O13 0.818901 0.269405 0.725418
O O14 0.000000 0.247569 0.750000
O O15 0.250000 0.250000 0.500000
O O16 0.159122 0.282264 0.197089
O O17 0.000000 0.318899 0.250000
O O18 0.863602 0.390526 0.148877
#
# Coordination Sequence:
#
# PCOD9272970 Si02
#       8
#     8   8   8   8   8   8   8   8
#     4  10  20  37  62  95 135 187 219 283 331 418
#     4  10  20  37  63 100 135 171 219 274 344 410
#     4  11  23  42  66  96 132 178 228 270 335 410
#     4  10  21  36  66  97 131 180 220 274 337 411
#     4  11  22  40  69  99 131 166 216 281 341 406
#     4  10  23  45  74  91 129 181 227 277 347 402
#     4  12  24  40  68  96 134 183 231 284 340 405
#     4  10  20  37  61  94 138 179 235 267 347 404
#
# _framework density 26.473641000000001
#
# number of rings (size 3 to 8) (size 9 to 14) (size 15 to 20)
#    0.000    1.500    2.500    3.375    1.750    1.500 
#    0.000    5.000   30.250    0.000    0.000    0.000 
#    0.000    0.000    0.000    0.000    0.000    0.000 
#
# Total GULP energy -179403.299366 kJ/mol
# GULP energy per Si atom -5606.353105 kJ/mol
# Density = 2.641339 g / cm^3
# Si number density = 26.473641 Si / 1000 Ang^3
#
#
#
# Elastic Constant Matrix: (Units=GPa)
#
#
# Indices 1 2 3 4 5 6 
#
# 1 141.1185 30.8661 11.3964 0.0000 -14.8990 0.0000
# 2 30.8661 120.1131 19.0304 0.0000 -1.5560 0.0000
# 3 11.3964 19.0304 109.6075 0.0000 -5.4321 0.0000
# 4 0.0000 0.0000 0.0000 38.1815 0.0000 -6.5390
# 5 -14.8990 -1.5560 -5.4321 0.0000 33.7021 0.0000
# 6 0.0000 0.0000 0.0000 -6.5390 0.0000 7.7196
#
#
#
# Elastic Compliance Matrix: (Units=1/GPa)
#
#
# Indices 1 2 3 4 5 6 
#
# 1 0.007888 -0.001933 -0.000319 0.000000 0.003347 0.000000
# 2 -0.001933 0.009036 -0.001401 0.000000 -0.000663 0.000000
# 3 -0.000319 -0.001401 0.009465 0.000000 0.001320 0.000000
# 4 0.000000 0.000000 0.000000 0.030635 0.000000 0.025950
# 5 0.003347 -0.000663 0.001320 0.000000 0.031333 0.000000
# 6 0.000000 0.000000 0.000000 0.025950 0.000000 0.151521
#
#
# Mechanical properties :
#
#
# Convention : Reuss Voigt Hill
#
# Bulk Modulus (GPa) = 52.40024 54.82499 53.61262
# Shear Modulus (GPa) = 19.72040 36.55706 28.13873
#
# Velocity S-wave (km/s) = 2.73226 3.72006 3.26375
# Velocity P-wave (km/s) = 5.45802 6.26147 5.87350
#
# Compressibility (1/GPa) = 0.01908388
#
# Stress axis : x y z
#
# Youngs Moduli (GPa) = 126.77250 110.67339 105.65019
#
# Poissons Ratio (x) = 0.21396 0.03367
# Poissons Ratio (y) = 0.24508 0.14798
# Poissons Ratio (z) = 0.04040 0.15501
#
# Static dielectric constant tensor:
#      x y z
#    x 2.096850 0.000000 -0.044620 
#    y 0.000000 2.038450 0.000000 
#    z -0.044620 0.000000 2.154560 
# 
# From -- ./inp_files/42656.got.cif
#   From: 2010.05.17/outbox.cif.g08.bks.cpg/sg15_22_cif.got.tgz:42656.got - 2010.06.03 18:47:42.
