data_PCOD9272114
_publ_section_title
;
Structure prediction by ZEFSAII (Michael W. Deem and Ramdas Pophale) SiO2 
 PCOD9272114
Probable space group: C 2/C
;
_chemical_formula_sum "Si O2"
_cell_formula_units_Z 40
_cell_length_a 17.970798
_cell_length_b 9.379267
_cell_length_c 25.473759
_cell_angle_alpha 90.000000
_cell_angle_beta 29.169139
_cell_angle_gamma 90.000000
_cell_volume 2092.692346
_symmetry_space_group_name_H-M "C 2/C"
_symmetry_group_IT_number 15
_symmetry_cell_setting 'monoclinic'
loop_
_space_group_symop_operation_xyz
x,y,z
-x,y,1/2-z
-x,-y,-z
x,-y,1/2+z
1/2+x,1/2+y,z
1/2-x,1/2+y,1/2-z
1/2-x,1/2-y,-z
1/2+x,1/2-y,1/2+z
loop_
_atom_site_type_symbol
_atom_site_label
_atom_site_fract_x
_atom_site_fract_y
_atom_site_fract_z
Si Si1 0.766038 0.096116 0.590972
Si Si2 0.077530 0.175569 0.345646
Si Si3 0.653779 0.003669 0.773512
Si Si4 0.649334 0.343007 0.603328
Si Si5 0.181692 0.406741 0.542313
O O1 0.668718 0.240964 0.640882
O O2 0.942440 0.133269 0.469625
O O3 0.732129 0.039062 0.669365
O O4 0.713192 0.982104 0.579300
O O5 0.228013 0.086962 0.265417
O O6 0.110051 0.344312 0.326060
O O7 0.007570 0.140011 0.331392
O O8 0.497315 0.918590 0.859270
O O9 0.750000 0.250000 0.500000
O O10 0.730322 0.495293 0.554813
O O11 0.250000 0.250000 0.500000
#
# Coordination Sequence:
#
# PCOD9272114 Si02
#       5
#     8   8   8   8   8
#     4  10  20  42  65  84 117 173 218 245 304 397
#     4  10  22  37  57  94 123 159 203 265 312 369
#     4  12  22  38  65  90 125 168 203 256 332 372
#     4   8  16  38  60  80 118 159 205 248 302 365
#     4  10  20  36  64  88 122 157 210 266 304 362
#
# _framework density 19.114134
#
# number of rings (size 3 to 8) (size 9 to 14) (size 15 to 20)
#    0.000    2.400    6.000    1.200    5.600    0.000 
#    0.000    3.000    8.800    0.000    0.000    0.000 
#    0.000    0.000    0.000    0.000    0.000    0.000 
#
# Total GULP energy -111510.515413 kJ/mol
# GULP energy per Si atom -5575.525771 kJ/mol
# Density = 1.907063 g / cm^3
# Si number density = 19.114134 Si / 1000 Ang^3
#
#
#
# Elastic Constant Matrix: (Units=GPa)
#
#
# Indices 1 2 3 4 5 6 
#
# 1 61.6833 21.1338 50.2391 -0.0001 -27.8647 0.0000
# 2 21.1338 94.6568 54.8925 -0.0003 -27.9557 0.0000
# 3 50.2391 54.8925 114.6017 0.0000 -32.6171 0.0000
# 4 -0.0001 -0.0003 0.0000 27.1972 0.0001 -15.0474
# 5 -27.8647 -27.9557 -32.6171 0.0001 41.7728 0.0000
# 6 0.0000 0.0000 0.0000 -15.0474 0.0000 33.0861
#
#
#
# Elastic Compliance Matrix: (Units=1/GPa)
#
#
# Indices 1 2 3 4 5 6 
#
# 1 0.030331 0.003848 -0.011119 0.000000 0.014125 0.000000
# 2 0.003848 0.016191 -0.007236 0.000000 0.007753 0.000000
# 3 -0.011119 -0.007236 0.017456 0.000000 0.001371 0.000000
# 4 0.000000 0.000000 0.000000 0.049131 0.000000 0.022344
# 5 0.014125 0.007753 0.001371 0.000000 0.039620 0.000000
# 6 0.000000 0.000000 0.000000 0.022344 0.000000 0.040386
#
#
# Mechanical properties :
#
#
# Convention : Reuss Voigt Hill
#
# Bulk Modulus (GPa) = 28.60067 58.16361 43.38214
# Shear Modulus (GPa) = 21.38726 30.05629 25.72178
#
# Velocity S-wave (km/s) = 3.34866 3.96973 3.67235
# Velocity P-wave (km/s) = 5.47238 7.17687 6.38178
#
# Compressibility (1/GPa) = 0.03496422
#
# Stress axis : x y z
#
# Youngs Moduli (GPa) = 32.96982 61.76257 57.28599
#
# Poissons Ratio (x) = -0.23767 0.63698
# Poissons Ratio (y) = -0.12687 0.41450
# Poissons Ratio (z) = 0.36660 0.44689
#
# Static dielectric constant tensor:
#      x y z
#    x 1.686100 0.000000 0.011660 
#    y 0.000000 1.660820 0.000000 
#    z 0.011660 0.000000 1.720470 
# 
# From -- ./inp_files/298267.got.cif
#   From: 2010.05.17/outbox.cif.g08.bks.cpg/sg15_150_cif.got.tgz:298267.got - 2010.06.03 18:47:42.
