data_PCOD9272529
_publ_section_title
;
Structure prediction by ZEFSAII (Michael W. Deem and Ramdas Pophale) SiO2 
 PCOD9272529
Probable space group: C 2/C
;
_chemical_formula_sum "Si O2"
_cell_formula_units_Z 40
_cell_length_a 8.903047
_cell_length_b 13.373273
_cell_length_c 16.046941
_cell_angle_alpha 90.000000
_cell_angle_beta 92.759434
_cell_angle_gamma 90.000000
_cell_volume 1908.379593
_symmetry_space_group_name_H-M "C 2/C"
_symmetry_group_IT_number 15
_symmetry_cell_setting 'monoclinic'
loop_
_space_group_symop_operation_xyz
x,y,z
-x,y,1/2-z
-x,-y,-z
x,-y,1/2+z
1/2+x,1/2+y,z
1/2-x,1/2+y,1/2-z
1/2-x,1/2-y,-z
1/2+x,1/2-y,1/2+z
loop_
_atom_site_type_symbol
_atom_site_label
_atom_site_fract_x
_atom_site_fract_y
_atom_site_fract_z
Si Si1 0.547440 0.894244 0.039302
Si Si2 0.369175 0.166285 0.684726
Si Si3 0.320151 0.595584 0.679299
Si Si4 0.247690 0.123287 0.284041
Si Si5 0.431556 0.191963 0.135957
O O1 0.407253 0.859905 0.092113
O O2 0.685942 0.896784 0.107416
O O3 0.586971 0.825069 0.962294
O O4 0.500000 0.000000 0.000000
O O5 0.500000 0.127770 0.750000
O O6 0.226073 0.121619 0.726802
O O7 0.355031 0.284060 0.694213
O O8 0.337921 0.476435 0.689461
O O9 0.424376 0.689571 0.656360
O O10 0.301998 0.138002 0.188935
O O11 0.409028 0.141438 0.334456
#
# Coordination Sequence:
#
# PCOD9272529 Si02
#       5
#     8   8   8   8   8
#     4  11  19  34  60  83 108 151 192 232 284 338
#     4   9  21  37  57  82 110 145 188 231 278 345
#     4  10  20  37  58  81 114 148 190 233 280 344
#     4  10  20  39  58  80 115 150 184 234 291 335
#     4  10  21  35  59  86 110 149 195 231 279 348
#
# _framework density 20.960190000000001
#
# number of rings (size 3 to 8) (size 9 to 14) (size 15 to 20)
#    0.000    2.000    2.000    1.800    5.600    0.800 
#    7.200    1.000    0.000    0.000    0.000    0.000 
#    0.000    0.000    0.000    0.000    0.000    0.000 
#
# Total GULP energy -111397.023214 kJ/mol
# GULP energy per Si atom -5569.851161 kJ/mol
# Density = 2.091248 g / cm^3
# Si number density = 20.960190 Si / 1000 Ang^3
#
#
#
# Elastic Constant Matrix: (Units=GPa)
#
#
# Indices 1 2 3 4 5 6 
#
# 1 36.3875 6.1467 21.5993 0.0000 7.8569 0.0000
# 2 6.1467 103.6112 31.3718 0.0000 -9.9393 0.0000
# 3 21.5993 31.3718 172.9251 0.0000 -10.6605 0.0000
# 4 0.0000 0.0000 0.0000 16.2974 0.0000 8.5107
# 5 7.8569 -9.9393 -10.6605 0.0000 16.2839 0.0000
# 6 0.0000 0.0000 0.0000 8.5107 0.0000 17.3118
#
#
#
# Elastic Compliance Matrix: (Units=1/GPa)
#
#
# Indices 1 2 3 4 5 6 
#
# 1 0.036005 -0.002662 -0.005404 0.000000 -0.022534 0.000000
# 2 -0.002662 0.010856 -0.001198 0.000000 0.007126 0.000000
# 3 -0.005404 -0.001198 0.007076 0.000000 0.006509 0.000000
# 4 0.000000 0.000000 0.000000 0.082553 0.000000 -0.040584
# 5 -0.022534 0.007126 0.006509 0.000000 0.080893 0.000000
# 6 0.000000 0.000000 0.000000 -0.040584 0.000000 0.077715
#
#
# Mechanical properties :
#
#
# Convention : Reuss Voigt Hill
#
# Bulk Modulus (GPa) = 28.23973 47.90662 38.07318
# Shear Modulus (GPa) = 15.36441 26.89901 21.13171
#
# Velocity S-wave (km/s) = 2.71039 3.58626 3.17863
# Velocity P-wave (km/s) = 4.82672 6.32882 5.62811
#
# Compressibility (1/GPa) = 0.03541110
#
# Stress axis : x y z
#
# Youngs Moduli (GPa) = 27.77423 92.11840 141.31664
#
# Poissons Ratio (x) = 0.24518 0.76361
# Poissons Ratio (y) = 0.07392 0.16925
# Poissons Ratio (z) = 0.15008 0.11033
#
# Static dielectric constant tensor:
#      x y z
#    x 1.864600 0.000000 0.012260 
#    y 0.000000 1.822830 0.000000 
#    z 0.012260 0.000000 1.743300 
# 
# From -- ./inp_files/141698.got.cif
#   From: 2010.05.17/outbox.cif.g08.bks.cpg/sg15_71_cif.got.tgz:141698.got - 2010.06.03 18:47:42.
