data_PCOD9272624
_publ_section_title
;
Structure prediction by ZEFSAII (Michael W. Deem and Ramdas Pophale) SiO2 
 PCOD9272624
Probable space group: C 2/C
;
_chemical_formula_sum "Si O2"
_cell_formula_units_Z 32
_cell_length_a 19.379096
_cell_length_b 8.504601
_cell_length_c 22.418458
_cell_angle_alpha 90.000000
_cell_angle_beta 160.164584
_cell_angle_gamma 90.000000
_cell_volume 1253.723984
_symmetry_space_group_name_H-M "C 2/C"
_symmetry_group_IT_number 15
_symmetry_cell_setting 'monoclinic'
loop_
_space_group_symop_operation_xyz
x,y,z
-x,y,1/2-z
-x,-y,-z
x,-y,1/2+z
1/2+x,1/2+y,z
1/2-x,1/2+y,1/2-z
1/2-x,1/2-y,-z
1/2+x,1/2-y,1/2+z
loop_
_atom_site_type_symbol
_atom_site_label
_atom_site_fract_x
_atom_site_fract_y
_atom_site_fract_z
Si Si1 0.248600 0.432347 0.445657
Si Si2 0.720601 0.932928 0.553371
Si Si3 0.771991 0.579913 0.193446
Si Si4 0.264319 0.946484 0.310822
O O1 0.309358 0.254323 0.478044
O O2 0.316224 0.479118 0.567283
O O3 0.303926 0.541959 0.434970
O O4 0.000000 0.427830 0.250000
O O5 0.817968 0.964696 0.697307
O O6 0.507617 0.025598 0.382202
O O7 0.686163 0.487748 0.181295
O O8 0.751206 0.762371 0.190478
O O9 0.500000 0.000000 0.500000
#
# Coordination Sequence:
#
# PCOD9272624 Si02
#       4
#     8   8   8   8
#     4   9  18  36  61  86 116 149 184 230 284 342
#     4   9  19  37  58  85 115 150 187 228 286 339
#     4  10  20  37  59  83 116 150 191 236 280 338
#     4  10  21  38  58  83 113 149 193 237 284 336
#
# _framework density 25.523959000000001
#
# number of rings (size 3 to 8) (size 9 to 14) (size 15 to 20)
#    0.000    2.500    0.000    1.500    0.000    1.000 
#    0.000   38.750    0.000    0.000    0.000    0.000 
#    0.000    0.000    0.000    0.000    0.000    0.000 
#
# Total GULP energy -89553.943229 kJ/mol
# GULP energy per Si atom -5597.121452 kJ/mol
# Density = 2.546587 g / cm^3
# Si number density = 25.523959 Si / 1000 Ang^3
#
#
#
# Elastic Constant Matrix: (Units=GPa)
#
#
# Indices 1 2 3 4 5 6 
#
# 1 298.2917 133.7656 71.6237 0.0002 -52.1484 -0.0002
# 2 133.7656 159.7632 38.0619 0.0026 -19.8587 0.0023
# 3 71.6237 38.0619 127.2268 0.0062 -40.1396 0.0053
# 4 0.0002 0.0026 0.0062 36.0659 0.0016 -3.3658
# 5 -52.1484 -19.8587 -40.1396 0.0016 78.1300 0.0010
# 6 -0.0002 0.0023 0.0053 -3.3658 0.0010 57.8397
#
#
#
# Elastic Compliance Matrix: (Units=1/GPa)
#
#
# Indices 1 2 3 4 5 6 
#
# 1 0.006085 -0.004490 -0.001385 0.000000 0.002208 0.000000
# 2 -0.004490 0.010096 -0.000750 -0.000001 -0.000816 0.000000
# 3 -0.001385 -0.000750 0.010159 -0.000002 0.004104 -0.000001
# 4 0.000000 -0.000001 -0.000002 0.027878 -0.000001 0.001622
# 5 0.002208 -0.000816 0.004104 -0.000001 0.016174 -0.000001
# 6 0.000000 0.000000 -0.000001 0.001622 -0.000001 0.017384
#
#
# Mechanical properties :
#
#
# Convention : Reuss Voigt Hill
#
# Bulk Modulus (GPa) = 76.40337 119.13157 97.76747
# Shear Modulus (GPa) = 47.44309 57.19582 52.31946
#
# Velocity S-wave (km/s) = 4.31602 4.73892 4.53240
# Velocity P-wave (km/s) = 7.40516 8.75893 8.11034
#
# Compressibility (1/GPa) = 0.01308843
#
# Stress axis : x y z
#
# Youngs Moduli (GPa) = 164.34973 99.05087 98.43365
#
# Poissons Ratio (x) = 0.44473 0.13638
# Poissons Ratio (y) = 0.73792 0.07384
# Poissons Ratio (z) = 0.22770 0.07430
#
# Static dielectric constant tensor:
#      x y z
#    x 2.028110 0.000000 0.036790 
#    y 0.000000 1.848600 0.000000 
#    z 0.036790 0.000000 2.332070 
# 
# From -- ./inp_files/102213.got.cif
#   From: 2010.05.17/outbox.cif.g08.bks.cpg/sg15_52_cif.got.tgz:102213.got - 2010.06.03 18:47:42.
