data_PCOD9272031
_publ_section_title
;
Structure prediction by ZEFSAII (Michael W. Deem and Ramdas Pophale) SiO2 
 PCOD9272031
Probable space group: C 2/C
;
_chemical_formula_sum "Si O2"
_cell_formula_units_Z 48
_cell_length_a 13.444443
_cell_length_b 8.288104
_cell_length_c 18.865637
_cell_angle_alpha 90.000000
_cell_angle_beta 105.133770
_cell_angle_gamma 90.000000
_cell_volume 2029.272170
_symmetry_space_group_name_H-M "C 2/C"
_symmetry_group_IT_number 15
_symmetry_cell_setting 'monoclinic'
loop_
_space_group_symop_operation_xyz
x,y,z
-x,y,1/2-z
-x,-y,-z
x,-y,1/2+z
1/2+x,1/2+y,z
1/2-x,1/2+y,1/2-z
1/2-x,1/2-y,-z
1/2+x,1/2-y,1/2+z
loop_
_atom_site_type_symbol
_atom_site_label
_atom_site_fract_x
_atom_site_fract_y
_atom_site_fract_z
Si Si1 0.667274 0.872699 0.180558
Si Si2 0.709981 0.796102 0.915362
Si Si3 0.479731 0.977824 0.580057
Si Si4 0.831944 0.219107 0.078188
Si Si5 0.288261 0.600498 0.844308
Si Si6 0.478982 0.448981 0.829354
O O1 0.750718 0.829076 0.135938
O O2 0.723973 0.929761 0.261329
O O3 0.596116 0.711347 0.180217
O O4 0.586967 0.004335 0.139093
O O5 0.589855 0.831127 0.905515
O O6 0.763078 0.961598 0.897250
O O7 0.750000 0.750000 0.000000
O O8 0.500000 0.000000 0.500000
O O9 0.410219 0.131448 0.587645
O O10 0.760151 0.237403 0.133390
O O11 0.915221 0.077129 0.106302
O O12 0.750000 0.250000 0.000000
O O13 0.407605 0.587809 0.848921
O O14 0.500000 0.474078 0.750000
#
# Coordination Sequence:
#
# PCOD9272031 Si02
#       6
#     8   8   8   8   8   8
#     4  10  20  39  64  88 127 167 213 268 322 388
#     4  10  20  37  60  92 127 164 216 270 324 391
#     4  10  20  36  63  91 122 167 212 259 325 387
#     4  10  22  39  62  89 126 168 212 262 321 391
#     4  10  22  39  65  91 124 174 215 262 330 389
#     4  10  20  39  65  86 124 172 210 263 330 381
#
# _framework density 23.653801000000001
#
# number of rings (size 3 to 8) (size 9 to 14) (size 15 to 20)
#    0.000    2.000    3.333    0.000    0.000    2.000 
#    0.000    1.667    0.000    0.000    0.000    0.000 
#    0.000    0.000    0.000    0.000    0.000    0.000 
#
# Total GULP energy -134060.863635 kJ/mol
# GULP energy per Si atom -5585.869318 kJ/mol
# Density = 2.359996 g / cm^3
# Si number density = 23.653801 Si / 1000 Ang^3
#
#
#
# Elastic Constant Matrix: (Units=GPa)
#
#
# Indices 1 2 3 4 5 6 
#
# 1 208.4322 58.0140 71.4548 0.0000 -1.3639 0.0000
# 2 58.0140 53.4701 6.7479 0.0000 3.1924 0.0000
# 3 71.4548 6.7479 140.3130 0.0000 6.6252 0.0000
# 4 0.0000 0.0000 0.0000 18.8515 0.0000 -2.6608
# 5 -1.3639 3.1924 6.6252 0.0000 54.2191 0.0000
# 6 0.0000 0.0000 0.0000 -2.6608 0.0000 62.6935
#
#
#
# Elastic Compliance Matrix: (Units=1/GPa)
#
#
# Indices 1 2 3 4 5 6 
#
# 1 0.008704 -0.009005 -0.004058 0.000000 0.001245 0.000000
# 2 -0.009005 0.028188 0.003339 0.000000 -0.002294 0.000000
# 3 -0.004058 0.003339 0.009100 0.000000 -0.001411 0.000000
# 4 0.000000 0.000000 0.000000 0.053366 0.000000 0.002265
# 5 0.001245 -0.002294 -0.001411 0.000000 0.018782 0.000000
# 6 0.000000 0.000000 0.000000 0.002265 0.000000 0.016047
#
#
# Mechanical properties :
#
#
# Convention : Reuss Voigt Hill
#
# Bulk Modulus (GPa) = 37.67613 74.96099 56.31856
# Shear Modulus (GPa) = 30.77241 44.88605 37.82923
#
# Velocity S-wave (km/s) = 3.61078 4.36090 4.00345
# Velocity P-wave (km/s) = 5.77463 7.55753 6.72542
#
# Compressibility (1/GPa) = 0.02654200
#
# Stress axis : x y z
#
# Youngs Moduli (GPa) = 114.89564 35.47572 109.89597
#
# Poissons Ratio (x) = 0.31947 0.44596
# Poissons Ratio (y) = 1.03468 -0.36691
# Poissons Ratio (z) = 0.46625 -0.11844
#
# Static dielectric constant tensor:
#      x y z
#    x 1.849950 0.000000 -0.115470 
#    y 0.000000 1.996940 0.000000 
#    z -0.115470 0.000000 1.762260 
# 
# From -- ./inp_files/196610.got.cif
#   From: 2010.05.17/outbox.cif.g08.bks.cpg/sg15_99_cif.got.tgz:196610.got - 2010.06.03 18:47:42.
