data_PCOD9272994
_publ_section_title
;
Structure prediction by ZEFSAII (Michael W. Deem and Ramdas Pophale) SiO2 
 PCOD9272994
Probable space group: C 2/C
;
_chemical_formula_sum "Si O2"
_cell_formula_units_Z 40
_cell_length_a 17.313177
_cell_length_b 7.359509
_cell_length_c 21.146348
_cell_angle_alpha 90.000000
_cell_angle_beta 44.324656
_cell_angle_gamma 90.000000
_cell_volume 1882.635096
_symmetry_space_group_name_H-M "C 2/C"
_symmetry_group_IT_number 15
_symmetry_cell_setting 'monoclinic'
loop_
_space_group_symop_operation_xyz
x,y,z
-x,y,1/2-z
-x,-y,-z
x,-y,1/2+z
1/2+x,1/2+y,z
1/2-x,1/2+y,1/2-z
1/2-x,1/2-y,-z
1/2+x,1/2-y,1/2+z
loop_
_atom_site_type_symbol
_atom_site_label
_atom_site_fract_x
_atom_site_fract_y
_atom_site_fract_z
Si Si1 0.154268 0.899381 0.409800
Si Si2 0.341874 0.078159 0.999342
Si Si3 0.625949 0.024663 0.665559
Si Si4 0.891819 0.098245 0.848808
Si Si5 0.460028 0.295156 0.448724
O O1 0.124476 0.757489 0.483166
O O2 0.286395 0.909803 0.333990
O O3 0.088825 0.829753 0.387172
O O4 0.106265 0.094745 0.458555
O O5 0.219877 0.014635 0.092432
O O6 0.425545 0.914348 0.966782
O O7 0.339957 0.092085 0.924398
O O8 0.500000 0.078240 0.750000
O O9 0.629727 0.804713 0.662077
O O10 0.921301 0.121591 0.905099
O O11 0.000000 0.025832 0.750000
#
# Coordination Sequence:
#
# PCOD9272994 Si02
#       5
#     8   8   8   8   8
#     4  11  21  36  61  86 111 152 189 240 293 333
#     4  11  20  39  61  84 115 156 198 231 282 347
#     4  10  20  37  62  85 117 154 195 237 284 342
#     4  10  20  38  61  84 116 159 194 235 286 341
#     4  10  21  39  57  84 119 146 187 244 291 334
#
# _framework density 21.246815000000002
#
# number of rings (size 3 to 8) (size 9 to 14) (size 15 to 20)
#    0.000    1.600    4.000    2.400    0.000    0.800 
#    0.000    8.000    0.000    0.000    0.000    0.000 
#    0.000    0.000    0.000    0.000    0.000    0.000 
#
# Total GULP energy -111793.028271 kJ/mol
# GULP energy per Si atom -5589.651414 kJ/mol
# Density = 2.119846 g / cm^3
# Si number density = 21.246815 Si / 1000 Ang^3
#
#
#
# Elastic Constant Matrix: (Units=GPa)
#
#
# Indices 1 2 3 4 5 6 
#
# 1 128.3867 24.3686 -3.1389 0.0000 -38.4258 0.0000
# 2 24.3686 74.8952 -9.5365 0.0002 -1.4387 -0.0002
# 3 -3.1389 -9.5365 49.3668 0.0000 -23.0069 -0.0001
# 4 0.0000 0.0002 0.0000 2.6691 0.0000 7.5659
# 5 -38.4258 -1.4387 -23.0069 0.0000 27.8205 0.0000
# 6 0.0000 -0.0002 -0.0001 7.5659 0.0000 24.6901
#
#
#
# Elastic Compliance Matrix: (Units=1/GPa)
#
#
# Indices 1 2 3 4 5 6 
#
# 1 0.029663 -0.004192 0.032654 0.000001 0.067758 0.000000
# 2 -0.004192 0.014671 0.000363 -0.000009 -0.004731 0.000003
# 3 0.032654 0.000363 0.070666 -0.000005 0.103560 0.000002
# 4 0.000001 -0.000009 -0.000005 2.851506 0.000003 -0.873798
# 5 0.067758 -0.004731 0.103560 0.000003 0.214930 -0.000001
# 6 0.000000 0.000003 0.000002 -0.873798 -0.000001 0.308263
#
#
# Mechanical properties :
#
#
# Convention : Reuss Voigt Hill
#
# Bulk Modulus (GPa) = 5.79206 30.67055 18.23131
# Shear Modulus (GPa) = 1.43283 27.09965 14.26624
#
# Velocity S-wave (km/s) = 0.82209 3.57524 2.59405
# Velocity P-wave (km/s) = 1.90607 5.61337 4.19184
#
# Compressibility (1/GPa) = 0.17265005
#
# Stress axis : x y z
#
# Youngs Moduli (GPa) = 33.71232 68.16079 14.15105
#
# Poissons Ratio (x) = 0.28572 -0.46209
# Poissons Ratio (y) = 0.14132 -0.00513
# Poissons Ratio (z) = -1.10085 -0.02472
#
# Static dielectric constant tensor:
#      x y z
#    x 1.775480 0.000000 -0.032820 
#    y 0.000000 1.792720 0.000000 
#    z -0.032820 0.000000 1.760380 
# 
# From -- ./inp_files/158770.got.cif
#   From: 2010.05.17/outbox.cif.g08.bks.cpg/sg15_80_cif.got.tgz:158770.got - 2010.06.03 18:47:42.
