data_PCOD9272169
_publ_section_title
;
Structure prediction by ZEFSAII (Michael W. Deem and Ramdas Pophale) SiO2 
 PCOD9272169
Probable space group: C 2/C
;
_chemical_formula_sum "Si O2"
_cell_formula_units_Z 36
_cell_length_a 5.253015
_cell_length_b 19.304501
_cell_length_c 14.125350
_cell_angle_alpha 90.000000
_cell_angle_beta 108.717899
_cell_angle_gamma 90.000000
_cell_volume 1356.647111
_symmetry_space_group_name_H-M "C 2/C"
_symmetry_group_IT_number 15
_symmetry_cell_setting 'monoclinic'
loop_
_space_group_symop_operation_xyz
x,y,z
-x,y,1/2-z
-x,-y,-z
x,-y,1/2+z
1/2+x,1/2+y,z
1/2-x,1/2+y,1/2-z
1/2-x,1/2-y,-z
1/2+x,1/2-y,1/2+z
loop_
_atom_site_type_symbol
_atom_site_label
_atom_site_fract_x
_atom_site_fract_y
_atom_site_fract_z
Si Si1 0.839655 0.078580 0.557050
Si Si2 0.192357 0.185818 0.680663
Si Si3 0.000000 0.614742 0.250000
Si Si4 0.432436 0.820051 0.934678
Si Si5 0.484760 0.439414 0.630909
O O1 0.628557 0.142879 0.533504
O O2 0.115288 0.110997 0.629510
O O3 0.854696 0.054709 0.450411
O O4 0.799092 0.007756 0.609168
O O5 0.500000 0.193598 0.750000
O O6 0.132882 0.239542 0.586549
O O7 0.000000 0.194771 0.750000
O O8 0.945535 0.663141 0.154410
O O9 0.268254 0.570172 0.267015
O O10 0.170181 0.867548 0.902011
#
# Coordination Sequence:
#
# PCOD9272169 Si02
#       5
#     8   8   4   8   8
#     4  10  25  43  66 102 137 183 235 295 356 421
#     4  12  28  46  72 105 146 186 242 294 360 421
#     4  10  20  36  64  98 128 176 226 284 342 420
#     4  11  22  43  69  96 136 184 235 285 353 427
#     4  10  22  41  69  98 138 182 237 287 357 423
#
# _framework density 26.536007999999999
#
# number of rings (size 3 to 8) (size 9 to 14) (size 15 to 20)
#    0.000    1.333    1.111    3.333    7.778    2.667 
#    0.000    0.000    0.000    0.000    0.000    0.000 
#    0.000    0.000    0.000    0.000    0.000    0.000 
#
# Total GULP energy -100554.423212 kJ/mol
# GULP energy per Si atom -5586.356845 kJ/mol
# Density = 2.647561 g / cm^3
# Si number density = 26.536008 Si / 1000 Ang^3
#
#
#
# Elastic Constant Matrix: (Units=GPa)
#
#
# Indices 1 2 3 4 5 6 
#
# 1 79.2193 5.9221 4.7099 0.0000 39.7732 0.0000
# 2 5.9221 117.5207 28.7766 0.0000 10.3402 0.0000
# 3 4.7099 28.7766 61.0407 0.0000 13.2099 0.0000
# 4 0.0000 0.0000 0.0000 36.1350 0.0000 7.6236
# 5 39.7732 10.3402 13.2099 0.0000 41.7987 0.0000
# 6 0.0000 0.0000 0.0000 7.6236 0.0000 17.6764
#
#
#
# Elastic Compliance Matrix: (Units=1/GPa)
#
#
# Indices 1 2 3 4 5 6 
#
# 1 0.024823 0.000094 0.003389 0.000000 -0.024714 0.000000
# 2 0.000094 0.009660 -0.004320 0.000000 -0.001114 0.000000
# 3 0.003389 -0.004320 0.019992 0.000000 -0.008474 0.000000
# 4 0.000000 0.000000 0.000000 0.030444 0.000000 -0.013130
# 5 -0.024714 -0.001114 -0.008474 0.000000 0.050394 0.000000
# 6 0.000000 0.000000 0.000000 -0.013130 0.000000 0.062236
#
#
# Mechanical properties :
#
#
# Convention : Reuss Voigt Hill
#
# Bulk Modulus (GPa) = 18.93967 37.39978 28.16972
# Shear Modulus (GPa) = 23.06019 33.68015 28.37017
#
# Velocity S-wave (km/s) = 2.95110 3.56648 3.27329
# Velocity P-wave (km/s) = 4.33184 5.57533 4.99245
#
# Compressibility (1/GPa) = 0.05279923
#
# Stress axis : x y z
#
# Youngs Moduli (GPa) = 40.28558 103.51632 50.02085
#
# Poissons Ratio (x) = -0.00971 -0.16951
# Poissons Ratio (y) = -0.00378 0.21611
# Poissons Ratio (z) = -0.13652 0.44723
#
# Static dielectric constant tensor:
#      x y z
#    x 2.256160 0.000000 -0.120030 
#    y 0.000000 2.057920 0.000000 
#    z -0.120030 0.000000 2.212920 
# 
# From -- ./inp_files/128665.got.cif
#   From: 2010.05.17/outbox.cif.g08.bks.cpg/sg15_65_cif.got.tgz:128665.got - 2010.06.03 18:47:42.
