data_PCOD9272150
_publ_section_title
;
Structure prediction by ZEFSAII (Michael W. Deem and Ramdas Pophale) SiO2 
 PCOD9272150
Probable space group: C 2/C
;
_chemical_formula_sum "Si O2"
_cell_formula_units_Z 44
_cell_length_a 13.944036
_cell_length_b 9.903139
_cell_length_c 17.104357
_cell_angle_alpha 90.000000
_cell_angle_beta 62.140060
_cell_angle_gamma 90.000000
_cell_volume 2088.170080
_symmetry_space_group_name_H-M "C 2/C"
_symmetry_group_IT_number 15
_symmetry_cell_setting 'monoclinic'
loop_
_space_group_symop_operation_xyz
x,y,z
-x,y,1/2-z
-x,-y,-z
x,-y,1/2+z
1/2+x,1/2+y,z
1/2-x,1/2+y,1/2-z
1/2-x,1/2-y,-z
1/2+x,1/2-y,1/2+z
loop_
_atom_site_type_symbol
_atom_site_label
_atom_site_fract_x
_atom_site_fract_y
_atom_site_fract_z
Si Si1 0.626217 0.522021 0.964241
Si Si2 0.500000 0.922651 0.250000
Si Si3 0.474688 0.921400 0.429375
Si Si4 0.771341 0.272129 0.314950
Si Si5 0.754018 0.032496 0.430781
Si Si6 0.818003 0.738802 0.621561
O O1 0.678584 0.641384 0.893257
O O2 0.687663 0.384772 0.914650
O O3 0.500000 0.500000 0.000000
O O4 0.647340 0.541960 0.047780
O O5 0.498921 0.992270 0.336359
O O6 0.389003 0.836031 0.290567
O O7 0.346806 0.901176 0.483793
O O8 0.555957 0.795283 0.404875
O O9 0.500000 0.000000 0.500000
O O10 0.769053 0.120529 0.348050
O O11 0.757268 0.270658 0.227281
O O12 0.724463 0.879834 0.418524
#
# Coordination Sequence:
#
# PCOD9272150 Si02
#       6
#     8   4   8   8   8   8
#     4  12  25  40  66  98 134 174 220 267 332 395
#     4  10  20  36  64  94 122 166 230 276 320 392
#     4   9  19  37  64  90 124 167 216 265 328 392
#     4  11  23  40  68  94 123 171 228 273 324 395
#     4  11  22  42  66  90 132 176 215 266 338 396
#     4  10  23  42  63  95 133 165 215 279 331 390
#
# _framework density 21.071081
#
# number of rings (size 3 to 8) (size 9 to 14) (size 15 to 20)
#    0.000    1.455    1.818    3.273    5.091    0.000 
#    0.000    0.000    0.000    0.000    0.000    0.000 
#    0.000    0.000    0.000    0.000    0.000    0.000 
#
# Total GULP energy -122828.720569 kJ/mol
# GULP energy per Si atom -5583.123662 kJ/mol
# Density = 2.102312 g / cm^3
# Si number density = 21.071081 Si / 1000 Ang^3
#
#
#
# Elastic Constant Matrix: (Units=GPa)
#
#
# Indices 1 2 3 4 5 6 
#
# 1 75.1497 -10.8707 5.8970 0.0000 -7.0089 0.0000
# 2 -10.8707 83.8243 15.2069 0.0000 6.7776 0.0000
# 3 5.8970 15.2069 96.8095 0.0000 21.2331 0.0000
# 4 0.0000 0.0000 0.0000 25.3729 0.0000 5.2326
# 5 -7.0089 6.7776 21.2331 0.0000 33.8554 0.0000
# 6 0.0000 0.0000 0.0000 5.2326 0.0000 11.6648
#
#
#
# Elastic Compliance Matrix: (Units=1/GPa)
#
#
# Indices 1 2 3 4 5 6 
#
# 1 0.014087 0.001881 -0.001983 0.000000 0.003784 0.000000
# 2 0.001881 0.012592 -0.001884 0.000000 -0.000950 0.000000
# 3 -0.001983 -0.001884 0.012469 0.000000 -0.007854 0.000000
# 4 0.000000 0.000000 0.000000 0.043430 0.000000 -0.019482
# 5 0.003784 -0.000950 -0.007854 0.000000 0.035436 0.000000
# 6 0.000000 0.000000 0.000000 -0.019482 0.000000 0.094467
#
#
# Mechanical properties :
#
#
# Convention : Reuss Voigt Hill
#
# Bulk Modulus (GPa) = 28.42957 30.69444 29.56200
# Shear Modulus (GPa) = 21.91244 30.54863 26.23053
#
# Velocity S-wave (km/s) = 3.22829 3.81174 3.53208
# Velocity P-wave (km/s) = 5.23616 5.82848 5.54024
#
# Compressibility (1/GPa) = 0.03517465
#
# Stress axis : x y z
#
# Youngs Moduli (GPa) = 70.98542 79.41396 80.19968
#
# Poissons Ratio (x) = -0.14936 0.15907
# Poissons Ratio (y) = -0.13351 0.15112
# Poissons Ratio (z) = 0.14080 0.14964
#
# Static dielectric constant tensor:
#      x y z
#    x 1.790030 0.000000 -0.000280 
#    y 0.000000 1.761540 0.000000 
#    z -0.000280 0.000000 1.766770 
# 
# From -- ./inp_files/202943.got.cif
#   From: 2010.05.17/outbox.cif.g08.bks.cpg/sg15_102_cif.got.tgz:202943.got - 2010.06.03 18:47:42.
