data_PCOD9272315
_publ_section_title
;
Structure prediction by ZEFSAII (Michael W. Deem and Ramdas Pophale) SiO2 
 PCOD9272315
Probable space group: C 2/C
;
_chemical_formula_sum "Si O2"
_cell_formula_units_Z 52
_cell_length_a 13.887272
_cell_length_b 25.025588
_cell_length_c 11.509601
_cell_angle_alpha 90.000000
_cell_angle_beta 137.088846
_cell_angle_gamma 90.000000
_cell_volume 2723.463317
_symmetry_space_group_name_H-M "C 2/C"
_symmetry_group_IT_number 15
_symmetry_cell_setting 'monoclinic'
loop_
_space_group_symop_operation_xyz
x,y,z
-x,y,1/2-z
-x,-y,-z
x,-y,1/2+z
1/2+x,1/2+y,z
1/2-x,1/2+y,1/2-z
1/2-x,1/2-y,-z
1/2+x,1/2-y,1/2+z
loop_
_atom_site_type_symbol
_atom_site_label
_atom_site_fract_x
_atom_site_fract_y
_atom_site_fract_z
Si Si1 0.733726 0.544110 0.975314
Si Si2 0.988240 0.352522 0.997001
Si Si3 0.201690 0.139207 0.617984
Si Si4 0.391939 0.253299 0.551819
Si Si5 0.650887 0.076068 0.947834
Si Si6 0.500000 0.881177 0.750000
Si Si7 0.488718 0.443648 0.428112
O O1 0.629529 0.554064 0.776331
O O2 0.641386 0.562063 0.004612
O O3 0.776525 0.481624 0.002603
O O4 0.872282 0.579951 0.100446
O O5 0.154005 0.362523 0.177241
O O6 0.940137 0.299798 0.025988
O O7 0.892478 0.401200 0.964169
O O8 0.969346 0.348734 0.841574
O O9 0.137105 0.198054 0.560229
O O10 0.255529 0.119258 0.539250
O O11 0.074874 0.100505 0.543608
O O12 0.500000 0.266374 0.750000
O O13 0.250000 0.250000 0.500000
O O14 0.500000 0.072611 0.750000
O O15 0.500000 0.500000 0.500000
#
# Coordination Sequence:
#
# PCOD9272315 Si02
#       7
#     8   8   8   8   8   4   8
#     4  11  24  40  62  98 134 184 224 268 331 404
#     4  11  24  43  67 101 134 177 227 274 336 402
#     4  11  22  43  68 100 136 171 216 292 344 397
#     4  12  23  43  74 102 127 165 223 294 346 386
#     4  10  20  36  68  98 130 170 224 277 335 390
#     4  12  26  44  68  92 142 190 228 264 322 414
#     4  11  24  41  62  95 143 173 219 277 338 399
#
# _framework density 19.093336000000001
#
# number of rings (size 3 to 8) (size 9 to 14) (size 15 to 20)
#    0.000    0.923    6.923    0.462    2.154    3.077 
#    0.000    2.308    0.000    0.000    0.000    0.000 
#    0.000    0.000    0.000    0.000    0.000    0.000 
#
# Total GULP energy -145012.114441 kJ/mol
# GULP energy per Si atom -5577.389017 kJ/mol
# Density = 1.904988 g / cm^3
# Si number density = 19.093336 Si / 1000 Ang^3
#
#
#
# Elastic Constant Matrix: (Units=GPa)
#
#
# Indices 1 2 3 4 5 6 
#
# 1 109.1853 40.3595 28.7418 0.0000 2.9594 0.0000
# 2 40.3595 87.6492 5.6041 0.0000 11.7540 0.0000
# 3 28.7418 5.6041 51.8920 0.0000 3.5617 0.0000
# 4 0.0000 0.0000 0.0000 25.9907 0.0000 7.7403
# 5 2.9594 11.7540 3.5617 0.0000 37.9282 0.0000
# 6 0.0000 0.0000 0.0000 7.7403 0.0000 22.8134
#
#
#
# Elastic Compliance Matrix: (Units=1/GPa)
#
#
# Indices 1 2 3 4 5 6 
#
# 1 0.013003 -0.005747 -0.006677 0.000000 0.001394 0.000000
# 2 -0.005747 0.014500 0.001907 0.000000 -0.004224 0.000000
# 3 -0.006677 0.001907 0.022916 0.000000 -0.002222 0.000000
# 4 0.000000 0.000000 0.000000 0.042800 0.000000 -0.014522
# 5 0.001394 -0.004224 -0.002222 0.000000 0.027775 0.000000
# 6 0.000000 0.000000 0.000000 -0.014522 0.000000 0.048761
#
#
# Mechanical properties :
#
#
# Convention : Reuss Voigt Hill
#
# Bulk Modulus (GPa) = 34.03151 44.23747 39.13449
# Shear Modulus (GPa) = 24.92726 28.94787 26.93756
#
# Velocity S-wave (km/s) = 3.61716 3.89797 3.76018
# Velocity P-wave (km/s) = 5.94202 6.59380 6.27638
#
# Compressibility (1/GPa) = 0.02938454
#
# Stress axis : x y z
#
# Youngs Moduli (GPa) = 76.90455 68.96477 43.63839
#
# Poissons Ratio (x) = 0.39637 0.29138
# Poissons Ratio (y) = 0.44201 -0.08323
# Poissons Ratio (z) = 0.51350 -0.13154
#
# Static dielectric constant tensor:
#      x y z
#    x 1.859040 0.000000 -0.050880 
#    y 0.000000 3.605470 0.000000 
#    z -0.050880 0.000000 1.633260 
# 
# From -- ./inp_files/91305.got.cif
#   From: 2010.05.17/outbox.cif.g08.bks.cpg/sg15_46_cif.got.tgz:91305.got - 2010.06.03 18:47:42.
