data_PCOD9272208
_publ_section_title
;
Structure prediction by ZEFSAII (Michael W. Deem and Ramdas Pophale) SiO2 
 PCOD9272208
Probable space group: C 2/C
;
_chemical_formula_sum "Si O2"
_cell_formula_units_Z 48
_cell_length_a 12.437799
_cell_length_b 8.722488
_cell_length_c 19.807624
_cell_angle_alpha 90.000000
_cell_angle_beta 112.654219
_cell_angle_gamma 90.000000
_cell_volume 1983.104503
_symmetry_space_group_name_H-M "C 2/C"
_symmetry_group_IT_number 15
_symmetry_cell_setting 'monoclinic'
loop_
_space_group_symop_operation_xyz
x,y,z
-x,y,1/2-z
-x,-y,-z
x,-y,1/2+z
1/2+x,1/2+y,z
1/2-x,1/2+y,1/2-z
1/2-x,1/2-y,-z
1/2+x,1/2-y,1/2+z
loop_
_atom_site_type_symbol
_atom_site_label
_atom_site_fract_x
_atom_site_fract_y
_atom_site_fract_z
Si Si1 0.105991 0.166675 0.825389
Si Si2 0.899445 0.189657 0.527319
Si Si3 0.700999 0.650111 0.344673
Si Si4 0.658602 0.305560 0.678410
Si Si5 0.340152 0.578775 0.926969
Si Si6 0.093718 0.569792 0.572707
O O1 0.094080 0.244925 0.894739
O O2 0.219426 0.225654 0.813556
O O3 0.000000 0.191781 0.750000
O O4 0.114453 0.985301 0.846575
O O5 0.842561 0.315722 0.464817
O O6 0.034572 0.162099 0.538838
O O7 0.836384 0.031631 0.490838
O O8 0.660720 0.683581 0.258882
O O9 0.733230 0.803997 0.392706
O O10 0.824854 0.560100 0.376624
O O11 0.653541 0.467162 0.637591
O O12 0.562152 0.188364 0.624951
O O13 0.000000 0.500000 0.500000
#
# Coordination Sequence:
#
# PCOD9272208 Si02
#       6
#     8   8   8   8   8   8
#     4  11  24  41  62  87 126 169 207 262 313 379
#     4  10  21  39  62  92 123 157 208 253 320 369
#     4  11  21  38  62  92 124 165 210 253 317 376
#     4  10  22  38  63  90 125 167 212 252 314 381
#     4  10  20  37  63  89 120 162 204 261 307 376
#     4  10  20  36  65  96 119 165 209 256 304 378
#
# _framework density 24.204471000000002
#
# number of rings (size 3 to 8) (size 9 to 14) (size 15 to 20)
#    0.000    1.667    1.667    4.000    0.000    6.667 
#    0.000    0.833    0.000    0.000    0.000    0.000 
#    0.000    0.000    0.000    0.000    0.000    0.000 
#
# Total GULP energy -134058.239436 kJ/mol
# GULP energy per Si atom -5585.759977 kJ/mol
# Density = 2.414938 g / cm^3
# Si number density = 24.204471 Si / 1000 Ang^3
#
#
#
# Elastic Constant Matrix: (Units=GPa)
#
#
# Indices 1 2 3 4 5 6 
#
# 1 41.8442 -3.8049 4.6178 0.0000 15.2711 0.0000
# 2 -3.8049 80.6712 17.9700 0.0000 13.0499 0.0000
# 3 4.6178 17.9700 160.9840 0.0000 17.5164 0.0000
# 4 0.0000 0.0000 0.0000 52.0132 0.0000 12.9510
# 5 15.2711 13.0499 17.5164 0.0000 35.6455 0.0000
# 6 0.0000 0.0000 0.0000 12.9510 0.0000 22.1140
#
#
#
# Elastic Compliance Matrix: (Units=1/GPa)
#
#
# Indices 1 2 3 4 5 6 
#
# 1 0.029304 0.003585 0.000283 0.000000 -0.014006 0.000000
# 2 0.003585 0.013769 -0.000976 0.000000 -0.006097 0.000000
# 3 0.000283 -0.000976 0.006642 0.000000 -0.003028 0.000000
# 4 0.000000 0.000000 0.000000 0.022508 0.000000 -0.013182
# 5 -0.014006 -0.006097 -0.003028 0.000000 0.037774 0.000000
# 6 0.000000 0.000000 0.000000 -0.013182 0.000000 0.052940
#
#
# Mechanical properties :
#
#
# Convention : Reuss Voigt Hill
#
# Bulk Modulus (GPa) = 18.01849 35.67390 26.84619
# Shear Modulus (GPa) = 28.46502 39.60230 34.03366
#
# Velocity S-wave (km/s) = 3.43304 4.04933 3.75385
# Velocity P-wave (km/s) = 4.81402 6.05255 5.46846
#
# Compressibility (1/GPa) = 0.05549856
#
# Stress axis : x y z
#
# Youngs Moduli (GPa) = 34.12453 72.62787 150.55433
#
# Poissons Ratio (x) = -0.26035 -0.04264
# Poissons Ratio (y) = -0.12233 0.14700
# Poissons Ratio (z) = -0.00967 0.07091
#
# Static dielectric constant tensor:
#      x y z
#    x 2.005280 0.000000 0.048810 
#    y 0.000000 2.028320 0.000000 
#    z 0.048810 0.000000 1.880760 
# 
# From -- ./inp_files/242570.got.cif
#   From: 2010.05.17/outbox.cif.g08.bks.cpg/sg15_122_cif.got.tgz:242570.got - 2010.06.03 18:47:42.
