data_PCOD9272628
_publ_section_title
;
Structure prediction by ZEFSAII (Michael W. Deem and Ramdas Pophale) SiO2 
 PCOD9272628
Probable space group: C 2/C
;
_chemical_formula_sum "Si O2"
_cell_formula_units_Z 48
_cell_length_a 7.831178
_cell_length_b 18.262095
_cell_length_c 16.606104
_cell_angle_alpha 90.000000
_cell_angle_beta 123.297243
_cell_angle_gamma 90.000000
_cell_volume 1985.022185
_symmetry_space_group_name_H-M "C 2/C"
_symmetry_group_IT_number 15
_symmetry_cell_setting 'monoclinic'
loop_
_space_group_symop_operation_xyz
x,y,z
-x,y,1/2-z
-x,-y,-z
x,-y,1/2+z
1/2+x,1/2+y,z
1/2-x,1/2+y,1/2-z
1/2-x,1/2-y,-z
1/2+x,1/2-y,1/2+z
loop_
_atom_site_type_symbol
_atom_site_label
_atom_site_fract_x
_atom_site_fract_y
_atom_site_fract_z
Si Si1 0.421181 0.057729 0.137711
Si Si2 0.256699 0.808105 0.186245
Si Si3 0.413313 0.783278 0.636638
Si Si4 0.747106 0.409635 0.037829
Si Si5 0.826514 0.974396 0.640438
Si Si6 0.789277 0.363267 0.373930
O O1 0.500000 0.052878 0.250000
O O2 0.326728 0.137198 0.096515
O O3 0.612270 0.047172 0.126739
O O4 0.278019 0.989358 0.084670
O O5 0.500000 0.794756 0.250000
O O6 0.185583 0.857121 0.093627
O O7 0.219455 0.849113 0.262372
O O8 0.121707 0.735570 0.144239
O O9 0.500000 0.788309 0.750000
O O10 0.268842 0.712145 0.596299
O O11 0.969556 0.378412 0.068557
O O12 0.628066 0.425032 0.925318
O O13 0.000000 0.964009 0.750000
O O14 0.805956 0.061525 0.617260
#
# Coordination Sequence:
#
# PCOD9272628 Si02
#       6
#     8   8   8   8   8   8
#     4  10  20  37  60  89 118 146 185 238 286 329
#     4   9  17  32  58  85 115 154 192 225 276 348
#     4   9  18  33  57  89 121 152 185 226 281 339
#     4  10  20  37  59  84 112 151 194 235 281 337
#     4  11  22  38  58  81 113 152 193 239 288 338
#     4   9  17  35  59  84 113 151 190 229 278 345
#
# _framework density 24.181090000000001
#
# number of rings (size 3 to 8) (size 9 to 14) (size 15 to 20)
#    0.000    2.333    0.000    6.000    0.000    0.667 
#    0.000   13.333    0.000    6.000    0.000    1.167 
#    0.000    0.000    0.000    0.000    0.000    0.000 
#
# Total GULP energy -134269.018020 kJ/mol
# GULP energy per Si atom -5594.542418 kJ/mol
# Density = 2.412605 g / cm^3
# Si number density = 24.181090 Si / 1000 Ang^3
#
#
#
# Elastic Constant Matrix: (Units=GPa)
#
#
# Indices 1 2 3 4 5 6 
#
# 1 59.1259 27.6364 2.5496 0.0000 -9.0837 0.0000
# 2 27.6364 125.4912 28.7332 0.0000 -2.9781 0.0000
# 3 2.5496 28.7332 89.4782 0.0000 -7.0863 0.0000
# 4 0.0000 0.0000 0.0000 8.1148 0.0000 1.1617
# 5 -9.0837 -2.9781 -7.0863 0.0000 22.2697 0.0000
# 6 0.0000 0.0000 0.0000 1.1617 0.0000 -11.1639
#
#
#
# Elastic Compliance Matrix: (Units=1/GPa)
#
#
# Indices 1 2 3 4 5 6 
#
# 1 0.020258 -0.004623 0.001552 0.000000 0.008139 0.000000
# 2 -0.004623 0.009658 -0.003095 0.000000 -0.001579 0.000000
# 3 0.001552 -0.003095 0.012457 0.000000 0.004183 0.000000
# 4 0.000000 0.000000 0.000000 0.121423 0.000000 0.012635
# 5 0.008139 -0.001579 0.004183 0.000000 0.049344 0.000000
# 6 0.000000 0.000000 0.000000 0.012635 0.000000 -0.088259
#
#
# Mechanical properties :
#
#
# Convention : Reuss Voigt Hill
#
# Bulk Modulus (GPa) = 33.28897 43.54820 38.41858
# Shear Modulus (GPa) = 33.96158 18.18917 26.07538
#
# Velocity S-wave (km/s) = 3.75169 2.74561 3.28737
# Velocity P-wave (km/s) = 5.70643 5.30089 5.50740
#
# Compressibility (1/GPa) = 0.03003998
#
# Stress axis : x y z
#
# Youngs Moduli (GPa) = 49.36427 103.54115 80.27796
#
# Poissons Ratio (x) = 0.47872 -0.12459
# Poissons Ratio (y) = 0.22823 0.24843
# Poissons Ratio (z) = -0.07661 0.32043
#
# Static dielectric constant tensor:
#      x y z
#    x 1.959690 0.000000 -0.026110 
#    y 0.000000 1.894210 0.000000 
#    z -0.026110 0.000000 1.950480 
# 
# From -- ./inp_files/190643.got.cif
#   From: 2010.05.17/outbox.cif.g08.bks.cpg/sg15_96_cif.got.tgz:190643.got - 2010.06.03 18:47:42.
