data_PCOD9272940
_publ_section_title
;
Structure prediction by ZEFSAII (Michael W. Deem and Ramdas Pophale) SiO2 
 PCOD9272940
Probable space group: C 2/C
;
_chemical_formula_sum "Si O2"
_cell_formula_units_Z 40
_cell_length_a 11.021238
_cell_length_b 8.530832
_cell_length_c 20.212951
_cell_angle_alpha 90.000000
_cell_angle_beta 113.881396
_cell_angle_gamma 90.000000
_cell_volume 1737.724017
_symmetry_space_group_name_H-M "C 2/C"
_symmetry_group_IT_number 15
_symmetry_cell_setting 'monoclinic'
loop_
_space_group_symop_operation_xyz
x,y,z
-x,y,1/2-z
-x,-y,-z
x,-y,1/2+z
1/2+x,1/2+y,z
1/2-x,1/2+y,1/2-z
1/2-x,1/2-y,-z
1/2+x,1/2-y,1/2+z
loop_
_atom_site_type_symbol
_atom_site_label
_atom_site_fract_x
_atom_site_fract_y
_atom_site_fract_z
Si Si1 0.681981 0.097436 0.174069
Si Si2 0.155873 0.900724 0.922517
Si Si3 0.376659 0.446796 0.321872
Si Si4 0.519742 0.872102 0.061246
Si Si5 0.351050 0.566642 0.453715
O O1 0.745392 0.127087 0.115735
O O2 0.622887 0.260382 0.186714
O O3 0.795230 0.032464 0.247018
O O4 0.572644 0.964047 0.136990
O O5 0.101443 0.741605 0.944674
O O6 0.024417 0.984252 0.862657
O O7 0.214285 0.014675 0.992536
O O8 0.305002 0.485467 0.376241
O O9 0.629722 0.748005 0.058969
O O10 0.500000 0.000000 0.000000
O O11 0.500000 0.500000 0.500000
#
# Coordination Sequence:
#
# PCOD9272940 Si02
#       5
#     8   8   8   8   8
#     4  12  23  39  64  85 118 163 194 241 305 346
#     4  10  22  41  62  87 120 157 196 243 294 352
#     4  10  21  39  59  88 121 151 197 246 288 350
#     4  10  20  37  61  91 121 151 197 247 290 352
#     4   8  17  36  58  82 118 150 187 243 286 336
#
# _framework density 23.018616000000002
#
# number of rings (size 3 to 8) (size 9 to 14) (size 15 to 20)
#    0.000    2.400    0.000    6.600    0.000    4.000 
#    0.000   12.000    0.000    0.000    0.000    0.000 
#    0.000    0.000    0.000    0.000    0.000    0.000 
#
# Total GULP energy -111791.783939 kJ/mol
# GULP energy per Si atom -5589.589197 kJ/mol
# Density = 2.296622 g / cm^3
# Si number density = 23.018616 Si / 1000 Ang^3
#
#
#
# Elastic Constant Matrix: (Units=GPa)
#
#
# Indices 1 2 3 4 5 6 
#
# 1 53.5802 11.1157 -0.0748 0.0000 -8.4046 0.0000
# 2 11.1157 169.5389 31.0977 0.0000 8.2791 0.0000
# 3 -0.0748 31.0977 104.5664 0.0000 -7.9134 0.0000
# 4 0.0000 0.0000 0.0000 46.7472 0.0000 2.1171
# 5 -8.4046 8.2791 -7.9134 0.0000 25.8587 0.0000
# 6 0.0000 0.0000 0.0000 2.1171 0.0000 32.6951
#
#
#
# Elastic Compliance Matrix: (Units=1/GPa)
#
#
# Indices 1 2 3 4 5 6 
#
# 1 0.020244 -0.001907 0.001152 0.000000 0.007543 0.000000
# 2 -0.001907 0.006598 -0.002222 0.000000 -0.003412 0.000000
# 3 0.001152 -0.002222 0.010551 0.000000 0.004315 0.000000
# 4 0.000000 0.000000 0.000000 0.021455 0.000000 -0.001389
# 5 0.007543 -0.003412 0.004315 0.000000 0.043536 0.000000
# 6 0.000000 0.000000 0.000000 -0.001389 0.000000 0.030676
#
#
# Mechanical properties :
#
#
# Convention : Reuss Voigt Hill
#
# Bulk Modulus (GPa) = 31.80612 45.77364 38.78988
# Shear Modulus (GPa) = 33.44664 40.09665 36.77164
#
# Velocity S-wave (km/s) = 3.81599 4.17816 4.00118
# Velocity P-wave (km/s) = 5.76743 6.57303 6.18337
#
# Compressibility (1/GPa) = 0.03144049
#
# Stress axis : x y z
#
# Youngs Moduli (GPa) = 49.39724 151.57228 94.77430
#
# Poissons Ratio (x) = 0.28905 -0.10922
# Poissons Ratio (y) = 0.09420 0.21056
# Poissons Ratio (z) = -0.05693 0.33674
#
# Static dielectric constant tensor:
#      x y z
#    x 1.943920 0.000000 -0.023120 
#    y 0.000000 1.864280 0.000000 
#    z -0.023120 0.000000 1.862600 
# 
# From -- ./inp_files/242111.got.cif
#   From: 2010.05.17/outbox.cif.g08.bks.cpg/sg15_122_cif.got.tgz:242111.got - 2010.06.03 18:47:42.
