data_PCOD9272403
_publ_section_title
;
Structure prediction by ZEFSAII (Michael W. Deem and Ramdas Pophale) SiO2 
 PCOD9272403
Probable space group: C 2/C
;
_chemical_formula_sum "Si O2"
_cell_formula_units_Z 52
_cell_length_a 23.017956
_cell_length_b 14.776837
_cell_length_c 8.244293
_cell_angle_alpha 90.000000
_cell_angle_beta 101.808854
_cell_angle_gamma 90.000000
_cell_volume 2744.804965
_symmetry_space_group_name_H-M "C 2/C"
_symmetry_group_IT_number 15
_symmetry_cell_setting 'monoclinic'
loop_
_space_group_symop_operation_xyz
x,y,z
-x,y,1/2-z
-x,-y,-z
x,-y,1/2+z
1/2+x,1/2+y,z
1/2-x,1/2+y,1/2-z
1/2-x,1/2-y,-z
1/2+x,1/2-y,1/2+z
loop_
_atom_site_type_symbol
_atom_site_label
_atom_site_fract_x
_atom_site_fract_y
_atom_site_fract_z
Si Si1 0.196037 0.429366 0.709730
Si Si2 0.936296 0.113822 0.421836
Si Si3 0.195836 0.823243 0.635821
Si Si4 0.428651 0.901785 0.018360
Si Si5 0.000000 0.961777 0.250000
Si Si6 0.284035 0.120104 0.926238
Si Si7 0.000000 0.260214 0.250000
Si Si8 0.000000 0.554102 0.250000
O O1 0.253110 0.364291 0.718119
O O2 0.140088 0.407484 0.565947
O O3 0.214328 0.533852 0.690144
O O4 0.180685 0.409805 0.890038
O O5 0.867071 0.132823 0.366478
O O6 0.956948 0.097291 0.615753
O O7 0.972277 0.197588 0.370960
O O8 0.958588 0.026494 0.335212
O O9 0.220263 0.854190 0.471036
O O10 0.193102 0.714273 0.634655
O O11 0.448112 0.821073 0.145672
O O12 0.453352 0.990352 0.126191
O O13 0.464909 0.893798 0.870065
#
# Coordination Sequence:
#
# PCOD9272403 Si02
#       8
#     8   8   8   8   4   8   4   4
#     4  10  20  37  62  85 114 160 193 246 294 355
#     4  10  21  41  62  84 117 149 197 248 301 348
#     4   9  22  39  61  87 122 153 193 251 300 350
#     4  10  20  37  55  86 118 148 205 226 291 358
#     4   9  22  40  62  89 106 154 204 241 294 365
#     4   9  21  39  55  91 119 152 200 233 308 346
#     4  10  24  38  54  88 120 154 190 250 288 351
#     4   9  20  34  54  79 114 162 182 237 270 338
#
# _framework density 18.944879
#
# number of rings (size 3 to 8) (size 9 to 14) (size 15 to 20)
#    0.923    1.538    0.000    0.923    2.154    8.000 
#    0.000    4.615    0.000    0.000    0.000    0.000 
#    0.000    0.000    0.000    0.000    0.000    0.000 
#
# Total GULP energy -144857.080183 kJ/mol
# GULP energy per Si atom -5571.426161 kJ/mol
# Density = 1.890176 g / cm^3
# Si number density = 18.944879 Si / 1000 Ang^3
#
#
#
# Elastic Constant Matrix: (Units=GPa)
#
#
# Indices 1 2 3 4 5 6 
#
# 1 95.8099 39.8132 17.3308 0.0000 27.8400 0.0000
# 2 39.8132 118.5942 42.7342 0.0000 18.3262 0.0000
# 3 17.3308 42.7342 61.6437 0.0000 17.8977 0.0000
# 4 0.0000 0.0000 0.0000 20.5240 0.0000 -17.8461
# 5 27.8400 18.3262 17.8977 0.0000 23.3103 0.0000
# 6 0.0000 0.0000 0.0000 -17.8461 0.0000 49.7986
#
#
#
# Elastic Compliance Matrix: (Units=1/GPa)
#
#
# Indices 1 2 3 4 5 6 
#
# 1 0.017403 -0.004068 0.003904 0.000000 -0.020583 0.000000
# 2 -0.004068 0.012441 -0.007788 0.000000 0.001058 0.000000
# 3 0.003904 -0.007788 0.025866 0.000000 -0.018400 0.000000
# 4 0.000000 0.000000 0.000000 0.070778 0.000000 0.025364
# 5 -0.020583 0.001058 -0.018400 0.000000 0.080779 0.000000
# 6 0.000000 0.000000 0.000000 0.025364 0.000000 0.029171
#
#
# Mechanical properties :
#
#
# Convention : Reuss Voigt Hill
#
# Bulk Modulus (GPa) = 25.12254 52.86714 38.99484
# Shear Modulus (GPa) = 18.82464 30.47122 24.64793
#
# Velocity S-wave (km/s) = 3.15565 4.01486 3.61090
# Velocity P-wave (km/s) = 5.15433 7.03267 6.16545
#
# Compressibility (1/GPa) = 0.03980489
#
# Stress axis : x y z
#
# Youngs Moduli (GPa) = 57.46215 80.38159 38.66125
#
# Poissons Ratio (x) = 0.32701 -0.15093
# Poissons Ratio (y) = 0.23377 0.30108
# Poissons Ratio (z) = -0.22432 0.62599
#
# Static dielectric constant tensor:
#      x y z
#    x 1.542630 0.000000 -0.049870 
#    y 0.000000 1.645980 0.000000 
#    z -0.049870 0.000000 1.660910 
# 
# From -- ./inp_files/61267.got.cif
#   From: 2010.05.17/outbox.cif.g08.bks.cpg/sg15_31_cif.got.tgz:61267.got - 2010.06.03 18:47:42.
