data_PCOD9272063
_publ_section_title
;
Structure prediction by ZEFSAII (Michael W. Deem and Ramdas Pophale) SiO2 
 PCOD9272063
Probable space group: C 2/C
;
_chemical_formula_sum "Si O2"
_cell_formula_units_Z 56
_cell_length_a 29.858849
_cell_length_b 11.665977
_cell_length_c 9.038972
_cell_angle_alpha 90.000000
_cell_angle_beta 121.763630
_cell_angle_gamma 90.000000
_cell_volume 2676.998467
_symmetry_space_group_name_H-M "C 2/C"
_symmetry_group_IT_number 15
_symmetry_cell_setting 'monoclinic'
loop_
_space_group_symop_operation_xyz
x,y,z
-x,y,1/2-z
-x,-y,-z
x,-y,1/2+z
1/2+x,1/2+y,z
1/2-x,1/2+y,1/2-z
1/2-x,1/2-y,-z
1/2+x,1/2-y,1/2+z
loop_
_atom_site_type_symbol
_atom_site_label
_atom_site_fract_x
_atom_site_fract_y
_atom_site_fract_z
Si Si1 0.847896 0.563277 0.590285
Si Si2 0.128450 0.890240 0.448946
Si Si3 0.038199 0.052046 0.182784
Si Si4 0.233765 0.264084 0.642038
Si Si5 0.658454 0.162654 0.588915
Si Si6 0.062177 0.264931 0.342375
Si Si7 0.147826 0.884121 0.155790
O O1 0.797503 0.615981 0.413922
O O2 0.843964 0.597898 0.756832
O O3 0.847706 0.429884 0.551212
O O4 0.900328 0.626703 0.621176
O O5 0.117711 0.765782 0.495544
O O6 0.161147 0.877395 0.352362
O O7 0.077826 0.954634 0.297388
O O8 0.146258 0.982678 0.602997
O O9 0.065577 0.174711 0.210085
O O10 0.000000 0.080125 0.250000
O O11 0.000000 0.000000 0.000000
O O12 0.250000 0.250000 0.500000
O O13 0.286985 0.235375 0.821236
O O14 0.190972 0.174246 0.626149
O O15 0.093661 0.187776 0.522987
O O16 0.000000 0.299588 0.250000
#
# Coordination Sequence:
#
# PCOD9272063 Si02
#       7
#     8   8   8   8   8   8   8
#     4  10  24  44  65  91 133 172 224 271 324 394
#     4  11  24  38  64  99 130 167 213 271 336 390
#     4  10  20  36  63  95 126 163 215 271 330 387
#     4   9  22  43  67  89 123 173 215 270 328 377
#     4  11  26  42  66  93 132 174 222 268 326 397
#     4   9  19  39  66  88 128 174 211 273 329 381
#     4  10  23  38  65  97 131 162 222 268 331 398
#
# _framework density 20.918952999999998
#
# number of rings (size 3 to 8) (size 9 to 14) (size 15 to 20)
#    0.000    2.000    0.000    2.571   16.000    1.714 
#    0.000    1.429    0.000    0.000    0.000    0.000 
#    0.000    0.000    0.000    0.000    0.000    0.000 
#
# Total GULP energy -155897.889807 kJ/mol
# GULP energy per Si atom -5567.781779 kJ/mol
# Density = 2.087134 g / cm^3
# Si number density = 20.918953 Si / 1000 Ang^3
#
#
#
# Elastic Constant Matrix: (Units=GPa)
#
#
# Indices 1 2 3 4 5 6 
#
# 1 80.0011 16.0172 21.7952 0.0000 -0.9323 0.0000
# 2 16.0172 90.5189 31.6193 0.0000 -11.9985 0.0000
# 3 21.7952 31.6193 81.4838 0.0000 -14.9935 0.0000
# 4 0.0000 0.0000 0.0000 26.5268 0.0000 -4.7927
# 5 -0.9323 -11.9985 -14.9935 0.0000 33.9060 0.0000
# 6 0.0000 0.0000 0.0000 -4.7927 0.0000 22.8724
#
#
#
# Elastic Compliance Matrix: (Units=1/GPa)
#
#
# Indices 1 2 3 4 5 6 
#
# 1 0.013699 -0.001453 -0.003402 0.000000 -0.001642 0.000000
# 2 -0.001453 0.013137 -0.004203 0.000000 0.002750 0.000000
# 3 -0.003402 -0.004203 0.015809 0.000000 0.005410 0.000000
# 4 0.000000 0.000000 0.000000 0.039181 0.000000 0.008210
# 5 -0.001642 0.002750 0.005410 0.000000 0.032814 0.000000
# 6 0.000000 0.000000 0.000000 0.008210 0.000000 0.045441
#
#
# Mechanical properties :
#
#
# Convention : Reuss Voigt Hill
#
# Bulk Modulus (GPa) = 40.77039 43.42967 42.10003
# Shear Modulus (GPa) = 26.82783 28.83251 27.83017
#
# Velocity S-wave (km/s) = 3.58504 3.71657 3.65140
# Velocity P-wave (km/s) = 6.05546 6.26284 6.16003
#
# Compressibility (1/GPa) = 0.02452761
#
# Stress axis : x y z
#
# Youngs Moduli (GPa) = 73.00045 76.11912 63.25562
#
# Poissons Ratio (x) = 0.11061 0.21522
# Poissons Ratio (y) = 0.10608 0.26587
# Poissons Ratio (z) = 0.24837 0.31993
#
# Static dielectric constant tensor:
#      x y z
#    x 1.807010 0.000000 0.012130 
#    y 0.000000 1.992810 0.000000 
#    z 0.012130 0.000000 1.814090 
# 
# From -- ./inp_files/69463.got.cif
#   From: 2010.05.17/outbox.cif.g08.bks.cpg/sg15_35_cif.got.tgz:69463.got - 2010.06.03 18:47:42.
