data_PCOD9272556
_publ_section_title
;
Structure prediction by ZEFSAII (Michael W. Deem and Ramdas Pophale) SiO2 
 PCOD9272556
Probable space group: C 2/C
;
_chemical_formula_sum "Si O2"
_cell_formula_units_Z 48
_cell_length_a 17.105603
_cell_length_b 7.796764
_cell_length_c 20.206329
_cell_angle_alpha 90.000000
_cell_angle_beta 70.791582
_cell_angle_gamma 90.000000
_cell_volume 2544.855242
_symmetry_space_group_name_H-M "C 2/C"
_symmetry_group_IT_number 15
_symmetry_cell_setting 'monoclinic'
loop_
_space_group_symop_operation_xyz
x,y,z
-x,y,1/2-z
-x,-y,-z
x,-y,1/2+z
1/2+x,1/2+y,z
1/2-x,1/2+y,1/2-z
1/2-x,1/2-y,-z
1/2+x,1/2-y,1/2+z
loop_
_atom_site_type_symbol
_atom_site_label
_atom_site_fract_x
_atom_site_fract_y
_atom_site_fract_z
Si Si1 0.098190 0.455439 0.476097
Si Si2 0.554138 0.114329 0.124225
Si Si3 0.150533 0.131304 0.378272
Si Si4 0.439049 0.809635 0.212186
Si Si5 0.610424 0.255128 0.375537
Si Si6 0.838406 0.373135 0.781397
O O1 0.116262 0.446773 0.549306
O O2 0.378504 0.227219 0.561233
O O3 0.135740 0.601744 0.418268
O O4 0.000000 0.500000 0.500000
O O5 0.496589 0.951944 0.159853
O O6 0.598302 0.180685 0.177890
O O7 0.488370 0.245670 0.111078
O O8 0.133982 0.935200 0.400361
O O9 0.246528 0.149988 0.333307
O O10 0.097514 0.174136 0.327564
O O11 0.500000 0.733583 0.250000
O O12 0.364613 0.927517 0.261618
O O13 0.649718 0.222429 0.291952
#
# Coordination Sequence:
#
# PCOD9272556 Si02
#       6
#     8   8   8   8   8   8
#     4  10  20  39  58  83 118 156 190 234 290 342
#     4   9  19  39  59  77 118 156 184 237 288 341
#     4  12  21  34  62  87 110 151 192 239 289 339
#     4   9  18  36  57  80 111 151 188 235 289 337
#     4  10  21  35  62  85 112 150 202 233 280 347
#     4  10  20  37  58  85 119 148 190 243 293 334
#
# _framework density 18.861583
#
# number of rings (size 3 to 8) (size 9 to 14) (size 15 to 20)
#    0.000    2.000    5.000    2.500    0.000    4.667 
#    0.000    0.833    0.000    0.000    0.000    0.000 
#    0.000    0.000    0.000    0.000    0.000    0.000 
#
# Total GULP energy -133740.134027 kJ/mol
# GULP energy per Si atom -5572.505584 kJ/mol
# Density = 1.881865 g / cm^3
# Si number density = 18.861583 Si / 1000 Ang^3
#
#
#
# Elastic Constant Matrix: (Units=GPa)
#
#
# Indices 1 2 3 4 5 6 
#
# 1 57.8593 19.9895 27.5279 0.0000 -9.2763 0.0000
# 2 19.9895 82.0467 23.9754 0.0001 -12.4551 0.0000
# 3 27.5279 23.9754 88.0190 0.0000 -21.3142 0.0000
# 4 0.0000 0.0001 0.0000 12.7140 0.0000 2.7456
# 5 -9.2763 -12.4551 -21.3142 0.0000 14.0654 0.0000
# 6 0.0000 0.0000 0.0000 2.7456 0.0000 13.9668
#
#
#
# Elastic Compliance Matrix: (Units=1/GPa)
#
#
# Indices 1 2 3 4 5 6 
#
# 1 0.021318 -0.003185 -0.004862 0.000000 0.003871 0.000000
# 2 -0.003185 0.014650 -0.000571 0.000000 0.010007 0.000000
# 3 -0.004862 -0.000571 0.019175 0.000000 0.025344 0.000000
# 4 0.000000 0.000000 0.000000 0.082140 0.000000 -0.016147
# 5 0.003871 0.010007 0.025344 0.000000 0.120916 0.000000
# 6 0.000000 0.000000 0.000000 -0.016147 0.000000 0.074772
#
#
# Mechanical properties :
#
#
# Convention : Reuss Voigt Hill
#
# Bulk Modulus (GPa) = 26.38170 41.21232 33.79701
# Shear Modulus (GPa) = 13.78006 18.57807 16.17907
#
# Velocity S-wave (km/s) = 2.70587 3.14183 2.93196
# Velocity P-wave (km/s) = 4.87644 5.92104 5.42395
#
# Compressibility (1/GPa) = 0.03790507
#
# Stress axis : x y z
#
# Youngs Moduli (GPa) = 46.90953 68.25846 52.15238
#
# Poissons Ratio (x) = 0.21743 0.25357
# Poissons Ratio (y) = 0.14942 0.02979
# Poissons Ratio (z) = 0.22808 0.03899
#
# Static dielectric constant tensor:
#      x y z
#    x 1.653480 0.000000 -0.011950 
#    y 0.000000 1.659780 0.000000 
#    z -0.011950 0.000000 1.718520 
# 
# From -- ./inp_files/246692.got.cif
#   From: 2010.05.17/outbox.cif.g08.bks.cpg/sg15_124_cif.got.tgz:246692.got - 2010.06.03 18:47:42.
