data_PCOD9272936
_publ_section_title
;
Structure prediction by ZEFSAII (Michael W. Deem and Ramdas Pophale) SiO2 
 PCOD9272936
Probable space group: C 2/C
;
_chemical_formula_sum "Si O2"
_cell_formula_units_Z 56
_cell_length_a 29.364376
_cell_length_b 12.763486
_cell_length_c 14.984734
_cell_angle_alpha 90.000000
_cell_angle_beta 27.806783
_cell_angle_gamma 90.000000
_cell_volume 2619.887991
_symmetry_space_group_name_H-M "C 2/C"
_symmetry_group_IT_number 15
_symmetry_cell_setting 'monoclinic'
loop_
_space_group_symop_operation_xyz
x,y,z
-x,y,1/2-z
-x,-y,-z
x,-y,1/2+z
1/2+x,1/2+y,z
1/2-x,1/2+y,1/2-z
1/2-x,1/2-y,-z
1/2+x,1/2-y,1/2+z
loop_
_atom_site_type_symbol
_atom_site_label
_atom_site_fract_x
_atom_site_fract_y
_atom_site_fract_z
Si Si1 0.500000 0.456687 0.750000
Si Si2 0.270088 0.835938 0.862896
Si Si3 0.500000 0.996553 0.750000
Si Si4 0.286438 0.062403 0.153794
Si Si5 0.749623 0.365833 0.538566
Si Si6 0.895573 0.052042 0.762187
Si Si7 0.856209 0.877809 0.141595
Si Si8 0.918624 0.468264 0.710970
O O1 0.463519 0.527553 0.729545
O O2 0.581754 0.386490 0.557280
O O3 0.255759 0.917635 0.807079
O O4 0.308356 0.732487 0.748807
O O5 0.353549 0.878487 0.782544
O O6 0.172484 0.849948 0.089188
O O7 0.466114 0.934979 0.721797
O O8 0.596201 0.060492 0.554073
O O9 0.236105 0.955616 0.207992
O O10 0.243733 0.143290 0.156093
O O11 0.750000 0.250000 0.500000
O O12 0.667475 0.444571 0.642450
O O13 0.849493 0.430615 0.347568
O O14 0.921242 0.084409 0.615071
O O15 0.000000 0.500000 0.500000
#
# Coordination Sequence:
#
# PCOD9272936 Si02
#       8
#     4   8   4   8   8   8   8   8
#     4  12  24  43  73  96 134 180 222 285 329 396
#     4  11  22  41  68  94 132 177 220 266 346 398
#     4  10  20  39  65  90 130 164 216 265 343 374
#     4  10  21  40  65  93 132 171 211 286 330 399
#     4   9  21  37  61  91 128 170 217 267 330 388
#     4  10  23  44  63  94 137 176 221 272 337 399
#     4  11  25  44  68  96 134 177 226 276 335 404
#     4  10  20  37  61  90 130 165 206 274 325 389
#
# _framework density 21.374960000000002
#
# number of rings (size 3 to 8) (size 9 to 14) (size 15 to 20)
#    0.000    1.714    2.857    1.714    2.000    1.714 
#    0.000    2.857    0.000    0.000    0.000    0.000 
#    0.000    0.000    0.000    0.000    0.000    0.000 
#
# Total GULP energy -156154.440206 kJ/mol
# GULP energy per Si atom -5576.944293 kJ/mol
# Density = 2.132631 g / cm^3
# Si number density = 21.374960 Si / 1000 Ang^3
#
#
#
# Elastic Constant Matrix: (Units=GPa)
#
#
# Indices 1 2 3 4 5 6 
#
# 1 154.7698 27.8124 15.2047 0.0000 14.8889 0.0000
# 2 27.8124 96.1871 7.1317 0.0000 0.3488 0.0000
# 3 15.2047 7.1317 81.8162 0.0000 22.0212 0.0000
# 4 0.0000 0.0000 0.0000 13.9234 0.0000 9.6111
# 5 14.8889 0.3488 22.0212 0.0000 35.1907 0.0000
# 6 0.0000 0.0000 0.0000 9.6111 0.0000 17.3231
#
#
#
# Elastic Compliance Matrix: (Units=1/GPa)
#
#
# Indices 1 2 3 4 5 6 
#
# 1 0.007128 -0.002021 -0.000412 0.000000 -0.002738 0.000000
# 2 -0.002021 0.011046 -0.000948 0.000000 0.001338 0.000000
# 3 -0.000412 -0.000948 0.014830 0.000000 -0.009097 0.000000
# 4 0.000000 0.000000 0.000000 0.116399 0.000000 -0.064580
# 5 -0.002738 0.001338 -0.009097 0.000000 0.035254 0.000000
# 6 0.000000 0.000000 0.000000 -0.064580 0.000000 0.093556
#
#
# Mechanical properties :
#
#
# Convention : Reuss Voigt Hill
#
# Bulk Modulus (GPa) = 38.10291 48.11897 43.11094
# Shear Modulus (GPa) = 17.02292 32.12906 24.57599
#
# Velocity S-wave (km/s) = 2.82511 3.88121 3.39448
# Velocity P-wave (km/s) = 5.33913 6.53037 5.96457
#
# Compressibility (1/GPa) = 0.02624472
#
# Stress axis : x y z
#
# Youngs Moduli (GPa) = 140.28817 90.52982 67.43099
#
# Poissons Ratio (x) = 0.18293 0.02775
# Poissons Ratio (y) = 0.28348 0.06390
# Poissons Ratio (z) = 0.05773 0.08578
#
# Static dielectric constant tensor:
#      x y z
#    x 1.805360 0.000000 0.011500 
#    y 0.000000 1.760710 0.000000 
#    z 0.011500 0.000000 1.783150 
# 
# From -- ./inp_files/181953.got.cif
#   From: 2010.05.17/outbox.cif.g08.bks.cpg/sg15_91_cif.got.tgz:181953.got - 2010.06.03 18:47:42.
