data_PCOD9272429
_publ_section_title
;
Structure prediction by ZEFSAII (Michael W. Deem and Ramdas Pophale) SiO2 
 PCOD9272429
Probable space group: C 2/C
;
_chemical_formula_sum "Si O2"
_cell_formula_units_Z 48
_cell_length_a 30.023668
_cell_length_b 10.446717
_cell_length_c 16.158948
_cell_angle_alpha 90.000000
_cell_angle_beta 21.833471
_cell_angle_gamma 90.000000
_cell_volume 1884.927808
_symmetry_space_group_name_H-M "C 2/C"
_symmetry_group_IT_number 15
_symmetry_cell_setting 'monoclinic'
loop_
_space_group_symop_operation_xyz
x,y,z
-x,y,1/2-z
-x,-y,-z
x,-y,1/2+z
1/2+x,1/2+y,z
1/2-x,1/2+y,1/2-z
1/2-x,1/2-y,-z
1/2+x,1/2-y,1/2+z
loop_
_atom_site_type_symbol
_atom_site_label
_atom_site_fract_x
_atom_site_fract_y
_atom_site_fract_z
Si Si1 0.762649 0.817787 0.566186
Si Si2 0.252568 0.375906 0.273602
Si Si3 0.197780 0.905287 0.489548
Si Si4 0.597624 0.257413 0.789950
Si Si5 0.398995 0.047698 0.858487
Si Si6 0.499677 0.779082 0.869410
O O1 0.750000 0.750000 0.500000
O O2 0.703001 0.730845 0.739331
O O3 0.907989 0.821118 0.330387
O O4 0.726564 0.965068 0.631173
O O5 0.333440 0.396857 0.053233
O O6 0.217787 0.505574 0.384734
O O7 0.127714 0.314934 0.452478
O O8 0.282368 0.784432 0.366447
O O9 0.104071 0.888156 0.725956
O O10 0.587434 0.147669 0.738638
O O11 0.508721 0.255633 0.019855
O O12 0.500000 0.084295 0.750000
O O13 0.431756 0.912291 0.761747
#
# Coordination Sequence:
#
# PCOD9272429 Si02
#       6
#     8   8   8   8   8   8
#     4  11  22  38  61  89 114 146 198 245 290 341
#     4   9  20  38  59  82 115 156 192 230 289 356
#     4  10  22  36  57  85 115 153 189 237 292 342
#     4  10  20  37  56  82 116 151 190 234 286 345
#     4   9  17  31  57  81 106 145 194 234 272 330
#     4   9  19  38  59  80 112 157 192 228 290 353
#
# _framework density 25.465167000000001
#
# number of rings (size 3 to 8) (size 9 to 14) (size 15 to 20)
#    0.000    2.333    0.000    4.000    2.333    3.333 
#    3.000    1.667    0.000    0.000    0.000    0.000 
#    0.000    0.000    0.000    0.000    0.000    0.000 
#
# Total GULP energy -133873.743112 kJ/mol
# GULP energy per Si atom -5578.072630 kJ/mol
# Density = 2.540721 g / cm^3
# Si number density = 25.465167 Si / 1000 Ang^3
#
#
#
# Elastic Constant Matrix: (Units=GPa)
#
#
# Indices 1 2 3 4 5 6 
#
# 1 103.7350 16.1598 25.3438 0.0000 48.2013 0.0000
# 2 16.1598 61.7973 -2.3253 0.0000 26.8521 0.0000
# 3 25.3438 -2.3253 73.8441 0.0000 43.6563 0.0000
# 4 0.0000 0.0000 0.0000 10.8704 0.0000 13.0830
# 5 48.2013 26.8521 43.6563 0.0000 63.4485 0.0000
# 6 0.0000 0.0000 0.0000 13.0830 0.0000 28.7597
#
#
#
# Elastic Compliance Matrix: (Units=1/GPa)
#
#
# Indices 1 2 3 4 5 6 
#
# 1 0.015586 0.003057 0.004234 0.000000 -0.016048 0.000000
# 2 0.003057 0.025257 0.012539 0.000000 -0.021639 0.000000
# 3 0.004234 0.012539 0.029538 0.000000 -0.028847 0.000000
# 4 0.000000 0.000000 0.000000 0.203298 0.000000 -0.092482
# 5 -0.016048 -0.021639 -0.028847 0.000000 0.056958 0.000000
# 6 0.000000 0.000000 0.000000 -0.092482 0.000000 0.076841
#
#
# Mechanical properties :
#
#
# Convention : Reuss Voigt Hill
#
# Bulk Modulus (GPa) = 9.08754 35.30366 22.19560
# Shear Modulus (GPa) = 12.36096 33.96228 23.16162
#
# Velocity S-wave (km/s) = 2.20559 3.65591 3.01913
# Velocity P-wave (km/s) = 3.17214 5.63157 4.57040
#
# Compressibility (1/GPa) = 0.11004078
#
# Stress axis : x y z
#
# Youngs Moduli (GPa) = 64.16045 39.59315 33.85460
#
# Poissons Ratio (x) = -0.12102 -0.14335
# Poissons Ratio (y) = -0.19612 -0.42450
# Poissons Ratio (z) = -0.27168 -0.49646
#
# Static dielectric constant tensor:
#      x y z
#    x 2.087780 0.000000 -0.088220 
#    y 0.000000 2.055290 0.000000 
#    z -0.088220 0.000000 2.232790 
# 
# From -- ./inp_files/152121.got.cif
#   From: 2010.05.17/outbox.cif.g08.bks.cpg/sg15_77_cif.got.tgz:152121.got - 2010.06.03 18:47:42.
