data_PCOD9272157
_publ_section_title
;
Structure prediction by ZEFSAII (Michael W. Deem and Ramdas Pophale) SiO2 
 PCOD9272157
Probable space group: C 2/C
;
_chemical_formula_sum "Si O2"
_cell_formula_units_Z 44
_cell_length_a 7.373918
_cell_length_b 12.164177
_cell_length_c 26.668448
_cell_angle_alpha 90.000000
_cell_angle_beta 122.967070
_cell_angle_gamma 90.000000
_cell_volume 2006.929758
_symmetry_space_group_name_H-M "C 2/C"
_symmetry_group_IT_number 15
_symmetry_cell_setting 'monoclinic'
loop_
_space_group_symop_operation_xyz
x,y,z
-x,y,1/2-z
-x,-y,-z
x,-y,1/2+z
1/2+x,1/2+y,z
1/2-x,1/2+y,1/2-z
1/2-x,1/2-y,-z
1/2+x,1/2-y,1/2+z
loop_
_atom_site_type_symbol
_atom_site_label
_atom_site_fract_x
_atom_site_fract_y
_atom_site_fract_z
Si Si1 0.468914 0.166251 0.803889
Si Si2 0.515180 0.826054 0.016081
Si Si3 0.370761 0.923322 0.646740
Si Si4 0.500000 0.242925 0.250000
Si Si5 0.321022 0.409453 0.987111
Si Si6 0.935134 0.190830 0.096643
O O1 0.500000 0.182601 0.750000
O O2 0.218727 0.186706 0.780992
O O3 0.602245 0.257318 0.855013
O O4 0.548250 0.044572 0.829324
O O5 0.692349 0.907114 0.020001
O O6 0.274518 0.853431 0.962748
O O7 0.558429 0.707138 0.997377
O O8 0.519066 0.794544 0.075110
O O9 0.496671 0.835157 0.700012
O O10 0.356432 0.908021 0.584529
O O11 0.122177 0.899809 0.625791
O O12 0.500000 0.500000 0.000000
#
# Coordination Sequence:
#
# PCOD9272157 Si02
#       6
#     8   8   8   4   8   8
#     4  11  23  43  68  92 128 173 220 267 321 384
#     4   9  19  39  62  93 130 165 205 265 325 386
#     4  10  21  43  62  93 130 162 217 267 311 390
#     4  10  24  46  62  92 128 168 220 274 314 378
#     4  10  20  36  64  95 128 168 210 258 329 391
#     4   9  20  40  66  93 131 167 213 269 324 383
#
# _framework density 21.924035
#
# number of rings (size 3 to 8) (size 9 to 14) (size 15 to 20)
#    0.000    2.182    0.909    1.091    2.545    0.000 
#   11.455   12.727    0.000    0.000    0.000    0.000 
#    0.000    0.000    0.000    0.000    0.000    0.000 
#
# Total GULP energy -122851.291363 kJ/mol
# GULP energy per Si atom -5584.149607 kJ/mol
# Density = 2.187414 g / cm^3
# Si number density = 21.924035 Si / 1000 Ang^3
#
#
#
# Elastic Constant Matrix: (Units=GPa)
#
#
# Indices 1 2 3 4 5 6 
#
# 1 63.4466 41.5932 8.8069 0.0000 -2.5233 0.0000
# 2 41.5932 121.2284 21.9574 0.0000 11.7449 0.0000
# 3 8.8069 21.9574 53.8137 0.0000 8.6874 0.0000
# 4 0.0000 0.0000 0.0000 13.3393 0.0000 3.7004
# 5 -2.5233 11.7449 8.6874 0.0000 34.3089 0.0000
# 6 0.0000 0.0000 0.0000 3.7004 0.0000 32.8533
#
#
#
# Elastic Compliance Matrix: (Units=1/GPa)
#
#
# Indices 1 2 3 4 5 6 
#
# 1 0.020944 -0.007407 -0.001109 0.000000 0.004357 0.000000
# 2 -0.007407 0.011692 -0.002945 0.000000 -0.003802 0.000000
# 3 -0.001109 -0.002945 0.020661 0.000000 -0.004305 0.000000
# 4 0.000000 0.000000 0.000000 0.077385 0.000000 -0.008716
# 5 0.004357 -0.003802 -0.004305 0.000000 0.031859 0.000000
# 6 0.000000 0.000000 0.000000 -0.008716 0.000000 0.031420
#
#
# Mechanical properties :
#
#
# Convention : Reuss Voigt Hill
#
# Bulk Modulus (GPa) = 32.92102 42.57818 37.74960
# Shear Modulus (GPa) = 22.02577 27.17571 24.60074
#
# Velocity S-wave (km/s) = 3.17304 3.52453 3.35340
# Velocity P-wave (km/s) = 5.33599 6.00217 5.67886
#
# Compressibility (1/GPa) = 0.03037573
#
# Stress axis : x y z
#
# Youngs Moduli (GPa) = 47.74547 85.52870 48.40143
#
# Poissons Ratio (x) = 0.63354 0.05366
# Poissons Ratio (y) = 0.35366 0.14253
# Poissons Ratio (z) = 0.05293 0.25185
#
# Static dielectric constant tensor:
#      x y z
#    x 1.843640 0.000000 -0.013090 
#    y 0.000000 1.808380 0.000000 
#    z -0.013090 0.000000 1.827990 
# 
# From -- ./inp_files/307315.got.cif
#   From: 2010.05.17/outbox.cif.g08.bks.cpg/sg15_154_cif.got.tgz:307315.got - 2010.06.03 18:47:42.
