data_PCOD9272782
_publ_section_title
;
Structure prediction by ZEFSAII (Michael W. Deem and Ramdas Pophale) SiO2 
 PCOD9272782
Probable space group: C 2/C
;
_chemical_formula_sum "Si O2"
_cell_formula_units_Z 48
_cell_length_a 28.060733
_cell_length_b 10.811544
_cell_length_c 14.375056
_cell_angle_alpha 90.000000
_cell_angle_beta 30.446645
_cell_angle_gamma 90.000000
_cell_volume 2209.926573
_symmetry_space_group_name_H-M "C 2/C"
_symmetry_group_IT_number 15
_symmetry_cell_setting 'monoclinic'
loop_
_space_group_symop_operation_xyz
x,y,z
-x,y,1/2-z
-x,-y,-z
x,-y,1/2+z
1/2+x,1/2+y,z
1/2-x,1/2+y,1/2-z
1/2-x,1/2-y,-z
1/2+x,1/2-y,1/2+z
loop_
_atom_site_type_symbol
_atom_site_label
_atom_site_fract_x
_atom_site_fract_y
_atom_site_fract_z
Si Si1 0.063257 0.280097 0.552813
Si Si2 0.865208 0.612759 0.176401
Si Si3 0.498014 0.478131 0.363779
Si Si4 0.307767 0.016588 0.598037
Si Si5 0.633286 0.389871 0.281736
Si Si6 0.555480 0.015213 0.796116
O O1 0.065842 0.144383 0.506695
O O2 0.158409 0.349774 0.419260
O O3 0.000000 0.257200 0.750000
O O4 0.001221 0.384167 0.606387
O O5 0.842635 0.744747 0.258200
O O6 0.869120 0.506439 0.249076
O O7 0.799982 0.572031 0.200171
O O8 0.972424 0.611216 0.955099
O O9 0.500000 0.504501 0.250000
O O10 0.597694 0.439347 0.241976
O O11 0.452233 0.586330 0.501688
O O12 0.219824 0.037384 0.680551
O O13 0.392897 0.971661 0.388413
#
# Coordination Sequence:
#
# PCOD9272782 Si02
#       6
#     8   8   8   8   8   8
#     4   8  15  34  58  80 106 151 186 237 292 345
#     4  10  20  37  60  88 118 157 201 246 305 357
#     4  10  22  41  61  81 124 161 196 237 308 364
#     4  10  22  35  59  91 121 147 202 256 294 348
#     4  11  24  38  60  92 118 161 202 248 298 364
#     4   9  18  37  60  84 114 154 200 246 300 356
#
# _framework density 21.720179000000002
#
# number of rings (size 3 to 8) (size 9 to 14) (size 15 to 20)
#    0.000    2.333    1.667    1.500    2.333    3.333 
#    0.000    0.000    0.000    4.000    0.000    0.000 
#    0.000    0.000    0.000    0.000    0.000    0.000 
#
# Total GULP energy -133785.971114 kJ/mol
# GULP energy per Si atom -5574.415463 kJ/mol
# Density = 2.167074 g / cm^3
# Si number density = 21.720179 Si / 1000 Ang^3
#
#
#
# Elastic Constant Matrix: (Units=GPa)
#
#
# Indices 1 2 3 4 5 6 
#
# 1 165.9679 5.1920 23.1794 0.0000 -8.1896 0.0000
# 2 5.1920 43.1033 4.1690 0.0000 -0.5057 0.0000
# 3 23.1794 4.1690 18.9813 0.0000 -7.0232 0.0000
# 4 0.0000 0.0000 0.0000 16.8072 0.0000 -0.8020
# 5 -8.1896 -0.5057 -7.0232 0.0000 32.5724 0.0000
# 6 0.0000 0.0000 0.0000 -0.8020 0.0000 25.3558
#
#
#
# Elastic Compliance Matrix: (Units=1/GPa)
#
#
# Indices 1 2 3 4 5 6 
#
# 1 0.007264 -0.000015 -0.008902 0.000000 -0.000093 0.000000
# 2 -0.000015 0.023724 -0.005496 0.000000 -0.000820 0.000000
# 3 -0.008902 -0.005496 0.069442 0.000000 0.012649 0.000000
# 4 0.000000 0.000000 0.000000 0.059588 0.000000 0.001885
# 5 -0.000093 -0.000820 0.012649 0.000000 0.033392 0.000000
# 6 0.000000 0.000000 0.000000 0.001885 0.000000 0.039498
#
#
# Mechanical properties :
#
#
# Convention : Reuss Voigt Hill
#
# Bulk Modulus (GPa) = 13.96569 32.57035 23.26802
# Shear Modulus (GPa) = 17.50680 27.98121 22.74401
#
# Velocity S-wave (km/s) = 2.84212 3.59313 3.23946
# Velocity P-wave (km/s) = 4.14897 5.67821 4.97273
#
# Compressibility (1/GPa) = 0.07160404
#
# Stress axis : x y z
#
# Youngs Moduli (GPa) = 137.65663 42.15169 14.40050
#
# Poissons Ratio (x) = 0.00064 0.12820
# Poissons Ratio (y) = 0.00208 0.07914
# Poissons Ratio (z) = 1.22546 0.23165
#
# Static dielectric constant tensor:
#      x y z
#    x 1.899300 0.000000 -0.004050 
#    y 0.000000 1.818000 0.000000 
#    z -0.004050 0.000000 1.842610 
# 
# From -- ./inp_files/173330.got.cif
#   From: 2010.05.17/outbox.cif.g08.bks.cpg/sg15_87_cif.got.tgz:173330.got - 2010.06.03 18:47:42.
