data_PCOD9272062
_publ_section_title
;
Structure prediction by ZEFSAII (Michael W. Deem and Ramdas Pophale) SiO2 
 PCOD9272062
Probable space group: C 2/C
;
_chemical_formula_sum "Si O2"
_cell_formula_units_Z 56
_cell_length_a 13.319247
_cell_length_b 25.444345
_cell_length_c 10.789163
_cell_angle_alpha 90.000000
_cell_angle_beta 130.882682
_cell_angle_gamma 90.000000
_cell_volume 2764.457940
_symmetry_space_group_name_H-M "C 2/C"
_symmetry_group_IT_number 15
_symmetry_cell_setting 'monoclinic'
loop_
_space_group_symop_operation_xyz
x,y,z
-x,y,1/2-z
-x,-y,-z
x,-y,1/2+z
1/2+x,1/2+y,z
1/2-x,1/2+y,1/2-z
1/2-x,1/2-y,-z
1/2+x,1/2-y,1/2+z
loop_
_atom_site_type_symbol
_atom_site_label
_atom_site_fract_x
_atom_site_fract_y
_atom_site_fract_z
Si Si1 0.851812 0.865257 0.679162
Si Si2 0.219065 0.547164 0.201592
Si Si3 0.268894 0.254398 0.726486
Si Si4 0.518013 0.232864 0.405286
Si Si5 0.555832 0.890219 0.976427
Si Si6 0.645013 0.142939 0.806352
Si Si7 0.350316 0.983278 0.597718
O O1 0.829999 0.909045 0.766542
O O2 0.804596 0.808590 0.689047
O O3 0.752067 0.879672 0.486944
O O4 0.000000 0.862597 0.750000
O O5 0.231051 0.516031 0.340492
O O6 0.078848 0.578214 0.102252
O O7 0.206087 0.511605 0.068923
O O8 0.319105 0.203729 0.692036
O O9 0.111888 0.250815 0.622154
O O10 0.349612 0.253291 0.921169
O O11 0.500000 0.250671 0.250000
O O12 0.524283 0.169412 0.414195
O O13 0.629927 0.922737 0.930179
O O14 0.639089 0.886203 0.170256
O O15 0.500000 0.140608 0.750000
O O16 0.500000 0.003670 0.750000
#
# Coordination Sequence:
#
# PCOD9272062 Si02
#       7
#     8   8   8   8   8   8   8
#     4  12  24  39  61  86 130 162 204 250 316 367
#     4  11  22  39  62  94 122 163 198 260 316 366
#     4  11  22  38  57  90 125 162 210 251 303 360
#     4  11  21  37  59  89 127 167 203 248 305 372
#     4  10  20  36  63  95 121 152 203 260 308 357
#     4  11  21  37  65  91 120 163 212 254 298 362
#     4  10  22  36  65  96 127 148 207 262 318 359
#
# _framework density 20.257134000000001
#
# number of rings (size 3 to 8) (size 9 to 14) (size 15 to 20)
#    0.000    1.143    2.857    6.000    4.000    0.000 
#    0.000    0.714    0.000    0.000    0.000    0.000 
#    0.000    0.000    0.000    0.000    0.000    0.000 
#
# Total GULP energy -156580.159611 kJ/mol
# GULP energy per Si atom -5592.148558 kJ/mol
# Density = 2.021103 g / cm^3
# Si number density = 20.257134 Si / 1000 Ang^3
#
#
#
# Elastic Constant Matrix: (Units=GPa)
#
#
# Indices 1 2 3 4 5 6 
#
# 1 67.5015 13.1632 8.4105 0.0000 -16.8007 0.0000
# 2 13.1632 45.8388 9.0848 0.0000 -15.6824 0.0000
# 3 8.4105 9.0848 59.1486 0.0000 -26.8314 0.0000
# 4 0.0000 0.0000 0.0000 23.1260 0.0000 -3.0199
# 5 -16.8007 -15.6824 -26.8314 0.0000 39.3551 0.0000
# 6 0.0000 0.0000 0.0000 -3.0199 0.0000 7.7259
#
#
#
# Elastic Compliance Matrix: (Units=1/GPa)
#
#
# Indices 1 2 3 4 5 6 
#
# 1 0.016925 -0.002719 0.001154 0.000000 0.006929 0.000000
# 2 -0.002719 0.025736 0.000810 0.000000 0.009647 0.000000
# 3 0.001154 0.000810 0.024594 0.000000 0.017583 0.000000
# 4 0.000000 0.000000 0.000000 0.045567 0.000000 0.017812
# 5 0.006929 0.009647 0.017583 0.000000 0.044200 0.000000
# 6 0.000000 0.000000 0.000000 0.017812 0.000000 0.136398
#
#
# Mechanical properties :
#
#
# Convention : Reuss Voigt Hill
#
# Bulk Modulus (GPa) = 15.20989 25.97843 20.59416
# Shear Modulus (GPa) = 15.78058 23.49677 19.63867
#
# Velocity S-wave (km/s) = 2.79411 3.40946 3.11701
# Velocity P-wave (km/s) = 4.23487 5.32461 4.81069
#
# Compressibility (1/GPa) = 0.06574669
#
# Stress axis : x y z
#
# Youngs Moduli (GPa) = 59.08280 38.85573 40.65985
#
# Poissons Ratio (x) = 0.10563 -0.04692
# Poissons Ratio (y) = 0.16062 -0.03293
# Poissons Ratio (z) = -0.06818 -0.03147
#
# Static dielectric constant tensor:
#      x y z
#    x 1.696970 0.000000 -0.039910 
#    y 0.000000 1.735590 0.000000 
#    z -0.039910 0.000000 1.743360 
# 
# From -- ./inp_files/90908.got.cif
#   From: 2010.05.17/outbox.cif.g08.bks.cpg/sg15_46_cif.got.tgz:90908.got - 2010.06.03 18:47:42.
