data_PCOD9272268
_publ_section_title
;
Structure prediction by ZEFSAII (Michael W. Deem and Ramdas Pophale) SiO2 
 PCOD9272268
Probable space group: C 2/C
;
_chemical_formula_sum "Si O2"
_cell_formula_units_Z 44
_cell_length_a 22.931369
_cell_length_b 15.877813
_cell_length_c 5.389024
_cell_angle_alpha 90.000000
_cell_angle_beta 75.812190
_cell_angle_gamma 90.000000
_cell_volume 1902.293330
_symmetry_space_group_name_H-M "C 2/C"
_symmetry_group_IT_number 15
_symmetry_cell_setting 'monoclinic'
loop_
_space_group_symop_operation_xyz
x,y,z
-x,y,1/2-z
-x,-y,-z
x,-y,1/2+z
1/2+x,1/2+y,z
1/2-x,1/2+y,1/2-z
1/2-x,1/2-y,-z
1/2+x,1/2-y,1/2+z
loop_
_atom_site_type_symbol
_atom_site_label
_atom_site_fract_x
_atom_site_fract_y
_atom_site_fract_z
Si Si1 0.000000 0.169653 0.750000
Si Si2 0.811925 0.959252 0.860908
Si Si3 0.715743 0.725210 0.287235
Si Si4 0.085115 0.273863 0.309624
Si Si5 0.566925 0.393110 0.573608
Si Si6 0.068054 0.532665 0.871900
O O1 0.032922 0.232157 0.527663
O O2 0.947627 0.109047 0.701701
O O3 0.792848 0.874113 0.744014
O O4 0.883572 0.947109 0.837851
O O5 0.792946 0.027132 0.669530
O O6 0.750000 0.750000 0.500000
O O7 0.650318 0.768164 0.364357
O O8 0.750000 0.750000 0.000000
O O9 0.087750 0.205133 0.087189
O O10 0.069719 0.370765 0.282336
O O11 0.500000 0.407531 0.750000
O O12 0.096237 0.479189 0.616637
O O13 0.000000 0.500000 0.000000
#
# Coordination Sequence:
#
# PCOD9272268 Si02
#       6
#     4   8   8   8   8   8
#     4  10  20  36  66  96 138 168 240 262 346 414
#     4  11  25  44  71 100 140 176 223 290 359 403
#     4  11  26  48  75 100 131 187 247 289 340 426
#     4  10  23  39  66  94 137 181 231 285 348 427
#     4   9  22  36  61  98 135 183 223 264 339 422
#     4  10  22  35  56  90 132 174 217 270 351 404
#
# _framework density 23.129977
#
# number of rings (size 3 to 8) (size 9 to 14) (size 15 to 20)
#    0.000    1.818    0.000    2.182   22.909    0.727 
#    0.000    5.455    0.000    0.000    0.000    0.000 
#    0.000    0.000    0.000    0.000    0.000    0.000 
#
# Total GULP energy -122594.226731 kJ/mol
# GULP energy per Si atom -5572.464851 kJ/mol
# Density = 2.307733 g / cm^3
# Si number density = 23.129977 Si / 1000 Ang^3
#
#
#
# Elastic Constant Matrix: (Units=GPa)
#
#
# Indices 1 2 3 4 5 6 
#
# 1 89.2935 8.3138 11.9411 0.0000 31.6220 0.0000
# 2 8.3138 99.0857 4.5771 0.0000 13.9350 0.0000
# 3 11.9411 4.5771 102.9511 0.0000 36.0137 0.0000
# 4 0.0000 0.0000 0.0000 24.6767 0.0000 0.6878
# 5 31.6220 13.9350 36.0137 0.0000 36.0734 0.0000
# 6 0.0000 0.0000 0.0000 0.6878 0.0000 24.1126
#
#
#
# Elastic Compliance Matrix: (Units=1/GPa)
#
#
# Indices 1 2 3 4 5 6 
#
# 1 0.018068 0.001298 0.005474 0.000000 -0.021805 0.000000
# 2 0.001298 0.010915 0.001901 0.000000 -0.007252 0.000000
# 3 0.005474 0.001901 0.016795 0.000000 -0.022300 0.000000
# 4 0.000000 0.000000 0.000000 0.040556 0.000000 -0.001157
# 5 -0.021805 -0.007252 -0.022300 0.000000 0.071900 0.000000
# 6 0.000000 0.000000 0.000000 -0.001157 0.000000 0.041505
#
#
# Mechanical properties :
#
#
# Convention : Reuss Voigt Hill
#
# Bulk Modulus (GPa) = 15.84174 37.88826 26.86500
# Shear Modulus (GPa) = 24.57788 34.73911 29.65849
#
# Velocity S-wave (km/s) = 3.26329 3.87965 3.58474
# Velocity P-wave (km/s) = 4.58940 6.04029 5.36413
#
# Compressibility (1/GPa) = 0.06312440
#
# Stress axis : x y z
#
# Youngs Moduli (GPa) = 55.34635 91.61307 59.54239
#
# Poissons Ratio (x) = -0.11889 -0.32595
# Poissons Ratio (y) = -0.07182 -0.11319
# Poissons Ratio (z) = -0.30298 -0.17416
#
# Static dielectric constant tensor:
#      x y z
#    x 2.061880 0.000000 0.191950 
#    y 0.000000 1.932170 0.000000 
#    z 0.191950 0.000000 2.184740 
# 
# From -- ./inp_files/15109.got.cif
#   From: 2010.05.17/outbox.cif.g08.bks.cpg/sg15_8_cif.got.tgz:15109.got - 2010.06.03 18:47:42.
