data_PCOD9272964
_publ_section_title
;
Structure prediction by ZEFSAII (Michael W. Deem and Ramdas Pophale) SiO2 
 PCOD9272964
Probable space group: C 2/C
;
_chemical_formula_sum "Si O2"
_cell_formula_units_Z 56
_cell_length_a 18.192999
_cell_length_b 26.871620
_cell_length_c 11.358937
_cell_angle_alpha 90.000000
_cell_angle_beta 149.917967
_cell_angle_gamma 90.000000
_cell_volume 2783.434787
_symmetry_space_group_name_H-M "C 2/C"
_symmetry_group_IT_number 15
_symmetry_cell_setting 'monoclinic'
loop_
_space_group_symop_operation_xyz
x,y,z
-x,y,1/2-z
-x,-y,-z
x,-y,1/2+z
1/2+x,1/2+y,z
1/2-x,1/2+y,1/2-z
1/2-x,1/2-y,-z
1/2+x,1/2-y,1/2+z
loop_
_atom_site_type_symbol
_atom_site_label
_atom_site_fract_x
_atom_site_fract_y
_atom_site_fract_z
Si Si1 0.842416 0.025950 0.279163
Si Si2 0.215850 0.363722 0.330667
Si Si3 0.639077 0.198165 0.499431
Si Si4 0.320620 0.475752 0.488518
Si Si5 0.063508 0.688241 0.959633
Si Si6 0.563335 0.275203 0.148549
Si Si7 0.643906 0.356438 0.734375
O O1 0.769394 0.010805 0.051631
O O2 0.866634 0.084882 0.300218
O O3 0.778918 0.010843 0.319652
O O4 0.000000 0.000000 0.500000
O O5 0.212041 0.331454 0.207661
O O6 0.257169 0.421150 0.370318
O O7 0.326204 0.345974 0.586240
O O8 0.054103 0.352505 0.159041
O O9 0.557551 0.247775 0.436667
O O10 0.770326 0.208294 0.590393
O O11 0.500000 0.169913 0.250000
O O12 0.500000 0.473343 0.750000
O O13 0.000000 0.709474 0.750000
O O14 0.082159 0.733057 0.075238
O O15 0.214687 0.662248 0.140020
O O16 0.489231 0.324766 0.997401
#
# Coordination Sequence:
#
# PCOD9272964 Si02
#       7
#     8   8   8   8   8   8   8
#     4   9  19  35  58  88 127 152 201 261 311 377
#     4   9  21  35  62  85 120 153 199 255 307 370
#     4  11  24  39  55  82 124 165 201 246 298 371
#     4   9  18  36  60  91 122 153 202 260 321 374
#     4   9  19  35  55  90 124 149 191 249 308 365
#     4  11  22  37  62  84 121 158 206 247 302 367
#     4  10  20  37  61  94 115 157 199 256 320 360
#
# _framework density 20.119026999999999
#
# number of rings (size 3 to 8) (size 9 to 14) (size 15 to 20)
#    0.000    2.286    1.429    0.429    8.000    1.714 
#    0.000    5.714    0.000    2.571    0.000    0.000 
#    0.000    0.000    0.000    0.000    0.000    0.000 
#
# Total GULP energy -155941.510569 kJ/mol
# GULP energy per Si atom -5569.339663 kJ/mol
# Density = 2.007324 g / cm^3
# Si number density = 20.119027 Si / 1000 Ang^3
#
#
#
# Elastic Constant Matrix: (Units=GPa)
#
#
# Indices 1 2 3 4 5 6 
#
# 1 63.0847 30.1105 40.8552 0.0000 -16.0549 0.0000
# 2 30.1105 65.0968 31.2523 0.0000 -20.7150 0.0000
# 3 40.8552 31.2523 56.2323 0.0000 -6.5214 0.0000
# 4 0.0000 0.0000 0.0000 17.6726 0.0000 0.5581
# 5 -16.0549 -20.7150 -6.5214 0.0000 44.0981 0.0000
# 6 0.0000 0.0000 0.0000 0.5581 0.0000 17.5817
#
#
#
# Elastic Compliance Matrix: (Units=1/GPa)
#
#
# Indices 1 2 3 4 5 6 
#
# 1 0.033074 -0.002374 -0.021817 0.000000 0.007700 0.000000
# 2 -0.002374 0.024567 -0.010878 0.000000 0.009068 0.000000
# 3 -0.021817 -0.010878 0.038832 0.000000 -0.007310 0.000000
# 4 0.000000 0.000000 0.000000 0.056642 0.000000 -0.001798
# 5 0.007700 0.009068 -0.007310 0.000000 0.028658 0.000000
# 6 0.000000 0.000000 0.000000 -0.001798 0.000000 0.056935
#
#
# Mechanical properties :
#
#
# Convention : Reuss Voigt Hill
#
# Bulk Modulus (GPa) = 37.97074 43.20552 40.58813
# Shear Modulus (GPa) = 15.74191 21.35019 18.54605
#
# Velocity S-wave (km/s) = 2.80025 3.26113 3.03944
# Velocity P-wave (km/s) = 5.41933 5.97508 5.70398
#
# Compressibility (1/GPa) = 0.02633607
#
# Stress axis : x y z
#
# Youngs Moduli (GPa) = 30.23561 40.70422 25.75188
#
# Poissons Ratio (x) = 0.09663 0.56183
# Poissons Ratio (y) = 0.07177 0.28012
# Poissons Ratio (z) = 0.65965 0.44276
#
# Static dielectric constant tensor:
#      x y z
#    x 1.811620 0.000000 -0.030610 
#    y 0.000000 1.670310 0.000000 
#    z -0.030610 0.000000 1.749670 
# 
# From -- ./inp_files/114758.got.cif
#   From: 2010.05.17/outbox.cif.g08.bks.cpg/sg15_58_cif.got.tgz:114758.got - 2010.06.03 18:47:42.
