data_PCOD9272795
_publ_section_title
;
Structure prediction by ZEFSAII (Michael W. Deem and Ramdas Pophale) SiO2 
 PCOD9272795
Probable space group: C 2/C
;
_chemical_formula_sum "Si O2"
_cell_formula_units_Z 52
_cell_length_a 9.705858
_cell_length_b 26.735609
_cell_length_c 16.576803
_cell_angle_alpha 90.000000
_cell_angle_beta 143.152155
_cell_angle_gamma 90.000000
_cell_volume 2579.604208
_symmetry_space_group_name_H-M "C 2/C"
_symmetry_group_IT_number 15
_symmetry_cell_setting 'monoclinic'
loop_
_space_group_symop_operation_xyz
x,y,z
-x,y,1/2-z
-x,-y,-z
x,-y,1/2+z
1/2+x,1/2+y,z
1/2-x,1/2+y,1/2-z
1/2-x,1/2-y,-z
1/2+x,1/2-y,1/2+z
loop_
_atom_site_type_symbol
_atom_site_label
_atom_site_fract_x
_atom_site_fract_y
_atom_site_fract_z
Si Si1 0.255781 0.156489 0.838856
Si Si2 0.899239 0.065743 0.839956
Si Si3 0.498678 0.376460 0.552123
Si Si4 0.394957 0.793106 0.111577
Si Si5 0.842004 0.961900 0.750670
Si Si6 0.500000 0.868318 0.750000
Si Si7 0.399941 0.912098 0.532934
O O1 0.240485 0.105728 0.778374
O O2 0.390552 0.194661 0.846360
O O3 0.000000 0.170575 0.750000
O O4 0.395451 0.140119 0.983317
O O5 0.809529 0.009516 0.793812
O O6 0.933293 0.089415 0.944101
O O7 0.148265 0.065444 0.914030
O O8 0.284761 0.339615 0.466536
O O9 0.553159 0.414591 0.650998
O O10 0.741148 0.346725 0.645919
O O11 0.500000 0.782413 0.250000
O O12 0.250000 0.750000 0.000000
O O13 0.600462 0.947019 0.598106
O O14 0.000000 0.974882 0.750000
O O15 0.455476 0.901730 0.651525
#
# Coordination Sequence:
#
# PCOD9272795 Si02
#       7
#     8   8   8   8   8   4   8
#     4  10  21  42  69  92 132 178 216 276 348 411
#     4  10  20  37  60  88 130 179 225 271 326 409
#     4  10  21  42  63  90 137 177 227 277 353 394
#     4  12  27  48  72 103 136 176 235 297 353 415
#     4  11  21  32  56  96 133 177 227 274 329 397
#     4   8  18  36  62  88 122 178 216 278 334 408
#     4   9  19  34  55  87 129 174 225 272 329 389
#
# _framework density 20.158132999999999
#
# number of rings (size 3 to 8) (size 9 to 14) (size 15 to 20)
#    0.000    1.846    1.538    2.769    0.000    6.769 
#    1.385    3.846    0.000    0.000    0.000    0.000 
#    0.000    0.000    0.000    0.000    0.000    0.000 
#
# Total GULP energy -144891.281024 kJ/mol
# GULP energy per Si atom -5572.741578 kJ/mol
# Density = 2.011225 g / cm^3
# Si number density = 20.158133 Si / 1000 Ang^3
#
#
#
# Elastic Constant Matrix: (Units=GPa)
#
#
# Indices 1 2 3 4 5 6 
#
# 1 95.6875 46.9421 35.5209 0.0000 -0.6156 0.0000
# 2 46.9421 81.2432 48.5613 0.0000 1.8705 0.0000
# 3 35.5209 48.5613 85.1094 0.0001 -6.9769 0.0000
# 4 0.0000 0.0000 0.0001 13.6590 0.0000 -3.1138
# 5 -0.6156 1.8705 -6.9769 0.0000 30.1117 0.0000
# 6 0.0000 0.0000 0.0000 -3.1138 0.0000 14.9284
#
#
#
# Elastic Compliance Matrix: (Units=1/GPa)
#
#
# Indices 1 2 3 4 5 6 
#
# 1 0.014802 -0.007410 -0.001924 0.000000 0.000317 0.000000
# 2 -0.007410 0.022802 -0.010241 0.000000 -0.003941 0.000000
# 3 -0.001924 -0.010241 0.018802 0.000000 0.004953 0.000000
# 4 0.000000 0.000000 0.000000 0.076867 0.000000 0.016033
# 5 0.000317 -0.003941 0.004953 0.000000 0.034609 0.000000
# 6 0.000000 0.000000 0.000000 0.016033 0.000000 0.070331
#
#
# Mechanical properties :
#
#
# Convention : Reuss Voigt Hill
#
# Bulk Modulus (GPa) = 57.94827 58.23206 58.09017
# Shear Modulus (GPa) = 17.66078 20.47421 19.06750
#
# Velocity S-wave (km/s) = 2.96313 3.19043 3.07888
# Velocity P-wave (km/s) = 6.36523 6.52090 6.44353
#
# Compressibility (1/GPa) = 0.01725677
#
# Stress axis : x y z
#
# Youngs Moduli (GPa) = 67.55829 43.85565 53.18694
#
# Poissons Ratio (x) = 0.32497 0.10232
# Poissons Ratio (y) = 0.50061 0.54467
# Poissons Ratio (z) = 0.12997 0.44911
#
# Static dielectric constant tensor:
#      x y z
#    x 1.751630 0.000000 0.031870 
#    y 0.000000 1.717260 0.000000 
#    z 0.031870 0.000000 1.769880 
# 
# From -- ./inp_files/139881.got.cif
#   From: 2010.05.17/outbox.cif.g08.bks.cpg/sg15_70_cif.got.tgz:139881.got - 2010.06.03 18:47:42.
