data_PCOD9272908
_publ_section_title
;
Structure prediction by ZEFSAII (Michael W. Deem and Ramdas Pophale) SiO2 
 PCOD9272908
Probable space group: C 2/C
;
_chemical_formula_sum "Si O2"
_cell_formula_units_Z 52
_cell_length_a 12.139736
_cell_length_b 23.367964
_cell_length_c 8.457521
_cell_angle_alpha 90.000000
_cell_angle_beta 105.059243
_cell_angle_gamma 90.000000
_cell_volume 2316.841947
_symmetry_space_group_name_H-M "C 2/C"
_symmetry_group_IT_number 15
_symmetry_cell_setting 'monoclinic'
loop_
_space_group_symop_operation_xyz
x,y,z
-x,y,1/2-z
-x,-y,-z
x,-y,1/2+z
1/2+x,1/2+y,z
1/2-x,1/2+y,1/2-z
1/2-x,1/2-y,-z
1/2+x,1/2-y,1/2+z
loop_
_atom_site_type_symbol
_atom_site_label
_atom_site_fract_x
_atom_site_fract_y
_atom_site_fract_z
Si Si1 0.589832 0.787690 0.560671
Si Si2 0.842868 0.298975 0.546503
Si Si3 0.000000 0.500648 0.250000
Si Si4 0.549091 0.339141 0.947967
Si Si5 0.331768 0.024146 0.944533
Si Si6 0.759658 0.395628 0.916864
Si Si7 0.676160 0.393623 0.519652
O O1 0.454860 0.794358 0.483965
O O2 0.617539 0.795475 0.756791
O O3 0.606091 0.721441 0.517581
O O4 0.662169 0.840201 0.518523
O O5 0.750000 0.250000 0.500000
O O6 0.772119 0.354407 0.476838
O O7 0.905476 0.465733 0.314406
O O8 0.078027 0.541193 0.387167
O O9 0.500000 0.332057 0.750000
O O10 0.646845 0.387048 0.979325
O O11 0.445763 0.361856 0.020186
O O12 0.322793 0.955420 0.956276
O O13 0.206054 0.048046 0.938171
O O14 0.713077 0.396891 0.717773
#
# Coordination Sequence:
#
# PCOD9272908 Si02
#       7
#     8   8   4   8   8   8   8
#     4  10  21  37  61  91 121 166 212 269 317 382
#     4  10  20  37  61  88 121 163 215 259 332 382
#     4  10  24  38  64  86 128 156 206 266 310 382
#     4  10  21  41  62  88 127 173 214 260 323 385
#     4  11  22  42  62  94 125 164 214 259 324 380
#     4  10  22  39  61  89 126 171 212 260 324 376
#     4  10  21  39  65  86 125 173 208 261 316 391
#
# _framework density 22.444345999999999
#
# number of rings (size 3 to 8) (size 9 to 14) (size 15 to 20)
#    0.000    1.846    3.077    0.462    4.308    0.615 
#    4.154    0.000    0.000    0.000    0.000    0.000 
#    0.000    0.000    0.000    0.000    0.000    0.000 
#
# Total GULP energy -144870.955048 kJ/mol
# GULP energy per Si atom -5571.959810 kJ/mol
# Density = 2.239326 g / cm^3
# Si number density = 22.444346 Si / 1000 Ang^3
#
#
#
# Elastic Constant Matrix: (Units=GPa)
#
#
# Indices 1 2 3 4 5 6 
#
# 1 125.8916 55.1963 8.3661 0.0000 -11.8977 0.0000
# 2 55.1963 90.6330 0.3870 0.0000 -8.1081 0.0000
# 3 8.3661 0.3870 21.4170 0.0000 -6.4997 0.0000
# 4 0.0000 0.0000 0.0000 12.5137 0.0000 -11.8012
# 5 -11.8977 -8.1081 -6.4997 0.0000 24.1599 0.0000
# 6 0.0000 0.0000 0.0000 -11.8012 0.0000 33.3349
#
#
#
# Elastic Compliance Matrix: (Units=1/GPa)
#
#
# Indices 1 2 3 4 5 6 
#
# 1 0.011332 -0.006673 -0.003585 0.000000 0.002377 0.000000
# 2 -0.006673 0.015326 0.003151 0.000000 0.002705 0.000000
# 3 -0.003585 0.003151 0.052072 0.000000 0.013301 0.000000
# 4 0.000000 0.000000 0.000000 0.119963 0.000000 0.042469
# 5 0.002377 0.002705 0.013301 0.000000 0.047047 0.000000
# 6 0.000000 0.000000 0.000000 0.042469 0.000000 0.045033
#
#
# Mechanical properties :
#
#
# Convention : Reuss Voigt Hill
#
# Bulk Modulus (GPa) = 15.50027 40.64893 28.07460
# Shear Modulus (GPa) = 15.31424 25.60119 20.45772
#
# Velocity S-wave (km/s) = 2.61496 3.38102 3.02236
# Velocity P-wave (km/s) = 4.00480 5.77858 4.97144
#
# Compressibility (1/GPa) = 0.06451501
#
# Stress axis : x y z
#
# Youngs Moduli (GPa) = 88.24501 65.24775 19.20429
#
# Poissons Ratio (x) = 0.43543 0.06884
# Poissons Ratio (y) = 0.58890 -0.06051
# Poissons Ratio (z) = 0.31634 -0.20558
#
# Static dielectric constant tensor:
#      x y z
#    x 1.833980 0.000000 -0.008210 
#    y 0.000000 2.014660 0.000000 
#    z -0.008210 0.000000 1.878200 
# 
# From -- ./inp_files/33669.got.cif
#   From: 2010.05.17/outbox.cif.g08.bks.cpg/sg15_17_cif.got.tgz:33669.got - 2010.06.03 18:47:42.
