data_PCOD9272453
_publ_section_title
;
Structure prediction by ZEFSAII (Michael W. Deem and Ramdas Pophale) SiO2 
 PCOD9272453
Probable space group: C 2/C
;
_chemical_formula_sum "Si O2"
_cell_formula_units_Z 52
_cell_length_a 15.175103
_cell_length_b 27.635973
_cell_length_c 5.348840
_cell_angle_alpha 90.000000
_cell_angle_beta 73.333373
_cell_angle_gamma 90.000000
_cell_volume 2148.952712
_symmetry_space_group_name_H-M "C 2/C"
_symmetry_group_IT_number 15
_symmetry_cell_setting 'monoclinic'
loop_
_space_group_symop_operation_xyz
x,y,z
-x,y,1/2-z
-x,-y,-z
x,-y,1/2+z
1/2+x,1/2+y,z
1/2-x,1/2+y,1/2-z
1/2-x,1/2-y,-z
1/2+x,1/2-y,1/2+z
loop_
_atom_site_type_symbol
_atom_site_label
_atom_site_fract_x
_atom_site_fract_y
_atom_site_fract_z
Si Si1 0.626115 0.285184 0.284398
Si Si2 0.500000 0.563833 0.250000
Si Si3 0.500000 0.776962 0.250000
Si Si4 0.766908 0.604674 0.449843
Si Si5 0.372870 0.985049 0.914206
Si Si6 0.678325 0.797713 0.361873
Si Si7 0.800706 0.943802 0.979185
Si Si8 0.000000 0.128097 0.750000
O O1 0.548604 0.258030 0.507581
O O2 0.722529 0.292072 0.352742
O O3 0.585764 0.335690 0.222113
O O4 0.652576 0.250902 0.031616
O O5 0.595874 0.536342 0.129519
O O6 0.508783 0.596579 0.492480
O O7 0.586557 0.807744 0.279222
O O8 0.855973 0.570096 0.358092
O O9 0.799264 0.658913 0.466563
O O10 0.713522 0.594091 0.236881
O O11 0.717916 0.583063 0.741465
O O12 0.415937 0.987879 0.148438
O O13 0.274111 0.014142 0.005699
#
# Coordination Sequence:
#
# PCOD9272453 Si02
#       8
#     8   4   4   8   8   8   8   4
#     4  11  24  42  61  89 125 174 212 269 326 386
#     4  12  23  34  58  87 122 170 210 257 308 381
#     4  12  23  44  62  92 125 165 216 276 324 381
#     4  10  21  38  59  87 117 157 208 257 307 378
#     4   8  16  33  56  79 117 153 195 251 309 373
#     4  11  24  40  64  90 124 168 221 265 328 381
#     4  10  20  37  56  90 123 161 207 258 315 380
#     4  12  24  42  60  89 133 169 216 263 316 378
#
# _framework density 24.197834
#
# number of rings (size 3 to 8) (size 9 to 14) (size 15 to 20)
#    0.000    1.538    1.538    3.692    2.154    0.000 
#    0.000    6.923    0.000    0.000    0.000    9.692 
#    0.000    0.000    0.000    0.000    0.000    0.000 
#
# Total GULP energy -145281.467083 kJ/mol
# GULP energy per Si atom -5587.748734 kJ/mol
# Density = 2.414276 g / cm^3
# Si number density = 24.197834 Si / 1000 Ang^3
#
#
#
# Elastic Constant Matrix: (Units=GPa)
#
#
# Indices 1 2 3 4 5 6 
#
# 1 164.3752 10.8161 30.1468 0.0000 -22.1178 0.0000
# 2 10.8161 69.6596 -2.1917 0.0000 -4.7570 0.0000
# 3 30.1468 -2.1917 98.8751 0.0000 11.5632 0.0000
# 4 0.0000 0.0000 0.0000 29.2347 0.0000 35.1303
# 5 -22.1178 -4.7570 11.5632 0.0000 31.7074 0.0000
# 6 0.0000 0.0000 0.0000 35.1303 0.0000 -38.9508
#
#
#
# Elastic Compliance Matrix: (Units=1/GPa)
#
#
# Indices 1 2 3 4 5 6 
#
# 1 0.007538 -0.000840 -0.003047 0.000000 0.006243 0.000000
# 2 -0.000840 0.014598 0.000410 0.000000 0.001455 0.000000
# 3 -0.003047 0.000410 0.011796 0.000000 -0.006366 0.000000
# 4 0.000000 0.000000 0.000000 0.016415 0.000000 0.014805
# 5 0.006243 0.001455 -0.006366 0.000000 0.038433 0.000000
# 6 0.000000 0.000000 0.000000 0.014805 0.000000 -0.012320
#
#
# Mechanical properties :
#
#
# Convention : Reuss Voigt Hill
#
# Bulk Modulus (GPa) = 37.06786 45.60580 41.33683
# Shear Modulus (GPa) = 54.10810 24.00750 39.05780
#
# Velocity S-wave (km/s) = 4.73384 3.15323 4.02195
# Velocity P-wave (km/s) = 6.72540 5.66967 6.21997
#
# Compressibility (1/GPa) = 0.02697755
#
# Stress axis : x y z
#
# Youngs Moduli (GPa) = 132.66446 68.50172 84.77189
#
# Poissons Ratio (x) = 0.05754 0.25830
# Poissons Ratio (y) = 0.11143 -0.03472
# Poissons Ratio (z) = 0.40423 -0.02805
#
# Static dielectric constant tensor:
#      x y z
#    x 2.059990 0.000000 -0.000250 
#    y 0.000000 1.880240 0.000000 
#    z -0.000250 0.000000 1.973210 
# 
# From -- ./inp_files/9028.got.cif
#   From: 2010.05.17/outbox.cif.g08.bks.cpg/sg15_5_cif.got.tgz:9028.got - 2010.06.03 18:47:42.
