data_PCOD9272898
_publ_section_title
;
Structure prediction by ZEFSAII (Michael W. Deem and Ramdas Pophale) SiO2 
 PCOD9272898
Probable space group: C 2/C
;
_chemical_formula_sum "Si O2"
_cell_formula_units_Z 52
_cell_length_a 11.859994
_cell_length_b 24.958853
_cell_length_c 7.754146
_cell_angle_alpha 90.000000
_cell_angle_beta 86.765608
_cell_angle_gamma 90.000000
_cell_volume 2291.662812
_symmetry_space_group_name_H-M "C 2/C"
_symmetry_group_IT_number 15
_symmetry_cell_setting 'monoclinic'
loop_
_space_group_symop_operation_xyz
x,y,z
-x,y,1/2-z
-x,-y,-z
x,-y,1/2+z
1/2+x,1/2+y,z
1/2-x,1/2+y,1/2-z
1/2-x,1/2-y,-z
1/2+x,1/2-y,1/2+z
loop_
_atom_site_type_symbol
_atom_site_label
_atom_site_fract_x
_atom_site_fract_y
_atom_site_fract_z
Si Si1 0.752520 0.661492 0.414940
Si Si2 0.395787 0.569181 0.018346
Si Si3 0.000000 0.494331 0.250000
Si Si4 0.373184 0.070727 0.049343
Si Si5 0.021828 0.658605 0.948171
Si Si6 0.105220 0.756230 0.131466
Si Si7 0.358961 0.446953 0.120140
O O1 0.669165 0.614467 0.366637
O O2 0.859781 0.633983 0.497812
O O3 0.809572 0.710229 0.300411
O O4 0.680050 0.695590 0.558584
O O5 0.529206 0.578090 0.977305
O O6 0.350555 0.567398 0.823533
O O7 0.377381 0.511072 0.103730
O O8 0.104637 0.533145 0.288839
O O9 0.959483 0.456388 0.405864
O O10 0.422393 0.130270 0.063828
O O11 0.251551 0.068914 0.975822
O O12 0.000000 0.652188 0.750000
O O13 0.044246 0.720857 0.988127
O O14 0.000000 0.775482 0.250000
#
# Coordination Sequence:
#
# PCOD9272898 Si02
#       7
#     8   8   4   8   8   8   8
#     4   9  21  40  67  84 122 160 201 253 309 368
#     4  10  21  40  62  87 125 169 200 251 304 357
#     4  10  24  32  52  84 124 164 200 248 298 358
#     4  11  21  36  54  88 121 164 203 246 303 360
#     4  10  20  37  61  87 124 152 192 259 313 353
#     4   9  21  41  66  88 111 156 211 248 307 378
#     4  10  22  36  60  91 123 165 209 242 293 374
#
# _framework density 22.690947999999999
#
# number of rings (size 3 to 8) (size 9 to 14) (size 15 to 20)
#    0.923    1.231    0.769    1.846    7.538    0.000 
#    2.769    0.769    6.769    0.000    0.000    0.000 
#    0.000    0.000    0.000    0.000    0.000    0.000 
#
# Total GULP energy -145039.880504 kJ/mol
# GULP energy per Si atom -5578.456942 kJ/mol
# Density = 2.263930 g / cm^3
# Si number density = 22.690948 Si / 1000 Ang^3
#
#
#
# Elastic Constant Matrix: (Units=GPa)
#
#
# Indices 1 2 3 4 5 6 
#
# 1 107.8354 23.8478 0.6893 0.0000 13.7305 0.0000
# 2 23.8478 70.2185 9.7651 0.0000 3.5041 0.0000
# 3 0.6893 9.7651 28.8074 0.0000 3.5823 0.0000
# 4 0.0000 0.0000 0.0000 16.7757 0.0000 -25.1639
# 5 13.7305 3.5041 3.5823 0.0000 29.3388 0.0000
# 6 0.0000 0.0000 0.0000 -25.1639 0.0000 10.5453
#
#
#
# Elastic Compliance Matrix: (Units=1/GPa)
#
#
# Indices 1 2 3 4 5 6 
#
# 1 0.010665 -0.003601 0.001556 0.000000 -0.004751 0.000000
# 2 -0.003601 0.016203 -0.005458 0.000000 0.000417 0.000000
# 3 0.001556 -0.005458 0.037099 0.000000 -0.004606 0.000000
# 4 0.000000 0.000000 0.000000 -0.023110 0.000000 -0.055146
# 5 -0.004751 0.000417 -0.004606 0.000000 0.036821 0.000000
# 6 0.000000 0.000000 0.000000 -0.055146 0.000000 -0.036764
#
#
# Mechanical properties :
#
#
# Convention : Reuss Voigt Hill
#
# Bulk Modulus (GPa) = 20.42460 30.60730 25.51595
# Shear Modulus (GPa) = 69.21389 22.83592 46.02490
#
# Velocity S-wave (km/s) = 5.52893 3.17580 4.50859
# Velocity P-wave (km/s) = 7.05546 5.19285 6.19456
#
# Compressibility (1/GPa) = 0.04896057
#
# Stress axis : x y z
#
# Youngs Moduli (GPa) = 93.76624 61.71845 26.95486
#
# Poissons Ratio (x) = 0.22227 -0.04195
# Poissons Ratio (y) = 0.33769 0.14712
# Poissons Ratio (z) = -0.14594 0.33686
#
# Static dielectric constant tensor:
#      x y z
#    x 1.925950 0.000000 -0.106080 
#    y 0.000000 1.870070 0.000000 
#    z -0.106080 0.000000 1.982730 
# 
# From -- ./inp_files/33662.got.cif
#   From: 2010.05.17/outbox.cif.g08.bks.cpg/sg15_17_cif.got.tgz:33662.got - 2010.06.03 18:47:42.
