data_PCOD9272882
_publ_section_title
;
Structure prediction by ZEFSAII (Michael W. Deem and Ramdas Pophale) SiO2 
 PCOD9272882
Probable space group: C 2/C
;
_chemical_formula_sum "Si O2"
_cell_formula_units_Z 36
_cell_length_a 10.505104
_cell_length_b 11.357393
_cell_length_c 13.836690
_cell_angle_alpha 90.000000
_cell_angle_beta 56.346669
_cell_angle_gamma 90.000000
_cell_volume 1374.188499
_symmetry_space_group_name_H-M "C 2/C"
_symmetry_group_IT_number 15
_symmetry_cell_setting 'monoclinic'
loop_
_space_group_symop_operation_xyz
x,y,z
-x,y,1/2-z
-x,-y,-z
x,-y,1/2+z
1/2+x,1/2+y,z
1/2-x,1/2+y,1/2-z
1/2-x,1/2-y,-z
1/2+x,1/2-y,1/2+z
loop_
_atom_site_type_symbol
_atom_site_label
_atom_site_fract_x
_atom_site_fract_y
_atom_site_fract_z
Si Si1 0.000000 0.100988 0.250000
Si Si2 0.186500 0.090145 0.788409
Si Si3 0.464667 0.833725 0.624580
Si Si4 0.520987 0.227239 0.907262
Si Si5 0.244281 0.411387 0.612763
O O1 0.052770 0.191300 0.143628
O O2 0.877595 0.012729 0.253806
O O3 0.070292 0.199314 0.830003
O O4 0.352946 0.141964 0.693439
O O5 0.188737 0.040374 0.897613
O O6 0.424298 0.841238 0.528507
O O7 0.635874 0.881274 0.569794
O O8 0.362824 0.900402 0.746452
O O9 0.625541 0.315556 0.927608
#
# Coordination Sequence:
#
# PCOD9272882 Si02
#       5
#     4   8   8   8   8
#     4  10  22  38  58  86 118 154 192 232 290 342
#     4  10  21  39  58  83 122 151 187 243 282 337
#     4  10  20  37  61  86 115 152 195 237 284 342
#     4  10  21  37  59  87 117 152 193 238 285 341
#     4   9  20  36  57  88 115 149 195 234 286 342
#
# _framework density 26.197279000000002
#
# number of rings (size 3 to 8) (size 9 to 14) (size 15 to 20)
#    0.000    2.222    0.000    3.333    0.000    8.000 
#    0.000   10.000    0.000    0.000    0.000    0.000 
#    0.000    0.000    0.000    0.000    0.000    0.000 
#
# Total GULP energy -100595.686050 kJ/mol
# GULP energy per Si atom -5588.649225 kJ/mol
# Density = 2.613765 g / cm^3
# Si number density = 26.197279 Si / 1000 Ang^3
#
#
#
# Elastic Constant Matrix: (Units=GPa)
#
#
# Indices 1 2 3 4 5 6 
#
# 1 113.4958 46.3503 16.3790 0.0000 16.1014 0.0000
# 2 46.3503 118.0909 26.1516 0.0000 15.1921 0.0000
# 3 16.3790 26.1516 97.6042 0.0000 12.8390 0.0000
# 4 0.0000 0.0000 0.0000 -321.1335 0.0000 -39.8331
# 5 16.1014 15.1921 12.8390 0.0000 27.7470 0.0000
# 6 0.0000 0.0000 0.0000 -39.8331 0.0000 15.7318
#
#
#
# Elastic Compliance Matrix: (Units=1/GPa)
#
#
# Indices 1 2 3 4 5 6 
#
# 1 0.010958 -0.003695 -0.000297 0.000000 -0.004199 0.000000
# 2 -0.003695 0.010699 -0.001872 0.000000 -0.002848 0.000000
# 3 -0.000297 -0.001872 0.011329 0.000000 -0.004045 0.000000
# 4 0.000000 0.000000 0.000000 -0.002370 0.000000 -0.006000
# 5 -0.004199 -0.002848 -0.004045 0.000000 0.041907 0.000000
# 6 0.000000 0.000000 0.000000 -0.006000 0.000000 0.048373
#
#
# Mechanical properties :
#
#
# Convention : Reuss Voigt Hill
#
# Bulk Modulus (GPa) = 47.03923 56.32807 51.68365
# Shear Modulus (GPa) = 35.78804 -39.51029 -1.86112
#
# Velocity S-wave (km/s) = 3.70009 -3.88775 -0.84378
# Velocity P-wave (km/s) = 6.02071 1.18128 4.33845
#
# Compressibility (1/GPa) = 0.02125885
#
# Stress axis : x y z
#
# Youngs Moduli (GPa) = 91.25353 93.46348 88.26988
#
# Poissons Ratio (x) = 0.34538 0.02618
# Poissons Ratio (y) = 0.33721 0.16525
# Poissons Ratio (z) = 0.02706 0.17497
#
# Static dielectric constant tensor:
#      x y z
#    x 2.083010 0.000000 -0.042650 
#    y 0.000000 2.147920 0.000000 
#    z -0.042650 0.000000 2.137850 
# 
# From -- ./inp_files/84505.got.cif
#   From: 2010.05.17/outbox.cif.g08.bks.cpg/sg15_43_cif.got.tgz:84505.got - 2010.06.03 18:47:42.
