data_PCOD9272393
_publ_section_title
;
Structure prediction by ZEFSAII (Michael W. Deem and Ramdas Pophale) SiO2 
 PCOD9272393
Probable space group: C 2/C
;
_chemical_formula_sum "Si O2"
_cell_formula_units_Z 40
_cell_length_a 5.103702
_cell_length_b 28.056196
_cell_length_c 12.790145
_cell_angle_alpha 90.000000
_cell_angle_beta 67.117898
_cell_angle_gamma 90.000000
_cell_volume 1687.306168
_symmetry_space_group_name_H-M "C 2/C"
_symmetry_group_IT_number 15
_symmetry_cell_setting 'monoclinic'
loop_
_space_group_symop_operation_xyz
x,y,z
-x,y,1/2-z
-x,-y,-z
x,-y,1/2+z
1/2+x,1/2+y,z
1/2-x,1/2+y,1/2-z
1/2-x,1/2-y,-z
1/2+x,1/2-y,1/2+z
loop_
_atom_site_type_symbol
_atom_site_label
_atom_site_fract_x
_atom_site_fract_y
_atom_site_fract_z
Si Si1 0.247815 0.277973 0.389016
Si Si2 0.359267 0.956897 0.882777
Si Si3 0.807985 0.838889 0.077043
Si Si4 0.296896 0.061626 0.972449
Si Si5 0.813616 0.824079 0.682468
O O1 0.250000 0.250000 0.500000
O O2 0.527286 0.311503 0.355904
O O3 0.212979 0.233568 0.316093
O O4 0.966721 0.309418 0.417466
O O5 0.500000 0.946837 0.750000
O O6 0.504018 0.929391 0.957696
O O7 0.022436 0.947782 0.936451
O O8 0.400382 0.013171 0.901907
O O9 0.715334 0.893439 0.103292
O O10 0.034492 0.839316 0.946969
O O11 0.500000 0.842478 0.750000
O O12 0.000000 0.839485 0.750000
#
# Coordination Sequence:
#
# PCOD9272393 Si02
#       5
#     8   8   8   8   8
#     4  10  20  37  55  74 109 154 183 217 279 333
#     4  10  21  40  61  84 120 154 186 236 296 354
#     4  11  21  37  58  81 111 148 190 234 278 336
#     4  10  22  38  61  90 114 151 196 235 292 351
#     4  11  21  34  53  81 113 147 190 236 281 327
#
# _framework density 23.706427999999999
#
# number of rings (size 3 to 8) (size 9 to 14) (size 15 to 20)
#    0.000    1.600    0.000    7.800    0.000    2.400 
#    0.000    3.000    0.000    2.400    0.000    0.000 
#    0.000    0.000    0.000    0.000    0.000    0.000 
#
# Total GULP energy -111939.866374 kJ/mol
# GULP energy per Si atom -5596.993319 kJ/mol
# Density = 2.365247 g / cm^3
# Si number density = 23.706428 Si / 1000 Ang^3
#
#
#
# Elastic Constant Matrix: (Units=GPa)
#
#
# Indices 1 2 3 4 5 6 
#
# 1 161.3517 17.6304 21.7991 0.0000 1.5932 0.0000
# 2 17.6304 140.1893 8.2401 0.0000 3.8028 0.0000
# 3 21.7991 8.2401 61.8197 0.0000 3.0193 0.0000
# 4 0.0000 0.0000 0.0000 9.6400 0.0000 9.1182
# 5 1.5932 3.8028 3.0193 0.0000 33.6479 0.0000
# 6 0.0000 0.0000 0.0000 9.1182 0.0000 29.2493
#
#
#
# Elastic Compliance Matrix: (Units=1/GPa)
#
#
# Indices 1 2 3 4 5 6 
#
# 1 0.006574 -0.000695 -0.002224 0.000000 -0.000033 0.000000
# 2 -0.000695 0.007281 -0.000690 0.000000 -0.000728 0.000000
# 3 -0.002224 -0.000690 0.017118 0.000000 -0.001353 0.000000
# 4 0.000000 0.000000 0.000000 0.147113 0.000000 -0.045861
# 5 -0.000033 -0.000728 -0.001353 0.000000 0.029925 0.000000
# 6 0.000000 0.000000 0.000000 -0.045861 0.000000 0.048486
#
#
# Mechanical properties :
#
#
# Convention : Reuss Voigt Hill
#
# Bulk Modulus (GPa) = 42.09519 50.96665 46.53092
# Shear Modulus (GPa) = 18.40718 35.55352 26.98035
#
# Velocity S-wave (km/s) = 2.78953 3.87685 3.37724
# Velocity P-wave (km/s) = 5.30761 6.44870 5.90578
#
# Compressibility (1/GPa) = 0.02375568
#
# Stress axis : x y z
#
# Youngs Moduli (GPa) = 152.10519 137.34500 58.41695
#
# Poissons Ratio (x) = 0.09548 0.12992
# Poissons Ratio (y) = 0.10574 0.04030
# Poissons Ratio (z) = 0.33828 0.09474
#
# Static dielectric constant tensor:
#      x y z
#    x 1.865410 0.000000 0.016410 
#    y 0.000000 1.945530 0.000000 
#    z 0.016410 0.000000 1.902860 
# 
# From -- ./inp_files/73201.got.cif
#   From: 2010.05.17/outbox.cif.g08.bks.cpg/sg15_37_cif.got.tgz:73201.got - 2010.06.03 18:47:42.
