data_PCOD9272670
_publ_section_title
;
Structure prediction by ZEFSAII (Michael W. Deem and Ramdas Pophale) SiO2 
 PCOD9272670
Probable space group: C 2/C
;
_chemical_formula_sum "Si O2"
_cell_formula_units_Z 44
_cell_length_a 16.576263
_cell_length_b 21.665754
_cell_length_c 5.637035
_cell_angle_alpha 90.000000
_cell_angle_beta 98.337714
_cell_angle_gamma 90.000000
_cell_volume 2003.071655
_symmetry_space_group_name_H-M "C 2/C"
_symmetry_group_IT_number 15
_symmetry_cell_setting 'monoclinic'
loop_
_space_group_symop_operation_xyz
x,y,z
-x,y,1/2-z
-x,-y,-z
x,-y,1/2+z
1/2+x,1/2+y,z
1/2-x,1/2+y,1/2-z
1/2-x,1/2-y,-z
1/2+x,1/2-y,1/2+z
loop_
_atom_site_type_symbol
_atom_site_label
_atom_site_fract_x
_atom_site_fract_y
_atom_site_fract_z
Si Si1 0.345447 0.826686 0.084998
Si Si2 0.692063 0.274710 0.274913
Si Si3 0.556831 0.646989 0.962701
Si Si4 0.592758 0.521216 0.099338
Si Si5 0.401151 0.965984 0.186602
Si Si6 0.500000 0.752145 0.250000
O O1 0.253600 0.809842 0.123556
O O2 0.362936 0.898880 0.112758
O O3 0.420060 0.793305 0.254986
O O4 0.351558 0.786403 0.846744
O O5 0.750000 0.250000 0.500000
O O6 0.632177 0.323096 0.364527
O O7 0.500000 0.613542 0.750000
O O8 0.587925 0.594490 0.152497
O O9 0.502377 0.702500 0.039748
O O10 0.631130 0.490218 0.351900
O O11 0.500000 0.500000 0.000000
O O12 0.500000 0.959864 0.250000
O O13 0.379667 0.992613 0.441996
#
# Coordination Sequence:
#
# PCOD9272670 Si02
#       6
#     8   8   8   8   8   4
#     4  11  24  43  67  99 137 176 227 287 350 417
#     4  11  25  43  62  99 139 175 219 287 349 402
#     4  12  23  38  66  94 126 170 226 272 332 410
#     4  10  20  37  59  88 127 163 210 272 316 378
#     4  10  23  43  72 105 136 180 236 296 347 418
#     4  12  22  38  68 100 120 172 230 280 350 406
#
# _framework density 21.966265
#
# number of rings (size 3 to 8) (size 9 to 14) (size 15 to 20)
#    0.000    1.091    6.364    1.091    2.545    0.000 
#    3.273    1.818    0.000    0.000    0.000    0.000 
#    0.000    0.000    0.000    0.000    0.000    0.000 
#
# Total GULP energy -122487.353359 kJ/mol
# GULP energy per Si atom -5567.606971 kJ/mol
# Density = 2.191627 g / cm^3
# Si number density = 21.966265 Si / 1000 Ang^3
#
#
#
# Elastic Constant Matrix: (Units=GPa)
#
#
# Indices 1 2 3 4 5 6 
#
# 1 43.0350 28.0927 4.4752 0.0000 -8.8669 0.0000
# 2 28.0927 168.4099 43.8784 0.0000 0.5569 0.0000
# 3 4.4752 43.8784 94.8150 0.0000 -4.6288 0.0000
# 4 0.0000 0.0000 0.0000 33.4189 0.0000 -3.3521
# 5 -8.8669 0.5569 -4.6288 0.0000 24.1958 0.0000
# 6 0.0000 0.0000 0.0000 -3.3521 0.0000 17.8830
#
#
#
# Elastic Compliance Matrix: (Units=1/GPa)
#
#
# Indices 1 2 3 4 5 6 
#
# 1 0.028758 -0.005253 0.001609 0.000000 0.010968 0.000000
# 2 -0.005253 0.007725 -0.003462 0.000000 -0.002765 0.000000
# 3 0.001609 -0.003462 0.012220 0.000000 0.003007 0.000000
# 4 0.000000 0.000000 0.000000 0.030497 0.000000 0.005716
# 5 0.010968 -0.002765 0.003007 0.000000 0.045988 0.000000
# 6 0.000000 0.000000 0.000000 0.005716 0.000000 0.056990
#
#
# Mechanical properties :
#
#
# Convention : Reuss Voigt Hill
#
# Bulk Modulus (GPa) = 28.99257 51.01695 40.00476
# Shear Modulus (GPa) = 24.05149 30.42045 27.23597
#
# Velocity S-wave (km/s) = 3.31256 3.72542 3.52504
# Velocity P-wave (km/s) = 5.27807 6.46379 5.90079
#
# Compressibility (1/GPa) = 0.03449160
#
# Stress axis : x y z
#
# Youngs Moduli (GPa) = 34.77263 129.44485 81.83343
#
# Poissons Ratio (x) = 0.67993 -0.13166
# Poissons Ratio (y) = 0.18265 0.28332
# Poissons Ratio (z) = -0.05595 0.44816
#
# Static dielectric constant tensor:
#      x y z
#    x 1.817340 0.000000 -0.011810 
#    y 0.000000 1.760160 0.000000 
#    z -0.011810 0.000000 1.953950 
# 
# From -- ./inp_files/10397.got.cif
#   From: 2010.05.17/outbox.cif.g08.bks.cpg/sg15_6_cif.got.tgz:10397.got - 2010.06.03 18:47:42.
