data_PCOD9272903
_publ_section_title
;
Structure prediction by ZEFSAII (Michael W. Deem and Ramdas Pophale) SiO2 
 PCOD9272903
Probable space group: C 2/C
;
_chemical_formula_sum "Si O2"
_cell_formula_units_Z 64
_cell_length_a 19.541106
_cell_length_b 18.259911
_cell_length_c 26.110125
_cell_angle_alpha 90.000000
_cell_angle_beta 18.305279
_cell_angle_gamma 90.000000
_cell_volume 2926.152355
_symmetry_space_group_name_H-M "C 2/C"
_symmetry_group_IT_number 15
_symmetry_cell_setting 'monoclinic'
loop_
_space_group_symop_operation_xyz
x,y,z
-x,y,1/2-z
-x,-y,-z
x,-y,1/2+z
1/2+x,1/2+y,z
1/2-x,1/2+y,1/2-z
1/2-x,1/2-y,-z
1/2+x,1/2-y,1/2+z
loop_
_atom_site_type_symbol
_atom_site_label
_atom_site_fract_x
_atom_site_fract_y
_atom_site_fract_z
Si Si1 0.685471 0.593546 0.074799
Si Si2 0.073815 0.855087 0.934112
Si Si3 0.735522 0.630886 0.430367
Si Si4 0.110366 0.322237 0.408780
Si Si5 0.754450 0.702644 0.576995
Si Si6 0.644166 0.648607 0.271483
Si Si7 0.181794 0.929612 0.074451
Si Si8 0.875988 0.325321 0.213610
O O1 0.500000 0.601790 0.250000
O O2 0.556356 0.611494 0.114571
O O3 0.774051 0.510752 0.011925
O O4 0.886283 0.646357 0.942206
O O5 0.811476 0.860279 0.118563
O O6 0.172268 0.887343 0.916519
O O7 0.104881 0.766632 0.913105
O O8 0.167938 0.878717 0.812781
O O9 0.653374 0.716023 0.495170
O O10 0.626245 0.585154 0.554254
O O11 0.000000 0.624968 0.250000
O O12 0.214833 0.333844 0.389627
O O13 0.198158 0.344780 0.291561
O O14 0.873048 0.359594 0.580165
O O15 0.500000 0.715895 0.750000
O O16 0.827660 0.641632 0.484635
O O17 0.615190 0.737014 0.290747
O O18 0.000000 0.929754 0.250000
#
# Coordination Sequence:
#
# PCOD9272903 Si02
#       8
#     8   8   8   8   8   8   8   8
#     4  11  22  41  61  82 116 159 198 237 287 341
#     4   9  21  35  57  93 118 141 191 247 294 335
#     4  10  21  40  63  87 119 152 187 238 295 346
#     4   9  18  34  60  86 119 147 190 246 285 337
#     4   9  19  35  62  90 114 148 192 236 291 340
#     4  10  20  38  60  88 116 150 195 240 289 343
#     4  10  23  39  58  86 116 155 198 239 275 345
#     4  10  20  37  61  88 116 151 193 243 287 340
#
# _framework density 21.871725000000001
#
# number of rings (size 3 to 8) (size 9 to 14) (size 15 to 20)
#    0.000    2.250    1.250    0.750    5.250    0.500 
#    2.250    2.500    0.000    0.000    0.000    0.000 
#    0.000    0.000    0.000    0.000    0.000    0.000 
#
# Total GULP energy -178387.786314 kJ/mol
# GULP energy per Si atom -5574.618322 kJ/mol
# Density = 2.182194 g / cm^3
# Si number density = 21.871725 Si / 1000 Ang^3
#
#
#
# Elastic Constant Matrix: (Units=GPa)
#
#
# Indices 1 2 3 4 5 6 
#
# 1 97.4227 -3.5171 15.0328 -0.0732 -1.4571 0.0420
# 2 -3.5171 26.0270 7.0775 -0.0906 4.7538 -0.0019
# 3 15.0328 7.0775 60.0136 -0.0474 -2.3657 -0.1351
# 4 -0.0732 -0.0906 -0.0474 1.7978 -0.0727 7.6224
# 5 -1.4571 4.7538 -2.3657 -0.0727 38.8085 0.0178
# 6 0.0420 -0.0019 -0.1351 7.6224 0.0178 12.3456
#
#
#
# Elastic Compliance Matrix: (Units=1/GPa)
#
#
# Indices 1 2 3 4 5 6 
#
# 1 0.010805 0.002278 -0.002977 -0.000474 -0.000056 0.000224
# 2 0.002278 0.041229 -0.005642 -0.001262 -0.005311 0.000724
# 3 -0.002977 -0.005642 0.018141 0.000451 0.001686 -0.000073
# 4 -0.000474 -0.001262 0.000451 -0.343753 -0.000577 0.212247
# 5 -0.000056 -0.005311 0.001686 -0.000577 0.026518 0.000336
# 6 0.000224 0.000724 -0.000073 0.212247 0.000336 -0.050047
#
#
# Mechanical properties :
#
#
# Convention : Reuss Voigt Hill
#
# Bulk Modulus (GPa) = 17.39325 24.51663 20.95494
# Shear Modulus (GPa) = -18.84936 21.58173 1.36619
#
# Velocity S-wave (km/s) = -2.93885 3.14465 0.79120
# Velocity P-wave (km/s) = 1.88312 4.94153 3.23052
#
# Compressibility (1/GPa) = 0.05749357
#
# Stress axis : x y z
#
# Youngs Moduli (GPa) = 92.55045 24.25457 55.12484
#
# Poissons Ratio (x) = -0.05526 0.16412
# Poissons Ratio (y) = -0.21086 0.31100
# Poissons Ratio (z) = 0.27555 0.13684
#
# Static dielectric constant tensor:
#      x y z
#    x 1.821660 0.000030 0.000640 
#    y 0.000030 1.791470 0.000050 
#    z 0.000640 0.000050 1.833000 
# 
# From -- ./inp_files/299506.got.cif
#   From: 2010.05.17/outbox.cif.g08.bks.cpg/sg15_150_cif.got.tgz:299506.got - 2010.06.03 18:47:42.
