data_PCOD9272431
_publ_section_title
;
Structure prediction by ZEFSAII (Michael W. Deem and Ramdas Pophale) SiO2 
 PCOD9272431
Probable space group: C 2/C
;
_chemical_formula_sum "Si O2"
_cell_formula_units_Z 64
_cell_length_a 11.294228
_cell_length_b 25.007704
_cell_length_c 21.400477
_cell_angle_alpha 90.000000
_cell_angle_beta 146.550116
_cell_angle_gamma 90.000000
_cell_volume 3331.722723
_symmetry_space_group_name_H-M "C 2/C"
_symmetry_group_IT_number 15
_symmetry_cell_setting 'monoclinic'
loop_
_space_group_symop_operation_xyz
x,y,z
-x,y,1/2-z
-x,-y,-z
x,-y,1/2+z
1/2+x,1/2+y,z
1/2-x,1/2+y,1/2-z
1/2-x,1/2-y,-z
1/2+x,1/2-y,1/2+z
loop_
_atom_site_type_symbol
_atom_site_label
_atom_site_fract_x
_atom_site_fract_y
_atom_site_fract_z
Si Si1 0.244706 0.122431 0.203901
Si Si2 0.830484 0.953889 0.944451
Si Si3 0.133286 0.096964 0.368227
Si Si4 0.743928 0.228743 0.371317
Si Si5 0.443854 0.837839 0.467831
Si Si6 0.402349 0.000690 0.044857
Si Si7 0.250450 0.059341 0.856875
Si Si8 0.715393 0.854950 0.963868
O O1 0.238175 0.075628 0.149318
O O2 0.220870 0.178968 0.158980
O O3 0.478919 0.124366 0.338207
O O4 0.048189 0.116966 0.164429
O O5 0.877235 0.902092 0.011321
O O6 0.660364 0.984460 0.913248
O O7 0.000000 0.000000 0.000000
O O8 0.310138 0.141066 0.424226
O O9 0.262666 0.049433 0.458758
O O10 0.000000 0.077136 0.250000
O O11 0.500000 0.248081 0.250000
O O12 0.908574 0.276780 0.433831
O O13 0.759174 0.199812 0.445491
O O14 0.323334 0.881101 0.371416
O O15 0.316336 0.842785 0.477560
O O16 0.647347 0.983146 0.145283
O O17 0.353358 0.045256 0.970353
O O18 0.000000 0.055323 0.750000
#
# Coordination Sequence:
#
# PCOD9272431 Si02
#       8
#     8   8   8   8   8   8   8   8
#     4  10  21  38  58  83 114 151 193 240 281 337
#     4  11  20  36  56  80 115 148 187 234 284 334
#     4  11  21  35  59  85 113 150 194 240 285 336
#     4   9  20  36  56  83 112 146 189 237 285 341
#     4  11  20  34  59  84 111 147 190 238 292 335
#     4  10  21  36  55  85 113 152 190 230 284 352
#     4  10  21  36  54  83 117 147 187 236 285 342
#     4  10  20  37  56  84 110 146 199 232 278 344
#
# _framework density 19.209281000000001
#
# number of rings (size 3 to 8) (size 9 to 14) (size 15 to 20)
#    0.000    1.750    3.750    2.250    0.000    1.500 
#    2.250    0.000    0.000    0.000    0.000    3.500 
#    0.000    0.000    0.000    0.000    0.000    0.000 
#
# Total GULP energy -178433.986751 kJ/mol
# GULP energy per Si atom -5576.062086 kJ/mol
# Density = 1.916556 g / cm^3
# Si number density = 19.209281 Si / 1000 Ang^3
#
#
#
# Elastic Constant Matrix: (Units=GPa)
#
#
# Indices 1 2 3 4 5 6 
#
# 1 99.6547 20.8800 13.3238 -0.0005 13.6724 0.0002
# 2 20.8800 106.5359 37.8540 -0.0006 14.0094 0.0001
# 3 13.3238 37.8540 45.8274 0.0069 17.5985 0.0001
# 4 -0.0005 -0.0006 0.0069 19.9023 -0.0005 10.0641
# 5 13.6724 14.0094 17.5985 -0.0005 27.7816 0.0011
# 6 0.0002 0.0001 0.0001 10.0641 0.0011 20.9049
#
#
#
# Elastic Compliance Matrix: (Units=1/GPa)
#
#
# Indices 1 2 3 4 5 6 
#
# 1 0.010995 -0.001474 -0.000247 0.000000 -0.004512 0.000000
# 2 -0.001474 0.013486 -0.011071 0.000006 0.000938 -0.000003
# 3 -0.000247 -0.011071 0.038120 -0.000019 -0.018443 0.000010
# 4 0.000000 0.000006 -0.000019 0.066414 0.000012 -0.031973
# 5 -0.004512 0.000938 -0.018443 0.000012 0.049425 -0.000008
# 6 0.000000 -0.000003 0.000010 -0.031973 -0.000008 0.063228
#
#
# Mechanical properties :
#
#
# Convention : Reuss Voigt Hill
#
# Bulk Modulus (GPa) = 27.01405 44.01486 35.51446
# Shear Modulus (GPa) = 17.88325 25.71512 21.79918
#
# Velocity S-wave (km/s) = 3.05449 3.66277 3.37237
# Velocity P-wave (km/s) = 5.15106 6.39147 5.80450
#
# Compressibility (1/GPa) = 0.03701777
#
# Stress axis : x y z
#
# Youngs Moduli (GPa) = 90.94646 74.15200 26.23290
#
# Poissons Ratio (x) = 0.10931 0.00647
# Poissons Ratio (y) = 0.13406 0.29043
# Poissons Ratio (z) = 0.02243 0.82094
#
# Static dielectric constant tensor:
#      x y z
#    x 1.707960 0.000000 -0.008690 
#    y 0.000000 1.711580 0.000000 
#    z -0.008690 0.000000 1.671440 
# 
# From -- ./inp_files/271299.got.cif
#   From: 2010.05.17/outbox.cif.g08.bks.cpg/sg15_136_cif.got.tgz:271299.got - 2010.06.03 18:47:42.
