data_PCOD9272688
_publ_section_title
;
Structure prediction by ZEFSAII (Michael W. Deem and Ramdas Pophale) SiO2 
 PCOD9272688
Probable space group: C 2/C
;
_chemical_formula_sum "Si O2"
_cell_formula_units_Z 60
_cell_length_a 28.851554
_cell_length_b 10.149855
_cell_length_c 23.196237
_cell_angle_alpha 90.000000
_cell_angle_beta 23.238506
_cell_angle_gamma 90.000000
_cell_volume 2680.150146
_symmetry_space_group_name_H-M "C 2/C"
_symmetry_group_IT_number 15
_symmetry_cell_setting 'monoclinic'
loop_
_space_group_symop_operation_xyz
x,y,z
-x,y,1/2-z
-x,-y,-z
x,-y,1/2+z
1/2+x,1/2+y,z
1/2-x,1/2+y,1/2-z
1/2-x,1/2-y,-z
1/2+x,1/2-y,1/2+z
loop_
_atom_site_type_symbol
_atom_site_label
_atom_site_fract_x
_atom_site_fract_y
_atom_site_fract_z
Si Si1 0.754418 0.462852 0.433874
Si Si2 0.567564 0.647127 0.824780
Si Si3 0.961495 0.657730 0.728073
Si Si4 0.692029 0.531245 0.378662
Si Si5 0.000000 0.101946 0.250000
Si Si6 0.787565 0.630042 0.496960
Si Si7 0.222611 0.190173 0.754933
Si Si8 0.940765 0.603636 0.429332
O O1 0.828060 0.328005 0.354822
O O2 0.749902 0.522234 0.375816
O O3 0.622321 0.470876 0.607624
O O4 0.827042 0.529134 0.402851
O O5 0.674590 0.590797 0.664477
O O6 0.613614 0.658498 0.837349
O O7 0.541992 0.795375 0.831812
O O8 0.445117 0.570584 0.959378
O O9 0.004987 0.808337 0.686185
O O10 0.000000 0.620530 0.750000
O O11 0.024667 0.549604 0.615663
O O12 0.752427 0.652711 0.274649
O O13 0.705463 0.390126 0.333001
O O14 0.750000 0.750000 0.500000
O O15 0.888549 0.653740 0.427955
O O16 0.337237 0.127332 0.593313
#
# Coordination Sequence:
#
# PCOD9272688 Si02
#       8
#     8   8   8   8   4   8   8   8
#     4  12  22  40  61  95 131 165 216 264 326 399
#     4  10  21  38  64  93 126 168 216 272 332 392
#     4  10  21  38  61  88 132 172 206 250 319 396
#     4  11  24  43  65  92 126 173 225 281 328 389
#     4  10  24  38  58  92 134 176 210 252 320 400
#     4  11  20  32  59  92 126 158 191 257 330 396
#     4  10  23  43  64  89 126 170 227 278 327 382
#     4  10  20  37  59  91 121 162 213 257 319 385
#
# _framework density 22.386804999999999
#
# number of rings (size 3 to 8) (size 9 to 14) (size 15 to 20)
#    0.400    1.067    1.333    5.600    0.000    2.133 
#    0.000   11.333    0.000    0.000    0.000    0.000 
#    0.000    0.000    0.000    0.000    0.000    0.000 
#
# Total GULP energy -167173.543268 kJ/mol
# GULP energy per Si atom -5572.451442 kJ/mol
# Density = 2.233585 g / cm^3
# Si number density = 22.386805 Si / 1000 Ang^3
#
#
#
# Elastic Constant Matrix: (Units=GPa)
#
#
# Indices 1 2 3 4 5 6 
#
# 1 107.5273 27.9673 36.6075 0.0000 -15.1403 -0.0001
# 2 27.9673 52.2378 6.0844 -0.0006 7.4527 0.0003
# 3 36.6075 6.0844 54.2839 -0.0003 -16.8023 0.0002
# 4 0.0000 -0.0006 -0.0003 28.9402 0.0001 -2.1304
# 5 -15.1403 7.4527 -16.8023 0.0001 26.8983 0.0000
# 6 -0.0001 0.0003 0.0002 -2.1304 0.0000 39.9530
#
#
#
# Elastic Compliance Matrix: (Units=1/GPa)
#
#
# Indices 1 2 3 4 5 6 
#
# 1 0.014601 -0.007833 -0.007132 0.000000 0.005934 0.000000
# 2 -0.007833 0.025238 -0.001333 0.000001 -0.012234 0.000000
# 3 -0.007132 -0.001333 0.027586 0.000000 0.013587 0.000000
# 4 0.000000 0.000001 0.000000 0.034690 0.000000 0.001850
# 5 0.005934 -0.012234 0.013587 0.000000 0.052394 0.000000
# 6 0.000000 0.000000 0.000000 0.001850 0.000000 0.025128
#
#
# Mechanical properties :
#
#
# Convention : Reuss Voigt Hill
#
# Bulk Modulus (GPa) = 28.71205 39.48525 34.09865
# Shear Modulus (GPa) = 22.33717 28.71761 25.52739
#
# Velocity S-wave (km/s) = 3.16220 3.58549 3.38048
# Velocity P-wave (km/s) = 5.11722 5.90060 5.52282
#
# Compressibility (1/GPa) = 0.03482858
#
# Stress axis : x y z
#
# Youngs Moduli (GPa) = 68.48970 39.62352 36.25004
#
# Poissons Ratio (x) = 0.31037 0.25853
# Poissons Ratio (y) = 0.53647 0.04833
# Poissons Ratio (z) = 0.48845 0.05283
#
# Static dielectric constant tensor:
#      x y z
#    x 1.824020 0.000000 0.046930 
#    y 0.000000 2.172330 0.000000 
#    z 0.046930 0.000000 2.158480 
# 
# From -- ./inp_files/255538.got.cif
#   From: 2010.05.17/outbox.cif.g08.bks.cpg/sg15_128_cif.got.tgz:255538.got - 2010.06.03 18:47:42.
