data_PCOD9272990
_publ_section_title
;
Structure prediction by ZEFSAII (Michael W. Deem and Ramdas Pophale) SiO2 
 PCOD9272990
Probable space group: C 2/C
;
_chemical_formula_sum "Si O2"
_cell_formula_units_Z 40
_cell_length_a 11.186093
_cell_length_b 15.700577
_cell_length_c 10.840257
_cell_angle_alpha 90.000000
_cell_angle_beta 107.130809
_cell_angle_gamma 90.000000
_cell_volume 1819.388973
_symmetry_space_group_name_H-M "C 2/C"
_symmetry_group_IT_number 15
_symmetry_cell_setting 'monoclinic'
loop_
_space_group_symop_operation_xyz
x,y,z
-x,y,1/2-z
-x,-y,-z
x,-y,1/2+z
1/2+x,1/2+y,z
1/2-x,1/2+y,1/2-z
1/2-x,1/2-y,-z
1/2+x,1/2-y,1/2+z
loop_
_atom_site_type_symbol
_atom_site_label
_atom_site_fract_x
_atom_site_fract_y
_atom_site_fract_z
Si Si1 0.077377 0.517936 0.898531
Si Si2 0.028835 0.139585 0.979757
Si Si3 0.004459 0.699525 0.890229
Si Si4 0.612716 0.509119 0.186700
Si Si5 0.262534 0.096869 0.907736
O O1 0.000000 0.500812 0.750000
O O2 0.098830 0.619324 0.910611
O O3 0.191859 0.455004 0.957231
O O4 0.000000 0.500000 0.000000
O O5 0.969483 0.227982 0.002536
O O6 0.104086 0.099411 0.117882
O O7 0.133220 0.144374 0.903343
O O8 0.926259 0.068485 0.915583
O O9 0.870334 0.658635 0.890000
O O10 0.000000 0.734587 0.750000
O O11 0.500000 0.511740 0.250000
O O12 0.732304 0.475636 0.297040
#
# Coordination Sequence:
#
# PCOD9272990 Si02
#       5
#     8   8   8   8   8
#     4   9  20  37  60  88 123 159 200 252 307 364
#     4  10  20  37  62  84 120 159 203 247 309 363
#     4  10  21  38  58  87 129 151 200 259 310 355
#     4   9  20  38  59  84 118 158 205 247 300 367
#     4  10  21  38  62  88 118 161 208 248 303 374
#
# _framework density 21.985402000000001
#
# number of rings (size 3 to 8) (size 9 to 14) (size 15 to 20)
#    0.000    2.400    0.000    1.200    8.400    0.000 
#    3.600   13.000    0.000    0.000    0.000    0.000 
#    0.000    0.000    0.000    0.000    0.000    0.000 
#
# Total GULP energy -111519.164889 kJ/mol
# GULP energy per Si atom -5575.958244 kJ/mol
# Density = 2.193536 g / cm^3
# Si number density = 21.985402 Si / 1000 Ang^3
#
#
#
# Elastic Constant Matrix: (Units=GPa)
#
#
# Indices 1 2 3 4 5 6 
#
# 1 50.4715 14.9625 0.7038 0.0000 -4.3302 0.0000
# 2 14.9625 42.5344 26.6035 0.0000 -2.1054 0.0000
# 3 0.7038 26.6035 95.0457 0.0000 1.8027 0.0000
# 4 0.0000 0.0000 0.0000 36.2564 0.0000 -10.9574
# 5 -4.3302 -2.1054 1.8027 0.0000 24.6439 0.0000
# 6 0.0000 0.0000 0.0000 -10.9574 0.0000 23.6129
#
#
#
# Elastic Compliance Matrix: (Units=1/GPa)
#
#
# Indices 1 2 3 4 5 6 
#
# 1 0.022820 -0.009377 0.002398 0.000000 0.003033 0.000000
# 2 -0.009377 0.032580 -0.009084 0.000000 0.001800 0.000000
# 3 0.002398 -0.009084 0.013071 0.000000 -0.001311 0.000000
# 4 0.000000 0.000000 0.000000 0.032080 0.000000 0.014887
# 5 0.003033 0.001800 -0.001311 0.000000 0.041361 0.000000
# 6 0.000000 0.000000 0.000000 0.014887 0.000000 0.049258
#
#
# Mechanical properties :
#
#
# Convention : Reuss Voigt Hill
#
# Bulk Modulus (GPa) = 27.51431 30.28792 28.90112
# Shear Modulus (GPa) = 21.23953 26.62143 23.93048
#
# Velocity S-wave (km/s) = 3.11155 3.48353 3.30278
# Velocity P-wave (km/s) = 5.04489 5.47597 5.26484
#
# Compressibility (1/GPa) = 0.03634472
#
# Stress axis : x y z
#
# Youngs Moduli (GPa) = 43.82143 30.69391 76.50556
#
# Poissons Ratio (x) = 0.28783 -0.18348
# Poissons Ratio (y) = 0.41093 0.69496
# Poissons Ratio (z) = -0.10509 0.27882
#
# Static dielectric constant tensor:
#      x y z
#    x 1.927310 0.000000 0.000000 
#    y 0.000000 1.791120 0.000000 
#    z 0.000000 0.000000 1.858720 
# 
# From -- ./inp_files/85516.got.cif
#   From: 2010.05.17/outbox.cif.g08.bks.cpg/sg15_43_cif.got.tgz:85516.got - 2010.06.03 18:47:42.
