data_PCOD9272454
_publ_section_title
;
Structure prediction by ZEFSAII (Michael W. Deem and Ramdas Pophale) SiO2 
 PCOD9272454
Probable space group: C 2/C
;
_chemical_formula_sum "Si O2"
_cell_formula_units_Z 56
_cell_length_a 16.432644
_cell_length_b 22.514499
_cell_length_c 8.308270
_cell_angle_alpha 90.000000
_cell_angle_beta 120.531068
_cell_angle_gamma 90.000000
_cell_volume 2647.658226
_symmetry_space_group_name_H-M "C 2/C"
_symmetry_group_IT_number 15
_symmetry_cell_setting 'monoclinic'
loop_
_space_group_symop_operation_xyz
x,y,z
-x,y,1/2-z
-x,-y,-z
x,-y,1/2+z
1/2+x,1/2+y,z
1/2-x,1/2+y,1/2-z
1/2-x,1/2-y,-z
1/2+x,1/2-y,1/2+z
loop_
_atom_site_type_symbol
_atom_site_label
_atom_site_fract_x
_atom_site_fract_y
_atom_site_fract_z
Si Si1 0.397116 0.077537 0.177723
Si Si2 0.730914 0.758403 0.222912
Si Si3 0.195344 0.129072 0.869490
Si Si4 0.938585 0.816764 0.036125
Si Si5 0.595995 0.943191 0.434806
Si Si6 0.923998 0.883340 0.559012
Si Si7 0.237679 0.657489 0.028082
O O1 0.500000 0.106982 0.250000
O O2 0.399377 0.066628 0.370481
O O3 0.396645 0.012800 0.093553
O O4 0.300362 0.107095 0.018049
O O5 0.788998 0.801657 0.165745
O O6 0.779549 0.696692 0.329173
O O7 0.712380 0.798745 0.359200
O O8 0.629025 0.737321 0.067911
O O9 0.127872 0.129766 0.958706
O O10 0.142202 0.097384 0.662879
O O11 0.000000 0.800369 0.250000
O O12 0.008508 0.836306 0.964512
O O13 0.500000 0.922890 0.250000
O O14 0.680926 0.902959 0.456380
O O15 0.847367 0.856910 0.605951
O O16 0.000000 0.918581 0.750000
#
# Coordination Sequence:
#
# PCOD9272454 Si02
#       7
#     8   8   8   8   8   8   8
#     4  11  25  44  71  98 129 173 215 277 334 385
#     4  10  20  37  59  90 135 166 216 259 322 394
#     4  10  23  39  65  96 136 166 222 272 327 389
#     4  10  20  37  56  93 126 178 212 260 323 385
#     4  11  25  45  71  96 131 167 226 271 330 395
#     4  10  20  37  67  86 131 174 216 258 317 393
#     4  10  22  40  63  96 128 171 216 273 325 387
#
# _framework density 21.150766999999998
#
# number of rings (size 3 to 8) (size 9 to 14) (size 15 to 20)
#    0.000    1.714    1.429    3.000    8.000    0.571 
#   10.286    0.000    0.000    4.286    0.000    0.000 
#    0.000    0.000    0.000    0.000    0.000    0.000 
#
# Total GULP energy -155939.030634 kJ/mol
# GULP energy per Si atom -5569.251094 kJ/mol
# Density = 2.110263 g / cm^3
# Si number density = 21.150767 Si / 1000 Ang^3
#
#
#
# Elastic Constant Matrix: (Units=GPa)
#
#
# Indices 1 2 3 4 5 6 
#
# 1 107.8569 23.7787 47.6940 0.0000 18.7481 0.0000
# 2 23.7787 18.6645 14.1271 0.0000 12.4878 0.0000
# 3 47.6940 14.1271 136.7477 0.0000 40.7277 0.0000
# 4 0.0000 0.0000 0.0000 40.8353 0.0000 0.2675
# 5 18.7481 12.4878 40.7277 0.0000 38.5925 0.0000
# 6 0.0000 0.0000 0.0000 0.2675 0.0000 22.5880
#
#
#
# Elastic Compliance Matrix: (Units=1/GPa)
#
#
# Indices 1 2 3 4 5 6 
#
# 1 0.014357 -0.017123 -0.004100 0.000000 0.002893 0.000000
# 2 -0.017123 0.088849 0.004198 0.000000 -0.024862 0.000000
# 3 -0.004100 0.004198 0.011843 0.000000 -0.011864 0.000000
# 4 0.000000 0.000000 0.000000 0.024490 0.000000 -0.000290
# 5 0.002893 -0.024862 -0.011864 0.000000 0.045072 0.000000
# 6 0.000000 0.000000 0.000000 -0.000290 0.000000 0.044275
#
#
# Mechanical properties :
#
#
# Convention : Reuss Voigt Hill
#
# Bulk Modulus (GPa) = 12.34591 48.27428 30.31009
# Shear Modulus (GPa) = 17.24525 32.24780 24.74652
#
# Velocity S-wave (km/s) = 2.85853 3.90893 3.42425
# Velocity P-wave (km/s) = 4.09203 6.57620 5.47682
#
# Compressibility (1/GPa) = 0.08099848
#
# Stress axis : x y z
#
# Youngs Moduli (GPa) = 69.65422 11.25505 84.44073
#
# Poissons Ratio (x) = 0.19272 0.34620
# Poissons Ratio (y) = 1.19268 -0.35447
# Poissons Ratio (z) = 0.28558 -0.04725
#
# Static dielectric constant tensor:
#      x y z
#    x 1.807110 0.000000 -0.014740 
#    y 0.000000 1.736780 0.000000 
#    z -0.014740 0.000000 1.870620 
# 
# From -- ./inp_files/42742.got.cif
#   From: 2010.05.17/outbox.cif.g08.bks.cpg/sg15_22_cif.got.tgz:42742.got - 2010.06.03 18:47:42.
