data_PCOD9272082
_publ_section_title
;
Structure prediction by ZEFSAII (Michael W. Deem and Ramdas Pophale) SiO2 
 PCOD9272082
Probable space group: C 2/C
;
_chemical_formula_sum "Si O2"
_cell_formula_units_Z 48
_cell_length_a 8.107787
_cell_length_b 30.847282
_cell_length_c 17.331457
_cell_angle_alpha 90.000000
_cell_angle_beta 31.052104
_cell_angle_gamma 90.000000
_cell_volume 2235.889113
_symmetry_space_group_name_H-M "C 2/C"
_symmetry_group_IT_number 15
_symmetry_cell_setting 'monoclinic'
loop_
_space_group_symop_operation_xyz
x,y,z
-x,y,1/2-z
-x,-y,-z
x,-y,1/2+z
1/2+x,1/2+y,z
1/2-x,1/2+y,1/2-z
1/2-x,1/2-y,-z
1/2+x,1/2-y,1/2+z
loop_
_atom_site_type_symbol
_atom_site_label
_atom_site_fract_x
_atom_site_fract_y
_atom_site_fract_z
Si Si1 0.547569 0.956446 0.819793
Si Si2 0.841758 0.386919 0.131312
Si Si3 0.140476 0.368243 0.861910
Si Si4 0.590844 0.288896 0.807120
Si Si5 0.519827 0.194603 0.834777
Si Si6 0.779770 0.525202 0.025827
O O1 0.500000 0.946893 0.750000
O O2 0.497202 0.912102 0.885822
O O3 0.908819 0.971196 0.693964
O O4 0.317593 0.995050 0.936467
O O5 0.500000 0.407105 0.250000
O O6 0.834258 0.351649 0.201192
O O7 0.086813 0.426455 0.041795
O O8 0.939857 0.358163 0.017999
O O9 0.500000 0.377409 0.750000
O O10 0.165151 0.329043 0.791914
O O11 0.500000 0.287969 0.750000
O O12 0.699883 0.240008 0.781662
O O13 0.308342 0.300302 0.981990
O O14 0.500000 0.194299 0.750000
O O15 0.000000 0.500000 0.000000
#
# Coordination Sequence:
#
# PCOD9272082 Si02
#       6
#     8   8   8   8   8   8
#     4  12  25  41  64 100 131 162 217 282 333 379
#     4  12  24  41  64  94 130 171 224 270 323 400
#     4  11  19  43  68  88 123 182 228 253 320 419
#     4   9  17  36  69  89 121 179 221 264 325 413
#     4  10  20  36  63  99 128 160 221 282 340 373
#     4  12  23  44  68  92 127 178 221 258 328 412
#
# _framework density 21.467972
#
# number of rings (size 3 to 8) (size 9 to 14) (size 15 to 20)
#    0.000    1.000    6.667    2.000    0.000    0.667 
#    6.000    1.667    0.000    0.000    0.000    0.000 
#    0.000    0.000    0.000    0.000    0.000    0.000 
#
# Total GULP energy -133812.146947 kJ/mol
# GULP energy per Si atom -5575.506123 kJ/mol
# Density = 2.141911 g / cm^3
# Si number density = 21.467972 Si / 1000 Ang^3
#
#
#
# Elastic Constant Matrix: (Units=GPa)
#
#
# Indices 1 2 3 4 5 6 
#
# 1 55.9641 10.7566 11.5186 0.0000 18.7938 0.0000
# 2 10.7566 156.7074 16.2554 0.0000 10.3887 0.0000
# 3 11.5186 16.2554 64.3777 0.0000 18.2408 0.0000
# 4 0.0000 0.0000 0.0000 28.9163 0.0000 12.1851
# 5 18.7938 10.3887 18.2408 0.0000 27.0614 0.0000
# 6 0.0000 0.0000 0.0000 12.1851 0.0000 18.5814
#
#
#
# Elastic Compliance Matrix: (Units=1/GPa)
#
#
# Indices 1 2 3 4 5 6 
#
# 1 0.023368 -0.000579 0.000619 0.000000 -0.016423 0.000000
# 2 -0.000579 0.006634 -0.001191 0.000000 -0.001341 0.000000
# 3 0.000619 -0.001191 0.019426 0.000000 -0.013066 0.000000
# 4 0.000000 0.000000 0.000000 0.047788 0.000000 -0.031338
# 5 -0.016423 -0.001341 -0.013066 0.000000 0.057681 0.000000
# 6 0.000000 0.000000 0.000000 -0.031338 0.000000 0.074368
#
#
# Mechanical properties :
#
#
# Convention : Reuss Voigt Hill
#
# Bulk Modulus (GPa) = 21.22101 39.34559 30.28330
# Shear Modulus (GPa) = 20.22029 30.81305 25.51667
#
# Velocity S-wave (km/s) = 3.07234 3.79265 3.45134
# Velocity P-wave (km/s) = 4.74258 6.12750 5.47898
#
# Compressibility (1/GPa) = 0.04712312
#
# Stress axis : x y z
#
# Youngs Moduli (GPa) = 42.79374 150.74821 51.47827
#
# Poissons Ratio (x) = 0.08734 -0.03185
# Poissons Ratio (y) = 0.02480 0.06133
# Poissons Ratio (z) = -0.02648 0.17959
#
# Static dielectric constant tensor:
#      x y z
#    x 1.828420 0.000000 0.017620 
#    y 0.000000 1.798380 0.000000 
#    z 0.017620 0.000000 1.837510 
# 
# From -- ./inp_files/194190.got.cif
#   From: 2010.05.17/outbox.cif.g08.bks.cpg/sg15_98_cif.got.tgz:194190.got - 2010.06.03 18:47:42.
