data_PCOD9272052
_publ_section_title
;
Structure prediction by ZEFSAII (Michael W. Deem and Ramdas Pophale) SiO2 
 PCOD9272052
Probable space group: C 2/C
;
_chemical_formula_sum "Si O2"
_cell_formula_units_Z 48
_cell_length_a 26.184521
_cell_length_b 7.001808
_cell_length_c 19.910836
_cell_angle_alpha 90.000000
_cell_angle_beta 138.510684
_cell_angle_gamma 90.000000
_cell_volume 2418.339926
_symmetry_space_group_name_H-M "C 2/C"
_symmetry_group_IT_number 15
_symmetry_cell_setting 'monoclinic'
loop_
_space_group_symop_operation_xyz
x,y,z
-x,y,1/2-z
-x,-y,-z
x,-y,1/2+z
1/2+x,1/2+y,z
1/2-x,1/2+y,1/2-z
1/2-x,1/2-y,-z
1/2+x,1/2-y,1/2+z
loop_
_atom_site_type_symbol
_atom_site_label
_atom_site_fract_x
_atom_site_fract_y
_atom_site_fract_z
Si Si1 0.685232 0.977106 0.749428
Si Si2 0.189719 0.712169 0.120951
Si Si3 0.381338 0.707103 0.623124
Si Si4 0.581425 0.690741 0.392295
Si Si5 0.751500 0.365841 0.403709
Si Si6 0.920821 0.584168 0.735100
O O1 0.752027 0.125755 0.796963
O O2 0.624993 0.074666 0.740678
O O3 0.651781 0.888091 0.648230
O O4 0.724688 0.809444 0.831330
O O5 0.239244 0.554584 0.130234
O O6 0.131239 0.794268 0.008366
O O7 0.427426 0.530530 0.636957
O O8 0.313374 0.619250 0.602793
O O9 0.333745 0.815493 0.518025
O O10 0.424414 0.866921 0.710221
O O11 0.619403 0.796890 0.364994
O O12 0.502002 0.807670 0.324081
#
# Coordination Sequence:
#
# PCOD9272052 Si02
#       6
#     8   8   8   8   8   8
#     4  11  23  39  62  93 129 168 209 261 314 372
#     4  12  22  38  65  91 126 162 218 256 314 367
#     4  10  20  38  64  91 124 156 212 261 321 365
#     4  11  23  39  64  94 123 167 211 260 312 381
#     4  10  20  36  63  94 118 160 205 271 314 370
#     4  10  24  41  59  93 132 168 205 258 314 376
#
# _framework density 19.848326
#
# number of rings (size 3 to 8) (size 9 to 14) (size 15 to 20)
#    0.000    1.333    5.000    1.000    0.000    4.667 
#    0.000    0.000    0.000    2.000    0.000    0.000 
#    0.000    0.000    0.000    0.000    0.000    0.000 
#
# Total GULP energy -133980.239545 kJ/mol
# GULP energy per Si atom -5582.509981 kJ/mol
# Density = 1.980315 g / cm^3
# Si number density = 19.848326 Si / 1000 Ang^3
#
#
#
# Elastic Constant Matrix: (Units=GPa)
#
#
# Indices 1 2 3 4 5 6 
#
# 1 71.4566 22.6960 47.3764 0.0000 -12.6926 0.0000
# 2 22.6960 105.7242 40.2053 0.0000 5.5144 0.0000
# 3 47.3764 40.2053 56.3139 0.0000 -10.2240 0.0000
# 4 0.0000 0.0000 0.0000 19.6802 0.0000 -4.5068
# 5 -12.6926 5.5144 -10.2240 0.0000 31.4202 0.0000
# 6 0.0000 0.0000 0.0000 -4.5068 0.0000 26.4157
#
#
#
# Elastic Compliance Matrix: (Units=1/GPa)
#
#
# Indices 1 2 3 4 5 6 
#
# 1 0.033547 0.004391 -0.030861 0.000000 0.002739 0.000000
# 2 0.004391 0.014568 -0.015131 0.000000 -0.005706 0.000000
# 3 -0.030861 -0.015131 0.056054 0.000000 0.008429 0.000000
# 4 0.000000 0.000000 0.000000 0.052879 0.000000 0.009022
# 5 0.002739 -0.005706 0.008429 0.000000 0.036677 0.000000
# 6 0.000000 0.000000 0.000000 0.009022 0.000000 0.039396
#
#
# Mechanical properties :
#
#
# Convention : Reuss Voigt Hill
#
# Bulk Modulus (GPa) = 47.69297 50.45000 49.07148
# Shear Modulus (GPa) = 15.46499 23.71766 19.59133
#
# Velocity S-wave (km/s) = 2.79437 3.46055 3.14515
# Velocity P-wave (km/s) = 5.87301 6.43740 6.16167
#
# Compressibility (1/GPa) = 0.02096745
#
# Stress axis : x y z
#
# Youngs Moduli (GPa) = 29.80852 68.64557 17.84000
#
# Poissons Ratio (x) = -0.30145 0.55056
# Poissons Ratio (y) = -0.13090 0.26994
# Poissons Ratio (z) = 0.91993 1.03868
#
# Static dielectric constant tensor:
#      x y z
#    x 1.721540 0.000000 0.006700 
#    y 0.000000 1.713310 0.000000 
#    z 0.006700 0.000000 1.695840 
# 
# From -- ./inp_files/258565.got.cif
#   From: 2010.05.17/outbox.cif.g08.bks.cpg/sg15_130_cif.got.tgz:258565.got - 2010.06.03 18:47:42.
