data_PCOD9272487
_publ_section_title
;
Structure prediction by ZEFSAII (Michael W. Deem and Ramdas Pophale) SiO2 
 PCOD9272487
Probable space group: C 2/C
;
_chemical_formula_sum "Si O2"
_cell_formula_units_Z 32
_cell_length_a 11.248223
_cell_length_b 22.632640
_cell_length_c 4.927778
_cell_angle_alpha 90.000000
_cell_angle_beta 97.558979
_cell_angle_gamma 90.000000
_cell_volume 1243.597224
_symmetry_space_group_name_H-M "C 2/C"
_symmetry_group_IT_number 15
_symmetry_cell_setting 'monoclinic'
loop_
_space_group_symop_operation_xyz
x,y,z
-x,y,1/2-z
-x,-y,-z
x,-y,1/2+z
1/2+x,1/2+y,z
1/2-x,1/2+y,1/2-z
1/2-x,1/2-y,-z
1/2+x,1/2-y,1/2+z
loop_
_atom_site_type_symbol
_atom_site_label
_atom_site_fract_x
_atom_site_fract_y
_atom_site_fract_z
Si Si1 0.000000 0.456602 0.250000
Si Si2 0.770188 0.043503 0.784071
Si Si3 0.500000 0.755394 0.750000
Si Si4 0.681936 0.344122 0.505378
Si Si5 0.187214 0.312892 0.448019
O O1 0.000000 0.500000 0.500000
O O2 0.867429 0.429329 0.230978
O O3 0.847751 0.095481 0.666276
O O4 0.784362 0.010863 0.075317
O O5 0.415407 0.707561 0.564254
O O6 0.771916 0.852794 0.673979
O O7 0.562578 0.200639 0.053774
O O8 0.796233 0.322492 0.365094
O O9 0.250000 0.250000 0.500000
#
# Coordination Sequence:
#
# PCOD9272487 Si02
#       5
#     4   8   4   8   8
#     4   8  16  30  51  72 102 144 183 232 284 314
#     4  10  20  37  57  84 118 151 194 242 282 344
#     4  10  22  40  61  86 122 156 193 248 300 356
#     4  11  23  39  61  89 119 159 197 241 300 351
#     4  10  22  38  58  86 116 151 198 244 291 351
#
# _framework density 25.731805999999999
#
# number of rings (size 3 to 8) (size 9 to 14) (size 15 to 20)
#    0.000    2.000    0.000    4.500    0.000   11.000 
#    0.000    3.750    0.000    0.000    0.000    0.000 
#    0.000    0.000    0.000    0.000    0.000    0.000 
#
# Total GULP energy -89125.203107 kJ/mol
# GULP energy per Si atom -5570.325194 kJ/mol
# Density = 2.567324 g / cm^3
# Si number density = 25.731806 Si / 1000 Ang^3
#
#
#
# Elastic Constant Matrix: (Units=GPa)
#
#
# Indices 1 2 3 4 5 6 
#
# 1 57.9331 -14.5920 5.5932 0.0000 11.8796 0.0000
# 2 -14.5920 47.3855 -28.0111 0.0000 2.5892 0.0000
# 3 5.5932 -28.0111 121.7297 0.0000 21.9446 0.0000
# 4 0.0000 0.0000 0.0000 38.6687 0.0000 -13.5751
# 5 11.8796 2.5892 21.9446 0.0000 28.1203 0.0000
# 6 0.0000 0.0000 0.0000 -13.5751 0.0000 37.8057
#
#
#
# Elastic Compliance Matrix: (Units=1/GPa)
#
#
# Indices 1 2 3 4 5 6 
#
# 1 0.021973 0.009549 0.003514 0.000000 -0.012904 0.000000
# 2 0.009549 0.030107 0.008979 0.000000 -0.013813 0.000000
# 3 0.003514 0.008979 0.012261 0.000000 -0.011880 0.000000
# 4 0.000000 0.000000 0.000000 0.029591 0.000000 0.010625
# 5 -0.012904 -0.013813 -0.011880 0.000000 0.051556 0.000000
# 6 0.000000 0.000000 0.000000 0.010625 0.000000 0.030266
#
#
# Mechanical properties :
#
#
# Convention : Reuss Voigt Hill
#
# Bulk Modulus (GPa) = 9.22295 17.00315 13.11305
# Shear Modulus (GPa) = 29.79527 38.52281 34.15904
#
# Velocity S-wave (km/s) = 3.40651 3.87342 3.64744
# Velocity P-wave (km/s) = 4.36628 5.16011 4.77970
#
# Compressibility (1/GPa) = 0.10842520
#
# Stress axis : x y z
#
# Youngs Moduli (GPa) = 45.50982 33.21522 81.55752
#
# Poissons Ratio (x) = -0.31717 -0.28659
# Poissons Ratio (y) = -0.43456 -0.73233
# Poissons Ratio (z) = -0.15992 -0.29825
#
# Static dielectric constant tensor:
#      x y z
#    x 2.174880 0.000000 -0.005570 
#    y 0.000000 2.337260 0.000000 
#    z -0.005570 0.000000 2.043580 
# 
# From -- ./inp_files/6810.got.cif
#   From: 2010.05.17/outbox.cif.g08.bks.cpg/sg15_4_cif.got.tgz:6810.got - 2010.06.03 18:47:42.
