data_PCOD9272695
_publ_section_title
;
Structure prediction by ZEFSAII (Michael W. Deem and Ramdas Pophale) SiO2 
 PCOD9272695
Probable space group: C 2/C
;
_chemical_formula_sum "Si O2"
_cell_formula_units_Z 32
_cell_length_a 8.302393
_cell_length_b 16.273392
_cell_length_c 13.623686
_cell_angle_alpha 90.000000
_cell_angle_beta 132.062249
_cell_angle_gamma 90.000000
_cell_volume 1366.545657
_symmetry_space_group_name_H-M "C 2/C"
_symmetry_group_IT_number 15
_symmetry_cell_setting 'monoclinic'
loop_
_space_group_symop_operation_xyz
x,y,z
-x,y,1/2-z
-x,-y,-z
x,-y,1/2+z
1/2+x,1/2+y,z
1/2-x,1/2+y,1/2-z
1/2-x,1/2-y,-z
1/2+x,1/2-y,1/2+z
loop_
_atom_site_type_symbol
_atom_site_label
_atom_site_fract_x
_atom_site_fract_y
_atom_site_fract_z
Si Si1 0.435668 0.515590 0.361742
Si Si2 0.437388 0.674299 0.855783
Si Si3 0.368755 0.771409 0.414067
Si Si4 0.345270 0.074517 0.408097
O O1 0.500000 0.500000 0.500000
O O2 0.404937 0.420519 0.315517
O O3 0.634666 0.558610 0.388183
O O4 0.225763 0.564239 0.235103
O O5 0.218977 0.721090 0.732399
O O6 0.645946 0.709783 0.882647
O O7 0.512173 0.689925 0.998477
O O8 0.533529 0.842771 0.513321
O O9 0.500000 0.000000 0.500000
#
# Coordination Sequence:
#
# PCOD9272695 Si02
#       4
#     8   8   8   8
#     4  11  24  39  63  93 122 159 214 250 303 379
#     4  10  20  37  59  93 123 156 205 255 302 373
#     4  10  20  37  62  88 124 161 200 255 314 357
#     4  11  20  42  64  85 126 164 198 263 310 354
#
# _framework density 23.416706999999999
#
# number of rings (size 3 to 8) (size 9 to 14) (size 15 to 20)
#    0.000    1.500    5.000    1.500    3.500    1.000 
#    0.000    1.250    0.000    0.000    0.000    0.000 
#    0.000    0.000    0.000    0.000    0.000    0.000 
#
# Total GULP energy -89267.935600 kJ/mol
# GULP energy per Si atom -5579.245975 kJ/mol
# Density = 2.336341 g / cm^3
# Si number density = 23.416707 Si / 1000 Ang^3
#
#
#
# Elastic Constant Matrix: (Units=GPa)
#
#
# Indices 1 2 3 4 5 6 
#
# 1 24.0288 2.1353 42.8615 0.0000 -0.2486 0.0000
# 2 2.1353 79.4135 27.4285 -0.0001 17.7349 0.0000
# 3 42.8615 27.4285 215.5464 -0.0001 4.6406 -0.0001
# 4 0.0000 -0.0001 -0.0001 37.6128 -0.0001 -6.5100
# 5 -0.2486 17.7349 4.6406 -0.0001 34.1577 0.0000
# 6 0.0000 0.0000 -0.0001 -6.5100 0.0000 3.7891
#
#
#
# Elastic Compliance Matrix: (Units=1/GPa)
#
#
# Indices 1 2 3 4 5 6 
#
# 1 0.065126 0.002641 -0.013306 0.000000 0.000910 0.000000
# 2 0.002641 0.014968 -0.002270 0.000000 -0.007444 0.000000
# 3 -0.013306 -0.002270 0.007573 0.000000 0.000053 0.000000
# 4 0.000000 0.000000 0.000000 0.037839 0.000000 0.065010
# 5 0.000910 -0.007444 0.000053 0.000000 0.033140 0.000001
# 6 0.000000 0.000000 0.000000 0.065010 0.000001 0.375608
#
#
# Mechanical properties :
#
#
# Convention : Reuss Voigt Hill
#
# Bulk Modulus (GPa) = 16.18174 51.53770 33.85972
# Shear Modulus (GPa) = 8.60997 31.54948 20.07972
#
# Velocity S-wave (km/s) = 1.91959 3.67455 2.93148
# Velocity P-wave (km/s) = 3.44070 6.32928 5.09403
#
# Compressibility (1/GPa) = 0.06179807
#
# Stress axis : x y z
#
# Youngs Moduli (GPa) = 15.35479 66.81114 132.04859
#
# Poissons Ratio (x) = -0.17647 1.75705
# Poissons Ratio (y) = -0.04056 0.29970
# Poissons Ratio (z) = 0.20431 0.15164
#
# Static dielectric constant tensor:
#      x y z
#    x 1.936630 0.000000 -0.094450 
#    y 0.000000 1.809430 0.000000 
#    z -0.094450 0.000000 2.054290 
# 
# From -- ./inp_files/28525.got.cif
#   From: 2010.05.17/outbox.cif.g08.bks.cpg/sg15_15_cif.got.tgz:28525.got - 2010.06.03 18:47:42.
