data_PCOD9272445
_publ_section_title
;
Structure prediction by ZEFSAII (Michael W. Deem and Ramdas Pophale) SiO2 
 PCOD9272445
Probable space group: C 2/C
;
_chemical_formula_sum "Si O2"
_cell_formula_units_Z 32
_cell_length_a 19.934150
_cell_length_b 6.747150
_cell_length_c 12.042391
_cell_angle_alpha 90.000000
_cell_angle_beta 43.096633
_cell_angle_gamma 90.000000
_cell_volume 1106.619422
_symmetry_space_group_name_H-M "C 2/C"
_symmetry_group_IT_number 15
_symmetry_cell_setting 'monoclinic'
loop_
_space_group_symop_operation_xyz
x,y,z
-x,y,1/2-z
-x,-y,-z
x,-y,1/2+z
1/2+x,1/2+y,z
1/2-x,1/2+y,1/2-z
1/2-x,1/2-y,-z
1/2+x,1/2-y,1/2+z
loop_
_atom_site_type_symbol
_atom_site_label
_atom_site_fract_x
_atom_site_fract_y
_atom_site_fract_z
Si Si1 0.898142 0.734878 0.129311
Si Si2 0.926587 0.254122 0.252453
Si Si3 0.859283 0.311399 0.906606
Si Si4 0.694768 0.194994 0.783011
O O1 0.919000 0.787574 0.232524
O O2 0.809565 0.839330 0.169995
O O3 0.848706 0.518754 0.194578
O O4 0.997108 0.725525 0.941880
O O5 0.892183 0.456068 0.359061
O O6 0.830573 0.183442 0.298758
O O7 0.000000 0.148918 0.250000
O O8 0.750000 0.250000 0.000000
O O9 0.857002 0.252259 0.037960
#
# Coordination Sequence:
#
# PCOD9272445 Si02
#       4
#     8   8   8   8
#     4  10  21  35  58  88 113 153 195 240 292 345
#     4  11  21  34  58  85 115 155 196 230 294 348
#     4   9  18  33  55  82 112 143 195 236 281 339
#     4  10  20  37  56  85 116 149 196 244 285 344
#
# _framework density 28.916896999999999
#
# number of rings (size 3 to 8) (size 9 to 14) (size 15 to 20)
#    0.000    2.000    2.500    3.000    0.000    1.000 
#    0.000    1.250    0.000    0.000    0.000    0.000 
#    0.000    0.000    0.000    0.000    0.000    0.000 
#
# Total GULP energy -89304.038813 kJ/mol
# GULP energy per Si atom -5581.502426 kJ/mol
# Density = 2.885108 g / cm^3
# Si number density = 28.916897 Si / 1000 Ang^3
#
#
#
# Elastic Constant Matrix: (Units=GPa)
#
#
# Indices 1 2 3 4 5 6 
#
# 1 243.2078 56.7299 40.3898 0.0000 18.9554 0.0001
# 2 56.7299 78.0721 29.6221 -0.0026 10.9000 -0.0027
# 3 40.3898 29.6221 171.9176 0.0022 -8.3444 -0.0005
# 4 0.0000 -0.0026 0.0022 24.3059 -0.0005 4.7594
# 5 18.9554 10.9000 -8.3444 -0.0005 60.2554 0.0009
# 6 0.0001 -0.0027 -0.0005 4.7594 0.0009 38.0633
#
#
#
# Elastic Compliance Matrix: (Units=1/GPa)
#
#
# Indices 1 2 3 4 5 6 
#
# 1 0.005074 -0.003276 -0.000681 0.000000 -0.001098 0.000000
# 2 -0.003276 0.016314 -0.002149 0.000002 -0.002218 0.000001
# 3 -0.000681 -0.002149 0.006419 -0.000001 0.001492 0.000000
# 4 0.000000 0.000002 -0.000001 0.042175 0.000000 -0.005274
# 5 -0.001098 -0.002218 0.001492 0.000000 0.017549 -0.000001
# 6 0.000000 0.000001 0.000000 -0.005274 -0.000001 0.026931
#
#
# Mechanical properties :
#
#
# Convention : Reuss Voigt Hill
#
# Bulk Modulus (GPa) = 64.11733 82.96457 73.54095
# Shear Modulus (GPa) = 37.91507 48.95530 43.43518
#
# Velocity S-wave (km/s) = 3.62494 4.11903 3.87986
# Velocity P-wave (km/s) = 6.30408 7.16762 6.74967
#
# Compressibility (1/GPa) = 0.01559641
#
# Stress axis : x y z
#
# Youngs Moduli (GPa) = 197.06585 61.29742 155.77624
#
# Poissons Ratio (x) = 0.20078 0.10610
# Poissons Ratio (y) = 0.64550 0.33478
# Poissons Ratio (z) = 0.13422 0.13173
#
# Static dielectric constant tensor:
#      x y z
#    x 2.559400 0.000000 -0.001710 
#    y 0.000000 2.469490 0.000000 
#    z -0.001710 0.000000 2.166300 
# 
# From -- ./inp_files/103133.got.cif
#   From: 2010.05.17/outbox.cif.g08.bks.cpg/sg15_52_cif.got.tgz:103133.got - 2010.06.03 18:47:42.
