data_PCOD9272708
_publ_section_title
;
Structure prediction by ZEFSAII (Michael W. Deem and Ramdas Pophale) SiO2 
 PCOD9272708
Probable space group: C 2/C
;
_chemical_formula_sum "Si O2"
_cell_formula_units_Z 48
_cell_length_a 24.916860
_cell_length_b 8.879048
_cell_length_c 16.336497
_cell_angle_alpha 90.000000
_cell_angle_beta 33.778348
_cell_angle_gamma 90.000000
_cell_volume 2009.458454
_symmetry_space_group_name_H-M "C 2/C"
_symmetry_group_IT_number 15
_symmetry_cell_setting 'monoclinic'
loop_
_space_group_symop_operation_xyz
x,y,z
-x,y,1/2-z
-x,-y,-z
x,-y,1/2+z
1/2+x,1/2+y,z
1/2-x,1/2+y,1/2-z
1/2-x,1/2-y,-z
1/2+x,1/2-y,1/2+z
loop_
_atom_site_type_symbol
_atom_site_label
_atom_site_fract_x
_atom_site_fract_y
_atom_site_fract_z
Si Si1 0.325444 0.661708 0.569859
Si Si2 0.464158 0.322081 0.605952
Si Si3 0.235421 0.822460 0.825329
Si Si4 0.592096 0.340882 0.301931
Si Si5 0.387627 0.173901 0.386559
Si Si6 0.606291 0.847665 0.159330
O O1 0.432410 0.657858 0.477072
O O2 0.257178 0.779138 0.704548
O O3 0.282751 0.496882 0.636732
O O4 0.337964 0.719146 0.461732
O O5 0.492911 0.294005 0.475091
O O6 0.408432 0.480285 0.683652
O O7 0.410077 0.194142 0.725529
O O8 0.329295 0.758571 0.751769
O O9 0.153097 0.730132 0.976593
O O10 0.614978 0.302077 0.179309
O O11 0.500000 0.145778 0.250000
O O12 0.346369 0.011826 0.412185
O O13 0.500000 0.846765 0.250000
#
# Coordination Sequence:
#
# PCOD9272708 Si02
#       6
#     8   8   8   8   8   8
#     4  10  20  37  60  83 112 154 191 228 281 338
#     4   9  19  38  60  81 113 154 190 227 281 342
#     4  11  22  37  58  85 117 148 190 236 279 335
#     4  10  21  37  57  85 115 149 191 236 281 332
#     4  11  22  37  58  84 114 150 191 236 286 336
#     4   9  19  36  58  82 109 146 192 231 272 335
#
# _framework density 23.887032000000001
#
# number of rings (size 3 to 8) (size 9 to 14) (size 15 to 20)
#    0.000    2.000    0.000    3.500    0.000    3.333 
#    0.000    8.333    0.000    0.000    0.000    0.000 
#    0.000    0.000    0.000    0.000    0.000    0.000 
#
# Total GULP energy -134124.589386 kJ/mol
# GULP energy per Si atom -5588.524558 kJ/mol
# Density = 2.383266 g / cm^3
# Si number density = 23.887032 Si / 1000 Ang^3
#
#
#
# Elastic Constant Matrix: (Units=GPa)
#
#
# Indices 1 2 3 4 5 6 
#
# 1 40.5961 21.7111 9.3773 0.0006 8.4412 -0.0006
# 2 21.7111 108.3854 56.6244 -0.0038 -16.2579 0.0032
# 3 9.3773 56.6244 97.6471 -0.0014 6.1227 0.0014
# 4 0.0006 -0.0038 -0.0014 45.6754 0.0002 2.4992
# 5 8.4412 -16.2579 6.1227 0.0002 16.7433 -0.0002
# 6 -0.0006 0.0032 0.0014 2.4992 -0.0002 22.2548
#
#
#
# Elastic Compliance Matrix: (Units=1/GPa)
#
#
# Indices 1 2 3 4 5 6 
#
# 1 0.043413 -0.021706 0.011373 -0.000002 -0.047122 0.000003
# 2 -0.021706 0.030246 -0.018404 0.000002 0.047043 -0.000004
# 3 0.011373 -0.018404 0.021801 -0.000001 -0.031577 0.000001
# 4 -0.000002 0.000002 -0.000001 0.022029 0.000003 -0.002474
# 5 -0.047122 0.047043 -0.031577 0.000003 0.140708 -0.000005
# 6 0.000003 -0.000004 0.000001 -0.002474 -0.000005 0.045212
#
#
# Mechanical properties :
#
#
# Convention : Reuss Voigt Hill
#
# Bulk Modulus (GPa) = 26.32662 46.89491 36.61076
# Shear Modulus (GPa) = 13.38522 27.52907 20.45715
#
# Velocity S-wave (km/s) = 2.36975 3.39849 2.92963
# Velocity P-wave (km/s) = 4.30498 5.92235 5.17721
#
# Compressibility (1/GPa) = 0.03798437
#
# Stress axis : x y z
#
# Youngs Moduli (GPa) = 23.03469 33.06230 45.86895
#
# Poissons Ratio (x) = 0.71766 -0.52166
# Poissons Ratio (y) = 0.49999 0.84419
# Poissons Ratio (z) = -0.26197 0.60849
#
# Static dielectric constant tensor:
#      x y z
#    x 1.990670 0.000000 -0.087410 
#    y 0.000000 1.872200 0.000000 
#    z -0.087410 0.000000 1.872710 
# 
# From -- ./inp_files/224532.got.cif
#   From: 2010.05.17/outbox.cif.g08.bks.cpg/sg15_113_cif.got.tgz:224532.got - 2010.06.03 18:47:42.
