data_PCOD9272785
_publ_section_title
;
Structure prediction by ZEFSAII (Michael W. Deem and Ramdas Pophale) SiO2 
 PCOD9272785
Probable space group: C 2/C
;
_chemical_formula_sum "Si O2"
_cell_formula_units_Z 56
_cell_length_a 8.435853
_cell_length_b 24.886104
_cell_length_c 14.281488
_cell_angle_alpha 90.000000
_cell_angle_beta 117.881686
_cell_angle_gamma 90.000000
_cell_volume 2650.146936
_symmetry_space_group_name_H-M "C 2/C"
_symmetry_group_IT_number 15
_symmetry_cell_setting 'monoclinic'
loop_
_space_group_symop_operation_xyz
x,y,z
-x,y,1/2-z
-x,-y,-z
x,-y,1/2+z
1/2+x,1/2+y,z
1/2-x,1/2+y,1/2-z
1/2-x,1/2-y,-z
1/2+x,1/2-y,1/2+z
loop_
_atom_site_type_symbol
_atom_site_label
_atom_site_fract_x
_atom_site_fract_y
_atom_site_fract_z
Si Si1 0.460800 0.050659 0.421696
Si Si2 0.329035 0.857938 0.018918
Si Si3 0.840887 0.111925 0.839699
Si Si4 0.334276 0.584840 0.439314
Si Si5 0.346105 0.493578 0.782859
Si Si6 0.628918 0.203484 0.693727
Si Si7 0.045575 0.178000 0.154595
O O1 0.356043 0.096384 0.450021
O O2 0.645217 0.073260 0.433017
O O3 0.336939 0.032202 0.302664
O O4 0.500000 0.000000 0.500000
O O5 0.151784 0.822452 0.949146
O O6 0.294083 0.886170 0.109222
O O7 0.508877 0.823640 0.080120
O O8 0.794831 0.165143 0.767230
O O9 0.815910 0.057375 0.776299
O O10 0.032824 0.104694 0.942084
O O11 0.393663 0.531998 0.396594
O O12 0.342800 0.631380 0.363873
O O13 0.500000 0.481289 0.750000
O O14 0.500000 0.205009 0.750000
O O15 0.651312 0.265905 0.676496
O O16 0.000000 0.166660 0.250000
#
# Coordination Sequence:
#
# PCOD9272785 Si02
#       7
#     8   8   8   8   8   8   8
#     4  12  24  38  60  92 128 166 206 255 313 374
#     4  10  20  37  60  88 120 159 207 254 303 367
#     4  10  21  39  62  90 122 157 206 258 309 371
#     4  11  23  39  60  93 126 162 204 256 314 373
#     4  12  23  39  62  89 123 165 205 252 310 377
#     4   9  19  36  63  91 115 157 208 256 306 364
#     4  10  20  38  63  89 120 160 208 255 304 368
#
# _framework density 21.130903
#
# number of rings (size 3 to 8) (size 9 to 14) (size 15 to 20)
#    0.000    1.429    0.000    6.857    0.000    3.429 
#    0.000    0.714    0.000   13.714    0.000    0.000 
#    0.000    0.000    0.000    0.000    0.000    0.000 
#
# Total GULP energy -156475.899562 kJ/mol
# GULP energy per Si atom -5588.424984 kJ/mol
# Density = 2.108281 g / cm^3
# Si number density = 21.130903 Si / 1000 Ang^3
#
#
#
# Elastic Constant Matrix: (Units=GPa)
#
#
# Indices 1 2 3 4 5 6 
#
# 1 92.6560 44.2167 27.0998 0.0000 10.4862 0.0000
# 2 44.2167 137.9065 49.7583 0.0000 3.6016 0.0000
# 3 27.0998 49.7583 90.7919 0.0000 10.3050 0.0000
# 4 0.0000 0.0000 0.0000 27.5837 0.0000 4.7051
# 5 10.4862 3.6016 10.3050 0.0000 6.9550 0.0000
# 6 0.0000 0.0000 0.0000 4.7051 0.0000 23.9767
#
#
#
# Elastic Compliance Matrix: (Units=1/GPa)
#
#
# Indices 1 2 3 4 5 6 
#
# 1 0.015205 -0.004425 0.000275 0.000000 -0.021041 0.000000
# 2 -0.004425 0.010386 -0.005431 0.000000 0.009341 0.000000
# 3 0.000275 -0.005431 0.016394 0.000000 -0.021891 0.000000
# 4 0.000000 0.000000 0.000000 0.037509 0.000000 -0.007361
# 5 -0.021041 0.009341 -0.021891 0.000000 0.203104 0.000000
# 6 0.000000 0.000000 0.000000 -0.007361 0.000000 0.043152
#
#
# Mechanical properties :
#
#
# Convention : Reuss Voigt Hill
#
# Bulk Modulus (GPa) = 43.81827 62.61155 53.21491
# Shear Modulus (GPa) = 14.18365 25.05505 19.61935
#
# Velocity S-wave (km/s) = 2.59362 3.44714 3.05038
# Velocity P-wave (km/s) = 5.45442 6.74821 6.13552
#
# Compressibility (1/GPa) = 0.02282153
#
# Stress axis : x y z
#
# Youngs Moduli (GPa) = 65.76755 96.28582 60.99954
#
# Poissons Ratio (x) = 0.42604 -0.01676
# Poissons Ratio (y) = 0.29101 0.33131
# Poissons Ratio (z) = -0.01807 0.52296
#
# Static dielectric constant tensor:
#      x y z
#    x 1.733840 0.000000 0.018800 
#    y 0.000000 1.767890 0.000000 
#    z 0.018800 0.000000 1.801810 
# 
# From -- ./inp_files/137925.got.cif
#   From: 2010.05.17/outbox.cif.g08.bks.cpg/sg15_69_cif.got.tgz:137925.got - 2010.06.03 18:47:42.
