data_PCOD9272938
_publ_section_title
;
Structure prediction by ZEFSAII (Michael W. Deem and Ramdas Pophale) SiO2 
 PCOD9272938
Probable space group: C 2/C
;
_chemical_formula_sum "Si O2"
_cell_formula_units_Z 40
_cell_length_a 23.362497
_cell_length_b 7.406066
_cell_length_c 21.318209
_cell_angle_alpha 90.000000
_cell_angle_beta 154.513157
_cell_angle_gamma 90.000000
_cell_volume 1587.204024
_symmetry_space_group_name_H-M "C 2/C"
_symmetry_group_IT_number 15
_symmetry_cell_setting 'monoclinic'
loop_
_space_group_symop_operation_xyz
x,y,z
-x,y,1/2-z
-x,-y,-z
x,-y,1/2+z
1/2+x,1/2+y,z
1/2-x,1/2+y,1/2-z
1/2-x,1/2-y,-z
1/2+x,1/2-y,1/2+z
loop_
_atom_site_type_symbol
_atom_site_label
_atom_site_fract_x
_atom_site_fract_y
_atom_site_fract_z
Si Si1 0.262536 0.859768 0.099004
Si Si2 0.155234 0.914943 0.385467
Si Si3 0.498879 0.698152 0.092918
Si Si4 0.245242 0.237378 0.852103
Si Si5 0.001990 0.215663 0.960914
O O1 0.212449 0.914596 0.979536
O O2 0.101839 0.740697 0.748699
O O3 0.270311 0.062028 0.135839
O O4 0.143596 0.761251 0.018034
O O5 0.250000 0.750000 0.500000
O O6 0.176538 0.899668 0.332408
O O7 0.000000 0.891392 0.250000
O O8 0.541283 0.784507 0.068697
O O9 0.482088 0.493623 0.047049
O O10 0.154995 0.242823 0.701197
O O11 0.397311 0.189857 0.988230
#
# Coordination Sequence:
#
# PCOD9272938 Si02
#       5
#     8   8   8   8   8
#     4  10  22  38  60  89 127 167 210 264 320 386
#     4  10  20  39  64  90 124 166 220 271 313 381
#     4  10  21  39  59  92 132 165 208 267 336 390
#     4  10  20  37  61  91 119 161 214 262 319 382
#     4  10  21  37  63  92 126 165 211 272 326 392
#
# _framework density 25.201550000000001
#
# number of rings (size 3 to 8) (size 9 to 14) (size 15 to 20)
#    0.000    2.000    0.000    4.800    0.000    2.400 
#    0.000    8.000    0.000    8.400    0.000   12.600 
#    0.000    0.000    0.000    0.000    0.000    0.000 
#
# Total GULP energy -111505.544314 kJ/mol
# GULP energy per Si atom -5575.277216 kJ/mol
# Density = 2.514419 g / cm^3
# Si number density = 25.201550 Si / 1000 Ang^3
#
#
#
# Elastic Constant Matrix: (Units=GPa)
#
#
# Indices 1 2 3 4 5 6 
#
# 1 108.5842 21.7606 40.3012 0.0000 8.3645 0.0000
# 2 21.7606 80.4138 4.1538 0.0000 10.4274 0.0000
# 3 40.3012 4.1538 119.6382 0.0000 2.1790 0.0000
# 4 0.0000 0.0000 0.0000 33.0466 0.0000 -3.6706
# 5 8.3645 10.4274 2.1790 0.0000 48.0641 0.0000
# 6 0.0000 0.0000 0.0000 -3.6706 0.0000 6.6489
#
#
#
# Elastic Compliance Matrix: (Units=1/GPa)
#
#
# Indices 1 2 3 4 5 6 
#
# 1 0.011197 -0.002686 -0.003657 0.000000 -0.001200 0.000000
# 2 -0.002686 0.013458 0.000482 0.000000 -0.002474 0.000000
# 3 -0.003657 0.000482 0.009572 0.000000 0.000098 0.000000
# 4 0.000000 0.000000 0.000000 0.032237 0.000000 0.017797
# 5 -0.001200 -0.002474 0.000098 0.000000 0.021547 0.000000
# 6 0.000000 0.000000 0.000000 0.017797 0.000000 0.160226
#
#
# Mechanical properties :
#
#
# Convention : Reuss Voigt Hill
#
# Bulk Modulus (GPa) = 44.42934 49.00749 46.71841
# Shear Modulus (GPa) = 18.69442 33.71328 26.20385
#
# Velocity S-wave (km/s) = 2.72655 3.66149 3.22805
# Velocity P-wave (km/s) = 5.25166 6.11259 5.69841
#
# Compressibility (1/GPa) = 0.02250765
#
# Stress axis : x y z
#
# Youngs Moduli (GPa) = 89.30699 74.30342 104.47311
#
# Poissons Ratio (x) = 0.19955 0.38204
# Poissons Ratio (y) = 0.23984 -0.05040
# Poissons Ratio (z) = 0.32658 -0.03585
#
# Static dielectric constant tensor:
#      x y z
#    x 1.896530 0.000000 0.221490 
#    y 0.000000 2.060980 0.000000 
#    z 0.221490 0.000000 1.084090 
# 
# From -- ./inp_files/215361.got.cif
#   From: 2010.05.17/outbox.cif.g08.bks.cpg/sg15_108_cif.got.tgz:215361.got - 2010.06.03 18:47:42.
