data_PCOD9272058
_publ_section_title
;
Structure prediction by ZEFSAII (Michael W. Deem and Ramdas Pophale) SiO2 
 PCOD9272058
Probable space group: C 2/C
;
_chemical_formula_sum "Si O2"
_cell_formula_units_Z 56
_cell_length_a 10.389637
_cell_length_b 19.577548
_cell_length_c 13.533549
_cell_angle_alpha 90.000000
_cell_angle_beta 82.997765
_cell_angle_gamma 90.000000
_cell_volume 2732.240979
_symmetry_space_group_name_H-M "C 2/C"
_symmetry_group_IT_number 15
_symmetry_cell_setting 'monoclinic'
loop_
_space_group_symop_operation_xyz
x,y,z
-x,y,1/2-z
-x,-y,-z
x,-y,1/2+z
1/2+x,1/2+y,z
1/2-x,1/2+y,1/2-z
1/2-x,1/2-y,-z
1/2+x,1/2-y,1/2+z
loop_
_atom_site_type_symbol
_atom_site_label
_atom_site_fract_x
_atom_site_fract_y
_atom_site_fract_z
Si Si1 0.631594 0.009802 0.172800
Si Si2 0.361446 0.118639 0.718231
Si Si3 0.587806 0.644008 0.482831
Si Si4 0.287527 0.967439 0.048920
Si Si5 0.744313 0.157777 0.214273
Si Si6 0.105719 0.914401 0.651195
Si Si7 0.119206 0.208916 0.682722
O O1 0.500000 0.011417 0.250000
O O2 0.700925 0.080403 0.194995
O O3 0.695535 0.938820 0.201846
O O4 0.632635 0.009188 0.054271
O O5 0.500000 0.141730 0.750000
O O6 0.376007 0.076253 0.614958
O O7 0.254163 0.174549 0.703336
O O8 0.676685 0.583918 0.519552
O O9 0.658568 0.677431 0.382694
O O10 0.465096 0.607959 0.443098
O O11 0.584343 0.698601 0.571189
O O12 0.209119 0.026717 0.113983
O O13 0.817952 0.150261 0.310411
O O14 0.633800 0.213279 0.216210
O O15 0.000000 0.932594 0.750000
O O16 0.000000 0.174167 0.750000
#
# Coordination Sequence:
#
# PCOD9272058 Si02
#       7
#     8   8   8   8   8   8   8
#     4  10  21  38  62  87 124 163 216 260 321 377
#     4  10  23  41  60  92 129 169 211 261 325 383
#     4   9  21  37  61  93 124 169 209 257 323 382
#     4  10  20  37  62  93 125 166 209 269 324 372
#     4  10  20  41  62  89 124 167 215 260 314 382
#     4  10  20  36  63  94 127 165 213 262 320 385
#     4  11  24  41  65  93 128 169 213 265 322 377
#
# _framework density 20.495995000000001
#
# number of rings (size 3 to 8) (size 9 to 14) (size 15 to 20)
#    0.000    2.000    1.429    1.286    2.000    6.286 
#    0.000    0.714    0.000    0.000    0.000    0.000 
#    0.000    0.000    0.000    0.000    0.000    0.000 
#
# Total GULP energy -155964.554460 kJ/mol
# GULP energy per Si atom -5570.162659 kJ/mol
# Density = 2.044935 g / cm^3
# Si number density = 20.495995 Si / 1000 Ang^3
#
#
#
# Elastic Constant Matrix: (Units=GPa)
#
#
# Indices 1 2 3 4 5 6 
#
# 1 86.3500 20.7782 42.3295 0.0000 12.0913 0.0000
# 2 20.7782 47.8090 13.9565 0.0000 4.8869 0.0000
# 3 42.3295 13.9565 107.0584 0.0000 19.0890 0.0000
# 4 0.0000 0.0000 0.0000 14.9351 0.0000 0.3588
# 5 12.0913 4.8869 19.0890 0.0000 38.3141 0.0000
# 6 0.0000 0.0000 0.0000 0.3588 0.0000 13.7704
#
#
#
# Elastic Compliance Matrix: (Units=1/GPa)
#
#
# Indices 1 2 3 4 5 6 
#
# 1 0.015589 -0.005085 -0.005201 0.000000 -0.001680 0.000000
# 2 -0.005085 0.023481 -0.000881 0.000000 -0.000951 0.000000
# 3 -0.005201 -0.000881 0.012291 0.000000 -0.004370 0.000000
# 4 0.000000 0.000000 0.000000 0.066998 0.000000 -0.001746
# 5 -0.001680 -0.000951 -0.004370 0.000000 0.028929 0.000000
# 6 0.000000 0.000000 0.000000 -0.001746 0.000000 0.072665
#
#
# Mechanical properties :
#
#
# Convention : Reuss Voigt Hill
#
# Bulk Modulus (GPa) = 34.45093 43.92733 39.18913
# Shear Modulus (GPa) = 19.84410 24.34746 22.09578
#
# Velocity S-wave (km/s) = 3.11496 3.45035 3.28693
# Velocity P-wave (km/s) = 5.45732 6.11162 5.79372
#
# Compressibility (1/GPa) = 0.02902680
#
# Stress axis : x y z
#
# Youngs Moduli (GPa) = 64.14609 42.58762 81.35832
#
# Poissons Ratio (x) = 0.21657 0.42318
# Poissons Ratio (y) = 0.32620 0.07166
# Poissons Ratio (z) = 0.33365 0.03751
#
# Static dielectric constant tensor:
#      x y z
#    x 1.813800 0.000000 0.020980 
#    y 0.000000 1.770540 0.000000 
#    z 0.020980 0.000000 1.750810 
# 
# From -- ./inp_files/88891.got.cif
#   From: 2010.05.17/outbox.cif.g08.bks.cpg/sg15_45_cif.got.tgz:88891.got - 2010.06.03 18:47:42.
