data_PCOD9272753
_publ_section_title
;
Structure prediction by ZEFSAII (Michael W. Deem and Ramdas Pophale) SiO2 
 PCOD9272753
Probable space group: C 2/C
;
_chemical_formula_sum "Si O2"
_cell_formula_units_Z 64
_cell_length_a 34.462044
_cell_length_b 8.612064
_cell_length_c 15.969555
_cell_angle_alpha 90.000000
_cell_angle_beta 137.340102
_cell_angle_gamma 90.000000
_cell_volume 3211.762449
_symmetry_space_group_name_H-M "C 2/C"
_symmetry_group_IT_number 15
_symmetry_cell_setting 'monoclinic'
loop_
_space_group_symop_operation_xyz
x,y,z
-x,y,1/2-z
-x,-y,-z
x,-y,1/2+z
1/2+x,1/2+y,z
1/2-x,1/2+y,1/2-z
1/2-x,1/2-y,-z
1/2+x,1/2-y,1/2+z
loop_
_atom_site_type_symbol
_atom_site_label
_atom_site_fract_x
_atom_site_fract_y
_atom_site_fract_z
Si Si1 0.549278 0.124373 0.094672
Si Si2 0.552819 0.693656 0.770688
Si Si3 0.741317 0.211499 0.273724
Si Si4 0.384526 0.371063 0.630730
Si Si5 0.754580 0.120552 0.882680
Si Si6 0.383814 0.209804 0.451367
Si Si7 0.355645 0.094128 0.681405
Si Si8 0.848588 0.415652 0.500790
O O1 0.536604 0.228323 0.156124
O O2 0.565584 0.213218 0.035300
O O3 0.606755 0.028639 0.208539
O O4 0.500000 0.000000 0.000000
O O5 0.500000 0.680513 0.750000
O O6 0.581414 0.527256 0.800495
O O7 0.600187 0.801065 0.891700
O O8 0.748689 0.037821 0.319192
O O9 0.744991 0.233615 0.179550
O O10 0.675841 0.264973 0.186169
O O11 0.792350 0.317258 0.389769
O O12 0.315746 0.393780 0.524193
O O13 0.396312 0.307129 0.555381
O O14 0.394937 0.238988 0.716387
O O15 0.700678 0.135104 0.856919
O O16 0.369812 0.034458 0.462348
O O17 0.336993 0.017782 0.564423
#
# Coordination Sequence:
#
# PCOD9272753 Si02
#       8
#     8   8   8   8   8   8   8   8
#     4  11  23  42  65  88 113 159 211 250 299 358
#     4  11  24  41  61  89 120 155 206 255 303 354
#     4  11  19  34  59  88 123 155 196 243 294 359
#     4  10  23  41  60  88 125 157 192 247 312 352
#     4  11  21  37  58  91 122 158 197 238 300 361
#     4  10  21  40  61  87 122 161 200 241 297 365
#     4  10  22  40  60  85 122 157 201 244 295 370
#     4  10  20  37  60  86 119 164 199 242 297 356
#
# _framework density 19.926753999999999
#
# number of rings (size 3 to 8) (size 9 to 14) (size 15 to 20)
#    0.000    1.500    3.750    1.125    0.000    2.500 
#    4.500    2.500    0.000    0.000    0.000    0.000 
#    0.000    0.000    0.000    0.000    0.000    0.000 
#
# Total GULP energy -178721.423446 kJ/mol
# GULP energy per Si atom -5585.044483 kJ/mol
# Density = 1.988140 g / cm^3
# Si number density = 19.926754 Si / 1000 Ang^3
#
#
#
# Elastic Constant Matrix: (Units=GPa)
#
#
# Indices 1 2 3 4 5 6 
#
# 1 126.8015 30.4908 26.1009 0.0000 -1.4768 0.0000
# 2 30.4908 93.1701 29.1166 0.0000 -8.2432 0.0000
# 3 26.1009 29.1166 45.3636 0.0000 -5.3649 0.0000
# 4 0.0000 0.0000 0.0000 35.6596 0.0000 3.3951
# 5 -1.4768 -8.2432 -5.3649 0.0000 14.8647 0.0000
# 6 0.0000 0.0000 0.0000 3.3951 0.0000 23.8306
#
#
#
# Elastic Compliance Matrix: (Units=1/GPa)
#
#
# Indices 1 2 3 4 5 6 
#
# 1 0.009191 -0.001801 -0.004327 0.000000 -0.001647 0.000000
# 2 -0.001801 0.014078 -0.007413 0.000000 0.004952 0.000000
# 3 -0.004327 -0.007413 0.030037 0.000000 0.006300 0.000000
# 4 0.000000 0.000000 0.000000 0.028429 0.000000 -0.004050
# 5 -0.001647 0.004952 0.006300 0.000000 0.072129 0.000000
# 6 0.000000 0.000000 0.000000 -0.004050 0.000000 0.042540
#
#
# Mechanical properties :
#
#
# Convention : Reuss Voigt Hill
#
# Bulk Modulus (GPa) = 38.13585 48.52798 43.33191
# Shear Modulus (GPa) = 21.53060 26.84611 24.18835
#
# Velocity S-wave (km/s) = 3.29064 3.67446 3.48783
# Velocity P-wave (km/s) = 5.79805 6.51216 6.16545
#
# Compressibility (1/GPa) = 0.02622205
#
# Stress axis : x y z
#
# Youngs Moduli (GPa) = 108.80257 71.03533 33.29221
#
# Poissons Ratio (x) = 0.12796 0.14405
# Poissons Ratio (y) = 0.19600 0.24681
# Poissons Ratio (z) = 0.47077 0.52662
#
# Static dielectric constant tensor:
#      x y z
#    x 1.689930 0.000000 -0.006240 
#    y 0.000000 1.718610 0.000000 
#    z -0.006240 0.000000 1.717550 
# 
# From -- ./inp_files/181163.got.cif
#   From: 2010.05.17/outbox.cif.g08.bks.cpg/sg15_91_cif.got.tgz:181163.got - 2010.06.03 18:47:42.
