data_PCOD9272329
_publ_section_title
;
Structure prediction by ZEFSAII (Michael W. Deem and Ramdas Pophale) SiO2 
 PCOD9272329
Probable space group: C 2/C
;
_chemical_formula_sum "Si O2"
_cell_formula_units_Z 44
_cell_length_a 25.354798
_cell_length_b 8.793716
_cell_length_c 13.560518
_cell_angle_alpha 90.000000
_cell_angle_beta 38.998068
_cell_angle_gamma 90.000000
_cell_volume 1902.666138
_symmetry_space_group_name_H-M "C 2/C"
_symmetry_group_IT_number 15
_symmetry_cell_setting 'monoclinic'
loop_
_space_group_symop_operation_xyz
x,y,z
-x,y,1/2-z
-x,-y,-z
x,-y,1/2+z
1/2+x,1/2+y,z
1/2-x,1/2+y,1/2-z
1/2-x,1/2-y,-z
1/2+x,1/2-y,1/2+z
loop_
_atom_site_type_symbol
_atom_site_label
_atom_site_fract_x
_atom_site_fract_y
_atom_site_fract_z
Si Si1 0.265730 0.916897 0.021202
Si Si2 0.963133 0.207927 0.082917
Si Si3 0.956306 0.512112 0.718631
Si Si4 0.000000 0.768764 0.250000
Si Si5 0.369254 0.557583 0.625649
Si Si6 0.121462 0.042366 0.110500
O O1 0.219752 0.924038 0.193310
O O2 0.211346 0.026891 0.030395
O O3 0.250000 0.750000 0.000000
O O4 0.361263 0.967284 0.882497
O O5 0.955976 0.383205 0.123446
O O6 0.903507 0.114514 0.094689
O O7 0.936290 0.129251 0.227483
O O8 0.059379 0.159576 0.925569
O O9 0.000000 0.592060 0.750000
O O10 0.005433 0.350085 0.650551
O O11 0.922368 0.878614 0.342688
O O12 0.368413 0.605071 0.513574
#
# Coordination Sequence:
#
# PCOD9272329 Si02
#       6
#     8   8   8   4   8   8
#     4  11  23  44  63  95 138 174 212 282 335 394
#     4  10  21  41  70  97 130 175 225 277 325 402
#     4  10  22  41  65  93 134 172 215 277 334 384
#     4  10  20  36  70  86 124 176 210 260 338 396
#     4  10  22  38  69  97 124 177 235 258 339 403
#     4  11  20  42  70  89 129 175 219 268 328 402
#
# _framework density 23.125444999999999
#
# number of rings (size 3 to 8) (size 9 to 14) (size 15 to 20)
#    0.545    1.091    3.636    1.091    0.000    2.909 
#    9.818    3.636    0.000    0.000    0.000    0.000 
#    0.000    0.000    0.000    0.000    0.000    0.000 
#
# Total GULP energy -122855.346626 kJ/mol
# GULP energy per Si atom -5584.333938 kJ/mol
# Density = 2.307281 g / cm^3
# Si number density = 23.125445 Si / 1000 Ang^3
#
#
#
# Elastic Constant Matrix: (Units=GPa)
#
#
# Indices 1 2 3 4 5 6 
#
# 1 84.5014 -7.2381 36.8627 0.0000 -4.8774 0.0000
# 2 -7.2381 77.3749 33.9113 0.0002 -11.1956 0.0000
# 3 36.8627 33.9113 98.2165 0.0001 -10.4991 0.0000
# 4 0.0000 0.0002 0.0001 20.8417 0.0000 17.4265
# 5 -4.8774 -11.1956 -10.4991 0.0000 49.4313 0.0000
# 6 0.0000 0.0000 0.0000 17.4265 0.0000 23.5644
#
#
#
# Elastic Compliance Matrix: (Units=1/GPa)
#
#
# Indices 1 2 3 4 5 6 
#
# 1 0.015534 0.004845 -0.007390 0.000000 0.001061 0.000000
# 2 0.004845 0.017020 -0.007400 0.000000 0.002761 0.000000
# 3 -0.007390 -0.007400 0.015607 0.000000 0.000910 0.000000
# 4 0.000000 0.000000 0.000000 0.125717 0.000000 -0.092971
# 5 0.001061 0.002761 0.000910 0.000000 0.021153 0.000000
# 6 0.000000 0.000000 0.000000 -0.092971 0.000000 0.111191
#
#
# Mechanical properties :
#
#
# Convention : Reuss Voigt Hill
#
# Bulk Modulus (GPa) = 35.36973 43.01828 39.19401
# Shear Modulus (GPa) = 14.90151 31.87128 23.38640
#
# Velocity S-wave (km/s) = 2.54121 3.71643 3.18352
# Velocity P-wave (km/s) = 4.89268 6.08755 5.52253
#
# Compressibility (1/GPa) = 0.02827276
#
# Stress axis : x y z
#
# Youngs Moduli (GPa) = 64.37437 58.75404 64.07207
#
# Poissons Ratio (x) = -0.28469 0.47349
# Poissons Ratio (y) = -0.31192 0.47413
# Poissons Ratio (z) = 0.47572 0.43478
#
# Static dielectric constant tensor:
#      x y z
#    x 1.922140 0.000000 0.073890 
#    y 0.000000 1.942990 0.000000 
#    z 0.073890 0.000000 1.856400 
# 
# From -- ./inp_files/176442.got.cif
#   From: 2010.05.17/outbox.cif.g08.bks.cpg/sg15_89_cif.got.tgz:176442.got - 2010.06.03 18:47:42.
