data_PCOD9272068
_publ_section_title
;
Structure prediction by ZEFSAII (Michael W. Deem and Ramdas Pophale) SiO2 
 PCOD9272068
Probable space group: C 2/C
;
_chemical_formula_sum "Si O2"
_cell_formula_units_Z 44
_cell_length_a 12.996455
_cell_length_b 26.892328
_cell_length_c 8.491611
_cell_angle_alpha 90.000000
_cell_angle_beta 43.634815
_cell_angle_gamma 90.000000
_cell_volume 2047.999779
_symmetry_space_group_name_H-M "C 2/C"
_symmetry_group_IT_number 15
_symmetry_cell_setting 'monoclinic'
loop_
_space_group_symop_operation_xyz
x,y,z
-x,y,1/2-z
-x,-y,-z
x,-y,1/2+z
1/2+x,1/2+y,z
1/2-x,1/2+y,1/2-z
1/2-x,1/2-y,-z
1/2+x,1/2-y,1/2+z
loop_
_atom_site_type_symbol
_atom_site_label
_atom_site_fract_x
_atom_site_fract_y
_atom_site_fract_z
Si Si1 0.813609 0.787425 0.557086
Si Si2 0.990411 0.279831 0.443585
Si Si3 0.515778 0.110123 0.918733
Si Si4 0.000000 0.123595 0.750000
Si Si5 0.155373 0.526243 0.982757
Si Si6 0.713816 0.434113 0.852144
O O1 0.750000 0.750000 0.500000
O O2 0.863921 0.836999 0.409423
O O3 0.946475 0.761518 0.508354
O O4 0.680600 0.791546 0.828932
O O5 0.000000 0.265528 0.250000
O O6 0.071139 0.333369 0.381731
O O7 0.500000 0.102183 0.750000
O O8 0.610277 0.067690 0.903222
O O9 0.348660 0.103542 0.169072
O O10 0.049732 0.090234 0.543390
O O11 0.240794 0.480206 0.808980
O O12 0.261429 0.548578 0.996765
O O13 0.000000 0.513639 0.250000
#
# Coordination Sequence:
#
# PCOD9272068 Si02
#       6
#     8   8   8   4   8   8
#     4  12  24  44  68  96 133 173 219 269 323 392
#     4  11  24  41  69  99 134 170 214 273 329 381
#     4  10  20  36  63  96 120 158 209 259 312 382
#     4  12  26  40  64  90 126 170 218 260 318 388
#     4  10  21  37  65  90 122 160 207 263 317 382
#     4  11  22  39  61  87 127 160 210 258 318 376
#
# _framework density 21.484378
#
# number of rings (size 3 to 8) (size 9 to 14) (size 15 to 20)
#    0.000    1.091    3.636    4.364    2.545    2.182 
#    0.000    0.000    0.000    0.000    0.000    0.000 
#    0.000    0.000    0.000    0.000    0.000    0.000 
#
# Total GULP energy -122612.498842 kJ/mol
# GULP energy per Si atom -5573.295402 kJ/mol
# Density = 2.143548 g / cm^3
# Si number density = 21.484378 Si / 1000 Ang^3
#
#
#
# Elastic Constant Matrix: (Units=GPa)
#
#
# Indices 1 2 3 4 5 6 
#
# 1 49.1644 26.4579 31.8062 0.0000 13.6192 0.0000
# 2 26.4579 98.2331 44.5178 0.0000 9.9850 0.0000
# 3 31.8062 44.5178 114.9370 0.0000 1.0371 0.0000
# 4 0.0000 0.0000 0.0000 47.6757 0.0000 -5.7617
# 5 13.6192 9.9850 1.0371 0.0000 32.0558 0.0000
# 6 0.0000 0.0000 0.0000 -5.7617 0.0000 4.6782
#
#
#
# Elastic Compliance Matrix: (Units=1/GPa)
#
#
# Indices 1 2 3 4 5 6 
#
# 1 0.029853 -0.003879 -0.006657 0.000000 -0.011260 0.000000
# 2 -0.003879 0.013304 -0.004058 0.000000 -0.002365 0.000000
# 3 -0.006657 -0.004058 0.012081 0.000000 0.003702 0.000000
# 4 0.000000 0.000000 0.000000 0.024643 0.000000 0.030350
# 5 -0.011260 -0.002365 0.003702 0.000000 0.036596 0.000000
# 6 0.000000 0.000000 0.000000 0.030350 0.000000 0.251138
#
#
# Mechanical properties :
#
#
# Convention : Reuss Voigt Hill
#
# Bulk Modulus (GPa) = 38.38844 51.98868 45.18856
# Shear Modulus (GPa) = 12.33082 27.51878 19.92480
#
# Velocity S-wave (km/s) = 2.39831 3.58281 3.04864
# Velocity P-wave (km/s) = 5.05728 6.43166 5.78543
#
# Compressibility (1/GPa) = 0.02604951
#
# Stress axis : x y z
#
# Youngs Moduli (GPa) = 33.49711 75.16446 82.77426
#
# Poissons Ratio (x) = 0.29158 0.55104
# Poissons Ratio (y) = 0.12994 0.33591
# Poissons Ratio (z) = 0.22299 0.30503
#
# Static dielectric constant tensor:
#      x y z
#    x 1.726780 0.000000 -0.084620 
#    y 0.000000 1.879580 0.000000 
#    z -0.084620 0.000000 1.751880 
# 
# From -- ./inp_files/43344.got.cif
#   From: 2010.05.17/outbox.cif.g08.bks.cpg/sg15_22_cif.got.tgz:43344.got - 2010.06.03 18:47:42.
