data_PCOD9272116
_publ_section_title
;
Structure prediction by ZEFSAII (Michael W. Deem and Ramdas Pophale) SiO2 
 PCOD9272116
Probable space group: C 2/C
;
_chemical_formula_sum "Si O2"
_cell_formula_units_Z 52
_cell_length_a 32.601434
_cell_length_b 11.698137
_cell_length_c 12.713067
_cell_angle_alpha 90.000000
_cell_angle_beta 34.071899
_cell_angle_gamma 90.000000
_cell_volume 2716.265858
_symmetry_space_group_name_H-M "C 2/C"
_symmetry_group_IT_number 15
_symmetry_cell_setting 'monoclinic'
loop_
_space_group_symop_operation_xyz
x,y,z
-x,y,1/2-z
-x,-y,-z
x,-y,1/2+z
1/2+x,1/2+y,z
1/2-x,1/2+y,1/2-z
1/2-x,1/2-y,-z
1/2+x,1/2-y,1/2+z
loop_
_atom_site_type_symbol
_atom_site_label
_atom_site_fract_x
_atom_site_fract_y
_atom_site_fract_z
Si Si1 0.565799 0.032905 0.439600
Si Si2 0.215365 0.987644 0.483840
Si Si3 0.000000 0.701925 0.750000
Si Si4 0.785169 0.638133 0.481097
Si Si5 0.128928 0.784467 0.613679
Si Si6 0.146415 0.681637 0.806269
Si Si7 0.775621 0.204428 0.190518
O O1 0.540888 0.123435 0.578275
O O2 0.637957 0.087388 0.227364
O O3 0.500000 0.000000 0.500000
O O4 0.587650 0.916433 0.453953
O O5 0.144623 0.916567 0.604950
O O6 0.278062 0.890562 0.349954
O O7 0.225246 0.042653 0.578227
O O8 0.224974 0.090043 0.379020
O O9 0.942101 0.771985 0.805672
O O10 0.750000 0.750000 0.500000
O O11 0.792463 0.683339 0.583050
O O12 0.127681 0.722978 0.729214
O O13 0.195328 0.723687 0.409328
O O14 0.163195 0.786477 0.848333
#
# Coordination Sequence:
#
# PCOD9272116 Si02
#       7
#     8   8   4   8   8   8   8
#     4  11  23  39  61  91 121 160 199 258 311 366
#     4   9  19  34  58  85 118 150 197 249 298 349
#     4  12  24  40  62  82 126 164 200 236 322 374
#     4   9  19  37  59  88 118 151 202 250 300 359
#     4  11  22  37  57  89 119 159 204 251 300 371
#     4  10  21  36  56  90 120 149 205 253 305 355
#     4  10  20  36  64  89 117 155 204 254 303 359
#
# _framework density 19.143927999999999
#
# number of rings (size 3 to 8) (size 9 to 14) (size 15 to 20)
#    0.000    1.846    1.538    4.615    2.154    7.385 
#    0.000    0.000    6.769    5.538    0.000    0.000 
#    0.000    0.000    0.000    0.000    0.000    0.000 
#
# Total GULP energy -144803.514924 kJ/mol
# GULP energy per Si atom -5569.365959 kJ/mol
# Density = 1.910036 g / cm^3
# Si number density = 19.143928 Si / 1000 Ang^3
#
#
#
# Elastic Constant Matrix: (Units=GPa)
#
#
# Indices 1 2 3 4 5 6 
#
# 1 160.0018 47.2506 34.2123 0.0000 -15.4995 0.0000
# 2 47.2506 84.4578 9.7558 0.0000 -9.6995 0.0000
# 3 34.2123 9.7558 34.7511 0.0000 -6.7019 0.0000
# 4 0.0000 0.0000 0.0000 20.4488 0.0000 -1.4666
# 5 -15.4995 -9.6995 -6.7019 0.0000 23.3809 0.0000
# 6 0.0000 0.0000 0.0000 -1.4666 0.0000 59.2154
#
#
#
# Elastic Compliance Matrix: (Units=1/GPa)
#
#
# Indices 1 2 3 4 5 6 
#
# 1 0.009288 -0.004058 -0.007560 0.000000 0.002307 0.000000
# 2 -0.004058 0.014439 0.000612 0.000000 0.003475 0.000000
# 3 -0.007560 0.000612 0.037185 0.000000 0.005901 0.000000
# 4 0.000000 0.000000 0.000000 0.048990 0.000000 0.001213
# 5 0.002307 0.003475 0.005901 0.000000 0.047432 0.000000
# 6 0.000000 0.000000 0.000000 0.001213 0.000000 0.016918
#
#
# Mechanical properties :
#
#
# Convention : Reuss Voigt Hill
#
# Bulk Modulus (GPa) = 25.70711 51.29423 38.50067
# Shear Modulus (GPa) = 23.89697 33.14183 28.51940
#
# Velocity S-wave (km/s) = 3.53693 4.16527 3.86390
# Velocity P-wave (km/s) = 5.48975 7.07000 6.32938
#
# Compressibility (1/GPa) = 0.03889975
#
# Stress axis : x y z
#
# Youngs Moduli (GPa) = 107.66107 69.25651 26.89240
#
# Poissons Ratio (x) = 0.28106 0.20331
# Poissons Ratio (y) = 0.43692 -0.01646
# Poissons Ratio (z) = 0.81394 -0.04239
#
# Static dielectric constant tensor:
#      x y z
#    x 1.729670 0.000000 0.014990 
#    y 0.000000 1.705420 0.000000 
#    z 0.014990 0.000000 1.689490 
# 
# From -- ./inp_files/126407.got.cif
#   From: 2010.05.17/outbox.cif.g08.bks.cpg/sg15_64_cif.got.tgz:126407.got - 2010.06.03 18:47:42.
