data_PCOD9272332
_publ_section_title
;
Structure prediction by ZEFSAII (Michael W. Deem and Ramdas Pophale) SiO2 
 PCOD9272332
Probable space group: C 2/C
;
_chemical_formula_sum "Si O2"
_cell_formula_units_Z 44
_cell_length_a 24.224076
_cell_length_b 11.220268
_cell_length_c 11.715828
_cell_angle_alpha 90.000000
_cell_angle_beta 40.062705
_cell_angle_gamma 90.000000
_cell_volume 2049.541616
_symmetry_space_group_name_H-M "C 2/C"
_symmetry_group_IT_number 15
_symmetry_cell_setting 'monoclinic'
loop_
_space_group_symop_operation_xyz
x,y,z
-x,y,1/2-z
-x,-y,-z
x,-y,1/2+z
1/2+x,1/2+y,z
1/2-x,1/2+y,1/2-z
1/2-x,1/2-y,-z
1/2+x,1/2-y,1/2+z
loop_
_atom_site_type_symbol
_atom_site_label
_atom_site_fract_x
_atom_site_fract_y
_atom_site_fract_z
Si Si1 0.342660 0.905022 0.316062
Si Si2 0.570186 0.557832 0.473901
Si Si3 0.301532 0.174467 0.325914
Si Si4 0.000236 0.730407 0.978185
Si Si5 0.761185 0.175081 0.326344
Si Si6 0.000000 0.116004 0.250000
O O1 0.323578 0.871845 0.477441
O O2 0.290554 0.801493 0.331478
O O3 0.308596 0.035468 0.345330
O O4 0.441298 0.885999 0.126131
O O5 0.500000 0.500000 0.500000
O O6 0.535420 0.693159 0.530465
O O7 0.664117 0.576521 0.273392
O O8 0.569969 0.477228 0.587513
O O9 0.250000 0.250000 0.500000
O O10 0.399428 0.217101 0.152296
O O11 0.252876 0.188034 0.284139
O O12 0.020252 0.801919 0.827361
#
# Coordination Sequence:
#
# PCOD9272332 Si02
#       6
#     8   8   8   8   8   4
#     4  10  24  47  71  92 141 179 228 292 347 428
#     4   9  21  36  65  97 130 166 222 285 334 408
#     4  12  28  41  69 103 139 181 239 288 345 424
#     4  10  22  44  61  99 131 187 228 271 361 413
#     4  10  24  44  69 102 133 181 228 285 360 409
#     4  10  20  36  70  90 132 174 224 280 338 414
#
# _framework density 21.468216000000002
#
# number of rings (size 3 to 8) (size 9 to 14) (size 15 to 20)
#    0.000    1.818    0.000    1.636   10.182    5.818 
#    0.000    0.000    0.000    0.000    0.000    0.000 
#    0.000    0.000    0.000    0.000    0.000    0.000 
#
# Total GULP energy -122702.131434 kJ/mol
# GULP energy per Si atom -5577.369611 kJ/mol
# Density = 2.141935 g / cm^3
# Si number density = 21.468216 Si / 1000 Ang^3
#
#
#
# Elastic Constant Matrix: (Units=GPa)
#
#
# Indices 1 2 3 4 5 6 
#
# 1 66.9482 25.9290 45.2607 0.0000 12.6256 0.0000
# 2 25.9290 115.8675 69.0692 0.0000 11.9310 0.0000
# 3 45.2607 69.0692 135.5097 0.0000 -6.8518 0.0000
# 4 0.0000 0.0000 0.0000 33.6489 0.0000 -5.4026
# 5 12.6256 11.9310 -6.8518 0.0000 42.0210 0.0000
# 6 0.0000 0.0000 0.0000 -5.4026 0.0000 21.7812
#
#
#
# Elastic Compliance Matrix: (Units=1/GPa)
#
#
# Indices 1 2 3 4 5 6 
#
# 1 0.021552 0.000765 -0.007993 0.000000 -0.007996 0.000000
# 2 0.000765 0.013368 -0.007333 0.000000 -0.005221 0.000000
# 3 -0.007993 -0.007333 0.014130 0.000000 0.006788 0.000000
# 4 0.000000 0.000000 0.000000 0.030951 0.000000 0.007677
# 5 -0.007996 -0.005221 0.006788 0.000000 0.028789 0.000000
# 6 0.000000 0.000000 0.000000 0.007677 0.000000 0.047815
#
#
# Mechanical properties :
#
#
# Convention : Reuss Voigt Hill
#
# Bulk Modulus (GPa) = 50.17969 66.53814 58.35892
# Shear Modulus (GPa) = 25.99136 31.36132 28.67634
#
# Velocity S-wave (km/s) = 3.48327 3.82622 3.65877
# Velocity P-wave (km/s) = 6.29303 7.11203 6.71503
#
# Compressibility (1/GPa) = 0.01992838
#
# Stress axis : x y z
#
# Youngs Moduli (GPa) = 46.39929 74.80273 70.77087
#
# Poissons Ratio (x) = -0.05721 0.56564
# Poissons Ratio (y) = -0.03549 0.51899
# Poissons Ratio (z) = 0.37085 0.54856
#
# Static dielectric constant tensor:
#      x y z
#    x 1.757680 0.000000 0.008660 
#    y 0.000000 1.825600 0.000000 
#    z 0.008660 0.000000 1.791060 
# 
# From -- ./inp_files/117892.got.cif
#   From: 2010.05.17/outbox.cif.g08.bks.cpg/sg15_59_cif.got.tgz:117892.got - 2010.06.03 18:47:42.
