data_PCOD9272294
_publ_section_title
;
Structure prediction by ZEFSAII (Michael W. Deem and Ramdas Pophale) SiO2 
 PCOD9272294
Probable space group: C 2/C
;
_chemical_formula_sum "Si O2"
_cell_formula_units_Z 36
_cell_length_a 7.970224
_cell_length_b 16.016658
_cell_length_c 19.297457
_cell_angle_alpha 90.000000
_cell_angle_beta 139.345220
_cell_angle_gamma 90.000000
_cell_volume 1604.932727
_symmetry_space_group_name_H-M "C 2/C"
_symmetry_group_IT_number 15
_symmetry_cell_setting 'monoclinic'
loop_
_space_group_symop_operation_xyz
x,y,z
-x,y,1/2-z
-x,-y,-z
x,-y,1/2+z
1/2+x,1/2+y,z
1/2-x,1/2+y,1/2-z
1/2-x,1/2-y,-z
1/2+x,1/2-y,1/2+z
loop_
_atom_site_type_symbol
_atom_site_label
_atom_site_fract_x
_atom_site_fract_y
_atom_site_fract_z
Si Si1 0.500000 0.140036 0.250000
Si Si2 0.119646 0.753757 0.534104
Si Si3 0.893826 0.008097 0.347449
Si Si4 0.839282 0.434230 0.404212
Si Si5 0.262376 0.102141 0.575119
O O1 0.682451 0.196714 0.354242
O O2 0.680863 0.077664 0.261874
O O3 0.250000 0.750000 0.500000
O O4 0.102175 0.658331 0.550138
O O5 0.847893 0.803605 0.453159
O O6 0.084456 0.058550 0.460392
O O7 0.784474 0.938562 0.365178
O O8 0.056089 0.964862 0.337695
O O9 0.000000 0.500000 0.500000
O O10 0.954303 0.422487 0.363048
#
# Coordination Sequence:
#
# PCOD9272294 Si02
#       5
#     4   8   8   8   8
#     4  10  24  40  64  94 136 172 220 284 326 394
#     4  11  21  41  67  95 135 176 218 270 335 390
#     4   9  18  38  60  91 124 167 211 268 331 385
#     4  10  20  36  67  98 122 171 223 266 328 400
#     4   9  18  35  66  91 124 168 212 267 326 388
#
# _framework density 22.430847
#
# number of rings (size 3 to 8) (size 9 to 14) (size 15 to 20)
#    0.000    2.222    2.222    0.667    3.111    0.000 
#    4.000    0.000    9.778    0.000    0.000    0.000 
#    0.000    0.000    0.000    0.000    0.000    0.000 
#
# Total GULP energy -100431.665381 kJ/mol
# GULP energy per Si atom -5579.536966 kJ/mol
# Density = 2.237979 g / cm^3
# Si number density = 22.430847 Si / 1000 Ang^3
#
#
#
# Elastic Constant Matrix: (Units=GPa)
#
#
# Indices 1 2 3 4 5 6 
#
# 1 206.0681 76.1127 39.0238 0.0005 -0.3792 0.0002
# 2 76.1127 195.1455 47.7049 0.0003 7.5460 0.0001
# 3 39.0238 47.7049 70.6217 0.0009 14.4697 0.0003
# 4 0.0005 0.0003 0.0009 -12.2962 0.0005 2.1738
# 5 -0.3792 7.5460 14.4697 0.0005 44.3669 0.0002
# 6 0.0002 0.0001 0.0003 2.1738 0.0002 44.0482
#
#
#
# Elastic Compliance Matrix: (Units=1/GPa)
#
#
# Indices 1 2 3 4 5 6 
#
# 1 0.005957 -0.001804 -0.002300 0.000000 0.001108 0.000000
# 2 -0.001804 0.006689 -0.003520 0.000000 -0.000005 0.000000
# 3 -0.002300 -0.003520 0.018957 0.000001 -0.005603 0.000000
# 4 0.000000 0.000000 0.000001 -0.080623 0.000001 0.003979
# 5 0.001108 -0.000005 -0.005603 0.000001 0.024377 0.000000
# 6 0.000000 0.000000 0.000000 0.003979 0.000000 0.022506
#
#
# Mechanical properties :
#
#
# Convention : Reuss Voigt Hill
#
# Bulk Modulus (GPa) = 61.14779 88.61313 74.88046
# Shear Modulus (GPa) = 269.35473 35.82336 152.58904
#
# Velocity S-wave (km/s) = 10.97009 4.00066 8.25676
# Velocity P-wave (km/s) = 13.70318 7.80584 11.15142
#
# Compressibility (1/GPa) = 0.01635382
#
# Stress axis : x y z
#
# Youngs Moduli (GPa) = 167.88038 149.50503 52.75090
#
# Poissons Ratio (x) = 0.26969 0.12132
# Poissons Ratio (y) = 0.30283 0.18571
# Poissons Ratio (z) = 0.38612 0.52633
#
# Static dielectric constant tensor:
#      x y z
#    x 1.952380 0.000000 -0.030150 
#    y 0.000000 1.811330 0.000000 
#    z -0.030150 0.000000 2.040740 
# 
# From -- ./inp_files/231657.got.cif
#   From: 2010.05.17/outbox.cif.g08.bks.cpg/sg15_116_cif.got.tgz:231657.got - 2010.06.03 18:47:42.
