data_PCOD9272988
_publ_section_title
;
Structure prediction by ZEFSAII (Michael W. Deem and Ramdas Pophale) SiO2 
 PCOD9272988
Probable space group: C 2/C
;
_chemical_formula_sum "Si O2"
_cell_formula_units_Z 60
_cell_length_a 23.423924
_cell_length_b 8.129095
_cell_length_c 21.880188
_cell_angle_alpha 90.000000
_cell_angle_beta 143.391670
_cell_angle_gamma 90.000000
_cell_volume 2484.551454
_symmetry_space_group_name_H-M "C 2/C"
_symmetry_group_IT_number 15
_symmetry_cell_setting 'monoclinic'
loop_
_space_group_symop_operation_xyz
x,y,z
-x,y,1/2-z
-x,-y,-z
x,-y,1/2+z
1/2+x,1/2+y,z
1/2-x,1/2+y,1/2-z
1/2-x,1/2-y,-z
1/2+x,1/2-y,1/2+z
loop_
_atom_site_type_symbol
_atom_site_label
_atom_site_fract_x
_atom_site_fract_y
_atom_site_fract_z
Si Si1 0.839102 0.826680 0.791070
Si Si2 0.621230 0.688638 0.947378
Si Si3 0.619656 0.679983 0.414287
Si Si4 0.000000 0.614823 0.250000
Si Si5 0.842957 0.783321 0.416811
Si Si6 0.242434 0.837730 0.657053
Si Si7 0.433729 0.682236 0.872274
Si Si8 0.586633 0.187319 0.762917
O O1 0.730795 0.848107 0.673772
O O2 0.823792 0.763485 0.845934
O O3 0.878460 0.702453 0.775211
O O4 0.896094 0.994985 0.835946
O O5 0.645480 0.509079 0.942074
O O6 0.580447 0.788567 0.855685
O O7 0.532995 0.687461 0.920815
O O8 0.712755 0.737463 0.066425
O O9 0.640330 0.758252 0.498280
O O10 0.504415 0.692805 0.313415
O O11 0.651687 0.761684 0.377527
O O12 0.949177 0.493186 0.253548
O O13 0.930148 0.784928 0.442854
O O14 0.794176 0.968983 0.374131
O O15 0.350714 0.793592 0.769202
#
# Coordination Sequence:
#
# PCOD9272988 Si02
#       8
#     8   8   8   4   8   8   8   8
#     4  10  20  37  62  84 119 151 192 241 294 341
#     4  11  21  39  64  84 117 160 190 243 293 345
#     4   9  19  36  58  83 111 149 203 227 283 351
#     4  10  24  38  56  84 122 146 200 244 288 344
#     4   9  20  36  58  86 121 146 190 247 281 350
#     4   9  22  39  59  93 119 147 198 240 291 351
#     4  10  21  36  62  89 118 153 194 237 297 344
#     4  10  21  37  58  83 114 154 193 246 283 345
#
# _framework density 24.149228999999998
#
# number of rings (size 3 to 8) (size 9 to 14) (size 15 to 20)
#    0.000    2.400    1.333    0.800    3.733    4.267 
#    0.000    1.333    0.000    0.000    0.000    0.000 
#    0.000    0.000    0.000    0.000    0.000    0.000 
#
# Total GULP energy -167385.272271 kJ/mol
# GULP energy per Si atom -5579.509076 kJ/mol
# Density = 2.409426 g / cm^3
# Si number density = 24.149229 Si / 1000 Ang^3
#
#
#
# Elastic Constant Matrix: (Units=GPa)
#
#
# Indices 1 2 3 4 5 6 
#
# 1 59.0317 13.2076 6.2471 0.0000 -3.4392 0.0000
# 2 13.2076 28.6368 12.1150 0.0000 -14.0453 0.0000
# 3 6.2471 12.1150 106.4904 0.0000 -34.6545 0.0000
# 4 0.0000 0.0000 0.0000 22.0904 0.0000 9.4911
# 5 -3.4392 -14.0453 -34.6545 0.0000 35.1021 0.0000
# 6 0.0000 0.0000 0.0000 9.4911 0.0000 14.2941
#
#
#
# Elastic Compliance Matrix: (Units=1/GPa)
#
#
# Indices 1 2 3 4 5 6 
#
# 1 0.019077 -0.009882 -0.000992 0.000000 -0.003064 0.000000
# 2 -0.009882 0.048645 0.001569 0.000000 0.020045 0.000000
# 3 -0.000992 0.001569 0.013913 0.000000 0.014266 0.000000
# 4 0.000000 0.000000 0.000000 0.063337 0.000000 -0.042055
# 5 -0.003064 0.020045 0.014266 0.000000 0.050292 0.000000
# 6 0.000000 0.000000 0.000000 -0.042055 0.000000 0.097883
#
#
# Mechanical properties :
#
#
# Convention : Reuss Voigt Hill
#
# Bulk Modulus (GPa) = 15.86688 28.58870 22.22779
# Shear Modulus (GPa) = 15.02552 25.13659 20.08106
#
# Velocity S-wave (km/s) = 2.49709 3.22978 2.88677
# Velocity P-wave (km/s) = 3.85986 5.07668 4.50950
#
# Compressibility (1/GPa) = 0.06302437
#
# Stress axis : x y z
#
# Youngs Moduli (GPa) = 52.41786 20.55692 71.87704
#
# Poissons Ratio (x) = 0.20314 0.07131
# Poissons Ratio (y) = 0.51799 -0.11274
# Poissons Ratio (z) = 0.05201 -0.03224
#
# Static dielectric constant tensor:
#      x y z
#    x 2.024910 0.000000 -0.035660 
#    y 0.000000 1.892530 0.000000 
#    z -0.035660 0.000000 1.986270 
# 
# From -- ./inp_files/283224.got.cif
#   From: 2010.05.17/outbox.cif.g08.bks.cpg/sg15_142_cif.got.tgz:283224.got - 2010.06.03 18:47:42.
