data_PCOD9272388
_publ_section_title
;
Structure prediction by ZEFSAII (Michael W. Deem and Ramdas Pophale) SiO2 
 PCOD9272388
Probable space group: C 2/C
;
_chemical_formula_sum "Si O2"
_cell_formula_units_Z 60
_cell_length_a 11.900048
_cell_length_b 29.046517
_cell_length_c 9.444321
_cell_angle_alpha 90.000000
_cell_angle_beta 106.585706
_cell_angle_gamma 90.000000
_cell_volume 3128.653875
_symmetry_space_group_name_H-M "C 2/C"
_symmetry_group_IT_number 15
_symmetry_cell_setting 'monoclinic'
loop_
_space_group_symop_operation_xyz
x,y,z
-x,y,1/2-z
-x,-y,-z
x,-y,1/2+z
1/2+x,1/2+y,z
1/2-x,1/2+y,1/2-z
1/2-x,1/2-y,-z
1/2+x,1/2-y,1/2+z
loop_
_atom_site_type_symbol
_atom_site_label
_atom_site_fract_x
_atom_site_fract_y
_atom_site_fract_z
Si Si1 0.176145 0.639181 0.282185
Si Si2 0.626308 0.968230 0.738938
Si Si3 0.796643 0.189420 0.895623
Si Si4 0.797780 0.537983 0.536826
Si Si5 0.874111 0.114739 0.140566
Si Si6 0.914102 0.713428 0.466475
Si Si7 0.000000 0.400482 0.250000
Si Si8 0.637360 0.166245 0.590411
O O1 0.131911 0.586779 0.252404
O O2 0.299163 0.636490 0.243191
O O3 0.102675 0.676161 0.164888
O O4 0.173197 0.652498 0.445095
O O5 0.500000 0.982590 0.750000
O O6 0.643171 0.981610 0.583335
O O7 0.722444 0.995270 0.866178
O O8 0.869783 0.236215 0.909335
O O9 0.751090 0.172948 0.727777
O O10 0.868001 0.152011 0.011944
O O11 0.675447 0.198418 0.940451
O O12 0.691151 0.569521 0.444307
O O13 0.891137 0.571301 0.647253
O O14 0.000000 0.104524 0.250000
O O15 0.050491 0.710442 0.556920
O O16 0.945023 0.370926 0.358696
#
# Coordination Sequence:
#
# PCOD9272388 Si02
#       8
#     8   8   8   8   8   8   4   8
#     4  10  23  38  60  90 125 162 201 254 321 359
#     4  11  21  35  57  94 128 158 195 250 309 373
#     4  10  21  35  62  85 113 159 215 236 300 376
#     4  11  23  35  60  93 120 161 202 246 313 364
#     4  10  22  46  63  83 121 167 208 257 307 368
#     4  10  20  37  54  88 123 161 195 249 310 366
#     4  12  20  36  62  90 130 158 196 248 312 368
#     4  12  20  37  62  89 124 159 203 256 303 367
#
# _framework density 19.177576999999999
#
# number of rings (size 3 to 8) (size 9 to 14) (size 15 to 20)
#    0.000    1.333    3.333    4.000    1.867    3.733 
#    0.000    4.667    0.000    0.000    0.000    0.000 
#    0.000    0.000    0.000    0.000    0.000    0.000 
#
# Total GULP energy -167466.900140 kJ/mol
# GULP energy per Si atom -5582.230005 kJ/mol
# Density = 1.913393 g / cm^3
# Si number density = 19.177577 Si / 1000 Ang^3
#
#
#
# Elastic Constant Matrix: (Units=GPa)
#
#
# Indices 1 2 3 4 5 6 
#
# 1 56.1641 24.0306 43.3277 0.0000 19.7049 0.0000
# 2 24.0306 79.6984 41.6692 0.0000 -0.5758 0.0000
# 3 43.3277 41.6692 139.9642 0.0000 -5.6283 0.0000
# 4 0.0000 0.0000 0.0000 8.9059 0.0000 -4.9700
# 5 19.7049 -0.5758 -5.6283 0.0000 35.7790 0.0000
# 6 0.0000 0.0000 0.0000 -4.9700 0.0000 4.1875
#
#
#
# Elastic Compliance Matrix: (Units=1/GPa)
#
#
# Indices 1 2 3 4 5 6 
#
# 1 0.035481 -0.005522 -0.010193 0.000000 -0.021233 0.000000
# 2 -0.005522 0.015727 -0.002858 0.000000 0.002845 0.000000
# 3 -0.010193 -0.002858 0.011447 0.000000 0.007369 0.000000
# 4 0.000000 0.000000 0.000000 0.332534 0.000000 0.394672
# 5 -0.021233 0.002845 0.007369 0.000000 0.040848 0.000000
# 6 0.000000 0.000000 0.000000 0.394672 0.000000 0.707228
#
#
# Mechanical properties :
#
#
# Convention : Reuss Voigt Hill
#
# Bulk Modulus (GPa) = 39.20354 54.87575 47.03965
# Shear Modulus (GPa) = 4.20551 20.89442 12.54997
#
# Velocity S-wave (km/s) = 1.48246 3.30437 2.56092
# Velocity P-wave (km/s) = 4.83911 6.57535 5.77288
#
# Compressibility (1/GPa) = 0.02550790
#
# Stress axis : x y z
#
# Youngs Moduli (GPa) = 28.18424 63.58346 87.35560
#
# Poissons Ratio (x) = 0.35111 0.89045
# Poissons Ratio (y) = 0.15564 0.24970
# Poissons Ratio (z) = 0.28729 0.18175
#
# Static dielectric constant tensor:
#      x y z
#    x 1.675770 0.000000 0.000120 
#    y 0.000000 1.689480 0.000000 
#    z 0.000120 0.000000 1.678350 
# 
# From -- ./inp_files/35194.got.cif
#   From: 2010.05.17/outbox.cif.g08.bks.cpg/sg15_18_cif.got.tgz:35194.got - 2010.06.03 18:47:42.
