data_PCOD9272872
_publ_section_title
;
Structure prediction by ZEFSAII (Michael W. Deem and Ramdas Pophale) SiO2 
 PCOD9272872
Probable space group: C 2/C
;
_chemical_formula_sum "Si O2"
_cell_formula_units_Z 60
_cell_length_a 17.795879
_cell_length_b 10.337618
_cell_length_c 17.378956
_cell_angle_alpha 90.000000
_cell_angle_beta 85.606295
_cell_angle_gamma 90.000000
_cell_volume 3187.758506
_symmetry_space_group_name_H-M "C 2/C"
_symmetry_group_IT_number 15
_symmetry_cell_setting 'monoclinic'
loop_
_space_group_symop_operation_xyz
x,y,z
-x,y,1/2-z
-x,-y,-z
x,-y,1/2+z
1/2+x,1/2+y,z
1/2-x,1/2+y,1/2-z
1/2-x,1/2-y,-z
1/2+x,1/2-y,1/2+z
loop_
_atom_site_type_symbol
_atom_site_label
_atom_site_fract_x
_atom_site_fract_y
_atom_site_fract_z
Si Si1 0.419222 0.547392 0.028056
Si Si2 0.854374 0.529963 0.734051
Si Si3 0.500000 0.843359 0.750000
Si Si4 0.857355 0.181568 0.172696
Si Si5 0.708665 0.940247 0.608199
Si Si6 0.710185 0.386640 0.509743
Si Si7 0.692956 0.476358 0.680323
Si Si8 0.896958 0.791700 0.375088
O O1 0.362334 0.424740 0.036238
O O2 0.399003 0.635293 0.956146
O O3 0.500000 0.500000 0.000000
O O4 0.416970 0.627295 0.106975
O O5 0.869240 0.669864 0.695399
O O6 0.819179 0.539333 0.823391
O O7 0.781774 0.474824 0.693971
O O8 0.927991 0.435800 0.732469
O O9 0.528771 0.749573 0.678615
O O10 0.778540 0.145363 0.135324
O O11 0.852372 0.098816 0.250725
O O12 0.641376 0.843060 0.602810
O O13 0.731359 0.007894 0.527618
O O14 0.750000 0.250000 0.500000
O O15 0.686076 0.408668 0.598762
O O16 0.657227 0.619327 0.674179
#
# Coordination Sequence:
#
# PCOD9272872 Si02
#       8
#     8   8   4   8   8   8   8   8
#     4  10  24  40  57  86 119 160 195 239 307 353
#     4  10  20  39  58  91 116 152 198 242 304 346
#     4  10  24  40  60  88 126 158 192 254 300 358
#     4  10  20  37  61  84 118 151 196 250 282 355
#     4   9  19  36  63  86 117 151 194 243 290 350
#     4  10  21  38  60  87 117 152 197 247 284 346
#     4  10  21  35  65  89 109 158 203 238 295 351
#     4  10  21  40  61  85 119 156 199 241 297 358
#
# _framework density 18.822002000000001
#
# number of rings (size 3 to 8) (size 9 to 14) (size 15 to 20)
#    0.000    2.133    1.333    0.800    3.733    2.667 
#    9.600    0.667    0.000    0.000    0.000    0.000 
#    0.000    0.000    0.000    0.000    0.000    0.000 
#
# Total GULP energy -167064.820822 kJ/mol
# GULP energy per Si atom -5568.827361 kJ/mol
# Density = 1.877916 g / cm^3
# Si number density = 18.822002 Si / 1000 Ang^3
#
#
#
# Elastic Constant Matrix: (Units=GPa)
#
#
# Indices 1 2 3 4 5 6 
#
# 1 47.5436 18.4071 7.1557 0.0000 -18.9979 0.0000
# 2 18.4071 83.2256 28.7392 0.0000 -7.9933 0.0000
# 3 7.1557 28.7392 85.4089 0.0000 -15.1282 0.0000
# 4 0.0000 0.0000 0.0000 58.9690 0.0000 15.4932
# 5 -18.9979 -7.9933 -15.1282 0.0000 30.4249 0.0000
# 6 0.0000 0.0000 0.0000 15.4932 0.0000 41.1247
#
#
#
# Elastic Compliance Matrix: (Units=1/GPa)
#
#
# Indices 1 2 3 4 5 6 
#
# 1 0.030411 -0.005872 0.002761 0.000000 0.018820 0.000000
# 2 -0.005872 0.014785 -0.004874 0.000000 -0.002206 0.000000
# 3 0.002761 -0.004874 0.014470 0.000000 0.007639 0.000000
# 4 0.000000 0.000000 0.000000 0.018821 0.000000 -0.007091
# 5 0.018820 -0.002206 0.007639 0.000000 0.047838 0.000000
# 6 0.000000 0.000000 0.000000 -0.007091 0.000000 0.026988
#
#
# Mechanical properties :
#
#
# Convention : Reuss Voigt Hill
#
# Bulk Modulus (GPa) = 22.88445 36.08689 29.48567
# Shear Modulus (GPa) = 27.19633 36.89546 32.04589
#
# Velocity S-wave (km/s) = 3.80534 4.43225 4.13071
# Velocity P-wave (km/s) = 5.61179 6.73851 6.20079
#
# Compressibility (1/GPa) = 0.04369779
#
# Stress axis : x y z
#
# Youngs Moduli (GPa) = 32.88246 67.63394 69.10829
#
# Poissons Ratio (x) = 0.39716 -0.19084
# Poissons Ratio (y) = 0.19309 0.33682
# Poissons Ratio (z) = -0.09080 0.32964
#
# Static dielectric constant tensor:
#      x y z
#    x 1.685380 0.000000 -0.020350 
#    y 0.000000 1.625060 0.000000 
#    z -0.020350 0.000000 1.772160 
# 
# From -- ./inp_files/213875.got.cif
#   From: 2010.05.17/outbox.cif.g08.bks.cpg/sg15_107_cif.got.tgz:213875.got - 2010.06.03 18:47:42.
