data_PCOD9272479
_publ_section_title
;
Structure prediction by ZEFSAII (Michael W. Deem and Ramdas Pophale) SiO2 
 PCOD9272479
Probable space group: C 2/C
;
_chemical_formula_sum "Si O2"
_cell_formula_units_Z 48
_cell_length_a 17.779875
_cell_length_b 15.099579
_cell_length_c 9.611463
_cell_angle_alpha 90.000000
_cell_angle_beta 102.870619
_cell_angle_gamma 90.000000
_cell_volume 2515.545736
_symmetry_space_group_name_H-M "C 2/C"
_symmetry_group_IT_number 15
_symmetry_cell_setting 'monoclinic'
loop_
_space_group_symop_operation_xyz
x,y,z
-x,y,1/2-z
-x,-y,-z
x,-y,1/2+z
1/2+x,1/2+y,z
1/2-x,1/2+y,1/2-z
1/2-x,1/2-y,-z
1/2+x,1/2-y,1/2+z
loop_
_atom_site_type_symbol
_atom_site_label
_atom_site_fract_x
_atom_site_fract_y
_atom_site_fract_z
Si Si1 0.354640 0.265088 0.442304
Si Si2 0.303348 0.038492 0.198956
Si Si3 0.976607 0.281217 0.584967
Si Si4 0.251044 0.601577 0.046294
Si Si5 0.953106 0.560849 0.873234
Si Si6 0.676767 0.761788 0.874393
O O1 0.445101 0.259538 0.445526
O O2 0.324567 0.341360 0.530332
O O3 0.321464 0.171025 0.483797
O O4 0.313305 0.277612 0.275341
O O5 0.244279 0.064389 0.296440
O O6 0.333507 0.132101 0.151636
O O7 0.373337 0.986067 0.300693
O O8 0.267373 0.977223 0.066483
O O9 0.946581 0.349153 0.456828
O O10 0.901500 0.223479 0.591010
O O11 0.000000 0.318051 0.750000
O O12 0.000000 0.573271 0.750000
O O13 0.000000 0.500000 0.000000
O O14 0.750000 0.750000 0.000000
#
# Coordination Sequence:
#
# PCOD9272479 Si02
#       6
#     8   8   8   8   8   8
#     4   9  20  38  57  82 121 159 188 239 294 352
#     4  11  22  35  55  88 117 155 194 240 292 355
#     4  10  20  37  57  83 114 153 193 233 289 350
#     4  10  21  36  58  82 121 153 198 235 292 341
#     4  12  21  32  52  83 122 149 179 234 298 359
#     4  10  21  36  58  87 114 150 202 240 291 353
#
# _framework density 19.081347000000001
#
# number of rings (size 3 to 8) (size 9 to 14) (size 15 to 20)
#    0.000    1.667    0.000    7.500    4.667    0.000 
#    3.000    0.000    0.000    1.000    0.000    0.000 
#    0.000    0.000    0.000    0.000    0.000    0.000 
#
# Total GULP energy -133944.974937 kJ/mol
# GULP energy per Si atom -5581.040622 kJ/mol
# Density = 1.903792 g / cm^3
# Si number density = 19.081347 Si / 1000 Ang^3
#
#
#
# Elastic Constant Matrix: (Units=GPa)
#
#
# Indices 1 2 3 4 5 6 
#
# 1 108.0166 25.2962 50.9934 0.0000 -21.6242 0.0000
# 2 25.2962 21.7199 18.5064 0.0000 -15.3247 0.0000
# 3 50.9934 18.5064 90.3284 0.0000 -23.5191 0.0000
# 4 0.0000 0.0000 0.0000 30.8534 0.0000 -2.1852
# 5 -21.6242 -15.3247 -23.5191 0.0000 42.1138 0.0000
# 6 0.0000 0.0000 0.0000 -2.1852 0.0000 22.1616
#
#
#
# Elastic Compliance Matrix: (Units=1/GPa)
#
#
# Indices 1 2 3 4 5 6 
#
# 1 0.014942 -0.012479 -0.005925 0.000000 -0.000178 0.000000
# 2 -0.012479 0.077711 -0.003723 0.000000 0.019791 0.000000
# 3 -0.005925 -0.003723 0.016421 0.000000 0.004774 0.000000
# 4 0.000000 0.000000 0.000000 0.032639 0.000000 0.003218
# 5 -0.000178 0.019791 0.004774 0.000000 0.033522 0.000000
# 6 0.000000 0.000000 0.000000 0.003218 0.000000 0.045440
#
#
# Mechanical properties :
#
#
# Convention : Reuss Voigt Hill
#
# Bulk Modulus (GPa) = 15.42755 45.51743 30.47249
# Shear Modulus (GPa) = 17.44986 27.37701 22.41344
#
# Velocity S-wave (km/s) = 3.02735 3.79192 3.43100
# Velocity P-wave (km/s) = 4.50805 6.56337 5.63029
#
# Compressibility (1/GPa) = 0.06481911
#
# Stress axis : x y z
#
# Youngs Moduli (GPa) = 66.92685 12.86827 60.89715
#
# Poissons Ratio (x) = 0.16058 0.36079
# Poissons Ratio (y) = 0.83519 0.22675
# Poissons Ratio (z) = 0.39652 0.04791
#
# Static dielectric constant tensor:
#      x y z
#    x 1.706390 0.000000 -0.036810 
#    y 0.000000 1.682380 0.000000 
#    z -0.036810 0.000000 1.686120 
# 
# From -- ./inp_files/47931.got.cif
#   From: 2010.05.17/outbox.cif.g08.bks.cpg/sg15_24_cif.got.tgz:47931.got - 2010.06.03 18:47:42.
