data_PCOD9272060
_publ_section_title
;
Structure prediction by ZEFSAII (Michael W. Deem and Ramdas Pophale) SiO2 
 PCOD9272060
Probable space group: C 2/C
;
_chemical_formula_sum "Si O2"
_cell_formula_units_Z 48
_cell_length_a 15.110777
_cell_length_b 12.574315
_cell_length_c 26.004369
_cell_angle_alpha 90.000000
_cell_angle_beta 151.797856
_cell_angle_gamma 90.000000
_cell_volume 2335.050243
_symmetry_space_group_name_H-M "C 2/C"
_symmetry_group_IT_number 15
_symmetry_cell_setting 'monoclinic'
loop_
_space_group_symop_operation_xyz
x,y,z
-x,y,1/2-z
-x,-y,-z
x,-y,1/2+z
1/2+x,1/2+y,z
1/2-x,1/2+y,1/2-z
1/2-x,1/2-y,-z
1/2+x,1/2-y,1/2+z
loop_
_atom_site_type_symbol
_atom_site_label
_atom_site_fract_x
_atom_site_fract_y
_atom_site_fract_z
Si Si1 0.828109 0.719611 0.804507
Si Si2 0.981007 0.148021 0.295545
Si Si3 0.079546 0.184529 0.939964
Si Si4 0.600593 0.009741 0.108286
Si Si5 0.713856 0.443440 0.423863
Si Si6 0.288560 0.769531 0.644177
O O1 0.976457 0.774234 0.842299
O O2 0.631606 0.723164 0.673210
O O3 0.869868 0.601123 0.846961
O O4 0.789109 0.778033 0.838483
O O5 0.000000 0.205989 0.250000
O O6 0.789503 0.077526 0.201278
O O7 0.149302 0.062229 0.378326
O O8 0.083704 0.082922 0.905470
O O9 0.250000 0.250000 0.000000
O O10 0.148517 0.174988 0.033031
O O11 0.500000 0.000000 0.000000
O O12 0.429735 0.064889 0.050630
O O13 0.692875 0.353946 0.368023
O O14 0.500000 0.811415 0.750000
#
# Coordination Sequence:
#
# PCOD9272060 Si02
#       6
#     8   8   8   8   8   8
#     4  12  24  39  65 102 133 171 225 278 338 401
#     4  12  24  42  65  98 137 174 222 281 331 395
#     4  10  20  36  63  94 128 165 222 285 323 382
#     4  12  23  40  69  96 126 179 231 271 325 400
#     4  11  21  40  65  93 129 171 226 277 323 389
#     4  11  19  36  65  98 128 167 227 280 325 391
#
# _framework density 20.556304000000001
#
# number of rings (size 3 to 8) (size 9 to 14) (size 15 to 20)
#    0.000    0.667    8.333    2.500    0.000    0.667 
#    0.000    0.833    3.667    0.000    0.000    0.000 
#    0.000    0.000    0.000    0.000    0.000    0.000 
#
# Total GULP energy -133688.971691 kJ/mol
# GULP energy per Si atom -5570.373820 kJ/mol
# Density = 2.050952 g / cm^3
# Si number density = 20.556304 Si / 1000 Ang^3
#
#
#
# Elastic Constant Matrix: (Units=GPa)
#
#
# Indices 1 2 3 4 5 6 
#
# 1 139.6883 34.7757 15.3292 -0.0007 -17.9595 -0.0011
# 2 34.7757 53.8357 15.1162 -0.0005 -6.3866 -0.0007
# 3 15.3292 15.1162 92.2661 -0.0015 -3.3461 -0.0024
# 4 -0.0007 -0.0005 -0.0015 39.5923 -0.0003 22.7849
# 5 -17.9595 -6.3866 -3.3461 -0.0003 39.5439 -0.0005
# 6 -0.0011 -0.0007 -0.0024 22.7849 -0.0005 62.3353
#
#
#
# Elastic Compliance Matrix: (Units=1/GPa)
#
#
# Indices 1 2 3 4 5 6 
#
# 1 0.008928 -0.005249 -0.000509 0.000000 0.003164 0.000000
# 2 -0.005249 0.022890 -0.002839 0.000000 0.001073 0.000000
# 3 -0.000509 -0.002839 0.011398 0.000000 0.000275 0.000000
# 4 0.000000 0.000000 0.000000 0.031986 0.000000 -0.011691
# 5 0.003164 0.001073 0.000275 0.000000 0.026922 0.000000
# 6 0.000000 0.000000 0.000000 -0.011691 0.000000 0.020316
#
#
# Mechanical properties :
#
#
# Convention : Reuss Voigt Hill
#
# Bulk Modulus (GPa) = 38.42835 46.24806 42.33820
# Shear Modulus (GPa) = 33.71375 42.99890 38.35632
#
# Velocity S-wave (km/s) = 4.05417 4.57854 4.32431
# Velocity P-wave (km/s) = 6.37572 7.10618 6.75084
#
# Compressibility (1/GPa) = 0.02602246
#
# Stress axis : x y z
#
# Youngs Moduli (GPa) = 112.00493 43.68690 87.73597
#
# Poissons Ratio (x) = 0.22932 0.04462
# Poissons Ratio (y) = 0.58792 0.24910
# Poissons Ratio (z) = 0.05697 0.12403
#
# Static dielectric constant tensor:
#      x y z
#    x 1.874060 0.000000 0.006880 
#    y 0.000000 1.888360 0.000000 
#    z 0.006880 0.000000 1.765740 
# 
# From -- ./inp_files/153295.got.cif
#   From: 2010.05.17/outbox.cif.g08.bks.cpg/sg15_77_cif.got.tgz:153295.got - 2010.06.03 18:47:42.
