data_PCOD9272966
_publ_section_title
;
Structure prediction by ZEFSAII (Michael W. Deem and Ramdas Pophale) SiO2 
 PCOD9272966
Probable space group: C 2/C
;
_chemical_formula_sum "Si O2"
_cell_formula_units_Z 56
_cell_length_a 14.081064
_cell_length_b 20.251442
_cell_length_c 15.843105
_cell_angle_alpha 90.000000
_cell_angle_beta 36.169625
_cell_angle_gamma 90.000000
_cell_volume 2666.334178
_symmetry_space_group_name_H-M "C 2/C"
_symmetry_group_IT_number 15
_symmetry_cell_setting 'monoclinic'
loop_
_space_group_symop_operation_xyz
x,y,z
-x,y,1/2-z
-x,-y,-z
x,-y,1/2+z
1/2+x,1/2+y,z
1/2-x,1/2+y,1/2-z
1/2-x,1/2-y,-z
1/2+x,1/2-y,1/2+z
loop_
_atom_site_type_symbol
_atom_site_label
_atom_site_fract_x
_atom_site_fract_y
_atom_site_fract_z
Si Si1 0.308123 0.945666 0.884523
Si Si2 0.864620 0.686824 0.419949
Si Si3 0.681982 0.666873 0.139282
Si Si4 0.502719 0.248352 0.015727
Si Si5 0.658402 0.800588 0.244627
Si Si6 0.781667 0.907059 0.050074
Si Si7 0.647564 0.623268 0.346546
O O1 0.500000 0.952993 0.750000
O O2 0.275805 0.882875 0.968569
O O3 0.241503 0.926247 0.839605
O O4 0.237539 0.016609 0.957041
O O5 0.750000 0.750000 0.500000
O O6 0.949803 0.695034 0.449143
O O7 0.000000 0.691612 0.250000
O O8 0.500000 0.643887 0.250000
O O9 0.664506 0.745466 0.166142
O O10 0.728344 0.638764 0.198140
O O11 0.763735 0.636541 0.999081
O O12 0.517766 0.215969 0.911511
O O13 0.626739 0.309225 0.915141
O O14 0.333453 0.282715 0.159615
O O15 0.669175 0.874541 0.202904
O O16 0.964232 0.896383 0.953390
#
# Coordination Sequence:
#
# PCOD9272966 Si02
#       7
#     8   8   8   8   8   8   8
#     4  11  24  38  59  87 125 168 197 255 322 363
#     4  11  22  39  63  86 126 158 206 257 307 365
#     4   9  19  36  62  88 115 159 207 258 314 358
#     4  10  20  37  61  94 116 158 205 254 312 363
#     4  10  21  36  65  91 122 156 207 258 309 362
#     4  10  21  39  58  89 123 164 210 244 307 384
#     4   9  19  40  62  81 120 163 205 258 310 366
#
# _framework density 21.002617999999998
#
# number of rings (size 3 to 8) (size 9 to 14) (size 15 to 20)
#    0.000    2.000    1.429    2.571    6.000    1.714 
#    2.571    2.857    0.000    0.000    0.000    0.000 
#    0.000    0.000    0.000    0.000    0.000    0.000 
#
# Total GULP energy -156099.001493 kJ/mol
# GULP energy per Si atom -5574.964339 kJ/mol
# Density = 2.095482 g / cm^3
# Si number density = 21.002618 Si / 1000 Ang^3
#
#
#
# Elastic Constant Matrix: (Units=GPa)
#
#
# Indices 1 2 3 4 5 6 
#
# 1 113.1119 41.9603 17.0966 0.0006 16.6921 0.0012
# 2 41.9603 130.2935 29.3084 0.0039 22.6479 0.0002
# 3 17.0966 29.3084 64.4299 0.0051 5.6981 -0.0001
# 4 0.0006 0.0039 0.0051 15.2807 -0.0006 -1.5209
# 5 16.6921 22.6479 5.6981 -0.0006 26.8175 -0.0010
# 6 0.0012 0.0002 -0.0001 -1.5209 -0.0010 36.4134
#
#
#
# Elastic Compliance Matrix: (Units=1/GPa)
#
#
# Indices 1 2 3 4 5 6 
#
# 1 0.010550 -0.002346 -0.001352 0.000000 -0.004298 0.000000
# 2 -0.002346 0.010357 -0.003510 -0.000002 -0.006540 0.000000
# 3 -0.001352 -0.003510 0.017468 -0.000005 0.000094 0.000000
# 4 0.000000 -0.000002 -0.000005 0.065715 0.000004 0.002745
# 5 -0.004298 -0.006540 0.000094 0.000004 0.045468 0.000002
# 6 0.000000 0.000000 0.000000 0.002745 0.000002 0.027577
#
#
# Mechanical properties :
#
#
# Convention : Reuss Voigt Hill
#
# Bulk Modulus (GPa) = 41.74048 53.84066 47.79057
# Shear Modulus (GPa) = 25.05791 30.33366 27.69578
#
# Velocity S-wave (km/s) = 3.45785 3.80449 3.63531
# Velocity P-wave (km/s) = 5.98827 6.70744 6.35803
#
# Compressibility (1/GPa) = 0.02395756
#
# Stress axis : x y z
#
# Youngs Moduli (GPa) = 94.78874 96.55232 57.24783
#
# Poissons Ratio (x) = 0.22654 0.07740
# Poissons Ratio (y) = 0.22241 0.20096
# Poissons Ratio (z) = 0.12815 0.33892
#
# Static dielectric constant tensor:
#      x y z
#    x 1.849710 0.000000 -0.032380 
#    y 0.000000 1.745880 0.000000 
#    z -0.032380 0.000000 1.776610 
# 
# From -- ./inp_files/156169.got.cif
#   From: 2010.05.17/outbox.cif.g08.bks.cpg/sg15_79_cif.got.tgz:156169.got - 2010.06.03 18:47:42.
