data_PCOD9272550
_publ_section_title
;
Structure prediction by ZEFSAII (Michael W. Deem and Ramdas Pophale) SiO2 
 PCOD9272550
Probable space group: C 2/C
;
_chemical_formula_sum "Si O2"
_cell_formula_units_Z 44
_cell_length_a 7.166893
_cell_length_b 22.062731
_cell_length_c 11.928061
_cell_angle_alpha 90.000000
_cell_angle_beta 83.773538
_cell_angle_gamma 90.000000
_cell_volume 1874.953680
_symmetry_space_group_name_H-M "C 2/C"
_symmetry_group_IT_number 15
_symmetry_cell_setting 'monoclinic'
loop_
_space_group_symop_operation_xyz
x,y,z
-x,y,1/2-z
-x,-y,-z
x,-y,1/2+z
1/2+x,1/2+y,z
1/2-x,1/2+y,1/2-z
1/2-x,1/2-y,-z
1/2+x,1/2-y,1/2+z
loop_
_atom_site_type_symbol
_atom_site_label
_atom_site_fract_x
_atom_site_fract_y
_atom_site_fract_z
Si Si1 0.886324 0.911974 0.092458
Si Si2 0.500000 0.368829 0.750000
Si Si3 0.001230 0.202194 0.475505
Si Si4 0.318510 0.067604 0.127789
Si Si5 0.705132 0.064667 0.838621
Si Si6 0.428380 0.835926 0.994270
O O1 0.760324 0.927589 0.206406
O O2 0.095811 0.935650 0.106338
O O3 0.804358 0.933430 0.979325
O O4 0.904684 0.839299 0.075876
O O5 0.543529 0.325557 0.642615
O O6 0.320508 0.413412 0.762101
O O7 0.222582 0.186021 0.471467
O O8 0.965176 0.273048 0.491276
O O9 0.471905 0.119693 0.100136
O O10 0.392369 0.999883 0.137415
O O11 0.594759 0.121797 0.895189
#
# Coordination Sequence:
#
# PCOD9272550 Si02
#       6
#     8   4   8   8   8   8
#     4   9  20  37  60  81 115 157 197 239 284 350
#     4  10  22  38  62  84 112 154 196 236 286 350
#     4   9  21  41  59  85 115 153 195 238 294 347
#     4  11  22  37  58  88 116 151 196 242 290 347
#     4  10  20  37  58  84 117 158 192 235 297 347
#     4  10  22  38  59  86 121 149 190 247 291 345
#
# _framework density 23.467245999999999
#
# number of rings (size 3 to 8) (size 9 to 14) (size 15 to 20)
#    0.000    2.182    0.000    2.182    0.000   10.182 
#    0.000    5.455    0.000    0.000    0.000    0.000 
#    0.000    0.000    0.000    0.000    0.000    0.000 
#
# Total GULP energy -123031.216471 kJ/mol
# GULP energy per Si atom -5592.328021 kJ/mol
# Density = 2.341383 g / cm^3
# Si number density = 23.467246 Si / 1000 Ang^3
#
#
#
# Elastic Constant Matrix: (Units=GPa)
#
#
# Indices 1 2 3 4 5 6 
#
# 1 68.2152 29.0774 11.5398 0.0000 8.4631 0.0000
# 2 29.0774 226.2304 48.0565 0.0000 -22.0766 0.0000
# 3 11.5398 48.0565 67.0913 0.0000 -17.3066 0.0000
# 4 0.0000 0.0000 0.0000 16.4908 0.0000 -16.5090
# 5 8.4631 -22.0766 -17.3066 0.0000 38.0961 0.0000
# 6 0.0000 0.0000 0.0000 -16.5090 0.0000 21.3027
#
#
#
# Elastic Compliance Matrix: (Units=1/GPa)
#
#
# Indices 1 2 3 4 5 6 
#
# 1 0.016873 -0.002152 -0.003001 0.000000 -0.006359 0.000000
# 2 -0.002152 0.005565 -0.003014 0.000000 0.002334 0.000000
# 3 -0.003001 -0.003014 0.019598 0.000000 0.007823 0.000000
# 4 0.000000 0.000000 0.000000 0.270502 0.000000 0.209632
# 5 -0.006359 0.002334 0.007823 0.000000 0.032568 0.000000
# 6 0.000000 0.000000 0.000000 0.209632 0.000000 0.209401
#
#
# Mechanical properties :
#
#
# Convention : Reuss Voigt Hill
#
# Bulk Modulus (GPa) = 38.90673 59.87602 49.39138
# Shear Modulus (GPa) = 8.62948 33.36881 20.99914
#
# Velocity S-wave (km/s) = 1.91969 3.77494 2.99461
# Velocity P-wave (km/s) = 4.63991 6.67610 5.74888
#
# Compressibility (1/GPa) = 0.02570249
#
# Stress axis : x y z
#
# Youngs Moduli (GPa) = 59.26532 179.70176 51.02511
#
# Poissons Ratio (x) = 0.38666 0.15314
# Poissons Ratio (y) = 0.12752 0.15378
# Poissons Ratio (z) = 0.17787 0.54160
#
# Static dielectric constant tensor:
#      x y z
#    x 1.993670 0.000000 0.008000 
#    y 0.000000 1.866540 0.000000 
#    z 0.008000 0.000000 1.832250 
# 
# From -- ./inp_files/78106.got.cif
#   From: 2010.05.17/outbox.cif.g08.bks.cpg/sg15_40_cif.got.tgz:78106.got - 2010.06.03 18:47:42.
