data_PCOD9272761
_publ_section_title
;
Structure prediction by ZEFSAII (Michael W. Deem and Ramdas Pophale) SiO2 
 PCOD9272761
Probable space group: C 2/C
;
_chemical_formula_sum "Si O2"
_cell_formula_units_Z 48
_cell_length_a 11.781036
_cell_length_b 24.869930
_cell_length_c 8.457936
_cell_angle_alpha 90.000000
_cell_angle_beta 65.318200
_cell_angle_gamma 90.000000
_cell_volume 2251.721665
_symmetry_space_group_name_H-M "C 2/C"
_symmetry_group_IT_number 15
_symmetry_cell_setting 'monoclinic'
loop_
_space_group_symop_operation_xyz
x,y,z
-x,y,1/2-z
-x,-y,-z
x,-y,1/2+z
1/2+x,1/2+y,z
1/2-x,1/2+y,1/2-z
1/2-x,1/2-y,-z
1/2+x,1/2-y,1/2+z
loop_
_atom_site_type_symbol
_atom_site_label
_atom_site_fract_x
_atom_site_fract_y
_atom_site_fract_z
Si Si1 0.500000 0.869416 0.250000
Si Si2 0.077428 0.897180 0.539107
Si Si3 0.914372 0.425034 0.004213
Si Si4 0.274875 0.485058 0.890332
Si Si5 0.233934 0.312118 0.969956
Si Si6 0.000000 0.068426 0.750000
Si Si7 0.693668 0.107371 0.227713
O O1 0.420285 0.906963 0.180444
O O2 0.598508 0.832008 0.104592
O O3 0.177089 0.946118 0.498302
O O4 0.157954 0.843333 0.499444
O O5 0.000000 0.899926 0.750000
O O6 0.004220 0.901064 0.416301
O O7 0.858009 0.484689 0.014250
O O8 0.821730 0.388975 0.950412
O O9 0.054560 0.411225 0.865788
O O10 0.379642 0.530047 0.814759
O O11 0.270298 0.444342 0.744026
O O12 0.250000 0.250000 0.000000
O O13 0.238538 0.338908 0.790706
#
# Coordination Sequence:
#
# PCOD9272761 Si02
#       7
#     4   8   8   8   8   4   8
#     4  10  22  42  61  94 121 156 214 260 310 378
#     4  11  25  42  61  94 130 169 214 257 310 381
#     4  10  20  37  60  86 127 164 199 253 301 371
#     4  11  21  35  59  91 129 171 205 244 304 377
#     4  10  23  44  67  88 118 158 209 273 323 367
#     4  12  24  38  59  92 133 172 206 244 312 382
#     4   9  21  38  60  89 120 162 208 248 311 368
#
# _framework density 21.317022999999999
#
# number of rings (size 3 to 8) (size 9 to 14) (size 15 to 20)
#    0.000    1.667    0.833    3.000    5.833    4.000 
#    0.000    4.167    0.000    0.000    0.000    0.000 
#    0.000    0.000    0.000    0.000    0.000    0.000 
#
# Total GULP energy -133915.719766 kJ/mol
# GULP energy per Si atom -5579.821657 kJ/mol
# Density = 2.126850 g / cm^3
# Si number density = 21.317023 Si / 1000 Ang^3
#
#
#
# Elastic Constant Matrix: (Units=GPa)
#
#
# Indices 1 2 3 4 5 6 
#
# 1 127.8812 62.0141 52.9699 0.0000 28.1206 0.0000
# 2 62.0141 145.9567 45.2082 0.0000 20.4967 0.0000
# 3 52.9699 45.2082 88.2739 0.0000 30.8106 0.0000
# 4 0.0000 0.0000 0.0000 13.8039 0.0000 -2.5731
# 5 28.1206 20.4967 30.8106 0.0000 54.8415 0.0000
# 6 0.0000 0.0000 0.0000 -2.5731 0.0000 28.4072
#
#
#
# Elastic Compliance Matrix: (Units=1/GPa)
#
#
# Indices 1 2 3 4 5 6 
#
# 1 0.011818 -0.003271 -0.004637 0.000000 -0.002232 0.000000
# 2 -0.003271 0.009082 -0.002599 0.000000 -0.000257 0.000000
# 3 -0.004637 -0.002599 0.017754 0.000000 -0.006626 0.000000
# 4 0.000000 0.000000 0.000000 0.073687 0.000000 0.006675
# 5 -0.002232 -0.000257 -0.006626 0.000000 0.023197 0.000000
# 6 0.000000 0.000000 0.000000 0.006675 0.000000 0.035807
#
#
# Mechanical properties :
#
#
# Convention : Reuss Voigt Hill
#
# Bulk Modulus (GPa) = 56.68822 75.83291 66.26056
# Shear Modulus (GPa) = 25.22198 32.87184 29.04691
#
# Velocity S-wave (km/s) = 3.44348 3.93115 3.69537
# Velocity P-wave (km/s) = 6.51619 7.50042 7.02556
#
# Compressibility (1/GPa) = 0.01764035
#
# Stress axis : x y z
#
# Youngs Moduli (GPa) = 84.61929 110.10442 56.32454
#
# Poissons Ratio (x) = 0.36020 0.26117
# Poissons Ratio (y) = 0.27683 0.14636
# Poissons Ratio (z) = 0.39237 0.28611
#
# Static dielectric constant tensor:
#      x y z
#    x 1.837550 0.000000 -0.007220 
#    y 0.000000 1.729780 0.000000 
#    z -0.007220 0.000000 1.930920 
# 
# From -- ./inp_files/32572.got.cif
#   From: 2010.05.17/outbox.cif.g08.bks.cpg/sg15_17_cif.got.tgz:32572.got - 2010.06.03 18:47:42.
