data_PCOD9272715
_publ_section_title
;
Structure prediction by ZEFSAII (Michael W. Deem and Ramdas Pophale) SiO2 
 PCOD9272715
Probable space group: C 2/C
;
_chemical_formula_sum "Si O2"
_cell_formula_units_Z 56
_cell_length_a 23.497947
_cell_length_b 18.567582
_cell_length_c 8.450261
_cell_angle_alpha 90.000000
_cell_angle_beta 51.872728
_cell_angle_gamma 90.000000
_cell_volume 2900.227726
_symmetry_space_group_name_H-M "C 2/C"
_symmetry_group_IT_number 15
_symmetry_cell_setting 'monoclinic'
loop_
_space_group_symop_operation_xyz
x,y,z
-x,y,1/2-z
-x,-y,-z
x,-y,1/2+z
1/2+x,1/2+y,z
1/2-x,1/2+y,1/2-z
1/2-x,1/2-y,-z
1/2+x,1/2-y,1/2+z
loop_
_atom_site_type_symbol
_atom_site_label
_atom_site_fract_x
_atom_site_fract_y
_atom_site_fract_z
Si Si1 0.820624 0.981561 0.371506
Si Si2 0.646345 0.757452 0.159143
Si Si3 0.012105 0.806885 0.046758
Si Si4 0.747671 0.368695 0.585998
Si Si5 0.644310 0.732897 0.786810
Si Si6 0.728920 0.137220 0.084360
Si Si7 0.427882 0.460828 0.458789
O O1 0.748786 0.935940 0.458884
O O2 0.862241 0.948035 0.449997
O O3 0.792457 0.063859 0.425671
O O4 0.888256 0.982184 0.136589
O O5 0.565943 0.744586 0.358836
O O6 0.693648 0.699364 0.173680
O O7 0.680954 0.836478 0.120976
O O8 0.655021 0.738443 0.957839
O O9 0.046570 0.887504 0.998779
O O10 0.000000 0.785245 0.250000
O O11 0.933196 0.802029 0.107589
O O12 0.766748 0.382035 0.736477
O O13 0.657587 0.813464 0.693489
O O14 0.705059 0.686377 0.593391
O O15 0.500000 0.489015 0.250000
#
# Coordination Sequence:
#
# PCOD9272715 Si02
#       7
#     8   8   8   8   8   8   8
#     4  12  21  39  57  82 120 161 192 238 295 355
#     4  10  20  37  60  84 111 150 208 245 296 349
#     4  11  21  40  57  83 122 153 190 246 298 345
#     4  10  21  38  56  83 117 153 197 255 290 345
#     4  10  22  36  62  82 109 156 200 250 289 351
#     4  10  21  39  56  84 115 150 203 246 294 343
#     4  11  24  37  53  82 123 163 191 232 289 355
#
# _framework density 19.308827999999998
#
# number of rings (size 3 to 8) (size 9 to 14) (size 15 to 20)
#    0.000    1.429    2.857    3.429    2.000    1.143 
#    0.000    0.000    0.000    0.857    0.000    0.000 
#    0.000    0.000    0.000    0.000    0.000    0.000 
#
# Total GULP energy -155943.653805 kJ/mol
# GULP energy per Si atom -5569.416207 kJ/mol
# Density = 1.926488 g / cm^3
# Si number density = 19.308828 Si / 1000 Ang^3
#
#
#
# Elastic Constant Matrix: (Units=GPa)
#
#
# Indices 1 2 3 4 5 6 
#
# 1 44.9621 12.9529 1.1147 0.0000 -3.5422 0.0000
# 2 12.9529 79.6166 33.8499 0.0000 -9.5863 0.0000
# 3 1.1147 33.8499 70.4943 0.0000 -19.3701 0.0000
# 4 0.0000 0.0000 0.0000 26.5062 0.0000 -9.7983
# 5 -3.5422 -9.5863 -19.3701 0.0000 12.9418 0.0000
# 6 0.0000 0.0000 0.0000 -9.7983 0.0000 15.8495
#
#
#
# Elastic Compliance Matrix: (Units=1/GPa)
#
#
# Indices 1 2 3 4 5 6 
#
# 1 0.024282 -0.004713 0.004664 0.000000 0.010136 0.000000
# 2 -0.004713 0.016700 -0.008323 0.000000 -0.001377 0.000000
# 3 0.004664 -0.008323 0.028476 0.000000 0.037732 0.000000
# 4 0.000000 0.000000 0.000000 0.048903 0.000000 0.030232
# 5 0.010136 -0.001377 0.037732 0.000000 0.135498 0.000000
# 6 0.000000 0.000000 0.000000 0.030232 0.000000 0.081783
#
#
# Mechanical properties :
#
#
# Convention : Reuss Voigt Hill
#
# Bulk Modulus (GPa) = 18.97010 32.32310 25.64660
# Shear Modulus (GPa) = 13.51515 20.86985 17.19250
#
# Velocity S-wave (km/s) = 2.64852 3.29119 2.98719
# Velocity P-wave (km/s) = 4.38164 5.58739 5.02084
#
# Compressibility (1/GPa) = 0.05271453
#
# Stress axis : x y z
#
# Youngs Moduli (GPa) = 41.18345 59.88149 35.11725
#
# Poissons Ratio (x) = 0.28222 -0.16379
# Poissons Ratio (y) = 0.19410 0.29227
# Poissons Ratio (z) = -0.19209 0.49837
#
# Static dielectric constant tensor:
#      x y z
#    x 1.763010 0.000000 0.059050 
#    y 0.000000 1.752030 0.000000 
#    z 0.059050 0.000000 1.757440 
# 
# From -- ./inp_files/62690.got.cif
#   From: 2010.05.17/outbox.cif.g08.bks.cpg/sg15_32_cif.got.tgz:62690.got - 2010.06.03 18:47:42.
