data_PCOD9272000
_publ_section_title
;
Structure prediction by ZEFSAII (Michael W. Deem and Ramdas Pophale) SiO2 
 PCOD9272000
Probable space group: C 2/C
;
_chemical_formula_sum "Si O2"
_cell_formula_units_Z 52
_cell_length_a 20.446077
_cell_length_b 15.593134
_cell_length_c 18.215628
_cell_angle_alpha 90.000000
_cell_angle_beta 152.525670
_cell_angle_gamma 90.000000
_cell_volume 2679.286595
_symmetry_space_group_name_H-M "C 2/C"
_symmetry_group_IT_number 15
_symmetry_cell_setting 'monoclinic'
loop_
_space_group_symop_operation_xyz
x,y,z
-x,y,1/2-z
-x,-y,-z
x,-y,1/2+z
1/2+x,1/2+y,z
1/2-x,1/2+y,1/2-z
1/2-x,1/2-y,-z
1/2+x,1/2-y,1/2+z
loop_
_atom_site_type_symbol
_atom_site_label
_atom_site_fract_x
_atom_site_fract_y
_atom_site_fract_z
Si Si1 0.005720 0.306507 0.613218
Si Si2 0.339018 0.664290 0.076725
Si Si3 0.721567 0.018745 0.063167
Si Si4 0.317304 0.357906 0.235965
Si Si5 0.078301 0.349658 0.524927
Si Si6 0.751389 0.175933 0.831409
Si Si7 0.000000 0.590376 0.250000
O O1 0.060465 0.209393 0.661697
O O2 0.067734 0.354178 0.602759
O O3 0.053234 0.350072 0.736206
O O4 0.835250 0.315408 0.437639
O O5 0.500000 0.687922 0.250000
O O6 0.298231 0.591918 0.093820
O O7 0.250000 0.750000 0.000000
O O8 0.307702 0.635711 0.962458
O O9 0.630869 0.065036 0.036887
O O10 0.822834 0.947825 0.200009
O O11 0.618095 0.969166 0.904473
O O12 0.307725 0.369662 0.314033
O O13 0.185435 0.272316 0.611624
O O14 0.919434 0.325440 0.340300
#
# Coordination Sequence:
#
# PCOD9272000 Si02
#       7
#     8   8   8   8   8   8   4
#     4   9  20  39  62  87 117 158 200 234 304 351
#     4  12  25  40  61  90 122 159 194 241 302 356
#     4  11  23  37  59  91 123 147 205 251 286 344
#     4   9  21  41  62  87 117 156 202 244 285 357
#     4  10  20  36  63  85 115 155 201 243 284 357
#     4  10  20  37  63  83 116 162 196 233 303 350
#     4  10  22  38  62  90 118 158 198 244 296 348
#
# _framework density 19.408151
#
# number of rings (size 3 to 8) (size 9 to 14) (size 15 to 20)
#    0.000    1.846    1.538    1.846    1.077    9.231 
#    4.154    0.769    0.000    0.000    0.000    0.000 
#    0.000    0.000    0.000    0.000    0.000    0.000 
#
# Total GULP energy -145206.163919 kJ/mol
# GULP energy per Si atom -5584.852458 kJ/mol
# Density = 1.936398 g / cm^3
# Si number density = 19.408151 Si / 1000 Ang^3
#
#
#
# Elastic Constant Matrix: (Units=GPa)
#
#
# Indices 1 2 3 4 5 6 
#
# 1 106.5047 65.5083 56.2570 0.0002 -20.2744 0.0002
# 2 65.5083 96.2051 47.2857 0.0002 -5.2278 0.0002
# 3 56.2570 47.2857 78.1102 0.0001 -18.7089 0.0003
# 4 0.0002 0.0002 0.0001 10.4698 0.0000 -12.8244
# 5 -20.2744 -5.2278 -18.7089 0.0000 34.3130 0.0001
# 6 0.0002 0.0002 0.0003 -12.8244 0.0001 28.6728
#
#
#
# Elastic Compliance Matrix: (Units=1/GPa)
#
#
# Indices 1 2 3 4 5 6 
#
# 1 0.020757 -0.010277 -0.007092 0.000000 0.006832 0.000000
# 2 -0.010277 0.020164 -0.006353 0.000000 -0.006464 0.000000
# 3 -0.007092 -0.006353 0.023603 -0.000001 0.007711 0.000000
# 4 0.000000 0.000000 -0.000001 0.211243 -0.000001 0.094482
# 5 0.006832 -0.006464 0.007711 -0.000001 0.036400 -0.000001
# 6 0.000000 0.000000 0.000000 0.094482 -0.000001 0.077135
#
#
# Mechanical properties :
#
#
# Convention : Reuss Voigt Hill
#
# Bulk Modulus (GPa) = 58.54854 68.76912 63.65883
# Shear Modulus (GPa) = 11.30100 22.14239 16.72170
#
# Velocity S-wave (km/s) = 2.41567 3.38136 2.93845
# Velocity P-wave (km/s) = 6.16547 7.12424 6.66213
#
# Compressibility (1/GPa) = 0.01707985
#
# Stress axis : x y z
#
# Youngs Moduli (GPa) = 48.17684 49.59451 42.36719
#
# Poissons Ratio (x) = 0.50967 0.30047
# Poissons Ratio (y) = 0.49510 0.26916
# Poissons Ratio (z) = 0.34167 0.31508
#
# Static dielectric constant tensor:
#      x y z
#    x 1.704550 0.000000 -0.019820 
#    y 0.000000 1.704030 0.000000 
#    z -0.019820 0.000000 1.670590 
# 
# From -- ./inp_files/215576.got.cif
#   From: 2010.05.17/outbox.cif.g08.bks.cpg/sg15_108_cif.got.tgz:215576.got - 2010.06.03 18:47:42.
