data_PCOD9272481
_publ_section_title
;
Structure prediction by ZEFSAII (Michael W. Deem and Ramdas Pophale) SiO2 
 PCOD9272481
Probable space group: C 2/C
;
_chemical_formula_sum "Si O2"
_cell_formula_units_Z 56
_cell_length_a 9.107393
_cell_length_b 10.822495
_cell_length_c 29.134491
_cell_angle_alpha 90.000000
_cell_angle_beta 126.026849
_cell_angle_gamma 90.000000
_cell_volume 2322.408531
_symmetry_space_group_name_H-M "C 2/C"
_symmetry_group_IT_number 15
_symmetry_cell_setting 'monoclinic'
loop_
_space_group_symop_operation_xyz
x,y,z
-x,y,1/2-z
-x,-y,-z
x,-y,1/2+z
1/2+x,1/2+y,z
1/2-x,1/2+y,1/2-z
1/2-x,1/2-y,-z
1/2+x,1/2-y,1/2+z
loop_
_atom_site_type_symbol
_atom_site_label
_atom_site_fract_x
_atom_site_fract_y
_atom_site_fract_z
Si Si1 0.635776 0.129418 0.966468
Si Si2 0.558989 0.539091 0.635267
Si Si3 0.679804 0.338511 0.251631
Si Si4 0.679119 0.471389 0.563410
Si Si5 0.782273 0.895331 0.718646
Si Si6 0.816342 0.516795 0.432139
Si Si7 0.988771 0.700300 0.090777
O O1 0.690898 0.086306 0.926083
O O2 0.420619 0.104999 0.933204
O O3 0.750000 0.250000 0.000000
O O4 0.703496 0.030220 0.017013
O O5 0.654628 0.601877 0.695872
O O6 0.654384 0.459515 0.613556
O O7 0.384131 0.472712 0.624109
O O8 0.485725 0.653931 0.591530
O O9 0.500000 0.322652 0.250000
O O10 0.757527 0.200919 0.257020
O O11 0.776400 0.459822 0.290353
O O12 0.500000 0.500000 0.500000
O O13 0.793159 0.354232 0.567130
O O14 0.641379 0.842308 0.655528
O O15 0.000000 0.893526 0.750000
O O16 0.934508 0.636180 0.440398
#
# Coordination Sequence:
#
# PCOD9272481 Si02
#       7
#     8   8   8   8   8   8   8
#     4  10  21  36  55  82 116 161 209 251 300 354
#     4  11  23  40  65  91 125 168 208 264 325 377
#     4  10  23  42  66  98 127 165 211 267 334 396
#     4  11  23  40  59  91 127 165 215 255 306 379
#     4  10  22  43  68  95 130 167 209 270 334 391
#     4  10  20  37  57  83 119 158 204 253 298 367
#     4  10  24  41  61  95 128 162 212 264 317 384
#
# _framework density 24.112898999999999
#
# number of rings (size 3 to 8) (size 9 to 14) (size 15 to 20)
#    0.000    1.714    1.429    2.571    2.000    5.714 
#    0.000    4.286    0.000    0.000    0.000    0.000 
#    0.000    0.000    0.000    0.000    0.000    0.000 
#
# Total GULP energy -155981.088318 kJ/mol
# GULP energy per Si atom -5570.753154 kJ/mol
# Density = 2.405802 g / cm^3
# Si number density = 24.112899 Si / 1000 Ang^3
#
#
#
# Elastic Constant Matrix: (Units=GPa)
#
#
# Indices 1 2 3 4 5 6 
#
# 1 118.3464 22.2320 16.3991 0.0000 -11.2538 0.0000
# 2 22.2320 76.8961 -15.2604 0.0000 -0.8419 0.0000
# 3 16.3991 -15.2604 62.6929 0.0000 -1.0451 0.0000
# 4 0.0000 0.0000 0.0000 30.2982 0.0000 -3.8595
# 5 -11.2538 -0.8419 -1.0451 0.0000 23.8127 0.0000
# 6 0.0000 0.0000 0.0000 -3.8595 0.0000 26.2099
#
#
#
# Elastic Compliance Matrix: (Units=1/GPa)
#
#
# Indices 1 2 3 4 5 6 
#
# 1 0.010005 -0.003519 -0.003399 0.000000 0.004455 0.000000
# 2 -0.003519 0.014911 0.004534 0.000000 -0.000937 0.000000
# 3 -0.003399 0.004534 0.017933 0.000000 -0.000659 0.000000
# 4 0.000000 0.000000 0.000000 0.033636 0.000000 0.004953
# 5 0.004455 -0.000937 -0.000659 0.000000 0.044038 0.000000
# 6 0.000000 0.000000 0.000000 0.004953 0.000000 0.038883
#
#
# Mechanical properties :
#
#
# Convention : Reuss Voigt Hill
#
# Bulk Modulus (GPa) = 26.25876 33.85296 30.05586
# Shear Modulus (GPa) = 28.26973 31.70183 29.98578
#
# Velocity S-wave (km/s) = 3.42773 3.62985 3.53024
# Velocity P-wave (km/s) = 5.15552 5.62473 5.39523
#
# Compressibility (1/GPa) = 0.03808253
#
# Stress axis : x y z
#
# Youngs Moduli (GPa) = 99.94570 67.06250 55.76391
#
# Poissons Ratio (x) = 0.23597 0.18956
# Poissons Ratio (y) = 0.35167 -0.25286
# Poissons Ratio (z) = 0.33976 -0.30409
#
# Static dielectric constant tensor:
#      x y z
#    x 2.018670 0.000000 -0.023580 
#    y 0.000000 1.971040 0.000000 
#    z -0.023580 0.000000 2.072570 
# 
# From -- ./inp_files/307547.got.cif
#   From: 2010.05.17/outbox.cif.g08.bks.cpg/sg15_154_cif.got.tgz:307547.got - 2010.06.03 18:47:42.
