data_PCOD9272020
_publ_section_title
;
Structure prediction by ZEFSAII (Michael W. Deem and Ramdas Pophale) SiO2 
 PCOD9272020
Probable space group: C 2/C
;
_chemical_formula_sum "Si O2"
_cell_formula_units_Z 36
_cell_length_a 13.803499
_cell_length_b 7.376104
_cell_length_c 25.945809
_cell_angle_alpha 90.000000
_cell_angle_beta 32.160423
_cell_angle_gamma 90.000000
_cell_volume 1406.154637
_symmetry_space_group_name_H-M "C 2/C"
_symmetry_group_IT_number 15
_symmetry_cell_setting 'monoclinic'
loop_
_space_group_symop_operation_xyz
x,y,z
-x,y,1/2-z
-x,-y,-z
x,-y,1/2+z
1/2+x,1/2+y,z
1/2-x,1/2+y,1/2-z
1/2-x,1/2-y,-z
1/2+x,1/2-y,1/2+z
loop_
_atom_site_type_symbol
_atom_site_label
_atom_site_fract_x
_atom_site_fract_y
_atom_site_fract_z
Si Si1 0.572818 0.335848 0.885742
Si Si2 0.345825 0.233579 0.354439
Si Si3 0.595010 0.999332 0.013426
Si Si4 0.687956 0.731281 0.819049
Si Si5 0.500000 0.889127 0.250000
O O1 0.680453 0.317583 0.891127
O O2 0.569111 0.548137 0.876165
O O3 0.700467 0.252949 0.783637
O O4 0.397789 0.208578 0.971953
O O5 0.500000 0.328420 0.250000
O O6 0.432873 0.034125 0.324334
O O7 0.272308 0.375022 0.428710
O O8 0.448952 0.104124 0.113527
O O9 0.500000 0.000000 0.000000
O O10 0.835702 0.721277 0.799023
#
# Coordination Sequence:
#
# PCOD9272020 Si02
#       5
#     8   8   8   8   4
#     4  10  20  36  63  89 120 162 198 245 310 349
#     4   8  18  39  59  85 119 162 197 243 305 350
#     4  10  21  37  64  92 118 164 202 242 310 363
#     4  11  20  40  62  90 125 157 203 249 298 370
#     4   8  20  36  60  88 122 158 200 248 306 340
#
# _framework density 25.601735999999999
#
# number of rings (size 3 to 8) (size 9 to 14) (size 15 to 20)
#    0.667    1.778    2.222    0.000    0.000    8.000 
#    8.000    4.444    0.000   10.667    0.000    0.000 
#    0.000    0.000    0.000    0.000    0.000    0.000 
#
# Total GULP energy -100544.857728 kJ/mol
# GULP energy per Si atom -5585.825429 kJ/mol
# Density = 2.554346 g / cm^3
# Si number density = 25.601736 Si / 1000 Ang^3
#
#
#
# Elastic Constant Matrix: (Units=GPa)
#
#
# Indices 1 2 3 4 5 6 
#
# 1 104.9138 24.0211 0.4195 0.0001 -10.4754 0.0002
# 2 24.0211 76.1263 0.1385 0.0002 -2.3075 0.0005
# 3 0.4195 0.1385 44.3681 0.0000 -0.6149 0.0000
# 4 0.0001 0.0002 0.0000 17.4900 0.0000 13.9750
# 5 -10.4754 -2.3075 -0.6149 0.0000 25.6398 0.0001
# 6 0.0002 0.0005 0.0000 13.9750 0.0001 4.6776
#
#
#
# Elastic Compliance Matrix: (Units=1/GPa)
#
#
# Indices 1 2 3 4 5 6 
#
# 1 0.010682 -0.003247 -0.000034 0.000000 0.004071 0.000000
# 2 -0.003247 0.014159 -0.000014 -0.000001 -0.000053 0.000001
# 3 -0.000034 -0.000014 0.022546 0.000000 0.000525 0.000000
# 4 0.000000 -0.000001 0.000000 -0.041216 0.000000 0.123139
# 5 0.004071 -0.000053 0.000525 0.000000 0.040673 0.000000
# 6 0.000000 0.000001 0.000000 0.123139 0.000000 -0.154110
#
#
# Mechanical properties :
#
#
# Convention : Reuss Voigt Hill
#
# Bulk Modulus (GPa) = 24.51241 30.50738 27.50990
# Shear Modulus (GPa) = -57.42095 22.95008 -17.23543
#
# Velocity S-wave (km/s) = -4.74102 2.99729 -2.59745
# Velocity P-wave (km/s) = 4.51379 4.89084 1.33154
#
# Compressibility (1/GPa) = 0.04079566
#
# Stress axis : x y z
#
# Youngs Moduli (GPa) = 93.61794 70.62606 44.35307
#
# Poissons Ratio (x) = 0.22933 0.00153
# Poissons Ratio (y) = 0.30398 0.00063
# Poissons Ratio (z) = 0.00322 0.00101
#
# Static dielectric constant tensor:
#      x y z
#    x 1.999970 0.000000 0.030950 
#    y 0.000000 2.041370 0.000000 
#    z 0.030950 0.000000 2.037630 
# 
# From -- ./inp_files/315211.got.cif
#   From: 2010.05.17/outbox.cif.g08.bks.cpg/sg15_158_cif.got.tgz:315211.got - 2010.06.03 18:47:42.
