data_PCOD9272043
_publ_section_title
;
Structure prediction by ZEFSAII (Michael W. Deem and Ramdas Pophale) SiO2 
 PCOD9272043
Probable space group: C 2/C
;
_chemical_formula_sum "Si O2"
_cell_formula_units_Z 44
_cell_length_a 13.015084
_cell_length_b 17.751796
_cell_length_c 9.380099
_cell_angle_alpha 90.000000
_cell_angle_beta 74.547441
_cell_angle_gamma 90.000000
_cell_volume 2088.847703
_symmetry_space_group_name_H-M "C 2/C"
_symmetry_group_IT_number 15
_symmetry_cell_setting 'monoclinic'
loop_
_space_group_symop_operation_xyz
x,y,z
-x,y,1/2-z
-x,-y,-z
x,-y,1/2+z
1/2+x,1/2+y,z
1/2-x,1/2+y,1/2-z
1/2-x,1/2-y,-z
1/2+x,1/2-y,1/2+z
loop_
_atom_site_type_symbol
_atom_site_label
_atom_site_fract_x
_atom_site_fract_y
_atom_site_fract_z
Si Si1 0.000000 0.284750 0.750000
Si Si2 0.033684 0.112129 0.390075
Si Si3 0.879246 0.605990 0.451238
Si Si4 0.653227 0.665568 0.604892
Si Si5 0.145812 0.046802 0.842411
Si Si6 0.616239 0.024387 0.760688
O O1 0.022202 0.338203 0.606756
O O2 0.103777 0.231552 0.719062
O O3 0.091770 0.167163 0.478179
O O4 0.000000 0.143123 0.250000
O O5 0.929318 0.081524 0.509710
O O6 0.112446 0.040304 0.340352
O O7 0.777588 0.657457 0.526514
O O8 0.886609 0.542475 0.570138
O O9 0.870896 0.559975 0.306274
O O10 0.625493 0.588531 0.699718
O O11 0.270678 0.059424 0.830098
O O12 0.500000 0.051041 0.750000
#
# Coordination Sequence:
#
# PCOD9272043 Si02
#       6
#     4   8   8   8   8   8
#     4  12  24  44  64  88 140 176 214 238 322 412
#     4  11  20  33  61  97 125 159 212 277 323 353
#     4  11  25  42  71  96 123 173 213 273 314 373
#     4  11  22  42  64  93 129 171 213 252 325 396
#     4  10  20  36  63  92 128 164 207 277 315 367
#     4  11  23  41  66 100 125 159 223 272 322 361
#
# _framework density 21.064245
#
# number of rings (size 3 to 8) (size 9 to 14) (size 15 to 20)
#    0.000    1.091    4.545    3.273    2.545    0.000 
#    0.000    0.909    0.000    3.273    0.000    0.000 
#    0.000    0.000    0.000    0.000    0.000    0.000 
#
# Total GULP energy -122651.113273 kJ/mol
# GULP energy per Si atom -5575.050603 kJ/mol
# Density = 2.101630 g / cm^3
# Si number density = 21.064245 Si / 1000 Ang^3
#
#
#
# Elastic Constant Matrix: (Units=GPa)
#
#
# Indices 1 2 3 4 5 6 
#
# 1 139.5947 16.2478 60.0980 0.0000 -22.3422 0.0000
# 2 16.2478 60.3838 46.5022 0.0000 -15.3759 0.0000
# 3 60.0980 46.5022 106.1609 0.0000 -14.1161 0.0000
# 4 0.0000 0.0000 0.0000 27.0109 0.0000 -21.2472
# 5 -22.3422 -15.3759 -14.1161 0.0000 30.2467 0.0000
# 6 0.0000 0.0000 0.0000 -21.2472 0.0000 21.8852
#
#
#
# Elastic Compliance Matrix: (Units=1/GPa)
#
#
# Indices 1 2 3 4 5 6 
#
# 1 0.010816 0.004301 -0.007094 0.000000 0.006865 0.000000
# 2 0.004301 0.028711 -0.013485 0.000000 0.011479 0.000000
# 3 -0.007094 -0.013485 0.018908 0.000000 -0.003271 0.000000
# 4 0.000000 0.000000 0.000000 0.156666 0.000000 0.152100
# 5 0.006865 0.011479 -0.003271 0.000000 0.042441 0.000000
# 6 0.000000 0.000000 0.000000 0.152100 0.000000 0.193359
#
#
# Mechanical properties :
#
#
# Convention : Reuss Voigt Hill
#
# Bulk Modulus (GPa) = 38.64197 61.31503 49.97850
# Shear Modulus (GPa) = 10.16088 28.04799 19.10443
#
# Velocity S-wave (km/s) = 2.19869 3.65299 3.01485
# Velocity P-wave (km/s) = 4.98300 6.85305 5.99143
#
# Compressibility (1/GPa) = 0.02587860
#
# Stress axis : x y z
#
# Youngs Moduli (GPa) = 92.45709 34.82940 52.88883
#
# Poissons Ratio (x) = -0.14980 0.37519
# Poissons Ratio (y) = -0.39766 0.71321
# Poissons Ratio (z) = 0.65589 0.46968
#
# Static dielectric constant tensor:
#      x y z
#    x 1.789110 0.000000 -0.012400 
#    y 0.000000 1.802810 0.000000 
#    z -0.012400 0.000000 1.766480 
# 
# From -- ./inp_files/30877.got.cif
#   From: 2010.05.17/outbox.cif.g08.bks.cpg/sg15_16_cif.got.tgz:30877.got - 2010.06.03 18:47:42.
