data_PCOD9272773
_publ_section_title
;
Structure prediction by ZEFSAII (Michael W. Deem and Ramdas Pophale) SiO2 
 PCOD9272773
Probable space group: C 2/C
;
_chemical_formula_sum "Si O2"
_cell_formula_units_Z 56
_cell_length_a 16.924892
_cell_length_b 31.877635
_cell_length_c 8.960038
_cell_angle_alpha 90.000000
_cell_angle_beta 145.603152
_cell_angle_gamma 90.000000
_cell_volume 2730.926678
_symmetry_space_group_name_H-M "C 2/C"
_symmetry_group_IT_number 15
_symmetry_cell_setting 'monoclinic'
loop_
_space_group_symop_operation_xyz
x,y,z
-x,y,1/2-z
-x,-y,-z
x,-y,1/2+z
1/2+x,1/2+y,z
1/2-x,1/2+y,1/2-z
1/2-x,1/2-y,-z
1/2+x,1/2-y,1/2+z
loop_
_atom_site_type_symbol
_atom_site_label
_atom_site_fract_x
_atom_site_fract_y
_atom_site_fract_z
Si Si1 0.432933 0.215374 0.477768
Si Si2 0.835544 0.229822 0.271544
Si Si3 0.092126 0.140515 0.035090
Si Si4 0.088030 0.619933 0.040047
Si Si5 0.215352 0.004547 0.273408
Si Si6 0.522064 0.565435 0.121403
Si Si7 0.889591 0.465451 0.779175
O O1 0.500000 0.218344 0.750000
O O2 0.271869 0.228716 0.255933
O O3 0.521998 0.243732 0.504908
O O4 0.447676 0.166534 0.458701
O O5 0.877860 0.181165 0.316133
O O6 0.750000 0.250000 0.000000
O O7 0.246013 0.123296 0.233767
O O8 0.009875 0.102608 0.984777
O O9 0.000000 0.154109 0.750000
O O10 0.061846 0.581535 0.110966
O O11 0.000000 0.612395 0.750000
O O12 0.258350 0.026035 0.186334
O O13 0.167003 0.041369 0.310932
O O14 0.339271 0.977375 0.537012
O O15 0.091248 0.971476 0.063175
O O16 0.500000 0.584043 0.250000
O O17 0.000000 0.500000 0.000000
#
# Coordination Sequence:
#
# PCOD9272773 Si02
#       7
#     8   8   8   8   8   8   8
#     4   8  16  32  58  86 114 156 206 255 307 377
#     4   9  18  36  60  91 124 165 212 257 321 389
#     4  11  23  40  66  97 128 165 217 270 323 390
#     4  10  20  37  60  87 121 173 218 255 321 394
#     4  11  23  40  57  89 122 162 215 263 321 370
#     4  11  23  38  62  90 124 163 207 271 324 374
#     4  12  23  38  60  85 124 169 217 264 312 382
#
# _framework density 20.505859999999998
#
# number of rings (size 3 to 8) (size 9 to 14) (size 15 to 20)
#    0.000    1.714    2.857    3.000    0.000    1.714 
#    0.000    4.286    0.000    3.429    0.000    0.000 
#    0.000    0.000    0.000    0.000    0.000    0.000 
#
# Total GULP energy -156140.213404 kJ/mol
# GULP energy per Si atom -5576.436193 kJ/mol
# Density = 2.045919 g / cm^3
# Si number density = 20.505860 Si / 1000 Ang^3
#
#
#
# Elastic Constant Matrix: (Units=GPa)
#
#
# Indices 1 2 3 4 5 6 
#
# 1 56.1389 35.2229 0.1757 0.0000 12.0107 0.0000
# 2 35.2229 127.6327 -0.5989 0.0000 4.9735 0.0000
# 3 0.1757 -0.5989 46.7715 0.0000 4.1529 0.0000
# 4 0.0000 0.0000 0.0000 25.1638 0.0000 0.8708
# 5 12.0107 4.9735 4.1529 0.0000 26.6970 0.0000
# 6 0.0000 0.0000 0.0000 0.8708 0.0000 35.1274
#
#
#
# Elastic Compliance Matrix: (Units=1/GPa)
#
#
# Indices 1 2 3 4 5 6 
#
# 1 0.023747 -0.006175 0.000688 0.000000 -0.009640 0.000000
# 2 -0.006175 0.009500 0.000056 0.000000 0.000999 0.000000
# 3 0.000688 0.000056 0.021707 0.000000 -0.003697 0.000000
# 4 0.000000 0.000000 0.000000 0.039774 0.000000 -0.000986
# 5 -0.009640 0.000999 -0.003697 0.000000 0.042183 0.000000
# 6 0.000000 0.000000 0.000000 -0.000986 0.000000 0.028492
#
#
# Mechanical properties :
#
#
# Convention : Reuss Voigt Hill
#
# Bulk Modulus (GPa) = 22.67938 33.34917 28.01428
# Shear Modulus (GPa) = 26.18304 30.44723 28.31513
#
# Velocity S-wave (km/s) = 3.57719 3.85750 3.71999
# Velocity P-wave (km/s) = 5.30525 6.01157 5.66942
#
# Compressibility (1/GPa) = 0.04409292
#
# Stress axis : x y z
#
# Youngs Moduli (GPa) = 42.10973 105.25940 46.06834
#
# Poissons Ratio (x) = 0.64995 -0.03168
# Poissons Ratio (y) = 0.26002 -0.00258
# Poissons Ratio (z) = -0.02896 -0.00591
#
# Static dielectric constant tensor:
#      x y z
#    x 1.685900 0.000000 -0.025820 
#    y 0.000000 1.720710 0.000000 
#    z -0.025820 0.000000 1.715880 
# 
# From -- ./inp_files/52666.got.cif
#   From: 2010.05.17/outbox.cif.g08.bks.cpg/sg15_27_cif.got.tgz:52666.got - 2010.06.03 18:47:42.
