data_PCOD9272240
_publ_section_title
;
Structure prediction by ZEFSAII (Michael W. Deem and Ramdas Pophale) SiO2 
 PCOD9272240
Probable space group: C 2/C
;
_chemical_formula_sum "Si O2"
_cell_formula_units_Z 28
_cell_length_a 24.430186
_cell_length_b 8.361234
_cell_length_c 11.350882
_cell_angle_alpha 90.000000
_cell_angle_beta 29.255025
_cell_angle_gamma 90.000000
_cell_volume 1133.097049
_symmetry_space_group_name_H-M "C 2/C"
_symmetry_group_IT_number 15
_symmetry_cell_setting 'monoclinic'
loop_
_space_group_symop_operation_xyz
x,y,z
-x,y,1/2-z
-x,-y,-z
x,-y,1/2+z
1/2+x,1/2+y,z
1/2-x,1/2+y,1/2-z
1/2-x,1/2-y,-z
1/2+x,1/2-y,1/2+z
loop_
_atom_site_type_symbol
_atom_site_label
_atom_site_fract_x
_atom_site_fract_y
_atom_site_fract_z
Si Si1 0.090605 0.678657 0.374665
Si Si2 0.882186 0.196735 0.925177
Si Si3 0.000000 0.111351 0.250000
Si Si4 0.335306 0.833601 0.251005
O O1 0.145148 0.731060 0.148448
O O2 0.073911 0.792508 0.518112
O O3 0.161834 0.523681 0.279877
O O4 0.959007 0.670987 0.580788
O O5 0.000000 0.275323 0.750000
O O6 0.814780 0.236402 0.168586
O O7 0.916508 0.012525 0.841870
O O8 0.250000 0.750000 0.500000
#
# Coordination Sequence:
#
# PCOD9272240 Si02
#       4
#     8   8   4   8
#     4  10  21  39  67  88 128 180 212 272 344 387
#     4   8  19  38  59  89 127 170 219 266 325 401
#     4  10  20  36  66  90 122 176 224 256 338 404
#     4  10  22  40  61  93 130 167 230 275 325 400
#
# _framework density 24.711033
#
# number of rings (size 3 to 8) (size 9 to 14) (size 15 to 20)
#    0.857    1.714    0.000    0.857   10.000    0.000 
#    5.143    1.429    0.000    0.000    0.000    0.000 
#    0.000    0.000    0.000    0.000    0.000    0.000 
#
# Total GULP energy -77986.718088 kJ/mol
# GULP energy per Si atom -5570.479863 kJ/mol
# Density = 2.465479 g / cm^3
# Si number density = 24.711033 Si / 1000 Ang^3
#
#
#
# Elastic Constant Matrix: (Units=GPa)
#
#
# Indices 1 2 3 4 5 6 
#
# 1 81.2980 15.8855 55.4620 0.0000 -23.6410 0.0000
# 2 15.8855 100.3368 47.5766 0.0000 6.0859 0.0000
# 3 55.4620 47.5766 161.7111 0.0000 30.2758 0.0000
# 4 0.0000 0.0000 0.0000 39.5258 0.0000 16.8967
# 5 -23.6410 6.0859 30.2758 0.0000 51.7994 0.0000
# 6 0.0000 0.0000 0.0000 16.8967 0.0000 13.4102
#
#
#
# Elastic Compliance Matrix: (Units=1/GPa)
#
#
# Indices 1 2 3 4 5 6 
#
# 1 0.026949 0.000786 -0.013204 0.000000 0.019924 0.000000
# 2 0.000786 0.011628 -0.003932 0.000000 0.001291 0.000000
# 3 -0.013204 -0.003932 0.014498 0.000000 -0.014038 0.000000
# 4 0.000000 0.000000 0.000000 0.054836 0.000000 -0.069093
# 5 0.019924 0.001291 -0.014038 0.000000 0.036452 0.000000
# 6 0.000000 0.000000 0.000000 -0.069093 0.000000 0.161626
#
#
# Mechanical properties :
#
#
# Convention : Reuss Voigt Hill
#
# Bulk Modulus (GPa) = 49.08337 64.57713 56.83025
# Shear Modulus (GPa) = 14.47257 35.90851 25.19054
#
# Velocity S-wave (km/s) = 2.42269 3.81614 3.19628
# Velocity P-wave (km/s) = 5.26612 6.75329 6.05553
#
# Compressibility (1/GPa) = 0.02037350
#
# Stress axis : x y z
#
# Youngs Moduli (GPa) = 37.10755 85.99702 68.97704
#
# Poissons Ratio (x) = -0.06758 0.91078
# Poissons Ratio (y) = -0.02916 0.27124
# Poissons Ratio (z) = 0.48997 0.33817
#
# Static dielectric constant tensor:
#      x y z
#    x 2.091840 0.000000 -0.177620 
#    y 0.000000 2.059170 0.000000 
#    z -0.177620 0.000000 2.074980 
# 
# From -- ./inp_files/121272.got.cif
#   From: 2010.05.17/outbox.cif.g08.bks.cpg/sg15_61_cif.got.tgz:121272.got - 2010.06.03 18:47:42.
