data_PCOD9272876
_publ_section_title
;
Structure prediction by ZEFSAII (Michael W. Deem and Ramdas Pophale) SiO2 
 PCOD9272876
Probable space group: C 2/C
;
_chemical_formula_sum "Si O2"
_cell_formula_units_Z 48
_cell_length_a 11.174803
_cell_length_b 15.179025
_cell_length_c 27.767257
_cell_angle_alpha 90.000000
_cell_angle_beta 151.935204
_cell_angle_gamma 90.000000
_cell_volume 2215.891412
_symmetry_space_group_name_H-M "C 2/C"
_symmetry_group_IT_number 15
_symmetry_cell_setting 'monoclinic'
loop_
_space_group_symop_operation_xyz
x,y,z
-x,y,1/2-z
-x,-y,-z
x,-y,1/2+z
1/2+x,1/2+y,z
1/2-x,1/2+y,1/2-z
1/2-x,1/2-y,-z
1/2+x,1/2-y,1/2+z
loop_
_atom_site_type_symbol
_atom_site_label
_atom_site_fract_x
_atom_site_fract_y
_atom_site_fract_z
Si Si1 0.929328 0.832666 0.886860
Si Si2 0.097034 0.965414 0.101017
Si Si3 0.026223 0.617615 0.823348
Si Si4 0.633235 0.671628 0.750364
Si Si5 0.732825 0.841895 0.022368
Si Si6 0.694348 0.786563 0.561603
O O1 0.143580 0.837152 0.921092
O O2 0.705209 0.773580 0.784792
O O3 0.016612 0.776040 0.964571
O O4 0.873917 0.931826 0.880537
O O5 0.220888 0.939759 0.093654
O O6 0.303939 0.918531 0.210246
O O7 0.830308 0.920095 0.021585
O O8 0.896666 0.623984 0.829659
O O9 0.116985 0.717408 0.845442
O O10 0.500000 0.634464 0.750000
O O11 0.437938 0.663047 0.637877
O O12 0.750000 0.750000 0.000000
O O13 0.464688 0.841814 0.955936
#
# Coordination Sequence:
#
# PCOD9272876 Si02
#       6
#     8   8   8   8   8   8
#     4  10  22  38  61  90 113 154 202 253 284 350
#     4  10  21  37  57  87 124 152 193 247 299 346
#     4   9  20  35  56  84 118 151 187 247 292 345
#     4  10  20  37  61  85 114 164 201 233 297 364
#     4  11  21  37  60  89 122 160 194 239 304 363
#     4  10  20  39  62  84 117 154 202 239 297 349
#
# _framework density 21.661709999999999
#
# number of rings (size 3 to 8) (size 9 to 14) (size 15 to 20)
#    0.000    2.000    3.333    0.000    2.333    1.333 
#    3.000    0.000    0.000    0.000    0.000    0.000 
#    0.000    0.000    0.000    0.000    0.000    0.000 
#
# Total GULP energy -133824.475613 kJ/mol
# GULP energy per Si atom -5576.019817 kJ/mol
# Density = 2.161241 g / cm^3
# Si number density = 21.661710 Si / 1000 Ang^3
#
#
#
# Elastic Constant Matrix: (Units=GPa)
#
#
# Indices 1 2 3 4 5 6 
#
# 1 172.4879 39.8550 6.9896 -0.0001 42.9847 0.0000
# 2 39.8550 69.4968 -5.5944 -0.0001 13.9898 -0.0001
# 3 6.9896 -5.5944 32.6261 -0.0010 2.0842 -0.0002
# 4 -0.0001 -0.0001 -0.0010 10.4851 0.0000 4.3755
# 5 42.9847 13.9898 2.0842 0.0000 38.0155 0.0000
# 6 0.0000 -0.0001 -0.0002 4.3755 0.0000 28.8509
#
#
#
# Elastic Compliance Matrix: (Units=1/GPa)
#
#
# Indices 1 2 3 4 5 6 
#
# 1 0.008821 -0.003487 -0.001939 0.000000 -0.008585 0.000000
# 2 -0.003487 0.017225 0.003867 0.000001 -0.002608 0.000000
# 3 -0.001939 0.003867 0.031791 0.000003 -0.000973 0.000000
# 4 0.000000 0.000001 0.000003 0.101817 0.000000 -0.015442
# 5 -0.008585 -0.002608 -0.000973 0.000000 0.037025 0.000000
# 6 0.000000 0.000000 0.000000 -0.015442 0.000000 0.037003
#
#
# Mechanical properties :
#
#
# Convention : Reuss Voigt Hill
#
# Bulk Modulus (GPa) = 18.27496 39.67902 28.97699
# Shear Modulus (GPa) = 19.60476 31.02768 25.31622
#
# Velocity S-wave (km/s) = 3.01166 3.78878 3.42235
# Velocity P-wave (km/s) = 4.53302 6.12349 5.38727
#
# Compressibility (1/GPa) = 0.05471968
#
# Stress axis : x y z
#
# Youngs Moduli (GPa) = 113.36489 58.05488 31.45542
#
# Poissons Ratio (x) = 0.20242 0.06100
# Poissons Ratio (y) = 0.39527 -0.12164
# Poissons Ratio (z) = 0.21984 -0.22451
#
# Static dielectric constant tensor:
#      x y z
#    x 1.904680 0.000000 0.017380 
#    y 0.000000 1.738800 0.000000 
#    z 0.017380 0.000000 1.854070 
# 
# From -- ./inp_files/143446.got.cif
#   From: 2010.05.17/outbox.cif.g08.bks.cpg/sg15_72_cif.got.tgz:143446.got - 2010.06.03 18:47:42.
