data_PCOD9272194
_publ_section_title
;
Structure prediction by ZEFSAII (Michael W. Deem and Ramdas Pophale) SiO2 
 PCOD9272194
Probable space group: C 2/C
;
_chemical_formula_sum "Si O2"
_cell_formula_units_Z 64
_cell_length_a 29.324117
_cell_length_b 13.233891
_cell_length_c 9.293664
_cell_angle_alpha 90.000000
_cell_angle_beta 50.075429
_cell_angle_gamma 90.000000
_cell_volume 2765.874932
_symmetry_space_group_name_H-M "C 2/C"
_symmetry_group_IT_number 15
_symmetry_cell_setting 'monoclinic'
loop_
_space_group_symop_operation_xyz
x,y,z
-x,y,1/2-z
-x,-y,-z
x,-y,1/2+z
1/2+x,1/2+y,z
1/2-x,1/2+y,1/2-z
1/2-x,1/2-y,-z
1/2+x,1/2-y,1/2+z
loop_
_atom_site_type_symbol
_atom_site_label
_atom_site_fract_x
_atom_site_fract_y
_atom_site_fract_z
Si Si1 0.485546 0.866901 0.114619
Si Si2 0.295267 0.181949 0.993100
Si Si3 0.116363 0.452014 0.363951
Si Si4 0.781057 0.986259 0.312839
Si Si5 0.870137 0.981936 0.384778
Si Si6 0.415405 0.284964 0.190196
Si Si7 0.662582 0.114632 0.066161
Si Si8 0.896886 0.806274 0.898205
O O1 0.500000 0.907810 0.250000
O O2 0.447613 0.938160 0.083068
O O3 0.442523 0.774388 0.244341
O O4 0.537348 0.807949 0.920778
O O5 0.258760 0.086805 0.124015
O O6 0.250000 0.250000 0.000000
O O7 0.342750 0.135806 0.785526
O O8 0.332755 0.252138 0.022911
O O9 0.146688 0.554431 0.245151
O O10 0.123107 0.438551 0.520440
O O11 0.811607 0.969179 0.404281
O O12 0.731544 0.900522 0.386675
O O13 0.838862 0.001436 0.100144
O O14 0.915922 0.889242 0.279084
O O15 0.898694 0.091997 0.301534
O O16 0.357420 0.228366 0.369525
O O17 0.411586 0.322745 0.034448
#
# Coordination Sequence:
#
# PCOD9272194 Si02
#       8
#     8   8   8   8   8   8   8   8
#     4   9  22  46  71  97 131 175 226 288 343 392
#     4  10  20  36  65  91 130 175 217 268 335 405
#     4  10  24  43  68 100 135 174 218 283 340 409
#     4  11  24  39  61  98 139 173 218 275 342 403
#     4  12  24  41  64  97 134 179 224 271 335 404
#     4  11  26  43  67  96 133 176 235 283 326 406
#     4  11  26  43  68 103 138 174 225 277 344 409
#     4  10  22  42  67  96 131 176 226 278 347 395
#
# _framework density 23.139150999999998
#
# number of rings (size 3 to 8) (size 9 to 14) (size 15 to 20)
#    0.000    1.500    2.500    1.500   10.500    2.000 
#    0.000    0.000    0.000    0.000    0.000    0.000 
#    0.000    0.000    0.000    0.000    0.000    0.000 
#
# Total GULP energy -178605.472844 kJ/mol
# GULP energy per Si atom -5581.421026 kJ/mol
# Density = 2.308649 g / cm^3
# Si number density = 23.139151 Si / 1000 Ang^3
#
#
#
# Elastic Constant Matrix: (Units=GPa)
#
#
# Indices 1 2 3 4 5 6 
#
# 1 49.9333 -12.2042 -11.5562 0.0000 -1.5676 0.0000
# 2 -12.2042 32.9058 -0.1196 0.0000 5.9289 0.0000
# 3 -11.5562 -0.1196 40.4020 0.0000 -2.7187 0.0000
# 4 0.0000 0.0000 0.0000 21.4528 0.0000 0.2444
# 5 -1.5676 5.9289 -2.7187 0.0000 24.0967 0.0000
# 6 0.0000 0.0000 0.0000 0.2444 0.0000 23.2705
#
#
#
# Elastic Compliance Matrix: (Units=1/GPa)
#
#
# Indices 1 2 3 4 5 6 
#
# 1 0.023767 0.008813 0.006834 0.000000 0.000149 0.000000
# 2 0.008813 0.035075 0.002098 0.000000 -0.007820 0.000000
# 3 0.006834 0.002098 0.026912 0.000000 0.002965 0.000000
# 4 0.000000 0.000000 0.000000 0.046619 0.000000 -0.000490
# 5 0.000149 -0.007820 0.002965 0.000000 0.043768 0.000000
# 6 0.000000 0.000000 0.000000 -0.000490 0.000000 0.042978
#
#
# Mechanical properties :
#
#
# Convention : Reuss Voigt Hill
#
# Bulk Modulus (GPa) = 8.24780 8.38678 8.31729
# Shear Modulus (GPa) = 22.31714 23.57207 22.94461
#
# Velocity S-wave (km/s) = 3.10897 3.19519 3.15237
# Velocity P-wave (km/s) = 4.05706 4.15267 4.10514
#
# Compressibility (1/GPa) = 0.12124439
#
# Stress axis : x y z
#
# Youngs Moduli (GPa) = 42.07522 28.51038 37.15848
#
# Poissons Ratio (x) = -0.25126 -0.25395
# Poissons Ratio (y) = -0.37080 -0.07797
# Poissons Ratio (z) = -0.28755 -0.05983
#
# Static dielectric constant tensor:
#      x y z
#    x 1.898190 0.000000 -0.041960 
#    y 0.000000 1.208420 0.000000 
#    z -0.041960 0.000000 1.895460 
# 
# From -- ./inp_files/70138.got.cif
#   From: 2010.05.17/outbox.cif.g08.bks.cpg/sg15_36_cif.got.tgz:70138.got - 2010.06.03 18:47:42.
