data_PCOD9272077
_publ_section_title
;
Structure prediction by ZEFSAII (Michael W. Deem and Ramdas Pophale) SiO2 
 PCOD9272077
Probable space group: C 2/C
;
_chemical_formula_sum "Si O2"
_cell_formula_units_Z 48
_cell_length_a 19.598651
_cell_length_b 12.699495
_cell_length_c 11.579286
_cell_angle_alpha 90.000000
_cell_angle_beta 135.505883
_cell_angle_gamma 90.000000
_cell_volume 2019.811450
_symmetry_space_group_name_H-M "C 2/C"
_symmetry_group_IT_number 15
_symmetry_cell_setting 'monoclinic'
loop_
_space_group_symop_operation_xyz
x,y,z
-x,y,1/2-z
-x,-y,-z
x,-y,1/2+z
1/2+x,1/2+y,z
1/2-x,1/2+y,1/2-z
1/2-x,1/2-y,-z
1/2+x,1/2-y,1/2+z
loop_
_atom_site_type_symbol
_atom_site_label
_atom_site_fract_x
_atom_site_fract_y
_atom_site_fract_z
Si Si1 0.832934 0.852520 0.489597
Si Si2 0.050978 0.481680 0.688668
Si Si3 0.379935 0.429275 0.307708
Si Si4 0.117968 0.714125 0.750474
Si Si5 0.418112 0.643230 0.481318
Si Si6 0.239672 0.088813 0.040867
O O1 0.885340 0.863750 0.431722
O O2 0.894092 0.797120 0.661978
O O3 0.732741 0.788070 0.357868
O O4 0.800945 0.970392 0.484775
O O5 0.088743 0.600129 0.758808
O O6 0.147561 0.409681 0.790855
O O7 0.000000 0.449263 0.750000
O O8 0.000000 0.500000 0.500000
O O9 0.379770 0.551174 0.347245
O O10 0.477657 0.403047 0.354876
O O11 0.284405 0.397287 0.122519
O O12 0.066369 0.750785 0.571677
O O13 0.334179 0.658327 0.473680
#
# Coordination Sequence:
#
# PCOD9272077 Si02
#       6
#     8   8   8   8   8   8
#     4   9  20  35  64  93 127 173 224 282 335 401
#     4  11  28  46  74 101 136 190 238 287 343 412
#     4  10  20  36  63  97 132 176 216 275 350 411
#     4  10  21  41  64  99 132 175 234 283 334 414
#     4  10  21  36  63  96 136 171 222 277 348 410
#     4  10  21  41  67  90 138 171 227 274 354 404
#
# _framework density 23.764593999999999
#
# number of rings (size 3 to 8) (size 9 to 14) (size 15 to 20)
#    0.000    2.000    1.667    0.500    9.333    0.000 
#    0.000    2.500    0.000    0.000    0.000    0.000 
#    0.000    0.000    0.000    0.000    0.000    0.000 
#
# Total GULP energy -133980.728309 kJ/mol
# GULP energy per Si atom -5582.530346 kJ/mol
# Density = 2.371051 g / cm^3
# Si number density = 23.764594 Si / 1000 Ang^3
#
#
#
# Elastic Constant Matrix: (Units=GPa)
#
#
# Indices 1 2 3 4 5 6 
#
# 1 114.5703 11.7440 25.9747 0.0000 -4.3436 0.0000
# 2 11.7440 19.6078 -12.8529 0.0000 -1.8920 0.0000
# 3 25.9747 -12.8529 95.4978 0.0000 -6.4697 0.0000
# 4 0.0000 0.0000 0.0000 19.4872 0.0000 -3.7403
# 5 -4.3436 -1.8920 -6.4697 0.0000 31.9732 0.0000
# 6 0.0000 0.0000 0.0000 -3.7403 0.0000 18.7564
#
#
#
# Elastic Compliance Matrix: (Units=1/GPa)
#
#
# Indices 1 2 3 4 5 6 
#
# 1 0.010581 -0.009007 -0.004085 0.000000 0.000078 0.000000
# 2 -0.009007 0.064371 0.011446 0.000000 0.004901 0.000000
# 3 -0.004085 0.011446 0.013314 0.000000 0.002816 0.000000
# 4 0.000000 0.000000 0.000000 0.053358 0.000000 0.010640
# 5 0.000078 0.004901 0.002816 0.000000 0.032147 0.000000
# 6 0.000000 0.000000 0.000000 0.010640 0.000000 0.055437
#
#
# Mechanical properties :
#
#
# Convention : Reuss Voigt Hill
#
# Bulk Modulus (GPa) = 11.76865 31.04530 21.40697
# Shear Modulus (GPa) = 19.17003 27.69737 23.43370
#
# Velocity S-wave (km/s) = 2.84326 3.41763 3.14359
# Velocity P-wave (km/s) = 3.96759 5.35403 4.71208
#
# Compressibility (1/GPa) = 0.08497154
#
# Stress axis : x y z
#
# Youngs Moduli (GPa) = 94.51251 15.53505 75.11037
#
# Poissons Ratio (x) = 0.13993 0.30682
# Poissons Ratio (y) = 0.85131 -0.85968
# Poissons Ratio (z) = 0.38607 -0.17781
#
# Static dielectric constant tensor:
#      x y z
#    x 1.926220 0.000000 -0.015620 
#    y 0.000000 1.904120 0.000000 
#    z -0.015620 0.000000 1.942640 
# 
# From -- ./inp_files/112990.got.cif
#   From: 2010.05.17/outbox.cif.g08.bks.cpg/sg15_57_cif.got.tgz:112990.got - 2010.06.03 18:47:42.
