data_PCOD9272125
_publ_section_title
;
Structure prediction by ZEFSAII (Michael W. Deem and Ramdas Pophale) SiO2 
 PCOD9272125
Probable space group: C 2/C
;
_chemical_formula_sum "Si O2"
_cell_formula_units_Z 56
_cell_length_a 18.078613
_cell_length_b 11.464486
_cell_length_c 13.692348
_cell_angle_alpha 90.000000
_cell_angle_beta 125.756519
_cell_angle_gamma 90.000000
_cell_volume 2302.979987
_symmetry_space_group_name_H-M "C 2/C"
_symmetry_group_IT_number 15
_symmetry_cell_setting 'monoclinic'
loop_
_space_group_symop_operation_xyz
x,y,z
-x,y,1/2-z
-x,-y,-z
x,-y,1/2+z
1/2+x,1/2+y,z
1/2-x,1/2+y,1/2-z
1/2-x,1/2-y,-z
1/2+x,1/2-y,1/2+z
loop_
_atom_site_type_symbol
_atom_site_label
_atom_site_fract_x
_atom_site_fract_y
_atom_site_fract_z
Si Si1 0.188282 0.983214 0.965090
Si Si2 0.850125 0.426721 0.944121
Si Si3 0.589717 0.717335 0.635803
Si Si4 0.431216 0.853217 0.565619
Si Si5 0.000000 0.125943 0.250000
Si Si6 0.750000 0.750000 0.000000
Si Si7 0.069632 0.175090 0.101366
Si Si8 0.285617 0.531201 0.794578
O O1 0.263785 0.930060 0.950039
O O2 0.086535 0.949730 0.852659
O O3 0.198611 0.122517 0.978964
O O4 0.209490 0.934879 0.089163
O O5 0.880186 0.302544 0.928301
O O6 0.928683 0.508242 0.049046
O O7 0.811128 0.491849 0.818178
O O8 0.529695 0.796806 0.661187
O O9 0.515960 0.630535 0.530226
O O10 0.674050 0.640628 0.736375
O O11 0.347822 0.818456 0.568618
O O12 0.405674 0.789298 0.441983
O O13 0.964294 0.197223 0.315559
O O14 0.149317 0.081165 0.166991
#
# Coordination Sequence:
#
# PCOD9272125 Si02
#       8
#     8   8   8   8   4   4   8   8
#     4  11  23  39  62  93 131 161 221 262 318 385
#     4  11  25  40  62  98 128 173 215 258 336 382
#     4  10  23  40  67  88 131 174 209 268 328 378
#     4   9  21  41  65  89 131 168 211 265 325 387
#     4  12  22  40  66 100 122 168 214 272 320 386
#     4  10  20  36  64  90 122 170 208 268 312 378
#     4  10  22  40  66  92 126 166 214 263 325 378
#     4  12  23  41  65  95 126 166 222 274 312 380
#
# _framework density 24.316322
#
# number of rings (size 3 to 8) (size 9 to 14) (size 15 to 20)
#    0.857    0.571    4.286    0.857    4.000    0.571 
#    2.571    0.000    0.000    7.714    0.000    0.000 
#    0.000    0.000    0.000    0.000    0.000    0.000 
#
# Total GULP energy -155933.277557 kJ/mol
# GULP energy per Si atom -5569.045627 kJ/mol
# Density = 2.426098 g / cm^3
# Si number density = 24.316322 Si / 1000 Ang^3
#
#
#
# Elastic Constant Matrix: (Units=GPa)
#
#
# Indices 1 2 3 4 5 6 
#
# 1 49.2268 16.5295 37.5206 0.0000 -1.6180 0.0000
# 2 16.5295 92.0298 -2.0199 0.0000 12.6663 0.0000
# 3 37.5206 -2.0199 76.4062 0.0000 -5.0335 0.0000
# 4 0.0000 0.0000 0.0000 14.5718 0.0000 10.2770
# 5 -1.6180 12.6663 -5.0335 0.0000 25.2643 0.0000
# 6 0.0000 0.0000 0.0000 10.2770 0.0000 27.4333
#
#
#
# Elastic Compliance Matrix: (Units=1/GPa)
#
#
# Indices 1 2 3 4 5 6 
#
# 1 0.036546 -0.007291 -0.017980 0.000000 0.002414 0.000000
# 2 -0.007291 0.013126 0.003509 0.000000 -0.006349 0.000000
# 3 -0.017980 0.003509 0.022109 0.000000 0.001494 0.000000
# 4 0.000000 0.000000 0.000000 0.093267 0.000000 -0.034939
# 5 0.002414 -0.006349 0.001494 0.000000 0.043217 0.000000
# 6 0.000000 0.000000 0.000000 -0.034939 0.000000 0.049541
#
#
# Mechanical properties :
#
#
# Convention : Reuss Voigt Hill
#
# Bulk Modulus (GPa) = 35.38959 35.74704 35.56831
# Shear Modulus (GPa) = 16.09015 24.49607 20.29311
#
# Velocity S-wave (km/s) = 2.57515 3.17739 2.89199
# Velocity P-wave (km/s) = 4.84017 5.30978 5.08041
#
# Compressibility (1/GPa) = 0.02825690
#
# Stress axis : x y z
#
# Youngs Moduli (GPa) = 27.36258 76.18257 45.23099
#
# Poissons Ratio (x) = 0.55544 0.81327
# Poissons Ratio (y) = 0.19950 -0.15872
# Poissons Ratio (z) = 0.49199 -0.26733
#
# Static dielectric constant tensor:
#      x y z
#    x 1.924880 0.000000 -0.020510 
#    y 0.000000 1.867840 0.000000 
#    z -0.020510 0.000000 1.988100 
# 
# From -- ./inp_files/161457.got.cif
#   From: 2010.05.17/outbox.cif.g08.bks.cpg/sg15_81_cif.got.tgz:161457.got - 2010.06.03 18:47:42.
