data_PCOD9272495
_publ_section_title
;
Structure prediction by ZEFSAII (Michael W. Deem and Ramdas Pophale) SiO2 
 PCOD9272495
Probable space group: C 2/C
;
_chemical_formula_sum "Si O2"
_cell_formula_units_Z 48
_cell_length_a 30.999565
_cell_length_b 14.452080
_cell_length_c 10.078001
_cell_angle_alpha 90.000000
_cell_angle_beta 33.273625
_cell_angle_gamma 90.000000
_cell_volume 2477.115449
_symmetry_space_group_name_H-M "C 2/C"
_symmetry_group_IT_number 15
_symmetry_cell_setting 'monoclinic'
loop_
_space_group_symop_operation_xyz
x,y,z
-x,y,1/2-z
-x,-y,-z
x,-y,1/2+z
1/2+x,1/2+y,z
1/2-x,1/2+y,1/2-z
1/2-x,1/2-y,-z
1/2+x,1/2-y,1/2+z
loop_
_atom_site_type_symbol
_atom_site_label
_atom_site_fract_x
_atom_site_fract_y
_atom_site_fract_z
Si Si1 0.020215 0.901030 0.565090
Si Si2 0.614147 0.577843 0.295165
Si Si3 0.838841 0.202527 0.883319
Si Si4 0.293715 0.053534 0.729178
Si Si5 0.676147 0.255143 0.787257
Si Si6 0.702517 0.899517 0.583007
O O1 0.077945 0.846354 0.320534
O O2 0.939880 0.917521 0.695616
O O3 0.070868 0.991780 0.478023
O O4 0.000000 0.846708 0.750000
O O5 0.616312 0.672182 0.374891
O O6 0.704099 0.560939 0.017482
O O7 0.847931 0.307162 0.810207
O O8 0.800683 0.206192 0.127163
O O9 0.785182 0.144887 0.919719
O O10 0.341953 0.147030 0.640709
O O11 0.289826 0.049322 0.579011
O O12 0.326411 0.966504 0.726171
O O13 0.750000 0.250000 0.500000
#
# Coordination Sequence:
#
# PCOD9272495 Si02
#       6
#     8   8   8   8   8   8
#     4  11  23  35  53  84 117 155 190 223 287 349
#     4  10  22  33  55  82 118 148 187 232 279 345
#     4  10  21  37  55  81 119 151 187 236 285 339
#     4  10  20  37  57  86 112 149 188 238 288 339
#     4   9  21  36  55  83 113 150 192 232 286 339
#     4  10  21  35  59  83 113 149 189 238 291 330
#
# _framework density 19.377376999999999
#
# number of rings (size 3 to 8) (size 9 to 14) (size 15 to 20)
#    0.000    2.000    1.667    1.000    9.333    1.333 
#    0.000    0.000    0.000    1.000    0.000    0.000 
#    0.000    0.000    0.000    0.000    0.000    0.000 
#
# Total GULP energy -133642.273926 kJ/mol
# GULP energy per Si atom -5568.428080 kJ/mol
# Density = 1.933327 g / cm^3
# Si number density = 19.377377 Si / 1000 Ang^3
#
#
#
# Elastic Constant Matrix: (Units=GPa)
#
#
# Indices 1 2 3 4 5 6 
#
# 1 69.7815 54.3689 22.5355 0.0000 21.3803 0.0000
# 2 54.3689 106.5297 22.7432 0.0000 14.2939 0.0000
# 3 22.5355 22.7432 47.0915 0.0000 22.0343 0.0000
# 4 0.0000 0.0000 0.0000 12.6778 0.0000 11.4149
# 5 21.3803 14.2939 22.0343 0.0000 39.1298 0.0000
# 6 0.0000 0.0000 0.0000 11.4149 0.0000 27.6521
#
#
#
# Elastic Compliance Matrix: (Units=1/GPa)
#
#
# Indices 1 2 3 4 5 6 
#
# 1 0.027570 -0.012211 -0.003170 0.000000 -0.008818 0.000000
# 2 -0.012211 0.015925 -0.003052 0.000000 0.002573 0.000000
# 3 -0.003170 -0.003052 0.031084 0.000000 -0.014657 0.000000
# 4 0.000000 0.000000 0.000000 0.125538 0.000000 -0.051822
# 5 -0.008818 0.002573 -0.014657 0.000000 0.037688 0.000000
# 6 0.000000 0.000000 0.000000 -0.051822 0.000000 0.057556
#
#
# Mechanical properties :
#
#
# Convention : Reuss Voigt Hill
#
# Bulk Modulus (GPa) = 26.51506 46.96642 36.74074
# Shear Modulus (GPa) = 14.50129 24.14228 19.32178
#
# Velocity S-wave (km/s) = 2.73859 3.53356 3.16116
# Velocity P-wave (km/s) = 4.86960 6.39832 5.68557
#
# Compressibility (1/GPa) = 0.03771442
#
# Stress axis : x y z
#
# Youngs Moduli (GPa) = 36.27178 62.79367 32.17078
#
# Poissons Ratio (x) = 0.76674 0.10198
# Poissons Ratio (y) = 0.44290 0.09818
# Poissons Ratio (z) = 0.11498 0.19163
#
# Static dielectric constant tensor:
#      x y z
#    x 1.665130 0.000000 0.031630 
#    y 0.000000 1.754260 0.000000 
#    z 0.031630 0.000000 1.674920 
# 
# From -- ./inp_files/69836.got.cif
#   From: 2010.05.17/outbox.cif.g08.bks.cpg/sg15_35_cif.got.tgz:69836.got - 2010.06.03 18:47:42.
