data_PCOD9272656
_publ_section_title
;
Structure prediction by ZEFSAII (Michael W. Deem and Ramdas Pophale) SiO2 
 PCOD9272656
Probable space group: C 2/C
;
_chemical_formula_sum "Si O2"
_cell_formula_units_Z 60
_cell_length_a 9.253204
_cell_length_b 16.576508
_cell_length_c 27.398655
_cell_angle_alpha 90.000000
_cell_angle_beta 48.904413
_cell_angle_gamma 90.000000
_cell_volume 3167.111832
_symmetry_space_group_name_H-M "C 2/C"
_symmetry_group_IT_number 15
_symmetry_cell_setting 'monoclinic'
loop_
_space_group_symop_operation_xyz
x,y,z
-x,y,1/2-z
-x,-y,-z
x,-y,1/2+z
1/2+x,1/2+y,z
1/2-x,1/2+y,1/2-z
1/2-x,1/2-y,-z
1/2+x,1/2-y,1/2+z
loop_
_atom_site_type_symbol
_atom_site_label
_atom_site_fract_x
_atom_site_fract_y
_atom_site_fract_z
Si Si1 0.000000 0.784015 0.750000
Si Si2 0.090938 0.202693 0.847566
Si Si3 0.784312 0.204774 0.100323
Si Si4 0.534982 0.467443 0.378656
Si Si5 0.438923 0.781287 0.542094
Si Si6 0.709997 0.481995 0.931105
Si Si7 0.518625 0.653696 0.137735
Si Si8 0.883239 0.452990 0.984914
O O1 0.803508 0.734188 0.790625
O O2 0.993788 0.832934 0.801819
O O3 0.077256 0.109040 0.836079
O O4 0.060979 0.218379 0.912857
O O5 0.920507 0.252341 0.859764
O O6 0.773864 0.112684 0.083833
O O7 0.862706 0.197899 0.138137
O O8 0.937046 0.249042 0.030741
O O9 0.704656 0.472248 0.381141
O O10 0.502370 0.557875 0.366752
O O11 0.332992 0.445054 0.448356
O O12 0.223601 0.808565 0.576253
O O13 0.532655 0.864243 0.540579
O O14 0.500000 0.500000 0.000000
O O15 0.866725 0.500582 0.937430
O O16 0.000000 0.500000 0.000000
#
# Coordination Sequence:
#
# PCOD9272656 Si02
#       8
#     4   8   8   8   8   8   8   8
#     4  10  26  48  60  78 116 164 204 260 302 350
#     4  11  22  40  65  84 122 158 207 249 305 358
#     4  11  20  35  63  92 117 155 200 241 305 366
#     4  10  20  37  59  87 116 155 197 250 292 360
#     4  11  19  34  59  95 129 159 184 241 311 369
#     4   9  19  32  50  84 127 158 185 227 288 366
#     4  10  23  41  61  86 123 159 201 247 306 361
#     4  11  18  30  53  90 133 156 186 228 302 366
#
# _framework density 18.944704999999999
#
# number of rings (size 3 to 8) (size 9 to 14) (size 15 to 20)
#    0.000    1.600    4.000    2.400    0.000    0.533 
#    4.800    4.000    0.000    0.000    0.000    0.000 
#    0.000    0.000    0.000    0.000    0.000    0.000 
#
# Total GULP energy -167253.424949 kJ/mol
# GULP energy per Si atom -5575.114165 kJ/mol
# Density = 1.890159 g / cm^3
# Si number density = 18.944705 Si / 1000 Ang^3
#
#
#
# Elastic Constant Matrix: (Units=GPa)
#
#
# Indices 1 2 3 4 5 6 
#
# 1 151.5306 48.3683 32.3955 -0.0005 -5.8331 0.0001
# 2 48.3683 86.0634 13.9795 -0.0003 -16.7217 0.0001
# 3 32.3955 13.9795 51.0503 -0.0007 -12.9253 0.0004
# 4 -0.0005 -0.0003 -0.0007 3.1504 0.0004 0.0549
# 5 -5.8331 -16.7217 -12.9253 0.0004 17.1711 -0.0003
# 6 0.0001 0.0001 0.0004 0.0549 -0.0003 25.2851
#
#
#
# Elastic Compliance Matrix: (Units=1/GPa)
#
#
# Indices 1 2 3 4 5 6 
#
# 1 0.009472 -0.005670 -0.006228 0.000000 -0.006992 0.000000
# 2 -0.005670 0.017735 0.003245 -0.000001 0.017787 0.000000
# 3 -0.006228 0.003245 0.028313 0.000003 0.022356 0.000000
# 4 0.000000 -0.000001 0.000003 0.317435 -0.000006 -0.000689
# 5 -0.006992 0.017787 0.022356 -0.000006 0.090012 0.000001
# 6 0.000000 0.000000 0.000000 -0.000689 0.000001 0.039551
#
#
# Mechanical properties :
#
#
# Convention : Reuss Voigt Hill
#
# Bulk Modulus (GPa) = 26.16922 53.12565 39.64743
# Shear Modulus (GPa) = 9.38862 22.04805 15.71833
#
# Velocity S-wave (km/s) = 2.22858 3.41517 2.88357
# Velocity P-wave (km/s) = 4.52389 6.60716 5.66216
#
# Compressibility (1/GPa) = 0.03821284
#
# Stress axis : x y z
#
# Youngs Moduli (GPa) = 105.57986 56.38648 35.32006
#
# Poissons Ratio (x) = 0.31971 0.21998
# Poissons Ratio (y) = 0.59863 -0.11462
# Poissons Ratio (z) = 0.65756 -0.18298
#
# Static dielectric constant tensor:
#      x y z
#    x 1.701770 0.000000 0.021220 
#    y 0.000000 1.675160 0.000000 
#    z 0.021220 0.000000 1.671120 
# 
# From -- ./inp_files/289572.got.cif
#   From: 2010.05.17/outbox.cif.g08.bks.cpg/sg15_145_cif.got.tgz:289572.got - 2010.06.03 18:47:42.
