data_PCOD9272473
_publ_section_title
;
Structure prediction by ZEFSAII (Michael W. Deem and Ramdas Pophale) SiO2 
 PCOD9272473
Probable space group: C 2/C
;
_chemical_formula_sum "Si O2"
_cell_formula_units_Z 56
_cell_length_a 20.602711
_cell_length_b 5.115000
_cell_length_c 24.502781
_cell_angle_alpha 90.000000
_cell_angle_beta 75.278553
_cell_angle_gamma 90.000000
_cell_volume 2497.407523
_symmetry_space_group_name_H-M "C 2/C"
_symmetry_group_IT_number 15
_symmetry_cell_setting 'monoclinic'
loop_
_space_group_symop_operation_xyz
x,y,z
-x,y,1/2-z
-x,-y,-z
x,-y,1/2+z
1/2+x,1/2+y,z
1/2-x,1/2+y,1/2-z
1/2-x,1/2-y,-z
1/2+x,1/2-y,1/2+z
loop_
_atom_site_type_symbol
_atom_site_label
_atom_site_fract_x
_atom_site_fract_y
_atom_site_fract_z
Si Si1 0.225790 0.309014 0.823266
Si Si2 0.986670 0.241911 0.577849
Si Si3 0.417245 0.228345 0.545830
Si Si4 0.689764 0.595856 0.943882
Si Si5 0.596663 0.735000 0.632741
Si Si6 0.342258 0.229417 0.936233
Si Si7 0.316268 0.193083 0.286295
O O1 0.188751 0.235675 0.886230
O O2 0.260410 0.592071 0.815630
O O3 0.179163 0.283181 0.779893
O O4 0.285116 0.092315 0.804914
O O5 0.046517 0.287251 0.520644
O O6 0.020897 0.190195 0.628917
O O7 0.940217 0.492807 0.579066
O O8 0.947642 0.986957 0.567180
O O9 0.339205 0.302980 0.554866
O O10 0.766965 0.621293 0.944926
O O11 0.647063 0.729482 0.001484
O O12 0.642525 0.507648 0.595432
O O13 0.618633 0.753750 0.690960
O O14 0.613067 0.015214 0.602658
#
# Coordination Sequence:
#
# PCOD9272473 Si02
#       7
#     8   8   8   8   8   8   8
#     4  10  21  36  56  83 114 150 188 230 285 360
#     4  10  22  37  54  78 111 157 199 227 274 337
#     4  10  22  36  55  77 114 156 192 233 273 344
#     4  11  22  39  54  88 124 151 187 238 303 358
#     4  12  20  40  56  85 116 153 190 243 284 355
#     4  11  25  32  57  89 121 151 177 238 311 358
#     4  10  20  37  57  81 113 150 190 230 285 348
#
# _framework density 22.423251
#
# number of rings (size 3 to 8) (size 9 to 14) (size 15 to 20)
#    0.000    1.429    4.286    0.857    4.000    5.714 
#    0.000    0.000    0.000    0.857    0.000    2.000 
#    0.000    0.000    0.000    0.000    0.000    0.000 
#
# Total GULP energy -156561.878148 kJ/mol
# GULP energy per Si atom -5591.495648 kJ/mol
# Density = 2.237221 g / cm^3
# Si number density = 22.423251 Si / 1000 Ang^3
#
#
#
# Elastic Constant Matrix: (Units=GPa)
#
#
# Indices 1 2 3 4 5 6 
#
# 1 94.2270 22.2316 25.8857 0.0000 39.1004 0.0000
# 2 22.2316 96.3213 4.2562 -0.0004 9.2231 0.0002
# 3 25.8857 4.2562 93.2058 -0.0006 40.5237 -0.0002
# 4 0.0000 -0.0004 -0.0006 20.0939 -0.0003 0.2527
# 5 39.1004 9.2231 40.5237 -0.0003 41.3316 0.0000
# 6 0.0000 0.0002 -0.0002 0.2527 0.0000 36.1702
#
#
#
# Elastic Compliance Matrix: (Units=1/GPa)
#
#
# Indices 1 2 3 4 5 6 
#
# 1 0.018975 -0.002506 0.004194 0.000000 -0.021503 0.000000
# 2 -0.002506 0.010988 0.000400 0.000000 -0.000474 0.000000
# 3 0.004194 0.000400 0.019713 0.000000 -0.023384 0.000000
# 4 0.000000 0.000000 0.000000 0.049771 0.000000 -0.000348
# 5 -0.021503 -0.000474 -0.023384 0.000000 0.067569 0.000000
# 6 0.000000 0.000000 0.000000 -0.000348 0.000000 0.027650
#
#
# Mechanical properties :
#
#
# Convention : Reuss Voigt Hill
#
# Bulk Modulus (GPa) = 18.56975 43.16679 30.86827
# Shear Modulus (GPa) = 23.98783 34.94452 29.46617
#
# Velocity S-wave (km/s) = 3.27429 3.95195 3.62897
# Velocity P-wave (km/s) = 4.75332 6.33376 5.59958
#
# Compressibility (1/GPa) = 0.05385102
#
# Stress axis : x y z
#
# Youngs Moduli (GPa) = 52.70213 91.00877 50.72856
#
# Poissons Ratio (x) = 0.22805 -0.21273
# Poissons Ratio (y) = 0.13206 -0.02030
# Poissons Ratio (z) = -0.22101 -0.03642
#
# Static dielectric constant tensor:
#      x y z
#    x 1.878610 0.000000 0.022580 
#    y 0.000000 1.824080 0.000000 
#    z 0.022580 0.000000 1.820080 
# 
# From -- ./inp_files/299743.got.cif
#   From: 2010.05.17/outbox.cif.g08.bks.cpg/sg15_150_cif.got.tgz:299743.got - 2010.06.03 18:47:42.
