data_PCOD9272706
_publ_section_title
;
Structure prediction by ZEFSAII (Michael W. Deem and Ramdas Pophale) SiO2 
 PCOD9272706
Probable space group: C 2/C
;
_chemical_formula_sum "Si O2"
_cell_formula_units_Z 64
_cell_length_a 16.506086
_cell_length_b 13.157213
_cell_length_c 13.183365
_cell_angle_alpha 90.000000
_cell_angle_beta 70.845776
_cell_angle_gamma 90.000000
_cell_volume 2704.581491
_symmetry_space_group_name_H-M "C 2/C"
_symmetry_group_IT_number 15
_symmetry_cell_setting 'monoclinic'
loop_
_space_group_symop_operation_xyz
x,y,z
-x,y,1/2-z
-x,-y,-z
x,-y,1/2+z
1/2+x,1/2+y,z
1/2-x,1/2+y,1/2-z
1/2-x,1/2-y,-z
1/2+x,1/2-y,1/2+z
loop_
_atom_site_type_symbol
_atom_site_label
_atom_site_fract_x
_atom_site_fract_y
_atom_site_fract_z
Si Si1 0.606741 0.931186 0.601094
Si Si2 0.342367 0.004174 0.646272
Si Si3 0.714195 0.647231 0.461885
Si Si4 0.333944 0.534773 0.373229
Si Si5 0.038647 0.313844 0.910431
Si Si6 0.601303 0.618071 0.967395
Si Si7 0.017632 0.373823 0.341308
Si Si8 0.585945 0.411553 0.858667
O O1 0.699195 0.911279 0.612484
O O2 0.545863 0.831454 0.622937
O O3 0.632604 0.954866 0.475115
O O4 0.546192 0.028264 0.646977
O O5 0.245757 0.974042 0.670291
O O6 0.398778 0.905130 0.644486
O O7 0.383138 0.091661 0.698168
O O8 0.750000 0.750000 0.500000
O O9 0.666269 0.574040 0.565581
O O10 0.649549 0.664617 0.394367
O O11 0.330196 0.614308 0.468892
O O12 0.404685 0.573507 0.264990
O O13 0.091199 0.211021 0.894929
O O14 0.009661 0.330966 0.039374
O O15 0.510015 0.606737 0.062357
O O16 0.613762 0.519318 0.894904
O O17 0.000000 0.306412 0.250000
#
# Coordination Sequence:
#
# PCOD9272706 Si02
#       8
#     8   8   8   8   8   8   8   8
#     4   8  16  32  51  74 108 144 174 222 280 329
#     4   8  17  33  52  74 109 141 171 224 280 330
#     4  10  20  37  60  82 111 152 194 237 285 337
#     4  10  21  38  56  81 114 147 189 238 290 343
#     4   9  17  34  55  77 109 141 181 222 272 343
#     4  10  21  38  58  76 110 153 190 231 289 334
#     4   9  17  28  50  81 107 140 176 217 278 334
#     4  10  22  38  57  80 110 152 191 236 289 335
#
# _framework density 23.663549
#
# number of rings (size 3 to 8) (size 9 to 14) (size 15 to 20)
#    0.000    2.750    0.000    2.625    1.750    1.500 
#    2.250    0.000    0.000    0.000    0.000    0.000 
#    0.000    0.000    0.000    0.000    0.000    0.000 
#
# Total GULP energy -178278.161549 kJ/mol
# GULP energy per Si atom -5571.192548 kJ/mol
# Density = 2.360969 g / cm^3
# Si number density = 23.663549 Si / 1000 Ang^3
#
#
#
# Elastic Constant Matrix: (Units=GPa)
#
#
# Indices 1 2 3 4 5 6 
#
# 1 97.9321 4.7150 11.2861 0.0000 3.4564 0.0000
# 2 4.7150 75.7230 1.7636 0.0000 -1.7257 0.0000
# 3 11.2861 1.7636 62.9724 0.0000 5.4905 0.0000
# 4 0.0000 0.0000 0.0000 1.9099 0.0000 -4.1470
# 5 3.4564 -1.7257 5.4905 0.0000 25.3128 0.0000
# 6 0.0000 0.0000 0.0000 -4.1470 0.0000 24.4935
#
#
#
# Elastic Compliance Matrix: (Units=1/GPa)
#
#
# Indices 1 2 3 4 5 6 
#
# 1 0.010484 -0.000637 -0.001766 0.000000 -0.001092 0.000000
# 2 -0.000637 0.013278 -0.000351 0.000000 0.001068 0.000000
# 3 -0.001766 -0.000351 0.016499 0.000000 -0.003362 0.000000
# 4 0.000000 0.000000 0.000000 0.828013 0.000000 0.140193
# 5 -0.001092 0.001068 -0.003362 0.000000 0.040457 0.000000
# 6 0.000000 0.000000 0.000000 0.140193 0.000000 0.064564
#
#
# Mechanical properties :
#
#
# Convention : Reuss Voigt Hill
#
# Bulk Modulus (GPa) = 28.77314 30.23966 29.50640
# Shear Modulus (GPa) = 5.04854 24.93407 14.99131
#
# Velocity S-wave (km/s) = 1.46222 3.24958 2.51971
# Velocity P-wave (km/s) = 3.87769 5.18522 4.57837
#
# Compressibility (1/GPa) = 0.03475464
#
# Stress axis : x y z
#
# Youngs Moduli (GPa) = 95.38481 75.31147 60.60830
#
# Poissons Ratio (x) = 0.04794 0.10703
# Poissons Ratio (y) = 0.06072 0.02127
# Poissons Ratio (z) = 0.16844 0.02643
#
# Static dielectric constant tensor:
#      x y z
#    x 1.686610 0.000000 0.053570 
#    y 0.000000 1.946470 0.000000 
#    z 0.053570 0.000000 1.941140 
# 
# From -- ./inp_files/162248.got.cif
#   From: 2010.05.17/outbox.cif.g08.bks.cpg/sg15_82_cif.got.tgz:162248.got - 2010.06.03 18:47:42.
