data_PCOD9272800
_publ_section_title
;
Structure prediction by ZEFSAII (Michael W. Deem and Ramdas Pophale) SiO2 
 PCOD9272800
Probable space group: C 2/C
;
_chemical_formula_sum "Si O2"
_cell_formula_units_Z 64
_cell_length_a 26.034534
_cell_length_b 20.633821
_cell_length_c 18.184696
_cell_angle_alpha 90.000000
_cell_angle_beta 19.316795
_cell_angle_gamma 90.000000
_cell_volume 3231.388989
_symmetry_space_group_name_H-M "C 2/C"
_symmetry_group_IT_number 15
_symmetry_cell_setting 'monoclinic'
loop_
_space_group_symop_operation_xyz
x,y,z
-x,y,1/2-z
-x,-y,-z
x,-y,1/2+z
1/2+x,1/2+y,z
1/2-x,1/2+y,1/2-z
1/2-x,1/2-y,-z
1/2+x,1/2-y,1/2+z
loop_
_atom_site_type_symbol
_atom_site_label
_atom_site_fract_x
_atom_site_fract_y
_atom_site_fract_z
Si Si1 0.109164 0.761879 0.933831
Si Si2 0.688143 0.132268 0.255391
Si Si3 0.164694 0.354442 0.254047
Si Si4 0.147903 0.867397 0.233343
Si Si5 0.623166 0.303961 0.647176
Si Si6 0.539864 0.464264 0.111384
Si Si7 0.584907 0.402293 0.481297
Si Si8 0.636996 0.811934 0.661493
O O1 0.231369 0.810419 0.805454
O O2 0.165249 0.717816 0.790417
O O3 0.959226 0.803350 0.112428
O O4 0.037785 0.713384 0.091366
O O5 0.511499 0.126035 0.519788
O O6 0.680595 0.153646 0.179891
O O7 0.788861 0.067334 0.126629
O O8 0.254219 0.397094 0.191973
O O9 0.268943 0.355500 0.040912
O O10 0.127923 0.900888 0.338200
O O11 0.066958 0.908825 0.278908
O O12 0.316310 0.853474 0.972279
O O13 0.500000 0.281090 0.750000
O O14 0.750000 0.250000 0.500000
O O15 0.523355 0.341792 0.844474
O O16 0.500000 0.475156 0.250000
O O17 0.513722 0.529835 0.101961
O O18 0.750000 0.750000 0.500000
#
# Coordination Sequence:
#
# PCOD9272800 Si02
#       8
#     8   8   8   8   8   8   8   8
#     4   9  20  32  59  87 126 149 190 244 307 376
#     4  10  21  37  57  93 120 163 199 243 312 374
#     4  10  22  37  58  91 121 163 198 256 313 364
#     4  10  20  37  60  89 119 158 199 245 311 363
#     4  10  22  40  65  91 126 162 213 267 326 369
#     4  11  21  40  66  83 120 161 216 251 298 377
#     4  11  24  40  59  90 118 164 212 257 304 364
#     4   9  18  32  53  89 122 153 186 242 301 368
#
# _framework density 19.805724000000001
#
# number of rings (size 3 to 8) (size 9 to 14) (size 15 to 20)
#    0.000    2.000    1.250    2.250    8.750    0.500 
#    2.250    0.000    0.000    0.000    6.500    0.000 
#    0.000    0.000    0.000    0.000    0.000    0.000 
#
# Total GULP energy -178461.938602 kJ/mol
# GULP energy per Si atom -5576.935581 kJ/mol
# Density = 1.976065 g / cm^3
# Si number density = 19.805724 Si / 1000 Ang^3
#
#
#
# Elastic Constant Matrix: (Units=GPa)
#
#
# Indices 1 2 3 4 5 6 
#
# 1 39.0911 -10.2942 21.9753 0.0026 14.9820 -0.0031
# 2 -10.2942 40.4844 -1.2404 0.0006 1.5593 -0.0025
# 3 21.9753 -1.2404 100.0638 -0.0018 -2.5365 -0.0012
# 4 0.0026 0.0006 -0.0018 11.8938 -0.0018 4.3330
# 5 14.9820 1.5593 -2.5365 -0.0018 37.0048 0.0033
# 6 -0.0031 -0.0025 -0.0012 4.3330 0.0033 10.7339
#
#
#
# Elastic Compliance Matrix: (Units=1/GPa)
#
#
# Indices 1 2 3 4 5 6 
#
# 1 0.040138 0.010594 -0.009123 -0.000024 -0.017322 0.000028
# 2 0.010594 0.027545 -0.002127 -0.000010 -0.005596 0.000015
# 3 -0.009123 -0.002127 0.012088 0.000007 0.004612 -0.000006
# 4 -0.000024 -0.000010 0.000007 0.098574 0.000019 -0.039792
# 5 -0.017322 -0.005596 0.004612 0.000019 0.034589 -0.000024
# 6 0.000028 0.000015 -0.000006 -0.039792 -0.000024 0.109225
#
#
# Mechanical properties :
#
#
# Convention : Reuss Voigt Hill
#
# Bulk Modulus (GPa) = 12.74543 22.28009 17.51276
# Shear Modulus (GPa) = 14.30107 23.20639 18.75373
#
# Velocity S-wave (km/s) = 2.69005 3.42673 3.08049
# Velocity P-wave (km/s) = 4.01219 5.18944 4.63832
#
# Compressibility (1/GPa) = 0.07845953
#
# Stress axis : x y z
#
# Youngs Moduli (GPa) = 24.91375 36.30425 82.72929
#
# Poissons Ratio (x) = -0.38460 0.75471
# Poissons Ratio (y) = -0.26393 0.17596
# Poissons Ratio (z) = 0.22728 0.07722
#
# Static dielectric constant tensor:
#      x y z
#    x 1.733790 0.000000 -0.000290 
#    y 0.000000 1.728870 0.000000 
#    z -0.000290 0.000000 1.719280 
# 
# From -- ./inp_files/223150.got.cif
#   From: 2010.05.17/outbox.cif.g08.bks.cpg/sg15_112_cif.got.tgz:223150.got - 2010.06.03 18:47:42.
