data_PCOD9272676
_publ_section_title
;
Structure prediction by ZEFSAII (Michael W. Deem and Ramdas Pophale) SiO2 
 PCOD9272676
Probable space group: C 2/C
;
_chemical_formula_sum "Si O2"
_cell_formula_units_Z 48
_cell_length_a 11.370752
_cell_length_b 16.373956
_cell_length_c 15.147406
_cell_angle_alpha 90.000000
_cell_angle_beta 49.662015
_cell_angle_gamma 90.000000
_cell_volume 2149.673218
_symmetry_space_group_name_H-M "C 2/C"
_symmetry_group_IT_number 15
_symmetry_cell_setting 'monoclinic'
loop_
_space_group_symop_operation_xyz
x,y,z
-x,y,1/2-z
-x,-y,-z
x,-y,1/2+z
1/2+x,1/2+y,z
1/2-x,1/2+y,1/2-z
1/2-x,1/2-y,-z
1/2+x,1/2-y,1/2+z
loop_
_atom_site_type_symbol
_atom_site_label
_atom_site_fract_x
_atom_site_fract_y
_atom_site_fract_z
Si Si1 0.458384 0.413174 0.380033
Si Si2 0.484026 0.089558 0.963076
Si Si3 0.263533 0.208811 0.589215
Si Si4 0.334604 0.410452 0.956685
Si Si5 0.155075 0.866479 0.867144
Si Si6 0.279535 0.043122 0.791445
O O1 0.373749 0.354042 0.354994
O O2 0.394210 0.503069 0.391978
O O3 0.401273 0.390439 0.506827
O O4 0.640209 0.418945 0.302990
O O5 0.581586 0.156655 0.969185
O O6 0.307276 0.117066 0.035001
O O7 0.565775 0.076023 0.827910
O O8 0.500000 0.000000 0.000000
O O9 0.250000 0.250000 0.500000
O O10 0.258394 0.280537 0.664534
O O11 0.260161 0.430165 0.089357
O O12 0.493925 0.360229 0.891254
O O13 0.259461 0.944598 0.790775
#
# Coordination Sequence:
#
# PCOD9272676 Si02
#       6
#     8   8   8   8   8   8
#     4   8  15  34  60  82 112 151 197 235 291 357
#     4  12  23  35  55  87 123 159 203 242 285 360
#     4  10  20  37  59  89 123 149 195 249 305 348
#     4   9  17  36  59  84 113 154 195 244 293 357
#     4   8  17  35  61  82 115 151 191 245 305 348
#     4   9  19  36  59  83 110 160 202 237 295 356
#
# _framework density 22.328975
#
# number of rings (size 3 to 8) (size 9 to 14) (size 15 to 20)
#    0.000    2.667    1.667    2.500    0.000    1.333 
#    0.000    6.667    0.000    2.000    0.000    0.000 
#    0.000    0.000    0.000    0.000    0.000    0.000 
#
# Total GULP energy -133864.975622 kJ/mol
# GULP energy per Si atom -5577.707318 kJ/mol
# Density = 2.227815 g / cm^3
# Si number density = 22.328975 Si / 1000 Ang^3
#
#
#
# Elastic Constant Matrix: (Units=GPa)
#
#
# Indices 1 2 3 4 5 6 
#
# 1 165.7327 56.9547 7.7423 0.0001 -23.9862 0.0000
# 2 56.9547 73.9448 -11.4473 0.0000 2.6109 0.0000
# 3 7.7423 -11.4473 32.4295 0.0001 2.2685 0.0000
# 4 0.0001 0.0000 0.0001 -0.1287 -0.0001 4.6344
# 5 -23.9862 2.6109 2.2685 -0.0001 31.3087 0.0000
# 6 0.0000 0.0000 0.0000 4.6344 0.0000 51.0621
#
#
#
# Elastic Compliance Matrix: (Units=1/GPa)
#
#
# Indices 1 2 3 4 5 6 
#
# 1 0.011285 -0.010123 -0.006967 -0.000001 0.009994 0.000000
# 2 -0.010123 0.023463 0.011437 0.000003 -0.010541 0.000000
# 3 -0.006967 0.011437 0.037165 0.000006 -0.008984 0.000000
# 4 -0.000001 0.000003 0.000006 -1.820426 -0.000005 0.165223
# 5 0.009994 -0.010541 -0.008984 -0.000005 0.041127 0.000000
# 6 0.000000 0.000000 0.000000 0.165223 0.000000 0.004588
#
#
# Mechanical properties :
#
#
# Convention : Reuss Voigt Hill
#
# Bulk Modulus (GPa) = 16.49991 42.06740 29.28365
# Shear Modulus (GPa) = -2.99170 31.03892 14.02361
#
# Velocity S-wave (km/s) = -1.15877 3.73241 2.50880
# Velocity P-wave (km/s) = 2.36964 6.12007 4.64061
#
# Compressibility (1/GPa) = 0.06060639
#
# Stress axis : x y z
#
# Youngs Moduli (GPa) = 88.61675 42.61959 26.90719
#
# Poissons Ratio (x) = 0.43144 0.18745
# Poissons Ratio (y) = 0.89708 -0.30772
# Poissons Ratio (z) = 0.61736 -0.48742
#
# Static dielectric constant tensor:
#      x y z
#    x 1.853380 0.000000 0.028660 
#    y 0.000000 1.870460 0.000000 
#    z 0.028660 0.000000 1.872430 
# 
# From -- ./inp_files/199028.got.cif
#   From: 2010.05.17/outbox.cif.g08.bks.cpg/sg15_100_cif.got.tgz:199028.got - 2010.06.03 18:47:42.
