data_PCOD9272718
_publ_section_title
;
Structure prediction by ZEFSAII (Michael W. Deem and Ramdas Pophale) SiO2 
 PCOD9272718
Probable space group: C 2/C
;
_chemical_formula_sum "Si O2"
_cell_formula_units_Z 56
_cell_length_a 16.212464
_cell_length_b 11.457799
_cell_length_c 17.047777
_cell_angle_alpha 90.000000
_cell_angle_beta 126.958101
_cell_angle_gamma 90.000000
_cell_volume 2530.496464
_symmetry_space_group_name_H-M "C 2/C"
_symmetry_group_IT_number 15
_symmetry_cell_setting 'monoclinic'
loop_
_space_group_symop_operation_xyz
x,y,z
-x,y,1/2-z
-x,-y,-z
x,-y,1/2+z
1/2+x,1/2+y,z
1/2-x,1/2+y,1/2-z
1/2-x,1/2-y,-z
1/2+x,1/2-y,1/2+z
loop_
_atom_site_type_symbol
_atom_site_label
_atom_site_fract_x
_atom_site_fract_y
_atom_site_fract_z
Si Si1 0.595853 0.322416 0.953199
Si Si2 0.133704 0.561299 0.447584
Si Si3 0.551805 0.697283 0.861460
Si Si4 0.030760 0.389398 0.176474
Si Si5 0.259857 0.931515 0.140053
Si Si6 0.079038 0.993536 0.141101
Si Si7 0.323775 0.523486 0.134992
O O1 0.529922 0.207013 0.907022
O O2 0.515195 0.422039 0.933207
O O3 0.640041 0.365961 0.894889
O O4 0.695831 0.325041 0.065327
O O5 0.119494 0.699819 0.436964
O O6 0.188703 0.507950 0.400287
O O7 0.203295 0.507141 0.556645
O O8 0.018244 0.510626 0.379166
O O9 0.500000 0.740686 0.750000
O O10 0.466258 0.636971 0.868730
O O11 0.622247 0.588340 0.875664
O O12 0.153459 0.390772 0.249614
O O13 0.000000 0.370192 0.250000
O O14 0.171814 0.002515 0.133763
O O15 0.127396 0.032142 0.251975
#
# Coordination Sequence:
#
# PCOD9272718 Si02
#       7
#     8   8   8   8   8   8   8
#     4  10  20  38  62  81 111 158 196 232 283 356
#     4  10  20  37  60  84 115 159 195 235 290 360
#     4   9  17  34  58  82 113 152 197 240 287 347
#     4  10  21  37  57  83 116 149 194 234 285 351
#     4  10  22  38  56  88 119 151 196 241 296 344
#     4  10  20  38  57  88 116 145 198 249 291 335
#     4   9  19  34  61  85 110 151 201 236 285 351
#
# _framework density 22.130044999999999
#
# number of rings (size 3 to 8) (size 9 to 14) (size 15 to 20)
#    0.000    2.286    0.000    4.286    0.000    6.286 
#   10.286    0.714    0.000    0.000    0.000    0.000 
#    0.000    0.000    0.000    0.000    0.000    0.000 
#
# Total GULP energy -156392.328792 kJ/mol
# GULP energy per Si atom -5585.440314 kJ/mol
# Density = 2.207968 g / cm^3
# Si number density = 22.130045 Si / 1000 Ang^3
#
#
#
# Elastic Constant Matrix: (Units=GPa)
#
#
# Indices 1 2 3 4 5 6 
#
# 1 50.9655 11.7188 36.1894 0.0000 23.5500 0.0000
# 2 11.7188 47.0971 9.0069 0.0000 8.6122 0.0000
# 3 36.1894 9.0069 100.2416 0.0000 38.5706 0.0000
# 4 0.0000 0.0000 0.0000 27.1640 0.0000 12.6792
# 5 23.5500 8.6122 38.5706 0.0000 29.9315 0.0000
# 6 0.0000 0.0000 0.0000 12.6792 0.0000 14.9095
#
#
#
# Elastic Compliance Matrix: (Units=1/GPa)
#
#
# Indices 1 2 3 4 5 6 
#
# 1 0.032095 -0.003737 -0.003865 0.000000 -0.019197 0.000000
# 2 -0.003737 0.022890 0.001379 0.000000 -0.005423 0.000000
# 3 -0.003865 0.001379 0.020291 0.000000 -0.023503 0.000000
# 4 0.000000 0.000000 0.000000 0.061045 0.000000 -0.051913
# 5 -0.019197 -0.005423 -0.023503 0.000000 0.080361 0.000000
# 6 0.000000 0.000000 0.000000 -0.051913 0.000000 0.111219
#
#
# Mechanical properties :
#
#
# Convention : Reuss Voigt Hill
#
# Bulk Modulus (GPa) = 15.91550 34.68162 25.29856
# Shear Modulus (GPa) = 13.83931 23.82692 18.83312
#
# Velocity S-wave (km/s) = 2.50344 3.28484 2.92039
# Velocity P-wave (km/s) = 3.94508 5.48567 4.77788
#
# Compressibility (1/GPa) = 0.06283183
#
# Stress axis : x y z
#
# Youngs Moduli (GPa) = 31.15748 43.68632 49.28342
#
# Poissons Ratio (x) = 0.16323 0.19047
# Poissons Ratio (y) = 0.11642 -0.06796
# Poissons Ratio (z) = 0.12042 -0.06024
#
# Static dielectric constant tensor:
#      x y z
#    x 1.824890 0.000000 0.009960 
#    y 0.000000 1.815850 0.000000 
#    z 0.009960 0.000000 1.869290 
# 
# From -- ./inp_files/210664.got.cif
#   From: 2010.05.17/outbox.cif.g08.bks.cpg/sg15_106_cif.got.tgz:210664.got - 2010.06.03 18:47:42.
