data_PCOD9272665
_publ_section_title
;
Structure prediction by ZEFSAII (Michael W. Deem and Ramdas Pophale) SiO2 
 PCOD9272665
Probable space group: C 2/C
;
_chemical_formula_sum "Si O2"
_cell_formula_units_Z 48
_cell_length_a 19.405761
_cell_length_b 9.117828
_cell_length_c 29.631024
_cell_angle_alpha 90.000000
_cell_angle_beta 30.062856
_cell_angle_gamma 90.000000
_cell_volume 2626.412356
_symmetry_space_group_name_H-M "C 2/C"
_symmetry_group_IT_number 15
_symmetry_cell_setting 'monoclinic'
loop_
_space_group_symop_operation_xyz
x,y,z
-x,y,1/2-z
-x,-y,-z
x,-y,1/2+z
1/2+x,1/2+y,z
1/2-x,1/2+y,1/2-z
1/2-x,1/2-y,-z
1/2+x,1/2-y,1/2+z
loop_
_atom_site_type_symbol
_atom_site_label
_atom_site_fract_x
_atom_site_fract_y
_atom_site_fract_z
Si Si1 0.908792 0.915637 0.015757
Si Si2 0.888840 0.529898 0.775296
Si Si3 0.395825 0.316333 0.267098
Si Si4 0.673512 0.185350 0.777662
Si Si5 0.081318 0.622876 0.927138
Si Si6 0.927291 0.016690 0.657032
O O1 0.972996 0.754921 0.983501
O O2 0.939521 0.981521 0.948702
O O3 0.754993 0.935012 0.119208
O O4 0.000000 0.000000 0.000000
O O5 0.898656 0.358499 0.755987
O O6 0.902554 0.629093 0.723431
O O7 0.000000 0.560603 0.750000
O O8 0.500000 0.342819 0.250000
O O9 0.230889 0.347809 0.365949
O O10 0.444761 0.413284 0.196557
O O11 0.622891 0.100536 0.851216
O O12 0.650532 0.358831 0.796613
O O13 0.831596 0.133384 0.684687
O O14 0.000000 0.500000 0.000000
#
# Coordination Sequence:
#
# PCOD9272665 Si02
#       6
#     8   8   8   8   8   8
#     4  11  20  38  62  87 117 153 202 243 293 354
#     4  11  23  41  60  88 122 159 195 247 306 351
#     4  10  22  41  59  86 122 156 199 244 304 352
#     4  10  20  37  59  88 116 156 199 239 297 351
#     4  10  22  38  60  91 114 154 205 247 288 357
#     4  10  21  37  62  87 117 158 199 243 293 354
#
# _framework density 18.275880000000001
#
# number of rings (size 3 to 8) (size 9 to 14) (size 15 to 20)
#    0.000    1.667    3.333    2.000    4.667    2.000 
#    3.000    3.333    0.000    0.000    0.000    0.000 
#    0.000    0.000    0.000    0.000    0.000    0.000 
#
# Total GULP energy -133731.465376 kJ/mol
# GULP energy per Si atom -5572.144391 kJ/mol
# Density = 1.823428 g / cm^3
# Si number density = 18.275880 Si / 1000 Ang^3
#
#
#
# Elastic Constant Matrix: (Units=GPa)
#
#
# Indices 1 2 3 4 5 6 
#
# 1 100.4788 39.2883 41.3484 0.0000 -9.6581 0.0000
# 2 39.2883 52.6316 35.9804 -0.0002 13.7184 -0.0001
# 3 41.3484 35.9804 95.4931 -0.0004 -1.6595 -0.0002
# 4 0.0000 -0.0002 -0.0004 30.1418 0.0001 2.9161
# 5 -9.6581 13.7184 -1.6595 0.0001 29.1182 -0.0001
# 6 0.0000 -0.0001 -0.0002 2.9161 -0.0001 29.1844
#
#
#
# Elastic Compliance Matrix: (Units=1/GPa)
#
#
# Indices 1 2 3 4 5 6 
#
# 1 0.018141 -0.015938 -0.001616 0.000000 0.013434 0.000000
# 2 -0.015938 0.045252 -0.010622 0.000000 -0.027211 0.000000
# 3 -0.001616 -0.010622 0.015267 0.000000 0.005338 0.000000
# 4 0.000000 0.000000 0.000000 0.033500 0.000000 -0.003347
# 5 0.013434 -0.027211 0.005338 0.000000 0.051923 0.000000
# 6 0.000000 0.000000 0.000000 -0.003347 0.000000 0.034599
#
#
# Mechanical properties :
#
#
# Convention : Reuss Voigt Hill
#
# Bulk Modulus (GPa) = 44.83001 53.53750 49.18375
# Shear Modulus (GPa) = 19.04985 26.48798 22.76892
#
# Velocity S-wave (km/s) = 3.23205 3.81115 3.53348
# Velocity P-wave (km/s) = 6.20572 6.98027 6.60436
#
# Compressibility (1/GPa) = 0.02230649
#
# Stress axis : x y z
#
# Youngs Moduli (GPa) = 55.12446 22.09871 65.50251
#
# Poissons Ratio (x) = 0.35222 0.10586
# Poissons Ratio (y) = 0.87860 0.69575
# Poissons Ratio (z) = 0.08909 0.23473
#
# Static dielectric constant tensor:
#      x y z
#    x 1.626610 0.000000 0.018600 
#    y 0.000000 1.603490 0.000000 
#    z 0.018600 0.000000 1.645170 
# 
# From -- ./inp_files/166134.got.cif
#   From: 2010.05.17/outbox.cif.g08.bks.cpg/sg15_84_cif.got.tgz:166134.got - 2010.06.03 18:47:42.
