data_PCOD9272161
_publ_section_title
;
Structure prediction by ZEFSAII (Michael W. Deem and Ramdas Pophale) SiO2 
 PCOD9272161
Probable space group: C 2/C
;
_chemical_formula_sum "Si O2"
_cell_formula_units_Z 56
_cell_length_a 8.720268
_cell_length_b 17.806307
_cell_length_c 24.320053
_cell_angle_alpha 90.000000
_cell_angle_beta 51.333427
_cell_angle_gamma 90.000000
_cell_volume 2948.528001
_symmetry_space_group_name_H-M "C 2/C"
_symmetry_group_IT_number 15
_symmetry_cell_setting 'monoclinic'
loop_
_space_group_symop_operation_xyz
x,y,z
-x,y,1/2-z
-x,-y,-z
x,-y,1/2+z
1/2+x,1/2+y,z
1/2-x,1/2+y,1/2-z
1/2-x,1/2-y,-z
1/2+x,1/2-y,1/2+z
loop_
_atom_site_type_symbol
_atom_site_label
_atom_site_fract_x
_atom_site_fract_y
_atom_site_fract_z
Si Si1 0.444648 0.726411 0.921590
Si Si2 0.000000 0.096312 0.750000
Si Si3 0.087073 0.932633 0.349764
Si Si4 0.869608 0.299834 0.166897
Si Si5 0.637778 0.827938 0.665196
Si Si6 0.715884 0.691739 0.959873
Si Si7 0.500000 0.145382 0.750000
Si Si8 0.060823 0.941236 0.939522
O O1 0.457664 0.639172 0.898982
O O2 0.452978 0.777815 0.864594
O O3 0.621606 0.729724 0.926506
O O4 0.250000 0.750000 0.000000
O O5 0.942136 0.054032 0.708136
O O6 0.817392 0.149840 0.803676
O O7 0.314001 0.906532 0.309235
O O8 0.030337 0.008477 0.392736
O O9 0.818724 0.220784 0.150359
O O10 0.907197 0.302107 0.223639
O O11 0.066970 0.337541 0.100974
O O12 0.500000 0.839671 0.750000
O O13 0.725318 0.903020 0.617708
O O14 0.750000 0.750000 0.000000
O O15 0.575070 0.628175 0.013981
O O16 0.000000 0.000000 0.000000
#
# Coordination Sequence:
#
# PCOD9272161 Si02
#       8
#     8   4   8   8   8   8   4   8
#     4  12  21  42  69  96 130 178 228 271 340 414
#     4  10  22  40  66  92 134 176 220 272 362 404
#     4  11  22  40  65  93 131 174 222 273 338 416
#     4  11  19  38  65  96 128 166 224 278 330 405
#     4  12  24  41  70 102 134 178 235 291 335 408
#     4  12  24  41  66  97 132 174 228 280 330 403
#     4  10  20  36  64  96 124 174 210 272 352 400
#     4  12  24  44  65  96 139 179 228 274 342 413
#
# _framework density 18.992526999999999
#
# number of rings (size 3 to 8) (size 9 to 14) (size 15 to 20)
#    0.000    0.571    7.857    0.857    1.000    0.000 
#    0.000    2.857    0.000    0.000    0.000    0.000 
#    0.000    0.000    0.000    0.000    0.000    0.000 
#
# Total GULP energy -155970.569715 kJ/mol
# GULP energy per Si atom -5570.377490 kJ/mol
# Density = 1.894930 g / cm^3
# Si number density = 18.992527 Si / 1000 Ang^3
#
#
#
# Elastic Constant Matrix: (Units=GPa)
#
#
# Indices 1 2 3 4 5 6 
#
# 1 107.9478 26.5806 44.4028 0.0001 12.9278 -0.0002
# 2 26.5806 75.5915 39.7500 -0.0001 12.1550 0.0000
# 3 44.4028 39.7500 126.7290 0.0003 -11.1026 -0.0001
# 4 0.0001 -0.0001 0.0003 25.1347 -0.0001 6.4378
# 5 12.9278 12.1550 -11.1026 -0.0001 46.5418 0.0001
# 6 -0.0002 0.0000 -0.0001 6.4378 0.0001 15.9624
#
#
#
# Elastic Compliance Matrix: (Units=1/GPa)
#
#
# Indices 1 2 3 4 5 6 
#
# 1 0.011715 -0.001396 -0.004004 0.000000 -0.003844 0.000000
# 2 -0.001396 0.017480 -0.005474 0.000000 -0.005483 0.000000
# 3 -0.004004 -0.005474 0.011473 0.000000 0.005279 0.000000
# 4 0.000000 0.000000 0.000000 0.044369 0.000000 -0.017895
# 5 -0.003844 -0.005483 0.005279 0.000000 0.025245 0.000000
# 6 0.000000 0.000000 0.000000 -0.017895 0.000000 0.069864
#
#
# Mechanical properties :
#
#
# Convention : Reuss Voigt Hill
#
# Bulk Modulus (GPa) = 52.85185 59.08168 55.96676
# Shear Modulus (GPa) = 24.01536 30.83012 27.42274
#
# Velocity S-wave (km/s) = 3.55979 4.03336 3.80395
# Velocity P-wave (km/s) = 6.69210 7.27091 6.98750
#
# Compressibility (1/GPa) = 0.01892081
#
# Stress axis : x y z
#
# Youngs Moduli (GPa) = 85.36332 57.20784 87.16056
#
# Poissons Ratio (x) = 0.07985 0.34895
# Poissons Ratio (y) = 0.11915 0.47713
# Poissons Ratio (z) = 0.34175 0.31316
#
# Static dielectric constant tensor:
#      x y z
#    x 1.659910 0.000000 0.003060 
#    y 0.000000 1.639050 0.000000 
#    z 0.003060 0.000000 1.766300 
# 
# From -- ./inp_files/265506.got.cif
#   From: 2010.05.17/outbox.cif.g08.bks.cpg/sg15_133_cif.got.tgz:265506.got - 2010.06.03 18:47:42.
