data_PCOD9272423
_publ_section_title
;
Structure prediction by ZEFSAII (Michael W. Deem and Ramdas Pophale) SiO2 
 PCOD9272423
Probable space group: C 2/C
;
_chemical_formula_sum "Si O2"
_cell_formula_units_Z 60
_cell_length_a 7.653385
_cell_length_b 12.290161
_cell_length_c 25.756419
_cell_angle_alpha 90.000000
_cell_angle_beta 108.047247
_cell_angle_gamma 90.000000
_cell_volume 2303.490442
_symmetry_space_group_name_H-M "C 2/C"
_symmetry_group_IT_number 15
_symmetry_cell_setting 'monoclinic'
loop_
_space_group_symop_operation_xyz
x,y,z
-x,y,1/2-z
-x,-y,-z
x,-y,1/2+z
1/2+x,1/2+y,z
1/2-x,1/2+y,1/2-z
1/2-x,1/2-y,-z
1/2+x,1/2-y,1/2+z
loop_
_atom_site_type_symbol
_atom_site_label
_atom_site_fract_x
_atom_site_fract_y
_atom_site_fract_z
Si Si1 0.322984 0.248213 0.791758
Si Si2 0.000000 0.430093 0.250000
Si Si3 0.659266 0.743750 0.570598
Si Si4 0.520195 0.291273 0.174152
Si Si5 0.658210 0.986776 0.559239
Si Si6 0.643075 0.476046 0.685334
Si Si7 0.348129 0.013781 0.596242
Si Si8 0.624385 0.395695 0.497017
O O1 0.469220 0.152269 0.795489
O O2 0.182204 0.243161 0.729627
O O3 0.434234 0.359496 0.808616
O O4 0.179505 0.247773 0.826167
O O5 0.821862 0.503809 0.237123
O O6 0.586649 0.741004 0.623127
O O7 0.732850 0.863396 0.564546
O O8 0.787647 0.637127 0.575318
O O9 0.488443 0.714378 0.516671
O O10 0.512850 0.422029 0.179751
O O11 0.564769 0.008695 0.605842
O O12 0.500000 0.000000 0.500000
O O13 0.805149 0.074221 0.553979
O O14 0.741646 0.489191 0.638905
O O15 0.280695 0.912892 0.553577
O O16 0.500000 0.500000 0.500000
#
# Coordination Sequence:
#
# PCOD9272423 Si02
#       8
#     8   4   8   8   8   8   8   8
#     4  10  20  37  56  79 110 140 179 226 269 325
#     4  10  22  34  54  84 104 142 188 214 274 336
#     4  10  20  39  58  78 115 144 177 233 268 318
#     4   9  20  37  58  83 108 145 183 217 279 330
#     4  10  21  35  55  82 107 143 186 219 270 322
#     4  10  20  38  57  78 113 143 176 232 273 319
#     4   9  20  37  56  82 110 142 185 225 273 325
#     4   9  20  37  56  80 109 146 186 220 270 326
#
# _framework density 26.047426000000002
#
# number of rings (size 3 to 8) (size 9 to 14) (size 15 to 20)
#    0.000    2.400    0.000    1.600    0.000   10.133 
#    0.000   18.667    0.000    0.000    0.000    0.000 
#    0.000    0.000    0.000    0.000    0.000    0.000 
#
# Total GULP energy -167649.527479 kJ/mol
# GULP energy per Si atom -5588.317583 kJ/mol
# Density = 2.598814 g / cm^3
# Si number density = 26.047426 Si / 1000 Ang^3
#
#
#
# Elastic Constant Matrix: (Units=GPa)
#
#
# Indices 1 2 3 4 5 6 
#
# 1 48.2373 4.9670 -0.5559 0.0000 -3.9084 0.0000
# 2 4.9670 120.2958 20.8071 0.0000 -1.6708 0.0000
# 3 -0.5559 20.8071 53.4772 0.0000 -6.1082 0.0000
# 4 0.0000 0.0000 0.0000 22.9269 0.0000 -4.4289
# 5 -3.9084 -1.6708 -6.1082 0.0000 21.0741 0.0000
# 6 0.0000 0.0000 0.0000 -4.4289 0.0000 19.8438
#
#
#
# Elastic Compliance Matrix: (Units=1/GPa)
#
#
# Indices 1 2 3 4 5 6 
#
# 1 0.021184 -0.001005 0.001087 0.000000 0.004164 0.000000
# 2 -0.001005 0.008962 -0.003555 0.000000 -0.000506 0.000000
# 3 0.001087 -0.003555 0.020773 0.000000 0.005941 0.000000
# 4 0.000000 0.000000 0.000000 0.045582 0.000000 0.010173
# 5 0.004164 -0.000506 0.005941 0.000000 0.049906 0.000000
# 6 0.000000 0.000000 0.000000 0.010173 0.000000 0.052664
#
#
# Mechanical properties :
#
#
# Convention : Reuss Voigt Hill
#
# Bulk Modulus (GPa) = 22.74151 30.27185 26.50668
# Shear Modulus (GPa) = 22.65773 25.88844 24.27308
#
# Velocity S-wave (km/s) = 2.95255 3.15603 3.05598
# Velocity P-wave (km/s) = 4.51366 4.99277 4.75925
#
# Compressibility (1/GPa) = 0.04397246
#
# Stress axis : x y z
#
# Youngs Moduli (GPa) = 47.20488 111.57907 48.14007
#
# Poissons Ratio (x) = 0.11212 -0.05232
# Poissons Ratio (y) = 0.04743 0.17115
# Poissons Ratio (z) = -0.05130 0.39670
#
# Static dielectric constant tensor:
#      x y z
#    x 2.067160 0.000000 0.063480 
#    y 0.000000 1.982170 0.000000 
#    z 0.063480 0.000000 2.187250 
# 
# From -- ./inp_files/307154.got.cif
#   From: 2010.05.17/outbox.cif.g08.bks.cpg/sg15_154_cif.got.tgz:307154.got - 2010.06.03 18:47:42.
