data_PCOD9272261
_publ_section_title
;
Structure prediction by ZEFSAII (Michael W. Deem and Ramdas Pophale) SiO2 
 PCOD9272261
Probable space group: C 2/C
;
_chemical_formula_sum "Si O2"
_cell_formula_units_Z 36
_cell_length_a 24.540411
_cell_length_b 6.965097
_cell_length_c 13.534458
_cell_angle_alpha 90.000000
_cell_angle_beta 36.210721
_cell_angle_gamma 90.000000
_cell_volume 1366.653730
_symmetry_space_group_name_H-M "C 2/C"
_symmetry_group_IT_number 15
_symmetry_cell_setting 'monoclinic'
loop_
_space_group_symop_operation_xyz
x,y,z
-x,y,1/2-z
-x,-y,-z
x,-y,1/2+z
1/2+x,1/2+y,z
1/2-x,1/2+y,1/2-z
1/2-x,1/2-y,-z
1/2+x,1/2-y,1/2+z
loop_
_atom_site_type_symbol
_atom_site_label
_atom_site_fract_x
_atom_site_fract_y
_atom_site_fract_z
Si Si1 0.740323 0.657325 0.136329
Si Si2 0.882267 0.481852 0.087234
Si Si3 0.899108 0.086696 0.396581
Si Si4 0.594699 0.388244 0.381678
Si Si5 0.000000 0.280225 0.750000
O O1 0.802459 0.574129 0.135532
O O2 0.680449 0.471875 0.194993
O O3 0.665186 0.813673 0.281308
O O4 0.820790 0.780636 0.963667
O O5 0.917021 0.659653 0.102138
O O6 0.956797 0.399427 0.901760
O O7 0.880175 0.061479 0.540682
O O8 0.922283 0.871884 0.326036
O O9 0.000000 0.186433 0.250000
O O10 0.500000 0.500000 0.500000
#
# Coordination Sequence:
#
# PCOD9272261 Si02
#       5
#     8   8   8   8   4
#     4  11  19  38  61  93 116 165 213 252 299 373
#     4  11  20  37  66  89 117 160 211 258 297 374
#     4   9  20  39  63  88 120 160 217 252 300 365
#     4  11  24  38  61  96 127 160 203 260 322 362
#     4  10  20  36  66  96 114 158 218 260 298 352
#
# _framework density 26.341714
#
# number of rings (size 3 to 8) (size 9 to 14) (size 15 to 20)
#    0.667    0.889    6.667    0.000    6.222    0.889 
#    0.000    1.111    0.000    4.000    0.000    0.000 
#    0.000    0.000    0.000    0.000    0.000    0.000 
#
# Total GULP energy -100615.639461 kJ/mol
# GULP energy per Si atom -5589.757748 kJ/mol
# Density = 2.628176 g / cm^3
# Si number density = 26.341714 Si / 1000 Ang^3
#
#
#
# Elastic Constant Matrix: (Units=GPa)
#
#
# Indices 1 2 3 4 5 6 
#
# 1 92.3936 56.9054 47.3832 -0.0001 -22.0995 0.0000
# 2 56.9054 197.1551 85.7400 -0.0037 -19.2377 0.0004
# 3 47.3832 85.7400 177.1143 -0.0021 -17.9191 0.0002
# 4 -0.0001 -0.0037 -0.0021 77.1616 -0.0005 -2.3091
# 5 -22.0995 -19.2377 -17.9191 -0.0005 39.3250 0.0002
# 6 0.0000 0.0004 0.0002 -2.3091 0.0002 45.9045
#
#
#
# Elastic Compliance Matrix: (Units=1/GPa)
#
#
# Indices 1 2 3 4 5 6 
#
# 1 0.015108 -0.002879 -0.002025 0.000000 0.006159 0.000000
# 2 -0.002879 0.007099 -0.002598 0.000000 0.000671 0.000000
# 3 -0.002025 -0.002598 0.007550 0.000000 0.001031 0.000000
# 4 0.000000 0.000000 0.000000 0.012979 0.000000 0.000653
# 5 0.006159 0.000671 0.001031 0.000000 0.029688 0.000000
# 6 0.000000 0.000000 0.000000 0.000653 0.000000 0.021817
#
#
# Mechanical properties :
#
#
# Convention : Reuss Voigt Hill
#
# Bulk Modulus (GPa) = 67.78741 94.08001 80.93371
# Shear Modulus (GPa) = 43.79679 50.92051 47.35865
#
# Velocity S-wave (km/s) = 4.08197 4.40144 4.24472
# Velocity P-wave (km/s) = 6.92866 7.85003 7.40370
#
# Compressibility (1/GPa) = 0.01475200
#
# Stress axis : x y z
#
# Youngs Moduli (GPa) = 66.18922 140.87405 132.45113
#
# Poissons Ratio (x) = 0.40559 0.26821
# Poissons Ratio (y) = 0.19056 0.34414
# Poissons Ratio (z) = 0.13403 0.36603
#
# Static dielectric constant tensor:
#      x y z
#    x 2.143430 0.000000 0.067260 
#    y 0.000000 2.083860 0.000000 
#    z 0.067260 0.000000 2.170310 
# 
# From -- ./inp_files/224047.got.cif
#   From: 2010.05.17/outbox.cif.g08.bks.cpg/sg15_113_cif.got.tgz:224047.got - 2010.06.03 18:47:42.
