data_PCOD9272881
_publ_section_title
;
Structure prediction by ZEFSAII (Michael W. Deem and Ramdas Pophale) SiO2 
 PCOD9272881
Probable space group: C 2/C
;
_chemical_formula_sum "Si O2"
_cell_formula_units_Z 40
_cell_length_a 7.161293
_cell_length_b 17.750296
_cell_length_c 16.919119
_cell_angle_alpha 90.000000
_cell_angle_beta 116.726928
_cell_angle_gamma 90.000000
_cell_volume 1920.897140
_symmetry_space_group_name_H-M "C 2/C"
_symmetry_group_IT_number 15
_symmetry_cell_setting 'monoclinic'
loop_
_space_group_symop_operation_xyz
x,y,z
-x,y,1/2-z
-x,-y,-z
x,-y,1/2+z
1/2+x,1/2+y,z
1/2-x,1/2+y,1/2-z
1/2-x,1/2-y,-z
1/2+x,1/2-y,1/2+z
loop_
_atom_site_type_symbol
_atom_site_label
_atom_site_fract_x
_atom_site_fract_y
_atom_site_fract_z
Si Si1 0.812296 0.582836 0.917970
Si Si2 0.888916 0.161089 0.470836
Si Si3 0.231753 0.079410 0.437268
Si Si4 0.197465 0.727683 0.678301
Si Si5 0.717948 0.761824 0.629708
O O1 0.063100 0.573485 0.968287
O O2 0.745268 0.618254 0.989494
O O3 0.711774 0.500753 0.891139
O O4 0.751310 0.644640 0.842242
O O5 0.468043 0.397910 0.549338
O O6 0.044156 0.219319 0.545127
O O7 0.764827 0.210817 0.383170
O O8 0.273996 0.149546 0.387406
O O9 0.301384 0.746048 0.781328
O O10 0.946095 0.731978 0.645366
#
# Coordination Sequence:
#
# PCOD9272881 Si02
#       5
#     8   8   8   8   8
#     4  11  21  36  62  88 115 149 193 239 287 336
#     4  11  20  39  59  85 115 155 196 228 286 348
#     4  10  21  39  58  86 120 151 184 241 293 331
#     4  10  20  37  61  86 113 153 198 232 282 346
#     4  10  20  38  62  81 116 158 191 232 286 346
#
# _framework density 20.823602999999999
#
# number of rings (size 3 to 8) (size 9 to 14) (size 15 to 20)
#    0.000    1.600    4.000    2.400    0.000    0.800 
#    0.000   10.000    0.000    0.000    0.000    0.000 
#    0.000    0.000    0.000    0.000    0.000    0.000 
#
# Total GULP energy -111889.246948 kJ/mol
# GULP energy per Si atom -5594.462347 kJ/mol
# Density = 2.077621 g / cm^3
# Si number density = 20.823603 Si / 1000 Ang^3
#
#
#
# Elastic Constant Matrix: (Units=GPa)
#
#
# Indices 1 2 3 4 5 6 
#
# 1 73.8767 32.4566 12.9726 0.0000 2.1778 0.0000
# 2 32.4566 163.8399 39.6116 0.0000 -16.3137 0.0000
# 3 12.9726 39.6116 90.2773 0.0000 -9.9906 0.0000
# 4 0.0000 0.0000 0.0000 12.2195 0.0000 -5.9996
# 5 2.1778 -16.3137 -9.9906 0.0000 19.0629 0.0000
# 6 0.0000 0.0000 0.0000 -5.9996 0.0000 26.4013
#
#
#
# Elastic Compliance Matrix: (Units=1/GPa)
#
#
# Indices 1 2 3 4 5 6 
#
# 1 0.015350 -0.003232 -0.001367 0.000000 -0.005236 0.000000
# 2 -0.003232 0.007899 -0.002349 0.000000 0.005898 0.000000
# 3 -0.001367 -0.002349 0.012844 0.000000 0.004877 0.000000
# 4 0.000000 0.000000 0.000000 0.092114 0.000000 0.020933
# 5 -0.005236 0.005898 0.004877 0.000000 0.060660 0.000000
# 6 0.000000 0.000000 0.000000 0.020933 0.000000 0.042634
#
#
# Mechanical properties :
#
#
# Convention : Reuss Voigt Hill
#
# Bulk Modulus (GPa) = 45.04993 55.34174 50.19583
# Shear Modulus (GPa) = 19.77886 27.73361 23.75624
#
# Velocity S-wave (km/s) = 3.08527 3.65339 3.38129
# Velocity P-wave (km/s) = 5.86284 6.66562 6.27708
#
# Compressibility (1/GPa) = 0.02219760
#
# Stress axis : x y z
#
# Youngs Moduli (GPa) = 65.14545 126.60101 77.85872
#
# Poissons Ratio (x) = 0.40913 0.10645
# Poissons Ratio (y) = 0.21053 0.18287
# Poissons Ratio (z) = 0.08907 0.29735
#
# Static dielectric constant tensor:
#      x y z
#    x 1.795470 0.000000 -0.007680 
#    y 0.000000 1.725020 0.000000 
#    z -0.007680 0.000000 1.715460 
# 
# From -- ./inp_files/188517.got.cif
#   From: 2010.05.17/outbox.cif.g08.bks.cpg/sg15_95_cif.got.tgz:188517.got - 2010.06.03 18:47:42.
