data_PCOD9272812
_publ_section_title
;
Structure prediction by ZEFSAII (Michael W. Deem and Ramdas Pophale) SiO2 
 PCOD9272812
Probable space group: C 2/C
;
_chemical_formula_sum "Si O2"
_cell_formula_units_Z 40
_cell_length_a 12.816401
_cell_length_b 23.056688
_cell_length_c 12.158671
_cell_angle_alpha 90.000000
_cell_angle_beta 151.691317
_cell_angle_gamma 90.000000
_cell_volume 1703.846563
_symmetry_space_group_name_H-M "C 2/C"
_symmetry_group_IT_number 15
_symmetry_cell_setting 'monoclinic'
loop_
_space_group_symop_operation_xyz
x,y,z
-x,y,1/2-z
-x,-y,-z
x,-y,1/2+z
1/2+x,1/2+y,z
1/2-x,1/2+y,1/2-z
1/2-x,1/2-y,-z
1/2+x,1/2-y,1/2+z
loop_
_atom_site_type_symbol
_atom_site_label
_atom_site_fract_x
_atom_site_fract_y
_atom_site_fract_z
Si Si1 0.488899 0.441720 0.362993
Si Si2 0.783435 0.935394 0.713868
Si Si3 0.040756 0.261436 0.956858
Si Si4 0.538303 0.682504 0.403181
Si Si5 0.621242 0.874342 0.155662
O O1 0.500000 0.419630 0.250000
O O2 0.700901 0.439438 0.638260
O O3 0.400285 0.507465 0.278638
O O4 0.321019 0.402736 0.275600
O O5 0.532489 0.926549 0.450668
O O6 0.896374 0.876643 0.775769
O O7 0.308033 0.253284 0.174878
O O8 0.016446 0.327740 0.975051
O O9 0.021319 0.221753 0.048098
O O10 0.500000 0.710619 0.250000
O O11 0.785083 0.661171 0.654949
#
# Coordination Sequence:
#
# PCOD9272812 Si02
#       5
#     8   8   8   8   8
#     4  10  22  39  64  89 121 161 208 263 319 380
#     4  10  20  40  60  90 124 159 205 260 320 381
#     4  10  20  37  60  89 129 174 211 260 318 381
#     4  10  21  36  58  91 130 168 209 257 318 388
#     4  10  21  37  59  87 124 167 208 259 316 378
#
# _framework density 23.476292000000001
#
# number of rings (size 3 to 8) (size 9 to 14) (size 15 to 20)
#    0.000    2.000    2.000    1.200    0.000    4.800 
#    0.000    2.000    0.000   10.800    0.000    0.000 
#    0.000    0.000    0.000    0.000    0.000    0.000 
#
# Total GULP energy -111549.399299 kJ/mol
# GULP energy per Si atom -5577.469965 kJ/mol
# Density = 2.342286 g / cm^3
# Si number density = 23.476292 Si / 1000 Ang^3
#
#
#
# Elastic Constant Matrix: (Units=GPa)
#
#
# Indices 1 2 3 4 5 6 
#
# 1 39.7754 -6.2014 37.4630 0.0000 -13.5275 0.0000
# 2 -6.2014 85.9864 4.2663 0.0000 4.4783 -0.0001
# 3 37.4630 4.2663 114.1631 -0.0001 6.8654 -0.0001
# 4 0.0000 0.0000 -0.0001 40.9120 0.0000 12.6783
# 5 -13.5275 4.4783 6.8654 0.0000 25.4530 0.0000
# 6 0.0000 -0.0001 -0.0001 12.6783 0.0000 -8.7542
#
#
#
# Elastic Compliance Matrix: (Units=1/GPa)
#
#
# Indices 1 2 3 4 5 6 
#
# 1 0.057970 0.003365 -0.021312 0.000000 0.035966 0.000000
# 2 0.003365 0.011944 -0.001557 0.000000 0.000107 0.000000
# 3 -0.021312 -0.001557 0.016747 0.000000 -0.015570 0.000000
# 4 0.000000 0.000000 0.000000 0.016871 0.000000 0.024433
# 5 0.035966 0.000107 -0.015570 0.000000 0.062584 0.000000
# 6 0.000000 0.000000 0.000000 0.024433 0.000000 -0.078845
#
#
# Mechanical properties :
#
#
# Convention : Reuss Voigt Hill
#
# Bulk Modulus (GPa) = 20.98437 34.55338 27.76888
# Shear Modulus (GPa) = 35.17066 25.14862 30.15964
#
# Velocity S-wave (km/s) = 3.87477 3.27652 3.58814
# Velocity P-wave (km/s) = 5.38298 5.39115 5.38707
#
# Compressibility (1/GPa) = 0.04765451
#
# Stress axis : x y z
#
# Youngs Moduli (GPa) = 17.25019 83.72313 59.71063
#
# Poissons Ratio (x) = -0.28174 1.27254
# Poissons Ratio (y) = -0.05805 0.09297
# Poissons Ratio (z) = 0.36763 0.13036
#
# Static dielectric constant tensor:
#      x y z
#    x 1.882930 0.000000 0.045730 
#    y 0.000000 1.850730 0.000000 
#    z 0.045730 0.000000 2.021650 
# 
# From -- ./inp_files/4909.got.cif
#   From: 2010.05.17/outbox.cif.g08.bks.cpg/sg15_3_cif.got.tgz:4909.got - 2010.06.03 18:47:42.
