data_PCOD9272287
_publ_section_title
;
Structure prediction by ZEFSAII (Michael W. Deem and Ramdas Pophale) SiO2 
 PCOD9272287
Probable space group: C 2/C
;
_chemical_formula_sum "Si O2"
_cell_formula_units_Z 48
_cell_length_a 16.578105
_cell_length_b 8.689737
_cell_length_c 19.072581
_cell_angle_alpha 90.000000
_cell_angle_beta 45.063746
_cell_angle_gamma 90.000000
_cell_volume 1944.995665
_symmetry_space_group_name_H-M "C 2/C"
_symmetry_group_IT_number 15
_symmetry_cell_setting 'monoclinic'
loop_
_space_group_symop_operation_xyz
x,y,z
-x,y,1/2-z
-x,-y,-z
x,-y,1/2+z
1/2+x,1/2+y,z
1/2-x,1/2+y,1/2-z
1/2-x,1/2-y,-z
1/2+x,1/2-y,1/2+z
loop_
_atom_site_type_symbol
_atom_site_label
_atom_site_fract_x
_atom_site_fract_y
_atom_site_fract_z
Si Si1 0.998845 0.659720 0.330558
Si Si2 0.676053 0.047902 0.503676
Si Si3 0.182516 0.578256 0.774191
Si Si4 0.634571 0.733406 0.163181
Si Si5 0.503380 0.747504 0.461271
Si Si6 0.053800 0.944590 0.365526
O O1 0.100480 0.565440 0.306455
O O2 0.023243 0.839465 0.319404
O O3 0.000000 0.605448 0.250000
O O4 0.880206 0.612932 0.440519
O O5 0.664958 0.147315 0.582163
O O6 0.799593 0.076176 0.395918
O O7 0.591853 0.129182 0.499481
O O8 0.177827 0.689903 0.709033
O O9 0.123838 0.670496 0.873961
O O10 0.311169 0.532418 0.710185
O O11 0.500000 0.716231 0.250000
O O12 0.494567 0.608083 0.410607
O O13 0.486048 0.663913 0.545168
#
# Coordination Sequence:
#
# PCOD9272287 Si02
#       6
#     8   8   8   8   8   8
#     4  11  22  43  66  99 132 173 217 272 330 380
#     4  10  20  36  67  93 124 166 225 265 314 388
#     4  11  20  40  67  95 124 174 221 265 313 390
#     4  11  18  35  63  97 120 167 219 269 307 382
#     4  10  22  41  61  94 127 172 213 262 330 389
#     4  11  24  41  64  93 139 167 210 274 331 386
#
# _framework density 24.678718
#
# number of rings (size 3 to 8) (size 9 to 14) (size 15 to 20)
#    0.000    1.333    6.667    1.000    0.000    2.667 
#    6.000    0.000    0.000   13.000    0.000    0.000 
#    0.000    0.000    0.000    0.000    0.000    0.000 
#
# Total GULP energy -134455.473706 kJ/mol
# GULP energy per Si atom -5602.311404 kJ/mol
# Density = 2.462255 g / cm^3
# Si number density = 24.678718 Si / 1000 Ang^3
#
#
#
# Elastic Constant Matrix: (Units=GPa)
#
#
# Indices 1 2 3 4 5 6 
#
# 1 51.3182 19.9406 22.1153 0.0000 -9.1214 0.0000
# 2 19.9406 78.2365 26.5466 0.0000 -4.8483 0.0000
# 3 22.1153 26.5466 91.9639 0.0000 -14.9176 0.0000
# 4 0.0000 0.0000 0.0000 19.5303 0.0000 12.0454
# 5 -9.1214 -4.8483 -14.9176 0.0000 39.9484 0.0000
# 6 0.0000 0.0000 0.0000 12.0454 0.0000 26.9248
#
#
#
# Elastic Compliance Matrix: (Units=1/GPa)
#
#
# Indices 1 2 3 4 5 6 
#
# 1 0.023469 -0.004482 -0.003799 0.000000 0.003396 0.000000
# 2 -0.004482 0.015027 -0.003332 0.000000 -0.000444 0.000000
# 3 -0.003799 -0.003332 0.013352 0.000000 0.003714 0.000000
# 4 0.000000 0.000000 0.000000 0.070714 0.000000 -0.031635
# 5 0.003396 -0.000444 0.003714 0.000000 0.027141 0.000000
# 6 0.000000 0.000000 0.000000 -0.031635 0.000000 0.051293
#
#
# Mechanical properties :
#
#
# Convention : Reuss Voigt Hill
#
# Bulk Modulus (GPa) = 34.93890 39.85819 37.39855
# Shear Modulus (GPa) = 21.38927 27.47510 24.43219
#
# Velocity S-wave (km/s) = 2.94719 3.34025 3.14986
# Velocity P-wave (km/s) = 5.07636 5.57335 5.33065
#
# Compressibility (1/GPa) = 0.02862139
#
# Stress axis : x y z
#
# Youngs Moduli (GPa) = 42.61004 66.54597 74.89692
#
# Poissons Ratio (x) = 0.29827 0.28453
# Poissons Ratio (y) = 0.19098 0.24955
# Poissons Ratio (z) = 0.16188 0.22173
#
# Static dielectric constant tensor:
#      x y z
#    x 1.951240 0.000000 0.039100 
#    y 0.000000 1.953420 0.000000 
#    z 0.039100 0.000000 1.959480 
# 
# From -- ./inp_files/251786.got.cif
#   From: 2010.05.17/outbox.cif.g08.bks.cpg/sg15_126_cif.got.tgz:251786.got - 2010.06.03 18:47:42.
