data_PCOD9272866
_publ_section_title
;
Structure prediction by ZEFSAII (Michael W. Deem and Ramdas Pophale) SiO2 
 PCOD9272866
Probable space group: C 2/C
;
_chemical_formula_sum "Si O2"
_cell_formula_units_Z 40
_cell_length_a 23.264450
_cell_length_b 5.316192
_cell_length_c 17.985951
_cell_angle_alpha 90.000000
_cell_angle_beta 133.693943
_cell_angle_gamma 90.000000
_cell_volume 1608.382297
_symmetry_space_group_name_H-M "C 2/C"
_symmetry_group_IT_number 15
_symmetry_cell_setting 'monoclinic'
loop_
_space_group_symop_operation_xyz
x,y,z
-x,y,1/2-z
-x,-y,-z
x,-y,1/2+z
1/2+x,1/2+y,z
1/2-x,1/2+y,1/2-z
1/2-x,1/2-y,-z
1/2+x,1/2-y,1/2+z
loop_
_atom_site_type_symbol
_atom_site_label
_atom_site_fract_x
_atom_site_fract_y
_atom_site_fract_z
Si Si1 0.119617 0.295014 0.301700
Si Si2 0.285515 0.713544 0.614745
Si Si3 0.349752 0.063228 0.891165
Si Si4 0.443149 0.163539 0.590991
Si Si5 0.406679 0.447978 0.426178
O O1 0.149370 0.008594 0.331005
O O2 0.181662 0.510610 0.333523
O O3 0.096624 0.374023 0.365740
O O4 0.036145 0.302564 0.184250
O O5 0.250000 0.750000 0.500000
O O6 0.222655 0.600180 0.617557
O O7 0.357850 0.317231 0.853196
O O8 0.365080 0.807094 0.860525
O O9 0.426059 0.053472 0.015732
O O10 0.400269 0.394156 0.509510
O O11 0.500000 0.500000 0.500000
#
# Coordination Sequence:
#
# PCOD9272866 Si02
#       5
#     8   8   8   8   8
#     4  11  23  34  57  85 123 152 177 238 285 350
#     4  12  21  36  55  84 120 154 184 222 293 344
#     4  10  21  35  58  84 109 143 198 231 277 344
#     4   9  23  35  57  86 118 146 197 226 289 333
#     4  10  20  37  61  84 106 147 199 243 273 323
#
# _framework density 24.869706000000001
#
# number of rings (size 3 to 8) (size 9 to 14) (size 15 to 20)
#    1.200    0.400    2.000    3.600    2.800    1.600 
#    0.000    0.000    0.000    4.800    0.000    0.000 
#    0.000    0.000    0.000    0.000    0.000    0.000 
#
# Total GULP energy -111668.652455 kJ/mol
# GULP energy per Si atom -5583.432623 kJ/mol
# Density = 2.481310 g / cm^3
# Si number density = 24.869706 Si / 1000 Ang^3
#
#
#
# Elastic Constant Matrix: (Units=GPa)
#
#
# Indices 1 2 3 4 5 6 
#
# 1 87.7366 11.3904 0.3003 -0.0001 6.9724 -0.0002
# 2 11.3904 180.4162 19.1455 0.0007 12.6916 0.0034
# 3 0.3003 19.1455 95.1531 -0.0013 -3.1524 0.0000
# 4 -0.0001 0.0007 -0.0013 30.5836 -0.0008 7.1384
# 5 6.9724 12.6916 -3.1524 -0.0008 33.9672 0.0000
# 6 -0.0002 0.0034 0.0000 7.1384 0.0000 40.1829
#
#
#
# Elastic Compliance Matrix: (Units=1/GPa)
#
#
# Indices 1 2 3 4 5 6 
#
# 1 0.011646 -0.000583 0.000009 0.000000 -0.002172 0.000000
# 2 -0.000583 0.005866 -0.001251 0.000000 -0.002188 0.000000
# 3 0.000009 -0.001251 0.010810 0.000001 0.001469 0.000000
# 4 0.000000 0.000000 0.000001 0.034112 0.000001 -0.006060
# 5 -0.002172 -0.002188 0.001469 0.000001 0.030840 0.000000
# 6 0.000000 0.000000 0.000000 -0.006060 0.000000 0.025963
#
#
# Mechanical properties :
#
#
# Convention : Reuss Voigt Hill
#
# Bulk Modulus (GPa) = 40.53407 47.21981 43.87694
# Shear Modulus (GPa) = 38.13554 43.11139 40.62347
#
# Velocity S-wave (km/s) = 3.92013 4.16804 4.04598
# Velocity P-wave (km/s) = 6.06827 6.49550 6.28551
#
# Compressibility (1/GPa) = 0.02467060
#
# Stress axis : x y z
#
# Youngs Moduli (GPa) = 85.86604 170.46639 92.50928
#
# Poissons Ratio (x) = 0.09945 -0.00080
# Poissons Ratio (y) = 0.05010 0.11573
# Poissons Ratio (z) = -0.00075 0.21325
#
# Static dielectric constant tensor:
#      x y z
#    x 1.955710 0.000000 -0.011310 
#    y 0.000000 2.134660 0.000000 
#    z -0.011310 0.000000 1.934480 
# 
# From -- ./inp_files/283945.got.cif
#   From: 2010.05.17/outbox.cif.g08.bks.cpg/sg15_142_cif.got.tgz:283945.got - 2010.06.03 18:47:42.
