data_PCOD9272635
_publ_section_title
;
Structure prediction by ZEFSAII (Michael W. Deem and Ramdas Pophale) SiO2 
 PCOD9272635
Probable space group: C 2/C
;
_chemical_formula_sum "Si O2"
_cell_formula_units_Z 56
_cell_length_a 19.536707
_cell_length_b 22.033441
_cell_length_c 16.308707
_cell_angle_alpha 90.000000
_cell_angle_beta 155.560385
_cell_angle_gamma 90.000000
_cell_volume 2904.520331
_symmetry_space_group_name_H-M "C 2/C"
_symmetry_group_IT_number 15
_symmetry_cell_setting 'monoclinic'
loop_
_space_group_symop_operation_xyz
x,y,z
-x,y,1/2-z
-x,-y,-z
x,-y,1/2+z
1/2+x,1/2+y,z
1/2-x,1/2+y,1/2-z
1/2-x,1/2-y,-z
1/2+x,1/2-y,1/2+z
loop_
_atom_site_type_symbol
_atom_site_label
_atom_site_fract_x
_atom_site_fract_y
_atom_site_fract_z
Si Si1 0.670553 0.070348 0.453583
Si Si2 0.786245 0.392985 0.668351
Si Si3 0.090515 0.775692 0.437184
Si Si4 0.077541 0.438210 0.418729
Si Si5 0.122580 0.581432 0.634144
Si Si6 0.669446 0.536530 0.184283
Si Si7 0.194879 0.836594 0.278081
O O1 0.500000 0.106445 0.250000
O O2 0.742327 0.064021 0.441307
O O3 0.788197 0.107650 0.639990
O O4 0.612241 0.008494 0.431775
O O5 0.738376 0.325171 0.590569
O O6 0.665525 0.415357 0.607637
O O7 0.968149 0.401868 0.905919
O O8 0.164084 0.712036 0.545186
O O9 0.000000 0.773284 0.250000
O O10 0.970117 0.800915 0.377197
O O11 0.258299 0.427494 0.657799
O O12 0.000000 0.411382 0.250000
O O13 0.949285 0.422981 0.352166
O O14 0.195501 0.515197 0.692735
O O15 0.261475 0.631776 0.761496
O O16 0.500000 0.500000 0.000000
#
# Coordination Sequence:
#
# PCOD9272635 Si02
#       7
#     8   8   8   8   8   8   8
#     4  11  18  32  55  78 111 156 197 236 293 355
#     4  11  22  35  55  80 116 159 194 243 297 362
#     4  12  25  38  54  88 122 166 210 246 293 370
#     4  10  20  37  59  85 112 154 204 247 308 367
#     4  11  21  39  57  81 113 158 201 251 303 363
#     4  11  21  35  56  84 117 152 201 251 306 365
#     4  12  23  36  55  79 121 159 204 245 295 352
#
# _framework density 19.280291999999999
#
# number of rings (size 3 to 8) (size 9 to 14) (size 15 to 20)
#    0.000    0.857    4.286    6.857    0.000    0.000 
#    0.000    2.143    0.000    0.000    0.000    9.000 
#    0.000    0.000    0.000    0.286    0.000    0.000 
#
# Total GULP energy -156021.938694 kJ/mol
# GULP energy per Si atom -5572.212096 kJ/mol
# Density = 1.923641 g / cm^3
# Si number density = 19.280292 Si / 1000 Ang^3
#
#
#
# Elastic Constant Matrix: (Units=GPa)
#
#
# Indices 1 2 3 4 5 6 
#
# 1 112.8393 21.9020 37.2422 0.0000 -25.5759 0.0000
# 2 21.9020 69.7187 8.8302 0.0000 -7.7489 0.0000
# 3 37.2422 8.8302 71.9852 0.0000 -5.8956 0.0000
# 4 0.0000 0.0000 0.0000 30.2850 0.0000 5.7019
# 5 -25.5759 -7.7489 -5.8956 0.0000 32.8670 0.0000
# 6 0.0000 0.0000 0.0000 5.7019 0.0000 26.9056
#
#
#
# Elastic Compliance Matrix: (Units=1/GPa)
#
#
# Indices 1 2 3 4 5 6 
#
# 1 0.013228 -0.002453 -0.005833 0.000000 0.008669 0.000000
# 2 -0.002453 0.015356 -0.000481 0.000000 0.001625 0.000000
# 3 -0.005833 -0.000481 0.016835 0.000000 -0.001633 0.000000
# 4 0.000000 0.000000 0.000000 0.034392 0.000000 -0.007288
# 5 0.008669 0.001625 -0.001633 0.000000 0.037262 0.000000
# 6 0.000000 0.000000 0.000000 -0.007288 0.000000 0.038711
#
#
# Mechanical properties :
#
#
# Convention : Reuss Voigt Hill
#
# Bulk Modulus (GPa) = 35.86323 43.38802 39.62562
# Shear Modulus (GPa) = 27.38019 30.44946 28.91483
#
# Velocity S-wave (km/s) = 3.77253 3.97836 3.87681
# Velocity P-wave (km/s) = 6.13329 6.60725 6.37468
#
# Compressibility (1/GPa) = 0.02788372
#
# Stress axis : x y z
#
# Youngs Moduli (GPa) = 75.59476 65.12268 59.40085
#
# Poissons Ratio (x) = 0.15977 0.34648
# Poissons Ratio (y) = 0.18546 0.02859
# Poissons Ratio (z) = 0.44094 0.03134
#
# Static dielectric constant tensor:
#      x y z
#    x 1.777280 0.000000 0.029020 
#    y 0.000000 1.667570 0.000000 
#    z 0.029020 0.000000 1.801150 
# 
# From -- ./inp_files/163833.got.cif
#   From: 2010.05.17/outbox.cif.g08.bks.cpg/sg15_82_cif.got.tgz:163833.got - 2010.06.03 18:47:42.
