data_PCOD9272278
_publ_section_title
;
Structure prediction by ZEFSAII (Michael W. Deem and Ramdas Pophale) SiO2 
 PCOD9272278
Probable space group: C 2/C
;
_chemical_formula_sum "Si O2"
_cell_formula_units_Z 44
_cell_length_a 19.579604
_cell_length_b 8.792458
_cell_length_c 13.302520
_cell_angle_alpha 90.000000
_cell_angle_beta 49.434094
_cell_angle_gamma 90.000000
_cell_volume 1739.668427
_symmetry_space_group_name_H-M "C 2/C"
_symmetry_group_IT_number 15
_symmetry_cell_setting 'monoclinic'
loop_
_space_group_symop_operation_xyz
x,y,z
-x,y,1/2-z
-x,-y,-z
x,-y,1/2+z
1/2+x,1/2+y,z
1/2-x,1/2+y,1/2-z
1/2-x,1/2-y,-z
1/2+x,1/2-y,1/2+z
loop_
_atom_site_type_symbol
_atom_site_label
_atom_site_fract_x
_atom_site_fract_y
_atom_site_fract_z
Si Si1 0.809503 0.001840 0.687537
Si Si2 0.000000 0.977039 0.250000
Si Si3 0.602643 0.938992 0.190503
Si Si4 0.338673 0.721868 0.851573
Si Si5 0.462178 0.702422 0.102796
Si Si6 0.160647 0.294635 0.928568
O O1 0.821097 0.117351 0.771110
O O2 0.803387 0.120615 0.602153
O O3 0.898520 0.896748 0.591910
O O4 0.726509 0.896119 0.797548
O O5 0.913955 0.869995 0.340101
O O6 0.987130 0.087415 0.168411
O O7 0.500000 0.939480 0.250000
O O8 0.601219 0.829296 0.287593
O O9 0.626287 0.108409 0.198399
O O10 0.655486 0.869878 0.044029
O O11 0.250000 0.750000 0.000000
O O12 0.557991 0.777172 0.983302
#
# Coordination Sequence:
#
# PCOD9272278 Si02
#       6
#     8   4   8   8   8   8
#     4  11  26  41  67 101 135 175 220 270 348 386
#     4  10  20  36  66  98 130 160 226 274 318 380
#     4  10  20  42  70  94 130 173 225 269 328 386
#     4  11  22  39  66 100 128 172 220 272 323 400
#     4  10  22  44  70  96 127 185 221 273 327 396
#     4  11  23  46  63  99 140 173 218 280 327 397
#
# _framework density 25.292175
#
# number of rings (size 3 to 8) (size 9 to 14) (size 15 to 20)
#    0.000    1.455    5.455    0.545    0.000    5.091 
#    0.000    8.182    0.000    0.000    0.000    0.000 
#    0.000    0.000    0.000    0.000    0.000    0.000 
#
# Total GULP energy -123275.492204 kJ/mol
# GULP energy per Si atom -5603.431464 kJ/mol
# Density = 2.523461 g / cm^3
# Si number density = 25.292175 Si / 1000 Ang^3
#
#
#
# Elastic Constant Matrix: (Units=GPa)
#
#
# Indices 1 2 3 4 5 6 
#
# 1 81.3410 57.4246 42.1969 0.0001 -14.8565 0.0000
# 2 57.4246 192.2075 38.7299 0.0004 -7.7245 -0.0003
# 3 42.1969 38.7299 92.7716 0.0001 -22.0309 -0.0001
# 4 0.0001 0.0004 0.0001 53.1452 0.0000 -13.8726
# 5 -14.8565 -7.7245 -22.0309 0.0000 33.9010 0.0000
# 6 0.0000 -0.0003 -0.0001 -13.8726 0.0000 49.9139
#
#
#
# Elastic Compliance Matrix: (Units=1/GPa)
#
#
# Indices 1 2 3 4 5 6 
#
# 1 0.019152 -0.004360 -0.006071 0.000000 0.003455 0.000000
# 2 -0.004360 0.006676 -0.001060 0.000000 -0.001078 0.000000
# 3 -0.006071 -0.001060 0.015720 0.000000 0.007314 0.000000
# 4 0.000000 0.000000 0.000000 0.020288 0.000000 0.005639
# 5 0.003455 -0.001078 0.007314 0.000000 0.035519 0.000000
# 6 0.000000 0.000000 0.000000 0.005639 0.000000 0.021602
#
#
# Mechanical properties :
#
#
# Convention : Reuss Voigt Hill
#
# Bulk Modulus (GPa) = 53.86102 71.44700 62.65401
# Shear Modulus (GPa) = 33.75507 42.58994 38.17251
#
# Velocity S-wave (km/s) = 3.65719 4.10801 3.88914
# Velocity P-wave (km/s) = 6.25900 7.12818 6.70769
#
# Compressibility (1/GPa) = 0.01856630
#
# Stress axis : x y z
#
# Youngs Moduli (GPa) = 52.21345 149.80139 63.61432
#
# Poissons Ratio (x) = 0.65311 0.38619
# Poissons Ratio (y) = 0.22764 0.06742
# Poissons Ratio (z) = 0.31698 0.15877
#
# Static dielectric constant tensor:
#      x y z
#    x 2.014410 0.000000 -0.014780 
#    y 0.000000 1.975730 0.000000 
#    z -0.014780 0.000000 1.983820 
# 
# From -- ./inp_files/221612.got.cif
#   From: 2010.05.17/outbox.cif.g08.bks.cpg/sg15_111_cif.got.tgz:221612.got - 2010.06.03 18:47:42.
