data_PCOD9272295
_publ_section_title
;
Structure prediction by ZEFSAII (Michael W. Deem and Ramdas Pophale) SiO2 
 PCOD9272295
Probable space group: C 2/C
;
_chemical_formula_sum "Si O2"
_cell_formula_units_Z 48
_cell_length_a 7.176618
_cell_length_b 26.726609
_cell_length_c 11.637390
_cell_angle_alpha 90.000000
_cell_angle_beta 114.322569
_cell_angle_gamma 90.000000
_cell_volume 2034.007655
_symmetry_space_group_name_H-M "C 2/C"
_symmetry_group_IT_number 15
_symmetry_cell_setting 'monoclinic'
loop_
_space_group_symop_operation_xyz
x,y,z
-x,y,1/2-z
-x,-y,-z
x,-y,1/2+z
1/2+x,1/2+y,z
1/2-x,1/2+y,1/2-z
1/2-x,1/2-y,-z
1/2+x,1/2-y,1/2+z
loop_
_atom_site_type_symbol
_atom_site_label
_atom_site_fract_x
_atom_site_fract_y
_atom_site_fract_z
Si Si1 0.566242 0.410529 0.533566
Si Si2 0.757176 0.361272 0.212820
Si Si3 0.772303 0.848845 0.747117
Si Si4 0.321379 0.945384 0.401553
Si Si5 0.256501 0.051351 0.380967
Si Si6 0.264644 0.752270 0.144813
O O1 0.376122 0.391785 0.411263
O O2 0.687875 0.361477 0.610310
O O3 0.712540 0.445522 0.497698
O O4 0.460053 0.438115 0.613708
O O5 0.746306 0.393764 0.325997
O O6 0.682684 0.304117 0.177349
O O7 0.000000 0.361062 0.250000
O O8 0.679839 0.900172 0.676165
O O9 0.670155 0.798158 0.676429
O O10 0.000000 0.846313 0.750000
O O11 0.563545 0.948688 0.478188
O O12 0.259558 0.996867 0.324168
O O13 0.500000 0.752538 0.250000
O O14 0.250000 0.750000 0.000000
#
# Coordination Sequence:
#
# PCOD9272295 Si02
#       6
#     8   8   8   8   8   8
#     4  11  22  41  63  91 130 170 211 266 328 389
#     4  11  22  39  64  93 127 168 220 271 322 390
#     4   9  20  38  63  92 125 166 216 263 324 392
#     4  11  24  39  64  96 130 169 215 269 319 392
#     4  10  22  42  63  94 129 169 218 262 323 385
#     4  10  20  36  67  98 124 170 224 272 327 394
#
# _framework density 23.598731000000001
#
# number of rings (size 3 to 8) (size 9 to 14) (size 15 to 20)
#    0.000    1.667    1.667    4.000    2.333    6.000 
#    0.000    0.833    3.667    0.000    0.000    0.000 
#    0.000    0.000    0.000    0.000    0.000    0.000 
#
# Total GULP energy -133861.985384 kJ/mol
# GULP energy per Si atom -5577.582724 kJ/mol
# Density = 2.354502 g / cm^3
# Si number density = 23.598731 Si / 1000 Ang^3
#
#
#
# Elastic Constant Matrix: (Units=GPa)
#
#
# Indices 1 2 3 4 5 6 
#
# 1 65.6207 38.2992 15.5564 0.0000 -3.1481 0.0000
# 2 38.2992 131.2011 35.8023 0.0000 7.9004 0.0000
# 3 15.5564 35.8023 96.5755 0.0000 8.4821 0.0000
# 4 0.0000 0.0000 0.0000 36.8888 0.0000 6.2031
# 5 -3.1481 7.9004 8.4821 0.0000 20.3163 0.0000
# 6 0.0000 0.0000 0.0000 6.2031 0.0000 17.0473
#
#
#
# Elastic Compliance Matrix: (Units=1/GPa)
#
#
# Indices 1 2 3 4 5 6 
#
# 1 0.019088 -0.005497 -0.001541 0.000000 0.005739 0.000000
# 2 -0.005497 0.010147 -0.002548 0.000000 -0.003734 0.000000
# 3 -0.001541 -0.002548 0.011918 0.000000 -0.004224 0.000000
# 4 0.000000 0.000000 0.000000 0.028875 0.000000 -0.010507
# 5 0.005739 -0.003734 -0.004224 0.000000 0.053326 0.000000
# 6 0.000000 0.000000 0.000000 -0.010507 0.000000 0.062484
#
#
# Mechanical properties :
#
#
# Convention : Reuss Voigt Hill
#
# Bulk Modulus (GPa) = 45.49401 52.52368 49.00884
# Shear Modulus (GPa) = 23.54742 28.43312 25.99027
#
# Velocity S-wave (km/s) = 3.16226 3.47487 3.32225
# Velocity P-wave (km/s) = 5.71430 6.19717 5.96063
#
# Compressibility (1/GPa) = 0.02198092
#
# Stress axis : x y z
#
# Youngs Moduli (GPa) = 52.38878 98.55375 83.90374
#
# Poissons Ratio (x) = 0.54176 0.12928
# Poissons Ratio (y) = 0.28799 0.21380
# Poissons Ratio (z) = 0.08072 0.25113
#
# Static dielectric constant tensor:
#      x y z
#    x 1.975930 0.000000 0.087240 
#    y 0.000000 1.966760 0.000000 
#    z 0.087240 0.000000 2.102580 
# 
# From -- ./inp_files/79868.got.cif
#   From: 2010.05.17/outbox.cif.g08.bks.cpg/sg15_40_cif.got.tgz:79868.got - 2010.06.03 18:47:42.
