data_PCOD9272296
_publ_section_title
;
Structure prediction by ZEFSAII (Michael W. Deem and Ramdas Pophale) SiO2 
 PCOD9272296
Probable space group: C 2/C
;
_chemical_formula_sum "Si O2"
_cell_formula_units_Z 56
_cell_length_a 7.677798
_cell_length_b 18.237907
_cell_length_c 22.204583
_cell_angle_alpha 90.000000
_cell_angle_beta 50.201352
_cell_angle_gamma 90.000000
_cell_volume 2388.825123
_symmetry_space_group_name_H-M "C 2/C"
_symmetry_group_IT_number 15
_symmetry_cell_setting 'monoclinic'
loop_
_space_group_symop_operation_xyz
x,y,z
-x,y,1/2-z
-x,-y,-z
x,-y,1/2+z
1/2+x,1/2+y,z
1/2-x,1/2+y,1/2-z
1/2-x,1/2-y,-z
1/2+x,1/2-y,1/2+z
loop_
_atom_site_type_symbol
_atom_site_label
_atom_site_fract_x
_atom_site_fract_y
_atom_site_fract_z
Si Si1 0.915551 0.638833 0.337066
Si Si2 0.270826 0.979621 0.687611
Si Si3 0.030472 0.620732 0.923086
Si Si4 0.865307 0.679263 0.841487
Si Si5 0.927729 0.199101 0.881433
Si Si6 0.156558 0.942129 0.324964
Si Si7 0.953875 0.948542 0.952545
O O1 0.913612 0.724197 0.352654
O O2 0.666495 0.605253 0.399148
O O3 0.000000 0.630780 0.250000
O O4 0.080131 0.593439 0.345807
O O5 0.000000 0.965367 0.750000
O O6 0.352144 0.045287 0.626370
O O7 0.300838 0.012836 0.747282
O O8 0.181325 0.661513 0.940544
O O9 0.001937 0.678398 0.873144
O O10 0.778767 0.595837 0.996585
O O11 0.607630 0.710720 0.896579
O O12 0.801474 0.593531 0.846141
O O13 0.000000 0.702534 0.750000
O O14 0.057542 0.132530 0.817380
O O15 0.969276 0.994427 0.394314
O O16 0.000000 0.000000 0.000000
#
# Coordination Sequence:
#
# PCOD9272296 Si02
#       7
#     8   8   8   8   8   8   8
#     4  12  27  44  68 103 141 169 232 298 341 399
#     4  12  22  42  69 105 134 175 234 288 333 411
#     4  12  23  42  76  98 135 185 236 271 343 421
#     4  10  20  36  67  99 133 175 227 271 337 407
#     4  10  26  43  65 101 136 177 224 282 344 408
#     4  10  21  41  65 103 129 175 228 274 341 402
#     4  12  23  42  72 100 134 190 227 284 347 405
#
# _framework density 23.442485000000001
#
# number of rings (size 3 to 8) (size 9 to 14) (size 15 to 20)
#    0.857    0.000    7.143    0.000    4.000    1.714 
#    0.000    2.857    0.000    0.000    0.000    0.000 
#    0.000    0.000    0.000    0.000    0.000    0.000 
#
# Total GULP energy -156075.463616 kJ/mol
# GULP energy per Si atom -5574.123701 kJ/mol
# Density = 2.338913 g / cm^3
# Si number density = 23.442485 Si / 1000 Ang^3
#
#
#
# Elastic Constant Matrix: (Units=GPa)
#
#
# Indices 1 2 3 4 5 6 
#
# 1 110.5692 43.8025 36.3460 0.0003 -43.4655 -0.0001
# 2 43.8025 147.5180 44.9653 0.0001 -20.3832 0.0000
# 3 36.3460 44.9653 97.4520 0.0004 -32.4393 -0.0003
# 4 0.0003 0.0001 0.0004 9.2506 -0.0004 -0.0653
# 5 -43.4655 -20.3832 -32.4393 -0.0004 36.1926 0.0003
# 6 -0.0001 0.0000 -0.0003 -0.0653 0.0003 15.7518
#
#
#
# Elastic Compliance Matrix: (Units=1/GPa)
#
#
# Indices 1 2 3 4 5 6 
#
# 1 0.018190 -0.002946 0.001845 0.000000 0.021840 0.000000
# 2 -0.002946 0.008438 -0.003407 0.000000 -0.001839 0.000000
# 3 0.001845 -0.003407 0.016025 0.000000 0.014661 0.000000
# 4 0.000000 0.000000 0.000000 0.108104 0.000001 0.000448
# 5 0.021840 -0.001839 0.014661 0.000001 0.065963 -0.000001
# 6 0.000000 0.000000 0.000000 0.000448 -0.000001 0.063487
#
#
# Mechanical properties :
#
#
# Convention : Reuss Voigt Hill
#
# Bulk Modulus (GPa) = 29.72834 67.30743 48.51789
# Shear Modulus (GPa) = 16.64250 27.60068 22.12159
#
# Velocity S-wave (km/s) = 2.66734 3.43502 3.07523
# Velocity P-wave (km/s) = 4.71118 6.67132 5.77502
#
# Compressibility (1/GPa) = 0.03363793
#
# Stress axis : x y z
#
# Youngs Moduli (GPa) = 54.97498 118.51358 62.40082
#
# Poissons Ratio (x) = 0.34912 -0.11513
# Poissons Ratio (y) = 0.16195 0.21259
# Poissons Ratio (z) = -0.10143 0.40376
#
# Static dielectric constant tensor:
#      x y z
#    x 1.832110 0.000000 0.164390 
#    y 0.000000 1.829040 0.000000 
#    z 0.164390 0.000000 1.736980 
# 
# From -- ./inp_files/289686.got.cif
#   From: 2010.05.17/outbox.cif.g08.bks.cpg/sg15_145_cif.got.tgz:289686.got - 2010.06.03 18:47:42.
