data_PCOD9272342
_publ_section_title
;
Structure prediction by ZEFSAII (Michael W. Deem and Ramdas Pophale) SiO2 
 PCOD9272342
Probable space group: C 2/C
;
_chemical_formula_sum "Si O2"
_cell_formula_units_Z 36
_cell_length_a 5.041257
_cell_length_b 14.158060
_cell_length_c 22.040645
_cell_angle_alpha 90.000000
_cell_angle_beta 69.895809
_cell_angle_gamma 90.000000
_cell_volume 1477.285524
_symmetry_space_group_name_H-M "C 2/C"
_symmetry_group_IT_number 15
_symmetry_cell_setting 'monoclinic'
loop_
_space_group_symop_operation_xyz
x,y,z
-x,y,1/2-z
-x,-y,-z
x,-y,1/2+z
1/2+x,1/2+y,z
1/2-x,1/2+y,1/2-z
1/2-x,1/2-y,-z
1/2+x,1/2-y,1/2+z
loop_
_atom_site_type_symbol
_atom_site_label
_atom_site_fract_x
_atom_site_fract_y
_atom_site_fract_z
Si Si1 0.528964 0.850295 0.984868
Si Si2 0.500000 0.500000 0.500000
Si Si3 0.318795 0.923787 0.203777
Si Si4 0.690979 0.940186 0.611324
Si Si5 0.535505 0.747560 0.390063
O O1 0.310125 0.913312 0.962349
O O2 0.713473 0.789032 0.922875
O O3 0.756080 0.915993 0.000189
O O4 0.396010 0.786922 0.047717
O O5 0.434057 0.516296 0.581962
O O6 0.500000 0.933177 0.250000
O O7 0.404764 0.829043 0.161843
O O8 0.000000 0.923467 0.250000
O O9 0.408468 0.013037 0.155610
O O10 0.782220 0.846176 0.637377
#
# Coordination Sequence:
#
# PCOD9272342 Si02
#       5
#     8   4   8   8   8
#     4  10  21  41  73 108 142 180 240 321 396 438
#     4  10  20  36  72 106 140 176 228 314 380 442
#     4  12  31  51  73 104 152 209 255 303 365 460
#     4  11  24  43  73 104 143 190 245 311 380 454
#     4  10  24  44  70 108 142 188 246 313 383 446
#
# _framework density 24.369022000000001
#
# number of rings (size 3 to 8) (size 9 to 14) (size 15 to 20)
#    0.000    1.333    2.222    1.333    9.333    0.889 
#    0.000    0.000    0.000    0.000    0.000    0.000 
#    0.000    0.000    0.000    0.000    0.000    0.000 
#
# Total GULP energy -100416.740645 kJ/mol
# GULP energy per Si atom -5578.707814 kJ/mol
# Density = 2.431356 g / cm^3
# Si number density = 24.369022 Si / 1000 Ang^3
#
#
#
# Elastic Constant Matrix: (Units=GPa)
#
#
# Indices 1 2 3 4 5 6 
#
# 1 129.3617 45.2437 37.1281 0.0000 -10.9494 0.0000
# 2 45.2437 105.8856 34.6591 0.0000 -28.0532 0.0000
# 3 37.1281 34.6591 89.7806 0.0000 -22.3514 0.0000
# 4 0.0000 0.0000 0.0000 43.7301 0.0000 -4.8398
# 5 -10.9494 -28.0532 -22.3514 0.0000 37.4564 0.0000
# 6 0.0000 0.0000 0.0000 -4.8398 0.0000 43.0730
#
#
#
# Elastic Compliance Matrix: (Units=1/GPa)
#
#
# Indices 1 2 3 4 5 6 
#
# 1 0.009722 -0.003600 -0.003047 0.000000 -0.001673 0.000000
# 2 -0.003600 0.013728 -0.001777 0.000000 0.008169 0.000000
# 3 -0.003047 -0.001777 0.014718 0.000000 0.006561 0.000000
# 4 0.000000 0.000000 0.000000 0.023156 0.000000 0.002602
# 5 -0.001673 0.008169 0.006561 0.000000 0.036242 0.000000
# 6 0.000000 0.000000 0.000000 0.002602 0.000000 0.023509
#
#
# Mechanical properties :
#
#
# Convention : Reuss Voigt Hill
#
# Bulk Modulus (GPa) = 46.90499 62.12109 54.51304
# Shear Modulus (GPa) = 34.47552 38.71837 36.59695
#
# Velocity S-wave (km/s) = 3.76537 3.99034 3.87949
# Velocity P-wave (km/s) = 6.18009 6.83942 6.51810
#
# Compressibility (1/GPa) = 0.02131969
#
# Stress axis : x y z
#
# Youngs Moduli (GPa) = 102.85568 72.84160 67.94461
#
# Poissons Ratio (x) = 0.26222 0.20705
# Poissons Ratio (y) = 0.37027 0.12076
# Poissons Ratio (z) = 0.31343 0.12946
#
# Static dielectric constant tensor:
#      x y z
#    x 2.105030 0.000000 -0.059940 
#    y 0.000000 2.092380 0.000000 
#    z -0.059940 0.000000 2.022810 
# 
# From -- ./inp_files/226539.got.cif
#   From: 2010.05.17/outbox.cif.g08.bks.cpg/sg15_114_cif.got.tgz:226539.got - 2010.06.03 18:47:42.
