data_PCOD9272803
_publ_section_title
;
Structure prediction by ZEFSAII (Michael W. Deem and Ramdas Pophale) SiO2 
 PCOD9272803
Probable space group: C 2/C
;
_chemical_formula_sum "Si O2"
_cell_formula_units_Z 60
_cell_length_a 16.278234
_cell_length_b 15.158054
_cell_length_c 11.604367
_cell_angle_alpha 90.000000
_cell_angle_beta 83.449260
_cell_angle_gamma 90.000000
_cell_volume 2844.641103
_symmetry_space_group_name_H-M "C 2/C"
_symmetry_group_IT_number 15
_symmetry_cell_setting 'monoclinic'
loop_
_space_group_symop_operation_xyz
x,y,z
-x,y,1/2-z
-x,-y,-z
x,-y,1/2+z
1/2+x,1/2+y,z
1/2-x,1/2+y,1/2-z
1/2-x,1/2-y,-z
1/2+x,1/2-y,1/2+z
loop_
_atom_site_type_symbol
_atom_site_label
_atom_site_fract_x
_atom_site_fract_y
_atom_site_fract_z
Si Si1 0.593433 0.034743 0.494816
Si Si2 0.500000 0.328994 0.750000
Si Si3 0.358929 0.719180 0.055959
Si Si4 0.192236 0.723008 0.179498
Si Si5 0.544434 0.766197 0.038845
Si Si6 0.101490 0.456563 0.739742
Si Si7 0.082378 0.137564 0.818292
Si Si8 0.078469 0.958599 0.921599
O O1 0.585713 0.141052 0.504906
O O2 0.627589 0.006557 0.362509
O O3 0.500000 0.000000 0.500000
O O4 0.627159 0.001514 0.613579
O O5 0.436405 0.273513 0.838693
O O6 0.547036 0.394532 0.826878
O O7 0.290942 0.718594 0.167073
O O8 0.444823 0.768551 0.068430
O O9 0.371582 0.615601 0.016128
O O10 0.327345 0.773144 0.952339
O O11 0.142614 0.639440 0.233618
O O12 0.152325 0.808580 0.241913
O O13 0.559042 0.696934 0.933560
O O14 0.000000 0.451460 0.750000
O O15 0.000000 0.127265 0.750000
O O16 0.117131 0.044247 0.857214
O O17 0.000000 0.000000 0.000000
#
# Coordination Sequence:
#
# PCOD9272803 Si02
#       8
#     8   4   8   8   8   8   8   8
#     4  10  21  34  58  90 121 151 209 259 297 360
#     4  10  22  32  58  94 120 146 196 270 308 354
#     4  10  22  37  58  90 125 156 202 257 304 367
#     4  11  21  38  61  87 124 165 202 244 314 372
#     4  11  21  38  60  87 119 159 202 254 306 360
#     4  10  20  37  60  89 120 158 210 257 295 369
#     4  12  20  35  69  88 114 160 214 254 296 366
#     4  11  20  38  59  92 119 152 209 262 305 352
#
# _framework density 21.092292
#
# number of rings (size 3 to 8) (size 9 to 14) (size 15 to 20)
#    0.000    1.333    6.000    2.000    2.800    0.000 
#    0.000    5.333    0.000    3.200    0.000    0.000 
#    0.000    0.000    0.000    0.000    0.000    0.000 
#
# Total GULP energy -167034.895351 kJ/mol
# GULP energy per Si atom -5567.829845 kJ/mol
# Density = 2.104428 g / cm^3
# Si number density = 21.092292 Si / 1000 Ang^3
#
#
#
# Elastic Constant Matrix: (Units=GPa)
#
#
# Indices 1 2 3 4 5 6 
#
# 1 46.0341 -5.6749 13.5277 0.0000 -10.2890 0.0000
# 2 -5.6749 67.5975 22.9816 0.0000 2.9748 0.0000
# 3 13.5277 22.9816 136.6071 0.0000 6.0208 0.0000
# 4 0.0000 0.0000 0.0000 47.2209 0.0000 9.9845
# 5 -10.2890 2.9748 6.0208 0.0000 24.0776 0.0000
# 6 0.0000 0.0000 0.0000 9.9845 0.0000 -8.5000
#
#
#
# Elastic Compliance Matrix: (Units=1/GPa)
#
#
# Indices 1 2 3 4 5 6 
#
# 1 0.025683 0.002850 -0.003530 0.000000 0.011506 0.000000
# 2 0.002850 0.016047 -0.002981 0.000000 -0.000019 0.000000
# 3 -0.003530 -0.002981 0.008313 0.000000 -0.003219 0.000000
# 4 0.000000 0.000000 0.000000 0.016964 0.000000 0.019926
# 5 0.011506 -0.000019 -0.003219 0.000000 0.047256 0.000000
# 6 0.000000 0.000000 0.000000 0.019926 0.000000 -0.094241
#
#
# Mechanical properties :
#
#
# Convention : Reuss Voigt Hill
#
# Bulk Modulus (GPa) = 23.40739 34.65637 29.03188
# Shear Modulus (GPa) = 120.23599 27.18666 73.71133
#
# Velocity S-wave (km/s) = 7.55834 3.59407 5.91802
# Velocity P-wave (km/s) = 9.34307 5.80428 7.77762
#
# Compressibility (1/GPa) = 0.04272156
#
# Stress axis : x y z
#
# Youngs Moduli (GPa) = 38.93589 62.31690 120.29100
#
# Poissons Ratio (x) = -0.17760 0.42461
# Poissons Ratio (y) = -0.11096 0.35858
# Poissons Ratio (z) = 0.13744 0.18576
#
# Static dielectric constant tensor:
#      x y z
#    x 1.134950 0.000000 -0.382650 
#    y 0.000000 1.915950 0.000000 
#    z -0.382650 0.000000 1.629660 
# 
# From -- ./inp_files/105354.got.cif
#   From: 2010.05.17/outbox.cif.g08.bks.cpg/sg15_53_cif.got.tgz:105354.got - 2010.06.03 18:47:42.
