data_PCOD9272955
_publ_section_title
;
Structure prediction by ZEFSAII (Michael W. Deem and Ramdas Pophale) SiO2 
 PCOD9272955
Probable space group: C 2/C
;
_chemical_formula_sum "Si O2"
_cell_formula_units_Z 48
_cell_length_a 6.553373
_cell_length_b 26.714975
_cell_length_c 16.706294
_cell_angle_alpha 90.000000
_cell_angle_beta 54.287336
_cell_angle_gamma 90.000000
_cell_volume 2374.824318
_symmetry_space_group_name_H-M "C 2/C"
_symmetry_group_IT_number 15
_symmetry_cell_setting 'monoclinic'
loop_
_space_group_symop_operation_xyz
x,y,z
-x,y,1/2-z
-x,-y,-z
x,-y,1/2+z
1/2+x,1/2+y,z
1/2-x,1/2+y,1/2-z
1/2-x,1/2-y,-z
1/2+x,1/2-y,1/2+z
loop_
_atom_site_type_symbol
_atom_site_label
_atom_site_fract_x
_atom_site_fract_y
_atom_site_fract_z
Si Si1 0.120388 0.790258 0.134793
Si Si2 0.509976 0.701367 0.009744
Si Si3 0.225806 0.464094 0.978363
Si Si4 0.408964 0.872504 0.859453
Si Si5 0.775422 0.514530 0.356758
Si Si6 0.416675 0.150355 0.015858
O O1 0.305725 0.742640 0.082895
O O2 0.303244 0.837689 0.079145
O O3 0.000000 0.790402 0.250000
O O4 0.942998 0.790061 0.095925
O O5 0.360949 0.649623 0.057718
O O6 0.746360 0.692485 0.012738
O O7 0.261024 0.476050 0.063581
O O8 0.157978 0.406307 0.985151
O O9 0.503753 0.475378 0.878310
O O10 0.000000 0.500000 0.000000
O O11 0.500000 0.858913 0.750000
O O12 0.379585 0.932437 0.867603
O O13 0.585466 0.848786 0.887104
O O14 0.000000 0.495970 0.250000
#
# Coordination Sequence:
#
# PCOD9272955 Si02
#       6
#     8   8   8   8   8   8
#     4  10  23  42  64  93 128 168 207 260 323 397
#     4  10  21  41  65  90 127 161 207 263 323 377
#     4  11  22  41  63  89 132 173 211 275 329 387
#     4  10  20  37  61  92 124 159 209 268 323 377
#     4  10  22  40  61  90 126 170 218 270 329 389
#     4  11  22  40  63  93 125 169 214 266 325 388
#
# _framework density 20.212022000000001
#
# number of rings (size 3 to 8) (size 9 to 14) (size 15 to 20)
#    0.000    1.667    3.333    1.000    0.000    2.000 
#    6.000    1.667    0.000    0.000    0.000    0.000 
#    0.000    0.000    0.000    0.000    0.000    0.000 
#
# Total GULP energy -133792.462100 kJ/mol
# GULP energy per Si atom -5574.685921 kJ/mol
# Density = 2.016602 g / cm^3
# Si number density = 20.212022 Si / 1000 Ang^3
#
#
#
# Elastic Constant Matrix: (Units=GPa)
#
#
# Indices 1 2 3 4 5 6 
#
# 1 125.5912 32.4643 49.2053 0.0000 14.5399 0.0000
# 2 32.4643 59.1591 26.5957 0.0000 10.5404 0.0000
# 3 49.2053 26.5957 150.0685 0.0000 22.3500 0.0000
# 4 0.0000 0.0000 0.0000 24.4778 0.0000 2.0232
# 5 14.5399 10.5404 22.3500 0.0000 30.3648 0.0000
# 6 0.0000 0.0000 0.0000 2.0232 0.0000 32.5580
#
#
#
# Elastic Compliance Matrix: (Units=1/GPa)
#
#
# Indices 1 2 3 4 5 6 
#
# 1 0.010164 -0.004229 -0.002333 0.000000 -0.001682 0.000000
# 2 -0.004229 0.020683 -0.001697 0.000000 -0.003905 0.000000
# 3 -0.002333 -0.001697 0.008395 0.000000 -0.004473 0.000000
# 4 0.000000 0.000000 0.000000 0.041064 0.000000 -0.002552
# 5 -0.001682 -0.003905 -0.004473 0.000000 0.038386 0.000000
# 6 0.000000 0.000000 0.000000 -0.002552 0.000000 0.030873
#
#
# Mechanical properties :
#
#
# Convention : Reuss Voigt Hill
#
# Bulk Modulus (GPa) = 44.00537 61.26106 52.63322
# Shear Modulus (GPa) = 28.79188 32.58369 30.68779
#
# Velocity S-wave (km/s) = 3.77834 4.01945 3.90076
# Velocity P-wave (km/s) = 6.39168 7.20530 6.81065
#
# Compressibility (1/GPa) = 0.02272450
#
# Stress axis : x y z
#
# Youngs Moduli (GPa) = 98.38413 48.34820 119.11166
#
# Poissons Ratio (x) = 0.20448 0.27785
# Poissons Ratio (y) = 0.41611 0.20216
# Poissons Ratio (z) = 0.22950 0.08206
#
# Static dielectric constant tensor:
#      x y z
#    x 1.825730 0.000000 0.001530 
#    y 0.000000 1.717980 0.000000 
#    z 0.001530 0.000000 1.696310 
# 
# From -- ./inp_files/130578.got.cif
#   From: 2010.05.17/outbox.cif.g08.bks.cpg/sg15_66_cif.got.tgz:130578.got - 2010.06.03 18:47:42.
