data_PCOD9272741
_publ_section_title
;
Structure prediction by ZEFSAII (Michael W. Deem and Ramdas Pophale) SiO2 
 PCOD9272741
Probable space group: C 2/C
;
_chemical_formula_sum "Si O2"
_cell_formula_units_Z 56
_cell_length_a 24.372557
_cell_length_b 26.834342
_cell_length_c 15.080586
_cell_angle_alpha 90.000000
_cell_angle_beta 162.168704
_cell_angle_gamma 90.000000
_cell_volume 3020.210350
_symmetry_space_group_name_H-M "C 2/C"
_symmetry_group_IT_number 15
_symmetry_cell_setting 'monoclinic'
loop_
_space_group_symop_operation_xyz
x,y,z
-x,y,1/2-z
-x,-y,-z
x,-y,1/2+z
1/2+x,1/2+y,z
1/2-x,1/2+y,1/2-z
1/2-x,1/2-y,-z
1/2+x,1/2-y,1/2+z
loop_
_atom_site_type_symbol
_atom_site_label
_atom_site_fract_x
_atom_site_fract_y
_atom_site_fract_z
Si Si1 0.506197 0.285779 0.661661
Si Si2 0.197903 0.633359 0.717189
Si Si3 0.000000 0.379119 0.250000
Si Si4 0.079549 0.687034 0.702186
Si Si5 0.500000 0.908137 0.750000
Si Si6 0.822590 0.953738 0.786041
Si Si7 0.786695 0.969875 0.079028
Si Si8 0.211657 0.979916 0.096927
O O1 0.500000 0.261470 0.750000
O O2 0.370965 0.332013 0.463204
O O3 0.478491 0.240187 0.551666
O O4 0.707403 0.304280 0.955901
O O5 0.073277 0.660838 0.597274
O O6 0.238034 0.578058 0.817333
O O7 0.105671 0.624891 0.482079
O O8 0.023035 0.347111 0.196627
O O9 0.175327 0.412137 0.541250
O O10 0.363387 0.941251 0.597147
O O11 0.836759 0.981309 0.713208
O O12 0.755437 0.991937 0.759422
O O13 0.023952 0.939735 0.128690
O O14 0.714937 0.988145 0.873310
O O15 0.000000 0.980685 0.750000
#
# Coordination Sequence:
#
# PCOD9272741 Si02
#       8
#     8   8   4   8   4   8   8   8
#     4   9  19  40  64  90 118 148 190 267 310 362
#     4  11  23  38  63  87 120 163 207 246 308 365
#     4  12  23  34  62  96 120 156 188 247 320 368
#     4  10  21  37  63  93 118 143 200 254 320 355
#     4  12  25  38  58  88 120 172 214 239 290 370
#     4  10  22  37  57  86 123 156 199 246 298 355
#     4  10  22  39  55  80 126 162 204 247 284 345
#     4  10  20  37  60  85 119 165 202 245 297 358
#
# _framework density 18.541754999999998
#
# number of rings (size 3 to 8) (size 9 to 14) (size 15 to 20)
#    0.000    1.714    2.143    2.571    4.000    0.571 
#    0.000    0.714    0.000    0.000    0.000    0.000 
#    0.000    0.000    0.000    0.000    0.000    0.000 
#
# Total GULP energy -156112.866757 kJ/mol
# GULP energy per Si atom -5575.459527 kJ/mol
# Density = 1.849955 g / cm^3
# Si number density = 18.541755 Si / 1000 Ang^3
#
#
#
# Elastic Constant Matrix: (Units=GPa)
#
#
# Indices 1 2 3 4 5 6 
#
# 1 100.0040 38.3013 26.5304 0.0000 1.1566 -0.0001
# 2 38.3013 77.9207 34.5218 0.0000 7.1750 -0.0001
# 3 26.5304 34.5218 60.3753 0.0003 3.9903 -0.0014
# 4 0.0000 0.0000 0.0003 4.4932 0.0001 -33.5571
# 5 1.1566 7.1750 3.9903 0.0001 32.4107 -0.0004
# 6 -0.0001 -0.0001 -0.0014 -33.5571 -0.0004 263.5027
#
#
#
# Elastic Compliance Matrix: (Units=1/GPa)
#
#
# Indices 1 2 3 4 5 6 
#
# 1 0.012667 -0.005121 -0.002705 0.000001 0.001015 0.000000
# 2 -0.005121 0.019481 -0.008686 0.000003 -0.003061 0.000000
# 3 -0.002705 -0.008686 0.022770 -0.000007 -0.000784 -0.000001
# 4 0.000001 0.000003 -0.000007 4.551791 -0.000001 0.579671
# 5 0.001015 -0.003061 -0.000784 -0.000001 0.031592 0.000000
# 6 0.000000 0.000000 -0.000001 0.579671 0.000000 0.077616
#
#
# Mechanical properties :
#
#
# Convention : Reuss Voigt Hill
#
# Bulk Modulus (GPa) = 45.67655 48.55631 47.11643
# Shear Modulus (GPa) = 1.05125 69.34443 35.19784
#
# Velocity S-wave (km/s) = 0.75379 6.12211 4.36168
# Velocity P-wave (km/s) = 5.04435 8.73030 7.12964
#
# Compressibility (1/GPa) = 0.02189307
#
# Stress axis : x y z
#
# Youngs Moduli (GPa) = 78.94570 51.33175 43.91707
#
# Poissons Ratio (x) = 0.26289 0.11879
# Poissons Ratio (y) = 0.40431 0.38148
# Poissons Ratio (z) = 0.21354 0.44588
#
# Static dielectric constant tensor:
#      x y z
#    x 1.690870 0.000000 0.035600 
#    y 0.000000 1.653040 0.000000 
#    z 0.035600 0.000000 1.669610 
# 
# From -- ./inp_files/174793.got.cif
#   From: 2010.05.17/outbox.cif.g08.bks.cpg/sg15_88_cif.got.tgz:174793.got - 2010.06.03 18:47:42.
