data_PCOD9272931
_publ_section_title
;
Structure prediction by ZEFSAII (Michael W. Deem and Ramdas Pophale) SiO2 
 PCOD9272931
Probable space group: C 2/C
;
_chemical_formula_sum "Si O2"
_cell_formula_units_Z 52
_cell_length_a 8.209981
_cell_length_b 20.836265
_cell_length_c 15.245030
_cell_angle_alpha 90.000000
_cell_angle_beta 96.203534
_cell_angle_gamma 90.000000
_cell_volume 2592.625180
_symmetry_space_group_name_H-M "C 2/C"
_symmetry_group_IT_number 15
_symmetry_cell_setting 'monoclinic'
loop_
_space_group_symop_operation_xyz
x,y,z
-x,y,1/2-z
-x,-y,-z
x,-y,1/2+z
1/2+x,1/2+y,z
1/2-x,1/2+y,1/2-z
1/2-x,1/2-y,-z
1/2+x,1/2-y,1/2+z
loop_
_atom_site_type_symbol
_atom_site_label
_atom_site_fract_x
_atom_site_fract_y
_atom_site_fract_z
Si Si1 0.000000 0.595173 0.750000
Si Si2 0.871063 0.757317 0.890308
Si Si3 0.791667 0.638957 0.007996
Si Si4 0.578545 0.107904 0.157627
Si Si5 0.762013 0.767131 0.602895
Si Si6 0.892702 0.523666 0.910995
Si Si7 0.323306 0.681487 0.757967
O O1 0.996944 0.555914 0.658845
O O2 0.166627 0.635693 0.751444
O O3 0.844024 0.822612 0.943919
O O4 0.727472 0.738422 0.813566
O O5 0.048824 0.760410 0.858149
O O6 0.870076 0.696483 0.955628
O O7 0.921782 0.614587 0.085689
O O8 0.768180 0.578127 0.941466
O O9 0.500000 0.110552 0.250000
O O10 0.694509 0.165582 0.133503
O O11 0.668909 0.040806 0.140437
O O12 0.750000 0.750000 0.500000
O O13 0.658824 0.713784 0.646915
O O14 0.000000 0.500000 0.000000
O O15 0.500000 0.651470 0.750000
#
# Coordination Sequence:
#
# PCOD9272931 Si02
#       7
#     4   8   8   8   8   8   8
#     4  12  22  46  72  96 132 178 228 276 342 406
#     4  11  21  39  63  94 132 169 209 283 337 389
#     4  10  20  37  61  90 124 167 216 267 334 388
#     4  11  22  39  62  91 127 174 222 260 330 405
#     4  12  23  37  61  99 133 167 217 270 333 400
#     4  10  22  40  67  91 128 181 226 267 330 407
#     4  12  25  41  68 101 134 171 223 284 345 403
#
# _framework density 20.056889999999999
#
# number of rings (size 3 to 8) (size 9 to 14) (size 15 to 20)
#    0.000    0.923    5.385    2.308    4.308    0.000 
#    0.000    0.769    6.769    0.000    0.000    0.000 
#    0.000    0.000    0.000    0.000    0.000    0.000 
#
# Total GULP energy -144915.253386 kJ/mol
# GULP energy per Si atom -5573.663592 kJ/mol
# Density = 2.001124 g / cm^3
# Si number density = 20.056890 Si / 1000 Ang^3
#
#
#
# Elastic Constant Matrix: (Units=GPa)
#
#
# Indices 1 2 3 4 5 6 
#
# 1 84.7337 28.1096 17.6886 0.0000 -10.1900 0.0000
# 2 28.1096 102.0958 38.6046 0.0000 -12.1382 0.0000
# 3 17.6886 38.6046 134.9388 0.0000 -9.4099 0.0000
# 4 0.0000 0.0000 0.0000 38.5002 0.0000 -11.1895
# 5 -10.1900 -12.1382 -9.4099 0.0000 20.5448 0.0000
# 6 0.0000 0.0000 0.0000 -11.1895 0.0000 23.8085
#
#
#
# Elastic Compliance Matrix: (Units=1/GPa)
#
#
# Indices 1 2 3 4 5 6 
#
# 1 0.013459 -0.002922 -0.000602 0.000000 0.004673 0.000000
# 2 -0.002922 0.012187 -0.002792 0.000000 0.004472 0.000000
# 3 -0.000602 -0.002792 0.008421 0.000000 0.001909 0.000000
# 4 0.000000 0.000000 0.000000 0.030083 0.000000 0.014138
# 5 0.004673 0.004472 0.001909 0.000000 0.054508 0.000000
# 6 0.000000 0.000000 0.000000 0.014138 0.000000 0.048647
#
#
# Mechanical properties :
#
#
# Convention : Reuss Voigt Hill
#
# Bulk Modulus (GPa) = 46.65360 54.50824 50.58092
# Shear Modulus (GPa) = 26.72628 32.39507 29.56068
#
# Velocity S-wave (km/s) = 3.65433 4.02326 3.84323
# Velocity P-wave (km/s) = 6.41223 6.98699 6.70577
#
# Compressibility (1/GPa) = 0.02143457
#
# Stress axis : x y z
#
# Youngs Moduli (GPa) = 74.30076 82.05798 118.74389
#
# Poissons Ratio (x) = 0.23979 0.07153
# Poissons Ratio (y) = 0.21712 0.33148
# Poissons Ratio (z) = 0.04476 0.22907
#
# Static dielectric constant tensor:
#      x y z
#    x 1.693820 0.000000 0.021730 
#    y 0.000000 1.775540 0.000000 
#    z 0.021730 0.000000 1.896100 
# 
# From -- ./inp_files/136057.got.cif
#   From: 2010.05.17/outbox.cif.g08.bks.cpg/sg15_69_cif.got.tgz:136057.got - 2010.06.03 18:47:42.
