data_PCOD9272642
_publ_section_title
;
Structure prediction by ZEFSAII (Michael W. Deem and Ramdas Pophale) SiO2 
 PCOD9272642
Probable space group: C 2/C
;
_chemical_formula_sum "Si O2"
_cell_formula_units_Z 44
_cell_length_a 26.084456
_cell_length_b 6.122822
_cell_length_c 13.916503
_cell_angle_alpha 90.000000
_cell_angle_beta 83.040573
_cell_angle_gamma 90.000000
_cell_volume 2206.235638
_symmetry_space_group_name_H-M "C 2/C"
_symmetry_group_IT_number 15
_symmetry_cell_setting 'monoclinic'
loop_
_space_group_symop_operation_xyz
x,y,z
-x,y,1/2-z
-x,-y,-z
x,-y,1/2+z
1/2+x,1/2+y,z
1/2-x,1/2+y,1/2-z
1/2-x,1/2-y,-z
1/2+x,1/2-y,1/2+z
loop_
_atom_site_type_symbol
_atom_site_label
_atom_site_fract_x
_atom_site_fract_y
_atom_site_fract_z
Si Si1 0.059580 0.075014 0.382157
Si Si2 0.980646 0.315891 0.930206
Si Si3 0.000000 0.401692 0.250000
Si Si4 0.326643 0.633222 0.164736
Si Si5 0.712333 0.064140 0.969817
Si Si6 0.770584 0.314469 0.354190
O O1 0.057133 0.175586 0.491492
O O2 0.035495 0.246273 0.310022
O O3 0.118203 0.022285 0.339556
O O4 0.024973 0.858042 0.392472
O O5 0.968628 0.444601 0.833395
O O6 0.000000 0.500000 0.000000
O O7 0.330770 0.807603 0.077469
O O8 0.278573 0.469070 0.157938
O O9 0.309204 0.773269 0.259652
O O10 0.745455 0.913146 0.891655
O O11 0.750000 0.250000 0.000000
O O12 0.698739 0.914500 0.062724
#
# Coordination Sequence:
#
# PCOD9272642 Si02
#       6
#     8   8   4   8   8   8
#     4  10  22  38  63  91 123 160 207 251 311 368
#     4   9  20  41  61  85 121 154 199 259 302 367
#     4  10  20  40  64  90 124 156 200 264 310 366
#     4  11  21  37  62  90 123 166 201 248 299 359
#     4   9  20  38  56  81 118 163 201 253 289 341
#     4  10  20  37  59  85 128 160 204 244 291 357
#
# _framework density 19.943472
#
# number of rings (size 3 to 8) (size 9 to 14) (size 15 to 20)
#    0.000    2.182    1.818    0.545    0.000    4.364 
#    0.000   20.000    0.000    0.000    0.000    0.000 
#    0.000    0.000    0.000    0.000    0.000    0.000 
#
# Total GULP energy -122519.902829 kJ/mol
# GULP energy per Si atom -5569.086492 kJ/mol
# Density = 1.989808 g / cm^3
# Si number density = 19.943472 Si / 1000 Ang^3
#
#
#
# Elastic Constant Matrix: (Units=GPa)
#
#
# Indices 1 2 3 4 5 6 
#
# 1 69.0454 18.0897 50.4584 0.0000 -25.4513 0.0000
# 2 18.0897 80.5987 33.2913 0.0000 -6.7032 0.0000
# 3 50.4584 33.2913 111.1371 0.0000 -0.8935 0.0000
# 4 0.0000 0.0000 0.0000 26.8483 0.0000 -0.9502
# 5 -25.4513 -6.7032 -0.8935 0.0000 16.6199 0.0000
# 6 0.0000 0.0000 0.0000 -0.9502 0.0000 13.0808
#
#
#
# Elastic Compliance Matrix: (Units=1/GPa)
#
#
# Indices 1 2 3 4 5 6 
#
# 1 0.129655 0.012802 -0.061089 0.000000 0.200430 0.000000
# 2 0.012802 0.015941 -0.010383 0.000000 0.025476 0.000000
# 3 -0.061089 -0.010383 0.039075 0.000000 -0.095638 0.000000
# 4 0.000000 0.000000 0.000000 0.037342 0.000000 0.002713
# 5 0.200430 0.025476 -0.095638 0.000000 0.372236 0.000000
# 6 0.000000 0.000000 0.000000 0.002713 0.000000 0.076645
#
#
# Mechanical properties :
#
#
# Convention : Reuss Voigt Hill
#
# Bulk Modulus (GPa) = 14.85196 51.60667 33.22932
# Shear Modulus (GPa) = 6.16768 21.90593 14.03680
#
# Velocity S-wave (km/s) = 1.76048 3.31781 2.65586
# Velocity P-wave (km/s) = 3.40523 6.37258 5.10908
#
# Compressibility (1/GPa) = 0.06733116
#
# Stress axis : x y z
#
# Youngs Moduli (GPa) = 7.71277 62.73033 25.59180
#
# Poissons Ratio (x) = -0.80309 1.56339
# Poissons Ratio (y) = -0.09874 0.26572
# Poissons Ratio (z) = 0.47117 0.65132
#
# Static dielectric constant tensor:
#      x y z
#    x 1.679990 0.000000 0.031510 
#    y 0.000000 1.722230 0.000000 
#    z 0.031510 0.000000 1.768460 
# 
# From -- ./inp_files/170846.got.cif
#   From: 2010.05.17/outbox.cif.g08.bks.cpg/sg15_86_cif.got.tgz:170846.got - 2010.06.03 18:47:42.
