data_PCOD9272679
_publ_section_title
;
Structure prediction by ZEFSAII (Michael W. Deem and Ramdas Pophale) SiO2 
 PCOD9272679
Probable space group: C 2/C
;
_chemical_formula_sum "Si O2"
_cell_formula_units_Z 56
_cell_length_a 16.349663
_cell_length_b 20.840069
_cell_length_c 8.540668
_cell_angle_alpha 90.000000
_cell_angle_beta 75.591180
_cell_angle_gamma 90.000000
_cell_volume 2818.509751
_symmetry_space_group_name_H-M "C 2/C"
_symmetry_group_IT_number 15
_symmetry_cell_setting 'monoclinic'
loop_
_space_group_symop_operation_xyz
x,y,z
-x,y,1/2-z
-x,-y,-z
x,-y,1/2+z
1/2+x,1/2+y,z
1/2-x,1/2+y,1/2-z
1/2-x,1/2-y,-z
1/2+x,1/2-y,1/2+z
loop_
_atom_site_type_symbol
_atom_site_label
_atom_site_fract_x
_atom_site_fract_y
_atom_site_fract_z
Si Si1 0.859985 0.467294 0.464309
Si Si2 0.500000 0.652957 0.250000
Si Si3 0.754378 0.053099 0.755554
Si Si4 0.781869 0.659036 0.486352
Si Si5 0.583359 0.086391 0.262303
Si Si6 0.616845 0.273038 0.947455
Si Si7 0.500000 0.338431 0.250000
Si Si8 0.566574 0.558991 0.965334
O O1 0.791283 0.499522 0.615318
O O2 0.809823 0.430296 0.354011
O O3 0.911191 0.522132 0.347631
O O4 0.917755 0.427691 0.553796
O O5 0.439275 0.697903 0.169280
O O6 0.441186 0.602530 0.374936
O O7 0.763222 0.112125 0.869082
O O8 0.841563 0.033538 0.630482
O O9 0.833095 0.622053 0.329275
O O10 0.708447 0.694715 0.427436
O O11 0.852502 0.699495 0.549758
O O12 0.500000 0.122857 0.250000
O O13 0.563857 0.294053 0.124628
O O14 0.456859 0.387710 0.151512
O O15 0.500000 0.500000 0.000000
#
# Coordination Sequence:
#
# PCOD9272679 Si02
#       8
#     8   4   8   8   8   8   4   8
#     4   9  21  35  58  84 125 155 190 252 307 368
#     4  10  25  40  62  90 130 157 206 266 306 374
#     4  10  21  38  57  90 122 163 202 248 300 378
#     4  10  22  41  65  84 120 163 214 252 305 366
#     4  10  20  37  59  90 115 158 200 250 308 367
#     4  10  22  44  62  87 121 162 206 262 310 353
#     4  10  21  38  62  84 122 159 198 252 300 366
#     4  11  23  35  58  92 124 161 199 241 310 375
#
# _framework density 19.868655
#
# number of rings (size 3 to 8) (size 9 to 14) (size 15 to 20)
#    0.000    2.000    1.429    0.857    7.000    2.286 
#    2.571    0.714    0.000    0.000    0.000    0.000 
#    0.000    0.000    0.000    0.000    0.000    0.000 
#
# Total GULP energy -155940.210702 kJ/mol
# GULP energy per Si atom -5569.293239 kJ/mol
# Density = 1.982343 g / cm^3
# Si number density = 19.868655 Si / 1000 Ang^3
#
#
#
# Elastic Constant Matrix: (Units=GPa)
#
#
# Indices 1 2 3 4 5 6 
#
# 1 59.8547 2.3381 6.8837 0.0000 -2.0020 0.0000
# 2 2.3381 33.8025 -5.0925 0.0000 3.2030 0.0000
# 3 6.8837 -5.0925 57.6941 0.0000 1.4487 0.0000
# 4 0.0000 0.0000 0.0000 5.9713 0.0000 4.8638
# 5 -2.0020 3.2030 1.4487 0.0000 40.2236 0.0000
# 6 0.0000 0.0000 0.0000 4.8638 0.0000 8.9349
#
#
#
# Elastic Compliance Matrix: (Units=1/GPa)
#
#
# Indices 1 2 3 4 5 6 
#
# 1 0.017059 -0.001612 -0.002204 0.000000 0.001057 0.000000
# 2 -0.001612 0.030385 0.002940 0.000000 -0.002606 0.000000
# 3 -0.002204 0.002940 0.017880 0.000000 -0.000988 0.000000
# 4 0.000000 0.000000 0.000000 0.300874 0.000000 -0.163783
# 5 0.001057 -0.002606 -0.000988 0.000000 0.025157 0.000000
# 6 0.000000 0.000000 0.000000 -0.163783 0.000000 0.201077
#
#
# Mechanical properties :
#
#
# Convention : Reuss Voigt Hill
#
# Bulk Modulus (GPa) = 15.73048 17.73441 16.73245
# Shear Modulus (GPa) = 8.12513 20.84077 14.48295
#
# Velocity S-wave (km/s) = 2.02443 3.24223 2.70281
# Velocity P-wave (km/s) = 3.66044 4.79179 4.26381
#
# Compressibility (1/GPa) = 0.06357085
#
# Stress axis : x y z
#
# Youngs Moduli (GPa) = 58.62027 32.91100 55.92815
#
# Poissons Ratio (x) = 0.05306 0.12328
# Poissons Ratio (y) = 0.09451 -0.16442
# Poissons Ratio (z) = 0.12921 -0.09675
#
# Static dielectric constant tensor:
#      x y z
#    x 1.772170 0.000000 0.040090 
#    y 0.000000 1.728590 0.000000 
#    z 0.040090 0.000000 1.744540 
# 
# From -- ./inp_files/42558.got.cif
#   From: 2010.05.17/outbox.cif.g08.bks.cpg/sg15_22_cif.got.tgz:42558.got - 2010.06.03 18:47:42.
