data_PCOD9272531
_publ_section_title
;
Structure prediction by ZEFSAII (Michael W. Deem and Ramdas Pophale) SiO2 
 PCOD9272531
Probable space group: C 2/C
;
_chemical_formula_sum "Si O2"
_cell_formula_units_Z 28
_cell_length_a 7.107347
_cell_length_b 30.514651
_cell_length_c 7.821533
_cell_angle_alpha 90.000000
_cell_angle_beta 122.528320
_cell_angle_gamma 90.000000
_cell_volume 1430.211188
_symmetry_space_group_name_H-M "C 2/C"
_symmetry_group_IT_number 15
_symmetry_cell_setting 'monoclinic'
loop_
_space_group_symop_operation_xyz
x,y,z
-x,y,1/2-z
-x,-y,-z
x,-y,1/2+z
1/2+x,1/2+y,z
1/2-x,1/2+y,1/2-z
1/2-x,1/2-y,-z
1/2+x,1/2-y,1/2+z
loop_
_atom_site_type_symbol
_atom_site_label
_atom_site_fract_x
_atom_site_fract_y
_atom_site_fract_z
Si Si1 0.500000 0.631478 0.750000
Si Si2 0.749540 0.055535 0.441501
Si Si3 0.183825 0.701649 0.692929
Si Si4 0.000000 0.017754 0.250000
Si Si5 0.500000 0.780760 0.750000
O O1 0.325470 0.599458 0.573116
O O2 0.367933 0.664142 0.812166
O O3 0.500000 0.056655 0.250000
O O4 0.916132 0.046619 0.365269
O O5 0.801051 0.014631 0.592603
O O6 0.308231 0.748182 0.729076
O O7 0.082813 0.692911 0.454703
O O8 0.000000 0.703088 0.750000
#
# Coordination Sequence:
#
# PCOD9272531 Si02
#       5
#     4   8   8   4   4
#     4  10  24  36  50  90 120 144 198 226 288 364
#     4  10  20  37  58  81 116 148 187 241 280 337
#     4  10  20  38  59  85 118 153 191 244 287 340
#     4   9  20  37  60  86 102 150 202 226 282 345
#     4   9  20  37  62  86 110 150 206 236 280 349
#
# _framework density 19.577528000000001
#
# number of rings (size 3 to 8) (size 9 to 14) (size 15 to 20)
#    0.000    2.286    0.000    1.714    2.000    2.286 
#    0.000    2.857    0.000    0.000    0.000    0.000 
#    0.000    0.000    0.000    0.000    0.000    0.000 
#
# Total GULP energy -78131.402503 kJ/mol
# GULP energy per Si atom -5580.814464 kJ/mol
# Density = 1.953297 g / cm^3
# Si number density = 19.577528 Si / 1000 Ang^3
#
#
#
# Elastic Constant Matrix: (Units=GPa)
#
#
# Indices 1 2 3 4 5 6 
#
# 1 110.6536 31.6227 3.9577 0.0000 1.8352 0.0000
# 2 31.6227 63.4775 12.7118 0.0000 2.4519 0.0000
# 3 3.9577 12.7118 85.7166 0.0000 23.1139 0.0000
# 4 0.0000 0.0000 0.0000 -2.4910 0.0000 -1.9068
# 5 1.8352 2.4519 23.1139 0.0000 33.5080 0.0000
# 6 0.0000 0.0000 0.0000 -1.9068 0.0000 -8.3337
#
#
#
# Elastic Compliance Matrix: (Units=1/GPa)
#
#
# Indices 1 2 3 4 5 6 
#
# 1 0.010551 -0.005324 0.000434 0.000000 -0.000488 0.000000
# 2 -0.005324 0.018932 -0.002785 0.000000 0.000827 0.000000
# 3 0.000434 -0.002785 0.014755 0.000000 -0.009998 0.000000
# 4 0.000000 0.000000 0.000000 -0.486677 0.000000 0.111356
# 5 -0.000488 0.000827 -0.009998 0.000000 0.036707 0.000000
# 6 0.000000 0.000000 0.000000 0.111356 0.000000 -0.145474
#
#
# Mechanical properties :
#
#
# Convention : Reuss Voigt Hill
#
# Bulk Modulus (GPa) = 34.61660 39.60357 37.11008
# Shear Modulus (GPa) = -9.50163 18.64035 4.56936
#
# Velocity S-wave (km/s) = -2.20542 3.08901 1.52939
# Velocity P-wave (km/s) = 3.35187 5.74418 4.70269
#
# Compressibility (1/GPa) = 0.02888788
#
# Stress axis : x y z
#
# Youngs Moduli (GPa) = 94.77403 52.82100 67.77186
#
# Poissons Ratio (x) = 0.28124 -0.02941
# Poissons Ratio (y) = 0.50462 0.18873
# Poissons Ratio (z) = -0.04112 0.14710
#
# Static dielectric constant tensor:
#      x y z
#    x 1.660900 0.000000 0.022740 
#    y 0.000000 1.659380 0.000000 
#    z 0.022740 0.000000 1.768610 
# 
# From -- ./inp_files/19894.got.cif
#   From: 2010.05.17/outbox.cif.g08.bks.cpg/sg15_10_cif.got.tgz:19894.got - 2010.06.03 18:47:42.
