data_PCOD9272836
_publ_section_title
;
Structure prediction by ZEFSAII (Michael W. Deem and Ramdas Pophale) SiO2 
 PCOD9272836
Probable space group: C 2/C
;
_chemical_formula_sum "Si O2"
_cell_formula_units_Z 40
_cell_length_a 16.211102
_cell_length_b 14.095733
_cell_length_c 8.739946
_cell_angle_alpha 90.000000
_cell_angle_beta 58.540645
_cell_angle_gamma 90.000000
_cell_volume 1703.583334
_symmetry_space_group_name_H-M "C 2/C"
_symmetry_group_IT_number 15
_symmetry_cell_setting 'monoclinic'
loop_
_space_group_symop_operation_xyz
x,y,z
-x,y,1/2-z
-x,-y,-z
x,-y,1/2+z
1/2+x,1/2+y,z
1/2-x,1/2+y,1/2-z
1/2-x,1/2-y,-z
1/2+x,1/2-y,1/2+z
loop_
_atom_site_type_symbol
_atom_site_label
_atom_site_fract_x
_atom_site_fract_y
_atom_site_fract_z
Si Si1 0.234771 0.878215 0.334036
Si Si2 0.349177 0.282837 0.543701
Si Si3 0.854783 0.628753 0.305233
Si Si4 0.986282 0.104362 0.444651
Si Si5 0.325749 0.039950 0.039670
O O1 0.297373 0.793508 0.204027
O O2 0.122299 0.860361 0.423527
O O3 0.263395 0.898513 0.481856
O O4 0.262084 0.972427 0.211196
O O5 0.263088 0.355189 0.580168
O O6 0.386336 0.223168 0.361991
O O7 0.434522 0.332131 0.549595
O O8 0.882914 0.606568 0.103393
O O9 0.881156 0.536809 0.381323
O O10 0.000000 0.101158 0.250000
O O11 0.000000 0.000000 0.500000
#
# Coordination Sequence:
#
# PCOD9272836 Si02
#       5
#     8   8   8   8   8
#     4  10  20  37  60  91 127 161 203 255 310 368
#     4  10  22  37  56  89 128 163 202 253 312 367
#     4   9  18  34  54  85 120 156 203 248 301 365
#     4  12  25  40  62  95 127 162 208 255 308 371
#     4   9  17  34  61  88 116 158 203 248 307 366
#
# _framework density 23.479921000000001
#
# number of rings (size 3 to 8) (size 9 to 14) (size 15 to 20)
#    0.000    2.000    0.000    4.800    0.000    6.400 
#    0.000    0.000    0.000    0.000    0.000  113.400 
#    0.000    0.000    0.000    0.000    0.000    0.000 
#
# Total GULP energy -111961.009266 kJ/mol
# GULP energy per Si atom -5598.050463 kJ/mol
# Density = 2.342648 g / cm^3
# Si number density = 23.479921 Si / 1000 Ang^3
#
#
#
# Elastic Constant Matrix: (Units=GPa)
#
#
# Indices 1 2 3 4 5 6 
#
# 1 135.1829 74.2738 78.9634 0.0000 25.0024 0.0000
# 2 74.2738 137.1720 63.0885 0.0000 19.9172 0.0000
# 3 78.9634 63.0885 111.8441 0.0000 39.5186 0.0000
# 4 0.0000 0.0000 0.0000 35.6124 0.0000 13.9003
# 5 25.0024 19.9172 39.5186 0.0000 50.0936 0.0000
# 6 0.0000 0.0000 0.0000 13.9003 0.0000 22.9333
#
#
#
# Elastic Compliance Matrix: (Units=1/GPa)
#
#
# Indices 1 2 3 4 5 6 
#
# 1 0.014165 -0.004126 -0.007979 0.000000 0.000865 0.000000
# 2 -0.004126 0.011061 -0.003466 0.000000 0.000396 0.000000
# 3 -0.007979 -0.003466 0.020292 0.000000 -0.010647 0.000000
# 4 0.000000 0.000000 0.000000 0.036782 0.000000 -0.022294
# 5 0.000865 0.000396 -0.010647 0.000000 0.027773 0.000000
# 6 0.000000 0.000000 0.000000 -0.022294 0.000000 0.057118
#
#
# Mechanical properties :
#
#
# Convention : Reuss Voigt Hill
#
# Bulk Modulus (GPa) = 69.56345 90.76113 80.16229
# Shear Modulus (GPa) = 24.61552 32.91941 28.76746
#
# Velocity S-wave (km/s) = 3.24136 3.74842 3.50407
# Velocity P-wave (km/s) = 6.61057 7.58109 7.11240
#
# Compressibility (1/GPa) = 0.01437537
#
# Stress axis : x y z
#
# Youngs Moduli (GPa) = 70.59686 90.41013 49.28120
#
# Poissons Ratio (x) = 0.37300 0.39322
# Poissons Ratio (y) = 0.29126 0.17082
# Poissons Ratio (z) = 0.56330 0.31338
#
# Static dielectric constant tensor:
#      x y z
#    x 1.865940 0.000000 0.012360 
#    y 0.000000 1.664320 0.000000 
#    z 0.012360 0.000000 1.911920 
# 
# From -- ./inp_files/37806.got.cif
#   From: 2010.05.17/outbox.cif.g08.bks.cpg/sg15_19_cif.got.tgz:37806.got - 2010.06.03 18:47:42.
