data_PCOD9272704
_publ_section_title
;
Structure prediction by ZEFSAII (Michael W. Deem and Ramdas Pophale) SiO2 
 PCOD9272704
Probable space group: C 2/C
;
_chemical_formula_sum "Si O2"
_cell_formula_units_Z 52
_cell_length_a 13.435329
_cell_length_b 23.597154
_cell_length_c 8.804234
_cell_angle_alpha 90.000000
_cell_angle_beta 112.471159
_cell_angle_gamma 90.000000
_cell_volume 2579.320694
_symmetry_space_group_name_H-M "C 2/C"
_symmetry_group_IT_number 15
_symmetry_cell_setting 'monoclinic'
loop_
_space_group_symop_operation_xyz
x,y,z
-x,y,1/2-z
-x,-y,-z
x,-y,1/2+z
1/2+x,1/2+y,z
1/2-x,1/2+y,1/2-z
1/2-x,1/2-y,-z
1/2+x,1/2-y,1/2+z
loop_
_atom_site_type_symbol
_atom_site_label
_atom_site_fract_x
_atom_site_fract_y
_atom_site_fract_z
Si Si1 0.052245 0.324239 0.441799
Si Si2 0.593523 0.957492 0.490829
Si Si3 0.339515 0.821211 0.487946
Si Si4 0.685700 0.419567 0.398253
Si Si5 0.753328 0.496901 0.178355
Si Si6 0.500000 0.667146 0.750000
Si Si7 0.829916 0.752255 0.285798
O O1 0.067071 0.391799 0.455478
O O2 0.152968 0.286013 0.555067
O O3 0.000000 0.308349 0.250000
O O4 0.962547 0.315271 0.518050
O O5 0.693134 0.962987 0.664968
O O6 0.500000 0.000000 0.500000
O O7 0.644591 0.976108 0.360564
O O8 0.297979 0.885359 0.479289
O O9 0.271081 0.793393 0.308858
O O10 0.321553 0.789783 0.636265
O O11 0.691585 0.448006 0.235224
O O12 0.679994 0.468179 0.520309
O O13 0.592127 0.373995 0.368070
O O14 0.565680 0.707148 0.673391
#
# Coordination Sequence:
#
# PCOD9272704 Si02
#       7
#     8   8   8   8   8   4   8
#     4  12  22  34  56  85 119 152 181 236 301 348
#     4  11  21  35  56  86 121 150 186 229 291 363
#     4  10  20  37  60  82 109 153 192 244 283 340
#     4  10  21  36  62  82 117 149 192 245 292 347
#     4  10  21  37  54  88 116 152 188 233 293 354
#     4  10  20  40  62  80 106 154 210 246 278 336
#     4  10  21  38  59  82 109 147 209 239 278 346
#
# _framework density 20.160347000000002
#
# number of rings (size 3 to 8) (size 9 to 14) (size 15 to 20)
#    0.000    1.538    1.538    5.077    0.000    2.462 
#    0.000    0.000    6.769    0.000    0.000    0.000 
#    0.000    0.000    0.000    0.000    0.000    0.000 
#
# Total GULP energy -144978.981289 kJ/mol
# GULP energy per Si atom -5576.114665 kJ/mol
# Density = 2.011446 g / cm^3
# Si number density = 20.160347 Si / 1000 Ang^3
#
#
#
# Elastic Constant Matrix: (Units=GPa)
#
#
# Indices 1 2 3 4 5 6 
#
# 1 26.2315 10.7578 4.6483 0.0000 4.9301 0.0000
# 2 10.7578 103.0827 38.3046 0.0000 -0.0248 0.0000
# 3 4.6483 38.3046 91.8413 0.0000 -9.1406 0.0000
# 4 0.0000 0.0000 0.0000 27.0446 0.0000 10.1578
# 5 4.9301 -0.0248 -9.1406 0.0000 21.1430 0.0000
# 6 0.0000 0.0000 0.0000 10.1578 0.0000 16.5852
#
#
#
# Elastic Compliance Matrix: (Units=1/GPa)
#
#
# Indices 1 2 3 4 5 6 
#
# 1 0.041923 -0.003789 -0.001583 0.000000 -0.010464 0.000000
# 2 -0.003789 0.011917 -0.004900 0.000000 -0.001221 0.000000
# 3 -0.001583 -0.004900 0.013635 0.000000 0.006258 0.000000
# 4 0.000000 0.000000 0.000000 0.048023 0.000000 -0.029412
# 5 -0.010464 -0.001221 0.006258 0.000000 0.052441 0.000000
# 6 0.000000 0.000000 0.000000 -0.029412 0.000000 0.078309
#
#
# Mechanical properties :
#
#
# Convention : Reuss Voigt Hill
#
# Bulk Modulus (GPa) = 21.30802 36.50855 28.90829
# Shear Modulus (GPa) = 17.70313 24.11756 20.91034
#
# Velocity S-wave (km/s) = 2.96652 3.46249 3.22406
# Velocity P-wave (km/s) = 4.72502 5.84239 5.31316
#
# Compressibility (1/GPa) = 0.04693068
#
# Stress axis : x y z
#
# Youngs Moduli (GPa) = 23.85306 83.91448 73.34108
#
# Poissons Ratio (x) = 0.31799 0.11609
# Poissons Ratio (y) = 0.09039 0.35937
# Poissons Ratio (z) = 0.03775 0.41117
#
# Static dielectric constant tensor:
#      x y z
#    x 1.745600 0.000000 0.020990 
#    y 0.000000 1.735670 0.000000 
#    z 0.020990 0.000000 1.741820 
# 
# From -- ./inp_files/42325.got.cif
#   From: 2010.05.17/outbox.cif.g08.bks.cpg/sg15_22_cif.got.tgz:42325.got - 2010.06.03 18:47:42.
