data_PCOD9272132
_publ_section_title
;
Structure prediction by ZEFSAII (Michael W. Deem and Ramdas Pophale) SiO2 
 PCOD9272132
Probable space group: C 2/C
;
_chemical_formula_sum "Si O2"
_cell_formula_units_Z 52
_cell_length_a 26.068559
_cell_length_b 7.629231
_cell_length_c 22.352910
_cell_angle_alpha 90.000000
_cell_angle_beta 148.014883
_cell_angle_gamma 90.000000
_cell_volume 2354.837697
_symmetry_space_group_name_H-M "C 2/C"
_symmetry_group_IT_number 15
_symmetry_cell_setting 'monoclinic'
loop_
_space_group_symop_operation_xyz
x,y,z
-x,y,1/2-z
-x,-y,-z
x,-y,1/2+z
1/2+x,1/2+y,z
1/2-x,1/2+y,1/2-z
1/2-x,1/2-y,-z
1/2+x,1/2-y,1/2+z
loop_
_atom_site_type_symbol
_atom_site_label
_atom_site_fract_x
_atom_site_fract_y
_atom_site_fract_z
Si Si1 0.058905 0.006393 0.151635
Si Si2 0.764157 0.522775 0.070922
Si Si3 0.534923 0.877469 0.673059
Si Si4 0.621846 0.348491 0.091286
Si Si5 0.676764 0.111856 0.501980
Si Si6 0.500000 0.000000 0.500000
Si Si7 0.234977 0.792281 0.853099
O O1 0.056711 0.830540 0.187919
O O2 0.114616 0.962389 0.144272
O O3 0.121530 0.163028 0.241071
O O4 0.949967 0.058004 0.026789
O O5 0.871135 0.540941 0.204168
O O6 0.770259 0.551593 0.006280
O O7 0.730791 0.332322 0.059046
O O8 0.703731 0.685101 0.038264
O O9 0.438145 0.903471 0.615579
O O10 0.513546 0.952747 0.585997
O O11 0.727073 0.310252 0.168052
O O12 0.570817 0.164930 0.054420
O O13 0.714604 0.981340 0.590473
#
# Coordination Sequence:
#
# PCOD9272132 Si02
#       7
#     8   8   8   8   8   4   8
#     4  10  23  40  63  98 135 168 222 268 325 407
#     4  11  25  43  68  97 133 174 224 281 325 393
#     4  11  21  43  67  93 133 174 210 275 336 390
#     4  10  22  40  61  96 131 175 212 271 326 397
#     4  11  24  45  67  96 133 174 230 274 330 388
#     4  10  20  36  64  90 128 164 214 260 326 388
#     4  12  23  42  69  97 132 174 224 270 339 393
#
# _framework density 22.082201000000001
#
# number of rings (size 3 to 8) (size 9 to 14) (size 15 to 20)
#    0.000    1.231    3.077    2.769    0.000    3.692 
#    2.769    0.000    0.000    0.000    0.000    0.000 
#    0.000    0.000    0.000    0.000    0.000    0.000 
#
# Total GULP energy -144783.949609 kJ/mol
# GULP energy per Si atom -5568.613446 kJ/mol
# Density = 2.203194 g / cm^3
# Si number density = 22.082201 Si / 1000 Ang^3
#
#
#
# Elastic Constant Matrix: (Units=GPa)
#
#
# Indices 1 2 3 4 5 6 
#
# 1 30.0904 4.7325 -3.7943 0.0000 -2.8827 0.0000
# 2 4.7325 67.6610 7.2459 -0.0001 -11.0058 0.0000
# 3 -3.7943 7.2459 32.1824 0.0000 7.9349 0.0000
# 4 0.0000 -0.0001 0.0000 36.2549 0.0000 -2.5495
# 5 -2.8827 -11.0058 7.9349 0.0000 15.1425 0.0000
# 6 0.0000 0.0000 0.0000 -2.5495 0.0000 24.8276
#
#
#
# Elastic Compliance Matrix: (Units=1/GPa)
#
#
# Indices 1 2 3 4 5 6 
#
# 1 0.034364 -0.002370 0.003901 0.000000 0.002775 0.000000
# 2 -0.002370 0.018814 -0.008929 0.000000 0.017902 0.000000
# 3 0.003901 -0.008929 0.040147 0.000000 -0.026785 0.000000
# 4 0.000000 0.000000 0.000000 0.027783 0.000000 0.002853
# 5 0.002775 0.017902 -0.026785 0.000000 0.093615 0.000000
# 6 0.000000 0.000000 0.000000 0.002853 0.000000 0.040571
#
#
# Mechanical properties :
#
#
# Convention : Reuss Voigt Hill
#
# Bulk Modulus (GPa) = 12.73433 16.25579 14.49506
# Shear Modulus (GPa) = 16.87670 23.36163 20.11916
#
# Velocity S-wave (km/s) = 2.76754 3.25613 3.02172
# Velocity P-wave (km/s) = 3.99896 4.63831 4.33045
#
# Compressibility (1/GPa) = 0.07852789
#
# Stress axis : x y z
#
# Youngs Moduli (GPa) = 29.10047 53.15328 24.90824
#
# Poissons Ratio (x) = 0.12596 -0.09716
# Poissons Ratio (y) = 0.06896 0.22241
# Poissons Ratio (z) = -0.11351 0.47462
#
# Static dielectric constant tensor:
#      x y z
#    x 1.830050 0.000000 -0.015500 
#    y 0.000000 1.810990 0.000000 
#    z -0.015500 0.000000 1.787220 
# 
# From -- ./inp_files/283322.got.cif
#   From: 2010.05.17/outbox.cif.g08.bks.cpg/sg15_142_cif.got.tgz:283322.got - 2010.06.03 18:47:42.
