data_PCOD9272383
_publ_section_title
;
Structure prediction by ZEFSAII (Michael W. Deem and Ramdas Pophale) SiO2 
 PCOD9272383
Probable space group: C 2/C
;
_chemical_formula_sum "Si O2"
_cell_formula_units_Z 52
_cell_length_a 11.363204
_cell_length_b 21.650437
_cell_length_c 14.552910
_cell_angle_alpha 90.000000
_cell_angle_beta 123.932039
_cell_angle_gamma 90.000000
_cell_volume 2970.561488
_symmetry_space_group_name_H-M "C 2/C"
_symmetry_group_IT_number 15
_symmetry_cell_setting 'monoclinic'
loop_
_space_group_symop_operation_xyz
x,y,z
-x,y,1/2-z
-x,-y,-z
x,-y,1/2+z
1/2+x,1/2+y,z
1/2-x,1/2+y,1/2-z
1/2-x,1/2-y,-z
1/2+x,1/2-y,1/2+z
loop_
_atom_site_type_symbol
_atom_site_label
_atom_site_fract_x
_atom_site_fract_y
_atom_site_fract_z
Si Si1 0.816621 0.006457 0.727353
Si Si2 0.466780 0.420322 0.459425
Si Si3 0.903082 0.810140 0.534506
Si Si4 0.000000 0.891033 0.750000
Si Si5 0.562942 0.181895 0.880272
Si Si6 0.199488 0.011690 0.986250
Si Si7 0.503139 0.956785 0.141345
O O1 0.890259 0.048179 0.838247
O O2 0.840212 0.030487 0.634125
O O3 0.649053 0.011725 0.674166
O O4 0.882466 0.937492 0.744227
O O5 0.456839 0.348336 0.470519
O O6 0.383843 0.451793 0.509478
O O7 0.631841 0.438554 0.525234
O O8 0.733368 0.813625 0.449414
O O9 0.969202 0.742161 0.572968
O O10 0.941146 0.846497 0.644910
O O11 0.500000 0.188291 0.750000
O O12 0.514979 0.114869 0.897387
O O13 0.363943 0.995744 0.056017
O O14 0.500000 0.953169 0.250000
#
# Coordination Sequence:
#
# PCOD9272383 Si02
#       7
#     8   8   8   4   8   8   8
#     4  12  21  34  59  81 120 151 186 235 292 343
#     4  11  19  35  54  82 118 146 185 234 278 344
#     4  11  21  34  59  82 118 148 188 244 282 339
#     4  12  20  36  56  94 112 146 190 232 290 348
#     4  10  20  37  54  82 115 154 191 234 291 333
#     4  11  20  34  53  85 118 150 185 229 291 342
#     4  11  21  35  54  84 119 153 186 234 285 351
#
# _framework density 17.505108
#
# number of rings (size 3 to 8) (size 9 to 14) (size 15 to 20)
#    0.000    0.923    6.923    2.308    0.000    0.000 
#    0.000    0.000    0.000    0.923    0.000    0.000 
#    0.000    0.000    0.000    0.000    0.000    0.000 
#
# Total GULP energy -144759.856371 kJ/mol
# GULP energy per Si atom -5567.686784 kJ/mol
# Density = 1.746527 g / cm^3
# Si number density = 17.505108 Si / 1000 Ang^3
#
#
#
# Elastic Constant Matrix: (Units=GPa)
#
#
# Indices 1 2 3 4 5 6 
#
# 1 111.2278 37.5139 29.3705 0.0000 13.3958 0.0000
# 2 37.5139 77.5240 28.9650 0.0000 13.5607 0.0000
# 3 29.3705 28.9650 89.0890 0.0000 7.2959 0.0000
# 4 0.0000 0.0000 0.0000 15.9245 0.0000 -1.9912
# 5 13.3958 13.5607 7.2959 0.0000 30.7452 0.0000
# 6 0.0000 0.0000 0.0000 -1.9912 0.0000 19.2090
#
#
#
# Elastic Compliance Matrix: (Units=1/GPa)
#
#
# Indices 1 2 3 4 5 6 
#
# 1 0.011284 -0.004215 -0.002141 0.000000 -0.002550 0.000000
# 2 -0.004215 0.017210 -0.003809 0.000000 -0.004851 0.000000
# 3 -0.002141 -0.003809 0.013212 0.000000 -0.000522 0.000000
# 4 0.000000 0.000000 0.000000 0.063621 0.000000 0.006595
# 5 -0.002550 -0.004851 -0.000522 0.000000 0.035900 0.000000
# 6 0.000000 0.000000 0.000000 0.006595 0.000000 0.052742
#
#
# Mechanical properties :
#
#
# Convention : Reuss Voigt Hill
#
# Bulk Modulus (GPa) = 46.77832 52.17106 49.47469
# Shear Modulus (GPa) = 22.58109 25.30852 23.94481
#
# Velocity S-wave (km/s) = 3.59551 3.80647 3.70249
# Velocity P-wave (km/s) = 6.63458 7.01334 6.82659
#
# Compressibility (1/GPa) = 0.02137742
#
# Stress axis : x y z
#
# Youngs Moduli (GPa) = 88.61736 58.10499 75.69042
#
# Poissons Ratio (x) = 0.24489 0.16206
# Poissons Ratio (y) = 0.37349 0.28829
# Poissons Ratio (z) = 0.18974 0.22131
#
# Static dielectric constant tensor:
#      x y z
#    x 1.606830 0.000000 0.026820 
#    y 0.000000 1.652220 0.000000 
#    z 0.026820 0.000000 1.674920 
# 
# From -- ./inp_files/146822.got.cif
#   From: 2010.05.17/outbox.cif.g08.bks.cpg/sg15_74_cif.got.tgz:146822.got - 2010.06.03 18:47:42.
