data_PCOD9272820
_publ_section_title
;
Structure prediction by ZEFSAII (Michael W. Deem and Ramdas Pophale) SiO2 
 PCOD9272820
Probable space group: C 2/C
;
_chemical_formula_sum "Si O2"
_cell_formula_units_Z 56
_cell_length_a 30.846703
_cell_length_b 9.087925
_cell_length_c 19.992063
_cell_angle_alpha 90.000000
_cell_angle_beta 147.845179
_cell_angle_gamma 90.000000
_cell_volume 2982.724936
_symmetry_space_group_name_H-M "C 2/C"
_symmetry_group_IT_number 15
_symmetry_cell_setting 'monoclinic'
loop_
_space_group_symop_operation_xyz
x,y,z
-x,y,1/2-z
-x,-y,-z
x,-y,1/2+z
1/2+x,1/2+y,z
1/2-x,1/2+y,1/2-z
1/2-x,1/2-y,-z
1/2+x,1/2-y,1/2+z
loop_
_atom_site_type_symbol
_atom_site_label
_atom_site_fract_x
_atom_site_fract_y
_atom_site_fract_z
Si Si1 0.137136 0.249008 0.577193
Si Si2 0.307354 0.243577 0.010122
Si Si3 0.610573 0.456458 0.475618
Si Si4 0.173905 0.805864 0.694770
Si Si5 0.161727 0.903791 0.251957
Si Si6 0.954527 0.765249 0.286983
Si Si7 0.944897 0.453676 0.490069
O O1 0.230898 0.275193 0.681731
O O2 0.135500 0.179816 0.649896
O O3 0.091915 0.403534 0.522664
O O4 0.103686 0.128804 0.481327
O O5 0.328759 0.399735 0.003204
O O6 0.395908 0.197509 0.153519
O O7 0.250000 0.250000 0.000000
O O8 0.255213 0.143276 0.891113
O O9 0.648744 0.387212 0.593157
O O10 0.522759 0.380767 0.352496
O O11 0.124875 0.654069 0.629943
O O12 0.154013 0.922992 0.726945
O O13 0.103855 0.849276 0.236094
O O14 0.002232 0.639680 0.388869
O O15 0.000000 0.500000 0.500000
#
# Coordination Sequence:
#
# PCOD9272820 Si02
#       7
#     8   8   8   8   8   8   8
#     4  11  21  36  61  89 126 154 206 265 316 376
#     4  10  21  39  64  85 118 165 213 250 308 394
#     4  10  21  36  61  86 118 157 207 255 314 359
#     4  10  22  34  61  90 123 156 203 259 321 371
#     4  10  20  37  60  90 119 158 204 258 312 370
#     4  10  22  37  61  86 122 165 207 252 315 384
#     4  11  22  36  60  96 125 160 203 265 320 367
#
# _framework density 18.774778000000001
#
# number of rings (size 3 to 8) (size 9 to 14) (size 15 to 20)
#    0.000    1.714    2.857    2.143    4.000    1.714 
#    0.000    0.000    6.286    2.571    0.000    0.000 
#    0.000    0.000    0.000    0.000    0.000    0.000 
#
# Total GULP energy -156198.235467 kJ/mol
# GULP energy per Si atom -5578.508410 kJ/mol
# Density = 1.873205 g / cm^3
# Si number density = 18.774778 Si / 1000 Ang^3
#
#
#
# Elastic Constant Matrix: (Units=GPa)
#
#
# Indices 1 2 3 4 5 6 
#
# 1 77.6721 53.4602 28.3800 0.0000 10.9434 0.0000
# 2 53.4602 148.4162 57.7629 0.0000 15.1685 0.0000
# 3 28.3800 57.7629 114.5035 0.0000 9.9358 0.0000
# 4 0.0000 0.0000 0.0000 6.5683 0.0000 1.0539
# 5 10.9434 15.1685 9.9358 0.0000 29.3398 0.0000
# 6 0.0000 0.0000 0.0000 1.0539 0.0000 34.3311
#
#
#
# Elastic Compliance Matrix: (Units=1/GPa)
#
#
# Indices 1 2 3 4 5 6 
#
# 1 0.017596 -0.005495 -0.001304 0.000000 -0.003280 0.000000
# 2 -0.005495 0.010363 -0.003687 0.000000 -0.002059 0.000000
# 3 -0.001304 -0.003687 0.011033 0.000000 -0.001344 0.000000
# 4 0.000000 0.000000 0.000000 0.153000 0.000000 -0.004697
# 5 -0.003280 -0.002059 -0.001344 0.000000 0.036827 0.000000
# 6 0.000000 0.000000 0.000000 -0.004697 0.000000 0.029272
#
#
# Mechanical properties :
#
#
# Convention : Reuss Voigt Hill
#
# Bulk Modulus (GPa) = 55.49839 68.86645 62.18242
# Shear Modulus (GPa) = 17.53960 27.44709 22.49335
#
# Velocity S-wave (km/s) = 3.05980 3.82765 3.46506
# Velocity P-wave (km/s) = 6.48902 7.50296 7.01434
#
# Compressibility (1/GPa) = 0.01801854
#
# Stress axis : x y z
#
# Youngs Moduli (GPa) = 56.83254 96.50148 90.63599
#
# Poissons Ratio (x) = 0.53028 0.11822
# Poissons Ratio (y) = 0.31230 0.33416
# Poissons Ratio (z) = 0.07413 0.35579
#
# Static dielectric constant tensor:
#      x y z
#    x 1.680180 0.000000 -0.013230 
#    y 0.000000 1.658290 0.000000 
#    z -0.013230 0.000000 1.669450 
# 
# From -- ./inp_files/259033.got.cif
#   From: 2010.05.17/outbox.cif.g08.bks.cpg/sg15_130_cif.got.tgz:259033.got - 2010.06.03 18:47:42.
