data_PCOD9272647
_publ_section_title
;
Structure prediction by ZEFSAII (Michael W. Deem and Ramdas Pophale) SiO2 
 PCOD9272647
Probable space group: C 2/C
;
_chemical_formula_sum "Si O2"
_cell_formula_units_Z 48
_cell_length_a 10.569076
_cell_length_b 16.371292
_cell_length_c 18.243000
_cell_angle_alpha 90.000000
_cell_angle_beta 125.944401
_cell_angle_gamma 90.000000
_cell_volume 2555.522771
_symmetry_space_group_name_H-M "C 2/C"
_symmetry_group_IT_number 15
_symmetry_cell_setting 'monoclinic'
loop_
_space_group_symop_operation_xyz
x,y,z
-x,y,1/2-z
-x,-y,-z
x,-y,1/2+z
1/2+x,1/2+y,z
1/2-x,1/2+y,1/2-z
1/2-x,1/2-y,-z
1/2+x,1/2-y,1/2+z
loop_
_atom_site_type_symbol
_atom_site_label
_atom_site_fract_x
_atom_site_fract_y
_atom_site_fract_z
Si Si1 0.570786 0.590031 0.022312
Si Si2 0.000000 0.243225 0.250000
Si Si3 0.000000 0.037366 0.750000
Si Si4 0.667520 0.400458 0.716594
Si Si5 0.207106 0.221251 0.566943
Si Si6 0.112730 0.601502 0.081580
Si Si7 0.256825 0.056495 0.939606
O O1 0.668653 0.604394 0.129948
O O2 0.500000 0.500000 0.000000
O O3 0.425404 0.652823 0.973051
O O4 0.676629 0.588523 0.985930
O O5 0.917305 0.180435 0.279282
O O6 0.868255 0.296301 0.164816
O O7 0.935807 0.978055 0.792279
O O8 0.854621 0.084473 0.665225
O O9 0.829481 0.414218 0.815521
O O10 0.250000 0.250000 0.500000
O O11 0.144097 0.304257 0.580492
O O12 0.220178 0.541776 0.067243
O O13 0.934567 0.585471 0.001267
#
# Coordination Sequence:
#
# PCOD9272647 Si02
#       7
#     8   4   4   8   8   8   8
#     4  12  22  35  59  92 119 150 199 258 297 340
#     4   9  18  38  60  82 111 158 202 234 301 368
#     4   9  16  34  56  78 119 160 186 228 297 362
#     4   9  17  34  61  80 111 157 197 237 298 356
#     4  11  21  38  61  87 117 156 200 249 295 358
#     4   9  21  40  61  82 117 168 201 229 302 373
#     4  10  20  37  59  86 118 156 200 245 293 357
#
# _framework density 18.78285
#
# number of rings (size 3 to 8) (size 9 to 14) (size 15 to 20)
#    0.000    2.000    3.333    2.000    0.000    1.333 
#    3.000    1.667    0.000    0.000    0.000    0.000 
#    0.000    0.000    0.000    0.000    0.000    0.000 
#
# Total GULP energy -133706.904611 kJ/mol
# GULP energy per Si atom -5571.121025 kJ/mol
# Density = 1.874010 g / cm^3
# Si number density = 18.782850 Si / 1000 Ang^3
#
#
#
# Elastic Constant Matrix: (Units=GPa)
#
#
# Indices 1 2 3 4 5 6 
#
# 1 86.6242 19.9098 70.0542 0.0000 4.3156 0.0000
# 2 19.9098 62.5603 37.0164 0.0000 5.1561 0.0000
# 3 70.0542 37.0164 185.1343 0.0000 18.0686 0.0000
# 4 0.0000 0.0000 0.0000 22.6295 0.0000 7.7194
# 5 4.3156 5.1561 18.0686 0.0000 39.7552 0.0000
# 6 0.0000 0.0000 0.0000 7.7194 0.0000 20.6728
#
#
#
# Elastic Compliance Matrix: (Units=1/GPa)
#
#
# Indices 1 2 3 4 5 6 
#
# 1 0.016865 -0.001838 -0.006131 0.000000 0.001194 0.000000
# 2 -0.001838 0.018350 -0.002889 0.000000 -0.000867 0.000000
# 3 -0.006131 -0.002889 0.008578 0.000000 -0.002858 0.000000
# 4 0.000000 0.000000 0.000000 0.050641 0.000000 -0.018910
# 5 0.001194 -0.000867 -0.002858 0.000000 0.026436 0.000000
# 6 0.000000 0.000000 0.000000 -0.018910 0.000000 0.055434
#
#
# Mechanical properties :
#
#
# Convention : Reuss Voigt Hill
#
# Bulk Modulus (GPa) = 45.29411 65.36439 55.32925
# Shear Modulus (GPa) = 24.34532 30.43406 27.38969
#
# Velocity S-wave (km/s) = 3.60411 4.02968 3.82282
# Velocity P-wave (km/s) = 6.44100 7.51842 7.00047
#
# Compressibility (1/GPa) = 0.02207792
#
# Stress axis : x y z
#
# Youngs Moduli (GPa) = 59.29407 54.49482 116.57891
#
# Poissons Ratio (x) = 0.10017 0.71471
# Poissons Ratio (y) = 0.10900 0.33677
# Poissons Ratio (z) = 0.36351 0.15742
#
# Static dielectric constant tensor:
#      x y z
#    x 1.658280 0.000000 0.006600 
#    y 0.000000 1.660080 0.000000 
#    z 0.006600 0.000000 1.726390 
# 
# From -- ./inp_files/143700.got.cif
#   From: 2010.05.17/outbox.cif.g08.bks.cpg/sg15_72_cif.got.tgz:143700.got - 2010.06.03 18:47:42.
