data_PCOD9272996
_publ_section_title
;
Structure prediction by ZEFSAII (Michael W. Deem and Ramdas Pophale) SiO2 
 PCOD9272996
Probable space group: C 2/C
;
_chemical_formula_sum "Si O2"
_cell_formula_units_Z 56
_cell_length_a 16.561113
_cell_length_b 9.242335
_cell_length_c 22.715277
_cell_angle_alpha 90.000000
_cell_angle_beta 131.992149
_cell_angle_gamma 90.000000
_cell_volume 2584.141538
_symmetry_space_group_name_H-M "C 2/C"
_symmetry_group_IT_number 15
_symmetry_cell_setting 'monoclinic'
loop_
_space_group_symop_operation_xyz
x,y,z
-x,y,1/2-z
-x,-y,-z
x,-y,1/2+z
1/2+x,1/2+y,z
1/2-x,1/2+y,1/2-z
1/2-x,1/2-y,-z
1/2+x,1/2-y,1/2+z
loop_
_atom_site_type_symbol
_atom_site_label
_atom_site_fract_x
_atom_site_fract_y
_atom_site_fract_z
Si Si1 0.116272 0.349570 0.322338
Si Si2 0.181097 0.121487 0.259199
Si Si3 0.557004 0.873936 0.490029
Si Si4 0.434469 0.563714 0.126037
Si Si5 0.756305 0.557222 0.901844
Si Si6 0.146261 0.198653 0.120466
Si Si7 0.647945 0.429743 0.046630
O O1 0.155975 0.266055 0.283230
O O2 0.094929 0.220853 0.359542
O O3 0.220799 0.439400 0.391738
O O4 0.000000 0.419127 0.250000
O O5 0.219109 0.161554 0.212444
O O6 0.063208 0.045264 0.194362
O O7 0.253333 0.022703 0.336556
O O8 0.455779 0.797571 0.407514
O O9 0.610487 0.732524 0.546549
O O10 0.500000 0.000000 0.500000
O O11 0.661321 0.962657 0.517184
O O12 0.362649 0.453518 0.129230
O O13 0.395419 0.551583 0.040406
O O14 0.798816 0.714001 0.905949
O O15 0.108903 0.049076 0.073467
#
# Coordination Sequence:
#
# PCOD9272996 Si02
#       7
#     8   8   8   8   8   8   8
#     4   9  20  36  59  88 112 154 210 247 293 356
#     4  10  20  37  62  85 120 158 204 248 306 370
#     4  10  21  39  59  86 120 158 202 249 300 363
#     4  10  20  37  64  86 115 165 207 248 302 376
#     4  10  22  40  61  86 124 161 202 253 311 363
#     4  11  25  37  58  94 125 156 206 251 311 373
#     4  12  21  38  64  88 124 158 204 258 305 363
#
# _framework density 21.670639999999999
#
# number of rings (size 3 to 8) (size 9 to 14) (size 15 to 20)
#    0.000    1.714    4.286    2.143    2.000    0.571 
#    0.000    1.429    0.000    0.000    0.000    0.000 
#    0.000    0.000    0.000    0.000    0.000    0.000 
#
# Total GULP energy -156061.896874 kJ/mol
# GULP energy per Si atom -5573.639174 kJ/mol
# Density = 2.162132 g / cm^3
# Si number density = 21.670640 Si / 1000 Ang^3
#
#
#
# Elastic Constant Matrix: (Units=GPa)
#
#
# Indices 1 2 3 4 5 6 
#
# 1 57.9289 17.4592 16.2945 0.0000 2.3270 0.0000
# 2 17.4592 71.9458 8.0472 0.0000 -10.4080 0.0000
# 3 16.2945 8.0472 100.3828 0.0000 -2.8446 0.0000
# 4 0.0000 0.0000 0.0000 11.5825 0.0000 4.6619
# 5 2.3270 -10.4080 -2.8446 0.0000 45.0975 0.0000
# 6 0.0000 0.0000 0.0000 4.6619 0.0000 13.0467
#
#
#
# Elastic Compliance Matrix: (Units=1/GPa)
#
#
# Indices 1 2 3 4 5 6 
#
# 1 0.019597 -0.004767 -0.002864 0.000000 -0.002292 0.000000
# 2 -0.004767 0.015653 -0.000372 0.000000 0.003835 0.000000
# 3 -0.002864 -0.000372 0.010477 0.000000 0.000723 0.000000
# 4 0.000000 0.000000 0.000000 0.100840 0.000000 -0.036033
# 5 -0.002292 0.003835 0.000723 0.000000 0.023223 0.000000
# 6 0.000000 0.000000 0.000000 -0.036033 0.000000 0.089523
#
#
# Mechanical properties :
#
#
# Convention : Reuss Voigt Hill
#
# Bulk Modulus (GPa) = 33.64694 34.87328 34.26011
# Shear Modulus (GPa) = 17.52996 26.50911 22.01954
#
# Velocity S-wave (km/s) = 2.84725 3.50133 3.19109
# Velocity P-wave (km/s) = 5.13511 5.69851 5.42413
#
# Compressibility (1/GPa) = 0.02972038
#
# Stress axis : x y z
#
# Youngs Moduli (GPa) = 51.02865 63.88733 95.44659
#
# Poissons Ratio (x) = 0.30454 0.27334
# Poissons Ratio (y) = 0.24325 0.03554
# Poissons Ratio (z) = 0.14614 0.02379
#
# Static dielectric constant tensor:
#      x y z
#    x 1.834780 0.000000 0.037570 
#    y 0.000000 1.790390 0.000000 
#    z 0.037570 0.000000 1.840350 
# 
# From -- ./inp_files/276610.got.cif
#   From: 2010.05.17/outbox.cif.g08.bks.cpg/sg15_139_cif.got.tgz:276610.got - 2010.06.03 18:47:42.
