data_PCOD9272381
_publ_section_title
;
Structure prediction by ZEFSAII (Michael W. Deem and Ramdas Pophale) SiO2 
 PCOD9272381
Probable space group: C 2/C
;
_chemical_formula_sum "Si O2"
_cell_formula_units_Z 64
_cell_length_a 15.277149
_cell_length_b 13.976857
_cell_length_c 17.958742
_cell_angle_alpha 90.000000
_cell_angle_beta 60.143632
_cell_angle_gamma 90.000000
_cell_volume 3325.715768
_symmetry_space_group_name_H-M "C 2/C"
_symmetry_group_IT_number 15
_symmetry_cell_setting 'monoclinic'
loop_
_space_group_symop_operation_xyz
x,y,z
-x,y,1/2-z
-x,-y,-z
x,-y,1/2+z
1/2+x,1/2+y,z
1/2-x,1/2+y,1/2-z
1/2-x,1/2-y,-z
1/2+x,1/2-y,1/2+z
loop_
_atom_site_type_symbol
_atom_site_label
_atom_site_fract_x
_atom_site_fract_y
_atom_site_fract_z
Si Si1 0.658976 0.029498 0.716062
Si Si2 0.030164 0.209602 0.319966
Si Si3 0.617711 0.431842 0.544284
Si Si4 0.798484 0.081157 0.244667
Si Si5 0.166375 0.836384 0.378607
Si Si6 0.689623 0.875146 0.937472
Si Si7 0.464024 0.074598 0.876789
Si Si8 0.026836 0.919646 0.323358
O O1 0.726589 0.125248 0.697767
O O2 0.568814 0.022558 0.814408
O O3 0.612468 0.036109 0.653759
O O4 0.733367 0.942284 0.700288
O O5 0.146109 0.182596 0.281227
O O6 0.000000 0.176198 0.250000
O O7 0.967668 0.146615 0.403516
O O8 0.993289 0.316790 0.343336
O O9 0.637980 0.421470 0.448615
O O10 0.717192 0.394825 0.545515
O O11 0.570194 0.530380 0.595656
O O12 0.726163 0.076027 0.346323
O O13 0.886924 0.002595 0.216802
O O14 0.175889 0.736877 0.420018
O O15 0.080401 0.838771 0.351490
O O16 0.591610 0.918210 0.020458
O O17 0.000000 0.892115 0.250000
#
# Coordination Sequence:
#
# PCOD9272381 Si02
#       8
#     8   8   8   8   8   8   8   8
#     4  10  21  35  51  80 112 154 182 227 273 350
#     4  11  17  31  54  82 113 143 175 237 284 325
#     4  11  18  31  53  87 119 143 182 235 293 327
#     4  10  21  34  54  79 112 149 192 220 284 331
#     4  11  21  32  56  87 116 142 197 233 285 331
#     4  12  20  33  54  85 111 151 180 241 282 340
#     4  11  21  34  55  79 114 143 185 232 291 322
#     4  10  20  37  54  81 117 159 183 232 282 339
#
# _framework density 19.243977999999998
#
# number of rings (size 3 to 8) (size 9 to 14) (size 15 to 20)
#    0.000    1.250    6.250    3.000    0.000    0.500 
#    0.000    0.000    2.750    0.000    0.000    1.750 
#    0.000    0.000    0.000    0.000    0.000    0.000 
#
# Total GULP energy -178344.118710 kJ/mol
# GULP energy per Si atom -5573.253710 kJ/mol
# Density = 1.920018 g / cm^3
# Si number density = 19.243978 Si / 1000 Ang^3
#
#
#
# Elastic Constant Matrix: (Units=GPa)
#
#
# Indices 1 2 3 4 5 6 
#
# 1 101.9667 25.4847 33.3608 0.0000 5.4202 0.0000
# 2 25.4847 23.4533 12.8338 0.0000 -1.0531 0.0000
# 3 33.3608 12.8338 104.0630 0.0000 -11.4674 0.0000
# 4 0.0000 0.0000 0.0000 7.6625 0.0000 5.9485
# 5 5.4202 -1.0531 -11.4674 0.0000 23.3764 0.0000
# 6 0.0000 0.0000 0.0000 5.9485 0.0000 -29.3135
#
#
#
# Elastic Compliance Matrix: (Units=1/GPa)
#
#
# Indices 1 2 3 4 5 6 
#
# 1 0.014941 -0.014501 -0.003652 0.000000 -0.005909 0.000000
# 2 -0.014501 0.059811 -0.002178 0.000000 0.004989 0.000000
# 3 -0.003652 -0.002178 0.011768 0.000000 0.006521 0.000000
# 4 0.000000 0.000000 0.000000 0.112744 0.000000 0.022879
# 5 -0.005909 0.004989 0.006521 0.000000 0.047572 0.000000
# 6 0.000000 0.000000 0.000000 0.022879 0.000000 -0.029471
#
#
# Mechanical properties :
#
#
# Convention : Reuss Voigt Hill
#
# Bulk Modulus (GPa) = 21.80732 41.42685 31.61709
# Shear Modulus (GPa) = 18.29408 10.86533 14.57970
#
# Velocity S-wave (km/s) = 3.08659 2.37873 2.75548
# Velocity P-wave (km/s) = 4.90503 5.39614 5.15644
#
# Compressibility (1/GPa) = 0.04585615
#
# Stress axis : x y z
#
# Youngs Moduli (GPa) = 66.93190 16.71937 84.97842
#
# Poissons Ratio (x) = 0.24245 0.31038
# Poissons Ratio (y) = 0.97060 0.18506
# Poissons Ratio (z) = 0.24447 0.03641
#
# Static dielectric constant tensor:
#      x y z
#    x 1.704680 0.000000 -0.039450 
#    y 0.000000 1.686990 0.000000 
#    z -0.039450 0.000000 1.730480 
# 
# From -- ./inp_files/205406.got.cif
#   From: 2010.05.17/outbox.cif.g08.bks.cpg/sg15_103_cif.got.tgz:205406.got - 2010.06.03 18:47:42.
