data_PCOD9272455
_publ_section_title
;
Structure prediction by ZEFSAII (Michael W. Deem and Ramdas Pophale) SiO2 
 PCOD9272455
Probable space group: C 2/C
;
_chemical_formula_sum "Si O2"
_cell_formula_units_Z 44
_cell_length_a 26.162609
_cell_length_b 6.501629
_cell_length_c 14.481927
_cell_angle_alpha 90.000000
_cell_angle_beta 57.356270
_cell_angle_gamma 90.000000
_cell_volume 2074.258117
_symmetry_space_group_name_H-M "C 2/C"
_symmetry_group_IT_number 15
_symmetry_cell_setting 'monoclinic'
loop_
_space_group_symop_operation_xyz
x,y,z
-x,y,1/2-z
-x,-y,-z
x,-y,1/2+z
1/2+x,1/2+y,z
1/2-x,1/2+y,1/2-z
1/2-x,1/2-y,-z
1/2+x,1/2-y,1/2+z
loop_
_atom_site_type_symbol
_atom_site_label
_atom_site_fract_x
_atom_site_fract_y
_atom_site_fract_z
Si Si1 0.304978 0.516901 0.463193
Si Si2 0.348062 0.938265 0.662183
Si Si3 0.233277 0.743888 0.675489
Si Si4 0.000000 0.970946 0.750000
Si Si5 0.412726 0.826490 0.417836
Si Si6 0.604220 0.210459 0.189752
O O1 0.254256 0.551496 0.590250
O O2 0.281181 0.580329 0.385287
O O3 0.355506 0.687603 0.441133
O O4 0.338244 0.300221 0.423461
O O5 0.288267 0.815569 0.685882
O O6 0.395993 0.920715 0.532784
O O7 0.375582 0.841146 0.727163
O O8 0.324065 0.166392 0.710622
O O9 0.029863 0.823611 0.644003
O O10 0.052938 0.114816 0.737655
O O11 0.419390 0.008832 0.338344
#
# Coordination Sequence:
#
# PCOD9272455 Si02
#       6
#     8   8   8   4   8   8
#     4   9  20  38  61  88 135 169 204 243 299 370
#     4  11  23  36  65  97 131 164 208 248 304 377
#     4  10  20  37  56  98 135 168 200 247 293 371
#     4  10  24  46  68  82 122 160 212 278 326 354
#     4  10  22  43  62  95 123 160 214 264 305 376
#     4  11  22  42  67  89 120 172 205 260 322 366
#
# _framework density 21.212403999999999
#
# number of rings (size 3 to 8) (size 9 to 14) (size 15 to 20)
#    0.000    1.818    1.818    1.636    2.545    1.455 
#    3.273    3.636    0.000    0.000    0.000    0.000 
#    0.000    0.000    0.000    0.000    0.000    0.000 
#
# Total GULP energy -122991.734737 kJ/mol
# GULP energy per Si atom -5590.533397 kJ/mol
# Density = 2.116412 g / cm^3
# Si number density = 21.212404 Si / 1000 Ang^3
#
#
#
# Elastic Constant Matrix: (Units=GPa)
#
#
# Indices 1 2 3 4 5 6 
#
# 1 21.6989 14.2024 10.7608 0.0002 5.8642 0.0005
# 2 14.2024 54.9687 13.6841 -0.0001 6.9590 0.0015
# 3 10.7608 13.6841 81.0586 0.0000 6.8937 0.0004
# 4 0.0002 -0.0001 0.0000 24.7870 0.0000 -6.4402
# 5 5.8642 6.9590 6.8937 0.0000 29.9922 0.0000
# 6 0.0005 0.0015 0.0004 -6.4402 0.0000 24.6491
#
#
#
# Elastic Compliance Matrix: (Units=1/GPa)
#
#
# Indices 1 2 3 4 5 6 
#
# 1 0.059136 -0.013098 -0.005012 -0.000001 -0.007371 -0.000001
# 2 -0.013098 0.022312 -0.001841 0.000000 -0.002193 -0.000001
# 3 -0.005012 -0.001841 0.013456 0.000000 -0.001686 0.000000
# 4 -0.000001 0.000000 0.000000 0.043282 0.000000 0.011309
# 5 -0.007371 -0.002193 -0.001686 0.000000 0.035680 0.000000
# 6 -0.000001 -0.000001 0.000000 0.011309 0.000000 0.043524
#
#
# Mechanical properties :
#
#
# Convention : Reuss Voigt Hill
#
# Bulk Modulus (GPa) = 18.18152 26.11341 22.14746
# Shear Modulus (GPa) = 18.14040 23.82425 20.98232
#
# Velocity S-wave (km/s) = 2.92752 3.35495 3.14849
# Velocity P-wave (km/s) = 4.47403 5.22922 4.86629
#
# Compressibility (1/GPa) = 0.05500091
#
# Stress axis : x y z
#
# Youngs Moduli (GPa) = 16.91016 44.81814 74.31415
#
# Poissons Ratio (x) = 0.58703 0.37249
# Poissons Ratio (y) = 0.22149 0.13684
# Poissons Ratio (z) = 0.08476 0.08253
#
# Static dielectric constant tensor:
#      x y z
#    x 1.742380 0.000000 -0.039140 
#    y 0.000000 1.773280 0.000000 
#    z -0.039140 0.000000 1.772590 
# 
# From -- ./inp_files/175368.got.cif
#   From: 2010.05.17/outbox.cif.g08.bks.cpg/sg15_88_cif.got.tgz:175368.got - 2010.06.03 18:47:42.
