data_PCOD9272363
_publ_section_title
;
Structure prediction by ZEFSAII (Michael W. Deem and Ramdas Pophale) SiO2 
 PCOD9272363
Probable space group: C 2/C
;
_chemical_formula_sum "Si O2"
_cell_formula_units_Z 40
_cell_length_a 11.531498
_cell_length_b 30.417190
_cell_length_c 5.802513
_cell_angle_alpha 90.000000
_cell_angle_beta 68.234617
_cell_angle_gamma 90.000000
_cell_volume 1890.170918
_symmetry_space_group_name_H-M "C 2/C"
_symmetry_group_IT_number 15
_symmetry_cell_setting 'monoclinic'
loop_
_space_group_symop_operation_xyz
x,y,z
-x,y,1/2-z
-x,-y,-z
x,-y,1/2+z
1/2+x,1/2+y,z
1/2-x,1/2+y,1/2-z
1/2-x,1/2-y,-z
1/2+x,1/2-y,1/2+z
loop_
_atom_site_type_symbol
_atom_site_label
_atom_site_fract_x
_atom_site_fract_y
_atom_site_fract_z
Si Si1 0.134455 0.655339 0.149113
Si Si2 0.693371 0.318984 0.602423
Si Si3 0.358553 0.486854 0.303595
Si Si4 0.626351 0.383473 0.288041
Si Si5 0.619428 0.232929 0.826174
O O1 0.187383 0.660156 0.363806
O O2 0.000000 0.632602 0.250000
O O3 0.245151 0.632533 0.925710
O O4 0.112669 0.703960 0.058921
O O5 0.622667 0.358440 0.533682
O O6 0.626231 0.285889 0.830332
O O7 0.749641 0.285761 0.371498
O O8 0.500000 0.504021 0.250000
O O9 0.303871 0.490471 0.608535
O O10 0.367614 0.436004 0.222049
O O11 0.500000 0.370646 0.250000
O O12 0.500000 0.223501 0.750000
#
# Coordination Sequence:
#
# PCOD9272363 Si02
#       5
#     8   8   8   8   8
#     4  11  22  39  61  83 118 169 212 253 308 378
#     4  10  22  37  56  82 118 160 205 261 306 364
#     4   9  19  38  65  95 131 167 201 255 330 404
#     4  10  24  39  60  96 123 155 206 261 320 377
#     4  10  20  37  53  80 116 161 209 254 308 368
#
# _framework density 21.162105
#
# number of rings (size 3 to 8) (size 9 to 14) (size 15 to 20)
#    0.000    2.000    2.000    0.600    5.600    0.000 
#    0.000    0.000    0.000    1.200    0.000    0.000 
#    0.000    0.000    0.000    0.000    0.000    0.000 
#
# Total GULP energy -111366.416221 kJ/mol
# GULP energy per Si atom -5568.320811 kJ/mol
# Density = 2.111394 g / cm^3
# Si number density = 21.162105 Si / 1000 Ang^3
#
#
#
# Elastic Constant Matrix: (Units=GPa)
#
#
# Indices 1 2 3 4 5 6 
#
# 1 124.5401 43.5651 33.7765 0.0000 14.1948 0.0000
# 2 43.5651 102.3341 34.4008 0.0000 14.2862 0.0000
# 3 33.7765 34.4008 72.9741 0.0000 1.7450 0.0000
# 4 0.0000 0.0000 0.0000 1.1808 0.0000 4.2054
# 5 14.1948 14.2862 1.7450 0.0000 48.4297 0.0000
# 6 0.0000 0.0000 0.0000 4.2054 0.0000 21.3945
#
#
#
# Elastic Compliance Matrix: (Units=1/GPa)
#
#
# Indices 1 2 3 4 5 6 
#
# 1 0.010177 -0.002955 -0.003270 0.000000 -0.001993 0.000000
# 2 -0.002955 0.012998 -0.004693 0.000000 -0.002799 0.000000
# 3 -0.003270 -0.004693 0.017388 0.000000 0.001716 0.000000
# 4 0.000000 0.000000 0.000000 2.823785 0.000000 -0.555051
# 5 -0.001993 -0.002799 0.001716 0.000000 0.021997 0.000000
# 6 0.000000 0.000000 0.000000 -0.555051 0.000000 0.155843
#
#
# Mechanical properties :
#
#
# Convention : Reuss Voigt Hill
#
# Bulk Modulus (GPa) = 53.39562 58.14813 55.77188
# Shear Modulus (GPa) = 1.62852 26.74138 14.18495
#
# Velocity S-wave (km/s) = 0.87819 3.55863 2.59182
# Velocity P-wave (km/s) = 5.12979 6.66501 5.94715
#
# Compressibility (1/GPa) = 0.01872813
#
# Stress axis : x y z
#
# Youngs Moduli (GPa) = 98.25791 76.93342 57.51036
#
# Poissons Ratio (x) = 0.22735 0.18805
# Poissons Ratio (y) = 0.29036 0.26988
# Poissons Ratio (z) = 0.32129 0.36103
#
# Static dielectric constant tensor:
#      x y z
#    x 1.800070 0.000000 -0.037360 
#    y 0.000000 1.762470 0.000000 
#    z -0.037360 0.000000 1.926480 
# 
# From -- ./inp_files/5028.got.cif
#   From: 2010.05.17/outbox.cif.g08.bks.cpg/sg15_3_cif.got.tgz:5028.got - 2010.06.03 18:47:42.
