data_PCOD9272372
_publ_section_title
;
Structure prediction by ZEFSAII (Michael W. Deem and Ramdas Pophale) SiO2 
 PCOD9272372
Probable space group: C 2/C
;
_chemical_formula_sum "Si O2"
_cell_formula_units_Z 32
_cell_length_a 11.652510
_cell_length_b 23.836843
_cell_length_c 7.778532
_cell_angle_alpha 90.000000
_cell_angle_beta 127.152512
_cell_angle_gamma 90.000000
_cell_volume 1722.030899
_symmetry_space_group_name_H-M "C 2/C"
_symmetry_group_IT_number 15
_symmetry_cell_setting 'monoclinic'
loop_
_space_group_symop_operation_xyz
x,y,z
-x,y,1/2-z
-x,-y,-z
x,-y,1/2+z
1/2+x,1/2+y,z
1/2-x,1/2+y,1/2-z
1/2-x,1/2-y,-z
1/2+x,1/2-y,1/2+z
loop_
_atom_site_type_symbol
_atom_site_label
_atom_site_fract_x
_atom_site_fract_y
_atom_site_fract_z
Si Si1 0.771266 0.276546 0.790966
Si Si2 0.112981 0.427944 0.992295
Si Si3 0.000000 0.738473 0.750000
Si Si4 0.500000 0.963461 0.250000
Si Si5 0.332571 0.665073 0.642370
O O1 0.623357 0.273936 0.764652
O O2 0.806924 0.212906 0.762640
O O3 0.906667 0.295634 0.027047
O O4 0.253463 0.312086 0.900624
O O5 0.258111 0.392937 0.123015
O O6 0.052248 0.430372 0.130730
O O7 0.120377 0.492441 0.931132
O O8 0.000000 0.402821 0.750000
O O9 0.500000 0.660568 0.750000
#
# Coordination Sequence:
#
# PCOD9272372 Si02
#       5
#     8   8   4   4   8
#     4  10  22  37  55  78 124 155 194 242 276 346
#     4   9  19  37  64  82 113 146 193 246 290 342
#     4  10  20  37  54  76 108 164 200 241 280 316
#     4   8  18  41  62  88 108 140 204 251 276 354
#     4  11  22  37  53  85 119 159 189 232 293 352
#
# _framework density 18.582711
#
# number of rings (size 3 to 8) (size 9 to 14) (size 15 to 20)
#    0.750    1.500    2.500    0.000    3.500    1.000 
#    4.500    1.250    0.000    0.000    0.000    0.000 
#    0.000    0.000    0.000    0.000    0.000    0.000 
#
# Total GULP energy -89142.888893 kJ/mol
# GULP energy per Si atom -5571.430556 kJ/mol
# Density = 1.854042 g / cm^3
# Si number density = 18.582711 Si / 1000 Ang^3
#
#
#
# Elastic Constant Matrix: (Units=GPa)
#
#
# Indices 1 2 3 4 5 6 
#
# 1 127.2021 54.2574 53.8816 0.0000 -3.9294 0.0000
# 2 54.2574 61.0798 23.2759 0.0000 8.0525 0.0000
# 3 53.8816 23.2759 125.2358 0.0000 -4.6584 0.0000
# 4 0.0000 0.0000 0.0000 2.9600 0.0000 9.3488
# 5 -3.9294 8.0525 -4.6584 0.0000 38.4284 0.0000
# 6 0.0000 0.0000 0.0000 9.3488 0.0000 18.7142
#
#
#
# Elastic Compliance Matrix: (Units=1/GPa)
#
#
# Indices 1 2 3 4 5 6 
#
# 1 0.014839 -0.012129 -0.003997 0.000000 0.003574 0.000000
# 2 -0.012129 0.028205 -0.000291 0.000000 -0.007186 0.000000
# 3 -0.003997 -0.000291 0.009790 0.000000 0.000839 0.000000
# 4 0.000000 0.000000 0.000000 -0.584708 0.000000 0.292094
# 5 0.003574 -0.007186 0.000839 0.000000 0.027995 0.000000
# 6 0.000000 0.000000 0.000000 0.292094 0.000000 -0.092482
#
#
# Mechanical properties :
#
#
# Convention : Reuss Voigt Hill
#
# Bulk Modulus (GPa) = 50.00224 64.03862 57.02043
# Shear Modulus (GPa) = -8.97891 24.16070 7.59089
#
# Velocity S-wave (km/s) = -2.20053 3.60970 2.02331
# Velocity P-wave (km/s) = 4.52878 7.20482 6.01745
#
# Compressibility (1/GPa) = 0.01999910
#
# Stress axis : x y z
#
# Youngs Moduli (GPa) = 67.39125 35.45500 102.14681
#
# Poissons Ratio (x) = 0.43005 0.40827
# Poissons Ratio (y) = 0.81742 0.02970
# Poissons Ratio (z) = 0.26936 0.01031
#
# Static dielectric constant tensor:
#      x y z
#    x 1.631710 0.000000 -0.029930 
#    y 0.000000 1.648640 0.000000 
#    z -0.029930 0.000000 1.670740 
# 
# From -- ./inp_files/25202.got.cif
#   From: 2010.05.17/outbox.cif.g08.bks.cpg/sg15_13_cif.got.tgz:25202.got - 2010.06.03 18:47:42.
