data_PCOD9272697
_publ_section_title
;
Structure prediction by ZEFSAII (Michael W. Deem and Ramdas Pophale) SiO2 
 PCOD9272697
Probable space group: C 2/C
;
_chemical_formula_sum "Si O2"
_cell_formula_units_Z 48
_cell_length_a 13.138825
_cell_length_b 13.387582
_cell_length_c 13.898889
_cell_angle_alpha 90.000000
_cell_angle_beta 61.633764
_cell_angle_gamma 90.000000
_cell_volume 2151.227013
_symmetry_space_group_name_H-M "C 2/C"
_symmetry_group_IT_number 15
_symmetry_cell_setting 'monoclinic'
loop_
_space_group_symop_operation_xyz
x,y,z
-x,y,1/2-z
-x,-y,-z
x,-y,1/2+z
1/2+x,1/2+y,z
1/2-x,1/2+y,1/2-z
1/2-x,1/2-y,-z
1/2+x,1/2-y,1/2+z
loop_
_atom_site_type_symbol
_atom_site_label
_atom_site_fract_x
_atom_site_fract_y
_atom_site_fract_z
Si Si1 0.464862 0.875392 0.163126
Si Si2 0.234659 0.306477 0.406361
Si Si3 0.912599 0.286903 0.579790
Si Si4 0.738898 0.382775 0.794510
Si Si5 0.089198 0.587843 0.103306
Si Si6 0.815915 0.099248 0.705650
O O1 0.500000 0.829683 0.250000
O O2 0.325132 0.887761 0.230261
O O3 0.516655 0.987395 0.135181
O O4 0.532136 0.821582 0.045201
O O5 0.250000 0.250000 0.500000
O O6 0.181230 0.216949 0.364678
O O7 0.168516 0.405331 0.472606
O O8 0.341452 0.348623 0.297205
O O9 0.801466 0.349774 0.667672
O O10 0.876053 0.171413 0.601881
O O11 0.006865 0.317620 0.618829
O O12 0.834560 0.406101 0.834974
O O13 0.664090 0.482125 0.814968
#
# Coordination Sequence:
#
# PCOD9272697 Si02
#       6
#     8   8   8   8   8   8
#     4  12  22  37  61  88 122 163 217 261 302 379
#     4   9  20  34  61  91 126 162 210 265 313 374
#     4  11  22  34  61  87 122 162 204 263 321 361
#     4  10  20  37  59  94 125 156 206 264 314 377
#     4  11  18  37  63  90 117 161 211 257 309 374
#     4  11  21  38  57  92 127 160 212 266 313 369
#
# _framework density 22.312847999999999
#
# number of rings (size 3 to 8) (size 9 to 14) (size 15 to 20)
#    0.000    1.333    5.000    2.000    0.000    0.667 
#    0.000    0.833    0.000    0.000    0.000    1.167 
#    0.000    0.000    0.000    0.000    0.000    0.000 
#
# Total GULP energy -133610.568641 kJ/mol
# GULP energy per Si atom -5567.107027 kJ/mol
# Density = 2.226206 g / cm^3
# Si number density = 22.312848 Si / 1000 Ang^3
#
#
#
# Elastic Constant Matrix: (Units=GPa)
#
#
# Indices 1 2 3 4 5 6 
#
# 1 23.8845 7.7104 15.5512 0.0000 1.3164 0.0000
# 2 7.7104 147.8777 47.0961 0.0000 -0.4539 0.0000
# 3 15.5512 47.0961 148.5990 0.0000 7.9119 0.0000
# 4 0.0000 0.0000 0.0000 47.7350 0.0000 -8.0461
# 5 1.3164 -0.4539 7.9119 0.0000 24.4975 0.0000
# 6 0.0000 0.0000 0.0000 -8.0461 0.0000 31.9319
#
#
#
# Elastic Compliance Matrix: (Units=1/GPa)
#
#
# Indices 1 2 3 4 5 6 
#
# 1 0.045073 -0.000966 -0.004356 0.000000 -0.001033 0.000000
# 2 -0.000966 0.007563 -0.002346 0.000000 0.000950 0.000000
# 3 -0.004356 -0.002346 0.008057 0.000000 -0.002412 0.000000
# 4 0.000000 0.000000 0.000000 0.021878 0.000000 0.005513
# 5 -0.001033 0.000950 -0.002412 0.000000 0.041673 0.000000
# 6 0.000000 0.000000 0.000000 0.005513 0.000000 0.032706
#
#
# Mechanical properties :
#
#
# Convention : Reuss Voigt Hill
#
# Bulk Modulus (GPa) = 22.04740 51.23072 36.63906
# Shear Modulus (GPa) = 26.68012 37.49976 32.08994
#
# Velocity S-wave (km/s) = 3.46168 4.10400 3.79645
# Velocity P-wave (km/s) = 5.08725 6.74293 5.97274
#
# Compressibility (1/GPa) = 0.04535682
#
# Stress axis : x y z
#
# Youngs Moduli (GPa) = 22.18622 132.22405 124.10895
#
# Poissons Ratio (x) = 0.12773 0.54059
# Poissons Ratio (y) = 0.02143 0.29121
# Poissons Ratio (z) = 0.09664 0.31025
#
# Static dielectric constant tensor:
#      x y z
#    x 2.030690 0.000000 0.032910 
#    y 0.000000 1.898270 0.000000 
#    z 0.032910 0.000000 1.916190 
# 
# From -- ./inp_files/153281.got.cif
#   From: 2010.05.17/outbox.cif.g08.bks.cpg/sg15_77_cif.got.tgz:153281.got - 2010.06.03 18:47:42.
