data_PCOD9272738
_publ_section_title
;
Structure prediction by ZEFSAII (Michael W. Deem and Ramdas Pophale) SiO2 
 PCOD9272738
Probable space group: C 2/C
;
_chemical_formula_sum "Si O2"
_cell_formula_units_Z 64
_cell_length_a 14.226379
_cell_length_b 7.825220
_cell_length_c 29.989779
_cell_angle_alpha 90.000000
_cell_angle_beta 62.051363
_cell_angle_gamma 90.000000
_cell_volume 2949.211419
_symmetry_space_group_name_H-M "C 2/C"
_symmetry_group_IT_number 15
_symmetry_cell_setting 'monoclinic'
loop_
_space_group_symop_operation_xyz
x,y,z
-x,y,1/2-z
-x,-y,-z
x,-y,1/2+z
1/2+x,1/2+y,z
1/2-x,1/2+y,1/2-z
1/2-x,1/2-y,-z
1/2+x,1/2-y,1/2+z
loop_
_atom_site_type_symbol
_atom_site_label
_atom_site_fract_x
_atom_site_fract_y
_atom_site_fract_z
Si Si1 0.118088 0.651081 0.240147
Si Si2 0.870953 0.533119 0.489446
Si Si3 0.768113 0.848100 0.555689
Si Si4 0.811289 0.983751 0.226797
Si Si5 0.310780 0.574056 0.630687
Si Si6 0.884827 0.800439 0.793789
Si Si7 0.108954 0.579939 0.419779
Si Si8 0.185138 0.876630 0.144038
O O1 0.182957 0.497548 0.248539
O O2 0.170870 0.730298 0.183874
O O3 0.000000 0.618110 0.250000
O O4 0.133539 0.809008 0.270507
O O5 0.854758 0.724781 0.513571
O O6 0.786311 0.530860 0.468628
O O7 0.857470 0.411796 0.535282
O O8 0.989857 0.510637 0.445280
O O9 0.682139 0.714814 0.596660
O O10 0.810238 0.954347 0.587971
O O11 0.832555 0.116292 0.261328
O O12 0.847947 0.015504 0.168089
O O13 0.193211 0.661916 0.665835
O O14 0.383357 0.737487 0.604602
O O15 0.000000 0.747617 0.750000
O O16 0.891240 0.964255 0.826438
O O17 0.196831 0.457045 0.378545
#
# Coordination Sequence:
#
# PCOD9272738 Si02
#       8
#     8   8   8   8   8   8   8   8
#     4  11  23  40  63  89 129 175 211 259 319 365
#     4   9  20  40  60  84 108 156 191 245 324 375
#     4  10  20  37  60  85 117 141 200 252 303 382
#     4  11  21  41  58  88 124 166 210 256 305 372
#     4  11  22  38  57  89 120 152 200 258 296 368
#     4  10  22  41  57  81 123 166 200 248 308 356
#     4   9  20  38  61  80 116 151 195 250 313 371
#     4   9  18  37  57  81 116 152 198 249 291 370
#
# _framework density 21.700714999999999
#
# number of rings (size 3 to 8) (size 9 to 14) (size 15 to 20)
#    0.000    2.000    2.500    1.500    0.000    3.500 
#    2.250    0.000    0.000    0.000    0.000    0.000 
#    0.000    0.000    0.000    0.000    0.000    0.000 
#
# Total GULP energy -178362.840107 kJ/mol
# GULP energy per Si atom -5573.838753 kJ/mol
# Density = 2.165132 g / cm^3
# Si number density = 21.700715 Si / 1000 Ang^3
#
#
#
# Elastic Constant Matrix: (Units=GPa)
#
#
# Indices 1 2 3 4 5 6 
#
# 1 77.1688 6.9537 13.2836 0.0000 6.0608 0.0000
# 2 6.9537 58.6020 0.7620 0.0000 -1.5836 0.0000
# 3 13.2836 0.7620 63.8278 0.0000 -12.1037 0.0000
# 4 0.0000 0.0000 0.0000 29.3805 0.0000 8.9415
# 5 6.0608 -1.5836 -12.1037 0.0000 31.8449 0.0000
# 6 0.0000 0.0000 0.0000 8.9415 0.0000 10.9989
#
#
#
# Elastic Compliance Matrix: (Units=1/GPa)
#
#
# Indices 1 2 3 4 5 6 
#
# 1 0.014080 -0.001735 -0.003701 0.000000 -0.004173 0.000000
# 2 -0.001735 0.017301 0.000410 0.000000 0.001346 0.000000
# 3 -0.003701 0.000410 0.017857 0.000000 0.007512 0.000000
# 4 0.000000 0.000000 0.000000 0.045225 0.000000 -0.036765
# 5 -0.004173 0.001346 0.007512 0.000000 0.035119 0.000000
# 6 0.000000 0.000000 0.000000 -0.036765 0.000000 0.120806
#
#
# Mechanical properties :
#
#
# Convention : Reuss Voigt Hill
#
# Bulk Modulus (GPa) = 25.51962 26.84415 26.18189
# Shear Modulus (GPa) = 18.28139 26.35146 22.31643
#
# Velocity S-wave (km/s) = 2.90562 3.48848 3.21030
# Velocity P-wave (km/s) = 4.80022 5.35005 5.08258
#
# Compressibility (1/GPa) = 0.03918554
#
# Stress axis : x y z
#
# Youngs Moduli (GPa) = 71.02404 57.79935 56.00063
#
# Poissons Ratio (x) = 0.10030 0.20725
# Poissons Ratio (y) = 0.12325 -0.02296
# Poissons Ratio (z) = 0.26284 -0.02369
#
# Static dielectric constant tensor:
#      x y z
#    x 1.792290 0.000000 -0.010750 
#    y 0.000000 1.862090 0.000000 
#    z -0.010750 0.000000 1.824310 
# 
# From -- ./inp_files/312896.got.cif
#   From: 2010.05.17/outbox.cif.g08.bks.cpg/sg15_157_cif.got.tgz:312896.got - 2010.06.03 18:47:42.
