data_PCOD9272887
_publ_section_title
;
Structure prediction by ZEFSAII (Michael W. Deem and Ramdas Pophale) SiO2 
 PCOD9272887
Probable space group: C 2/C
;
_chemical_formula_sum "Si O2"
_cell_formula_units_Z 60
_cell_length_a 9.159092
_cell_length_b 28.619216
_cell_length_c 10.585403
_cell_angle_alpha 90.000000
_cell_angle_beta 78.817584
_cell_angle_gamma 90.000000
_cell_volume 2722.031047
_symmetry_space_group_name_H-M "C 2/C"
_symmetry_group_IT_number 15
_symmetry_cell_setting 'monoclinic'
loop_
_space_group_symop_operation_xyz
x,y,z
-x,y,1/2-z
-x,-y,-z
x,-y,1/2+z
1/2+x,1/2+y,z
1/2-x,1/2+y,1/2-z
1/2-x,1/2-y,-z
1/2+x,1/2-y,1/2+z
loop_
_atom_site_type_symbol
_atom_site_label
_atom_site_fract_x
_atom_site_fract_y
_atom_site_fract_z
Si Si1 0.905462 0.801347 0.623310
Si Si2 0.667488 0.919418 0.770078
Si Si3 0.717048 0.668020 0.608819
Si Si4 0.898327 0.078110 0.003040
Si Si5 0.000000 0.757307 0.250000
Si Si6 0.708016 0.335987 0.599621
Si Si7 0.983025 0.706130 0.979795
Si Si8 0.625343 0.520589 0.120410
O O1 0.801743 0.805939 0.522112
O O2 0.819407 0.808719 0.765245
O O3 0.981812 0.751861 0.604692
O O4 0.037740 0.839669 0.583584
O O5 0.500000 0.919801 0.750000
O O6 0.783240 0.910197 0.636023
O O7 0.699033 0.879920 0.868639
O O8 0.725580 0.965110 0.831755
O O9 0.632451 0.618509 0.598037
O O10 0.637070 0.705089 0.715640
O O11 0.896042 0.667616 0.585128
O O12 0.057346 0.061272 0.039134
O O13 0.851906 0.027923 0.953582
O O14 0.007802 0.724772 0.374414
O O15 0.814652 0.309758 0.486870
O O16 0.500000 0.515085 0.250000
#
# Coordination Sequence:
#
# PCOD9272887 Si02
#       8
#     8   8   8   8   4   8   8   8
#     4  10  21  34  53  80 111 150 189 235 279 323
#     4  11  22  36  59  89 115 147 188 235 292 344
#     4  11  20  35  57  82 112 149 190 233 280 340
#     4  10  20  37  61  87 114 147 189 237 285 349
#     4  10  22  32  52  80 110 150 184 234 268 334
#     4  11  21  34  57  82 111 149 189 239 278 338
#     4  11  21  36  52  80 116 149 192 230 286 331
#     4   9  21  39  61  87 116 144 186 239 290 348
#
# _framework density 22.042365
#
# number of rings (size 3 to 8) (size 9 to 14) (size 15 to 20)
#    0.000    1.600    1.333    5.200    5.600    0.533 
#    0.000    0.000    0.000    0.000    6.933    0.000 
#    0.000    0.000    0.000    0.000    0.000    0.000 
#
# Total GULP energy -167257.359969 kJ/mol
# GULP energy per Si atom -5575.245332 kJ/mol
# Density = 2.199220 g / cm^3
# Si number density = 22.042365 Si / 1000 Ang^3
#
#
#
# Elastic Constant Matrix: (Units=GPa)
#
#
# Indices 1 2 3 4 5 6 
#
# 1 135.3306 15.5919 2.5016 0.0000 -12.8953 0.0000
# 2 15.5919 81.0580 -2.3778 0.0000 -2.4888 0.0000
# 3 2.5016 -2.3778 20.0474 0.0000 -1.8851 0.0000
# 4 0.0000 0.0000 0.0000 23.1738 0.0000 3.9429
# 5 -12.8953 -2.4888 -1.8851 0.0000 29.2349 0.0000
# 6 0.0000 0.0000 0.0000 3.9429 0.0000 18.9852
#
#
#
# Elastic Compliance Matrix: (Units=1/GPa)
#
#
# Indices 1 2 3 4 5 6 
#
# 1 0.007885 -0.001440 -0.000844 0.000000 0.003301 0.000000
# 2 -0.001440 0.012682 0.001736 0.000000 0.000556 0.000000
# 3 -0.000844 0.001736 0.050478 0.000000 0.003030 0.000000
# 4 0.000000 0.000000 0.000000 0.044733 0.000000 -0.009290
# 5 0.003301 0.000556 0.003030 0.000000 0.035905 0.000000
# 6 0.000000 0.000000 0.000000 -0.009290 0.000000 0.054602
#
#
# Mechanical properties :
#
#
# Convention : Reuss Voigt Hill
#
# Bulk Modulus (GPa) = 14.29623 29.76304 22.02964
# Shear Modulus (GPa) = 21.67340 28.99347 25.33343
#
# Velocity S-wave (km/s) = 3.13910 3.63071 3.39382
# Velocity P-wave (km/s) = 4.43153 5.57746 5.03719
#
# Compressibility (1/GPa) = 0.06994850
#
# Stress axis : x y z
#
# Youngs Moduli (GPa) = 126.81654 78.85257 19.81064
#
# Poissons Ratio (x) = 0.11356 0.01673
# Poissons Ratio (y) = 0.18264 -0.03440
# Poissons Ratio (z) = 0.10708 -0.13691
#
# Static dielectric constant tensor:
#      x y z
#    x 1.862680 0.000000 0.010000 
#    y 0.000000 1.878520 0.000000 
#    z 0.010000 0.000000 1.803580 
# 
# From -- ./inp_files/82191.got.cif
#   From: 2010.05.17/outbox.cif.g08.bks.cpg/sg15_42_cif.got.tgz:82191.got - 2010.06.03 18:47:42.
