data_PCOD9272251
_publ_section_title
;
Structure prediction by ZEFSAII (Michael W. Deem and Ramdas Pophale) SiO2 
 PCOD9272251
Probable space group: C 2/C
;
_chemical_formula_sum "Si O2"
_cell_formula_units_Z 48
_cell_length_a 12.422673
_cell_length_b 14.690644
_cell_length_c 22.991463
_cell_angle_alpha 90.000000
_cell_angle_beta 32.397766
_cell_angle_gamma 90.000000
_cell_volume 2248.123881
_symmetry_space_group_name_H-M "C 2/C"
_symmetry_group_IT_number 15
_symmetry_cell_setting 'monoclinic'
loop_
_space_group_symop_operation_xyz
x,y,z
-x,y,1/2-z
-x,-y,-z
x,-y,1/2+z
1/2+x,1/2+y,z
1/2-x,1/2+y,1/2-z
1/2-x,1/2-y,-z
1/2+x,1/2-y,1/2+z
loop_
_atom_site_type_symbol
_atom_site_label
_atom_site_fract_x
_atom_site_fract_y
_atom_site_fract_z
Si Si1 0.922980 0.760479 0.999579
Si Si2 0.000000 0.955553 0.750000
Si Si3 0.352198 0.070404 0.595918
Si Si4 0.028763 0.211787 0.318834
Si Si5 0.608831 0.579739 0.485992
Si Si6 0.500000 0.014551 0.250000
Si Si7 0.734202 0.397201 0.281877
O O1 0.971476 0.798735 0.912882
O O2 0.040106 0.667230 0.958327
O O3 0.682243 0.747539 0.112905
O O4 0.018364 0.829903 0.000052
O O5 0.075233 0.883462 0.765244
O O6 0.843637 0.029163 0.845252
O O7 0.300712 0.068919 0.688081
O O8 0.500000 0.000000 0.500000
O O9 0.197089 0.291110 0.242228
O O10 0.500000 0.500000 0.500000
O O11 0.500762 0.582110 0.598097
O O12 0.844180 0.569683 0.362904
O O13 0.365974 0.952359 0.268848
#
# Coordination Sequence:
#
# PCOD9272251 Si02
#       7
#     8   4   8   8   8   4   8
#     4  10  21  40  63  93 130 164 223 273 327 387
#     4  12  23  37  68  92 132 176 222 268 340 402
#     4  11  25  42  61  95 136 176 211 272 338 401
#     4  10  20  36  66  93 118 170 220 278 312 383
#     4  10  21  37  62  93 123 164 214 276 321 391
#     4  10  21  37  64  92 128 168 208 270 332 388
#     4  10  22  40  64  96 127 164 227 275 324 385
#
# _framework density 21.351136
#
# number of rings (size 3 to 8) (size 9 to 14) (size 15 to 20)
#    0.000    1.667    1.667    3.500    4.667    2.000 
#    0.000    0.000    0.000    4.000    0.000    0.000 
#    0.000    0.000    0.000    0.000    0.000    0.000 
#
# Total GULP energy -133626.612546 kJ/mol
# GULP energy per Si atom -5567.775523 kJ/mol
# Density = 2.130254 g / cm^3
# Si number density = 21.351136 Si / 1000 Ang^3
#
#
#
# Elastic Constant Matrix: (Units=GPa)
#
#
# Indices 1 2 3 4 5 6 
#
# 1 54.2476 38.7473 17.5357 -0.0007 16.1035 0.0001
# 2 38.7473 89.6736 31.8905 -0.0012 10.9434 0.0001
# 3 17.5357 31.8905 141.0141 -0.0027 -9.1302 -0.0004
# 4 -0.0007 -0.0012 -0.0027 17.0532 0.0008 -1.5907
# 5 16.1035 10.9434 -9.1302 0.0008 36.3044 0.0000
# 6 0.0001 0.0001 -0.0004 -1.5907 0.0000 18.9006
#
#
#
# Elastic Compliance Matrix: (Units=1/GPa)
#
#
# Indices 1 2 3 4 5 6 
#
# 1 0.030036 -0.011015 -0.001923 0.000001 -0.010486 0.000000
# 2 -0.011015 0.016905 -0.002508 0.000000 -0.000841 0.000000
# 3 -0.001923 -0.002508 0.008134 0.000001 0.003655 0.000000
# 4 0.000001 0.000000 0.000001 0.059104 -0.000002 0.004974
# 5 -0.010486 -0.000841 0.003655 -0.000002 0.033369 0.000000
# 6 0.000000 0.000000 0.000000 0.004974 0.000000 0.053327
#
#
# Mechanical properties :
#
#
# Convention : Reuss Voigt Hill
#
# Bulk Modulus (GPa) = 41.34886 51.25360 46.30123
# Shear Modulus (GPa) = 20.84821 27.56908 24.20865
#
# Velocity S-wave (km/s) = 3.12820 3.59726 3.37090
# Velocity P-wave (km/s) = 5.69699 6.42735 6.07316
#
# Compressibility (1/GPa) = 0.02418446
#
# Stress axis : x y z
#
# Youngs Moduli (GPa) = 33.29343 59.15262 122.93431
#
# Poissons Ratio (x) = 0.65155 0.23641
# Poissons Ratio (y) = 0.36672 0.30831
# Poissons Ratio (z) = 0.06403 0.14835
#
# Static dielectric constant tensor:
#      x y z
#    x 1.756200 0.000000 0.075960 
#    y 0.000000 1.714200 0.000000 
#    z 0.075960 0.000000 1.795090 
# 
# From -- ./inp_files/153323.got.cif
#   From: 2010.05.17/outbox.cif.g08.bks.cpg/sg15_77_cif.got.tgz:153323.got - 2010.06.03 18:47:42.
