data_PCOD9272259
_publ_section_title
;
Structure prediction by ZEFSAII (Michael W. Deem and Ramdas Pophale) SiO2 
 PCOD9272259
Probable space group: C 2/C
;
_chemical_formula_sum "Si O2"
_cell_formula_units_Z 44
_cell_length_a 15.327580
_cell_length_b 10.868198
_cell_length_c 26.105438
_cell_angle_alpha 90.000000
_cell_angle_beta 150.012455
_cell_angle_gamma 90.000000
_cell_volume 2173.544634
_symmetry_space_group_name_H-M "C 2/C"
_symmetry_group_IT_number 15
_symmetry_cell_setting 'monoclinic'
loop_
_space_group_symop_operation_xyz
x,y,z
-x,y,1/2-z
-x,-y,-z
x,-y,1/2+z
1/2+x,1/2+y,z
1/2-x,1/2+y,1/2-z
1/2-x,1/2-y,-z
1/2+x,1/2-y,1/2+z
loop_
_atom_site_type_symbol
_atom_site_label
_atom_site_fract_x
_atom_site_fract_y
_atom_site_fract_z
Si Si1 0.500000 0.836576 0.750000
Si Si2 0.603642 0.902810 0.418010
Si Si3 0.351578 0.564076 0.391253
Si Si4 0.762584 0.181172 0.807114
Si Si5 0.439627 0.196191 0.108889
Si Si6 0.357780 0.264964 0.472845
O O1 0.327495 0.918109 0.669735
O O2 0.517707 0.763977 0.811424
O O3 0.435549 0.823450 0.313502
O O4 0.652506 0.861369 0.500608
O O5 0.757791 0.862548 0.458188
O O6 0.569360 0.047776 0.397009
O O7 0.500000 0.500000 0.500000
O O8 0.317531 0.463331 0.330765
O O9 0.438939 0.694089 0.423974
O O10 0.780979 0.224214 0.876215
O O11 0.904412 0.258022 0.847837
O O12 0.250000 0.250000 0.000000
#
# Coordination Sequence:
#
# PCOD9272259 Si02
#       6
#     4   8   8   8   8   8
#     4  12  22  42  66  96 134 176 230 272 326 398
#     4  11  23  40  68  95 130 179 220 273 338 399
#     4  10  20  36  66  95 126 171 222 278 322 391
#     4  11  22  38  64  95 128 169 219 272 334 393
#     4  12  25  42  67  99 133 176 227 281 339 405
#     4  10  22  41  63  96 131 168 223 274 331 395
#
# _framework density 20.24343
#
# number of rings (size 3 to 8) (size 9 to 14) (size 15 to 20)
#    0.000    1.091    1.818    7.091    0.000    0.727 
#    0.000    0.000    0.000    0.000    0.000    0.000 
#    0.000    0.000    0.000    0.000    0.000    0.000 
#
# Total GULP energy -122725.986975 kJ/mol
# GULP energy per Si atom -5578.453953 kJ/mol
# Density = 2.019736 g / cm^3
# Si number density = 20.243430 Si / 1000 Ang^3
#
#
#
# Elastic Constant Matrix: (Units=GPa)
#
#
# Indices 1 2 3 4 5 6 
#
# 1 133.6813 40.6817 48.8774 0.0000 0.8880 0.0000
# 2 40.6817 43.4144 14.6042 0.0001 4.5528 0.0000
# 3 48.8774 14.6042 116.9121 0.0005 9.8702 0.0000
# 4 0.0000 0.0001 0.0005 29.8045 0.0001 2.6977
# 5 0.8880 4.5528 9.8702 0.0001 52.8383 0.0000
# 6 0.0000 0.0000 0.0000 2.6977 0.0000 28.5122
#
#
#
# Elastic Compliance Matrix: (Units=1/GPa)
#
#
# Indices 1 2 3 4 5 6 
#
# 1 0.011932 -0.010030 -0.003852 0.000000 0.001383 0.000000
# 2 -0.010030 0.032599 0.000350 0.000000 -0.002706 0.000000
# 3 -0.003852 0.000350 0.010279 0.000000 -0.001886 0.000000
# 4 0.000000 0.000000 0.000000 0.033842 0.000000 -0.003202
# 5 0.001383 -0.002706 -0.001886 0.000000 0.019488 0.000000
# 6 0.000000 0.000000 0.000000 -0.003202 0.000000 0.035376
#
#
# Mechanical properties :
#
#
# Convention : Reuss Voigt Hill
#
# Bulk Modulus (GPa) = 36.04301 55.81494 45.92898
# Shear Modulus (GPa) = 27.80402 34.88729 31.34566
#
# Velocity S-wave (km/s) = 3.71007 4.15588 3.93929
# Velocity P-wave (km/s) = 6.01634 7.11759 6.59001
#
# Compressibility (1/GPa) = 0.02774463
#
# Stress axis : x y z
#
# Youngs Moduli (GPa) = 83.80671 30.67590 97.28101
#
# Poissons Ratio (x) = 0.30769 0.37476
# Poissons Ratio (y) = 0.84061 -0.03402
# Poissons Ratio (z) = 0.32285 -0.01073
#
# Static dielectric constant tensor:
#      x y z
#    x 1.744460 0.000000 0.004300 
#    y 0.000000 1.735950 0.000000 
#    z 0.004300 0.000000 1.825440 
# 
# From -- ./inp_files/151716.got.cif
#   From: 2010.05.17/outbox.cif.g08.bks.cpg/sg15_76_cif.got.tgz:151716.got - 2010.06.03 18:47:42.
