data_PCOD9273258
_publ_section_title
;
Structure prediction by ZEFSAII (Michael W. Deem and Ramdas Pophale) SiO2 
 PCOD9273258
Probable space group: C 2/C
;
_chemical_formula_sum "Si O2"
_cell_formula_units_Z 52
_cell_length_a 11.820312
_cell_length_b 31.954889
_cell_length_c 7.910667
_cell_angle_alpha 90.000000
_cell_angle_beta 40.821215
_cell_angle_gamma 90.000000
_cell_volume 1953.252587
_symmetry_space_group_name_H-M "C 2/C"
_symmetry_group_IT_number 15
_symmetry_cell_setting 'monoclinic'
loop_
_space_group_symop_operation_xyz
x,y,z
-x,y,1/2-z
-x,-y,-z
x,-y,1/2+z
1/2+x,1/2+y,z
1/2-x,1/2+y,1/2-z
1/2-x,1/2-y,-z
1/2+x,1/2-y,1/2+z
loop_
_atom_site_type_symbol
_atom_site_label
_atom_site_fract_x
_atom_site_fract_y
_atom_site_fract_z
Si Si1 0.544301 0.215045 0.877085
Si Si2 0.198289 0.398409 0.527433
Si Si3 0.500000 0.273363 0.250000
Si Si4 0.862815 0.830841 0.140898
Si Si5 0.753312 0.145735 0.308636
Si Si6 0.194827 0.981203 0.953766
Si Si7 0.695576 0.436397 0.587941
O O1 0.500000 0.237373 0.750000
O O2 0.727533 0.191558 0.671786
O O3 0.546774 0.244510 0.037610
O O4 0.395684 0.179609 0.051649
O O5 0.296018 0.377080 0.262280
O O6 0.281892 0.379260 0.601381
O O7 0.209709 0.447787 0.536031
O O8 0.000000 0.384673 0.750000
O O9 0.360464 0.303907 0.319909
O O10 0.938478 0.833507 0.635796
O O11 0.712830 0.107890 0.483592
O O12 0.000000 0.983015 0.250000
O O13 0.269073 0.028204 0.879398
O O14 0.191391 0.961734 0.770952
O O15 0.500000 0.426857 0.750000
#
# Coordination Sequence:
#
# PCOD9273258 Si02
#       7
#     8   8   4   8   8   8   8
#     4  12  30  51  75 117 156 196 258 328 389 469
#     4  11  20  41  71 106 146 195 258 311 376 466
#     4  12  28  52  86 112 152 208 260 320 402 472
#     4  12  25  46  82 109 147 206 252 315 394 467
#     4  11  24  45  73 110 148 199 254 310 389 459
#     4  10  20  37  63  99 141 189 248 308 373 448
#     4  10  21  38  67 102 141 192 249 307 370 452
#
# _framework density 26.622261999999999
#
# number of rings (size 3 to 8) (size 9 to 14) (size 15 to 20)
#    0.000    0.923    3.077    5.077    4.308    0.615 
#    0.000    3.846    0.000    0.000    0.000    0.000 
#    0.000    0.000    0.000    0.000    0.000    0.000 
#
# Total GULP energy -145731.874571 kJ/mol
# GULP energy per Si atom -5605.072099 kJ/mol
# Density = 2.656167 g / cm^3
# Si number density = 26.622262 Si / 1000 Ang^3
#
#
#
# Elastic Constant Matrix: (Units=GPa)
#
#
# Indices 1 2 3 4 5 6 
#
# 1 148.1487 52.1160 53.2056 0.0000 4.0071 0.0000
# 2 52.1160 164.2155 43.4693 0.0000 -0.3410 0.0000
# 3 53.2056 43.4693 88.4505 0.0000 5.3158 0.0000
# 4 0.0000 0.0000 0.0000 -6.5318 0.0000 76.8631
# 5 4.0071 -0.3410 5.3158 0.0000 60.4247 0.0000
# 6 0.0000 0.0000 0.0000 76.8631 0.0000 -88.2725
#
#
#
# Elastic Compliance Matrix: (Units=1/GPa)
#
#
# Indices 1 2 3 4 5 6 
#
# 1 0.008977 -0.001636 -0.004584 0.000000 -0.000201 0.000000
# 2 -0.001636 0.007306 -0.002629 0.000000 0.000381 0.000000
# 3 -0.004584 -0.002629 0.015419 0.000000 -0.001067 0.000000
# 4 0.000000 0.000000 0.000000 0.016557 0.000000 0.014417
# 5 -0.000201 0.000381 -0.001067 0.000000 0.016659 0.000000
# 6 0.000000 0.000000 0.000000 0.014417 0.000000 0.001225
#
#
# Mechanical properties :
#
#
# Convention : Reuss Voigt Hill
#
# Bulk Modulus (GPa) = 71.40838 77.59961 74.50400
# Shear Modulus (GPa) = 56.49116 9.92566 33.20841
#
# Velocity S-wave (km/s) = 4.61146 1.93298 3.53568
# Velocity P-wave (km/s) = 7.43204 5.84753 6.68688
#
# Compressibility (1/GPa) = 0.01400396
#
# Stress axis : x y z
#
# Youngs Moduli (GPa) = 111.39332 136.88288 64.85365
#
# Poissons Ratio (x) = 0.22395 0.29728
# Poissons Ratio (y) = 0.18225 0.17051
# Poissons Ratio (z) = 0.51062 0.35988
#
# Static dielectric constant tensor:
#      x y z
#    x 2.058460 0.000000 0.079060 
#    y 0.000000 2.118140 0.000000 
#    z 0.079060 0.000000 2.131170 
# 
# From -- ./inp_files/35114.got.cif
#   From: 2010.05.17/outbox.cif.g08.bks.cpg/sg15_18_cif.got.tgz:35114.got - 2010.06.03 18:47:42.
