data_PCOD9273704
_publ_section_title
;
Structure prediction by ZEFSAII (Michael W. Deem and Ramdas Pophale) SiO2 
 PCOD9273704
Probable space group: C 2/C
;
_chemical_formula_sum "Si O2"
_cell_formula_units_Z 44
_cell_length_a 18.334353
_cell_length_b 11.184510
_cell_length_c 11.152849
_cell_angle_alpha 90.000000
_cell_angle_beta 49.822098
_cell_angle_gamma 90.000000
_cell_volume 1747.379604
_symmetry_space_group_name_H-M "C 2/C"
_symmetry_group_IT_number 15
_symmetry_cell_setting 'monoclinic'
loop_
_space_group_symop_operation_xyz
x,y,z
-x,y,1/2-z
-x,-y,-z
x,-y,1/2+z
1/2+x,1/2+y,z
1/2-x,1/2+y,1/2-z
1/2-x,1/2-y,-z
1/2+x,1/2-y,1/2+z
loop_
_atom_site_type_symbol
_atom_site_label
_atom_site_fract_x
_atom_site_fract_y
_atom_site_fract_z
Si Si1 0.454708 0.222065 0.547247
Si Si2 0.292884 0.008541 0.465153
Si Si3 0.000000 0.938440 0.250000
Si Si4 0.000000 0.388122 0.250000
Si Si5 0.249412 0.599775 0.744908
Si Si6 0.871946 0.740904 0.276021
Si Si7 0.000000 0.000000 0.500000
O O1 0.488343 0.187755 0.642741
O O2 0.353218 0.161594 0.634394
O O3 0.533531 0.172725 0.370353
O O4 0.455204 0.363501 0.527398
O O5 0.245487 0.004217 0.648870
O O6 0.305591 0.146842 0.412459
O O7 0.399930 0.958636 0.365829
O O8 0.245231 0.946570 0.397794
O O9 0.911414 0.850714 0.312965
O O10 0.984235 0.023813 0.377375
O O11 0.327290 0.696304 0.705248
#
# Coordination Sequence:
#
# PCOD9273704 Si02
#       7
#     8   8   4   4   8   8   4
#     4  10  22  40  62  95 127 169 215 260 318 381
#     4  11  22  41  65  93 127 168 208 267 325 368
#     4  10  22  36  58  86 116 164 210 250 308 370
#     4  10  20  40  68  96 128 162 214 274 322 372
#     4  11  25  41  66  98 129 166 216 264 319 385
#     4  11  23  40  63  92 128 168 216 261 313 390
#     4  10  20  38  58  84 124 164 202 250 304 368
#
# _framework density 25.180561999999998
#
# number of rings (size 3 to 8) (size 9 to 14) (size 15 to 20)
#    0.000    1.455    0.000    6.000    0.000    8.727 
#    0.000    8.182    0.000    0.000    0.000    0.000 
#    0.000    0.000    0.000    0.000    0.000    0.000 
#
# Total GULP energy -122616.328011 kJ/mol
# GULP energy per Si atom -5573.469455 kJ/mol
# Density = 2.512325 g / cm^3
# Si number density = 25.180562 Si / 1000 Ang^3
#
#
#
# Elastic Constant Matrix: (Units=GPa)
#
#
# Indices 1 2 3 4 5 6 
#
# 1 170.3283 31.6148 47.4262 0.0000 33.2242 0.0000
# 2 31.6148 65.8070 -3.4117 0.0000 6.3605 0.0000
# 3 47.4262 -3.4117 56.5752 0.0000 19.9407 0.0000
# 4 0.0000 0.0000 0.0000 17.4149 0.0000 13.6858
# 5 33.2242 6.3605 19.9407 0.0000 53.2711 0.0000
# 6 0.0000 0.0000 0.0000 13.6858 0.0000 18.0670
#
#
#
# Elastic Compliance Matrix: (Units=1/GPa)
#
#
# Indices 1 2 3 4 5 6 
#
# 1 0.009175 -0.004529 -0.007071 0.000000 -0.002535 0.000000
# 2 -0.004529 0.017773 0.005323 0.000000 -0.001290 0.000000
# 3 -0.007071 0.005323 0.026028 0.000000 -0.005968 0.000000
# 4 0.000000 0.000000 0.000000 0.141888 0.000000 -0.107481
# 5 -0.002535 -0.001290 -0.005968 0.000000 0.022741 0.000000
# 6 0.000000 0.000000 0.000000 -0.107481 0.000000 0.136767
#
#
# Mechanical properties :
#
#
# Convention : Reuss Voigt Hill
#
# Bulk Modulus (GPa) = 24.73957 49.32990 37.03473
# Shear Modulus (GPa) = 13.14411 32.22267 22.68339
#
# Velocity S-wave (km/s) = 2.28720 3.58112 3.00464
# Velocity P-wave (km/s) = 4.10137 6.06071 5.17462
#
# Compressibility (1/GPa) = 0.04042107
#
# Stress axis : x y z
#
# Youngs Moduli (GPa) = 108.99190 56.26631 38.42042
#
# Poissons Ratio (x) = 0.25485 0.27167
# Poissons Ratio (y) = 0.49367 -0.20452
# Poissons Ratio (z) = 0.77069 -0.29952
#
# Static dielectric constant tensor:
#      x y z
#    x 1.994510 0.000000 -0.085590 
#    y 0.000000 1.964260 0.000000 
#    z -0.085590 0.000000 2.020250 
# 
# From -- ./inp_files/104140.got.cif
#   From: 2010.05.17/outbox.cif.g08.bks.cpg/sg15_53_cif.got.tgz:104140.got - 2010.06.03 18:47:42.
