data_PCOD9273399
_publ_section_title
;
Structure prediction by ZEFSAII (Michael W. Deem and Ramdas Pophale) SiO2 
 PCOD9273399
Probable space group: C 2/C
;
_chemical_formula_sum "Si O2"
_cell_formula_units_Z 60
_cell_length_a 11.938961
_cell_length_b 8.080181
_cell_length_c 26.741512
_cell_angle_alpha 90.000000
_cell_angle_beta 87.792288
_cell_angle_gamma 90.000000
_cell_volume 2577.811181
_symmetry_space_group_name_H-M "C 2/C"
_symmetry_group_IT_number 15
_symmetry_cell_setting 'monoclinic'
loop_
_space_group_symop_operation_xyz
x,y,z
-x,y,1/2-z
-x,-y,-z
x,-y,1/2+z
1/2+x,1/2+y,z
1/2-x,1/2+y,1/2-z
1/2-x,1/2-y,-z
1/2+x,1/2-y,1/2+z
loop_
_atom_site_type_symbol
_atom_site_label
_atom_site_fract_x
_atom_site_fract_y
_atom_site_fract_z
Si Si1 0.691045 0.662486 0.117619
Si Si2 0.500000 0.378784 0.750000
Si Si3 0.729469 0.811222 0.213775
Si Si4 0.426161 0.514384 0.051284
Si Si5 0.992286 0.636939 0.933924
Si Si6 0.466118 0.412093 0.345862
Si Si7 0.893422 0.641647 0.283467
Si Si8 0.638874 0.843437 0.960607
O O1 0.767591 0.748551 0.158170
O O2 0.587202 0.788175 0.108309
O O3 0.654223 0.498178 0.146550
O O4 0.742954 0.603552 0.064505
O O5 0.387465 0.276208 0.766018
O O6 0.477628 0.491239 0.701335
O O7 0.824627 0.776212 0.252485
O O8 0.694568 0.998682 0.207165
O O9 0.415891 0.714352 0.057712
O O10 0.481994 0.454739 0.101915
O O11 0.345467 0.356210 0.045613
O O12 0.500000 0.500000 0.000000
O O13 0.052414 0.458813 0.929552
O O14 0.909554 0.626587 0.983508
O O15 0.444478 0.224962 0.331531
O O16 0.000000 0.582353 0.250000
#
# Coordination Sequence:
#
# PCOD9273399 Si02
#       8
#     8   4   8   8   8   8   8   8
#     4  10  22  39  61  93 124 164 216 272 332 398
#     4  10  20  44  68  96 134 180 228 284 342 412
#     4  11  25  43  65  99 133 174 226 280 342 414
#     4   9  20  39  63  94 129 168 216 270 330 395
#     4   9  20  40  60  91 128 170 212 272 329 396
#     4  10  22  41  64  92 132 171 219 282 334 399
#     4  12  26  45  68  96 134 178 225 279 341 410
#     4  10  20  37  65  89 126 170 218 265 333 401
#
# _framework density 23.275559999999999
#
# number of rings (size 3 to 8) (size 9 to 14) (size 15 to 20)
#    0.000    1.867    1.333    2.000    3.733    0.000 
#   12.000    0.000    0.000    8.800    0.000    0.000 
#    0.000    0.000    0.000    0.000    0.000    0.000 
#
# Total GULP energy -167029.166506 kJ/mol
# GULP energy per Si atom -5567.638884 kJ/mol
# Density = 2.322258 g / cm^3
# Si number density = 23.275560 Si / 1000 Ang^3
#
#
#
# Elastic Constant Matrix: (Units=GPa)
#
#
# Indices 1 2 3 4 5 6 
#
# 1 54.6091 15.1208 10.1492 0.0000 -6.0796 0.0000
# 2 15.1208 73.2715 21.5875 0.0000 -10.3831 0.0000
# 3 10.1492 21.5875 96.0107 0.0000 8.5014 0.0000
# 4 0.0000 0.0000 0.0000 24.8742 0.0000 -0.5464
# 5 -6.0796 -10.3831 8.5014 0.0000 24.4667 0.0000
# 6 0.0000 0.0000 0.0000 -0.5464 0.0000 27.7303
#
#
#
# Elastic Compliance Matrix: (Units=1/GPa)
#
#
# Indices 1 2 3 4 5 6 
#
# 1 0.019955 -0.002966 -0.001826 0.000000 0.004335 0.000000
# 2 -0.002966 0.016558 -0.004092 0.000000 0.007712 0.000000
# 3 -0.001826 -0.004092 0.012095 0.000000 -0.006393 0.000000
# 4 0.000000 0.000000 0.000000 0.040220 0.000000 0.000792
# 5 0.004335 0.007712 -0.006393 0.000000 0.047443 0.000000
# 6 0.000000 0.000000 0.000000 0.000792 0.000000 0.036077
#
#
# Mechanical properties :
#
#
# Convention : Reuss Voigt Hill
#
# Bulk Modulus (GPa) = 32.42619 35.28959 33.85789
# Shear Modulus (GPa) = 24.95039 27.21650 26.08344
#
# Velocity S-wave (km/s) = 3.27763 3.42324 3.35122
# Velocity P-wave (km/s) = 5.31841 5.55151 5.43621
#
# Compressibility (1/GPa) = 0.03083927
#
# Stress axis : x y z
#
# Youngs Moduli (GPa) = 50.11232 60.39197 82.67989
#
# Poissons Ratio (x) = 0.17911 0.15101
# Poissons Ratio (y) = 0.14862 0.33836
# Poissons Ratio (z) = 0.09153 0.24715
#
# Static dielectric constant tensor:
#      x y z
#    x 1.954300 0.000000 0.073600 
#    y 0.000000 1.960120 0.000000 
#    z 0.073600 0.000000 1.945760 
# 
# From -- ./inp_files/291589.got.cif
#   From: 2010.05.17/outbox.cif.g08.bks.cpg/sg15_146_cif.got.tgz:291589.got - 2010.06.03 18:47:42.
