data_PCOD9273411
_publ_section_title
;
Structure prediction by ZEFSAII (Michael W. Deem and Ramdas Pophale) SiO2 
 PCOD9273411
Probable space group: C 2/C
;
_chemical_formula_sum "Si O2"
_cell_formula_units_Z 56
_cell_length_a 18.811270
_cell_length_b 9.467649
_cell_length_c 18.188493
_cell_angle_alpha 90.000000
_cell_angle_beta 53.327188
_cell_angle_gamma 90.000000
_cell_volume 2598.144938
_symmetry_space_group_name_H-M "C 2/C"
_symmetry_group_IT_number 15
_symmetry_cell_setting 'monoclinic'
loop_
_space_group_symop_operation_xyz
x,y,z
-x,y,1/2-z
-x,-y,-z
x,-y,1/2+z
1/2+x,1/2+y,z
1/2-x,1/2+y,1/2-z
1/2-x,1/2-y,-z
1/2+x,1/2-y,1/2+z
loop_
_atom_site_type_symbol
_atom_site_label
_atom_site_fract_x
_atom_site_fract_y
_atom_site_fract_z
Si Si1 0.413491 0.398542 0.478696
Si Si2 0.329908 0.856046 0.969230
Si Si3 0.215693 0.905086 0.350943
Si Si4 0.091335 0.971913 0.680727
Si Si5 0.907074 0.466996 0.772510
Si Si6 0.732457 0.841439 0.938381
Si Si7 0.594430 0.683653 0.810454
O O1 0.387058 0.235376 0.489254
O O2 0.347165 0.471132 0.577452
O O3 0.395340 0.477865 0.411435
O O4 0.520425 0.384785 0.411129
O O5 0.374809 0.881952 0.863790
O O6 0.250000 0.750000 0.000000
O O7 0.308263 0.008833 0.015088
O O8 0.184632 0.763905 0.413357
O O9 0.189066 0.864127 0.284680
O O10 0.319473 0.940986 0.303153
O O11 0.173104 0.879078 0.654066
O O12 0.000000 0.891032 0.750000
O O13 0.083886 0.104393 0.739472
O O14 0.919218 0.349190 0.700273
O O15 0.000000 0.529445 0.750000
O O16 0.750000 0.750000 0.000000
#
# Coordination Sequence:
#
# PCOD9273411 Si02
#       7
#     8   8   8   8   8   8   8
#     4  11  20  43  70  95 120 184 236 271 313 418
#     4  12  19  39  71  92 117 175 246 271 306 399
#     4  12  27  41  65 101 145 172 213 297 352 389
#     4  10  20  37  65  92 120 168 231 269 309 399
#     4  12  22  41  70  99 132 180 235 275 324 418
#     4  12  22  40  61  95 132 172 222 276 338 401
#     4  11  24  41  67 100 137 170 224 288 346 388
#
# _framework density 21.553840000000001
#
# number of rings (size 3 to 8) (size 9 to 14) (size 15 to 20)
#    0.000    0.571    8.571    0.857    2.000    0.571 
#    0.000    0.714    3.143    0.000    0.000    0.000 
#    0.000    0.000    0.000    0.000    0.000    0.000 
#
# Total GULP energy -155959.344998 kJ/mol
# GULP energy per Si atom -5569.976607 kJ/mol
# Density = 2.150478 g / cm^3
# Si number density = 21.553840 Si / 1000 Ang^3
#
#
#
# Elastic Constant Matrix: (Units=GPa)
#
#
# Indices 1 2 3 4 5 6 
#
# 1 114.0658 34.0174 15.2794 0.0000 -6.9728 0.0000
# 2 34.0174 112.5965 16.4162 0.0000 -12.3933 0.0000
# 3 15.2794 16.4162 47.6895 0.0000 -14.6787 0.0000
# 4 0.0000 0.0000 0.0000 15.7407 0.0000 0.8829
# 5 -6.9728 -12.3933 -14.6787 0.0000 27.6905 0.0000
# 6 0.0000 0.0000 0.0000 0.8829 0.0000 24.5201
#
#
#
# Elastic Compliance Matrix: (Units=1/GPa)
#
#
# Indices 1 2 3 4 5 6 
#
# 1 0.009859 -0.002642 -0.002210 0.000000 0.000129 0.000000
# 2 -0.002642 0.010266 -0.001766 0.000000 0.002993 0.000000
# 3 -0.002210 -0.001766 0.026135 0.000000 0.012507 0.000000
# 4 0.000000 0.000000 0.000000 0.063658 0.000000 -0.002292
# 5 0.000129 0.002993 0.012507 0.000000 0.044116 0.000000
# 6 0.000000 0.000000 0.000000 -0.002292 0.000000 0.040865
#
#
# Mechanical properties :
#
#
# Convention : Reuss Voigt Hill
#
# Bulk Modulus (GPa) = 30.28104 45.08642 37.68373
# Shear Modulus (GPa) = 22.81621 27.49951 25.15786
#
# Velocity S-wave (km/s) = 3.25709 3.57578 3.42015
# Velocity P-wave (km/s) = 5.31266 6.16537 5.75483
#
# Compressibility (1/GPa) = 0.03302397
#
# Stress axis : x y z
#
# Youngs Moduli (GPa) = 101.43353 97.40426 38.26359
#
# Poissons Ratio (x) = 0.25736 0.08454
# Poissons Ratio (y) = 0.26800 0.06758
# Poissons Ratio (z) = 0.22412 0.17203
#
# Static dielectric constant tensor:
#      x y z
#    x 1.894610 0.000000 -0.026430 
#    y 0.000000 1.880060 0.000000 
#    z -0.026430 0.000000 1.816960 
# 
# From -- ./inp_files/251827.got.cif
#   From: 2010.05.17/outbox.cif.g08.bks.cpg/sg15_126_cif.got.tgz:251827.got - 2010.06.03 18:47:42.
