data_PCOD9273198
_publ_section_title
;
Structure prediction by ZEFSAII (Michael W. Deem and Ramdas Pophale) SiO2 
 PCOD9273198
Probable space group: C 2/C
;
_chemical_formula_sum "Si O2"
_cell_formula_units_Z 44
_cell_length_a 25.910552
_cell_length_b 8.607706
_cell_length_c 16.031126
_cell_angle_alpha 90.000000
_cell_angle_beta 152.012535
_cell_angle_gamma 90.000000
_cell_volume 1677.871383
_symmetry_space_group_name_H-M "C 2/C"
_symmetry_group_IT_number 15
_symmetry_cell_setting 'monoclinic'
loop_
_space_group_symop_operation_xyz
x,y,z
-x,y,1/2-z
-x,-y,-z
x,-y,1/2+z
1/2+x,1/2+y,z
1/2-x,1/2+y,1/2-z
1/2-x,1/2-y,-z
1/2+x,1/2-y,1/2+z
loop_
_atom_site_type_symbol
_atom_site_label
_atom_site_fract_x
_atom_site_fract_y
_atom_site_fract_z
Si Si1 0.105792 0.356231 0.243996
Si Si2 0.172487 0.034542 0.288531
Si Si3 0.366798 0.094108 0.342802
Si Si4 0.172682 0.666615 0.574443
Si Si5 0.500000 0.281386 0.750000
Si Si6 0.956331 0.049113 0.570789
O O1 0.183225 0.214065 0.328273
O O2 0.150079 0.518536 0.272435
O O3 0.066860 0.324948 0.281929
O O4 0.989595 0.338687 0.026980
O O5 0.283490 0.937637 0.438973
O O6 0.114743 0.034813 0.115068
O O7 0.083450 0.963783 0.225122
O O8 0.277405 0.221044 0.237945
O O9 0.354345 0.953104 0.390353
O O10 0.074760 0.789554 0.430706
O O11 0.431803 0.402797 0.595607
#
# Coordination Sequence:
#
# PCOD9273198 Si02
#       6
#     8   8   8   8   4   8
#     4  10  22  42  67  93 125 178 213 265 311 393
#     4  10  20  40  66  90 131 163 221 267 309 364
#     4  11  22  36  67  98 125 163 227 263 316 366
#     4  12  21  36  66 101 124 162 219 279 308 369
#     4  10  22  42  66  88 134 178 204 254 338 380
#     4  10  20  37  63  91 121 174 206 259 319 377
#
# _framework density 26.223704000000001
#
# number of rings (size 3 to 8) (size 9 to 14) (size 15 to 20)
#    0.000    1.455    3.636    3.273    2.545    0.000 
#    0.000    5.455    4.000    0.000    0.000    0.000 
#    0.000    0.000    0.000    0.000    0.000    0.000 
#
# Total GULP energy -123264.086083 kJ/mol
# GULP energy per Si atom -5602.913004 kJ/mol
# Density = 2.616402 g / cm^3
# Si number density = 26.223704 Si / 1000 Ang^3
#
#
#
# Elastic Constant Matrix: (Units=GPa)
#
#
# Indices 1 2 3 4 5 6 
#
# 1 147.5354 59.5022 45.3393 0.0000 4.6252 0.0000
# 2 59.5022 151.8002 56.5703 0.0000 8.2200 0.0000
# 3 45.3393 56.5703 62.7913 0.0000 -8.0311 0.0000
# 4 0.0000 0.0000 0.0000 38.6480 0.0000 11.1630
# 5 4.6252 8.2200 -8.0311 0.0000 28.8875 0.0000
# 6 0.0000 0.0000 0.0000 11.1630 0.0000 51.8004
#
#
#
# Elastic Compliance Matrix: (Units=1/GPa)
#
#
# Indices 1 2 3 4 5 6 
#
# 1 0.009166 -0.001279 -0.005814 0.000000 -0.002720 0.000000
# 2 -0.001279 0.011017 -0.009723 0.000000 -0.005633 0.000000
# 3 -0.005814 -0.009723 0.030439 0.000000 0.012160 0.000000
# 4 0.000000 0.000000 0.000000 0.027592 0.000000 -0.005946
# 5 -0.002720 -0.005633 0.012160 0.000000 0.040036 0.000000
# 6 0.000000 0.000000 0.000000 -0.005946 0.000000 0.020586
#
#
# Mechanical properties :
#
#
# Convention : Reuss Voigt Hill
#
# Bulk Modulus (GPa) = 58.85705 76.10562 67.48133
# Shear Modulus (GPa) = 28.06923 37.24820 32.65871
#
# Velocity S-wave (km/s) = 3.27521 3.77291 3.53284
# Velocity P-wave (km/s) = 6.06594 6.93286 6.51384
#
# Compressibility (1/GPa) = 0.01699032
#
# Stress axis : x y z
#
# Youngs Moduli (GPa) = 109.10147 90.76652 32.85287
#
# Poissons Ratio (x) = 0.11607 0.19101
# Poissons Ratio (y) = 0.13952 0.31942
# Poissons Ratio (z) = 0.63432 0.88251
#
# Static dielectric constant tensor:
#      x y z
#    x 2.056330 0.000000 -0.031520 
#    y 0.000000 2.041940 0.000000 
#    z -0.031520 0.000000 2.098400 
# 
# From -- ./inp_files/218734.got.cif
#   From: 2010.05.17/outbox.cif.g08.bks.cpg/sg15_110_cif.got.tgz:218734.got - 2010.06.03 18:47:42.
