data_PCOD9273649
_publ_section_title
;
Structure prediction by ZEFSAII (Michael W. Deem and Ramdas Pophale) SiO2 
 PCOD9273649
Probable space group: C 2/C
;
_chemical_formula_sum "Si O2"
_cell_formula_units_Z 52
_cell_length_a 11.740697
_cell_length_b 32.796762
_cell_length_c 8.234108
_cell_angle_alpha 90.000000
_cell_angle_beta 47.525793
_cell_angle_gamma 90.000000
_cell_volume 2338.575311
_symmetry_space_group_name_H-M "C 2/C"
_symmetry_group_IT_number 15
_symmetry_cell_setting 'monoclinic'
loop_
_space_group_symop_operation_xyz
x,y,z
-x,y,1/2-z
-x,-y,-z
x,-y,1/2+z
1/2+x,1/2+y,z
1/2-x,1/2+y,1/2-z
1/2-x,1/2-y,-z
1/2+x,1/2-y,1/2+z
loop_
_atom_site_type_symbol
_atom_site_label
_atom_site_fract_x
_atom_site_fract_y
_atom_site_fract_z
Si Si1 0.210162 0.772462 0.372422
Si Si2 0.500000 0.990497 0.750000
Si Si3 0.248083 0.861717 0.392141
Si Si4 0.149299 0.443791 0.311993
Si Si5 0.096742 0.788058 0.998358
Si Si6 0.005496 0.953587 0.546363
Si Si7 0.111782 0.872949 0.872001
O O1 0.250000 0.750000 0.500000
O O2 0.292583 0.816530 0.293696
O O3 0.029193 0.781794 0.524293
O O4 0.268221 0.742669 0.175198
O O5 0.549479 0.961859 0.553947
O O6 0.370957 0.022891 0.812848
O O7 0.368164 0.896951 0.225580
O O8 0.071457 0.868558 0.495837
O O9 0.217508 0.864339 0.613970
O O10 0.327598 0.443108 0.185938
O O11 0.145428 0.835684 0.959912
O O12 0.000000 0.778620 0.250000
O O13 0.880772 0.921244 0.596882
O O14 0.000000 0.949368 0.750000
O O15 0.000000 0.000000 0.500000
#
# Coordination Sequence:
#
# PCOD9273649 Si02
#       7
#     8   4   8   8   8   8   8
#     4  11  21  39  66  88 117 163 207 243 300 373
#     4  10  22  38  58  76 116 168 194 230 302 360
#     4   9  17  35  60  81 112 147 198 247 283 352
#     4  10  20  38  57  81 115 156 198 240 294 360
#     4  11  23  39  61  90 127 159 198 255 313 362
#     4  11  20  33  60  89 116 142 195 258 302 346
#     4   9  17  35  58  83 111 155 189 239 309 353
#
# _framework density 22.235762000000001
#
# number of rings (size 3 to 8) (size 9 to 14) (size 15 to 20)
#    0.000    1.846    4.615    1.846    0.000    0.615 
#    4.154    1.538    0.000    0.000    0.000    0.000 
#    0.000    0.000    0.000    0.000    0.000    0.000 
#
# Total GULP energy -144909.568909 kJ/mol
# GULP energy per Si atom -5573.444958 kJ/mol
# Density = 2.218515 g / cm^3
# Si number density = 22.235762 Si / 1000 Ang^3
#
#
#
# Elastic Constant Matrix: (Units=GPa)
#
#
# Indices 1 2 3 4 5 6 
#
# 1 19.5103 11.3434 -2.8671 0.0000 4.1321 0.0000
# 2 11.3434 196.7691 49.9433 0.0000 -1.8607 0.0000
# 3 -2.8671 49.9433 62.4257 0.0000 9.1513 0.0000
# 4 0.0000 0.0000 0.0000 11.5047 0.0000 -5.4449
# 5 4.1321 -1.8607 9.1513 0.0000 16.4102 0.0000
# 6 0.0000 0.0000 0.0000 -5.4449 0.0000 12.6553
#
#
#
# Elastic Compliance Matrix: (Units=1/GPa)
#
#
# Indices 1 2 3 4 5 6 
#
# 1 0.061644 -0.006690 0.011511 0.000000 -0.022700 0.000000
# 2 -0.006690 0.007339 -0.007131 0.000000 0.006493 0.000000
# 3 0.011511 -0.007131 0.024825 0.000000 -0.017551 0.000000
# 4 0.000000 0.000000 0.000000 0.109145 0.000000 0.046959
# 5 -0.022700 0.006493 -0.017551 0.000000 0.077177 0.000000
# 6 0.000000 0.000000 0.000000 0.046959 0.000000 0.099222
#
#
# Mechanical properties :
#
#
# Convention : Reuss Voigt Hill
#
# Bulk Modulus (GPa) = 11.21213 43.94937 27.58075
# Shear Modulus (GPa) = 12.08601 22.79974 17.44288
#
# Velocity S-wave (km/s) = 2.33392 3.20560 2.80384
# Velocity P-wave (km/s) = 3.50945 5.78872 4.78673
#
# Compressibility (1/GPa) = 0.08918914
#
# Stress axis : x y z
#
# Youngs Moduli (GPa) = 16.22224 136.25724 40.28117
#
# Poissons Ratio (x) = 0.91156 -0.46368
# Poissons Ratio (y) = 0.10853 0.28723
# Poissons Ratio (z) = -0.18674 0.97161
#
# Static dielectric constant tensor:
#      x y z
#    x 2.959730 0.000000 0.132210 
#    y 0.000000 2.031820 0.000000 
#    z 0.132210 0.000000 1.800220 
# 
# From -- ./inp_files/44766.got.cif
#   From: 2010.05.17/outbox.cif.g08.bks.cpg/sg15_23_cif.got.tgz:44766.got - 2010.06.03 18:47:42.
