data_PCOD9273621
_publ_section_title
;
Structure prediction by ZEFSAII (Michael W. Deem and Ramdas Pophale) SiO2 
 PCOD9273621
Probable space group: C 2/C
;
_chemical_formula_sum "Si O2"
_cell_formula_units_Z 44
_cell_length_a 21.348301
_cell_length_b 6.167628
_cell_length_c 13.430241
_cell_angle_alpha 90.000000
_cell_angle_beta 91.382491
_cell_angle_gamma 90.000000
_cell_volume 1767.823315
_symmetry_space_group_name_H-M "C 2/C"
_symmetry_group_IT_number 15
_symmetry_cell_setting 'monoclinic'
loop_
_space_group_symop_operation_xyz
x,y,z
-x,y,1/2-z
-x,-y,-z
x,-y,1/2+z
1/2+x,1/2+y,z
1/2-x,1/2+y,1/2-z
1/2-x,1/2-y,-z
1/2+x,1/2-y,1/2+z
loop_
_atom_site_type_symbol
_atom_site_label
_atom_site_fract_x
_atom_site_fract_y
_atom_site_fract_z
Si Si1 0.881892 0.993699 0.779833
Si Si2 0.456447 0.783487 0.160780
Si Si3 0.205139 0.820132 0.365503
Si Si4 0.199961 0.440886 0.508370
Si Si5 0.107045 0.076052 0.502033
Si Si6 0.000000 0.305926 0.750000
O O1 0.817013 0.110466 0.744949
O O2 0.891364 0.947492 0.895796
O O3 0.936293 0.173425 0.762149
O O4 0.890883 0.776079 0.713474
O O5 0.500000 0.693489 0.250000
O O6 0.480469 0.028847 0.158886
O O7 0.454651 0.639856 0.062384
O O8 0.199660 0.577390 0.406231
O O9 0.272721 0.907314 0.403075
O O10 0.152886 0.942743 0.431440
O O11 0.250000 0.250000 0.500000
O O12 0.135744 0.315673 0.524472
#
# Coordination Sequence:
#
# PCOD9273621 Si02
#       6
#     8   8   8   8   8   4
#     4  11  21  38  58  87 115 156 200 239 291 353
#     4   9  21  39  54  82 118 152 188 249 288 339
#     4   9  20  39  59  82 122 150 187 252 293 343
#     4   9  18  39  60  82 112 154 189 237 301 345
#     4  10  21  36  60  86 115 152 199 237 294 354
#     4  10  20  38  56  78 120 156 192 242 298 336
#
# _framework density 24.889365000000002
#
# number of rings (size 3 to 8) (size 9 to 14) (size 15 to 20)
#    0.545    1.818    0.909    1.091    0.000    2.909 
#    9.818    0.000    0.000    0.000    0.000    0.000 
#    0.000    0.000    0.000    0.000    0.000    0.000 
#
# Total GULP energy -122544.092559 kJ/mol
# GULP energy per Si atom -5570.186025 kJ/mol
# Density = 2.483272 g / cm^3
# Si number density = 24.889365 Si / 1000 Ang^3
#
#
#
# Elastic Constant Matrix: (Units=GPa)
#
#
# Indices 1 2 3 4 5 6 
#
# 1 56.8347 20.8090 19.7296 0.0000 28.6539 0.0000
# 2 20.8090 72.6904 -7.7299 0.0000 6.3200 0.0000
# 3 19.7296 -7.7299 85.9119 0.0000 22.0584 0.0000
# 4 0.0000 0.0000 0.0000 21.8111 0.0000 9.8063
# 5 28.6539 6.3200 22.0584 0.0000 33.5765 0.0000
# 6 0.0000 0.0000 0.0000 9.8063 0.0000 2.8503
#
#
#
# Elastic Compliance Matrix: (Units=1/GPa)
#
#
# Indices 1 2 3 4 5 6 
#
# 1 0.034620 -0.007751 -0.001728 0.000000 -0.026950 0.000000
# 2 -0.007751 0.016119 0.002780 0.000000 0.001755 0.000000
# 3 -0.001728 0.002780 0.014486 0.000000 -0.008565 0.000000
# 4 0.000000 0.000000 0.000000 -0.083840 0.000000 0.288452
# 5 -0.026950 0.001755 -0.008565 0.000000 0.058078 0.000000
# 6 0.000000 0.000000 0.000000 0.288452 0.000000 -0.641570
#
#
# Mechanical properties :
#
#
# Convention : Reuss Voigt Hill
#
# Bulk Modulus (GPa) = 19.29549 31.22828 25.26188
# Shear Modulus (GPa) = -8.74993 23.82279 7.53643
#
# Velocity S-wave (km/s) = -1.87701 3.09714 1.74199
# Velocity P-wave (km/s) = 1.75265 5.03624 3.77065
#
# Compressibility (1/GPa) = 0.05182558
#
# Stress axis : x y z
#
# Youngs Moduli (GPa) = 28.88499 62.03871 69.03237
#
# Poissons Ratio (x) = 0.48088 0.11931
# Poissons Ratio (y) = 0.22390 -0.19190
# Poissons Ratio (z) = 0.04992 -0.17246
#
# Static dielectric constant tensor:
#      x y z
#    x 2.157610 0.000000 0.048430 
#    y 0.000000 1.997260 0.000000 
#    z 0.048430 0.000000 2.086020 
# 
# From -- ./inp_files/175445.got.cif
#   From: 2010.05.17/outbox.cif.g08.bks.cpg/sg15_88_cif.got.tgz:175445.got - 2010.06.03 18:47:42.
