data_PCOD9273354
_publ_section_title
;
Structure prediction by ZEFSAII (Michael W. Deem and Ramdas Pophale) SiO2 
 PCOD9273354
Probable space group: C 2/C
;
_chemical_formula_sum "Si O2"
_cell_formula_units_Z 64
_cell_length_a 28.412956
_cell_length_b 13.605889
_cell_length_c 8.550024
_cell_angle_alpha 90.000000
_cell_angle_beta 50.543269
_cell_angle_gamma 90.000000
_cell_volume 2552.036515
_symmetry_space_group_name_H-M "C 2/C"
_symmetry_group_IT_number 15
_symmetry_cell_setting 'monoclinic'
loop_
_space_group_symop_operation_xyz
x,y,z
-x,y,1/2-z
-x,-y,-z
x,-y,1/2+z
1/2+x,1/2+y,z
1/2-x,1/2+y,1/2-z
1/2-x,1/2-y,-z
1/2+x,1/2-y,1/2+z
loop_
_atom_site_type_symbol
_atom_site_label
_atom_site_fract_x
_atom_site_fract_y
_atom_site_fract_z
Si Si1 0.629080 0.209182 0.117938
Si Si2 0.557720 0.553356 0.239626
Si Si3 0.367804 0.095326 0.862138
Si Si4 0.808961 0.038983 0.551072
Si Si5 0.318736 0.716497 0.317758
Si Si6 0.728053 0.076112 0.012104
Si Si7 0.069032 0.527254 0.059249
Si Si8 0.480989 0.337985 0.112545
O O1 0.599621 0.113118 0.098170
O O2 0.572786 0.264124 0.319342
O O3 0.657155 0.268477 0.909731
O O4 0.683668 0.169650 0.110411
O O5 0.500000 0.564034 0.250000
O O6 0.549606 0.445459 0.329987
O O7 0.543932 0.642995 0.387282
O O8 0.623206 0.542880 0.022457
O O9 0.354516 0.207079 0.853296
O O10 0.423149 0.061404 0.633823
O O11 0.389405 0.066779 0.988509
O O12 0.311981 0.024743 0.924385
O O13 0.819866 0.105070 0.373387
O O14 0.764711 0.085537 0.772308
O O15 0.774477 0.942930 0.556749
O O16 0.250000 0.750000 0.500000
O O17 0.000000 0.512777 0.250000
O O18 0.500000 0.313356 0.250000
#
# Coordination Sequence:
#
# PCOD9273354 Si02
#       8
#     8   8   8   8   8   8   8   8
#     4  10  21  38  66 100 132 170 227 278 328 410
#     4  10  25  44  67  96 129 177 228 278 344 394
#     4  10  21  39  63  93 134 170 226 274 321 409
#     4  12  25  42  70  96 137 178 228 280 339 410
#     4  11  20  40  64  95 129 179 224 262 334 412
#     4  11  23  41  66  99 131 174 219 278 344 399
#     4  10  20  37  64  95 131 176 218 267 336 394
#     4  10  21  41  69  95 129 175 229 276 327 404
#
# _framework density 25.078011
#
# number of rings (size 3 to 8) (size 9 to 14) (size 15 to 20)
#    0.000    1.500    2.500    3.000    7.000    1.000 
#    0.000    5.000    0.000    0.000    0.000    0.000 
#    0.000    0.000    0.000    0.000    0.000    0.000 
#
# Total GULP energy -178906.153714 kJ/mol
# GULP energy per Si atom -5590.817304 kJ/mol
# Density = 2.502093 g / cm^3
# Si number density = 25.078011 Si / 1000 Ang^3
#
#
#
# Elastic Constant Matrix: (Units=GPa)
#
#
# Indices 1 2 3 4 5 6 
#
# 1 112.7435 27.7797 29.1227 0.0000 -21.9068 0.0000
# 2 27.7797 77.8230 19.4833 0.0000 -13.0904 0.0000
# 3 29.1227 19.4833 95.3961 0.0000 -31.5801 0.0000
# 4 0.0000 0.0000 0.0000 36.2931 0.0000 -8.9367
# 5 -21.9068 -13.0904 -31.5801 0.0000 36.6515 0.0000
# 6 0.0000 0.0000 0.0000 -8.9367 0.0000 35.7240
#
#
#
# Elastic Compliance Matrix: (Units=1/GPa)
#
#
# Indices 1 2 3 4 5 6 
#
# 1 0.010724 -0.002782 -0.001277 0.000000 0.004316 0.000000
# 2 -0.002782 0.014580 -0.001336 0.000000 0.002393 0.000000
# 3 -0.001277 -0.001336 0.015019 0.000000 0.011700 0.000000
# 4 0.000000 0.000000 0.000000 0.029362 0.000000 0.007345
# 5 0.004316 0.002393 0.011700 0.000000 0.040799 0.000000
# 6 0.000000 0.000000 0.000000 0.007345 0.000000 0.029830
#
#
# Mechanical properties :
#
#
# Convention : Reuss Voigt Hill
#
# Bulk Modulus (GPa) = 33.86212 48.74822 41.30517
# Shear Modulus (GPa) = 31.06596 35.70549 33.38573
#
# Velocity S-wave (km/s) = 3.52344 3.77739 3.65262
# Velocity P-wave (km/s) = 5.48497 6.20530 5.85622
#
# Compressibility (1/GPa) = 0.02953152
#
# Stress axis : x y z
#
# Youngs Moduli (GPa) = 93.25206 68.58761 66.58453
#
# Poissons Ratio (x) = 0.19083 0.08502
# Poissons Ratio (y) = 0.25946 0.08897
# Poissons Ratio (z) = 0.11906 0.09164
#
# Static dielectric constant tensor:
#      x y z
#    x 2.080270 0.000000 -0.003060 
#    y 0.000000 2.037300 0.000000 
#    z -0.003060 0.000000 2.018240 
# 
# From -- ./inp_files/70119.got.cif
#   From: 2010.05.17/outbox.cif.g08.bks.cpg/sg15_36_cif.got.tgz:70119.got - 2010.06.03 18:47:42.
