data_PCOD9273917
_publ_section_title
;
Structure prediction by ZEFSAII (Michael W. Deem and Ramdas Pophale) SiO2 
 PCOD9273917
Probable space group: C 2/C
;
_chemical_formula_sum "Si O2"
_cell_formula_units_Z 52
_cell_length_a 25.808039
_cell_length_b 8.530619
_cell_length_c 25.317526
_cell_angle_alpha 90.000000
_cell_angle_beta 154.802868
_cell_angle_gamma 90.000000
_cell_volume 2372.985862
_symmetry_space_group_name_H-M "C 2/C"
_symmetry_group_IT_number 15
_symmetry_cell_setting 'monoclinic'
loop_
_space_group_symop_operation_xyz
x,y,z
-x,y,1/2-z
-x,-y,-z
x,-y,1/2+z
1/2+x,1/2+y,z
1/2-x,1/2+y,1/2-z
1/2-x,1/2-y,-z
1/2+x,1/2-y,1/2+z
loop_
_atom_site_type_symbol
_atom_site_label
_atom_site_fract_x
_atom_site_fract_y
_atom_site_fract_z
Si Si1 0.000000 0.806501 0.250000
Si Si2 0.515168 0.314290 0.950928
Si Si3 0.092717 0.935617 0.911113
Si Si4 0.000000 0.302964 0.250000
Si Si5 0.690619 0.473072 0.196385
Si Si6 0.889362 0.334726 0.825874
Si Si7 0.000000 0.500000 0.500000
Si Si8 0.142321 0.440859 0.822031
O O1 0.889535 0.693753 0.164889
O O2 0.976050 0.916615 0.177787
O O3 0.528762 0.357282 0.902264
O O4 0.385406 0.383077 0.850289
O O5 0.620235 0.412127 0.079315
O O6 0.528582 0.133655 0.978327
O O7 0.096929 0.808987 0.867952
O O8 0.222000 0.998753 0.047959
O O9 0.057496 0.413905 0.259118
O O10 0.827513 0.530313 0.308435
O O11 0.676895 0.327479 0.223256
O O12 0.882483 0.380976 0.759662
O O13 0.018071 0.347809 0.973077
#
# Coordination Sequence:
#
# PCOD9273917 Si02
#       8
#     4   8   8   4   8   8   4   8
#     4  10  24  40  64  98 126 166 228 276 318 384
#     4  10  20  38  60  87 122 164 199 260 310 382
#     4  11  21  42  67  91 129 172 213 269 330 382
#     4  10  24  38  64  94 126 164 220 274 320 384
#     4  10  21  36  59  87 122 157 205 247 311 383
#     4  11  21  38  59  88 122 166 203 260 317 384
#     4  10  22  36  58  88 128 156 212 252 314 382
#     4  11  22  42  65  92 128 171 216 271 328 386
#
# _framework density 21.913321
#
# number of rings (size 3 to 8) (size 9 to 14) (size 15 to 20)
#    0.000    1.538    1.538    3.692    0.000    0.000 
#    2.769    0.000   10.154    0.000    0.000    0.000 
#    0.000    0.000    0.000    0.000    0.000    0.000 
#
# Total GULP energy -144903.074851 kJ/mol
# GULP energy per Si atom -5573.195187 kJ/mol
# Density = 2.186345 g / cm^3
# Si number density = 21.913321 Si / 1000 Ang^3
#
#
#
# Elastic Constant Matrix: (Units=GPa)
#
#
# Indices 1 2 3 4 5 6 
#
# 1 106.9989 53.9646 33.1035 0.0000 -24.0470 0.0000
# 2 53.9646 120.2813 13.7403 0.0000 -5.1564 0.0000
# 3 33.1035 13.7403 54.7234 0.0000 -16.6999 0.0000
# 4 0.0000 0.0000 0.0000 18.1134 0.0000 -7.0191
# 5 -24.0470 -5.1564 -16.6999 0.0000 34.9592 0.0000
# 6 0.0000 0.0000 0.0000 -7.0191 0.0000 41.1131
#
#
#
# Elastic Compliance Matrix: (Units=1/GPa)
#
#
# Indices 1 2 3 4 5 6 
#
# 1 0.015881 -0.006146 -0.005861 0.000000 0.007218 0.000000
# 2 -0.006146 0.010940 0.000203 0.000000 -0.002517 0.000000
# 3 -0.005861 0.000203 0.024054 0.000000 0.007489 0.000000
# 4 0.000000 0.000000 0.000000 0.059119 0.000000 0.010093
# 5 0.007218 -0.002517 0.007489 0.000000 0.036775 0.000000
# 6 0.000000 0.000000 0.000000 0.010093 0.000000 0.026046
#
#
# Mechanical properties :
#
#
# Convention : Reuss Voigt Hill
#
# Bulk Modulus (GPa) = 36.67541 53.73561 45.20551
# Shear Modulus (GPa) = 24.32937 30.91685 27.62311
#
# Velocity S-wave (km/s) = 3.33566 3.76023 3.55429
# Velocity P-wave (km/s) = 5.62214 6.58996 6.12519
#
# Compressibility (1/GPa) = 0.02726623
#
# Stress axis : x y z
#
# Youngs Moduli (GPa) = 62.96802 91.40557 41.57389
#
# Poissons Ratio (x) = 0.56179 0.24367
# Poissons Ratio (y) = 0.38701 -0.00843
# Poissons Ratio (z) = 0.36906 -0.01854
#
# Static dielectric constant tensor:
#      x y z
#    x 1.769470 0.000000 -0.125400 
#    y 0.000000 1.799330 0.000000 
#    z -0.125400 0.000000 0.613200 
# 
# From -- ./inp_files/121461.got.cif
#   From: 2010.05.17/outbox.cif.g08.bks.cpg/sg15_61_cif.got.tgz:121461.got - 2010.06.03 18:47:42.
