data_PCOD9273116
_publ_section_title
;
Structure prediction by ZEFSAII (Michael W. Deem and Ramdas Pophale) SiO2 
 PCOD9273116
Probable space group: C 2/C
;
_chemical_formula_sum "Si O2"
_cell_formula_units_Z 48
_cell_length_a 9.818622
_cell_length_b 27.818815
_cell_length_c 8.496032
_cell_angle_alpha 90.000000
_cell_angle_beta 88.241594
_cell_angle_gamma 90.000000
_cell_volume 2319.534033
_symmetry_space_group_name_H-M "C 2/C"
_symmetry_group_IT_number 15
_symmetry_cell_setting 'monoclinic'
loop_
_space_group_symop_operation_xyz
x,y,z
-x,y,1/2-z
-x,-y,-z
x,-y,1/2+z
1/2+x,1/2+y,z
1/2-x,1/2+y,1/2-z
1/2-x,1/2-y,-z
1/2+x,1/2-y,1/2+z
loop_
_atom_site_type_symbol
_atom_site_label
_atom_site_fract_x
_atom_site_fract_y
_atom_site_fract_z
Si Si1 0.773607 0.196338 0.441012
Si Si2 0.282640 0.857649 0.870491
Si Si3 0.873620 0.549487 0.161324
Si Si4 0.998392 0.864397 0.437709
Si Si5 0.538449 0.871305 0.068613
Si Si6 0.083775 0.039466 0.089331
O O1 0.750000 0.250000 0.500000
O O2 0.746902 0.183347 0.258578
O O3 0.669465 0.161866 0.538325
O O4 0.924194 0.179536 0.482713
O O5 0.318134 0.906160 0.771293
O O6 0.152826 0.866843 0.985194
O O7 0.415407 0.848576 0.971010
O O8 0.736506 0.521631 0.122371
O O9 0.000000 0.526248 0.250000
O O10 0.932003 0.576321 0.006135
O O11 0.000000 0.860235 0.250000
O O12 0.081261 0.911985 0.487740
O O13 0.500000 0.874569 0.250000
O O14 0.000000 0.050513 0.250000
O O15 0.000000 0.000000 0.000000
#
# Coordination Sequence:
#
# PCOD9273116 Si02
#       6
#     8   8   8   8   8   8
#     4  11  23  40  61  91 129 173 222 272 329 401
#     4  10  20  39  66  85 125 175 213 262 333 388
#     4   9  19  39  66  88 125 173 214 261 337 393
#     4  12  23  40  65  95 129 176 219 273 340 396
#     4  10  20  37  62  94 123 167 219 264 321 400
#     4  12  23  43  67  98 133 170 227 278 336 407
#
# _framework density 20.693812999999999
#
# number of rings (size 3 to 8) (size 9 to 14) (size 15 to 20)
#    0.000    1.333    5.000    3.500    0.000    2.667 
#    0.000    3.333    0.000    0.000    0.000    0.000 
#    0.000    0.000    0.000    0.000    0.000    0.000 
#
# Total GULP energy -134156.613555 kJ/mol
# GULP energy per Si atom -5589.858898 kJ/mol
# Density = 2.064671 g / cm^3
# Si number density = 20.693813 Si / 1000 Ang^3
#
#
#
# Elastic Constant Matrix: (Units=GPa)
#
#
# Indices 1 2 3 4 5 6 
#
# 1 127.9167 9.2652 32.7194 0.0000 10.2645 0.0000
# 2 9.2652 50.2813 8.8760 0.0000 14.6335 0.0000
# 3 32.7194 8.8760 139.0218 0.0000 -5.1187 0.0000
# 4 0.0000 0.0000 0.0000 6.7287 0.0000 6.9576
# 5 10.2645 14.6335 -5.1187 0.0000 38.2417 0.0000
# 6 0.0000 0.0000 0.0000 6.9576 0.0000 15.6037
#
#
#
# Elastic Compliance Matrix: (Units=1/GPa)
#
#
# Indices 1 2 3 4 5 6 
#
# 1 0.008577 -0.000522 -0.002073 0.000000 -0.002380 0.000000
# 2 -0.000522 0.022846 -0.001661 0.000000 -0.008824 0.000000
# 3 -0.002073 -0.001661 0.007870 0.000000 0.002245 0.000000
# 4 0.000000 0.000000 0.000000 0.275761 0.000000 -0.122960
# 5 -0.002380 -0.008824 0.002245 0.000000 0.030465 0.000000
# 6 0.000000 0.000000 0.000000 -0.122960 0.000000 0.118914
#
#
# Mechanical properties :
#
#
# Convention : Reuss Voigt Hill
#
# Bulk Modulus (GPa) = 32.48753 46.54900 39.51827
# Shear Modulus (GPa) = 10.34761 29.87209 20.10985
#
# Velocity S-wave (km/s) = 2.23857 3.80350 3.12072
# Velocity P-wave (km/s) = 4.73443 6.46775 5.66774
#
# Compressibility (1/GPa) = 0.03078104
#
# Stress axis : x y z
#
# Youngs Moduli (GPa) = 116.59693 43.77212 127.07018
#
# Poissons Ratio (x) = 0.02284 0.26340
# Poissons Ratio (y) = 0.06085 0.21102
# Poissons Ratio (z) = 0.24169 0.07269
#
# Static dielectric constant tensor:
#      x y z
#    x 1.853960 0.000000 -0.010850 
#    y 0.000000 1.729340 0.000000 
#    z -0.010850 0.000000 1.739110 
# 
# From -- ./inp_files/26072.got.cif
#   From: 2010.05.17/outbox.cif.g08.bks.cpg/sg15_14_cif.got.tgz:26072.got - 2010.06.03 18:47:42.
