data_PCOD9273635
_publ_section_title
;
Structure prediction by ZEFSAII (Michael W. Deem and Ramdas Pophale) SiO2 
 PCOD9273635
Probable space group: C 2/C
;
_chemical_formula_sum "Si O2"
_cell_formula_units_Z 52
_cell_length_a 12.056972
_cell_length_b 14.595647
_cell_length_c 19.546869
_cell_angle_alpha 90.000000
_cell_angle_beta 41.768305
_cell_angle_gamma 90.000000
_cell_volume 2291.349141
_symmetry_space_group_name_H-M "C 2/C"
_symmetry_group_IT_number 15
_symmetry_cell_setting 'monoclinic'
loop_
_space_group_symop_operation_xyz
x,y,z
-x,y,1/2-z
-x,-y,-z
x,-y,1/2+z
1/2+x,1/2+y,z
1/2-x,1/2+y,1/2-z
1/2-x,1/2-y,-z
1/2+x,1/2-y,1/2+z
loop_
_atom_site_type_symbol
_atom_site_label
_atom_site_fract_x
_atom_site_fract_y
_atom_site_fract_z
Si Si1 0.980828 0.684177 0.878287
Si Si2 0.631027 0.546721 0.298000
Si Si3 0.349903 0.206131 0.392554
Si Si4 0.618521 0.342003 0.315278
Si Si5 0.500000 0.313565 0.750000
Si Si6 0.009752 0.508159 0.165404
Si Si7 0.974290 0.174436 0.034120
O O1 0.426827 0.556545 0.691092
O O2 0.183052 0.674880 0.777837
O O3 0.918059 0.580423 0.905726
O O4 0.921428 0.744543 0.841567
O O5 0.438427 0.657818 0.578655
O O6 0.610129 0.618431 0.245909
O O7 0.537511 0.589850 0.407257
O O8 0.250000 0.250000 0.500000
O O9 0.517875 0.265669 0.318813
O O10 0.387641 0.100312 0.389016
O O11 0.216973 0.203167 0.392985
O O12 0.052924 0.259352 0.038242
O O13 0.824657 0.533267 0.226504
O O14 0.000000 0.483305 0.250000
#
# Coordination Sequence:
#
# PCOD9273635 Si02
#       7
#     8   8   8   8   4   8   8
#     4  10  22  38  62  86 122 160 208 258 307 376
#     4  10  21  36  62  88 124 159 202 256 309 374
#     4  10  21  37  59  89 123 158 208 255 301 368
#     4  10  22  37  57  91 123 162 205 254 311 371
#     4  10  20  38  56  90 120 154 204 252 308 358
#     4  11  20  38  63  89 114 162 207 247 309 370
#     4  10  20  39  60  88 124 164 206 256 311 370
#
# _framework density 22.694054999999999
#
# number of rings (size 3 to 8) (size 9 to 14) (size 15 to 20)
#    0.000    1.846    2.308    2.308    0.000    2.462 
#    0.000    9.231    0.000    0.000    0.000    0.000 
#    0.000    0.000    0.000    0.000    0.000    0.000 
#
# Total GULP energy -145301.268690 kJ/mol
# GULP energy per Si atom -5588.510334 kJ/mol
# Density = 2.264240 g / cm^3
# Si number density = 22.694055 Si / 1000 Ang^3
#
#
#
# Elastic Constant Matrix: (Units=GPa)
#
#
# Indices 1 2 3 4 5 6 
#
# 1 90.7084 43.6274 11.7554 -0.0001 5.1977 0.0002
# 2 43.6274 160.1283 23.6173 -0.0001 20.2284 0.0001
# 3 11.7554 23.6173 48.8546 -0.0003 -14.0214 0.0005
# 4 -0.0001 -0.0001 -0.0003 31.1708 0.0001 -71.2348
# 5 5.1977 20.2284 -14.0214 0.0001 21.4175 -0.0002
# 6 0.0002 0.0001 0.0005 -71.2348 -0.0002 543.9776
#
#
#
# Elastic Compliance Matrix: (Units=1/GPa)
#
#
# Indices 1 2 3 4 5 6 
#
# 1 0.012825 -0.002959 -0.002151 0.000000 -0.001726 0.000000
# 2 -0.002959 0.010048 -0.008205 0.000000 -0.014143 0.000000
# 3 -0.002151 -0.008205 0.033649 0.000000 0.030300 0.000000
# 4 0.000000 0.000000 0.000000 0.045782 0.000000 0.005995
# 5 -0.001726 -0.014143 0.030300 0.000000 0.080304 0.000000
# 6 0.000000 0.000000 0.000000 0.005995 0.000000 0.002623
#
#
# Mechanical properties :
#
#
# Convention : Reuss Voigt Hill
#
# Bulk Modulus (GPa) = 33.45253 50.85462 42.15358
# Shear Modulus (GPa) = 22.54031 134.02593 78.28312
#
# Velocity S-wave (km/s) = 3.15497 7.69324 5.87962
# Velocity P-wave (km/s) = 5.29570 10.06837 8.04414
#
# Compressibility (1/GPa) = 0.02989310
#
# Stress axis : x y z
#
# Youngs Moduli (GPa) = 77.97188 99.52318 29.71870
#
# Poissons Ratio (x) = 0.29449 0.06392
# Poissons Ratio (y) = 0.23072 0.24383
# Poissons Ratio (z) = 0.16771 0.81654
#
# Static dielectric constant tensor:
#      x y z
#    x 1.857140 0.000000 -0.033160 
#    y 0.000000 1.855870 0.000000 
#    z -0.033160 0.000000 1.852120 
# 
# From -- ./inp_files/244163.got.cif
#   From: 2010.05.17/outbox.cif.g08.bks.cpg/sg15_123_cif.got.tgz:244163.got - 2010.06.03 18:47:42.
