data_PCOD9273178
_publ_section_title
;
Structure prediction by ZEFSAII (Michael W. Deem and Ramdas Pophale) SiO2 
 PCOD9273178
Probable space group: C 2/C
;
_chemical_formula_sum "Si O2"
_cell_formula_units_Z 60
_cell_length_a 19.953910
_cell_length_b 9.876775
_cell_length_c 13.590067
_cell_angle_alpha 90.000000
_cell_angle_beta 118.300508
_cell_angle_gamma 90.000000
_cell_volume 2358.201352
_symmetry_space_group_name_H-M "C 2/C"
_symmetry_group_IT_number 15
_symmetry_cell_setting 'monoclinic'
loop_
_space_group_symop_operation_xyz
x,y,z
-x,y,1/2-z
-x,-y,-z
x,-y,1/2+z
1/2+x,1/2+y,z
1/2-x,1/2+y,1/2-z
1/2-x,1/2-y,-z
1/2+x,1/2-y,1/2+z
loop_
_atom_site_type_symbol
_atom_site_label
_atom_site_fract_x
_atom_site_fract_y
_atom_site_fract_z
Si Si1 0.578224 0.983704 0.424338
Si Si2 0.000000 0.000000 0.000000
Si Si3 0.900975 0.458834 0.287881
Si Si4 0.209123 0.687573 0.211264
Si Si5 0.898985 0.846487 0.240004
Si Si6 0.634826 0.679759 0.487973
Si Si7 0.057750 0.764591 0.439696
Si Si8 0.134016 0.141663 0.257983
O O1 0.488196 0.978068 0.377185
O O2 0.601592 0.010616 0.327423
O O3 0.606077 0.834902 0.464575
O O4 0.597570 0.123963 0.491080
O O5 0.068977 0.912512 0.988434
O O6 0.051032 0.137379 0.025083
O O7 0.845253 0.555252 0.311794
O O8 0.891202 0.296815 0.272799
O O9 0.179732 0.786411 0.276819
O O10 0.292623 0.628392 0.259688
O O11 0.201706 0.792105 0.112892
O O12 0.902856 0.831951 0.126830
O O13 0.969043 0.764053 0.338635
O O14 0.915577 0.001614 0.285908
O O15 0.654592 0.635176 0.390812
#
# Coordination Sequence:
#
# PCOD9273178 Si02
#       8
#     8   4   8   8   8   8   8   8
#     4  10  20  40  63  90 124 153 199 262 310 365
#     4  12  22  38  60  96 122 152 202 254 326 360
#     4  10  20  37  63  90 114 158 209 247 302 362
#     4  12  22  42  61  87 125 173 204 242 309 376
#     4  11  21  39  64  89 120 161 202 264 307 357
#     4  11  25  40  63  94 127 164 202 258 318 372
#     4  11  21  38  65  90 122 153 195 264 318 364
#     4  11  25  39  61  89 127 163 211 251 297 379
#
# _framework density 25.44312
#
# number of rings (size 3 to 8) (size 9 to 14) (size 15 to 20)
#    0.000    1.067    5.333    2.000    1.867    3.200 
#    0.000    0.000    0.000    0.800    0.000    0.000 
#    0.000    0.000    0.000    0.000    0.000    0.000 
#
# Total GULP energy -167149.152379 kJ/mol
# GULP energy per Si atom -5571.638413 kJ/mol
# Density = 2.538521 g / cm^3
# Si number density = 25.443120 Si / 1000 Ang^3
#
#
#
# Elastic Constant Matrix: (Units=GPa)
#
#
# Indices 1 2 3 4 5 6 
#
# 1 92.1964 33.3928 1.8807 0.0000 -11.9252 0.0000
# 2 33.3928 143.0870 10.3790 0.0000 -17.4020 0.0000
# 3 1.8807 10.3790 20.7896 0.0000 -16.0514 0.0000
# 4 0.0000 0.0000 0.0000 31.4424 0.0000 -19.0687
# 5 -11.9252 -17.4020 -16.0514 0.0000 22.8252 0.0000
# 6 0.0000 0.0000 0.0000 -19.0687 0.0000 43.8300
#
#
#
# Elastic Compliance Matrix: (Units=1/GPa)
#
#
# Indices 1 2 3 4 5 6 
#
# 1 0.012917 -0.002298 0.008394 0.000000 0.010900 0.000000
# 2 -0.002298 0.008133 0.000018 0.000000 0.005013 0.000000
# 3 0.008394 0.000018 0.110994 0.000000 0.082454 0.000000
# 4 0.000000 0.000000 0.000000 0.043203 0.000000 0.018796
# 5 0.010900 0.005013 0.082454 0.000000 0.111312 0.000000
# 6 0.000000 0.000000 0.000000 0.018796 0.000000 0.030993
#
#
# Mechanical properties :
#
#
# Convention : Reuss Voigt Hill
#
# Bulk Modulus (GPa) = 6.93129 38.59758 22.76443
# Shear Modulus (GPa) = 14.14768 33.64756 23.89762
#
# Velocity S-wave (km/s) = 2.36063 3.64051 3.06805
# Velocity P-wave (km/s) = 3.18752 5.73360 4.63867
#
# Compressibility (1/GPa) = 0.14427335
#
# Stress axis : x y z
#
# Youngs Moduli (GPa) = 77.41552 122.95020 9.00949
#
# Poissons Ratio (x) = 0.28252 -0.07563
# Poissons Ratio (y) = 0.17789 -0.00016
# Poissons Ratio (z) = -0.64986 -0.00217
#
# Static dielectric constant tensor:
#      x y z
#    x 1.963790 0.000000 0.047660 
#    y 0.000000 2.170940 0.000000 
#    z 0.047660 0.000000 2.128430 
# 
# From -- ./inp_files/213962.got.cif
#   From: 2010.05.17/outbox.cif.g08.bks.cpg/sg15_107_cif.got.tgz:213962.got - 2010.06.03 18:47:42.
