data_PCOD9273926
_publ_section_title
;
Structure prediction by ZEFSAII (Michael W. Deem and Ramdas Pophale) SiO2 
 PCOD9273926
Probable space group: C 2/C
;
_chemical_formula_sum "Si O2"
_cell_formula_units_Z 56
_cell_length_a 9.311082
_cell_length_b 17.144790
_cell_length_c 20.181629
_cell_angle_alpha 90.000000
_cell_angle_beta 133.258195
_cell_angle_gamma 90.000000
_cell_volume 2346.295596
_symmetry_space_group_name_H-M "C 2/C"
_symmetry_group_IT_number 15
_symmetry_cell_setting 'monoclinic'
loop_
_space_group_symop_operation_xyz
x,y,z
-x,y,1/2-z
-x,-y,-z
x,-y,1/2+z
1/2+x,1/2+y,z
1/2-x,1/2+y,1/2-z
1/2-x,1/2-y,-z
1/2+x,1/2-y,1/2+z
loop_
_atom_site_type_symbol
_atom_site_label
_atom_site_fract_x
_atom_site_fract_y
_atom_site_fract_z
Si Si1 0.500000 0.023365 0.750000
Si Si2 0.003959 0.075171 0.049420
Si Si3 0.939374 0.230780 0.516862
Si Si4 0.717720 0.930943 0.732415
Si Si5 0.000000 0.038327 0.750000
Si Si6 0.392749 0.725851 0.278572
Si Si7 0.822466 0.859417 0.298856
Si Si8 0.224045 0.329749 0.532250
O O1 0.320180 0.079804 0.710633
O O2 0.509209 0.965542 0.689518
O O3 0.779728 0.097263 0.003460
O O4 0.143673 0.060230 0.157463
O O5 0.080093 0.156525 0.039593
O O6 0.000000 0.000000 0.000000
O O7 0.750000 0.250000 0.500000
O O8 0.092893 0.196224 0.618413
O O9 0.027546 0.309109 0.510359
O O10 0.726849 0.840146 0.718937
O O11 0.814309 0.981468 0.704019
O O12 0.013383 0.094710 0.690751
O O13 0.500000 0.764183 0.250000
O O14 0.303309 0.800286 0.287983
O O15 0.580228 0.675719 0.361243
O O16 0.250000 0.250000 0.500000
#
# Coordination Sequence:
#
# PCOD9273926 Si02
#       8
#     4   8   8   8   4   8   8   8
#     4  10  20  38  60  88 118 158 202 252 310 376
#     4  10  21  40  63  86 121 165 207 254 315 386
#     4  11  23  41  63  91 127 166 214 266 314 379
#     4  10  22  38  58  89 122 160 199 252 320 370
#     4  10  22  36  56  86 124 156 196 258 302 366
#     4  11  19  36  64  89 120 159 207 259 313 375
#     4  11  22  39  63  91 121 163 214 258 314 369
#     4   9  20  38  62  88 122 168 208 253 322 380
#
# _framework density 23.867411000000001
#
# number of rings (size 3 to 8) (size 9 to 14) (size 15 to 20)
#    0.000    1.714    2.857    1.714    0.000    6.286 
#    0.000    3.571    0.000    0.000    0.000    0.000 
#    0.000    0.000    0.000    0.000    0.000    0.000 
#
# Total GULP energy -155894.754423 kJ/mol
# GULP energy per Si atom -5567.669801 kJ/mol
# Density = 2.381309 g / cm^3
# Si number density = 23.867411 Si / 1000 Ang^3
#
#
#
# Elastic Constant Matrix: (Units=GPa)
#
#
# Indices 1 2 3 4 5 6 
#
# 1 192.8864 80.4436 13.6530 0.0000 17.4778 0.0000
# 2 80.4436 163.6758 17.5185 0.0000 5.7298 0.0000
# 3 13.6530 17.5185 31.5963 0.0000 -4.8097 0.0000
# 4 0.0000 0.0000 0.0000 22.1332 0.0000 -2.8584
# 5 17.4778 5.7298 -4.8097 0.0000 23.5161 0.0000
# 6 0.0000 0.0000 0.0000 -2.8584 0.0000 52.3337
#
#
#
# Elastic Compliance Matrix: (Units=1/GPa)
#
#
# Indices 1 2 3 4 5 6 
#
# 1 0.007061 -0.003073 -0.002097 0.000000 -0.004928 0.000000
# 2 -0.003073 0.007966 -0.003134 0.000000 -0.000298 0.000000
# 3 -0.002097 -0.003134 0.035760 0.000000 0.009636 0.000000
# 4 0.000000 0.000000 0.000000 0.045502 0.000000 0.002485
# 5 -0.004928 -0.000298 0.009636 0.000000 0.048230 0.000000
# 6 0.000000 0.000000 0.000000 0.002485 0.000000 0.019244
#
#
# Mechanical properties :
#
#
# Convention : Reuss Voigt Hill
#
# Bulk Modulus (GPa) = 29.25876 67.93207 48.59541
# Shear Modulus (GPa) = 26.07349 38.03282 32.05316
#
# Velocity S-wave (km/s) = 3.30878 3.99620 3.66863
# Velocity P-wave (km/s) = 5.18487 7.05811 6.19273
#
# Compressibility (1/GPa) = 0.03417780
#
# Stress axis : x y z
#
# Youngs Moduli (GPa) = 141.61924 125.53297 27.96412
#
# Poissons Ratio (x) = 0.38582 0.05865
# Poissons Ratio (y) = 0.43526 0.08764
# Poissons Ratio (z) = 0.29702 0.39342
#
# Static dielectric constant tensor:
#      x y z
#    x 2.019060 0.000000 -0.048310 
#    y 0.000000 1.996530 0.000000 
#    z -0.048310 0.000000 2.084140 
# 
# From -- ./inp_files/265620.got.cif
#   From: 2010.05.17/outbox.cif.g08.bks.cpg/sg15_133_cif.got.tgz:265620.got - 2010.06.03 18:47:42.
