data_PCOD9273182
_publ_section_title
;
Structure prediction by ZEFSAII (Michael W. Deem and Ramdas Pophale) SiO2 
 PCOD9273182
Probable space group: C 2/C
;
_chemical_formula_sum "Si O2"
_cell_formula_units_Z 48
_cell_length_a 14.267478
_cell_length_b 11.795587
_cell_length_c 14.234080
_cell_angle_alpha 90.000000
_cell_angle_beta 86.560275
_cell_angle_gamma 90.000000
_cell_volume 2391.184415
_symmetry_space_group_name_H-M "C 2/C"
_symmetry_group_IT_number 15
_symmetry_cell_setting 'monoclinic'
loop_
_space_group_symop_operation_xyz
x,y,z
-x,y,1/2-z
-x,-y,-z
x,-y,1/2+z
1/2+x,1/2+y,z
1/2-x,1/2+y,1/2-z
1/2-x,1/2-y,-z
1/2+x,1/2-y,1/2+z
loop_
_atom_site_type_symbol
_atom_site_label
_atom_site_fract_x
_atom_site_fract_y
_atom_site_fract_z
Si Si1 0.546079 0.233753 0.483926
Si Si2 0.305659 0.579166 0.827092
Si Si3 0.148281 0.921528 0.385302
Si Si4 0.479440 0.417254 0.859192
Si Si5 0.164523 0.294667 0.568951
Si Si6 0.311832 0.970148 0.504995
O O1 0.588933 0.306249 0.395428
O O2 0.552665 0.312041 0.576366
O O3 0.436111 0.222316 0.472051
O O4 0.602840 0.116749 0.490007
O O5 0.299952 0.562046 0.716513
O O6 0.398085 0.511934 0.857364
O O7 0.323792 0.712514 0.843352
O O8 0.220457 0.529529 0.895169
O O9 0.221092 0.910773 0.465787
O O10 0.072598 0.023769 0.397561
O O11 0.500000 0.384251 0.750000
O O12 0.250000 0.250000 0.500000
O O13 0.172107 0.429406 0.571385
#
# Coordination Sequence:
#
# PCOD9273182 Si02
#       6
#     8   8   8   8   8   8
#     4  12  22  40  65  91 128 169 211 265 325 378
#     4  10  21  40  63  95 120 169 220 260 320 370
#     4  11  22  38  67  92 125 166 218 274 305 378
#     4  10  20  37  63  90 119 162 221 268 307 363
#     4  10  22  41  64  86 126 167 214 258 319 387
#     4  11  24  41  60  96 132 169 201 266 330 390
#
# _framework density 20.073733000000001
#
# number of rings (size 3 to 8) (size 9 to 14) (size 15 to 20)
#    0.000    1.333    3.333    3.500    0.000    1.333 
#    9.000    0.000    3.667    0.000    0.000    0.000 
#    0.000    0.000    0.000    0.000    0.000    0.000 
#
# Total GULP energy -133877.745580 kJ/mol
# GULP energy per Si atom -5578.239399 kJ/mol
# Density = 2.002804 g / cm^3
# Si number density = 20.073733 Si / 1000 Ang^3
#
#
#
# Elastic Constant Matrix: (Units=GPa)
#
#
# Indices 1 2 3 4 5 6 
#
# 1 87.5316 40.6642 25.3470 0.0000 2.3784 0.0000
# 2 40.6642 111.2024 24.4608 0.0000 -17.3957 0.0000
# 3 25.3470 24.4608 72.3838 0.0000 -16.6907 0.0000
# 4 0.0000 0.0000 0.0000 12.1069 0.0000 4.1158
# 5 2.3784 -17.3957 -16.6907 0.0000 19.4765 0.0000
# 6 0.0000 0.0000 0.0000 4.1158 0.0000 33.9023
#
#
#
# Elastic Compliance Matrix: (Units=1/GPa)
#
#
# Indices 1 2 3 4 5 6 
#
# 1 0.017021 -0.006925 -0.006886 0.000000 -0.014165 0.000000
# 2 -0.006925 0.013445 0.001054 0.000000 0.013758 0.000000
# 3 -0.006886 0.001054 0.020291 0.000000 0.019171 0.000000
# 4 0.000000 0.000000 0.000000 0.086153 0.000000 -0.010459
# 5 -0.014165 0.013758 0.019171 0.000000 0.081790 0.000000
# 6 0.000000 0.000000 0.000000 -0.010459 0.000000 0.030766
#
#
# Mechanical properties :
#
#
# Convention : Reuss Voigt Hill
#
# Bulk Modulus (GPa) = 39.61714 50.22913 44.92313
# Shear Modulus (GPa) = 17.64316 25.14019 21.39167
#
# Velocity S-wave (km/s) = 2.96787 3.54275 3.26798
# Velocity P-wave (km/s) = 5.61453 6.46618 6.05535
#
# Compressibility (1/GPa) = 0.02524160
#
# Stress axis : x y z
#
# Youngs Moduli (GPa) = 58.75221 74.37515 49.28284
#
# Poissons Ratio (x) = 0.51506 0.33937
# Poissons Ratio (y) = 0.40687 -0.05193
# Poissons Ratio (z) = 0.40458 -0.07837
#
# Static dielectric constant tensor:
#      x y z
#    x 1.753220 0.000000 0.002690 
#    y 0.000000 1.739980 0.000000 
#    z 0.002690 0.000000 1.734640 
# 
# From -- ./inp_files/152047.got.cif
#   From: 2010.05.17/outbox.cif.g08.bks.cpg/sg15_77_cif.got.tgz:152047.got - 2010.06.03 18:47:42.
