data_PCOD9273916
_publ_section_title
;
Structure prediction by ZEFSAII (Michael W. Deem and Ramdas Pophale) SiO2 
 PCOD9273916
Probable space group: C 2/C
;
_chemical_formula_sum "Si O2"
_cell_formula_units_Z 60
_cell_length_a 14.498435
_cell_length_b 19.899552
_cell_length_c 15.825368
_cell_angle_alpha 90.000000
_cell_angle_beta 40.648809
_cell_angle_gamma 90.000000
_cell_volume 2974.266339
_symmetry_space_group_name_H-M "C 2/C"
_symmetry_group_IT_number 15
_symmetry_cell_setting 'monoclinic'
loop_
_space_group_symop_operation_xyz
x,y,z
-x,y,1/2-z
-x,-y,-z
x,-y,1/2+z
1/2+x,1/2+y,z
1/2-x,1/2+y,1/2-z
1/2-x,1/2-y,-z
1/2+x,1/2-y,1/2+z
loop_
_atom_site_type_symbol
_atom_site_label
_atom_site_fract_x
_atom_site_fract_y
_atom_site_fract_z
Si Si1 0.425650 0.908461 0.620446
Si Si2 0.860614 0.144559 0.397165
Si Si3 0.494360 0.562124 0.569145
Si Si4 0.505387 0.696803 0.465149
Si Si5 0.258491 0.210658 0.178211
Si Si6 0.500000 0.928908 0.750000
Si Si7 0.188141 0.549954 0.850564
Si Si8 0.765474 0.001565 0.984195
O O1 0.296341 0.865278 0.677695
O O2 0.466690 0.889029 0.687153
O O3 0.557602 0.901423 0.464325
O O4 0.379737 0.986563 0.651240
O O5 0.795328 0.201254 0.380810
O O6 0.000000 0.119713 0.250000
O O7 0.913117 0.170946 0.450055
O O8 0.768893 0.078898 0.478897
O O9 0.500000 0.500000 0.500000
O O10 0.547946 0.631725 0.490692
O O11 0.329712 0.574297 0.706806
O O12 0.592418 0.535805 0.577558
O O13 0.400272 0.746314 0.586784
O O14 0.637797 0.732552 0.327546
O O15 0.636511 0.972956 0.631385
O O16 0.237366 0.524663 0.908445
#
# Coordination Sequence:
#
# PCOD9273916 Si02
#       8
#     8   8   8   8   8   4   8   8
#     4  10  21  38  62  85 125 157 198 251 310 365
#     4  10  20  38  60  87 122 163 199 250 312 364
#     4  12  22  36  62  91 121 154 207 257 306 361
#     4  11  25  39  63  88 124 167 210 255 306 365
#     4  11  23  43  61  85 124 170 207 251 307 373
#     4  10  22  36  56  94 120 154 198 246 316 362
#     4  10  21  36  61  93 116 157 198 249 310 368
#     4  11  20  36  60  91 125 154 195 256 308 369
#
# _framework density 20.173041999999999
#
# number of rings (size 3 to 8) (size 9 to 14) (size 15 to 20)
#    0.000    1.333    2.667    4.000    1.867    0.000 
#    2.400    0.000    2.933    2.400    0.000    0.000 
#    0.000    0.000    0.000    0.000    0.000    0.000 
#
# Total GULP energy -167459.557641 kJ/mol
# GULP energy per Si atom -5581.985255 kJ/mol
# Density = 2.012713 g / cm^3
# Si number density = 20.173042 Si / 1000 Ang^3
#
#
#
# Elastic Constant Matrix: (Units=GPa)
#
#
# Indices 1 2 3 4 5 6 
#
# 1 60.5789 -8.2458 0.5976 -0.0002 5.8290 0.0000
# 2 -8.2458 32.8561 12.5080 -0.0005 0.7412 0.0002
# 3 0.5976 12.5080 99.0097 -0.0008 -11.8190 0.0004
# 4 -0.0002 -0.0005 -0.0008 19.9868 0.0004 -9.5901
# 5 5.8290 0.7412 -11.8190 0.0004 32.6377 -0.0002
# 6 0.0000 0.0002 0.0004 -9.5901 -0.0002 19.3182
#
#
#
# Elastic Compliance Matrix: (Units=1/GPa)
#
#
# Indices 1 2 3 4 5 6 
#
# 1 0.017543 0.004929 -0.001166 0.000000 -0.003667 0.000000
# 2 0.004929 0.033523 -0.004662 0.000001 -0.003330 0.000000
# 3 -0.001166 -0.004662 0.011219 0.000000 0.004377 0.000000
# 4 0.000000 0.000001 0.000000 0.065677 -0.000001 0.032604
# 5 -0.003667 -0.003330 0.004377 -0.000001 0.032955 0.000000
# 6 0.000000 0.000000 0.000000 0.032604 0.000000 0.067950
#
#
# Mechanical properties :
#
#
# Convention : Reuss Voigt Hill
#
# Bulk Modulus (GPa) = 16.53286 22.46271 19.49779
# Shear Modulus (GPa) = 19.93409 26.89419 23.41414
#
# Velocity S-wave (km/s) = 3.14690 3.65523 3.41055
# Velocity P-wave (km/s) = 4.62788 5.38270 5.01950
#
# Compressibility (1/GPa) = 0.06048559
#
# Stress axis : x y z
#
# Youngs Moduli (GPa) = 57.00359 29.83042 89.13840
#
# Poissons Ratio (x) = -0.14705 0.10397
# Poissons Ratio (y) = -0.28099 0.41558
# Poissons Ratio (z) = 0.06649 0.13908
#
# Static dielectric constant tensor:
#      x y z
#    x 1.729640 0.000000 -0.016080 
#    y 0.000000 1.722930 0.000000 
#    z -0.016080 0.000000 1.763250 
# 
# From -- ./inp_files/156334.got.cif
#   From: 2010.05.17/outbox.cif.g08.bks.cpg/sg15_79_cif.got.tgz:156334.got - 2010.06.03 18:47:42.
