data_PCOD9273074
_publ_section_title
;
Structure prediction by ZEFSAII (Michael W. Deem and Ramdas Pophale) SiO2 
 PCOD9273074
Probable space group: C 2/C
;
_chemical_formula_sum "Si O2"
_cell_formula_units_Z 56
_cell_length_a 14.960013
_cell_length_b 11.558082
_cell_length_c 17.523690
_cell_angle_alpha 90.000000
_cell_angle_beta 58.731015
_cell_angle_gamma 90.000000
_cell_volume 2589.866009
_symmetry_space_group_name_H-M "C 2/C"
_symmetry_group_IT_number 15
_symmetry_cell_setting 'monoclinic'
loop_
_space_group_symop_operation_xyz
x,y,z
-x,y,1/2-z
-x,-y,-z
x,-y,1/2+z
1/2+x,1/2+y,z
1/2-x,1/2+y,1/2-z
1/2-x,1/2-y,-z
1/2+x,1/2-y,1/2+z
loop_
_atom_site_type_symbol
_atom_site_label
_atom_site_fract_x
_atom_site_fract_y
_atom_site_fract_z
Si Si1 0.662296 0.360619 0.475077
Si Si2 0.076558 0.484035 0.290201
Si Si3 0.749904 0.889290 0.908075
Si Si4 0.093352 0.416357 0.526667
Si Si5 0.592672 0.721083 0.271631
Si Si6 0.446095 0.322443 0.538489
Si Si7 0.777985 0.571163 0.382366
O O1 0.683104 0.223955 0.461188
O O2 0.664195 0.400077 0.562366
O O3 0.558139 0.380352 0.471917
O O4 0.761454 0.433253 0.401731
O O5 0.120102 0.354776 0.278243
O O6 0.163016 0.577337 0.224666
O O7 0.000000 0.482460 0.250000
O O8 0.007165 0.517610 0.393855
O O9 0.812593 0.853972 0.804868
O O10 0.673641 0.999302 0.946282
O O11 0.058458 0.306036 0.494326
O O12 0.155420 0.380206 0.576776
O O13 0.500000 0.721681 0.250000
O O14 0.555118 0.676050 0.369459
O O15 0.338034 0.380004 0.561793
#
# Coordination Sequence:
#
# PCOD9273074 Si02
#       7
#     8   8   8   8   8   8   8
#     4  10  20  37  62  91 116 161 207 254 318 370
#     4   9  19  39  64  89 118 160 208 260 310 365
#     4  10  20  39  63  88 125 154 201 273 314 358
#     4  10  23  40  65  93 124 164 213 261 315 377
#     4  11  21  37  60  91 124 158 207 263 317 365
#     4  12  24  36  61  91 129 171 207 251 315 386
#     4  10  21  41  63  88 127 167 208 257 312 378
#
# _framework density 21.622738999999999
#
# number of rings (size 3 to 8) (size 9 to 14) (size 15 to 20)
#    0.000    1.714    2.857    1.714    4.000    4.571 
#    0.000    0.000    3.143    0.857    0.000    0.000 
#    0.000    0.000    0.000    0.000    0.000    0.000 
#
# Total GULP energy -156204.651260 kJ/mol
# GULP energy per Si atom -5578.737545 kJ/mol
# Density = 2.157352 g / cm^3
# Si number density = 21.622739 Si / 1000 Ang^3
#
#
#
# Elastic Constant Matrix: (Units=GPa)
#
#
# Indices 1 2 3 4 5 6 
#
# 1 107.1533 8.0926 18.1221 0.0000 3.2650 0.0000
# 2 8.0926 49.1080 26.0426 0.0000 -3.3087 0.0000
# 3 18.1221 26.0426 100.4507 0.0000 -12.9173 0.0000
# 4 0.0000 0.0000 0.0000 20.4528 0.0000 -2.3892
# 5 3.2650 -3.3087 -12.9173 0.0000 22.4511 0.0000
# 6 0.0000 0.0000 0.0000 -2.3892 0.0000 20.1861
#
#
#
# Elastic Compliance Matrix: (Units=1/GPa)
#
#
# Indices 1 2 3 4 5 6 
#
# 1 0.009794 -0.000782 -0.001903 0.000000 -0.002634 0.000000
# 2 -0.000782 0.023672 -0.005975 0.000000 0.000165 0.000000
# 3 -0.001903 -0.005975 0.012710 0.000000 0.006709 0.000000
# 4 0.000000 0.000000 0.000000 0.049578 0.000000 0.005868
# 5 -0.002634 0.000165 0.006709 0.000000 0.048809 0.000000
# 6 0.000000 0.000000 0.000000 0.005868 0.000000 0.050234
#
#
# Mechanical properties :
#
#
# Convention : Reuss Voigt Hill
#
# Bulk Modulus (GPa) = 34.65511 40.13631 37.39571
# Shear Modulus (GPa) = 22.54950 26.24833 24.39892
#
# Velocity S-wave (km/s) = 3.23284 3.48792 3.36280
# Velocity P-wave (km/s) = 5.47695 5.90111 5.69298
#
# Compressibility (1/GPa) = 0.02885577
#
# Stress axis : x y z
#
# Youngs Moduli (GPa) = 102.10767 42.24439 78.67729
#
# Poissons Ratio (x) = 0.03305 0.14971
# Poissons Ratio (y) = 0.07988 0.47008
# Poissons Ratio (z) = 0.19429 0.25240
#
# Static dielectric constant tensor:
#      x y z
#    x 1.855740 0.000000 -0.022860 
#    y 0.000000 1.780820 0.000000 
#    z -0.022860 0.000000 1.826140 
# 
# From -- ./inp_files/204339.got.cif
#   From: 2010.05.17/outbox.cif.g08.bks.cpg/sg15_103_cif.got.tgz:204339.got - 2010.06.03 18:47:42.
