data_PCOD9273248
_publ_section_title
;
Structure prediction by ZEFSAII (Michael W. Deem and Ramdas Pophale) SiO2 
 PCOD9273248
Probable space group: C 2/C
;
_chemical_formula_sum "Si O2"
_cell_formula_units_Z 56
_cell_length_a 7.077710
_cell_length_b 23.485205
_cell_length_c 14.867184
_cell_angle_alpha 90.000000
_cell_angle_beta 117.437946
_cell_angle_gamma 90.000000
_cell_volume 2193.255821
_symmetry_space_group_name_H-M "C 2/C"
_symmetry_group_IT_number 15
_symmetry_cell_setting 'monoclinic'
loop_
_space_group_symop_operation_xyz
x,y,z
-x,y,1/2-z
-x,-y,-z
x,-y,1/2+z
1/2+x,1/2+y,z
1/2-x,1/2+y,1/2-z
1/2-x,1/2-y,-z
1/2+x,1/2-y,1/2+z
loop_
_atom_site_type_symbol
_atom_site_label
_atom_site_fract_x
_atom_site_fract_y
_atom_site_fract_z
Si Si1 0.928079 0.611202 0.608747
Si Si2 0.328070 0.992396 0.290771
Si Si3 0.117770 0.395508 0.599218
Si Si4 0.243117 0.773675 0.101383
Si Si5 0.334933 0.656750 0.482975
Si Si6 0.764031 0.686468 0.236729
Si Si7 0.453817 0.542725 0.909818
O O1 0.811824 0.609392 0.487167
O O2 0.920497 0.676015 0.637266
O O3 0.769210 0.576597 0.636458
O O4 0.133371 0.570710 0.656620
O O5 0.500000 0.008666 0.250000
O O6 0.394722 0.037716 0.381834
O O7 0.097792 0.993093 0.190835
O O8 0.248298 0.372514 0.711837
O O9 0.918333 0.350040 0.556207
O O10 0.280371 0.731383 0.192969
O O11 0.250000 0.750000 0.000000
O O12 0.006137 0.800799 0.065361
O O13 0.360701 0.674146 0.383426
O O14 0.391663 0.594657 0.534919
O O15 0.000000 0.699021 0.250000
O O16 0.500000 0.500000 0.000000
#
# Coordination Sequence:
#
# PCOD9273248 Si02
#       7
#     8   8   8   8   8   8   8
#     4  10  22  40  63  94 133 176 220 282 350 411
#     4  10  20  37  63  96 130 174 216 273 353 403
#     4  11  20  40  68  95 131 172 229 283 342 422
#     4  11  23  46  63  96 134 176 229 288 339 401
#     4  10  23  41  65  93 130 179 225 279 340 411
#     4  10  22  42  67  97 127 178 235 280 343 404
#     4  10  20  40  62  92 133 171 221 279 343 409
#
# _framework density 25.532817000000001
#
# number of rings (size 3 to 8) (size 9 to 14) (size 15 to 20)
#    0.000    1.714    1.429    4.286    0.000    2.857 
#   12.857    4.286    0.000    0.000    0.000    0.000 
#    0.000    0.000    0.000    0.000    0.000    0.000 
#
# Total GULP energy -155913.847956 kJ/mol
# GULP energy per Si atom -5568.351713 kJ/mol
# Density = 2.547470 g / cm^3
# Si number density = 25.532817 Si / 1000 Ang^3
#
#
#
# Elastic Constant Matrix: (Units=GPa)
#
#
# Indices 1 2 3 4 5 6 
#
# 1 44.6250 29.4534 40.5812 0.0000 -9.9212 0.0000
# 2 29.4534 135.7231 54.5112 0.0000 -10.7463 0.0000
# 3 40.5812 54.5112 137.1523 0.0000 -13.8973 0.0000
# 4 0.0000 0.0000 0.0000 21.7202 0.0000 -9.5583
# 5 -9.9212 -10.7463 -13.8973 0.0000 48.1365 0.0000
# 6 0.0000 0.0000 0.0000 -9.5583 0.0000 10.5916
#
#
#
# Elastic Compliance Matrix: (Units=1/GPa)
#
#
# Indices 1 2 3 4 5 6 
#
# 1 0.032809 -0.003665 -0.007879 0.000000 0.003669 0.000000
# 2 -0.003665 0.009222 -0.002523 0.000000 0.000575 0.000000
# 3 -0.007879 -0.002523 0.010717 0.000000 0.000907 0.000000
# 4 0.000000 0.000000 0.000000 0.076368 0.000000 0.068918
# 5 0.003669 0.000575 0.000907 0.000000 0.021921 0.000000
# 6 0.000000 0.000000 0.000000 0.068918 0.000000 0.156609
#
#
# Mechanical properties :
#
#
# Convention : Reuss Voigt Hill
#
# Bulk Modulus (GPa) = 40.62652 62.95467 51.79059
# Shear Modulus (GPa) = 14.53558 28.95329 21.74444
#
# Velocity S-wave (km/s) = 2.38857 3.37109 2.92143
# Velocity P-wave (km/s) = 4.85315 6.31366 5.63095
#
# Compressibility (1/GPa) = 0.02461446
#
# Stress axis : x y z
#
# Youngs Moduli (GPa) = 30.47963 108.43684 93.30938
#
# Poissons Ratio (x) = 0.39740 0.73521
# Poissons Ratio (y) = 0.11170 0.23539
# Poissons Ratio (z) = 0.24016 0.27355
#
# Static dielectric constant tensor:
#      x y z
#    x 2.317130 0.000000 -0.151920 
#    y 0.000000 2.050230 0.000000 
#    z -0.151920 0.000000 2.249960 
# 
# From -- ./inp_files/137962.got.cif
#   From: 2010.05.17/outbox.cif.g08.bks.cpg/sg15_69_cif.got.tgz:137962.got - 2010.06.03 18:47:42.
