data_PCOD9273777
_publ_section_title
;
Structure prediction by ZEFSAII (Michael W. Deem and Ramdas Pophale) SiO2 
 PCOD9273777
Probable space group: C 2/C
;
_chemical_formula_sum "Si O2"
_cell_formula_units_Z 48
_cell_length_a 7.069853
_cell_length_b 14.776852
_cell_length_c 23.452281
_cell_angle_alpha 90.000000
_cell_angle_beta 58.019385
_cell_angle_gamma 90.000000
_cell_volume 2078.211105
_symmetry_space_group_name_H-M "C 2/C"
_symmetry_group_IT_number 15
_symmetry_cell_setting 'monoclinic'
loop_
_space_group_symop_operation_xyz
x,y,z
-x,y,1/2-z
-x,-y,-z
x,-y,1/2+z
1/2+x,1/2+y,z
1/2-x,1/2+y,1/2-z
1/2-x,1/2-y,-z
1/2+x,1/2-y,1/2+z
loop_
_atom_site_type_symbol
_atom_site_label
_atom_site_fract_x
_atom_site_fract_y
_atom_site_fract_z
Si Si1 0.074580 0.793860 0.965025
Si Si2 0.857186 0.083363 0.410525
Si Si3 0.702085 0.479877 0.764488
Si Si4 0.925158 0.650201 0.150106
Si Si5 0.884145 0.170947 0.709359
Si Si6 0.299025 0.616542 0.941803
O O1 0.322021 0.822805 0.903600
O O2 0.091356 0.685583 0.969698
O O3 0.907947 0.836524 0.946448
O O4 0.056065 0.841313 0.029642
O O5 0.685931 0.111174 0.388748
O O6 0.088088 0.058864 0.339810
O O7 0.774244 0.990531 0.453682
O O8 0.500000 0.477449 0.750000
O O9 0.894599 0.420656 0.705794
O O10 0.770990 0.584797 0.756392
O O11 0.797948 0.740687 0.191350
O O12 0.000000 0.199090 0.750000
O O13 0.073710 0.128891 0.638098
#
# Coordination Sequence:
#
# PCOD9273777 Si02
#       6
#     8   8   8   8   8   8
#     4  10  21  38  63  84 118 161 196 243 296 362
#     4  10  20  38  59  82 122 155 188 252 298 342
#     4   8  17  34  55  82 114 146 191 238 291 345
#     4  10  21  35  61  91 113 148 209 238 290 368
#     4   9  18  35  61  78 116 154 183 247 293 339
#     4   9  20  39  59  89 117 155 203 236 302 360
#
# _framework density 23.096786000000002
#
# number of rings (size 3 to 8) (size 9 to 14) (size 15 to 20)
#    0.000    2.667    0.000    1.500    4.667    0.667 
#    0.000   12.500   22.000    0.000    0.000    0.000 
#    0.000    0.000    0.000    0.000    0.000    0.000 
#
# Total GULP energy -134075.736996 kJ/mol
# GULP energy per Si atom -5586.489041 kJ/mol
# Density = 2.304422 g / cm^3
# Si number density = 23.096786 Si / 1000 Ang^3
#
#
#
# Elastic Constant Matrix: (Units=GPa)
#
#
# Indices 1 2 3 4 5 6 
#
# 1 75.5441 5.2578 13.7625 0.0001 0.2472 -0.0003
# 2 5.2578 110.9921 17.9091 0.0001 2.3156 -0.0002
# 3 13.7625 17.9091 89.4661 0.0001 8.9687 -0.0001
# 4 0.0001 0.0001 0.0001 46.0100 -0.0001 9.0427
# 5 0.2472 2.3156 8.9687 -0.0001 31.1546 0.0002
# 6 -0.0003 -0.0002 -0.0001 9.0427 0.0002 14.7947
#
#
#
# Elastic Compliance Matrix: (Units=1/GPa)
#
#
# Indices 1 2 3 4 5 6 
#
# 1 0.013638 -0.000320 -0.002086 0.000000 0.000516 0.000000
# 2 -0.000320 0.009319 -0.001799 0.000000 -0.000172 0.000000
# 3 -0.002086 -0.001799 0.012195 0.000000 -0.003360 0.000000
# 4 0.000000 0.000000 0.000000 0.024702 0.000000 -0.015098
# 5 0.000516 -0.000172 -0.003360 0.000000 0.033074 -0.000001
# 6 0.000000 0.000000 0.000000 -0.015098 -0.000001 0.076820
#
#
# Mechanical properties :
#
#
# Convention : Reuss Voigt Hill
#
# Bulk Modulus (GPa) = 37.39382 38.87347 38.13365
# Shear Modulus (GPa) = 26.72788 34.33006 30.52897
#
# Velocity S-wave (km/s) = 3.40547 3.85951 3.63958
# Velocity P-wave (km/s) = 5.62923 6.06039 5.84878
#
# Compressibility (1/GPa) = 0.02674239
#
# Stress axis : x y z
#
# Youngs Moduli (GPa) = 73.32544 107.31144 81.99948
#
# Poissons Ratio (x) = 0.03437 0.17101
# Poissons Ratio (y) = 0.02349 0.14750
# Poissons Ratio (z) = 0.15292 0.19304
#
# Static dielectric constant tensor:
#      x y z
#    x 1.859800 0.000000 -0.031430 
#    y 0.000000 1.907610 0.000000 
#    z -0.031430 0.000000 1.862880 
# 
# From -- ./inp_files/263865.got.cif
#   From: 2010.05.17/outbox.cif.g08.bks.cpg/sg15_132_cif.got.tgz:263865.got - 2010.06.03 18:47:42.
