data_PCOD9273514
_publ_section_title
;
Structure prediction by ZEFSAII (Michael W. Deem and Ramdas Pophale) SiO2 
 PCOD9273514
Probable space group: C 2/C
;
_chemical_formula_sum "Si O2"
_cell_formula_units_Z 36
_cell_length_a 22.304436
_cell_length_b 9.745720
_cell_length_c 8.283951
_cell_angle_alpha 90.000000
_cell_angle_beta 131.441208
_cell_angle_gamma 90.000000
_cell_volume 1349.872336
_symmetry_space_group_name_H-M "C 2/C"
_symmetry_group_IT_number 15
_symmetry_cell_setting 'monoclinic'
loop_
_space_group_symop_operation_xyz
x,y,z
-x,y,1/2-z
-x,-y,-z
x,-y,1/2+z
1/2+x,1/2+y,z
1/2-x,1/2+y,1/2-z
1/2-x,1/2-y,-z
1/2+x,1/2-y,1/2+z
loop_
_atom_site_type_symbol
_atom_site_label
_atom_site_fract_x
_atom_site_fract_y
_atom_site_fract_z
Si Si1 0.157874 0.704504 0.367086
Si Si2 0.597712 0.049081 0.937914
Si Si3 0.146489 0.948039 0.551638
Si Si4 0.500000 0.589515 0.250000
Si Si5 0.152289 0.200042 0.373410
O O1 0.250000 0.750000 0.500000
O O2 0.126164 0.853014 0.363152
O O3 0.120852 0.630077 0.143903
O O4 0.132739 0.601925 0.467270
O O5 0.500000 0.042705 0.750000
O O6 0.557770 0.324787 0.739218
O O7 0.648772 0.139530 0.899299
O O8 0.188689 0.088086 0.565938
O O9 0.181506 0.853515 0.753448
O O10 0.061456 0.000250 0.459504
#
# Coordination Sequence:
#
# PCOD9273514 Si02
#       5
#     8   8   8   4   8
#     4  12  30  50  72 110 157 202 248 314 394 455
#     4  12  26  48  81 112 148 197 262 318 371 447
#     4  10  21  37  67 103 147 195 245 300 370 444
#     4   8  20  32  66 104 146 182 246 296 370 418
#     4  10  20  37  67 110 142 183 243 311 363 426
#
# _framework density 26.669188999999999
#
# number of rings (size 3 to 8) (size 9 to 14) (size 15 to 20)
#    1.333    0.000    1.111    4.000    4.667    3.556 
#    0.000    3.333    0.000    0.000    0.000    0.000 
#    0.000    0.000    0.000    0.000    0.000    0.000 
#
# Total GULP energy -100316.436512 kJ/mol
# GULP energy per Si atom -5573.135362 kJ/mol
# Density = 2.660849 g / cm^3
# Si number density = 26.669189 Si / 1000 Ang^3
#
#
#
# Elastic Constant Matrix: (Units=GPa)
#
#
# Indices 1 2 3 4 5 6 
#
# 1 119.4359 51.5469 82.6679 0.0000 28.3132 0.0000
# 2 51.5469 131.9757 17.7023 0.0000 22.6925 0.0000
# 3 82.6679 17.7023 101.5122 0.0000 16.2738 0.0000
# 4 0.0000 0.0000 0.0000 19.0156 0.0000 -40.1605
# 5 28.3132 22.6925 16.2738 0.0000 48.3372 0.0000
# 6 0.0000 0.0000 0.0000 -40.1605 0.0000 12.5233
#
#
#
# Elastic Compliance Matrix: (Units=1/GPa)
#
#
# Indices 1 2 3 4 5 6 
#
# 1 0.025398 -0.006460 -0.018666 0.000000 -0.005560 0.000000
# 2 -0.006460 0.009958 0.003877 0.000000 -0.002196 0.000000
# 3 -0.018666 0.003877 0.024222 0.000000 0.000959 0.000000
# 4 0.000000 0.000000 0.000000 -0.009110 0.000000 -0.029213
# 5 -0.005560 -0.002196 0.000959 0.000000 0.024653 0.000000
# 6 0.000000 0.000000 0.000000 -0.029213 0.000000 -0.013832
#
#
# Mechanical properties :
#
#
# Convention : Reuss Voigt Hill
#
# Bulk Modulus (GPa) = 58.54944 72.97311 65.76127
# Shear Modulus (GPa) = 45.66986 29.37566 37.52276
#
# Velocity S-wave (km/s) = 4.14267 3.32246 3.75503
# Velocity P-wave (km/s) = 6.69955 6.49154 6.59636
#
# Compressibility (1/GPa) = 0.01707958
#
# Stress axis : x y z
#
# Youngs Moduli (GPa) = 39.37259 100.42136 41.28484
#
# Poissons Ratio (x) = 0.64876 0.77061
# Poissons Ratio (y) = 0.25436 -0.16005
# Poissons Ratio (z) = 0.73491 -0.38930
#
# Static dielectric constant tensor:
#      x y z
#    x 2.109910 0.000000 -0.051780 
#    y 0.000000 2.108090 0.000000 
#    z -0.051780 0.000000 2.255120 
# 
# From -- ./inp_files/68921.got.cif
#   From: 2010.05.17/outbox.cif.g08.bks.cpg/sg15_35_cif.got.tgz:68921.got - 2010.06.03 18:47:42.
