data_PCOD9273670
_publ_section_title
;
Structure prediction by ZEFSAII (Michael W. Deem and Ramdas Pophale) SiO2 
 PCOD9273670
Probable space group: C 2/C
;
_chemical_formula_sum "Si O2"
_cell_formula_units_Z 48
_cell_length_a 18.070642
_cell_length_b 11.335217
_cell_length_c 8.732278
_cell_angle_alpha 90.000000
_cell_angle_beta 87.634051
_cell_angle_gamma 90.000000
_cell_volume 1787.148322
_symmetry_space_group_name_H-M "C 2/C"
_symmetry_group_IT_number 15
_symmetry_cell_setting 'monoclinic'
loop_
_space_group_symop_operation_xyz
x,y,z
-x,y,1/2-z
-x,-y,-z
x,-y,1/2+z
1/2+x,1/2+y,z
1/2-x,1/2+y,1/2-z
1/2-x,1/2-y,-z
1/2+x,1/2-y,1/2+z
loop_
_atom_site_type_symbol
_atom_site_label
_atom_site_fract_x
_atom_site_fract_y
_atom_site_fract_z
Si Si1 0.551006 0.081364 0.603070
Si Si2 0.670479 0.096282 0.221218
Si Si3 0.204987 0.612662 0.903425
Si Si4 0.643783 0.645154 0.740167
Si Si5 0.422026 0.653652 0.437298
Si Si6 0.399837 0.658315 0.098066
O O1 0.500000 0.114015 0.750000
O O2 0.585386 0.204293 0.548430
O O3 0.500000 0.000000 0.500000
O O4 0.614951 0.996549 0.653026
O O5 0.626408 0.215801 0.244440
O O6 0.694624 0.026206 0.368162
O O7 0.729680 0.121073 0.080105
O O8 0.267115 0.642188 0.772703
O O9 0.137255 0.707347 0.899577
O O10 0.621452 0.608987 0.569719
O O11 0.608799 0.599331 0.900889
O O12 0.384592 0.618428 0.276919
O O13 0.510925 0.643439 0.419075
#
# Coordination Sequence:
#
# PCOD9273670 Si02
#       6
#     8   8   8   8   8   8
#     4  12  20  32  53  87 125 162 194 229 298 382
#     4  11  21  37  56  84 123 163 197 247 289 357
#     4  11  23  41  57  88 126 158 207 246 298 365
#     4  11  24  39  60  89 123 166 202 246 303 359
#     4  11  20  36  58  88 123 160 199 244 300 368
#     4  10  20  38  57  88 125 157 197 246 296 375
#
# _framework density 26.858431
#
# number of rings (size 3 to 8) (size 9 to 14) (size 15 to 20)
#    0.000    1.000    3.333    7.500    0.000    0.667 
#    3.000    0.000    0.000    0.000    0.000   10.500 
#    0.000    0.000    0.000    0.000    0.000    0.000 
#
# Total GULP energy -133974.839071 kJ/mol
# GULP energy per Si atom -5582.284961 kJ/mol
# Density = 2.679730 g / cm^3
# Si number density = 26.858431 Si / 1000 Ang^3
#
#
#
# Elastic Constant Matrix: (Units=GPa)
#
#
# Indices 1 2 3 4 5 6 
#
# 1 65.7982 3.2181 63.1481 0.0000 -22.4828 0.0000
# 2 3.2181 97.4757 70.4299 0.0000 3.5682 0.0000
# 3 63.1481 70.4299 266.2212 0.0000 -32.8689 0.0000
# 4 0.0000 0.0000 0.0000 57.4663 0.0000 10.0023
# 5 -22.4828 3.5682 -32.8689 0.0000 42.9492 0.0000
# 6 0.0000 0.0000 0.0000 10.0023 0.0000 4.7016
#
#
#
# Elastic Compliance Matrix: (Units=1/GPa)
#
#
# Indices 1 2 3 4 5 6 
#
# 1 0.022611 0.002671 -0.005120 0.000000 0.007696 0.000000
# 2 0.002671 0.013653 -0.004653 0.000000 -0.003297 0.000000
# 3 -0.005120 -0.004653 0.006536 0.000000 0.002708 0.000000
# 4 0.000000 0.000000 0.000000 0.027634 0.000000 -0.058789
# 5 0.007696 -0.003297 0.002708 0.000000 0.029659 0.000000
# 6 0.000000 0.000000 0.000000 -0.058789 0.000000 0.337760
#
#
# Mechanical properties :
#
#
# Convention : Reuss Voigt Hill
#
# Bulk Modulus (GPa) = 34.96869 78.12079 56.54474
# Shear Modulus (GPa) = 10.83218 40.53671 25.68445
#
# Velocity S-wave (km/s) = 2.01043 3.88915 3.09575
# Velocity P-wave (km/s) = 4.29383 7.02258 5.82038
#
# Compressibility (1/GPa) = 0.02859701
#
# Stress axis : x y z
#
# Youngs Moduli (GPa) = 44.22721 73.24331 153.00072
#
# Poissons Ratio (x) = -0.19563 0.78331
# Poissons Ratio (y) = -0.11813 0.71185
# Poissons Ratio (z) = 0.22643 0.34077
#
# Static dielectric constant tensor:
#      x y z
#    x 2.229630 0.000000 0.006730 
#    y 0.000000 1.869840 0.000000 
#    z 0.006730 0.000000 2.204230 
# 
# From -- ./inp_files/47459.got.cif
#   From: 2010.05.17/outbox.cif.g08.bks.cpg/sg15_24_cif.got.tgz:47459.got - 2010.06.03 18:47:42.
