data_PCOD9273365
_publ_section_title
;
Structure prediction by ZEFSAII (Michael W. Deem and Ramdas Pophale) SiO2 
 PCOD9273365
Probable space group: C 2/C
;
_chemical_formula_sum "Si O2"
_cell_formula_units_Z 64
_cell_length_a 13.403368
_cell_length_b 19.404226
_cell_length_c 13.634012
_cell_angle_alpha 90.000000
_cell_angle_beta 122.114043
_cell_angle_gamma 90.000000
_cell_volume 3003.399248
_symmetry_space_group_name_H-M "C 2/C"
_symmetry_group_IT_number 15
_symmetry_cell_setting 'monoclinic'
loop_
_space_group_symop_operation_xyz
x,y,z
-x,y,1/2-z
-x,-y,-z
x,-y,1/2+z
1/2+x,1/2+y,z
1/2-x,1/2+y,1/2-z
1/2-x,1/2-y,-z
1/2+x,1/2-y,1/2+z
loop_
_atom_site_type_symbol
_atom_site_label
_atom_site_fract_x
_atom_site_fract_y
_atom_site_fract_z
Si Si1 0.649871 0.961005 0.183462
Si Si2 0.580813 0.540683 0.695230
Si Si3 0.211044 0.689491 0.053301
Si Si4 0.077140 0.214792 0.200288
Si Si5 0.026573 0.084271 0.457346
Si Si6 0.951749 0.326431 0.460287
Si Si7 0.465984 0.928455 0.619382
Si Si8 0.712891 0.046351 0.944043
O O1 0.781090 0.951187 0.209098
O O2 0.567479 0.898777 0.105988
O O3 0.668262 0.951529 0.309250
O O4 0.581371 0.033382 0.132953
O O5 0.500000 0.545178 0.750000
O O6 0.537316 0.588815 0.581132
O O7 0.572733 0.465966 0.637769
O O8 0.309292 0.682878 0.188046
O O9 0.250000 0.750000 0.000000
O O10 0.193438 0.618698 0.986252
O O11 0.083049 0.703645 0.029379
O O12 0.116160 0.270028 0.139382
O O13 0.000000 0.246693 0.250000
O O14 0.996726 0.156484 0.107405
O O15 0.145437 0.044978 0.485221
O O16 0.929406 0.354709 0.557081
O O17 0.500000 0.921598 0.750000
O O18 0.358252 0.982115 0.549554
#
# Coordination Sequence:
#
# PCOD9273365 Si02
#       8
#     8   8   8   8   8   8   8   8
#     4  10  22  38  63  99 131 171 219 268 334 403
#     4  10  23  40  67  95 132 171 222 283 334 396
#     4  12  23  37  63  94 131 175 208 271 341 393
#     4  12  24  40  64  95 133 173 219 273 339 400
#     4  10  22  41  64  99 129 173 225 274 333 400
#     4  12  25  39  62  94 135 170 221 271 333 400
#     4  10  23  41  63  97 136 180 222 274 327 400
#     4  10  20  37  64  96 136 165 217 269 332 404
#
# _framework density 21.309187999999999
#
# number of rings (size 3 to 8) (size 9 to 14) (size 15 to 20)
#    0.000    1.250    3.750    1.500    3.500    1.000 
#    0.000    0.625    0.000    1.500    0.000    0.000 
#    0.000    0.000    0.000    0.000    0.000    0.000 
#
# Total GULP energy -178560.081921 kJ/mol
# GULP energy per Si atom -5580.002560 kJ/mol
# Density = 2.126069 g / cm^3
# Si number density = 21.309188 Si / 1000 Ang^3
#
#
#
# Elastic Constant Matrix: (Units=GPa)
#
#
# Indices 1 2 3 4 5 6 
#
# 1 96.3274 28.5888 45.3895 0.0000 -1.7889 0.0000
# 2 28.5888 83.0030 41.8006 0.0000 -9.6314 0.0000
# 3 45.3895 41.8006 134.0222 0.0000 -1.8080 0.0000
# 4 0.0000 0.0000 0.0000 34.7554 0.0000 -1.4410
# 5 -1.7889 -9.6314 -1.8080 0.0000 29.8311 0.0000
# 6 0.0000 0.0000 0.0000 -1.4410 0.0000 30.0617
#
#
#
# Elastic Compliance Matrix: (Units=1/GPa)
#
#
# Indices 1 2 3 4 5 6 
#
# 1 0.012827 -0.002686 -0.003510 0.000000 -0.000311 0.000000
# 2 -0.002686 0.015442 -0.003845 0.000000 0.004592 0.000000
# 3 -0.003510 -0.003845 0.009838 0.000000 -0.000856 0.000000
# 4 0.000000 0.000000 0.000000 0.028830 0.000000 0.001382
# 5 -0.000311 0.004592 -0.000856 0.000000 0.034934 0.000000
# 6 0.000000 0.000000 0.000000 0.001382 0.000000 0.033331
#
#
# Mechanical properties :
#
#
# Convention : Reuss Voigt Hill
#
# Bulk Modulus (GPa) = 55.48079 60.54558 58.01319
# Shear Modulus (GPa) = 30.99969 32.10124 31.55047
#
# Velocity S-wave (km/s) = 3.81827 3.88551 3.85204
# Velocity P-wave (km/s) = 6.74770 6.97167 6.86060
#
# Compressibility (1/GPa) = 0.01802426
#
# Stress axis : x y z
#
# Youngs Moduli (GPa) = 77.96156 64.75908 101.64770
#
# Poissons Ratio (x) = 0.17395 0.35683
# Poissons Ratio (y) = 0.20941 0.39079
# Poissons Ratio (z) = 0.27368 0.24897
#
# Static dielectric constant tensor:
#      x y z
#    x 1.853960 0.000000 -0.013720 
#    y 0.000000 1.763130 0.000000 
#    z -0.013720 0.000000 1.839830 
# 
# From -- ./inp_files/155510.got.cif
#   From: 2010.05.17/outbox.cif.g08.bks.cpg/sg15_78_cif.got.tgz:155510.got - 2010.06.03 18:47:42.
