data_PCOD9273661
_publ_section_title
;
Structure prediction by ZEFSAII (Michael W. Deem and Ramdas Pophale) SiO2 
 PCOD9273661
Probable space group: C 2/C
;
_chemical_formula_sum "Si O2"
_cell_formula_units_Z 52
_cell_length_a 17.605996
_cell_length_b 16.365207
_cell_length_c 8.878362
_cell_angle_alpha 90.000000
_cell_angle_beta 103.673150
_cell_angle_gamma 90.000000
_cell_volume 2485.588755
_symmetry_space_group_name_H-M "C 2/C"
_symmetry_group_IT_number 15
_symmetry_cell_setting 'monoclinic'
loop_
_space_group_symop_operation_xyz
x,y,z
-x,y,1/2-z
-x,-y,-z
x,-y,1/2+z
1/2+x,1/2+y,z
1/2-x,1/2+y,1/2-z
1/2-x,1/2-y,-z
1/2+x,1/2-y,1/2+z
loop_
_atom_site_type_symbol
_atom_site_label
_atom_site_fract_x
_atom_site_fract_y
_atom_site_fract_z
Si Si1 0.686219 0.926544 0.650054
Si Si2 0.315786 0.114414 0.802272
Si Si3 0.059096 0.371928 0.385871
Si Si4 0.829798 0.294512 0.604240
Si Si5 0.030699 0.811911 0.929910
Si Si6 0.500000 0.293496 0.250000
Si Si7 0.787795 0.835403 0.468359
O O1 0.599710 0.918819 0.538741
O O2 0.695904 0.853639 0.772504
O O3 0.749053 0.907104 0.549322
O O4 0.692136 0.017513 0.712379
O O5 0.371347 0.148756 0.697449
O O6 0.232154 0.150931 0.716303
O O7 0.348741 0.144539 0.974433
O O8 0.022327 0.287285 0.424663
O O9 0.000000 0.419476 0.250000
O O10 0.750000 0.250000 0.500000
O O11 0.913205 0.252017 0.693351
O O12 0.121378 0.831885 0.966852
O O13 0.000000 0.839710 0.750000
O O14 0.002242 0.837437 0.084928
O O15 0.750000 0.750000 0.500000
#
# Coordination Sequence:
#
# PCOD9273661 Si02
#       7
#     8   8   8   8   8   4   8
#     4  11  23  39  59  93 126 168 214 259 328 399
#     4  11  23  38  60  89 129 170 212 261 325 397
#     4  10  20  38  57  84 128 170 208 244 318 393
#     4  12  24  39  63  95 127 168 214 280 323 379
#     4  11  22  39  67  96 125 166 215 284 329 376
#     4  12  24  40  62 106 134 158 236 276 320 408
#     4  11  20  42  66  87 121 171 219 260 324 393
#
# _framework density 20.920596
#
# number of rings (size 3 to 8) (size 9 to 14) (size 15 to 20)
#    0.000    0.923    4.615    5.538    2.154    0.615 
#    2.769    0.000    0.000    0.923    4.000    0.000 
#    0.000    0.000    0.000    0.000    0.000    0.000 
#
# Total GULP energy -144735.268793 kJ/mol
# GULP energy per Si atom -5566.741107 kJ/mol
# Density = 2.087298 g / cm^3
# Si number density = 20.920596 Si / 1000 Ang^3
#
#
#
# Elastic Constant Matrix: (Units=GPa)
#
#
# Indices 1 2 3 4 5 6 
#
# 1 80.2493 4.8676 35.3318 0.0000 29.0166 0.0000
# 2 4.8676 37.8964 15.4927 0.0000 18.5594 0.0000
# 3 35.3318 15.4927 160.2551 0.0000 24.1990 0.0000
# 4 0.0000 0.0000 0.0000 23.3641 0.0000 2.0196
# 5 29.0166 18.5594 24.1990 0.0000 50.0995 0.0000
# 6 0.0000 0.0000 0.0000 2.0196 0.0000 9.4040
#
#
#
# Elastic Compliance Matrix: (Units=1/GPa)
#
#
# Indices 1 2 3 4 5 6 
#
# 1 0.016986 0.003768 -0.002603 0.000000 -0.009977 0.000000
# 2 0.003768 0.033373 -0.002007 0.000000 -0.013576 0.000000
# 3 -0.002603 -0.002007 0.007193 0.000000 -0.001223 0.000000
# 4 0.000000 0.000000 0.000000 0.043610 0.000000 -0.009366
# 5 -0.009977 -0.013576 -0.001223 0.000000 0.031359 0.000000
# 6 0.000000 0.000000 0.000000 -0.009366 0.000000 0.108349
#
#
# Mechanical properties :
#
#
# Convention : Reuss Voigt Hill
#
# Bulk Modulus (GPa) = 17.89917 43.30943 30.60430
# Shear Modulus (GPa) = 19.14424 31.42078 25.28251
#
# Velocity S-wave (km/s) = 3.02833 3.87965 3.48012
# Velocity P-wave (km/s) = 4.56092 6.38871 5.55057
#
# Compressibility (1/GPa) = 0.05586851
#
# Stress axis : x y z
#
# Youngs Moduli (GPa) = 58.87238 29.96431 139.03144
#
# Poissons Ratio (x) = -0.11291 0.36186
# Poissons Ratio (y) = -0.22185 0.27905
# Poissons Ratio (z) = 0.15323 0.06014
#
# Static dielectric constant tensor:
#      x y z
#    x 1.907570 0.000000 -0.011590 
#    y 0.000000 1.728630 0.000000 
#    z -0.011590 0.000000 1.897830 
# 
# From -- ./inp_files/48601.got.cif
#   From: 2010.05.17/outbox.cif.g08.bks.cpg/sg15_25_cif.got.tgz:48601.got - 2010.06.03 18:47:42.
