data_PCOD9273954
_publ_section_title
;
Structure prediction by ZEFSAII (Michael W. Deem and Ramdas Pophale) SiO2 
 PCOD9273954
Probable space group: C 2/C
;
_chemical_formula_sum "Si O2"
_cell_formula_units_Z 52
_cell_length_a 8.168638
_cell_length_b 25.934879
_cell_length_c 12.420676
_cell_angle_alpha 90.000000
_cell_angle_beta 71.555456
_cell_angle_gamma 90.000000
_cell_volume 2496.181236
_symmetry_space_group_name_H-M "C 2/C"
_symmetry_group_IT_number 15
_symmetry_cell_setting 'monoclinic'
loop_
_space_group_symop_operation_xyz
x,y,z
-x,y,1/2-z
-x,-y,-z
x,-y,1/2+z
1/2+x,1/2+y,z
1/2-x,1/2+y,1/2-z
1/2-x,1/2-y,-z
1/2+x,1/2-y,1/2+z
loop_
_atom_site_type_symbol
_atom_site_label
_atom_site_fract_x
_atom_site_fract_y
_atom_site_fract_z
Si Si1 0.853404 0.494894 0.688901
Si Si2 0.437505 0.824247 0.385030
Si Si3 0.670991 0.730415 0.402868
Si Si4 0.035982 0.845267 0.443028
Si Si5 0.000000 0.770776 0.250000
Si Si6 0.943537 0.427709 0.487084
Si Si7 0.385387 0.460302 0.091006
O O1 0.876196 0.441586 0.619688
O O2 0.681636 0.512094 0.786526
O O3 0.000000 0.496050 0.750000
O O4 0.899657 0.536560 0.586630
O O5 0.500000 0.836630 0.250000
O O6 0.520273 0.770090 0.400463
O O7 0.231569 0.829116 0.431922
O O8 0.498239 0.869400 0.452603
O O9 0.750000 0.750000 0.500000
O O10 0.592204 0.674051 0.437063
O O11 0.827673 0.736634 0.287076
O O12 0.022991 0.905039 0.414906
O O13 0.995995 0.809371 0.350386
O O14 0.784523 0.443594 0.442071
O O15 0.500000 0.500000 0.000000
#
# Coordination Sequence:
#
# PCOD9273954 Si02
#       7
#     8   8   8   8   4   8   8
#     4   9  18  36  56  85 120 160 206 246 301 359
#     4  11  19  37  68  91 119 168 211 257 319 380
#     4  10  22  39  59  90 123 150 208 261 314 376
#     4  10  21  38  61  89 118 160 211 251 307 372
#     4  10  20  38  60  90 116 156 198 258 304 376
#     4   9  19  35  61  89 119 156 211 259 293 368
#     4  10  21  37  58  88 124 160 203 251 306 369
#
# _framework density 20.831821000000001
#
# number of rings (size 3 to 8) (size 9 to 14) (size 15 to 20)
#    0.000    2.154    1.538    2.769    0.000    1.846 
#   13.846    3.077    5.077    0.000    0.000    0.000 
#    0.000    0.000    0.000    0.000    0.000    0.000 
#
# Total GULP energy -145000.022659 kJ/mol
# GULP energy per Si atom -5576.923948 kJ/mol
# Density = 2.078441 g / cm^3
# Si number density = 20.831821 Si / 1000 Ang^3
#
#
#
# Elastic Constant Matrix: (Units=GPa)
#
#
# Indices 1 2 3 4 5 6 
#
# 1 33.5223 19.5822 16.6587 0.0000 -10.2954 0.0000
# 2 19.5822 82.2903 74.9243 0.0000 -22.9552 0.0000
# 3 16.6587 74.9243 109.5532 0.0000 -28.5933 0.0000
# 4 0.0000 0.0000 0.0000 40.2438 0.0000 -10.7004
# 5 -10.2954 -22.9552 -28.5933 0.0000 29.5308 0.0000
# 6 0.0000 0.0000 0.0000 -10.7004 0.0000 34.4194
#
#
#
# Elastic Compliance Matrix: (Units=1/GPa)
#
#
# Indices 1 2 3 4 5 6 
#
# 1 0.036162 -0.008616 0.002591 0.000000 0.008418 0.000000
# 2 -0.008616 0.034813 -0.021705 0.000000 0.003042 0.000000
# 3 0.002591 -0.021705 0.025974 0.000000 0.009181 0.000000
# 4 0.000000 0.000000 0.000000 0.027088 0.000000 0.008421
# 5 0.008418 0.003042 0.009181 0.000000 0.048052 0.000000
# 6 0.000000 0.000000 0.000000 0.008421 0.000000 0.031671
#
#
# Mechanical properties :
#
#
# Convention : Reuss Voigt Hill
#
# Bulk Modulus (GPa) = 24.10246 49.74402 36.92324
# Shear Modulus (GPa) = 18.31172 28.45218 23.38195
#
# Velocity S-wave (km/s) = 2.96805 3.69969 3.35388
# Velocity P-wave (km/s) = 4.83125 6.49469 5.72372
#
# Compressibility (1/GPa) = 0.04148955
#
# Stress axis : x y z
#
# Youngs Moduli (GPa) = 27.65340 28.72513 38.49952
#
# Poissons Ratio (x) = 0.24749 -0.09975
# Poissons Ratio (y) = 0.23826 0.83562
# Poissons Ratio (z) = -0.07165 0.62347
#
# Static dielectric constant tensor:
#      x y z
#    x 1.785800 0.000000 -0.040760 
#    y 0.000000 1.766830 0.000000 
#    z -0.040760 0.000000 1.759020 
# 
# From -- ./inp_files/80619.got.cif
#   From: 2010.05.17/outbox.cif.g08.bks.cpg/sg15_41_cif.got.tgz:80619.got - 2010.06.03 18:47:42.
