data_PCOD9273710
_publ_section_title
;
Structure prediction by ZEFSAII (Michael W. Deem and Ramdas Pophale) SiO2 
 PCOD9273710
Probable space group: C 2/C
;
_chemical_formula_sum "Si O2"
_cell_formula_units_Z 60
_cell_length_a 12.965405
_cell_length_b 21.473188
_cell_length_c 15.186653
_cell_angle_alpha 90.000000
_cell_angle_beta 42.745165
_cell_angle_gamma 90.000000
_cell_volume 2869.771674
_symmetry_space_group_name_H-M "C 2/C"
_symmetry_group_IT_number 15
_symmetry_cell_setting 'monoclinic'
loop_
_space_group_symop_operation_xyz
x,y,z
-x,y,1/2-z
-x,-y,-z
x,-y,1/2+z
1/2+x,1/2+y,z
1/2-x,1/2+y,1/2-z
1/2-x,1/2-y,-z
1/2+x,1/2-y,1/2+z
loop_
_atom_site_type_symbol
_atom_site_label
_atom_site_fract_x
_atom_site_fract_y
_atom_site_fract_z
Si Si1 0.446702 0.306663 0.991106
Si Si2 0.125689 0.524726 0.032869
Si Si3 0.896141 0.576227 0.649663
Si Si4 0.422129 0.571026 0.882265
Si Si5 0.500000 0.115312 0.250000
Si Si6 0.109301 0.059877 0.929038
Si Si7 0.396739 0.208227 0.731116
Si Si8 0.203766 0.189135 0.478299
O O1 0.424532 0.381360 0.986834
O O2 0.278740 0.283319 0.127036
O O3 0.520701 0.267318 0.865525
O O4 0.570152 0.299602 0.992236
O O5 0.015296 0.571067 0.155251
O O6 0.056996 0.456716 0.065997
O O7 0.149398 0.552655 0.919667
O O8 0.281444 0.526222 0.991250
O O9 0.784366 0.550136 0.796296
O O10 0.897424 0.650181 0.662411
O O11 0.500000 0.542650 0.750000
O O12 0.549472 0.585260 0.872488
O O13 0.346369 0.638145 0.917584
O O14 0.349496 0.157583 0.340200
O O15 0.000000 0.000000 0.000000
O O16 0.500000 0.189870 0.750000
O O17 0.250000 0.250000 0.500000
#
# Coordination Sequence:
#
# PCOD9273710 Si02
#       8
#     8   8   8   8   4   8   8   8
#     4  10  25  43  67  95 129 173 217 277 322 391
#     4  10  22  39  60  94 126 163 215 266 329 389
#     4  10  23  40  66  90 127 167 217 270 328 380
#     4  10  20  38  58  85 127 160 201 256 321 395
#     4  10  24  38  64  94 134 164 212 266 328 416
#     4  10  22  41  64  92 128 171 209 263 328 388
#     4  11  25  46  69  93 129 178 231 274 329 379
#     4  10  24  36  61  95 128 165 204 255 336 401
#
# _framework density 20.907585999999998
#
# number of rings (size 3 to 8) (size 9 to 14) (size 15 to 20)
#    0.000    1.867    1.333    0.400   13.067    1.067 
#    2.400    0.667    0.000    0.000    0.000    0.000 
#    0.000    0.000    0.000    0.000    0.000    0.000 
#
# Total GULP energy -167133.770228 kJ/mol
# GULP energy per Si atom -5571.125674 kJ/mol
# Density = 2.086000 g / cm^3
# Si number density = 20.907586 Si / 1000 Ang^3
#
#
#
# Elastic Constant Matrix: (Units=GPa)
#
#
# Indices 1 2 3 4 5 6 
#
# 1 57.5753 -20.6596 5.0264 0.0007 -22.5395 -0.0002
# 2 -20.6596 67.4781 47.1002 -0.0006 -10.3337 0.0002
# 3 5.0264 47.1002 99.7573 0.0002 -16.9367 -0.0006
# 4 0.0007 -0.0006 0.0002 36.8241 -0.0002 0.7856
# 5 -22.5395 -10.3337 -16.9367 -0.0002 31.8481 0.0005
# 6 -0.0002 0.0002 -0.0006 0.7856 0.0005 22.7626
#
#
#
# Elastic Compliance Matrix: (Units=1/GPa)
#
#
# Indices 1 2 3 4 5 6 
#
# 1 0.036420 0.020034 -0.006391 0.000000 0.028876 -0.000001
# 2 0.020034 0.033217 -0.013692 0.000000 0.017675 -0.000001
# 3 -0.006391 -0.013692 0.016806 0.000000 -0.000029 0.000000
# 4 0.000000 0.000000 0.000000 0.027176 0.000000 -0.000938
# 5 0.028876 0.017675 -0.000029 0.000000 0.057555 -0.000001
# 6 -0.000001 -0.000001 0.000000 -0.000938 -0.000001 0.043964
#
#
# Mechanical properties :
#
#
# Convention : Reuss Voigt Hill
#
# Bulk Modulus (GPa) = 11.58154 31.97164 21.77659
# Shear Modulus (GPa) = 20.49016 31.17652 25.83334
#
# Velocity S-wave (km/s) = 3.13395 3.86574 3.51892
# Velocity P-wave (km/s) = 4.31821 5.93720 5.19121
#
# Compressibility (1/GPa) = 0.08634429
#
# Stress axis : x y z
#
# Youngs Moduli (GPa) = 27.45760 30.10470 59.50170
#
# Poissons Ratio (x) = -0.60312 0.38030
# Poissons Ratio (y) = -0.55009 0.81470
# Poissons Ratio (z) = 0.17550 0.41220
#
# Static dielectric constant tensor:
#      x y z
#    x 1.791590 0.000000 0.026870 
#    y 0.000000 1.785580 0.000000 
#    z 0.026870 0.000000 1.818800 
# 
# From -- ./inp_files/156335.got.cif
#   From: 2010.05.17/outbox.cif.g08.bks.cpg/sg15_79_cif.got.tgz:156335.got - 2010.06.03 18:47:42.
