data_PCOD9273745
_publ_section_title
;
Structure prediction by ZEFSAII (Michael W. Deem and Ramdas Pophale) SiO2 
 PCOD9273745
Probable space group: C 2/C
;
_chemical_formula_sum "Si O2"
_cell_formula_units_Z 56
_cell_length_a 25.894992
_cell_length_b 12.258832
_cell_length_c 10.600724
_cell_angle_alpha 90.000000
_cell_angle_beta 52.052727
_cell_angle_gamma 90.000000
_cell_volume 2653.655255
_symmetry_space_group_name_H-M "C 2/C"
_symmetry_group_IT_number 15
_symmetry_cell_setting 'monoclinic'
loop_
_space_group_symop_operation_xyz
x,y,z
-x,y,1/2-z
-x,-y,-z
x,-y,1/2+z
1/2+x,1/2+y,z
1/2-x,1/2+y,1/2-z
1/2-x,1/2-y,-z
1/2+x,1/2-y,1/2+z
loop_
_atom_site_type_symbol
_atom_site_label
_atom_site_fract_x
_atom_site_fract_y
_atom_site_fract_z
Si Si1 0.711076 0.919748 0.469720
Si Si2 0.117694 0.193681 0.257237
Si Si3 0.298515 0.303093 0.635226
Si Si4 0.355783 0.444508 0.354383
Si Si5 0.330862 0.926104 0.693816
Si Si6 0.432652 0.205320 0.906976
Si Si7 0.520823 0.373457 0.469074
O O1 0.689936 0.795513 0.477837
O O2 0.789598 0.923531 0.372891
O O3 0.678789 0.962558 0.647633
O O4 0.689030 0.985020 0.379866
O O5 0.174771 0.222475 0.267629
O O6 0.112851 0.272021 0.144823
O O7 0.048073 0.191323 0.437767
O O8 0.128104 0.071279 0.188890
O O9 0.335781 0.409454 0.525309
O O10 0.222306 0.330138 0.746502
O O11 0.418740 0.373446 0.218817
O O12 0.400296 0.874686 0.555691
O O13 0.500000 0.160304 0.750000
O O14 0.449707 0.321233 0.947405
O O15 0.500000 0.500000 0.500000
#
# Coordination Sequence:
#
# PCOD9273745 Si02
#       7
#     8   8   8   8   8   8   8
#     4  11  24  41  65  95 127 166 218 254 318 376
#     4  10  22  35  60  95 123 163 208 257 315 391
#     4  11  23  39  61  94 127 162 213 257 315 381
#     4  10  20  38  58  90 129 166 197 260 320 375
#     4  11  24  43  67  90 125 171 205 273 314 379
#     4  10  22  41  62  87 124 165 213 260 326 372
#     4   9  19  35  61  89 126 164 200 252 317 380
#
# _framework density 21.102967
#
# number of rings (size 3 to 8) (size 9 to 14) (size 15 to 20)
#    0.000    1.714    1.429    3.429    6.000    3.429 
#    0.000    0.714    3.143    0.000    0.000    0.000 
#    0.000    0.000    0.000    0.000    0.000    0.000 
#
# Total GULP energy -156274.573741 kJ/mol
# GULP energy per Si atom -5581.234776 kJ/mol
# Density = 2.105494 g / cm^3
# Si number density = 21.102967 Si / 1000 Ang^3
#
#
#
# Elastic Constant Matrix: (Units=GPa)
#
#
# Indices 1 2 3 4 5 6 
#
# 1 42.5407 15.5393 1.1653 0.0000 19.6917 0.0000
# 2 15.5393 45.1052 23.8744 0.0000 4.1031 0.0000
# 3 1.1653 23.8744 100.1351 0.0000 -6.9771 0.0000
# 4 0.0000 0.0000 0.0000 22.8874 0.0000 -2.2315
# 5 19.6917 4.1031 -6.9771 0.0000 27.7790 0.0000
# 6 0.0000 0.0000 0.0000 -2.2315 0.0000 -1.8059
#
#
#
# Elastic Compliance Matrix: (Units=1/GPa)
#
#
# Indices 1 2 3 4 5 6 
#
# 1 0.040023 -0.011614 0.000454 0.000000 -0.026541 0.000000
# 2 -0.011614 0.029552 -0.006759 0.000000 0.002170 0.000000
# 3 0.000454 -0.006759 0.011847 0.000000 0.003652 0.000000
# 4 0.000000 0.000000 0.000000 0.038994 0.000000 -0.048183
# 5 -0.026541 0.002170 0.003652 0.000000 0.055410 0.000000
# 6 0.000000 0.000000 0.000000 -0.048183 0.000000 -0.494194
#
#
# Mechanical properties :
#
#
# Convention : Reuss Voigt Hill
#
# Bulk Modulus (GPa) = 21.93816 29.88212 25.91014
# Shear Modulus (GPa) = -18.70318 19.58556 0.44119
#
# Velocity S-wave (km/s) = -2.98028 3.04977 0.45773
# Velocity P-wave (km/s) = 1.19349 5.15678 3.54739
#
# Compressibility (1/GPa) = 0.04558267
#
# Stress axis : x y z
#
# Youngs Moduli (GPa) = 24.98582 33.83861 84.40737
#
# Poissons Ratio (x) = 0.39301 -0.03832
# Poissons Ratio (y) = 0.29019 0.57055
# Poissons Ratio (z) = -0.01134 0.22873
#
# Static dielectric constant tensor:
#      x y z
#    x 1.758490 0.000000 -0.013100 
#    y 0.000000 1.750230 0.000000 
#    z -0.013100 0.000000 1.807620 
# 
# From -- ./inp_files/122612.got.cif
#   From: 2010.05.17/outbox.cif.g08.bks.cpg/sg15_62_cif.got.tgz:122612.got - 2010.06.03 18:47:42.
