data_PCOD9273564
_publ_section_title
;
Structure prediction by ZEFSAII (Michael W. Deem and Ramdas Pophale) SiO2 
 PCOD9273564
Probable space group: C 2/C
;
_chemical_formula_sum "Si O2"
_cell_formula_units_Z 52
_cell_length_a 22.649953
_cell_length_b 7.677651
_cell_length_c 21.908745
_cell_angle_alpha 90.000000
_cell_angle_beta 147.522653
_cell_angle_gamma 90.000000
_cell_volume 2045.785298
_symmetry_space_group_name_H-M "C 2/C"
_symmetry_group_IT_number 15
_symmetry_cell_setting 'monoclinic'
loop_
_space_group_symop_operation_xyz
x,y,z
-x,y,1/2-z
-x,-y,-z
x,-y,1/2+z
1/2+x,1/2+y,z
1/2-x,1/2+y,1/2-z
1/2-x,1/2-y,-z
1/2+x,1/2-y,1/2+z
loop_
_atom_site_type_symbol
_atom_site_label
_atom_site_fract_x
_atom_site_fract_y
_atom_site_fract_z
Si Si1 0.648723 0.147204 0.676018
Si Si2 0.438486 0.300571 0.134043
Si Si3 0.332849 0.684597 0.908451
Si Si4 0.000000 0.344948 0.250000
Si Si5 0.538116 0.392836 0.661084
Si Si6 0.568413 0.937759 0.984018
Si Si7 0.739543 0.068948 0.953670
O O1 0.777847 0.114380 0.798532
O O2 0.639614 0.301471 0.717884
O O3 0.609027 0.187733 0.573572
O O4 0.558918 0.000604 0.618804
O O5 0.500000 0.269428 0.250000
O O6 0.531107 0.414197 0.178765
O O7 0.411390 0.146719 0.063479
O O8 0.329144 0.422038 0.049445
O O9 0.264162 0.608731 0.905083
O O10 0.359209 0.889748 0.940315
O O11 0.452066 0.612399 0.030445
O O12 0.995574 0.224923 0.308146
O O13 0.110000 0.458779 0.345236
O O14 0.750000 0.250000 0.000000
#
# Coordination Sequence:
#
# PCOD9273564 Si02
#       7
#     8   8   8   4   8   8   8
#     4  10  22  46  74  98 141 192 239 295 364 456
#     4  11  23  44  68 109 155 183 242 314 369 426
#     4  10  21  40  71 101 132 185 245 281 360 443
#     4  12  18  38  70 102 142 192 248 284 336 466
#     4  10  20  37  72 100 136 195 237 275 356 451
#     4  10  25  47  71 110 143 181 245 311 370 425
#     4  11  21  38  74 101 142 199 246 280 365 461
#
# _framework density 25.418111
#
# number of rings (size 3 to 8) (size 9 to 14) (size 15 to 20)
#    0.000    1.538    5.385    0.000    0.000    3.077 
#    8.308    6.923    0.000    0.923    4.000    0.000 
#    0.000    0.000    0.000    0.000    0.000    0.000 
#
# Total GULP energy -145160.470541 kJ/mol
# GULP energy per Si atom -5583.095021 kJ/mol
# Density = 2.536026 g / cm^3
# Si number density = 25.418111 Si / 1000 Ang^3
#
#
#
# Elastic Constant Matrix: (Units=GPa)
#
#
# Indices 1 2 3 4 5 6 
#
# 1 53.9729 21.8193 38.0194 0.0000 -4.9043 0.0000
# 2 21.8193 80.3178 60.9833 0.0000 -6.5509 0.0000
# 3 38.0194 60.9833 208.7929 0.0000 -11.0418 0.0000
# 4 0.0000 0.0000 0.0000 27.6115 0.0000 2.9663
# 5 -4.9043 -6.5509 -11.0418 0.0000 30.8464 0.0000
# 6 0.0000 0.0000 0.0000 2.9663 0.0000 36.2348
#
#
#
# Elastic Compliance Matrix: (Units=1/GPa)
#
#
# Indices 1 2 3 4 5 6 
#
# 1 0.022206 -0.003715 -0.002868 0.000000 0.001715 0.000000
# 2 -0.003715 0.016714 -0.004127 0.000000 0.001482 0.000000
# 3 -0.002868 -0.004127 0.006571 0.000000 0.001020 0.000000
# 4 0.000000 0.000000 0.000000 0.036538 0.000000 -0.002991
# 5 0.001715 0.001482 0.001020 0.000000 0.033371 0.000000
# 6 0.000000 0.000000 0.000000 -0.002991 0.000000 0.027843
#
#
# Mechanical properties :
#
#
# Convention : Reuss Voigt Hill
#
# Bulk Modulus (GPa) = 41.54362 64.96973 53.25668
# Shear Modulus (GPa) = 28.95434 33.75598 31.35516
#
# Velocity S-wave (km/s) = 3.37875 3.64817 3.51604
# Velocity P-wave (km/s) = 5.62146 6.58494 6.12218
#
# Compressibility (1/GPa) = 0.02407108
#
# Stress axis : x y z
#
# Youngs Moduli (GPa) = 45.03373 59.82954 152.18599
#
# Poissons Ratio (x) = 0.22228 0.43641
# Poissons Ratio (y) = 0.16731 0.62806
# Poissons Ratio (z) = 0.12914 0.24691
#
# Static dielectric constant tensor:
#      x y z
#    x 2.355820 0.000000 0.470760 
#    y 0.000000 2.306870 0.000000 
#    z 0.470760 0.000000 2.612510 
# 
# From -- ./inp_files/283312.got.cif
#   From: 2010.05.17/outbox.cif.g08.bks.cpg/sg15_142_cif.got.tgz:283312.got - 2010.06.03 18:47:42.
