data_PCOD9273807
_publ_section_title
;
Structure prediction by ZEFSAII (Michael W. Deem and Ramdas Pophale) SiO2 
 PCOD9273807
Probable space group: C 2/C
;
_chemical_formula_sum "Si O2"
_cell_formula_units_Z 64
_cell_length_a 17.212188
_cell_length_b 9.134365
_cell_length_c 21.131702
_cell_angle_alpha 90.000000
_cell_angle_beta 85.864137
_cell_angle_gamma 90.000000
_cell_volume 3313.725049
_symmetry_space_group_name_H-M "C 2/C"
_symmetry_group_IT_number 15
_symmetry_cell_setting 'monoclinic'
loop_
_space_group_symop_operation_xyz
x,y,z
-x,y,1/2-z
-x,-y,-z
x,-y,1/2+z
1/2+x,1/2+y,z
1/2-x,1/2+y,1/2-z
1/2-x,1/2-y,-z
1/2+x,1/2-y,1/2+z
loop_
_atom_site_type_symbol
_atom_site_label
_atom_site_fract_x
_atom_site_fract_y
_atom_site_fract_z
Si Si1 0.657336 0.856426 0.181035
Si Si2 0.425118 0.151556 0.296565
Si Si3 0.750387 0.319089 0.569563
Si Si4 0.802591 0.894006 0.488449
Si Si5 0.821675 0.886573 0.233679
Si Si6 0.428621 0.585202 0.298555
Si Si7 0.868970 0.898487 0.091637
Si Si8 0.958020 0.881987 0.405323
O O1 0.690256 0.768878 0.117916
O O2 0.730566 0.868586 0.224668
O O3 0.588233 0.754508 0.209951
O O4 0.621539 0.015281 0.171685
O O5 0.500000 0.109850 0.250000
O O6 0.364124 0.240598 0.255994
O O7 0.454482 0.260563 0.349960
O O8 0.750000 0.250000 0.500000
O O9 0.734531 0.489699 0.559382
O O10 0.833073 0.265043 0.590930
O O11 0.750000 0.750000 0.500000
O O12 0.886760 0.853243 0.455763
O O13 0.820576 0.987754 0.551225
O O14 0.859541 0.939756 0.165430
O O15 0.848212 0.005859 0.283193
O O16 0.500000 0.534731 0.250000
O O17 0.446685 0.534771 0.368423
O O18 0.958381 0.889804 0.067093
#
# Coordination Sequence:
#
# PCOD9273807 Si02
#       8
#     8   8   8   8   8   8   8   8
#     4  11  22  36  61  89 119 160 199 254 302 354
#     4  11  22  39  59  90 124 159 204 252 304 376
#     4   9  21  40  61  84 120 155 200 246 307 348
#     4  11  24  41  65  93 115 154 218 259 296 364
#     4  10  20  38  59  87 121 161 199 241 317 361
#     4  11  20  38  59  88 123 157 198 247 302 371
#     4  10  20  41  65  82 124 164 196 251 311 365
#     4  11  21  40  62  86 123 163 199 245 317 363
#
# _framework density 19.313613
#
# number of rings (size 3 to 8) (size 9 to 14) (size 15 to 20)
#    0.000    1.500    3.750    2.250    5.250    0.000 
#    0.000    1.875    0.000    0.000    0.000    0.000 
#    0.000    0.000    0.000    0.000    0.000    0.000 
#
# Total GULP energy -178410.986771 kJ/mol
# GULP energy per Si atom -5575.343337 kJ/mol
# Density = 1.926965 g / cm^3
# Si number density = 19.313613 Si / 1000 Ang^3
#
#
#
# Elastic Constant Matrix: (Units=GPa)
#
#
# Indices 1 2 3 4 5 6 
#
# 1 94.0107 50.1922 6.8661 0.0000 -1.5162 0.0000
# 2 50.1922 110.0986 21.0640 0.0000 3.1060 0.0000
# 3 6.8661 21.0640 49.6291 0.0000 -2.1228 0.0000
# 4 0.0000 0.0000 0.0000 16.2250 0.0000 -8.3896
# 5 -1.5162 3.1060 -2.1228 0.0000 28.6333 0.0000
# 6 0.0000 0.0000 0.0000 -8.3896 0.0000 23.2481
#
#
#
# Elastic Compliance Matrix: (Units=1/GPa)
#
#
# Indices 1 2 3 4 5 6 
#
# 1 0.014159 -0.006679 0.000942 0.000000 0.001544 0.000000
# 2 -0.006679 0.013091 -0.004723 0.000000 -0.002124 0.000000
# 3 0.000942 -0.004723 0.022118 0.000000 0.002202 0.000000
# 4 0.000000 0.000000 0.000000 0.075772 0.000000 0.027344
# 5 0.001544 -0.002124 0.002202 0.000000 0.035400 0.000000
# 6 0.000000 0.000000 0.000000 0.027344 0.000000 0.052882
#
#
# Mechanical properties :
#
#
# Convention : Reuss Voigt Hill
#
# Bulk Modulus (GPa) = 35.15176 45.55366 40.35271
# Shear Modulus (GPa) = 20.50657 25.32902 22.91780
#
# Velocity S-wave (km/s) = 3.26201 3.62534 3.44846
# Velocity P-wave (km/s) = 5.69453 6.41573 6.06586
#
# Compressibility (1/GPa) = 0.02844808
#
# Stress axis : x y z
#
# Youngs Moduli (GPa) = 70.62713 76.38887 45.21219
#
# Poissons Ratio (x) = 0.51016 -0.04258
# Poissons Ratio (y) = 0.47168 0.21354
# Poissons Ratio (z) = -0.06651 0.36079
#
# Static dielectric constant tensor:
#      x y z
#    x 1.731910 0.000000 0.039760 
#    y 0.000000 1.743830 0.000000 
#    z 0.039760 0.000000 1.750780 
# 
# From -- ./inp_files/276304.got.cif
#   From: 2010.05.17/outbox.cif.g08.bks.cpg/sg15_139_cif.got.tgz:276304.got - 2010.06.03 18:47:42.
