data_PCOD9273460
_publ_section_title
;
Structure prediction by ZEFSAII (Michael W. Deem and Ramdas Pophale) SiO2 
 PCOD9273460
Probable space group: C 2/C
;
_chemical_formula_sum "Si O2"
_cell_formula_units_Z 48
_cell_length_a 25.549504
_cell_length_b 6.480057
_cell_length_c 17.737039
_cell_angle_alpha 90.000000
_cell_angle_beta 120.448135
_cell_angle_gamma 90.000000
_cell_volume 2531.594483
_symmetry_space_group_name_H-M "C 2/C"
_symmetry_group_IT_number 15
_symmetry_cell_setting 'monoclinic'
loop_
_space_group_symop_operation_xyz
x,y,z
-x,y,1/2-z
-x,-y,-z
x,-y,1/2+z
1/2+x,1/2+y,z
1/2-x,1/2+y,1/2-z
1/2-x,1/2-y,-z
1/2+x,1/2-y,1/2+z
loop_
_atom_site_type_symbol
_atom_site_label
_atom_site_fract_x
_atom_site_fract_y
_atom_site_fract_z
Si Si1 0.838632 0.814282 0.097619
Si Si2 0.772856 0.562499 0.463689
Si Si3 0.875342 0.851132 0.496623
Si Si4 0.499599 0.092523 0.584921
Si Si5 0.563001 0.534166 0.092710
Si Si6 0.045389 0.244019 0.723266
O O1 0.892730 0.724224 0.186747
O O2 0.787500 0.941602 0.107364
O O3 0.863175 0.983560 0.054584
O O4 0.808106 0.619063 0.033917
O O5 0.750000 0.750000 0.500000
O O6 0.821682 0.683477 0.448721
O O7 0.937741 0.721259 0.553495
O O8 0.884840 0.983383 0.427910
O O9 0.557979 0.240028 0.623162
O O10 0.500000 0.000000 0.500000
O O11 0.509451 0.935269 0.660276
O O12 0.561862 0.385715 0.162263
O O13 0.500000 0.500000 0.000000
O O14 0.000000 0.138852 0.750000
#
# Coordination Sequence:
#
# PCOD9273460 Si02
#       6
#     8   8   8   8   8   8
#     4  10  22  38  64  95 124 153 208 263 299 363
#     4   9  20  40  65  90 117 163 211 248 313 362
#     4  10  20  37  66  85 121 171 204 243 309 375
#     4  11  22  36  58  91 126 164 204 241 310 374
#     4  10  21  37  57  86 124 163 199 239 304 371
#     4  12  23  36  61  95 127 155 199 257 307 362
#
# _framework density 18.960381000000002
#
# number of rings (size 3 to 8) (size 9 to 14) (size 15 to 20)
#    0.000    1.667    3.333    3.000    2.333    4.667 
#    0.000    0.000   11.000    0.000    0.000    0.000 
#    0.000    0.000    0.000    0.000    0.000    0.000 
#
# Total GULP energy -133629.081164 kJ/mol
# GULP energy per Si atom -5567.878382 kJ/mol
# Density = 1.891723 g / cm^3
# Si number density = 18.960381 Si / 1000 Ang^3
#
#
#
# Elastic Constant Matrix: (Units=GPa)
#
#
# Indices 1 2 3 4 5 6 
#
# 1 105.6985 32.0019 30.5001 0.0000 -3.6662 0.0000
# 2 32.0019 71.9926 2.4204 0.0001 -2.2759 -0.0001
# 3 30.5001 2.4204 56.9375 0.0000 -2.2318 0.0000
# 4 0.0000 0.0001 0.0000 7.8034 0.0000 11.0490
# 5 -3.6662 -2.2759 -2.2318 0.0000 24.1586 0.0000
# 6 0.0000 -0.0001 0.0000 11.0490 0.0000 45.7947
#
#
#
# Elastic Compliance Matrix: (Units=1/GPa)
#
#
# Indices 1 2 3 4 5 6 
#
# 1 0.013133 -0.005584 -0.006764 0.000000 0.000842 0.000000
# 2 -0.005584 0.016323 0.002333 0.000000 0.000906 0.000000
# 3 -0.006764 0.002333 0.021132 0.000000 0.001145 0.000000
# 4 0.000000 0.000000 0.000000 0.194645 0.000000 -0.046962
# 5 0.000842 0.000906 0.001145 0.000000 0.041712 0.000000
# 6 0.000000 0.000000 0.000000 -0.046962 0.000000 0.033167
#
#
# Mechanical properties :
#
#
# Convention : Reuss Voigt Hill
#
# Bulk Modulus (GPa) = 32.72603 40.49702 36.61153
# Shear Modulus (GPa) = 14.27235 26.86508 20.56872
#
# Velocity S-wave (km/s) = 2.74660 3.76827 3.29724
# Velocity P-wave (km/s) = 5.23031 6.35124 5.81783
#
# Compressibility (1/GPa) = 0.03055672
#
# Stress axis : x y z
#
# Youngs Moduli (GPa) = 76.14694 61.26509 47.32072
#
# Poissons Ratio (x) = 0.34208 0.32010
# Poissons Ratio (y) = 0.42517 -0.11038
# Poissons Ratio (z) = 0.51509 -0.14291
#
# Static dielectric constant tensor:
#      x y z
#    x 1.711740 0.000000 0.000440 
#    y 0.000000 1.579420 0.000000 
#    z 0.000440 0.000000 1.545330 
# 
# From -- ./inp_files/217817.got.cif
#   From: 2010.05.17/outbox.cif.g08.bks.cpg/sg15_109_cif.got.tgz:217817.got - 2010.06.03 18:47:42.
