data_PCOD9273543
_publ_section_title
;
Structure prediction by ZEFSAII (Michael W. Deem and Ramdas Pophale) SiO2 
 PCOD9273543
Probable space group: C 2/C
;
_chemical_formula_sum "Si O2"
_cell_formula_units_Z 56
_cell_length_a 14.166350
_cell_length_b 30.613088
_cell_length_c 5.510912
_cell_angle_alpha 90.000000
_cell_angle_beta 78.653277
_cell_angle_gamma 90.000000
_cell_volume 2343.236088
_symmetry_space_group_name_H-M "C 2/C"
_symmetry_group_IT_number 15
_symmetry_cell_setting 'monoclinic'
loop_
_space_group_symop_operation_xyz
x,y,z
-x,y,1/2-z
-x,-y,-z
x,-y,1/2+z
1/2+x,1/2+y,z
1/2-x,1/2+y,1/2-z
1/2-x,1/2-y,-z
1/2+x,1/2-y,1/2+z
loop_
_atom_site_type_symbol
_atom_site_label
_atom_site_fract_x
_atom_site_fract_y
_atom_site_fract_z
Si Si1 0.707193 0.678403 0.055320
Si Si2 0.868229 0.979437 0.958695
Si Si3 0.604219 0.391997 0.311350
Si Si4 0.718232 0.892284 0.604563
Si Si5 0.945290 0.659934 0.525102
Si Si6 0.332096 0.759173 0.157882
Si Si7 0.850830 0.487201 0.864061
O O1 0.759466 0.642348 0.195851
O O2 0.644470 0.711920 0.247047
O O3 0.640926 0.653637 0.897879
O O4 0.785526 0.709449 0.887395
O O5 0.888874 0.928567 0.984253
O O6 0.904777 0.003198 0.183725
O O7 0.753261 0.989552 0.033604
O O8 0.500000 0.389894 0.250000
O O9 0.681522 0.405915 0.069062
O O10 0.653405 0.867394 0.438979
O O11 0.664847 0.936705 0.698644
O O12 0.918292 0.711220 0.517632
O O13 0.000000 0.652323 0.750000
O O14 0.000000 0.647275 0.250000
O O15 0.250000 0.750000 0.000000
O O16 0.896599 0.510634 0.608843
#
# Coordination Sequence:
#
# PCOD9273543 Si02
#       7
#     8   8   8   8   8   8   8
#     4  11  23  44  72  99 143 198 236 297 371 431
#     4  10  20  40  63  99 138 192 241 294 349 436
#     4  12  26  42  66 105 150 196 245 300 370 445
#     4  12  24  46  74 100 151 190 246 308 365 435
#     4  12  28  49  77 114 142 192 252 305 368 437
#     4  11  23  47  74 102 140 189 238 305 371 439
#     4  10  20  37  68 104 133 194 237 291 363 435
#
# _framework density 23.898572000000001
#
# number of rings (size 3 to 8) (size 9 to 14) (size 15 to 20)
#    0.000    0.857    5.714    2.571    2.000    1.143 
#    5.143    0.000    0.000    2.571    0.000    0.000 
#    0.000    0.000    0.000    0.000    0.000    0.000 
#
# Total GULP energy -156750.566133 kJ/mol
# GULP energy per Si atom -5598.234505 kJ/mol
# Density = 2.384418 g / cm^3
# Si number density = 23.898572 Si / 1000 Ang^3
#
#
#
# Elastic Constant Matrix: (Units=GPa)
#
#
# Indices 1 2 3 4 5 6 
#
# 1 77.9982 -0.7905 30.4705 0.0000 0.4447 0.0000
# 2 -0.7905 122.2976 27.2132 0.0000 3.0396 0.0000
# 3 30.4705 27.2132 145.2838 0.0000 14.0565 0.0000
# 4 0.0000 0.0000 0.0000 55.7044 0.0000 13.0886
# 5 0.4447 3.0396 14.0565 0.0000 26.4842 0.0000
# 6 0.0000 0.0000 0.0000 13.0886 0.0000 7.8433
#
#
#
# Elastic Compliance Matrix: (Units=1/GPa)
#
#
# Indices 1 2 3 4 5 6 
#
# 1 0.014084 0.000776 -0.003234 0.000000 0.001391 0.000000
# 2 0.000776 0.008576 -0.001763 0.000000 -0.000061 0.000000
# 3 -0.003234 -0.001763 0.008293 0.000000 -0.004145 0.000000
# 4 0.000000 0.000000 0.000000 0.029531 0.000000 -0.049280
# 5 0.001391 -0.000061 -0.004145 0.000000 0.039942 0.000000
# 6 0.000000 0.000000 0.000000 -0.049280 0.000000 0.209734
#
#
# Mechanical properties :
#
#
# Convention : Reuss Voigt Hill
#
# Bulk Modulus (GPa) = 44.42367 51.04066 47.73216
# Shear Modulus (GPa) = 15.33254 37.25215 26.29235
#
# Velocity S-wave (km/s) = 2.53567 3.95240 3.32047
# Velocity P-wave (km/s) = 5.21551 6.49863 5.89210
#
# Compressibility (1/GPa) = 0.02251052
#
# Stress axis : x y z
#
# Youngs Moduli (GPa) = 71.00236 116.60938 120.59017
#
# Poissons Ratio (x) = -0.09049 0.38996
# Poissons Ratio (y) = -0.05510 0.21261
# Poissons Ratio (z) = 0.22961 0.20560
#
# Static dielectric constant tensor:
#      x y z
#    x 1.948170 0.000000 -0.013960 
#    y 0.000000 1.897970 0.000000 
#    z -0.013960 0.000000 1.986960 
# 
# From -- ./inp_files/9067.got.cif
#   From: 2010.05.17/outbox.cif.g08.bks.cpg/sg15_5_cif.got.tgz:9067.got - 2010.06.03 18:47:42.
