data_PCOD9273890
_publ_section_title
;
Structure prediction by ZEFSAII (Michael W. Deem and Ramdas Pophale) SiO2 
 PCOD9273890
Probable space group: C 2/C
;
_chemical_formula_sum "Si O2"
_cell_formula_units_Z 48
_cell_length_a 20.305614
_cell_length_b 10.783852
_cell_length_c 15.180194
_cell_angle_alpha 90.000000
_cell_angle_beta 47.867062
_cell_angle_gamma 90.000000
_cell_volume 2465.082229
_symmetry_space_group_name_H-M "C 2/C"
_symmetry_group_IT_number 15
_symmetry_cell_setting 'monoclinic'
loop_
_space_group_symop_operation_xyz
x,y,z
-x,y,1/2-z
-x,-y,-z
x,-y,1/2+z
1/2+x,1/2+y,z
1/2-x,1/2+y,1/2-z
1/2-x,1/2-y,-z
1/2+x,1/2-y,1/2+z
loop_
_atom_site_type_symbol
_atom_site_label
_atom_site_fract_x
_atom_site_fract_y
_atom_site_fract_z
Si Si1 0.261578 0.741149 0.339427
Si Si2 0.905460 0.325999 0.070947
Si Si3 0.092364 0.439509 0.700221
Si Si4 0.102154 0.397615 0.897702
Si Si5 0.151837 0.205303 0.559035
Si Si6 0.278714 0.441538 0.984126
O O1 0.343742 0.790123 0.208457
O O2 0.187960 0.682262 0.342007
O O3 0.290138 0.638169 0.385537
O O4 0.216144 0.850343 0.436910
O O5 0.892183 0.471007 0.056720
O O6 0.875008 0.242027 0.016170
O O7 0.010579 0.324318 0.997647
O O8 0.099552 0.439087 0.798475
O O9 0.093577 0.294986 0.671620
O O10 0.177627 0.506460 0.581850
O O11 0.000000 0.495946 0.750000
O O12 0.250000 0.250000 0.500000
O O13 0.155315 0.058205 0.569546
#
# Coordination Sequence:
#
# PCOD9273890 Si02
#       6
#     8   8   8   8   8   8
#     4  11  23  40  63  93 128 166 208 266 317 383
#     4  11  23  40  64  97 124 158 223 261 316 371
#     4  11  20  39  64  91 120 157 217 267 305 380
#     4  11  23  40  66  97 121 166 211 268 315 375
#     4  10  20  38  60  85 121 166 205 256 310 374
#     4  10  23  40  60  89 125 169 210 250 328 381
#
# _framework density 19.471966999999999
#
# number of rings (size 3 to 8) (size 9 to 14) (size 15 to 20)
#    0.000    1.333    3.333    4.000    2.333    0.000 
#    0.000    5.000    0.000    0.000    0.000    0.000 
#    0.000    0.000    0.000    0.000    0.000    0.000 
#
# Total GULP energy -133945.537513 kJ/mol
# GULP energy per Si atom -5581.064063 kJ/mol
# Density = 1.942765 g / cm^3
# Si number density = 19.471967 Si / 1000 Ang^3
#
#
#
# Elastic Constant Matrix: (Units=GPa)
#
#
# Indices 1 2 3 4 5 6 
#
# 1 80.3060 31.4295 38.6318 0.0000 2.4809 0.0000
# 2 31.4295 101.3513 21.4706 0.0000 4.0401 0.0000
# 3 38.6318 21.4706 55.9277 0.0000 -9.1872 0.0000
# 4 0.0000 0.0000 0.0000 29.3514 0.0000 -6.3017
# 5 2.4809 4.0401 -9.1872 0.0000 33.3898 0.0000
# 6 0.0000 0.0000 0.0000 -6.3017 0.0000 22.5762
#
#
#
# Elastic Compliance Matrix: (Units=1/GPa)
#
#
# Indices 1 2 3 4 5 6 
#
# 1 0.020461 -0.003250 -0.013690 0.000000 -0.004894 0.000000
# 2 -0.003250 0.011468 -0.002457 0.000000 -0.001822 0.000000
# 3 -0.013690 -0.002457 0.029844 0.000000 0.009526 0.000000
# 4 0.000000 0.000000 0.000000 0.036242 0.000000 0.010116
# 5 -0.004894 -0.001822 0.009526 0.000000 0.033154 0.000000
# 6 0.000000 0.000000 0.000000 0.010116 0.000000 0.047118
#
#
# Mechanical properties :
#
#
# Convention : Reuss Voigt Hill
#
# Bulk Modulus (GPa) = 43.51580 46.73873 45.12727
# Shear Modulus (GPa) = 22.24794 26.80036 24.52415
#
# Velocity S-wave (km/s) = 3.38385 3.71395 3.55274
# Velocity P-wave (km/s) = 6.13707 6.51509 6.32891
#
# Compressibility (1/GPa) = 0.02298016
#
# Stress axis : x y z
#
# Youngs Moduli (GPa) = 48.87362 87.20237 33.50732
#
# Poissons Ratio (x) = 0.28340 0.45870
# Poissons Ratio (y) = 0.15884 0.08232
# Poissons Ratio (z) = 0.66906 0.21424
#
# Static dielectric constant tensor:
#      x y z
#    x 1.934170 0.000000 0.006510 
#    y 0.000000 1.718760 0.000000 
#    z 0.006510 0.000000 1.692310 
# 
# From -- ./inp_files/167151.got.cif
#   From: 2010.05.17/outbox.cif.g08.bks.cpg/sg15_84_cif.got.tgz:167151.got - 2010.06.03 18:47:42.
