data_PCOD9273633
_publ_section_title
;
Structure prediction by ZEFSAII (Michael W. Deem and Ramdas Pophale) SiO2 
 PCOD9273633
Probable space group: C 2/C
;
_chemical_formula_sum "Si O2"
_cell_formula_units_Z 44
_cell_length_a 19.931174
_cell_length_b 11.930471
_cell_length_c 9.168191
_cell_angle_alpha 90.000000
_cell_angle_beta 124.082595
_cell_angle_gamma 90.000000
_cell_volume 1805.616009
_symmetry_space_group_name_H-M "C 2/C"
_symmetry_group_IT_number 15
_symmetry_cell_setting 'monoclinic'
loop_
_space_group_symop_operation_xyz
x,y,z
-x,y,1/2-z
-x,-y,-z
x,-y,1/2+z
1/2+x,1/2+y,z
1/2-x,1/2+y,1/2-z
1/2-x,1/2-y,-z
1/2+x,1/2-y,1/2+z
loop_
_atom_site_type_symbol
_atom_site_label
_atom_site_fract_x
_atom_site_fract_y
_atom_site_fract_z
Si Si1 0.557811 0.649249 0.077312
Si Si2 0.000000 0.988267 0.750000
Si Si3 0.902433 0.305674 0.598831
Si Si4 0.188008 0.484824 0.617128
Si Si5 0.730114 0.623646 0.533271
Si Si6 0.381672 0.254301 0.383776
O O1 0.540728 0.564136 0.923559
O O2 0.616311 0.738453 0.073571
O O3 0.476215 0.718703 0.012062
O O4 0.565566 0.581941 0.236391
O O5 0.868299 0.428989 0.539503
O O6 0.863160 0.242813 0.688625
O O7 0.000000 0.307162 0.750000
O O8 0.210696 0.548670 0.792945
O O9 0.265004 0.447690 0.612109
O O10 0.140202 0.370177 0.591344
O O11 0.750000 0.750000 0.500000
O O12 0.664316 0.654814 0.577002
#
# Coordination Sequence:
#
# PCOD9273633 Si02
#       6
#     8   4   8   8   8   8
#     4  10  21  38  63  92 127 163 215 265 322 393
#     4  10  20  38  56  88 130 164 208 258 324 382
#     4  10  21  41  67 100 128 170 212 277 328 390
#     4  11  22  44  67  93 135 171 218 276 333 382
#     4  10  24  42  64  94 129 174 221 265 321 397
#     4  10  21  42  61  93 131 163 221 266 316 397
#
# _framework density 24.368414000000001
#
# number of rings (size 3 to 8) (size 9 to 14) (size 15 to 20)
#    0.000    1.818    4.545    0.000    0.000    8.000 
#    1.636    0.000    0.000    0.000    0.000    0.000 
#    0.000    0.000    0.000    0.000    0.000    0.000 
#
# Total GULP energy -122759.671080 kJ/mol
# GULP energy per Si atom -5579.985049 kJ/mol
# Density = 2.431295 g / cm^3
# Si number density = 24.368414 Si / 1000 Ang^3
#
#
#
# Elastic Constant Matrix: (Units=GPa)
#
#
# Indices 1 2 3 4 5 6 
#
# 1 106.4161 58.1659 50.2827 0.0000 -47.2339 0.0000
# 2 58.1659 145.8885 67.8754 0.0000 -19.1054 0.0000
# 3 50.2827 67.8754 110.0158 0.0000 -37.5631 0.0000
# 4 0.0000 0.0000 0.0000 37.1081 0.0000 -18.3526
# 5 -47.2339 -19.1054 -37.5631 0.0000 33.8927 0.0000
# 6 0.0000 0.0000 0.0000 -18.3526 0.0000 29.7069
#
#
#
# Elastic Compliance Matrix: (Units=1/GPa)
#
#
# Indices 1 2 3 4 5 6 
#
# 1 0.033324 -0.010637 0.008271 0.000000 0.049612 0.000000
# 2 -0.010637 0.013083 -0.009256 0.000000 -0.017708 0.000000
# 3 0.008271 -0.009256 0.021194 0.000000 0.029799 0.000000
# 4 0.000000 0.000000 0.000000 0.038805 0.000000 0.023973
# 5 0.049612 -0.017708 0.029799 0.000000 0.121690 0.000000
# 6 0.000000 0.000000 0.000000 0.023973 0.000000 0.048473
#
#
# Mechanical properties :
#
#
# Convention : Reuss Voigt Hill
#
# Bulk Modulus (GPa) = 22.54436 79.44096 50.99266
# Shear Modulus (GPa) = 15.89328 32.54130 24.21729
#
# Velocity S-wave (km/s) = 2.55661 3.65826 3.15588
# Velocity P-wave (km/s) = 4.24105 7.10736 5.85240
#
# Compressibility (1/GPa) = 0.04435699
#
# Stress axis : x y z
#
# Youngs Moduli (GPa) = 30.00846 76.43440 47.18281
#
# Poissons Ratio (x) = 0.81307 -0.39027
# Poissons Ratio (y) = 0.31921 0.43673
# Poissons Ratio (z) = -0.24821 0.70748
#
# Static dielectric constant tensor:
#      x y z
#    x 2.128500 0.000000 0.137150 
#    y 0.000000 1.897920 0.000000 
#    z 0.137150 0.000000 2.079840 
# 
# From -- ./inp_files/54444.got.cif
#   From: 2010.05.17/outbox.cif.g08.bks.cpg/sg15_28_cif.got.tgz:54444.got - 2010.06.03 18:47:42.
