data_PCOD9273549
_publ_section_title
;
Structure prediction by ZEFSAII (Michael W. Deem and Ramdas Pophale) SiO2 
 PCOD9273549
Probable space group: C 2/C
;
_chemical_formula_sum "Si O2"
_cell_formula_units_Z 52
_cell_length_a 9.509725
_cell_length_b 31.255622
_cell_length_c 8.420470
_cell_angle_alpha 90.000000
_cell_angle_beta 115.431739
_cell_angle_gamma 90.000000
_cell_volume 2260.305278
_symmetry_space_group_name_H-M "C 2/C"
_symmetry_group_IT_number 15
_symmetry_cell_setting 'monoclinic'
loop_
_space_group_symop_operation_xyz
x,y,z
-x,y,1/2-z
-x,-y,-z
x,-y,1/2+z
1/2+x,1/2+y,z
1/2-x,1/2+y,1/2-z
1/2-x,1/2-y,-z
1/2+x,1/2-y,1/2+z
loop_
_atom_site_type_symbol
_atom_site_label
_atom_site_fract_x
_atom_site_fract_y
_atom_site_fract_z
Si Si1 0.215402 0.625743 0.319789
Si Si2 0.686511 0.295156 0.399424
Si Si3 0.837214 0.950388 0.405312
Si Si4 0.761970 0.203589 0.933755
Si Si5 0.881976 0.619198 0.554198
Si Si6 0.691172 0.541083 0.985910
Si Si7 0.500000 0.344506 0.750000
O O1 0.248616 0.666311 0.454801
O O2 0.215071 0.581284 0.408922
O O3 0.366682 0.630245 0.277367
O O4 0.084647 0.618500 0.118426
O O5 0.500000 0.295852 0.250000
O O6 0.750000 0.250000 0.500000
O O7 0.761853 0.298492 0.263661
O O8 0.767082 0.908914 0.457339
O O9 0.810533 0.953236 0.203959
O O10 0.024769 0.952874 0.496156
O O11 0.764753 0.992542 0.451666
O O12 0.642413 0.169781 0.943306
O O13 0.750000 0.250000 0.000000
O O14 0.925379 0.185187 0.077253
O O15 0.000000 0.605679 0.750000
#
# Coordination Sequence:
#
# PCOD9273549 Si02
#       7
#     8   8   8   8   8   8   4
#     4  11  22  40  64  94 126 175 222 276 341 397
#     4  12  26  43  67 100 138 176 230 289 345 411
#     4  10  21  38  64 101 131 171 216 282 341 395
#     4  11  24  40  66  92 126 174 226 274 335 402
#     4  11  25  44  64  93 136 181 223 278 344 422
#     4  10  20  37  68  97 131 163 225 284 332 400
#     4  10  20  38  60  90 124 168 222 276 326 392
#
# _framework density 23.005742000000001
#
# number of rings (size 3 to 8) (size 9 to 14) (size 15 to 20)
#    0.000    1.231    1.538    5.538    3.231    3.692 
#    0.000    5.385    0.000    0.000    0.000    0.000 
#    0.000    0.000    0.000    0.000    0.000    0.000 
#
# Total GULP energy -144821.938914 kJ/mol
# GULP energy per Si atom -5570.074574 kJ/mol
# Density = 2.295338 g / cm^3
# Si number density = 23.005742 Si / 1000 Ang^3
#
#
#
# Elastic Constant Matrix: (Units=GPa)
#
#
# Indices 1 2 3 4 5 6 
#
# 1 44.6761 39.2730 22.6697 0.0000 3.7376 0.0000
# 2 39.2730 138.1658 58.8144 0.0000 -12.0221 0.0000
# 3 22.6697 58.8144 138.2808 0.0000 -2.5923 0.0000
# 4 0.0000 0.0000 0.0000 48.2881 0.0000 -7.7086
# 5 3.7376 -12.0221 -2.5923 0.0000 29.4039 0.0000
# 6 0.0000 0.0000 0.0000 -7.7086 0.0000 23.5318
#
#
#
# Elastic Compliance Matrix: (Units=1/GPa)
#
#
# Indices 1 2 3 4 5 6 
#
# 1 0.031789 -0.009086 -0.001495 0.000000 -0.007887 0.000000
# 2 -0.009086 0.011764 -0.003408 0.000000 0.005664 0.000000
# 3 -0.001495 -0.003408 0.008918 0.000000 -0.000417 0.000000
# 4 0.000000 0.000000 0.000000 0.021852 0.000000 0.007158
# 5 -0.007887 0.005664 -0.000417 0.000000 0.037291 0.000000
# 6 0.000000 0.000000 0.000000 0.007158 0.000000 0.044841
#
#
# Mechanical properties :
#
#
# Convention : Reuss Voigt Hill
#
# Bulk Modulus (GPa) = 40.82632 62.51523 51.67077
# Shear Modulus (GPa) = 25.96118 33.60246 29.78182
#
# Velocity S-wave (km/s) = 3.36291 3.82594 3.60187
# Velocity P-wave (km/s) = 5.73267 6.83739 6.30925
#
# Compressibility (1/GPa) = 0.02449400
#
# Stress axis : x y z
#
# Youngs Moduli (GPa) = 31.45774 85.00720 112.12896
#
# Poissons Ratio (x) = 0.77235 0.16762
# Poissons Ratio (y) = 0.28582 0.38210
# Poissons Ratio (z) = 0.04703 0.28968
#
# Static dielectric constant tensor:
#      x y z
#    x 1.947900 0.000000 0.172070 
#    y 0.000000 1.713480 0.000000 
#    z 0.172070 0.000000 2.029850 
# 
# From -- ./inp_files/34411.got.cif
#   From: 2010.05.17/outbox.cif.g08.bks.cpg/sg15_18_cif.got.tgz:34411.got - 2010.06.03 18:47:42.
