data_PCOD9273122
_publ_section_title
;
Structure prediction by ZEFSAII (Michael W. Deem and Ramdas Pophale) SiO2 
 PCOD9273122
Probable space group: C 2/C
;
_chemical_formula_sum "Si O2"
_cell_formula_units_Z 32
_cell_length_a 9.883639
_cell_length_b 15.488433
_cell_length_c 17.559261
_cell_angle_alpha 90.000000
_cell_angle_beta 29.320658
_cell_angle_gamma 90.000000
_cell_volume 1316.309136
_symmetry_space_group_name_H-M "C 2/C"
_symmetry_group_IT_number 15
_symmetry_cell_setting 'monoclinic'
loop_
_space_group_symop_operation_xyz
x,y,z
-x,y,1/2-z
-x,-y,-z
x,-y,1/2+z
1/2+x,1/2+y,z
1/2-x,1/2+y,1/2-z
1/2-x,1/2-y,-z
1/2+x,1/2-y,1/2+z
loop_
_atom_site_type_symbol
_atom_site_label
_atom_site_fract_x
_atom_site_fract_y
_atom_site_fract_z
Si Si1 0.182231 0.918303 0.433066
Si Si2 0.241570 0.365255 0.413065
Si Si3 0.286612 0.834149 0.916182
Si Si4 0.289163 0.333046 0.925337
O O1 0.500000 0.920569 0.250000
O O2 0.142081 0.902443 0.542954
O O3 0.024347 0.843232 0.462202
O O4 0.000000 0.000000 0.500000
O O5 0.500000 0.413147 0.250000
O O6 0.347999 0.269137 0.387504
O O7 0.152668 0.392673 0.540008
O O8 0.999781 0.357097 0.472118
O O9 0.500000 0.868230 0.750000
O O10 0.500000 0.323041 0.750000
O O11 0.250000 0.250000 0.000000
#
# Coordination Sequence:
#
# PCOD9273122 Si02
#       4
#     8   8   8   8
#     4  12  26  46  70  98 142 192 238 291 361 432
#     4  10  21  35  63  98 134 172 219 288 345 407
#     4  10  20  37  62  94 134 175 222 277 350 409
#     4  12  25  43  72 109 143 183 244 300 356 424
#
# _framework density 24.310397999999999
#
# number of rings (size 3 to 8) (size 9 to 14) (size 15 to 20)
#    0.000    1.000    2.500    4.500    7.000    0.000 
#    0.000    6.250    0.000    0.000    0.000    0.000 
#    0.000    0.000    0.000    0.000    0.000    0.000 
#
# Total GULP energy -89307.497197 kJ/mol
# GULP energy per Si atom -5581.718575 kJ/mol
# Density = 2.425507 g / cm^3
# Si number density = 24.310398 Si / 1000 Ang^3
#
#
#
# Elastic Constant Matrix: (Units=GPa)
#
#
# Indices 1 2 3 4 5 6 
#
# 1 194.3592 1.2625 47.5970 -0.0044 17.7395 -0.0044
# 2 1.2625 44.8981 -1.6143 0.0155 14.1119 0.0030
# 3 47.5970 -1.6143 141.8075 0.0371 11.2563 -0.0023
# 4 -0.0044 0.0155 0.0371 -0.7947 -0.0037 -13.9635
# 5 17.7395 14.1119 11.2563 -0.0037 54.4860 -0.0026
# 6 -0.0044 0.0030 -0.0023 -13.9635 -0.0026 36.8498
#
#
#
# Elastic Compliance Matrix: (Units=1/GPa)
#
#
# Indices 1 2 3 4 5 6 
#
# 1 0.005725 0.000265 -0.001795 -0.000014 -0.001562 -0.000005
# 2 0.000265 0.024346 0.000707 0.000075 -0.006538 0.000026
# 3 -0.001795 0.000707 0.007758 0.000051 -0.001201 0.000019
# 4 -0.000014 0.000075 0.000051 -0.164314 -0.000039 -0.062264
# 5 -0.001562 -0.006538 -0.001201 -0.000039 0.020803 -0.000013
# 6 -0.000005 0.000026 0.000019 -0.062264 -0.000013 0.003544
#
#
# Mechanical properties :
#
#
# Convention : Reuss Voigt Hill
#
# Bulk Modulus (GPa) = 27.63645 52.83945 40.23795
# Shear Modulus (GPa) = -56.54025 40.36284 -8.08870
#
# Velocity S-wave (km/s) = -4.82785 4.07911 -1.82606
# Velocity P-wave (km/s) = 4.43674 6.63084 3.48449
#
# Compressibility (1/GPa) = 0.03618409
#
# Stress axis : x y z
#
# Youngs Moduli (GPa) = 174.65814 41.07529 128.90584
#
# Poissons Ratio (x) = -0.01090 0.23135
# Poissons Ratio (y) = -0.04636 -0.09114
# Poissons Ratio (z) = 0.31346 -0.02904
#
# Static dielectric constant tensor:
#      x y z
#    x 0.986070 0.000170 -0.516210 
#    y 0.000170 2.095460 0.000130 
#    z -0.516210 0.000130 1.644590 
# 
# From -- ./inp_files/191869.got.cif
#   From: 2010.05.17/outbox.cif.g08.bks.cpg/sg15_96_cif.got.tgz:191869.got - 2010.06.03 18:47:42.
