data_PCOD9273598
_publ_section_title
;
Structure prediction by ZEFSAII (Michael W. Deem and Ramdas Pophale) SiO2 
 PCOD9273598
Probable space group: C 2/C
;
_chemical_formula_sum "Si O2"
_cell_formula_units_Z 60
_cell_length_a 17.374269
_cell_length_b 34.000089
_cell_length_c 5.192024
_cell_angle_alpha 90.000000
_cell_angle_beta 75.719412
_cell_angle_gamma 90.000000
_cell_volume 2972.292825
_symmetry_space_group_name_H-M "C 2/C"
_symmetry_group_IT_number 15
_symmetry_cell_setting 'monoclinic'
loop_
_space_group_symop_operation_xyz
x,y,z
-x,y,1/2-z
-x,-y,-z
x,-y,1/2+z
1/2+x,1/2+y,z
1/2-x,1/2+y,1/2-z
1/2-x,1/2-y,-z
1/2+x,1/2-y,1/2+z
loop_
_atom_site_type_symbol
_atom_site_label
_atom_site_fract_x
_atom_site_fract_y
_atom_site_fract_z
Si Si1 0.281498 0.789265 0.612194
Si Si2 0.950252 0.570834 0.548851
Si Si3 0.911863 0.244435 0.700441
Si Si4 0.126817 0.170185 0.473552
Si Si5 0.790929 0.475583 0.082456
Si Si6 0.000000 0.207625 0.250000
Si Si7 0.172887 0.367154 0.158249
Si Si8 0.765750 0.104905 0.072053
O O1 0.250000 0.750000 0.500000
O O2 0.341308 0.774942 0.789400
O O3 0.203554 0.812888 0.761345
O O4 0.331577 0.821501 0.411708
O O5 0.880635 0.541587 0.512749
O O6 0.906948 0.609265 0.705721
O O7 0.000000 0.553964 0.750000
O O8 0.000000 0.580132 0.250000
O O9 0.931915 0.238407 0.385653
O O10 0.000000 0.251352 0.750000
O O11 0.880164 0.200650 0.787052
O O12 0.147989 0.124803 0.483922
O O13 0.043636 0.178840 0.407962
O O14 0.778703 0.509724 0.883101
O O15 0.738085 0.439379 0.025874
O O16 0.223854 0.370785 0.376435
O O17 0.216404 0.389118 0.879384
#
# Coordination Sequence:
#
# PCOD9273598 Si02
#       8
#     8   8   8   8   8   4   8   8
#     4  11  20  37  62  83 112 161 215 251 309 365
#     4  11  22  39  59  82 120 164 205 243 297 364
#     4  10  21  37  55  84 123 153 202 263 304 349
#     4  10  21  36  63  84 117 156 202 251 307 366
#     4  11  22  38  60  89 120 149 194 251 299 352
#     4  10  20  38  54  88 120 146 194 262 300 348
#     4  10  22  39  57  83 116 156 212 257 290 343
#     4  10  21  39  61  85 116 153 194 246 297 357
#
# _framework density 20.186437000000002
#
# number of rings (size 3 to 8) (size 9 to 14) (size 15 to 20)
#    0.000    1.600    1.333    5.200    1.867    2.667 
#    1.200    3.333    0.000    0.000    0.000    0.933 
#    0.000    0.000    0.000    0.000    0.000    0.000 
#
# Total GULP energy -167066.397864 kJ/mol
# GULP energy per Si atom -5568.879929 kJ/mol
# Density = 2.014049 g / cm^3
# Si number density = 20.186437 Si / 1000 Ang^3
#
#
#
# Elastic Constant Matrix: (Units=GPa)
#
#
# Indices 1 2 3 4 5 6 
#
# 1 61.0473 19.0564 8.3975 0.0000 5.9852 0.0000
# 2 19.0564 80.3319 6.4128 0.0000 2.0562 0.0000
# 3 8.3975 6.4128 71.6041 0.0000 12.0626 0.0000
# 4 0.0000 0.0000 0.0000 23.5853 0.0000 5.8096
# 5 5.9852 2.0562 12.0626 0.0000 14.2258 0.0000
# 6 0.0000 0.0000 0.0000 5.8096 0.0000 28.7597
#
#
#
# Elastic Compliance Matrix: (Units=1/GPa)
#
#
# Indices 1 2 3 4 5 6 
#
# 1 0.018413 -0.004145 -0.000681 0.000000 -0.006570 0.000000
# 2 -0.004145 0.013484 -0.000801 0.000000 0.000475 0.000000
# 3 -0.000681 -0.000801 0.016391 0.000000 -0.013496 0.000000
# 4 0.000000 0.000000 0.000000 0.044620 0.000000 -0.009013
# 5 -0.006570 0.000475 -0.013496 0.000000 0.084434 0.000000
# 6 0.000000 0.000000 0.000000 -0.009013 0.000000 0.036592
#
#
# Mechanical properties :
#
#
# Convention : Reuss Voigt Hill
#
# Bulk Modulus (GPa) = 27.00441 31.19074 29.09757
# Shear Modulus (GPa) = 21.04978 25.25526 23.15252
#
# Velocity S-wave (km/s) = 3.23270 3.54093 3.39032
# Velocity P-wave (km/s) = 5.22880 5.67472 5.45631
#
# Compressibility (1/GPa) = 0.03703099
#
# Stress axis : x y z
#
# Youngs Moduli (GPa) = 54.31065 74.16448 61.00936
#
# Poissons Ratio (x) = 0.30743 0.04157
# Poissons Ratio (y) = 0.22513 0.04889
# Poissons Ratio (z) = 0.03700 0.05944
#
# Static dielectric constant tensor:
#      x y z
#    x 1.773070 0.000000 -0.006660 
#    y 0.000000 1.762700 0.000000 
#    z -0.006660 0.000000 1.862840 
# 
# From -- ./inp_files/12154.got.cif
#   From: 2010.05.17/outbox.cif.g08.bks.cpg/sg15_7_cif.got.tgz:12154.got - 2010.06.03 18:47:42.
