data_PCOD9273651
_publ_section_title
;
Structure prediction by ZEFSAII (Michael W. Deem and Ramdas Pophale) SiO2 
 PCOD9273651
Probable space group: C 2/C
;
_chemical_formula_sum "Si O2"
_cell_formula_units_Z 60
_cell_length_a 20.011273
_cell_length_b 8.506927
_cell_length_c 19.535150
_cell_angle_alpha 90.000000
_cell_angle_beta 75.579619
_cell_angle_gamma 90.000000
_cell_volume 3220.782466
_symmetry_space_group_name_H-M "C 2/C"
_symmetry_group_IT_number 15
_symmetry_cell_setting 'monoclinic'
loop_
_space_group_symop_operation_xyz
x,y,z
-x,y,1/2-z
-x,-y,-z
x,-y,1/2+z
1/2+x,1/2+y,z
1/2-x,1/2+y,1/2-z
1/2-x,1/2-y,-z
1/2+x,1/2-y,1/2+z
loop_
_atom_site_type_symbol
_atom_site_label
_atom_site_fract_x
_atom_site_fract_y
_atom_site_fract_z
Si Si1 0.018031 0.839940 0.534323
Si Si2 0.045941 0.635609 0.398727
Si Si3 0.439863 0.761678 0.820707
Si Si4 0.092148 0.316535 0.342884
Si Si5 0.843840 0.245249 0.726479
Si Si6 0.000000 0.272329 0.250000
Si Si7 0.393436 0.581314 0.368279
Si Si8 0.199534 0.112105 0.230142
O O1 0.027127 0.701255 0.477418
O O2 0.087820 0.857168 0.561400
O O3 0.954700 0.803429 0.601771
O O4 0.000000 0.000000 0.500000
O O5 0.090318 0.475074 0.387504
O O6 0.096636 0.755138 0.345954
O O7 0.975819 0.633787 0.370265
O O8 0.500000 0.722274 0.750000
O O9 0.377633 0.816908 0.787310
O O10 0.410491 0.603528 0.862684
O O11 0.157247 0.229225 0.292382
O O12 0.047280 0.369230 0.288382
O O13 0.779068 0.347686 0.719725
O O14 0.820042 0.066675 0.745721
O O15 0.950330 0.161560 0.305404
O O16 0.324648 0.624114 0.343399
#
# Coordination Sequence:
#
# PCOD9273651 Si02
#       8
#     8   8   8   8   8   4   8   8
#     4  11  20  34  55  82 112 149 184 220 277 330
#     4  11  21  34  54  84 117 142 181 226 278 332
#     4   9  17  30  54  81 108 136 181 231 276 319
#     4  10  21  33  54  82 112 142 179 227 276 324
#     4  10  21  35  58  81 111 145 183 230 280 326
#     4   8  16  28  50  76 106 130 174 222 274 310
#     4   9  16  31  53  79 104 142 179 224 266 325
#     4  10  20  38  57  82 111 142 189 230 278 330
#
# _framework density 18.629014000000002
#
# number of rings (size 3 to 8) (size 9 to 14) (size 15 to 20)
#    0.000    2.133    2.000    2.000    6.533    0.000 
#    2.400    0.667    0.000    0.800    0.000    0.000 
#    0.000    0.000    0.000    0.000    0.000    0.000 
#
# Total GULP energy -167042.272360 kJ/mol
# GULP energy per Si atom -5568.075745 kJ/mol
# Density = 1.858661 g / cm^3
# Si number density = 18.629014 Si / 1000 Ang^3
#
#
#
# Elastic Constant Matrix: (Units=GPa)
#
#
# Indices 1 2 3 4 5 6 
#
# 1 105.9071 13.9514 28.8211 0.0000 21.5734 0.0000
# 2 13.9514 62.6950 8.2741 0.0000 8.7061 0.0000
# 3 28.8211 8.2741 70.8956 0.0000 17.0083 0.0000
# 4 0.0000 0.0000 0.0000 22.6098 0.0000 -9.5439
# 5 21.5734 8.7061 17.0083 0.0000 24.7549 0.0000
# 6 0.0000 0.0000 0.0000 -9.5439 0.0000 19.1521
#
#
#
# Elastic Compliance Matrix: (Units=1/GPa)
#
#
# Indices 1 2 3 4 5 6 
#
# 1 0.012015 -0.001175 -0.002795 0.000000 -0.008137 0.000000
# 2 -0.001175 0.016909 -0.000377 0.000000 -0.004664 0.000000
# 3 -0.002795 -0.000377 0.017565 0.000000 -0.009500 0.000000
# 4 0.000000 0.000000 0.000000 0.056010 0.000000 0.027911
# 5 -0.008137 -0.004664 -0.009500 0.000000 0.055655 0.000000
# 6 0.000000 0.000000 0.000000 0.027911 0.000000 0.066122
#
#
# Mechanical properties :
#
#
# Convention : Reuss Voigt Hill
#
# Bulk Modulus (GPa) = 26.45856 37.95455 32.20656
# Shear Modulus (GPa) = 20.36093 25.86676 23.11384
#
# Velocity S-wave (km/s) = 3.30959 3.73033 3.52624
# Velocity P-wave (km/s) = 5.37013 6.24275 5.82281
#
# Compressibility (1/GPa) = 0.03779495
#
# Stress axis : x y z
#
# Youngs Moduli (GPa) = 83.22727 59.13984 56.93273
#
# Poissons Ratio (x) = 0.06948 0.15914
# Poissons Ratio (y) = 0.09778 0.02146
# Poissons Ratio (z) = 0.23264 0.02229
#
# Static dielectric constant tensor:
#      x y z
#    x 1.661220 0.000000 0.047380 
#    y 0.000000 1.686370 0.000000 
#    z 0.047380 0.000000 1.675570 
# 
# From -- ./inp_files/213882.got.cif
#   From: 2010.05.17/outbox.cif.g08.bks.cpg/sg15_107_cif.got.tgz:213882.got - 2010.06.03 18:47:42.
