data_PCOD9273432
_publ_section_title
;
Structure prediction by ZEFSAII (Michael W. Deem and Ramdas Pophale) SiO2 
 PCOD9273432
Probable space group: C 2/C
;
_chemical_formula_sum "Si O2"
_cell_formula_units_Z 52
_cell_length_a 30.354715
_cell_length_b 15.388277
_cell_length_c 9.583646
_cell_angle_alpha 90.000000
_cell_angle_beta 34.435834
_cell_angle_gamma 90.000000
_cell_volume 2531.432916
_symmetry_space_group_name_H-M "C 2/C"
_symmetry_group_IT_number 15
_symmetry_cell_setting 'monoclinic'
loop_
_space_group_symop_operation_xyz
x,y,z
-x,y,1/2-z
-x,-y,-z
x,-y,1/2+z
1/2+x,1/2+y,z
1/2-x,1/2+y,1/2-z
1/2-x,1/2-y,-z
1/2+x,1/2-y,1/2+z
loop_
_atom_site_type_symbol
_atom_site_label
_atom_site_fract_x
_atom_site_fract_y
_atom_site_fract_z
Si Si1 0.416535 0.029998 0.019438
Si Si2 0.625452 0.226962 0.417416
Si Si3 0.500000 0.652024 0.250000
Si Si4 0.583961 0.515193 0.849250
Si Si5 0.820903 0.538818 0.530343
Si Si6 0.176341 0.082879 0.340066
Si Si7 0.797878 0.744957 0.575968
O O1 0.500000 0.997019 0.750000
O O2 0.347000 0.985049 0.116535
O O3 0.407754 0.130760 0.002711
O O4 0.396401 0.025312 0.234607
O O5 0.560735 0.283755 0.666913
O O6 0.710275 0.228738 0.263294
O O7 0.643854 0.256846 0.209004
O O8 0.438651 0.590764 0.485443
O O9 0.635949 0.546172 0.585812
O O10 0.626659 0.442360 0.832038
O O11 0.500000 0.500000 0.000000
O O12 0.755937 0.473615 0.637773
O O13 0.797069 0.640385 0.595996
O O14 0.181964 0.186808 0.353408
#
# Coordination Sequence:
#
# PCOD9273432 Si02
#       7
#     8   8   4   8   8   8   8
#     4  11  22  42  65  94 132 167 213 269 324 387
#     4  10  20  37  65  95 122 167 223 267 314 389
#     4  12  20  38  66  96 122 166 220 266 324 390
#     4  12  25  41  64  98 134 171 214 271 341 396
#     4  11  24  42  67  98 128 173 220 266 327 388
#     4  12  23  44  67  94 136 173 221 277 325 395
#     4  10  22  39  64  94 127 170 221 270 320 384
#
# _framework density 20.541726000000001
#
# number of rings (size 3 to 8) (size 9 to 14) (size 15 to 20)
#    0.000    0.923    5.385    2.308    2.154    0.000 
#    0.000    6.154    0.000    0.000    0.000    0.000 
#    0.000    0.000    0.000    0.000    0.000    0.000 
#
# Total GULP energy -144859.441016 kJ/mol
# GULP energy per Si atom -5571.516962 kJ/mol
# Density = 2.049497 g / cm^3
# Si number density = 20.541726 Si / 1000 Ang^3
#
#
#
# Elastic Constant Matrix: (Units=GPa)
#
#
# Indices 1 2 3 4 5 6 
#
# 1 73.4867 16.6276 -4.3500 0.0000 -1.0625 0.0000
# 2 16.6276 60.6879 6.7316 0.0000 -2.1518 0.0000
# 3 -4.3500 6.7316 70.5513 0.0000 -10.4095 0.0000
# 4 0.0000 0.0000 0.0000 1.0333 0.0000 30.3944
# 5 -1.0625 -2.1518 -10.4095 0.0000 27.6875 0.0000
# 6 0.0000 0.0000 0.0000 30.3944 0.0000 -5.3544
#
#
#
# Elastic Compliance Matrix: (Units=1/GPa)
#
#
# Indices 1 2 3 4 5 6 
#
# 1 0.014639 -0.004140 0.001411 0.000000 0.000771 0.000000
# 2 -0.004140 0.017839 -0.001881 0.000000 0.000520 0.000000
# 3 0.001411 -0.001881 0.015274 0.000000 0.005651 0.000000
# 4 0.000000 0.000000 0.000000 0.005761 0.000000 0.032705
# 5 0.000771 0.000520 0.005651 0.000000 0.038312 0.000000
# 6 0.000000 0.000000 0.000000 0.032705 0.000000 -0.001112
#
#
# Mechanical properties :
#
#
# Convention : Reuss Voigt Hill
#
# Bulk Modulus (GPa) = 25.95113 26.97157 26.46135
# Shear Modulus (GPa) = 44.33501 17.05439 30.69470
#
# Velocity S-wave (km/s) = 4.65078 2.88450 3.86976
# Velocity P-wave (km/s) = 6.44209 4.92468 5.73380
#
# Compressibility (1/GPa) = 0.03853396
#
# Stress axis : x y z
#
# Youngs Moduli (GPa) = 68.30893 56.05650 65.46961
#
# Poissons Ratio (x) = 0.23208 -0.09240
# Poissons Ratio (y) = 0.28281 0.12312
# Poissons Ratio (z) = -0.09641 0.10542
#
# Static dielectric constant tensor:
#      x y z
#    x 1.692310 0.000000 -0.012430 
#    y 0.000000 1.217990 0.000000 
#    z -0.012430 0.000000 1.804920 
# 
# From -- ./inp_files/70074.got.cif
#   From: 2010.05.17/outbox.cif.g08.bks.cpg/sg15_36_cif.got.tgz:70074.got - 2010.06.03 18:47:42.
