data_PCOD9273268
_publ_section_title
;
Structure prediction by ZEFSAII (Michael W. Deem and Ramdas Pophale) SiO2 
 PCOD9273268
Probable space group: C 2/C
;
_chemical_formula_sum "Si O2"
_cell_formula_units_Z 48
_cell_length_a 20.545836
_cell_length_b 13.996646
_cell_length_c 21.004792
_cell_angle_alpha 90.000000
_cell_angle_beta 154.513993
_cell_angle_gamma 90.000000
_cell_volume 2599.130535
_symmetry_space_group_name_H-M "C 2/C"
_symmetry_group_IT_number 15
_symmetry_cell_setting 'monoclinic'
loop_
_space_group_symop_operation_xyz
x,y,z
-x,y,1/2-z
-x,-y,-z
x,-y,1/2+z
1/2+x,1/2+y,z
1/2-x,1/2+y,1/2-z
1/2-x,1/2-y,-z
1/2+x,1/2-y,1/2+z
loop_
_atom_site_type_symbol
_atom_site_label
_atom_site_fract_x
_atom_site_fract_y
_atom_site_fract_z
Si Si1 0.909279 0.229554 0.606925
Si Si2 0.469744 0.139907 0.647682
Si Si3 0.520956 0.933288 0.692412
Si Si4 0.548217 0.623611 0.099510
Si Si5 0.372731 0.563366 0.473461
Si Si6 0.766823 0.252753 0.874691
O O1 0.750000 0.250000 0.500000
O O2 0.914879 0.145804 0.560633
O O3 0.000000 0.201629 0.750000
O O4 0.965934 0.328193 0.624012
O O5 0.500000 0.143320 0.750000
O O6 0.629322 0.178498 0.761652
O O7 0.334492 0.204359 0.500291
O O8 0.437904 0.030494 0.598965
O O9 0.500000 0.928202 0.750000
O O10 0.694808 0.950766 0.828432
O O11 0.601300 0.595501 0.076131
O O12 0.688837 0.665598 0.263197
O O13 0.471295 0.532952 0.066891
O O14 0.412695 0.700900 0.973718
#
# Coordination Sequence:
#
# PCOD9273268 Si02
#       6
#     8   8   8   8   8   8
#     4  11  22  38  62  93 118 153 202 251 310 368
#     4  10  20  37  64  84 121 155 195 254 308 353
#     4  10  20  38  61  87 122 153 191 255 309 353
#     4  10  24  40  64  85 125 166 201 251 294 367
#     4  11  22  43  61  88 126 163 200 247 313 360
#     4  10  21  41  58  92 115 155 213 244 293 365
#
# _framework density 18.467714000000001
#
# number of rings (size 3 to 8) (size 9 to 14) (size 15 to 20)
#    0.000    1.667    5.000    0.500    2.333    1.333 
#    0.000    1.667    0.000    0.000    0.000    0.000 
#    0.000    0.000    0.000    0.000    0.000    0.000 
#
# Total GULP energy -133680.307818 kJ/mol
# GULP energy per Si atom -5570.012826 kJ/mol
# Density = 1.842568 g / cm^3
# Si number density = 18.467714 Si / 1000 Ang^3
#
#
#
# Elastic Constant Matrix: (Units=GPa)
#
#
# Indices 1 2 3 4 5 6 
#
# 1 84.1937 35.5783 30.4622 -0.0003 10.6512 -0.0001
# 2 35.5783 124.1550 37.4925 -0.0010 -1.2166 0.0001
# 3 30.4622 37.4925 91.5185 -0.0011 2.3504 0.0000
# 4 -0.0003 -0.0010 -0.0011 32.7625 -0.0005 2.0915
# 5 10.6512 -1.2166 2.3504 -0.0005 20.5630 -0.0001
# 6 -0.0001 0.0001 0.0000 2.0915 -0.0001 21.7806
#
#
#
# Elastic Compliance Matrix: (Units=1/GPa)
#
#
# Indices 1 2 3 4 5 6 
#
# 1 0.015641 -0.003479 -0.003578 0.000000 -0.007899 0.000000
# 2 -0.003479 0.009985 -0.003003 0.000000 0.002736 0.000000
# 3 -0.003578 -0.003003 0.013344 0.000000 0.000151 0.000000
# 4 0.000000 0.000000 0.000000 0.030711 0.000001 -0.002949
# 5 -0.007899 0.002736 0.000151 0.000001 0.052867 0.000000
# 6 0.000000 0.000000 0.000000 -0.002949 0.000000 0.046196
#
#
# Mechanical properties :
#
#
# Convention : Reuss Voigt Hill
#
# Bulk Modulus (GPa) = 53.04937 56.32589 54.68763
# Shear Modulus (GPa) = 25.62159 28.11017 26.86588
#
# Velocity S-wave (km/s) = 3.72879 3.90567 3.81825
# Velocity P-wave (km/s) = 6.87941 7.13477 7.00825
#
# Compressibility (1/GPa) = 0.01885036
#
# Stress axis : x y z
#
# Youngs Moduli (GPa) = 63.93275 100.14976 74.93980
#
# Poissons Ratio (x) = 0.34843 0.26814
# Poissons Ratio (y) = 0.22243 0.22503
# Poissons Ratio (z) = 0.22876 0.30073
#
# Static dielectric constant tensor:
#      x y z
#    x 1.605440 0.000000 0.003090 
#    y 0.000000 1.664750 0.000000 
#    z 0.003090 0.000000 1.600840 
# 
# From -- ./inp_files/65229.got.cif
#   From: 2010.05.17/outbox.cif.g08.bks.cpg/sg15_33_cif.got.tgz:65229.got - 2010.06.03 18:47:42.
