data_PCOD9273197
_publ_section_title
;
Structure prediction by ZEFSAII (Michael W. Deem and Ramdas Pophale) SiO2 
 PCOD9273197
Probable space group: C 2/C
;
_chemical_formula_sum "Si O2"
_cell_formula_units_Z 56
_cell_length_a 12.736465
_cell_length_b 15.322753
_cell_length_c 15.599873
_cell_angle_alpha 90.000000
_cell_angle_beta 121.970404
_cell_angle_gamma 90.000000
_cell_volume 2582.660691
_symmetry_space_group_name_H-M "C 2/C"
_symmetry_group_IT_number 15
_symmetry_cell_setting 'monoclinic'
loop_
_space_group_symop_operation_xyz
x,y,z
-x,y,1/2-z
-x,-y,-z
x,-y,1/2+z
1/2+x,1/2+y,z
1/2-x,1/2+y,1/2-z
1/2-x,1/2-y,-z
1/2+x,1/2-y,1/2+z
loop_
_atom_site_type_symbol
_atom_site_label
_atom_site_fract_x
_atom_site_fract_y
_atom_site_fract_z
Si Si1 0.624759 0.538570 0.325627
Si Si2 0.853789 0.054901 0.487648
Si Si3 0.198668 0.711256 0.789281
Si Si4 0.103234 0.068144 0.649045
Si Si5 0.569307 0.038217 0.370440
Si Si6 0.633199 0.143204 0.114302
Si Si7 0.063502 0.328003 0.399304
O O1 0.500000 0.593534 0.250000
O O2 0.629168 0.515378 0.427462
O O3 0.608293 0.459532 0.250328
O O4 0.756263 0.577528 0.360185
O O5 0.881149 0.015929 0.405989
O O6 0.708736 0.076943 0.428883
O O7 0.973205 0.113472 0.564966
O O8 0.278019 0.624232 0.820002
O O9 0.292636 0.785643 0.798207
O O10 0.075966 0.700154 0.680996
O O11 0.150030 0.718692 0.866303
O O12 0.500000 0.046258 0.250000
O O13 0.482277 0.091102 0.398100
O O14 0.574662 0.933898 0.392297
O O15 0.595668 0.190931 0.010574
#
# Coordination Sequence:
#
# PCOD9273197 Si02
#       7
#     8   8   8   8   8   8   8
#     4  10  21  36  62  93 120 157 209 264 311 385
#     4  10  20  37  63  91 119 160 216 262 308 383
#     4  11  23  41  61  95 128 168 204 269 332 382
#     4  10  20  40  63  89 124 168 210 262 324 387
#     4  12  22  42  67  96 124 172 220 268 317 391
#     4  12  25  38  64  98 129 163 215 273 326 379
#     4  11  22  42  70  89 130 171 214 265 322 392
#
# _framework density 21.683066
#
# number of rings (size 3 to 8) (size 9 to 14) (size 15 to 20)
#    0.000    1.143    4.286    2.571    4.000    0.000 
#    7.714    2.857    0.000    0.000    0.000    0.000 
#    0.000    0.000    0.000    0.000    0.000    0.000 
#
# Total GULP energy -156183.651380 kJ/mol
# GULP energy per Si atom -5577.987549 kJ/mol
# Density = 2.163371 g / cm^3
# Si number density = 21.683066 Si / 1000 Ang^3
#
#
#
# Elastic Constant Matrix: (Units=GPa)
#
#
# Indices 1 2 3 4 5 6 
#
# 1 137.3533 11.7928 44.0472 0.0000 29.1408 0.0000
# 2 11.7928 17.0773 3.1200 0.0000 6.3100 0.0000
# 3 44.0472 3.1200 101.6607 0.0000 17.6491 0.0000
# 4 0.0000 0.0000 0.0000 7.3142 0.0000 2.7859
# 5 29.1408 6.3100 17.6491 0.0000 34.6818 0.0000
# 6 0.0000 0.0000 0.0000 2.7859 0.0000 17.6860
#
#
#
# Elastic Compliance Matrix: (Units=1/GPa)
#
#
# Indices 1 2 3 4 5 6 
#
# 1 0.009902 -0.004053 -0.003126 0.000000 -0.005992 0.000000
# 2 -0.004053 0.064437 0.001341 0.000000 -0.009001 0.000000
# 3 -0.003126 0.001341 0.011777 0.000000 -0.003611 0.000000
# 4 0.000000 0.000000 0.000000 0.145446 0.000000 -0.022910
# 5 -0.005992 -0.009001 -0.003611 0.000000 0.037343 0.000000
# 6 0.000000 0.000000 0.000000 -0.022910 0.000000 0.060151
#
#
# Mechanical properties :
#
#
# Convention : Reuss Voigt Hill
#
# Bulk Modulus (GPa) = 13.43360 41.55682 27.49521
# Shear Modulus (GPa) = 13.67827 25.07851 19.37839
#
# Velocity S-wave (km/s) = 2.51435 3.40456 2.99274
# Velocity P-wave (km/s) = 3.82599 5.88744 4.96488
#
# Compressibility (1/GPa) = 0.07444020
#
# Stress axis : x y z
#
# Youngs Moduli (GPa) = 100.98863 15.51914 84.91407
#
# Poissons Ratio (x) = 0.06290 0.26542
# Poissons Ratio (y) = 0.40929 -0.11387
# Poissons Ratio (z) = 0.31566 -0.02081
#
# Static dielectric constant tensor:
#      x y z
#    x 1.844440 0.000000 0.019360 
#    y 0.000000 1.856000 0.000000 
#    z 0.019360 0.000000 1.795810 
# 
# From -- ./inp_files/146146.got.cif
#   From: 2010.05.17/outbox.cif.g08.bks.cpg/sg15_74_cif.got.tgz:146146.got - 2010.06.03 18:47:42.
