data_PCOD9273483
_publ_section_title
;
Structure prediction by ZEFSAII (Michael W. Deem and Ramdas Pophale) SiO2 
 PCOD9273483
Probable space group: C 2/C
;
_chemical_formula_sum "Si O2"
_cell_formula_units_Z 64
_cell_length_a 9.367680
_cell_length_b 19.299810
_cell_length_c 18.092764
_cell_angle_alpha 90.000000
_cell_angle_beta 84.318971
_cell_angle_gamma 90.000000
_cell_volume 3255.005020
_symmetry_space_group_name_H-M "C 2/C"
_symmetry_group_IT_number 15
_symmetry_cell_setting 'monoclinic'
loop_
_space_group_symop_operation_xyz
x,y,z
-x,y,1/2-z
-x,-y,-z
x,-y,1/2+z
1/2+x,1/2+y,z
1/2-x,1/2+y,1/2-z
1/2-x,1/2-y,-z
1/2+x,1/2-y,1/2+z
loop_
_atom_site_type_symbol
_atom_site_label
_atom_site_fract_x
_atom_site_fract_y
_atom_site_fract_z
Si Si1 0.890806 0.572382 0.924065
Si Si2 0.641747 0.226060 0.072125
Si Si3 0.207770 0.717335 0.423899
Si Si4 0.894980 0.422131 0.959159
Si Si5 0.860454 0.163667 0.803401
Si Si6 0.115996 0.091050 0.027897
Si Si7 0.615964 0.437026 0.066184
Si Si8 0.368712 0.816966 0.302882
O O1 0.924312 0.624579 0.856947
O O2 0.969664 0.594535 0.995808
O O3 0.925116 0.491387 0.911470
O O4 0.724055 0.577014 0.953678
O O5 0.466123 0.227503 0.071443
O O6 0.679813 0.273904 0.139411
O O7 0.750000 0.250000 0.000000
O O8 0.659638 0.143720 0.082512
O O9 0.250000 0.750000 0.500000
O O10 0.298166 0.644474 0.424331
O O11 0.278965 0.761757 0.354764
O O12 0.776623 0.438490 0.027153
O O13 0.893143 0.099262 0.854957
O O14 0.736325 0.149017 0.751540
O O15 0.000000 0.183340 0.750000
O O16 0.075674 0.018122 0.068492
O O17 0.972432 0.108761 0.989473
O O18 0.500000 0.785773 0.250000
#
# Coordination Sequence:
#
# PCOD9273483 Si02
#       8
#     8   8   8   8   8   8   8   8
#     4  10  20  39  62  94 120 163 210 273 323 382
#     4  12  24  40  65  97 124 171 222 272 325 384
#     4  12  23  41  66  94 127 171 219 275 319 385
#     4  10  20  37  66  93 123 151 223 280 311 372
#     4  12  24  41  60  89 137 176 209 265 336 401
#     4  10  20  37  66  94 124 155 222 273 317 371
#     4  10  21  37  61  97 123 166 211 267 325 391
#     4  12  26  41  61  95 134 173 213 261 339 410
#
# _framework density 19.662027999999999
#
# number of rings (size 3 to 8) (size 9 to 14) (size 15 to 20)
#    0.000    1.000    5.000    2.250    1.750    0.000 
#    0.000    2.500    0.000    0.000    0.000    0.000 
#    0.000    0.000    0.000    0.000    0.000    0.000 
#
# Total GULP energy -178287.626507 kJ/mol
# GULP energy per Si atom -5571.488328 kJ/mol
# Density = 1.961728 g / cm^3
# Si number density = 19.662028 Si / 1000 Ang^3
#
#
#
# Elastic Constant Matrix: (Units=GPa)
#
#
# Indices 1 2 3 4 5 6 
#
# 1 89.7115 6.5722 25.0260 0.0000 -7.0646 0.0000
# 2 6.5722 111.2064 45.6930 0.0000 2.2479 0.0000
# 3 25.0260 45.6930 82.3638 0.0000 -12.7532 0.0000
# 4 0.0000 0.0000 0.0000 19.1663 0.0000 2.1356
# 5 -7.0646 2.2479 -12.7532 0.0000 34.2240 0.0000
# 6 0.0000 0.0000 0.0000 2.1356 0.0000 25.3984
#
#
#
# Elastic Compliance Matrix: (Units=1/GPa)
#
#
# Indices 1 2 3 4 5 6 
#
# 1 0.012300 0.000945 -0.004116 0.000000 0.000943 0.000000
# 2 0.000945 0.012097 -0.007525 0.000000 -0.003404 0.000000
# 3 -0.004116 -0.007525 0.018584 0.000000 0.006570 0.000000
# 4 0.000000 0.000000 0.000000 0.052668 0.000000 -0.004429
# 5 0.000943 -0.003404 0.006570 0.000000 0.032086 0.000000
# 6 0.000000 0.000000 0.000000 -0.004429 0.000000 0.039745
#
#
# Mechanical properties :
#
#
# Convention : Reuss Voigt Hill
#
# Bulk Modulus (GPa) = 46.31913 48.65158 47.48535
# Shear Modulus (GPa) = 25.50130 29.49044 27.49587
#
# Velocity S-wave (km/s) = 3.60527 3.87701 3.74361
# Velocity P-wave (km/s) = 6.39839 6.69621 6.54900
#
# Compressibility (1/GPa) = 0.02158935
#
# Stress axis : x y z
#
# Youngs Moduli (GPa) = 81.30100 82.66302 53.81007
#
# Poissons Ratio (x) = -0.07812 0.22146
# Poissons Ratio (y) = -0.07683 0.40494
# Poissons Ratio (z) = 0.33460 0.62207
#
# Static dielectric constant tensor:
#      x y z
#    x 1.746790 0.000000 0.011530 
#    y 0.000000 2.107790 0.000000 
#    z 0.011530 0.000000 1.636590 
# 
# From -- ./inp_files/192138.got.cif
#   From: 2010.05.17/outbox.cif.g08.bks.cpg/sg15_97_cif.got.tgz:192138.got - 2010.06.03 18:47:42.
