data_PCOD9273221
_publ_section_title
;
Structure prediction by ZEFSAII (Michael W. Deem and Ramdas Pophale) SiO2 
 PCOD9273221
Probable space group: C 2/C
;
_chemical_formula_sum "Si O2"
_cell_formula_units_Z 56
_cell_length_a 29.543537
_cell_length_b 13.297190
_cell_length_c 15.379501
_cell_angle_alpha 90.000000
_cell_angle_beta 26.784312
_cell_angle_gamma 90.000000
_cell_volume 2722.624337
_symmetry_space_group_name_H-M "C 2/C"
_symmetry_group_IT_number 15
_symmetry_cell_setting 'monoclinic'
loop_
_space_group_symop_operation_xyz
x,y,z
-x,y,1/2-z
-x,-y,-z
x,-y,1/2+z
1/2+x,1/2+y,z
1/2-x,1/2+y,1/2-z
1/2-x,1/2-y,-z
1/2+x,1/2-y,1/2+z
loop_
_atom_site_type_symbol
_atom_site_label
_atom_site_fract_x
_atom_site_fract_y
_atom_site_fract_z
Si Si1 0.184828 0.947570 0.357093
Si Si2 0.000000 0.932212 0.250000
Si Si3 0.087185 0.238420 0.928978
Si Si4 0.500000 0.094305 0.250000
Si Si5 0.474112 0.744602 0.662768
Si Si6 0.623286 0.194812 0.658526
Si Si7 0.134972 0.423307 0.970063
Si Si8 0.814054 0.679282 0.767887
O O1 0.088855 0.997840 0.564745
O O2 0.149399 0.858004 0.354474
O O3 0.255271 0.898097 0.309390
O O4 0.252961 0.037076 0.202792
O O5 0.033805 0.858953 0.270785
O O6 0.128327 0.339920 0.905656
O O7 0.081254 0.245597 0.834876
O O8 0.970716 0.231379 0.161844
O O9 0.559904 0.167573 0.212515
O O10 0.431459 0.023163 0.426930
O O11 0.592782 0.766802 0.439851
O O12 0.595717 0.125146 0.626291
O O13 0.725891 0.246180 0.450974
O O14 0.640787 0.137584 0.719204
#
# Coordination Sequence:
#
# PCOD9273221 Si02
#       8
#     8   4   8   4   8   8   8   8
#     4  12  25  40  68  99 131 170 221 272 329 388
#     4  11  26  43  68  96 136 175 214 273 332 386
#     4  11  24  42  68  95 132 174 221 274 322 390
#     4  11  22  41  66  94 130 171 212 275 322 380
#     4  10  24  45  64  94 137 177 213 268 336 389
#     4  10  20  37  63  92 124 169 215 262 317 378
#     4  12  23  39  68  98 129 168 222 271 322 384
#     4  10  20  37  63  92 128 167 212 262 319 387
#
# _framework density 20.568390000000001
#
# number of rings (size 3 to 8) (size 9 to 14) (size 15 to 20)
#    0.000    1.143    4.286    1.714    0.000    3.429 
#    0.000    1.429    0.000    0.000    0.000    0.000 
#    0.000    0.000    0.000    0.000    0.000    0.000 
#
# Total GULP energy -156246.187654 kJ/mol
# GULP energy per Si atom -5580.220988 kJ/mol
# Density = 2.052158 g / cm^3
# Si number density = 20.568390 Si / 1000 Ang^3
#
#
#
# Elastic Constant Matrix: (Units=GPa)
#
#
# Indices 1 2 3 4 5 6 
#
# 1 155.9582 75.2182 27.2798 0.0000 15.8522 0.0000
# 2 75.2182 105.6233 30.8212 0.0000 8.0112 0.0000
# 3 27.2798 30.8212 49.7536 0.0000 0.0438 0.0000
# 4 0.0000 0.0000 0.0000 24.6423 0.0000 -7.6731
# 5 15.8522 8.0112 0.0438 0.0000 30.6064 0.0000
# 6 0.0000 0.0000 0.0000 -7.6731 0.0000 -2.8462
#
#
#
# Elastic Compliance Matrix: (Units=1/GPa)
#
#
# Indices 1 2 3 4 5 6 
#
# 1 0.010200 -0.006545 -0.001535 0.000000 -0.003567 0.000000
# 2 -0.006545 0.016042 -0.006348 0.000000 -0.000800 0.000000
# 3 -0.001535 -0.006348 0.024871 0.000000 0.002421 0.000000
# 4 0.000000 0.000000 0.000000 0.022061 0.000000 -0.059476
# 5 -0.003567 -0.000800 0.002421 0.000000 0.034726 0.000000
# 6 0.000000 0.000000 0.000000 -0.059476 0.000000 -0.191008
#
#
# Mechanical properties :
#
#
# Convention : Reuss Voigt Hill
#
# Bulk Modulus (GPa) = 44.93102 64.21927 54.57515
# Shear Modulus (GPa) = -106.76188 22.34824 -42.20682
#
# Velocity S-wave (km/s) = -7.21238 3.29984 -4.53484
# Velocity P-wave (km/s) = 6.88955 6.76821 0.91028
#
# Compressibility (1/GPa) = 0.02225634
#
# Stress axis : x y z
#
# Youngs Moduli (GPa) = 98.04143 62.33744 40.20766
#
# Poissons Ratio (x) = 0.40801 0.06171
# Poissons Ratio (y) = 0.64170 0.25524
# Poissons Ratio (z) = 0.15047 0.39572
#
# Static dielectric constant tensor:
#      x y z
#    x 1.764860 0.000000 -0.055580 
#    y 0.000000 1.756540 0.000000 
#    z -0.055580 0.000000 1.845110 
# 
# From -- ./inp_files/181943.got.cif
#   From: 2010.05.17/outbox.cif.g08.bks.cpg/sg15_91_cif.got.tgz:181943.got - 2010.06.03 18:47:42.
