data_PCOD9273310
_publ_section_title
;
Structure prediction by ZEFSAII (Michael W. Deem and Ramdas Pophale) SiO2 
 PCOD9273310
Probable space group: C 2/C
;
_chemical_formula_sum "Si O2"
_cell_formula_units_Z 48
_cell_length_a 8.371412
_cell_length_b 21.862289
_cell_length_c 12.268453
_cell_angle_alpha 90.000000
_cell_angle_beta 98.799831
_cell_angle_gamma 90.000000
_cell_volume 2218.920137
_symmetry_space_group_name_H-M "C 2/C"
_symmetry_group_IT_number 15
_symmetry_cell_setting 'monoclinic'
loop_
_space_group_symop_operation_xyz
x,y,z
-x,y,1/2-z
-x,-y,-z
x,-y,1/2+z
1/2+x,1/2+y,z
1/2-x,1/2+y,1/2-z
1/2-x,1/2-y,-z
1/2+x,1/2-y,1/2+z
loop_
_atom_site_type_symbol
_atom_site_label
_atom_site_fract_x
_atom_site_fract_y
_atom_site_fract_z
Si Si1 0.333101 0.931721 0.920440
Si Si2 0.332762 0.379038 0.801643
Si Si3 0.280774 0.064341 0.992538
Si Si4 0.865196 0.692443 0.497635
Si Si5 0.835163 0.257620 0.768940
Si Si6 0.372140 0.149991 0.815693
O O1 0.279698 0.918800 0.791436
O O2 0.279979 0.873544 0.988593
O O3 0.257995 0.993929 0.957814
O O4 0.528605 0.932219 0.951815
O O5 0.500000 0.374431 0.750000
O O6 0.261522 0.310205 0.806036
O O7 0.327333 0.410368 0.919638
O O8 0.269902 0.105268 0.881420
O O9 0.750000 0.750000 0.500000
O O10 0.905617 0.702510 0.375762
O O11 0.022090 0.689332 0.587467
O O12 0.718248 0.199664 0.768076
O O13 0.000000 0.226897 0.750000
O O14 0.500000 0.116005 0.750000
#
# Coordination Sequence:
#
# PCOD9273310 Si02
#       6
#     8   8   8   8   8   8
#     4   9  21  40  64  89 123 166 211 261 316 389
#     4  11  23  40  64  90 126 169 213 262 320 388
#     4  10  22  41  65  94 123 169 216 261 317 384
#     4  10  20  37  64  91 123 164 208 260 322 382
#     4  11  23  41  61  92 127 169 215 265 324 388
#     4  11  22  39  63  97 128 164 216 269 325 380
#
# _framework density 21.632144
#
# number of rings (size 3 to 8) (size 9 to 14) (size 15 to 20)
#    0.000    1.667    1.667    4.000    2.333    7.333 
#    0.000    0.833    0.000    0.000    0.000    0.000 
#    0.000    0.000    0.000    0.000    0.000    0.000 
#
# Total GULP energy -133659.064376 kJ/mol
# GULP energy per Si atom -5569.127682 kJ/mol
# Density = 2.158291 g / cm^3
# Si number density = 21.632144 Si / 1000 Ang^3
#
#
#
# Elastic Constant Matrix: (Units=GPa)
#
#
# Indices 1 2 3 4 5 6 
#
# 1 49.7982 38.3350 13.5472 0.0000 -18.4580 0.0000
# 2 38.3350 112.6618 13.7419 0.0000 -23.1613 0.0000
# 3 13.5472 13.7419 60.5821 0.0000 -13.2553 0.0000
# 4 0.0000 0.0000 0.0000 28.5904 0.0000 -1.3896
# 5 -18.4580 -23.1613 -13.2553 0.0000 27.0376 0.0000
# 6 0.0000 0.0000 0.0000 -1.3896 0.0000 20.5136
#
#
#
# Elastic Compliance Matrix: (Units=1/GPa)
#
#
# Indices 1 2 3 4 5 6 
#
# 1 0.031799 -0.007657 -0.002307 0.000000 0.014018 0.000000
# 2 -0.007657 0.012629 0.000079 0.000000 0.005631 0.000000
# 3 -0.002307 0.000079 0.018678 0.000000 0.007650 0.000000
# 4 0.000000 0.000000 0.000000 0.035092 0.000000 0.002377
# 5 0.014018 0.005631 0.007650 0.000000 0.055130 0.000000
# 6 0.000000 0.000000 0.000000 0.002377 0.000000 0.048909
#
#
# Mechanical properties :
#
#
# Convention : Reuss Voigt Hill
#
# Bulk Modulus (GPa) = 23.07436 39.36560 31.21998
# Shear Modulus (GPa) = 21.14599 25.72286 23.43442
#
# Velocity S-wave (km/s) = 3.12993 3.45208 3.29495
# Velocity P-wave (km/s) = 4.87359 5.84178 5.37951
#
# Compressibility (1/GPa) = 0.04333815
#
# Stress axis : x y z
#
# Youngs Moduli (GPa) = 31.44775 79.18093 53.53827
#
# Poissons Ratio (x) = 0.60627 0.12350
# Poissons Ratio (y) = 0.24079 -0.00425
# Poissons Ratio (z) = 0.07254 -0.00629
#
# Static dielectric constant tensor:
#      x y z
#    x 1.890300 0.000000 -0.069470 
#    y 0.000000 1.824160 0.000000 
#    z -0.069470 0.000000 1.958840 
# 
# From -- ./inp_files/79357.got.cif
#   From: 2010.05.17/outbox.cif.g08.bks.cpg/sg15_40_cif.got.tgz:79357.got - 2010.06.03 18:47:42.
