data_PCOD9273942
_publ_section_title
;
Structure prediction by ZEFSAII (Michael W. Deem and Ramdas Pophale) SiO2 
 PCOD9273942
Probable space group: C 2/C
;
_chemical_formula_sum "Si O2"
_cell_formula_units_Z 56
_cell_length_a 15.774984
_cell_length_b 17.953175
_cell_length_c 27.156456
_cell_angle_alpha 90.000000
_cell_angle_beta 160.288411
_cell_angle_gamma 90.000000
_cell_volume 2594.066983
_symmetry_space_group_name_H-M "C 2/C"
_symmetry_group_IT_number 15
_symmetry_cell_setting 'monoclinic'
loop_
_space_group_symop_operation_xyz
x,y,z
-x,y,1/2-z
-x,-y,-z
x,-y,1/2+z
1/2+x,1/2+y,z
1/2-x,1/2+y,1/2-z
1/2-x,1/2-y,-z
1/2+x,1/2-y,1/2+z
loop_
_atom_site_type_symbol
_atom_site_label
_atom_site_fract_x
_atom_site_fract_y
_atom_site_fract_z
Si Si1 0.703821 0.137851 0.228765
Si Si2 0.000000 0.061777 0.250000
Si Si3 0.274124 0.794126 0.220573
Si Si4 0.485374 0.294622 0.969566
Si Si5 0.000000 0.776232 0.250000
Si Si6 0.776518 0.014442 0.711492
Si Si7 0.114405 0.645702 0.980320
Si Si8 0.623795 0.361534 0.419123
O O1 0.764236 0.205429 0.224071
O O2 0.893637 0.148198 0.378030
O O3 0.716526 0.057615 0.210798
O O4 0.416618 0.149698 0.089751
O O5 0.201023 0.010427 0.332656
O O6 0.122572 0.111819 0.359498
O O7 0.537521 0.828113 0.383615
O O8 0.058135 0.824373 0.139883
O O9 0.200797 0.816123 0.125614
O O10 0.564143 0.218598 0.985385
O O11 0.241136 0.272728 0.868211
O O12 0.064123 0.825699 0.333053
O O13 0.580311 0.080370 0.612416
O O14 0.043478 0.052070 0.871794
#
# Coordination Sequence:
#
# PCOD9273942 Si02
#       8
#     8   4   8   8   4   8   8   8
#     4  11  21  37  59  90 121 154 197 246 299 354
#     4  12  23  36  60  86 112 163 196 230 307 364
#     4  10  20  38  60  89 119 149 197 254 297 339
#     4  11  21  36  64  89 116 156 199 247 302 344
#     4  12  17  32  64  90 122 143 198 242 305 334
#     4  11  23  37  58  87 125 156 191 246 303 358
#     4  10  23  40  56  88 119 149 196 248 297 353
#     4  11  21  35  57  93 123 152 192 251 301 348
#
# _framework density 21.587723
#
# number of rings (size 3 to 8) (size 9 to 14) (size 15 to 20)
#    0.000    1.143    5.714    3.857    0.000    0.000 
#    0.000    9.286    0.000    3.429    0.000    0.000 
#    0.000    0.000    0.000    0.000    0.000    0.000 
#
# Total GULP energy -156599.329892 kJ/mol
# GULP energy per Si atom -5592.833210 kJ/mol
# Density = 2.153859 g / cm^3
# Si number density = 21.587723 Si / 1000 Ang^3
#
#
#
# Elastic Constant Matrix: (Units=GPa)
#
#
# Indices 1 2 3 4 5 6 
#
# 1 65.5628 22.8475 20.1671 -0.0035 -20.0405 -0.0044
# 2 22.8475 78.4500 15.7842 0.0153 -2.3911 0.0024
# 3 20.1671 15.7842 106.4362 -0.0371 -27.9847 0.0127
# 4 -0.0035 0.0153 -0.0371 25.5901 0.0082 6.4909
# 5 -20.0405 -2.3911 -27.9847 0.0082 37.6604 0.0004
# 6 -0.0044 0.0024 0.0127 6.4909 0.0004 21.2881
#
#
#
# Elastic Compliance Matrix: (Units=1/GPa)
#
#
# Indices 1 2 3 4 5 6 
#
# 1 0.020438 -0.005569 -0.000348 0.000001 0.010263 0.000004
# 2 -0.005569 0.014674 -0.002057 -0.000012 -0.003560 0.000002
# 3 -0.000348 -0.002057 0.012035 0.000019 0.008627 -0.000013
# 4 0.000001 -0.000012 0.000019 0.042353 0.000005 -0.012914
# 5 0.010263 -0.003560 0.008627 0.000005 0.038199 -0.000005
# 6 0.000004 0.000002 -0.000013 -0.012914 -0.000005 0.050912
#
#
# Mechanical properties :
#
#
# Convention : Reuss Voigt Hill
#
# Bulk Modulus (GPa) = 32.05370 40.89405 36.47387
# Shear Modulus (GPa) = 24.39513 29.68440 27.03976
#
# Velocity S-wave (km/s) = 3.36526 3.71220 3.54298
# Velocity P-wave (km/s) = 5.47543 6.11214 5.80252
#
# Compressibility (1/GPa) = 0.03119765
#
# Stress axis : x y z
#
# Youngs Moduli (GPa) = 48.92941 68.14623 83.09441
#
# Poissons Ratio (x) = 0.37953 0.02892
# Poissons Ratio (y) = 0.27250 0.17093
# Poissons Ratio (z) = 0.01703 0.14018
#
# Static dielectric constant tensor:
#      x y z
#    x 1.786870 -0.000010 0.016150 
#    y -0.000010 1.764160 -0.000010 
#    z 0.016150 -0.000010 1.870250 
# 
# From -- ./inp_files/316614.got.cif
#   From: 2010.05.17/outbox.cif.g08.bks.cpg/sg15_159_cif.got.tgz:316614.got - 2010.06.03 18:47:42.
