data_PCOD9273669
_publ_section_title
;
Structure prediction by ZEFSAII (Michael W. Deem and Ramdas Pophale) SiO2 
 PCOD9273669
Probable space group: C 2/C
;
_chemical_formula_sum "Si O2"
_cell_formula_units_Z 52
_cell_length_a 11.019332
_cell_length_b 8.633520
_cell_length_c 24.289411
_cell_angle_alpha 90.000000
_cell_angle_beta 112.647954
_cell_angle_gamma 90.000000
_cell_volume 2132.599340
_symmetry_space_group_name_H-M "C 2/C"
_symmetry_group_IT_number 15
_symmetry_cell_setting 'monoclinic'
loop_
_space_group_symop_operation_xyz
x,y,z
-x,y,1/2-z
-x,-y,-z
x,-y,1/2+z
1/2+x,1/2+y,z
1/2-x,1/2+y,1/2-z
1/2-x,1/2-y,-z
1/2+x,1/2-y,1/2+z
loop_
_atom_site_type_symbol
_atom_site_label
_atom_site_fract_x
_atom_site_fract_y
_atom_site_fract_z
Si Si1 0.607660 0.927697 0.724437
Si Si2 0.743317 0.063713 0.649412
Si Si3 0.621886 0.882964 0.018185
Si Si4 0.684916 0.428302 0.654359
Si Si5 0.952702 0.838802 0.553385
Si Si6 0.000000 0.878378 0.250000
Si Si7 0.287919 0.046709 0.561509
O O1 0.500000 0.994805 0.750000
O O2 0.748477 0.967902 0.776490
O O3 0.569157 0.746053 0.720288
O O4 0.629110 0.981020 0.665578
O O5 0.723519 0.045833 0.580587
O O6 0.721109 0.246408 0.655741
O O7 0.888268 0.028938 0.697838
O O8 0.566149 0.723749 0.031736
O O9 0.500000 0.000000 0.000000
O O10 0.664732 0.893025 0.962650
O O11 0.532098 0.439691 0.611696
O O12 0.761417 0.518256 0.620057
O O13 0.841994 0.907184 0.495030
O O14 0.888456 0.688666 0.570993
#
# Coordination Sequence:
#
# PCOD9273669 Si02
#       7
#     8   8   8   8   8   4   8
#     4   9  21  38  59  80 112 155 194 242 287 340
#     4  10  20  38  60  87 115 152 199 237 296 348
#     4   9  20  34  60  85 114 151 185 236 282 348
#     4  10  21  36  61  84 112 155 189 237 287 348
#     4   9  20  36  56  84 121 146 192 233 275 353
#     4   8  20  38  60  82 112 152 188 248 286 346
#     4  10  20  38  57  88 117 151 188 232 294 337
#
# _framework density 24.383388
#
# number of rings (size 3 to 8) (size 9 to 14) (size 15 to 20)
#    0.462    2.154    0.000    0.462    6.462    3.692 
#    0.000   13.846    6.769    0.000    0.000    0.000 
#    0.000    0.000    0.000    0.000    0.000    0.000 
#
# Total GULP energy -145096.840319 kJ/mol
# GULP energy per Si atom -5580.647705 kJ/mol
# Density = 2.432789 g / cm^3
# Si number density = 24.383388 Si / 1000 Ang^3
#
#
#
# Elastic Constant Matrix: (Units=GPa)
#
#
# Indices 1 2 3 4 5 6 
#
# 1 91.7699 15.3750 38.8671 0.0000 4.8301 0.0000
# 2 15.3750 32.0026 -1.4891 0.0000 -15.7890 0.0000
# 3 38.8671 -1.4891 102.5781 0.0000 6.2726 0.0000
# 4 0.0000 0.0000 0.0000 25.4296 0.0000 -6.6868
# 5 4.8301 -15.7890 6.2726 0.0000 48.9926 0.0000
# 6 0.0000 0.0000 0.0000 -6.6868 0.0000 35.6364
#
#
#
# Elastic Compliance Matrix: (Units=1/GPa)
#
#
# Indices 1 2 3 4 5 6 
#
# 1 0.015034 -0.009347 -0.005601 0.000000 -0.003777 0.000000
# 2 -0.009347 0.042970 0.003288 0.000000 0.014349 0.000000
# 3 -0.005601 0.003288 0.011913 0.000000 0.000086 0.000000
# 4 0.000000 0.000000 0.000000 0.041365 0.000000 0.007762
# 5 -0.003777 0.014349 0.000086 0.000000 0.025397 0.000000
# 6 0.000000 0.000000 0.000000 0.007762 0.000000 0.029518
#
#
# Mechanical properties :
#
#
# Convention : Reuss Voigt Hill
#
# Bulk Modulus (GPa) = 21.46051 36.87295 29.16673
# Shear Modulus (GPa) = 24.38441 33.58491 28.98466
#
# Velocity S-wave (km/s) = 3.16577 3.71532 3.45150
# Velocity P-wave (km/s) = 4.70991 5.79308 5.27935
#
# Compressibility (1/GPa) = 0.04659722
#
# Stress axis : x y z
#
# Youngs Moduli (GPa) = 66.51692 23.27201 83.93942
#
# Poissons Ratio (x) = 0.21752 0.47015
# Poissons Ratio (y) = 0.62172 -0.27598
# Poissons Ratio (z) = 0.37256 -0.07652
#
# Static dielectric constant tensor:
#      x y z
#    x 2.042040 0.000000 0.011520 
#    y 0.000000 1.962320 0.000000 
#    z 0.011520 0.000000 1.959260 
# 
# From -- ./inp_files/237195.got.cif
#   From: 2010.05.17/outbox.cif.g08.bks.cpg/sg15_119_cif.got.tgz:237195.got - 2010.06.03 18:47:42.
