data_PCOD9273638
_publ_section_title
;
Structure prediction by ZEFSAII (Michael W. Deem and Ramdas Pophale) SiO2 
 PCOD9273638
Probable space group: C 2/C
;
_chemical_formula_sum "Si O2"
_cell_formula_units_Z 44
_cell_length_a 23.160714
_cell_length_b 15.758101
_cell_length_c 11.740928
_cell_angle_alpha 90.000000
_cell_angle_beta 28.992263
_cell_angle_gamma 90.000000
_cell_volume 2076.938617
_symmetry_space_group_name_H-M "C 2/C"
_symmetry_group_IT_number 15
_symmetry_cell_setting 'monoclinic'
loop_
_space_group_symop_operation_xyz
x,y,z
-x,y,1/2-z
-x,-y,-z
x,-y,1/2+z
1/2+x,1/2+y,z
1/2-x,1/2+y,1/2-z
1/2-x,1/2-y,-z
1/2+x,1/2-y,1/2+z
loop_
_atom_site_type_symbol
_atom_site_label
_atom_site_fract_x
_atom_site_fract_y
_atom_site_fract_z
Si Si1 0.886144 0.230335 0.302059
Si Si2 0.302791 0.159342 0.445302
Si Si3 0.123483 0.479316 0.852643
Si Si4 0.741525 0.641809 0.795123
Si Si5 0.963083 0.760778 0.429310
Si Si6 0.000000 0.376980 0.250000
O O1 0.750000 0.250000 0.500000
O O2 0.870881 0.168879 0.436352
O O3 0.945203 0.316219 0.247748
O O4 0.956108 0.200366 0.068107
O O5 0.250000 0.250000 0.500000
O O6 0.304586 0.089265 0.344832
O O7 0.233012 0.124883 0.675775
O O8 0.441482 0.183324 0.230685
O O9 0.194700 0.564902 0.751472
O O10 0.000000 0.500000 0.000000
O O11 0.093606 0.436648 0.025263
O O12 0.832515 0.721854 0.636241
O O13 0.000000 0.810004 0.250000
#
# Coordination Sequence:
#
# PCOD9273638 Si02
#       6
#     8   8   8   8   8   4
#     4  10  20  38  56  91 122 161 205 254 304 372
#     4  11  21  36  56  89 125 160 201 247 314 377
#     4  12  21  36  58  93 124 156 199 265 317 361
#     4  10  21  34  57  87 123 157 195 256 313 362
#     4   9  18  35  56  81 119 159 194 250 307 368
#     4  12  22  34  64  94 120 160 210 250 314 378
#
# _framework density 21.185026000000001
#
# number of rings (size 3 to 8) (size 9 to 14) (size 15 to 20)
#    0.000    1.455    3.636    3.273    1.273    0.000 
#    0.000    0.000    0.000    1.091   16.545    0.000 
#    0.000    0.000    0.000    0.000    0.000    0.000 
#
# Total GULP energy -122745.307714 kJ/mol
# GULP energy per Si atom -5579.332169 kJ/mol
# Density = 2.113681 g / cm^3
# Si number density = 21.185026 Si / 1000 Ang^3
#
#
#
# Elastic Constant Matrix: (Units=GPa)
#
#
# Indices 1 2 3 4 5 6 
#
# 1 48.3820 9.5824 41.8741 0.0000 13.0907 0.0000
# 2 9.5824 62.3494 37.2795 0.0000 10.8221 0.0000
# 3 41.8741 37.2795 157.1855 0.0000 63.0937 0.0000
# 4 0.0000 0.0000 0.0000 29.2461 0.0000 -1.5262
# 5 13.0907 10.8221 63.0937 0.0000 56.4771 0.0000
# 6 0.0000 0.0000 0.0000 -1.5262 0.0000 8.1578
#
#
#
# Elastic Compliance Matrix: (Units=1/GPa)
#
#
# Indices 1 2 3 4 5 6 
#
# 1 0.027196 0.000433 -0.008674 0.000000 0.003303 0.000000
# 2 0.000433 0.018890 -0.005624 0.000000 0.002563 0.000000
# 3 -0.008674 -0.005624 0.015894 0.000000 -0.014668 0.000000
# 4 0.000000 0.000000 0.000000 0.034530 0.000000 0.006460
# 5 0.003303 0.002563 -0.014668 0.000000 0.032836 0.000000
# 6 0.000000 0.000000 0.000000 0.006460 0.000000 0.123790
#
#
# Mechanical properties :
#
#
# Convention : Reuss Voigt Hill
#
# Bulk Modulus (GPa) = 29.19647 49.48766 39.34207
# Shear Modulus (GPa) = 17.10669 30.72161 23.91415
#
# Velocity S-wave (km/s) = 2.84472 3.81222 3.36344
# Velocity P-wave (km/s) = 4.95999 6.54124 5.80471
#
# Compressibility (1/GPa) = 0.03425071
#
# Stress axis : x y z
#
# Youngs Moduli (GPa) = 36.76969 52.93792 62.91614
#
# Poissons Ratio (x) = -0.02292 0.54571
# Poissons Ratio (y) = -0.01592 0.35386
# Poissons Ratio (z) = 0.31892 0.29774
#
# Static dielectric constant tensor:
#      x y z
#    x 1.857340 0.000000 0.032130 
#    y 0.000000 1.718320 0.000000 
#    z 0.032130 0.000000 1.816890 
# 
# From -- ./inp_files/86115.got.cif
#   From: 2010.05.17/outbox.cif.g08.bks.cpg/sg15_44_cif.got.tgz:86115.got - 2010.06.03 18:47:42.
