data_PCOD9273721
_publ_section_title
;
Structure prediction by ZEFSAII (Michael W. Deem and Ramdas Pophale) SiO2 
 PCOD9273721
Probable space group: C 2/C
;
_chemical_formula_sum "Si O2"
_cell_formula_units_Z 64
_cell_length_a 28.070836
_cell_length_b 8.666259
_cell_length_c 13.808623
_cell_angle_alpha 90.000000
_cell_angle_beta 114.244135
_cell_angle_gamma 90.000000
_cell_volume 3062.943006
_symmetry_space_group_name_H-M "C 2/C"
_symmetry_group_IT_number 15
_symmetry_cell_setting 'monoclinic'
loop_
_space_group_symop_operation_xyz
x,y,z
-x,y,1/2-z
-x,-y,-z
x,-y,1/2+z
1/2+x,1/2+y,z
1/2-x,1/2+y,1/2-z
1/2-x,1/2-y,-z
1/2+x,1/2-y,1/2+z
loop_
_atom_site_type_symbol
_atom_site_label
_atom_site_fract_x
_atom_site_fract_y
_atom_site_fract_z
Si Si1 0.123399 0.163668 0.485076
Si Si2 0.174671 0.489889 0.805688
Si Si3 0.437864 0.079354 0.872970
Si Si4 0.182781 0.845571 0.843783
Si Si5 0.887858 0.881523 0.904513
Si Si6 0.548675 0.055707 0.906543
Si Si7 0.139702 0.656711 0.457330
Si Si8 0.295890 0.903890 0.873584
O O1 0.149859 0.099799 0.408824
O O2 0.081187 0.289651 0.413291
O O3 0.171305 0.248594 0.580236
O O4 0.097374 0.047841 0.540742
O O5 0.116289 0.524647 0.717965
O O6 0.189732 0.658620 0.858649
O O7 0.170327 0.358366 0.882929
O O8 0.209423 0.437912 0.744626
O O9 0.430664 0.255390 0.905495
O O10 0.486689 0.067251 0.841781
O O11 0.446485 0.971758 0.973215
O O12 0.151623 0.884593 0.718996
O O13 0.240800 0.908162 0.880571
O O14 0.862211 0.807121 0.979484
O O15 0.581222 0.911404 0.891287
O O16 0.167426 0.534592 0.551061
#
# Coordination Sequence:
#
# PCOD9273721 Si02
#       8
#     8   8   8   8   8   8   8   8
#     4  11  22  39  59  87 117 159 193 242 297 357
#     4  11  20  39  62  88 116 152 203 245 287 349
#     4   9  18  37  61  89 115 153 191 247 288 347
#     4  11  23  38  61  84 116 161 195 241 298 345
#     4  10  23  39  55  88 129 143 195 249 291 349
#     4   9  17  36  64  85 113 155 197 233 299 343
#     4  10  20  38  58  88 116 155 198 249 282 347
#     4  11  22  38  60  83 115 155 203 241 287 349
#
# _framework density 20.894936000000001
#
# number of rings (size 3 to 8) (size 9 to 14) (size 15 to 20)
#    0.000    1.750    7.500    0.375    1.750    2.000 
#    0.000    1.250    0.000    0.000    6.500    0.000 
#    0.000    0.000    0.000    0.000    0.000    0.000 
#
# Total GULP energy -178485.689911 kJ/mol
# GULP energy per Si atom -5577.677810 kJ/mol
# Density = 2.084738 g / cm^3
# Si number density = 20.894936 Si / 1000 Ang^3
#
#
#
# Elastic Constant Matrix: (Units=GPa)
#
#
# Indices 1 2 3 4 5 6 
#
# 1 94.2475 -4.6433 12.4635 0.0000 -12.7390 0.0000
# 2 -4.6433 25.7222 13.1497 0.0000 -2.7065 0.0000
# 3 12.4635 13.1497 41.9245 0.0000 -19.5198 0.0000
# 4 0.0000 0.0000 0.0000 23.2823 0.0000 -11.4312
# 5 -12.7390 -2.7065 -19.5198 0.0000 30.7264 0.0000
# 6 0.0000 0.0000 0.0000 -11.4312 0.0000 14.3150
#
#
#
# Elastic Compliance Matrix: (Units=1/GPa)
#
#
# Indices 1 2 3 4 5 6 
#
# 1 0.011672 0.004133 -0.003328 0.000000 0.003089 0.000000
# 2 0.004133 0.048951 -0.019563 0.000000 -0.006403 0.000000
# 3 -0.003328 -0.019563 0.041937 0.000000 0.023539 0.000000
# 4 0.000000 0.000000 0.000000 0.070652 0.000000 0.056419
# 5 0.003089 -0.006403 0.023539 0.000000 0.048216 0.000000
# 6 0.000000 0.000000 0.000000 0.056419 0.000000 0.114910
#
#
# Mechanical properties :
#
#
# Convention : Reuss Voigt Hill
#
# Bulk Modulus (GPa) = 15.37432 22.64823 19.01127
# Shear Modulus (GPa) = 12.64115 23.05969 17.85042
#
# Velocity S-wave (km/s) = 2.46232 3.32565 2.92600
# Velocity P-wave (km/s) = 3.93165 5.06056 4.53140
#
# Compressibility (1/GPa) = 0.06504353
#
# Stress axis : x y z
#
# Youngs Moduli (GPa) = 85.67795 20.42876 23.84507
#
# Poissons Ratio (x) = -0.08444 0.07936
# Poissons Ratio (y) = -0.35414 0.46649
# Poissons Ratio (z) = 0.28514 0.39965
#
# Static dielectric constant tensor:
#      x y z
#    x 1.766630 0.000000 -0.013260 
#    y 0.000000 1.791270 0.000000 
#    z -0.013260 0.000000 1.785170 
# 
# From -- ./inp_files/176634.got.cif
#   From: 2010.05.17/outbox.cif.g08.bks.cpg/sg15_89_cif.got.tgz:176634.got - 2010.06.03 18:47:42.
