data_PCOD9273159
_publ_section_title
;
Structure prediction by ZEFSAII (Michael W. Deem and Ramdas Pophale) SiO2 
 PCOD9273159
Probable space group: C 2/C
;
_chemical_formula_sum "Si O2"
_cell_formula_units_Z 60
_cell_length_a 22.611756
_cell_length_b 25.675316
_cell_length_c 9.196233
_cell_angle_alpha 90.000000
_cell_angle_beta 147.727828
_cell_angle_gamma 90.000000
_cell_volume 2850.715883
_symmetry_space_group_name_H-M "C 2/C"
_symmetry_group_IT_number 15
_symmetry_cell_setting 'monoclinic'
loop_
_space_group_symop_operation_xyz
x,y,z
-x,y,1/2-z
-x,-y,-z
x,-y,1/2+z
1/2+x,1/2+y,z
1/2-x,1/2+y,1/2-z
1/2-x,1/2-y,-z
1/2+x,1/2-y,1/2+z
loop_
_atom_site_type_symbol
_atom_site_label
_atom_site_fract_x
_atom_site_fract_y
_atom_site_fract_z
Si Si1 0.069405 0.237661 0.151241
Si Si2 0.726375 0.128115 0.199316
Si Si3 0.270336 0.824503 0.115604
Si Si4 0.389308 0.027290 0.615717
Si Si5 0.812746 0.560740 0.768021
Si Si6 0.047842 0.138606 0.696448
Si Si7 0.049383 0.952447 0.693220
Si Si8 0.000000 0.687502 0.750000
O O1 0.156064 0.202337 0.424806
O O2 0.142622 0.277237 0.207054
O O3 0.004489 0.275555 0.121051
O O4 0.993315 0.197162 0.910954
O O5 0.754707 0.155080 0.102376
O O6 0.705913 0.066902 0.137256
O O7 0.820696 0.137528 0.512214
O O8 0.608327 0.152686 0.988173
O O9 0.315214 0.876523 0.284325
O O10 0.386760 0.040107 0.783611
O O11 0.353649 0.969320 0.496072
O O12 0.500000 0.038352 0.750000
O O13 0.683203 0.547786 0.470159
O O14 0.000000 0.118337 0.750000
O O15 0.997571 0.101114 0.471176
O O16 0.000000 0.957315 0.750000
O O17 0.000000 0.000000 0.500000
#
# Coordination Sequence:
#
# PCOD9273159 Si02
#       8
#     8   8   8   8   8   8   8   4
#     4  10  20  37  63  87 123 169 218 261 325 385
#     4  10  20  39  63  91 124 167 220 261 322 394
#     4   9  19  39  63  85 121 174 214 255 322 397
#     4  11  22  40  66  93 125 169 214 263 321 394
#     4  11  22  41  65  93 128 168 212 266 328 391
#     4  12  22  39  66  97 129 169 221 273 325 397
#     4  12  25  42  66  98 137 174 215 271 337 396
#     4  10  22  38  64  90 126 172 216 272 326 390
#
# _framework density 21.047345
#
# number of rings (size 3 to 8) (size 9 to 14) (size 15 to 20)
#    0.000    1.333    3.333    3.200    0.933    0.533 
#    0.000    0.667    2.933    0.000    0.000    0.000 
#    0.000    0.000    0.000    0.000    0.000    0.000 
#
# Total GULP energy -167557.155937 kJ/mol
# GULP energy per Si atom -5585.238531 kJ/mol
# Density = 2.099944 g / cm^3
# Si number density = 21.047345 Si / 1000 Ang^3
#
#
#
# Elastic Constant Matrix: (Units=GPa)
#
#
# Indices 1 2 3 4 5 6 
#
# 1 70.7108 4.6029 10.3397 0.0000 3.5013 0.0000
# 2 4.6029 128.6956 16.4632 0.0000 -9.2539 0.0000
# 3 10.3397 16.4632 53.9876 0.0000 7.2132 0.0000
# 4 0.0000 0.0000 0.0000 26.7341 0.0000 -2.5453
# 5 3.5013 -9.2539 7.2132 0.0000 24.5878 0.0000
# 6 0.0000 0.0000 0.0000 -2.5453 0.0000 -1.8387
#
#
#
# Elastic Compliance Matrix: (Units=1/GPa)
#
#
# Indices 1 2 3 4 5 6 
#
# 1 0.014601 -0.000306 -0.002508 0.000000 -0.001459 0.000000
# 2 -0.000306 0.008472 -0.003077 0.000000 0.004135 0.000000
# 3 -0.002508 -0.003077 0.020866 0.000000 -0.006923 0.000000
# 4 0.000000 0.000000 0.000000 0.033050 0.000000 -0.045751
# 5 -0.001459 0.004135 -0.006923 0.000000 0.044465 0.000000
# 6 0.000000 0.000000 0.000000 -0.045751 0.000000 -0.480542
#
#
# Mechanical properties :
#
#
# Convention : Reuss Voigt Hill
#
# Bulk Modulus (GPa) = 31.09817 35.13396 33.11606
# Shear Modulus (GPa) = -14.85507 24.69587 4.92040
#
# Velocity S-wave (km/s) = -2.65956 3.42913 1.53064
# Velocity P-wave (km/s) = 2.31871 5.69277 4.34650
#
# Compressibility (1/GPa) = 0.03215624
#
# Stress axis : x y z
#
# Youngs Moduli (GPa) = 68.48841 118.03273 47.92378
#
# Poissons Ratio (x) = 0.03615 0.12020
# Poissons Ratio (y) = 0.02098 0.14748
# Poissons Ratio (z) = 0.17178 0.36323
#
# Static dielectric constant tensor:
#      x y z
#    x 1.816750 0.000000 -0.012940 
#    y 0.000000 1.753260 0.000000 
#    z -0.012940 0.000000 1.778650 
# 
# From -- ./inp_files/58779.got.cif
#   From: 2010.05.17/outbox.cif.g08.bks.cpg/sg15_30_cif.got.tgz:58779.got - 2010.06.03 18:47:42.
