data_PCOD9273853
_publ_section_title
;
Structure prediction by ZEFSAII (Michael W. Deem and Ramdas Pophale) SiO2 
 PCOD9273853
Probable space group: C 2/C
;
_chemical_formula_sum "Si O2"
_cell_formula_units_Z 48
_cell_length_a 12.226515
_cell_length_b 31.632455
_cell_length_c 5.087629
_cell_angle_alpha 90.000000
_cell_angle_beta 94.263861
_cell_angle_gamma 90.000000
_cell_volume 1962.218307
_symmetry_space_group_name_H-M "C 2/C"
_symmetry_group_IT_number 15
_symmetry_cell_setting 'monoclinic'
loop_
_space_group_symop_operation_xyz
x,y,z
-x,y,1/2-z
-x,-y,-z
x,-y,1/2+z
1/2+x,1/2+y,z
1/2-x,1/2+y,1/2-z
1/2-x,1/2-y,-z
1/2+x,1/2-y,1/2+z
loop_
_atom_site_type_symbol
_atom_site_label
_atom_site_fract_x
_atom_site_fract_y
_atom_site_fract_z
Si Si1 0.681415 0.631809 0.281987
Si Si2 0.097147 0.298292 0.971550
Si Si3 0.180203 0.524771 0.841390
Si Si4 0.323735 0.118655 0.796975
Si Si5 0.429092 0.549785 0.997186
Si Si6 0.819690 0.222646 0.219107
O O1 0.724190 0.620838 0.995427
O O2 0.609626 0.593511 0.376092
O O3 0.627610 0.677423 0.332933
O O4 0.784922 0.631715 0.499385
O O5 0.094848 0.344710 0.095553
O O6 0.221605 0.294158 0.887531
O O7 0.000000 0.294693 0.750000
O O8 0.098645 0.256244 0.145120
O O9 0.146664 0.489136 0.626479
O O10 0.140769 0.570134 0.727714
O O11 0.313579 0.528547 0.890867
O O12 0.500000 0.558260 0.750000
O O13 0.500000 0.528834 0.250000
O O14 0.750000 0.250000 0.000000
#
# Coordination Sequence:
#
# PCOD9273853 Si02
#       6
#     8   8   8   8   8   8
#     4  10  20  38  60  81 123 169 208 247 308 364
#     4  10  22  40  64  94 125 167 217 260 316 376
#     4  11  22  37  60  85 114 159 208 256 324 389
#     4  10  20  39  63  85 117 159 204 257 308 377
#     4  11  22  37  54  86 124 162 208 258 312 378
#     4  10  20  40  62  89 130 168 207 267 307 367
#
# _framework density 24.462112999999999
#
# number of rings (size 3 to 8) (size 9 to 14) (size 15 to 20)
#    0.000    1.667    1.667    5.000    0.000    2.667 
#    3.000    0.000    0.000    1.000    0.000    0.000 
#    0.000    0.000    0.000    0.000    0.000    0.000 
#
# Total GULP energy -134037.958172 kJ/mol
# GULP energy per Si atom -5584.914924 kJ/mol
# Density = 2.440644 g / cm^3
# Si number density = 24.462113 Si / 1000 Ang^3
#
#
#
# Elastic Constant Matrix: (Units=GPa)
#
#
# Indices 1 2 3 4 5 6 
#
# 1 69.3647 14.1722 23.8292 0.0000 4.1140 0.0000
# 2 14.1722 199.4958 37.4488 0.0000 17.3484 0.0000
# 3 23.8292 37.4488 98.2232 0.0000 5.7755 0.0000
# 4 0.0000 0.0000 0.0000 45.3355 0.0000 -11.8019
# 5 4.1140 17.3484 5.7755 0.0000 46.9621 0.0000
# 6 0.0000 0.0000 0.0000 -11.8019 0.0000 -75.0876
#
#
#
# Elastic Compliance Matrix: (Units=1/GPa)
#
#
# Indices 1 2 3 4 5 6 
#
# 1 0.015791 -0.000368 -0.003643 0.000000 -0.000799 0.000000
# 2 -0.000368 0.005555 -0.001924 0.000000 -0.001783 0.000000
# 3 -0.003643 -0.001924 0.011823 0.000000 -0.000424 0.000000
# 4 0.000000 0.000000 0.000000 0.021191 0.000000 -0.003331
# 5 -0.000799 -0.001783 -0.000424 0.000000 0.022075 0.000000
# 6 0.000000 0.000000 0.000000 -0.003331 0.000000 -0.012794
#
#
# Mechanical properties :
#
#
# Convention : Reuss Voigt Hill
#
# Bulk Modulus (GPa) = 46.95275 57.55380 52.25327
# Shear Modulus (GPa) = 60.52495 22.88424 41.70460
#
# Velocity S-wave (km/s) = 4.97956 3.06191 4.13348
# Velocity P-wave (km/s) = 7.23167 6.00660 6.64742
#
# Compressibility (1/GPa) = 0.02129801
#
# Stress axis : x y z
#
# Youngs Moduli (GPa) = 63.32772 180.01849 84.57954
#
# Poissons Ratio (x) = 0.06631 0.30816
# Poissons Ratio (y) = 0.02333 0.16271
# Poissons Ratio (z) = 0.23073 0.34630
#
# Static dielectric constant tensor:
#      x y z
#    x 2.006560 0.000000 -0.028710 
#    y 0.000000 2.071850 0.000000 
#    z -0.028710 0.000000 1.962710 
# 
# From -- ./inp_files/8841.got.cif
#   From: 2010.05.17/outbox.cif.g08.bks.cpg/sg15_5_cif.got.tgz:8841.got - 2010.06.03 18:47:42.
