data_PCOD9273413
_publ_section_title
;
Structure prediction by ZEFSAII (Michael W. Deem and Ramdas Pophale) SiO2 
 PCOD9273413
Probable space group: C 2/C
;
_chemical_formula_sum "Si O2"
_cell_formula_units_Z 52
_cell_length_a 18.197680
_cell_length_b 15.737215
_cell_length_c 9.373207
_cell_angle_alpha 90.000000
_cell_angle_beta 53.095492
_cell_angle_gamma 90.000000
_cell_volume 2146.471947
_symmetry_space_group_name_H-M "C 2/C"
_symmetry_group_IT_number 15
_symmetry_cell_setting 'monoclinic'
loop_
_space_group_symop_operation_xyz
x,y,z
-x,y,1/2-z
-x,-y,-z
x,-y,1/2+z
1/2+x,1/2+y,z
1/2-x,1/2+y,1/2-z
1/2-x,1/2-y,-z
1/2+x,1/2-y,1/2+z
loop_
_atom_site_type_symbol
_atom_site_label
_atom_site_fract_x
_atom_site_fract_y
_atom_site_fract_z
Si Si1 0.216524 0.333827 0.114143
Si Si2 0.173510 0.921040 0.739941
Si Si3 0.413234 0.067458 0.241421
Si Si4 0.721893 0.343331 0.980710
Si Si5 0.133428 0.112609 0.852582
Si Si6 0.500000 0.370539 0.750000
Si Si7 0.968041 0.380986 0.127081
O O1 0.273855 0.352692 0.186590
O O2 0.113743 0.316145 0.284340
O O3 0.250000 0.250000 0.000000
O O4 0.238033 0.407154 0.969189
O O5 0.193304 0.858656 0.850142
O O6 0.089342 0.908013 0.727893
O O7 0.146577 0.010598 0.844848
O O8 0.500000 0.069912 0.250000
O O9 0.312588 0.097253 0.403508
O O10 0.417331 0.972904 0.168116
O O11 0.447893 0.128816 0.075340
O O12 0.750000 0.250000 0.000000
O O13 0.636817 0.368625 0.181359
O O14 0.054510 0.156142 0.040578
O O15 0.000000 0.378879 0.250000
#
# Coordination Sequence:
#
# PCOD9273413 Si02
#       7
#     8   8   8   8   8   4   8
#     4  11  23  42  63  97 140 182 230 283 365 433
#     4  11  23  43  71  98 134 185 240 286 339 414
#     4  10  21  39  63  96 131 173 226 279 344 408
#     4  12  25  43  66 105 144 180 226 291 368 417
#     4  11  23  43  69  95 134 186 236 288 337 414
#     4  10  24  44  68 100 126 176 242 286 334 406
#     4  10  20  37  65  92 124 172 230 282 326 413
#
# _framework density 24.225801000000001
#
# number of rings (size 3 to 8) (size 9 to 14) (size 15 to 20)
#    0.000    1.231    0.000    6.923    0.000    3.077 
#   13.846    0.000    0.000    0.000    0.000    0.000 
#    0.000    0.000    0.000    0.000    0.000    0.000 
#
# Total GULP energy -144923.138982 kJ/mol
# GULP energy per Si atom -5573.966884 kJ/mol
# Density = 2.417066 g / cm^3
# Si number density = 24.225801 Si / 1000 Ang^3
#
#
#
# Elastic Constant Matrix: (Units=GPa)
#
#
# Indices 1 2 3 4 5 6 
#
# 1 79.6239 11.8627 10.5373 0.0000 7.5698 0.0000
# 2 11.8627 67.2425 -11.0004 0.0000 4.9437 0.0000
# 3 10.5373 -11.0004 148.9718 0.0000 0.5663 0.0000
# 4 0.0000 0.0000 0.0000 30.3416 0.0000 1.3977
# 5 7.5698 4.9437 0.5663 0.0000 43.6238 0.0000
# 6 0.0000 0.0000 0.0000 1.3977 0.0000 13.1028
#
#
#
# Elastic Compliance Matrix: (Units=1/GPa)
#
#
# Indices 1 2 3 4 5 6 
#
# 1 0.013250 -0.002370 -0.001105 0.000000 -0.002016 0.000000
# 2 -0.002370 0.015608 0.001325 0.000000 -0.001375 0.000000
# 3 -0.001105 0.001325 0.006889 0.000000 -0.000048 0.000000
# 4 0.000000 0.000000 0.000000 0.033121 0.000000 -0.003533
# 5 -0.002016 -0.001375 -0.000048 0.000000 0.023430 0.000000
# 6 0.000000 0.000000 0.000000 -0.003533 0.000000 0.076696
#
#
# Mechanical properties :
#
#
# Convention : Reuss Voigt Hill
#
# Bulk Modulus (GPa) = 31.79849 35.40415 33.60132
# Shear Modulus (GPa) = 27.20730 36.37622 31.79176
#
# Velocity S-wave (km/s) = 3.35486 3.87919 3.62651
# Velocity P-wave (km/s) = 5.30671 5.89153 5.60675
#
# Compressibility (1/GPa) = 0.03144803
#
# Stress axis : x y z
#
# Youngs Moduli (GPa) = 75.47171 64.07162 145.16191
#
# Poissons Ratio (x) = 0.15185 0.16034
# Poissons Ratio (y) = 0.17887 -0.19239
# Poissons Ratio (z) = 0.08336 -0.08492
#
# Static dielectric constant tensor:
#      x y z
#    x 1.884280 0.000000 -0.024220 
#    y 0.000000 2.053620 0.000000 
#    z -0.024220 0.000000 1.981230 
# 
# From -- ./inp_files/48956.got.cif
#   From: 2010.05.17/outbox.cif.g08.bks.cpg/sg15_25_cif.got.tgz:48956.got - 2010.06.03 18:47:42.
