data_PCOD9273113
_publ_section_title
;
Structure prediction by ZEFSAII (Michael W. Deem and Ramdas Pophale) SiO2 
 PCOD9273113
Probable space group: C 2/C
;
_chemical_formula_sum "Si O2"
_cell_formula_units_Z 40
_cell_length_a 13.693480
_cell_length_b 18.834566
_cell_length_c 5.566618
_cell_angle_alpha 90.000000
_cell_angle_beta 77.360839
_cell_angle_gamma 90.000000
_cell_volume 1400.900173
_symmetry_space_group_name_H-M "C 2/C"
_symmetry_group_IT_number 15
_symmetry_cell_setting 'monoclinic'
loop_
_space_group_symop_operation_xyz
x,y,z
-x,y,1/2-z
-x,-y,-z
x,-y,1/2+z
1/2+x,1/2+y,z
1/2-x,1/2+y,1/2-z
1/2-x,1/2-y,-z
1/2+x,1/2-y,1/2+z
loop_
_atom_site_type_symbol
_atom_site_label
_atom_site_fract_x
_atom_site_fract_y
_atom_site_fract_z
Si Si1 0.000000 0.329478 0.750000
Si Si2 0.108361 0.172135 0.572666
Si Si3 0.500000 0.820355 0.250000
Si Si4 0.368827 0.464404 0.693115
Si Si5 0.710826 0.800896 0.235979
Si Si6 0.870603 0.535383 0.226355
O O1 0.090254 0.385652 0.733218
O O2 0.982778 0.284957 0.517106
O O3 0.106198 0.118130 0.353104
O O4 0.197171 0.152840 0.715753
O O5 0.159401 0.245550 0.451565
O O6 0.000000 0.165165 0.750000
O O7 0.613009 0.849282 0.227694
O O8 0.402176 0.504125 0.429713
O O9 0.248283 0.466728 0.737331
O O10 0.750000 0.750000 0.000000
O O11 0.904841 0.492776 0.446597
#
# Coordination Sequence:
#
# PCOD9273113 Si02
#       6
#     4   8   4   8   8   8
#     4  12  24  39  66 102 142 183 240 296 370 434
#     4  11  26  48  78 110 151 198 251 318 378 450
#     4  12  28  43  72 106 142 183 240 304 366 448
#     4  10  24  44  70 106 146 194 248 304 373 447
#     4  11  27  47  76 106 150 197 252 310 385 449
#     4  10  20  37  62  93 140 186 237 290 354 430
#
# _framework density 28.553072
#
# number of rings (size 3 to 8) (size 9 to 14) (size 15 to 20)
#    0.000    1.200    0.000    4.200   12.600    2.400 
#    0.000    0.000    0.000    0.000    0.000    0.000 
#    0.000    0.000    0.000    0.000    0.000    0.000 
#
# Total GULP energy -111640.245042 kJ/mol
# GULP energy per Si atom -5582.012252 kJ/mol
# Density = 2.848808 g / cm^3
# Si number density = 28.553072 Si / 1000 Ang^3
#
#
#
# Elastic Constant Matrix: (Units=GPa)
#
#
# Indices 1 2 3 4 5 6 
#
# 1 248.1696 13.9431 61.9174 0.0000 -11.7095 0.0000
# 2 13.9431 94.6129 14.3273 0.0000 6.1091 0.0000
# 3 61.9174 14.3273 164.9705 0.0000 15.9934 0.0000
# 4 0.0000 0.0000 0.0000 151.6918 0.0000 -14.5861
# 5 -11.7095 6.1091 15.9934 0.0000 49.8422 0.0000
# 6 0.0000 0.0000 0.0000 -14.5861 0.0000 11.2413
#
#
#
# Elastic Compliance Matrix: (Units=1/GPa)
#
#
# Indices 1 2 3 4 5 6 
#
# 1 0.004602 -0.000510 -0.001851 0.000000 0.001738 0.000000
# 2 -0.000510 0.010820 -0.000628 0.000000 -0.001245 0.000000
# 3 -0.001851 -0.000628 0.007066 0.000000 -0.002625 0.000000
# 4 0.000000 0.000000 0.000000 0.007532 0.000000 0.009773
# 5 0.001738 -0.001245 -0.002625 0.000000 0.021467 0.000000
# 6 0.000000 0.000000 0.000000 0.009773 0.000000 0.101639
#
#
# Mechanical properties :
#
#
# Convention : Reuss Voigt Hill
#
# Bulk Modulus (GPa) = 60.57134 76.45872 68.51503
# Shear Modulus (GPa) = 30.37549 70.39274 50.38412
#
# Velocity S-wave (km/s) = 3.26517 4.97060 4.20524
# Velocity P-wave (km/s) = 5.95607 7.73164 6.90120
#
# Compressibility (1/GPa) = 0.01650946
#
# Stress axis : x y z
#
# Youngs Moduli (GPa) = 217.29294 92.42184 141.53079
#
# Poissons Ratio (x) = 0.04714 0.26204
# Poissons Ratio (y) = 0.11083 0.08882
# Poissons Ratio (z) = 0.40231 0.05800
#
# Static dielectric constant tensor:
#      x y z
#    x 2.336080 0.000000 -0.033940 
#    y 0.000000 2.247910 0.000000 
#    z -0.033940 0.000000 1.418410 
# 
# From -- ./inp_files/7527.got.cif
#   From: 2010.05.17/outbox.cif.g08.bks.cpg/sg15_4_cif.got.tgz:7527.got - 2010.06.03 18:47:42.
