data_PCOD9273152
_publ_section_title
;
Structure prediction by ZEFSAII (Michael W. Deem and Ramdas Pophale) SiO2 
 PCOD9273152
Probable space group: C 2/C
;
_chemical_formula_sum "Si O2"
_cell_formula_units_Z 48
_cell_length_a 10.934334
_cell_length_b 14.273934
_cell_length_c 28.106936
_cell_angle_alpha 90.000000
_cell_angle_beta 26.918583
_cell_angle_gamma 90.000000
_cell_volume 1986.017048
_symmetry_space_group_name_H-M "C 2/C"
_symmetry_group_IT_number 15
_symmetry_cell_setting 'monoclinic'
loop_
_space_group_symop_operation_xyz
x,y,z
-x,y,1/2-z
-x,-y,-z
x,-y,1/2+z
1/2+x,1/2+y,z
1/2-x,1/2+y,1/2-z
1/2-x,1/2-y,-z
1/2+x,1/2-y,1/2+z
loop_
_atom_site_type_symbol
_atom_site_label
_atom_site_fract_x
_atom_site_fract_y
_atom_site_fract_z
Si Si1 0.617289 0.965857 0.508817
Si Si2 0.274089 0.547715 0.197927
Si Si3 0.319505 0.263812 0.739924
Si Si4 0.454302 0.911532 0.149508
Si Si5 0.453515 0.601948 0.038076
Si Si6 0.574825 0.757139 0.925793
O O1 0.579659 0.854989 0.522051
O O2 0.500000 0.000000 0.500000
O O3 0.437483 0.014870 0.612677
O O4 0.926139 0.000122 0.405458
O O5 0.257173 0.635968 0.239115
O O6 0.088855 0.467096 0.285831
O O7 0.256069 0.587441 0.150479
O O8 0.279108 0.181861 0.714904
O O9 0.151700 0.236022 0.844807
O O10 0.633119 0.268201 0.649182
O O11 0.757394 0.872512 0.039834
O O12 0.411095 0.677247 0.011215
O O13 0.500000 0.500000 0.000000
#
# Coordination Sequence:
#
# PCOD9273152 Si02
#       6
#     8   8   8   8   8   8
#     4  11  22  36  62  92 127 158 200 258 311 368
#     4  11  22  39  62  91 124 163 204 255 311 365
#     4  10  20  37  63  86 120 165 201 247 313 369
#     4  10  23  40  61  90 123 160 206 256 303 372
#     4  10  23  41  64  87 120 166 209 251 303 370
#     4  10  20  38  62  90 120 162 204 251 305 371
#
# _framework density 24.168976000000001
#
# number of rings (size 3 to 8) (size 9 to 14) (size 15 to 20)
#    0.000    1.667    3.333    1.000    2.333    4.667 
#    3.000    2.500    0.000    0.000    0.000    0.000 
#    0.000    0.000    0.000    0.000    0.000    0.000 
#
# Total GULP energy -134182.388363 kJ/mol
# GULP energy per Si atom -5590.932848 kJ/mol
# Density = 2.411397 g / cm^3
# Si number density = 24.168976 Si / 1000 Ang^3
#
#
#
# Elastic Constant Matrix: (Units=GPa)
#
#
# Indices 1 2 3 4 5 6 
#
# 1 54.1005 26.9948 38.4266 -0.0158 17.9000 0.0163
# 2 26.9948 170.3019 56.2089 -0.0008 15.9258 0.0092
# 3 38.4266 56.2089 157.1079 0.0306 21.5907 0.0077
# 4 -0.0158 -0.0008 0.0306 44.4189 -0.0302 13.2768
# 5 17.9000 15.9258 21.5907 -0.0302 32.6588 -0.0071
# 6 0.0163 0.0092 0.0077 13.2768 -0.0071 41.1689
#
#
#
# Elastic Compliance Matrix: (Units=1/GPa)
#
#
# Indices 1 2 3 4 5 6 
#
# 1 0.025844 -0.001705 -0.004266 0.000009 -0.010513 -0.000014
# 2 -0.001705 0.006873 -0.001880 0.000000 -0.001174 -0.000001
# 3 -0.004266 -0.001880 0.008397 -0.000010 -0.002296 0.000003
# 4 0.000009 0.000000 -0.000010 0.024915 0.000023 -0.008035
# 5 -0.010513 -0.001174 -0.002296 0.000023 0.038472 0.000004
# 6 -0.000014 -0.000001 0.000003 -0.008035 0.000004 0.026881
#
#
# Mechanical properties :
#
#
# Convention : Reuss Voigt Hill
#
# Bulk Modulus (GPa) = 39.35608 69.41897 54.38753
# Shear Modulus (GPa) = 32.14316 40.97466 36.55891
#
# Velocity S-wave (km/s) = 3.65078 4.12192 3.89348
# Velocity P-wave (km/s) = 5.83867 7.17205 6.53943
#
# Compressibility (1/GPa) = 0.02540903
#
# Stress axis : x y z
#
# Youngs Moduli (GPa) = 38.69442 145.50450 119.09310
#
# Poissons Ratio (x) = 0.24813 0.50807
# Poissons Ratio (y) = 0.06599 0.22395
# Poissons Ratio (z) = 0.16508 0.27362
#
# Static dielectric constant tensor:
#      x y z
#    x 1.994320 -0.000020 -0.045240 
#    y -0.000020 1.897430 -0.000020 
#    z -0.045240 -0.000020 1.993010 
# 
# From -- ./inp_files/144071.got.cif
#   From: 2010.05.17/outbox.cif.g08.bks.cpg/sg15_73_cif.got.tgz:144071.got - 2010.06.03 18:47:42.
