data_PCOD9273742
_publ_section_title
;
Structure prediction by ZEFSAII (Michael W. Deem and Ramdas Pophale) SiO2 
 PCOD9273742
Probable space group: C 2/C
;
_chemical_formula_sum "Si O2"
_cell_formula_units_Z 44
_cell_length_a 11.407627
_cell_length_b 29.737880
_cell_length_c 4.849312
_cell_angle_alpha 90.000000
_cell_angle_beta 103.049301
_cell_angle_gamma 90.000000
_cell_volume 1602.591863
_symmetry_space_group_name_H-M "C 2/C"
_symmetry_group_IT_number 15
_symmetry_cell_setting 'monoclinic'
loop_
_space_group_symop_operation_xyz
x,y,z
-x,y,1/2-z
-x,-y,-z
x,-y,1/2+z
1/2+x,1/2+y,z
1/2-x,1/2+y,1/2-z
1/2-x,1/2-y,-z
1/2+x,1/2-y,1/2+z
loop_
_atom_site_type_symbol
_atom_site_label
_atom_site_fract_x
_atom_site_fract_y
_atom_site_fract_z
Si Si1 0.691111 0.681527 0.449793
Si Si2 0.117909 0.094186 0.651222
Si Si3 0.750000 0.250000 0.500000
Si Si4 0.340452 0.112398 0.181046
Si Si5 0.092628 0.304313 0.069723
Si Si6 0.705319 0.032158 0.026753
O O1 0.598295 0.644819 0.521355
O O2 0.763385 0.703874 0.750603
O O3 0.666295 0.716416 0.197679
O O4 0.789470 0.647139 0.377434
O O5 0.228178 0.098418 0.926353
O O6 0.167564 0.059365 0.446453
O O7 0.000000 0.078908 0.750000
O O8 0.878719 0.273781 0.675519
O O9 0.417486 0.143652 0.017602
O O10 0.380516 0.069852 0.382444
O O11 0.000000 0.293807 0.250000
O O12 0.691715 0.990370 0.224078
#
# Coordination Sequence:
#
# PCOD9273742 Si02
#       6
#     8   8   4   8   8   8
#     4   9  20  38  61  85 123 164 207 262 310 378
#     4  10  21  38  58  88 127 170 215 256 320 386
#     4  10  20  38  58  90 126 150 208 260 312 372
#     4   9  20  39  59  87 122 165 211 259 312 381
#     4  10  21  40  65  90 122 166 210 259 319 381
#     4  11  21  37  61  91 127 171 212 268 326 373
#
# _framework density 27.455525000000002
#
# number of rings (size 3 to 8) (size 9 to 14) (size 15 to 20)
#    0.000    2.182    1.818    0.545    0.000    6.545 
#    9.818    0.000    0.000    1.091    0.000    0.000 
#    0.000    0.000    0.000    0.000    0.000    0.000 
#
# Total GULP energy -122513.812726 kJ/mol
# GULP energy per Si atom -5568.809669 kJ/mol
# Density = 2.739304 g / cm^3
# Si number density = 27.455525 Si / 1000 Ang^3
#
#
#
# Elastic Constant Matrix: (Units=GPa)
#
#
# Indices 1 2 3 4 5 6 
#
# 1 89.1189 7.8747 31.0867 0.0000 -35.6336 0.0000
# 2 7.8747 130.7072 27.2759 0.0000 -17.7001 0.0000
# 3 31.0867 27.2759 169.1653 0.0000 -9.6573 0.0000
# 4 0.0000 0.0000 0.0000 74.1800 0.0000 -26.0271
# 5 -35.6336 -17.7001 -9.6573 0.0000 58.8413 0.0000
# 6 0.0000 0.0000 0.0000 -26.0271 0.0000 17.6997
#
#
#
# Elastic Compliance Matrix: (Units=1/GPa)
#
#
# Indices 1 2 3 4 5 6 
#
# 1 0.015775 0.000843 -0.002498 0.000000 0.009397 0.000000
# 2 0.000843 0.008253 -0.001327 0.000000 0.002775 0.000000
# 3 -0.002498 -0.001327 0.006537 0.000000 -0.000839 0.000000
# 4 0.000000 0.000000 0.000000 0.027849 0.000000 0.040952
# 5 0.009397 0.002775 -0.000839 0.000000 0.023383 0.000000
# 6 0.000000 0.000000 0.000000 0.040952 0.000000 0.116717
#
#
# Mechanical properties :
#
#
# Convention : Reuss Voigt Hill
#
# Bulk Modulus (GPa) = 40.65013 57.94065 49.29539
# Shear Modulus (GPa) = 23.50971 51.66115 37.58543
#
# Velocity S-wave (km/s) = 2.92941 4.34248 3.70396
# Velocity P-wave (km/s) = 5.12639 6.80383 6.02379
#
# Compressibility (1/GPa) = 0.02460017
#
# Stress axis : x y z
#
# Youngs Moduli (GPa) = 63.39020 121.17278 152.98513
#
# Poissons Ratio (x) = -0.10221 0.38223
# Poissons Ratio (y) = -0.05347 0.20304
# Poissons Ratio (z) = 0.15838 0.16082
#
# Static dielectric constant tensor:
#      x y z
#    x 2.311500 0.000000 0.081030 
#    y 0.000000 2.232960 0.000000 
#    z 0.081030 0.000000 2.268020 
# 
# From -- ./inp_files/5783.got.cif
#   From: 2010.05.17/outbox.cif.g08.bks.cpg/sg15_3_cif.got.tgz:5783.got - 2010.06.03 18:47:42.
