data_PCOD9273245
_publ_section_title
;
Structure prediction by ZEFSAII (Michael W. Deem and Ramdas Pophale) SiO2 
 PCOD9273245
Probable space group: C 2/C
;
_chemical_formula_sum "Si O2"
_cell_formula_units_Z 40
_cell_length_a 10.183288
_cell_length_b 19.727169
_cell_length_c 17.555816
_cell_angle_alpha 90.000000
_cell_angle_beta 146.102444
_cell_angle_gamma 90.000000
_cell_volume 1966.898789
_symmetry_space_group_name_H-M "C 2/C"
_symmetry_group_IT_number 15
_symmetry_cell_setting 'monoclinic'
loop_
_space_group_symop_operation_xyz
x,y,z
-x,y,1/2-z
-x,-y,-z
x,-y,1/2+z
1/2+x,1/2+y,z
1/2-x,1/2+y,1/2-z
1/2-x,1/2-y,-z
1/2+x,1/2-y,1/2+z
loop_
_atom_site_type_symbol
_atom_site_label
_atom_site_fract_x
_atom_site_fract_y
_atom_site_fract_z
Si Si1 0.846951 0.408120 0.753352
Si Si2 0.896940 0.559536 0.816968
Si Si3 0.125621 0.070187 0.535524
Si Si4 0.750577 0.312128 0.326219
Si Si5 0.999861 0.724905 0.411508
O O1 0.832318 0.480082 0.789817
O O2 0.589107 0.386488 0.599789
O O3 0.000000 0.419180 0.750000
O O4 0.957546 0.350199 0.858002
O O5 0.759352 0.589357 0.676891
O O6 0.822394 0.609996 0.847154
O O7 0.173655 0.561365 0.930926
O O8 0.000000 0.000000 0.500000
O O9 0.500000 0.309691 0.250000
O O10 0.953741 0.278778 0.476088
O O11 0.698228 0.271885 0.222689
O O12 0.250000 0.750000 0.500000
#
# Coordination Sequence:
#
# PCOD9273245 Si02
#       5
#     8   8   8   8   8
#     4  11  20  35  66  94 122 167 220 265 314 389
#     4  10  20  37  63  96 128 163 216 268 325 379
#     4   9  18  35  59  97 123 163 206 258 321 386
#     4  10  23  40  63  92 128 172 219 269 321 380
#     4  10  23  40  61  93 125 174 220 265 317 384
#
# _framework density 20.336583999999998
#
# number of rings (size 3 to 8) (size 9 to 14) (size 15 to 20)
#    0.000    2.000    4.000    1.800    8.400    0.800 
#    0.000    2.000    0.000    0.000    0.000    0.000 
#    0.000    0.000    0.000    0.000    0.000    0.000 
#
# Total GULP energy -111452.933606 kJ/mol
# GULP energy per Si atom -5572.646680 kJ/mol
# Density = 2.029030 g / cm^3
# Si number density = 20.336584 Si / 1000 Ang^3
#
#
#
# Elastic Constant Matrix: (Units=GPa)
#
#
# Indices 1 2 3 4 5 6 
#
# 1 23.2974 20.3302 29.1979 -0.0003 -1.7563 -0.0002
# 2 20.3302 129.7212 49.2431 0.0002 -23.0327 -0.0003
# 3 29.1979 49.2431 137.9861 0.0034 -2.6058 0.0000
# 4 -0.0003 0.0002 0.0034 39.6145 0.0003 -6.2459
# 5 -1.7563 -23.0327 -2.6058 0.0003 13.3547 -0.0002
# 6 -0.0002 -0.0003 0.0000 -6.2459 -0.0002 28.4276
#
#
#
# Elastic Compliance Matrix: (Units=1/GPa)
#
#
# Indices 1 2 3 4 5 6 
#
# 1 0.061802 -0.006480 -0.010862 0.000002 -0.005168 0.000001
# 2 -0.006480 0.013937 -0.003176 0.000000 0.022564 0.000000
# 3 -0.010862 -0.003176 0.010588 -0.000001 -0.004841 0.000000
# 4 0.000002 0.000000 -0.000001 0.026149 0.000000 0.005745
# 5 -0.005168 0.022564 -0.004841 0.000000 0.112173 0.000001
# 6 0.000001 0.000000 0.000000 0.005745 0.000001 0.036439
#
#
# Mechanical properties :
#
#
# Convention : Reuss Voigt Hill
#
# Bulk Modulus (GPa) = 22.08046 54.28304 38.18175
# Shear Modulus (GPa) = 15.76191 29.09491 22.42841
#
# Velocity S-wave (km/s) = 2.78700 3.78652 3.32454
# Velocity P-wave (km/s) = 4.60842 6.77254 5.79244
#
# Compressibility (1/GPa) = 0.04528891
#
# Stress axis : x y z
#
# Youngs Moduli (GPa) = 16.18080 71.75382 94.44917
#
# Poissons Ratio (x) = 0.46495 1.02594
# Poissons Ratio (y) = 0.10485 0.30000
# Poissons Ratio (z) = 0.17576 0.22791
#
# Static dielectric constant tensor:
#      x y z
#    x 1.703460 0.000000 -0.037660 
#    y 0.000000 1.752760 0.000000 
#    z -0.037660 0.000000 1.772390 
# 
# From -- ./inp_files/239915.got.cif
#   From: 2010.05.17/outbox.cif.g08.bks.cpg/sg15_120_cif.got.tgz:239915.got - 2010.06.03 18:47:42.
