data_PCOD9273759
_publ_section_title
;
Structure prediction by ZEFSAII (Michael W. Deem and Ramdas Pophale) SiO2 
 PCOD9273759
Probable space group: C 2/C
;
_chemical_formula_sum "Si O2"
_cell_formula_units_Z 40
_cell_length_a 12.220493
_cell_length_b 22.709887
_cell_length_c 12.696818
_cell_angle_alpha 90.000000
_cell_angle_beta 151.511165
_cell_angle_gamma 90.000000
_cell_volume 1680.759567
_symmetry_space_group_name_H-M "C 2/C"
_symmetry_group_IT_number 15
_symmetry_cell_setting 'monoclinic'
loop_
_space_group_symop_operation_xyz
x,y,z
-x,y,1/2-z
-x,-y,-z
x,-y,1/2+z
1/2+x,1/2+y,z
1/2-x,1/2+y,1/2-z
1/2-x,1/2-y,-z
1/2+x,1/2-y,1/2+z
loop_
_atom_site_type_symbol
_atom_site_label
_atom_site_fract_x
_atom_site_fract_y
_atom_site_fract_z
Si Si1 0.863014 0.195245 0.035365
Si Si2 0.248095 0.072031 0.850465
Si Si3 0.266357 0.943699 0.857859
Si Si4 0.000000 0.606030 0.750000
Si Si5 0.000000 0.628415 0.250000
Si Si6 0.099426 0.154537 0.058307
O O1 0.000000 0.167681 0.250000
O O2 0.015858 0.208121 0.061925
O O3 0.750000 0.250000 0.000000
O O4 0.665083 0.151378 0.828418
O O5 0.091715 0.125417 0.678254
O O6 0.142564 0.006869 0.749883
O O7 0.482103 0.062157 0.983268
O O8 0.333000 0.087877 0.038967
O O9 0.133893 0.895477 0.677613
O O10 0.335063 0.930752 0.036060
O O11 0.832098 0.663134 0.188295
#
# Coordination Sequence:
#
# PCOD9273759 Si02
#       6
#     8   8   8   4   4   8
#     4  12  25  43  69 100 128 167 218 292 357 400
#     4  10  20  38  58  95 134 186 221 266 322 396
#     4  10  21  34  61  94 138 175 226 268 326 401
#     4  12  21  40  62  96 134 174 220 280 339 394
#     4  10  23  40  62  88 132 184 230 264 325 404
#     4  11  22  41  63  94 134 180 225 277 337 402
#
# _framework density 23.798763999999998
#
# number of rings (size 3 to 8) (size 9 to 14) (size 15 to 20)
#    0.000    1.200    5.000    1.800    0.000    0.000 
#    7.200    0.000    0.000    1.200    0.000    0.000 
#    0.000    0.000    0.000    0.000    0.000    0.000 
#
# Total GULP energy -111571.418617 kJ/mol
# GULP energy per Si atom -5578.570931 kJ/mol
# Density = 2.374460 g / cm^3
# Si number density = 23.798764 Si / 1000 Ang^3
#
#
#
# Elastic Constant Matrix: (Units=GPa)
#
#
# Indices 1 2 3 4 5 6 
#
# 1 169.0622 32.4232 9.5835 -0.0002 9.5941 0.0000
# 2 32.4232 28.2085 7.5255 -0.0001 -2.1917 -0.0001
# 3 9.5835 7.5255 87.7423 -0.0004 -20.1161 -0.0001
# 4 -0.0002 -0.0001 -0.0004 20.8955 -0.0003 1.2411
# 5 9.5941 -2.1917 -20.1161 -0.0003 42.3376 0.0000
# 6 0.0000 -0.0001 -0.0001 1.2411 0.0000 14.7696
#
#
#
# Elastic Compliance Matrix: (Units=1/GPa)
#
#
# Indices 1 2 3 4 5 6 
#
# 1 0.007827 -0.009017 -0.000668 0.000000 -0.002558 0.000000
# 2 -0.009017 0.046676 -0.002240 0.000000 0.003395 0.000000
# 3 -0.000668 -0.002240 0.013097 0.000000 0.006258 0.000000
# 4 0.000000 0.000000 0.000000 0.048097 0.000000 -0.004042
# 5 -0.002558 0.003395 0.006258 0.000000 0.027349 0.000000
# 6 0.000000 0.000000 0.000000 -0.004042 0.000000 0.068046
#
#
# Mechanical properties :
#
#
# Convention : Reuss Voigt Hill
#
# Bulk Modulus (GPa) = 22.85716 42.67524 32.76620
# Shear Modulus (GPa) = 20.03794 31.29928 25.66861
#
# Velocity S-wave (km/s) = 2.90483 3.63045 3.28772
# Velocity P-wave (km/s) = 4.56901 5.96190 5.31131
#
# Compressibility (1/GPa) = 0.04374996
#
# Stress axis : x y z
#
# Youngs Moduli (GPa) = 127.75644 21.42407 76.35414
#
# Poissons Ratio (x) = 0.19319 0.05100
# Poissons Ratio (y) = 1.15204 0.17103
# Poissons Ratio (z) = 0.08534 0.04799
#
# Static dielectric constant tensor:
#      x y z
#    x 2.009580 0.000000 0.070810 
#    y 0.000000 1.979510 0.000000 
#    z 0.070810 0.000000 1.918220 
# 
# From -- ./inp_files/92246.got.cif
#   From: 2010.05.17/outbox.cif.g08.bks.cpg/sg15_47_cif.got.tgz:92246.got - 2010.06.03 18:47:42.
