data_PCOD9273675
_publ_section_title
;
Structure prediction by ZEFSAII (Michael W. Deem and Ramdas Pophale) SiO2 
 PCOD9273675
Probable space group: C 2/C
;
_chemical_formula_sum "Si O2"
_cell_formula_units_Z 60
_cell_length_a 21.241114
_cell_length_b 11.334260
_cell_length_c 23.883941
_cell_angle_alpha 90.000000
_cell_angle_beta 154.989691
_cell_angle_gamma 90.000000
_cell_volume 2431.040779
_symmetry_space_group_name_H-M "C 2/C"
_symmetry_group_IT_number 15
_symmetry_cell_setting 'monoclinic'
loop_
_space_group_symop_operation_xyz
x,y,z
-x,y,1/2-z
-x,-y,-z
x,-y,1/2+z
1/2+x,1/2+y,z
1/2-x,1/2+y,1/2-z
1/2-x,1/2-y,-z
1/2+x,1/2-y,1/2+z
loop_
_atom_site_type_symbol
_atom_site_label
_atom_site_fract_x
_atom_site_fract_y
_atom_site_fract_z
Si Si1 0.978242 0.882465 0.580087
Si Si2 0.000000 0.778006 0.250000
Si Si3 0.231645 0.110461 0.485929
Si Si4 0.958874 0.689294 0.334317
Si Si5 0.162409 0.905461 0.207246
Si Si6 0.933932 0.490227 0.739210
Si Si7 0.196355 0.323302 0.284739
Si Si8 0.248070 0.445904 0.094370
O O1 0.115129 0.796738 0.703234
O O2 0.896846 0.916246 0.573014
O O3 0.855705 0.814754 0.443988
O O4 0.032981 0.999869 0.593580
O O5 0.037391 0.770510 0.352113
O O6 0.151802 0.851885 0.356912
O O7 0.250000 0.250000 0.500000
O O8 0.377327 0.039511 0.629119
O O9 0.216867 0.065548 0.411153
O O10 0.077351 0.589820 0.446689
O O11 0.894772 0.771221 0.330403
O O12 0.846608 0.604845 0.208224
O O13 0.278451 0.899965 0.250647
O O14 0.225611 0.943058 0.318619
O O15 0.904589 0.607776 0.751840
O O16 0.000000 0.375870 0.750000
#
# Coordination Sequence:
#
# PCOD9273675 Si02
#       8
#     8   4   8   8   8   8   8   8
#     4  11  27  50  74 107 149 195 260 307 382 441
#     4  10  20  38  58 100 140 180 234 296 376 428
#     4  11  23  42  72 106 152 193 249 314 375 440
#     4  11  22  40  70 105 144 188 246 301 379 445
#     4  11  28  46  72 108 147 200 243 310 375 460
#     4  11  22  43  71 108 141 187 251 310 378 433
#     4  11  28  49  78 105 148 201 246 313 372 460
#     4  11  23  40  68 102 148 188 242 303 368 446
#
# _framework density 24.680786999999999
#
# number of rings (size 3 to 8) (size 9 to 14) (size 15 to 20)
#    0.000    1.067    2.000    3.200    7.467    5.333 
#    1.200    1.333    0.000    0.000    0.000    0.000 
#    0.000    0.000    0.000    0.000    0.000    0.000 
#
# Total GULP energy -167213.932258 kJ/mol
# GULP energy per Si atom -5573.797742 kJ/mol
# Density = 2.462461 g / cm^3
# Si number density = 24.680787 Si / 1000 Ang^3
#
#
#
# Elastic Constant Matrix: (Units=GPa)
#
#
# Indices 1 2 3 4 5 6 
#
# 1 156.5714 26.8429 13.1745 -0.0002 -1.7909 0.0000
# 2 26.8429 129.6799 7.7531 0.0006 12.9711 0.0000
# 3 13.1745 7.7531 48.6677 0.0017 4.9921 0.0002
# 4 -0.0002 0.0006 0.0017 32.0590 0.0008 -0.4051
# 5 -1.7909 12.9711 4.9921 0.0008 28.4721 0.0001
# 6 0.0000 0.0000 0.0002 -0.4051 0.0001 32.6293
#
#
#
# Elastic Compliance Matrix: (Units=1/GPa)
#
#
# Indices 1 2 3 4 5 6 
#
# 1 0.006797 -0.001441 -0.001753 0.000000 0.001392 0.000000
# 2 -0.001441 0.008426 -0.000559 0.000000 -0.003831 0.000000
# 3 -0.001753 -0.000559 0.021483 -0.000001 -0.003622 0.000000
# 4 0.000000 0.000000 -0.000001 0.031197 -0.000001 0.000387
# 5 0.001392 -0.003831 -0.003622 -0.000001 0.037590 0.000000
# 6 0.000000 0.000000 0.000000 0.000387 0.000000 0.030652
#
#
# Mechanical properties :
#
#
# Convention : Reuss Voigt Hill
#
# Bulk Modulus (GPa) = 34.24782 47.82889 41.03835
# Shear Modulus (GPa) = 32.59734 37.77531 35.18632
#
# Velocity S-wave (km/s) = 3.63817 3.91648 3.77988
# Velocity P-wave (km/s) = 5.61736 6.31449 5.97610
#
# Compressibility (1/GPa) = 0.02919894
#
# Stress axis : x y z
#
# Youngs Moduli (GPa) = 147.11465 118.67574 46.54898
#
# Poissons Ratio (x) = 0.17106 0.08161
# Poissons Ratio (y) = 0.21205 0.02603
# Poissons Ratio (z) = 0.25792 0.06636
#
# Static dielectric constant tensor:
#      x y z
#    x 1.959610 0.000000 -0.229460 
#    y 0.000000 1.968560 0.000000 
#    z -0.229460 0.000000 3.156680 
# 
# From -- ./inp_files/280102.got.cif
#   From: 2010.05.17/outbox.cif.g08.bks.cpg/sg15_141_cif.got.tgz:280102.got - 2010.06.03 18:47:42.
