data_PCOD9273148
_publ_section_title
;
Structure prediction by ZEFSAII (Michael W. Deem and Ramdas Pophale) SiO2 
 PCOD9273148
Probable space group: C 2/C
;
_chemical_formula_sum "Si O2"
_cell_formula_units_Z 48
_cell_length_a 16.935051
_cell_length_b 9.043665
_cell_length_c 28.933290
_cell_angle_alpha 90.000000
_cell_angle_beta 148.184891
_cell_angle_gamma 90.000000
_cell_volume 2336.079590
_symmetry_space_group_name_H-M "C 2/C"
_symmetry_group_IT_number 15
_symmetry_cell_setting 'monoclinic'
loop_
_space_group_symop_operation_xyz
x,y,z
-x,y,1/2-z
-x,-y,-z
x,-y,1/2+z
1/2+x,1/2+y,z
1/2-x,1/2+y,1/2-z
1/2-x,1/2-y,-z
1/2+x,1/2-y,1/2+z
loop_
_atom_site_type_symbol
_atom_site_label
_atom_site_fract_x
_atom_site_fract_y
_atom_site_fract_z
Si Si1 0.837606 0.079968 0.459352
Si Si2 0.489997 0.121139 0.455486
Si Si3 0.439900 0.463180 0.353982
Si Si4 0.553677 0.838021 0.882015
Si Si5 0.622282 0.004705 0.275864
Si Si6 0.192321 0.766902 0.767774
O O1 0.915791 0.233725 0.484092
O O2 0.697870 0.111706 0.424666
O O3 0.962774 0.997676 0.552194
O O4 0.772426 0.005871 0.380798
O O5 0.548290 0.095740 0.431396
O O6 0.314846 0.155591 0.360981
O O7 0.500000 0.000000 0.500000
O O8 0.542637 0.340049 0.379273
O O9 0.295018 0.360220 0.293830
O O10 0.391042 0.609037 0.302973
O O11 0.403129 0.893435 0.781243
O O12 0.500000 0.066729 0.250000
O O13 0.581550 0.838664 0.240872
#
# Coordination Sequence:
#
# PCOD9273148 Si02
#       6
#     8   8   8   8   8   8
#     4   9  20  40  64  86 117 168 203 239 306 372
#     4  10  21  36  58  94 118 148 203 259 289 361
#     4  10  20  37  63  85 116 158 198 250 296 360
#     4   9  19  40  65  85 120 159 205 240 306 366
#     4  10  21  41  58  86 122 159 198 247 297 361
#     4  10  21  39  54  88 118 151 201 244 306 351
#
# _framework density 20.547243999999999
#
# number of rings (size 3 to 8) (size 9 to 14) (size 15 to 20)
#    0.000    2.667    0.000    4.000    2.333    2.667 
#   15.000    1.667    0.000    0.000    0.000    0.000 
#    0.000    0.000    0.000    0.000    0.000    0.000 
#
# Total GULP energy -133614.814496 kJ/mol
# GULP energy per Si atom -5567.283937 kJ/mol
# Density = 2.050048 g / cm^3
# Si number density = 20.547244 Si / 1000 Ang^3
#
#
#
# Elastic Constant Matrix: (Units=GPa)
#
#
# Indices 1 2 3 4 5 6 
#
# 1 56.7011 24.2713 29.8806 0.0000 -12.2487 0.0000
# 2 24.2713 85.3244 82.1973 -0.0001 -45.2839 0.0000
# 3 29.8806 82.1973 137.1061 0.0000 -40.8131 0.0000
# 4 0.0000 -0.0001 0.0000 35.5393 0.0000 -13.8553
# 5 -12.2487 -45.2839 -40.8131 0.0000 30.5077 0.0000
# 6 0.0000 0.0000 0.0000 -13.8553 0.0000 31.3116
#
#
#
# Elastic Compliance Matrix: (Units=1/GPa)
#
#
# Indices 1 2 3 4 5 6 
#
# 1 0.020387 -0.004185 -0.002238 0.000000 -0.001021 0.000000
# 2 -0.004185 0.081219 -0.020595 0.000000 0.091325 0.000000
# 3 -0.002238 -0.020595 0.017882 0.000000 -0.007546 0.000000
# 4 0.000000 0.000000 0.000000 0.034004 0.000000 0.015047
# 5 -0.001021 0.091325 -0.007546 0.000000 0.157832 0.000000
# 6 0.000000 0.000000 0.000000 0.015047 0.000000 0.038595
#
#
# Mechanical properties :
#
#
# Convention : Reuss Voigt Hill
#
# Bulk Modulus (GPa) = 15.27826 61.31445 38.29636
# Shear Modulus (GPa) = 11.74337 28.99053 20.36695
#
# Velocity S-wave (km/s) = 2.39326 3.76030 3.15179
# Velocity P-wave (km/s) = 3.88443 6.98274 5.65011
#
# Compressibility (1/GPa) = 0.06545247
#
# Stress axis : x y z
#
# Youngs Moduli (GPa) = 49.05183 12.31237 55.92182
#
# Poissons Ratio (x) = 0.05153 0.12515
# Poissons Ratio (y) = 0.20528 1.15170
# Poissons Ratio (z) = 0.10977 0.25357
#
# Static dielectric constant tensor:
#      x y z
#    x 1.847560 0.000000 0.034310 
#    y 0.000000 1.715930 0.000000 
#    z 0.034310 0.000000 1.790660 
# 
# From -- ./inp_files/315794.got.cif
#   From: 2010.05.17/outbox.cif.g08.bks.cpg/sg15_158_cif.got.tgz:315794.got - 2010.06.03 18:47:42.
