data_PCOD9273930
_publ_section_title
;
Structure prediction by ZEFSAII (Michael W. Deem and Ramdas Pophale) SiO2 
 PCOD9273930
Probable space group: C 2/C
;
_chemical_formula_sum "Si O2"
_cell_formula_units_Z 52
_cell_length_a 18.466633
_cell_length_b 17.700742
_cell_length_c 14.194652
_cell_angle_alpha 90.000000
_cell_angle_beta 31.838675
_cell_angle_gamma 90.000000
_cell_volume 2447.657089
_symmetry_space_group_name_H-M "C 2/C"
_symmetry_group_IT_number 15
_symmetry_cell_setting 'monoclinic'
loop_
_space_group_symop_operation_xyz
x,y,z
-x,y,1/2-z
-x,-y,-z
x,-y,1/2+z
1/2+x,1/2+y,z
1/2-x,1/2+y,1/2-z
1/2-x,1/2-y,-z
1/2+x,1/2-y,1/2+z
loop_
_atom_site_type_symbol
_atom_site_label
_atom_site_fract_x
_atom_site_fract_y
_atom_site_fract_z
Si Si1 0.382955 0.682910 0.099132
Si Si2 0.086976 0.669876 0.060691
Si Si3 0.516003 0.003637 0.343430
Si Si4 0.825718 0.108864 0.706726
Si Si5 0.774104 0.702037 0.858842
Si Si6 0.000000 0.267370 0.250000
Si Si7 0.215877 0.459893 0.764006
O O1 0.317620 0.717699 0.265402
O O2 0.278811 0.621211 0.174258
O O3 0.415185 0.754304 0.997611
O O4 0.522656 0.639728 0.964029
O O5 0.000000 0.684593 0.250000
O O6 0.021897 0.592013 0.093753
O O7 0.246227 0.642389 0.886225
O O8 0.500000 0.991739 0.250000
O O9 0.411837 0.955595 0.522086
O O10 0.666037 0.000935 0.222443
O O11 0.745895 0.146149 0.706393
O O12 0.815556 0.019161 0.706516
O O13 0.904200 0.684288 0.783212
O O14 0.623127 0.716034 0.070221
#
# Coordination Sequence:
#
# PCOD9273930 Si02
#       7
#     8   8   8   8   8   4   8
#     4  11  22  38  63  93 129 164 202 261 325 382
#     4   9  21  39  66  92 119 161 213 266 310 376
#     4   9  20  43  64  93 122 166 220 265 309 387
#     4  10  21  40  61  89 128 165 207 257 320 383
#     4  10  21  38  61  91 121 167 212 258 315 363
#     4  10  20  38  60  88 122 158 218 268 294 366
#     4  10  22  40  63  89 128 168 206 257 330 378
#
# _framework density 21.244806000000001
#
# number of rings (size 3 to 8) (size 9 to 14) (size 15 to 20)
#    0.000    2.154    1.538    0.462    4.308    3.077 
#   13.846    0.000    1.692    0.000    0.000    0.000 
#    0.000    0.000    0.000    0.000    0.000    0.000 
#
# Total GULP energy -144876.343639 kJ/mol
# GULP energy per Si atom -5572.167063 kJ/mol
# Density = 2.119645 g / cm^3
# Si number density = 21.244806 Si / 1000 Ang^3
#
#
#
# Elastic Constant Matrix: (Units=GPa)
#
#
# Indices 1 2 3 4 5 6 
#
# 1 85.4952 5.9997 46.1469 -0.0031 -2.0477 -0.0010
# 2 5.9997 50.5628 29.2736 -0.0018 -2.1870 -0.0006
# 3 46.1469 29.2736 122.5777 -0.0035 1.9071 -0.0011
# 4 -0.0031 -0.0018 -0.0035 -183.3967 0.0023 -91.2777
# 5 -2.0477 -2.1870 1.9071 0.0023 35.5042 0.0007
# 6 -0.0010 -0.0006 -0.0011 -91.2777 0.0007 -21.1982
#
#
#
# Elastic Compliance Matrix: (Units=1/GPa)
#
#
# Indices 1 2 3 4 5 6 
#
# 1 0.014864 0.001791 -0.006044 0.000000 0.001292 0.000000
# 2 0.001791 0.023271 -0.006261 0.000000 0.001873 0.000000
# 3 -0.006044 -0.006261 0.011950 0.000000 -0.001376 0.000000
# 4 0.000000 0.000000 0.000000 0.004770 0.000000 -0.020540
# 5 0.001292 0.001873 -0.001376 0.000000 0.028429 0.000000
# 6 0.000000 0.000000 0.000000 -0.020540 0.000000 0.041269
#
#
# Mechanical properties :
#
#
# Convention : Reuss Voigt Hill
#
# Bulk Modulus (GPa) = 34.41420 46.83069 40.62244
# Shear Modulus (GPa) = 32.20277 -22.00379 5.09949
#
# Velocity S-wave (km/s) = 3.89754 -3.22176 1.55099
# Velocity P-wave (km/s) = 6.04057 2.87255 4.72970
#
# Compressibility (1/GPa) = 0.02905778
#
# Stress axis : x y z
#
# Youngs Moduli (GPa) = 67.27673 42.97260 83.68200
#
# Poissons Ratio (x) = -0.07697 0.50575
# Poissons Ratio (y) = -0.12051 0.52392
# Poissons Ratio (z) = 0.40660 0.26905
#
# Static dielectric constant tensor:
#      x y z
#    x 1.843550 0.000000 0.001340 
#    y 0.000000 1.795090 0.000000 
#    z 0.001340 0.000000 1.797160 
# 
# From -- ./inp_files/168979.got.cif
#   From: 2010.05.17/outbox.cif.g08.bks.cpg/sg15_85_cif.got.tgz:168979.got - 2010.06.03 18:47:42.
