data_PCOD9273329
_publ_section_title
;
Structure prediction by ZEFSAII (Michael W. Deem and Ramdas Pophale) SiO2 
 PCOD9273329
Probable space group: C 2/C
;
_chemical_formula_sum "Si O2"
_cell_formula_units_Z 48
_cell_length_a 19.268629
_cell_length_b 6.770709
_cell_length_c 17.536050
_cell_angle_alpha 90.000000
_cell_angle_beta 61.416175
_cell_angle_gamma 90.000000
_cell_volume 2008.952447
_symmetry_space_group_name_H-M "C 2/C"
_symmetry_group_IT_number 15
_symmetry_cell_setting 'monoclinic'
loop_
_space_group_symop_operation_xyz
x,y,z
-x,y,1/2-z
-x,-y,-z
x,-y,1/2+z
1/2+x,1/2+y,z
1/2-x,1/2+y,1/2-z
1/2-x,1/2-y,-z
1/2+x,1/2-y,1/2+z
loop_
_atom_site_type_symbol
_atom_site_label
_atom_site_fract_x
_atom_site_fract_y
_atom_site_fract_z
Si Si1 0.371975 0.173242 0.683983
Si Si2 0.455210 0.196862 0.495177
Si Si3 0.778129 0.178938 0.833295
Si Si4 0.231173 0.638529 0.629875
Si Si5 0.049738 0.728210 0.302879
Si Si6 0.311731 0.952814 0.514050
O O1 0.421916 0.285532 0.592365
O O2 0.294453 0.095008 0.678511
O O3 0.325564 0.253826 0.781849
O O4 0.426739 0.999695 0.689807
O O5 0.504795 0.301467 0.402683
O O6 0.500000 0.000000 0.500000
O O7 0.380333 0.107146 0.490477
O O8 0.758363 0.413028 0.850472
O O9 0.865390 0.170889 0.754010
O O10 0.767528 0.071804 0.920138
O O11 0.310301 0.760492 0.569663
O O12 0.188499 0.621441 0.571178
O O13 0.000000 0.740553 0.250000
#
# Coordination Sequence:
#
# PCOD9273329 Si02
#       6
#     8   8   8   8   8   8
#     4   9  20  34  57  94 123 160 209 256 306 385
#     4   9  18  33  56  86 122 159 200 250 317 371
#     4  10  21  37  64  93 126 163 217 261 310 383
#     4  10  21  35  60  92 120 163 209 260 309 370
#     4  10  20  37  64  93 126 169 214 263 326 376
#     4  10  21  38  61  93 126 160 215 263 311 378
#
# _framework density 23.893049000000001
#
# number of rings (size 3 to 8) (size 9 to 14) (size 15 to 20)
#    0.000    2.333    0.000    2.500   11.667    1.333 
#    0.000    0.000    0.000   38.000    0.000    0.000 
#    0.000    0.000    0.000    0.000    0.000    0.000 
#
# Total GULP energy -133733.049523 kJ/mol
# GULP energy per Si atom -5572.210397 kJ/mol
# Density = 2.383867 g / cm^3
# Si number density = 23.893049 Si / 1000 Ang^3
#
#
#
# Elastic Constant Matrix: (Units=GPa)
#
#
# Indices 1 2 3 4 5 6 
#
# 1 60.9099 22.1184 56.3824 0.0008 -5.5489 0.0015
# 2 22.1184 65.6720 17.6444 0.0029 11.1737 0.0016
# 3 56.3824 17.6444 199.5801 0.0004 3.7829 0.0004
# 4 0.0008 0.0029 0.0004 6.8035 0.0001 -15.1249
# 5 -5.5489 11.1737 3.7829 0.0001 32.7722 0.0005
# 6 0.0015 0.0016 0.0004 -15.1249 0.0005 18.3626
#
#
#
# Elastic Compliance Matrix: (Units=1/GPa)
#
#
# Indices 1 2 3 4 5 6 
#
# 1 0.026688 -0.008523 -0.006942 0.000003 0.008226 0.000001
# 2 -0.008523 0.019246 0.000860 0.000011 -0.008104 0.000008
# 3 -0.006942 0.000860 0.006939 -0.000001 -0.002270 -0.000001
# 4 0.000003 0.000011 -0.000001 -0.176850 0.000000 -0.145667
# 5 0.008226 -0.008104 -0.002270 0.000000 0.034932 -0.000001
# 6 0.000001 0.000008 -0.000001 -0.145667 -0.000001 -0.065525
#
#
# Mechanical properties :
#
#
# Convention : Reuss Voigt Hill
#
# Bulk Modulus (GPa) = 42.26145 57.60582 49.93364
# Shear Modulus (GPa) = -42.56288 26.92211 -7.82038
#
# Velocity S-wave (km/s) = -4.22523 3.36039 -1.81113
# Velocity P-wave (km/s) = 2.46522 6.26247 4.07070
#
# Compressibility (1/GPa) = 0.02366222
#
# Stress axis : x y z
#
# Youngs Moduli (GPa) = 37.47005 51.96006 144.12044
#
# Poissons Ratio (x) = 0.44286 1.00047
# Poissons Ratio (y) = 0.31936 -0.12394
# Poissons Ratio (z) = 0.26011 -0.04468
#
# Static dielectric constant tensor:
#      x y z
#    x 2.187050 0.000000 -0.028940 
#    y 0.000000 1.950940 0.000000 
#    z -0.028940 0.000000 2.048080 
# 
# From -- ./inp_files/213278.got.cif
#   From: 2010.05.17/outbox.cif.g08.bks.cpg/sg15_107_cif.got.tgz:213278.got - 2010.06.03 18:47:42.
