data_PCOD9273857
_publ_section_title
;
Structure prediction by ZEFSAII (Michael W. Deem and Ramdas Pophale) SiO2 
 PCOD9273857
Probable space group: C 2/C
;
_chemical_formula_sum "Si O2"
_cell_formula_units_Z 56
_cell_length_a 21.805917
_cell_length_b 21.503283
_cell_length_c 19.333826
_cell_angle_alpha 90.000000
_cell_angle_beta 160.601350
_cell_angle_gamma 90.000000
_cell_volume 3011.041103
_symmetry_space_group_name_H-M "C 2/C"
_symmetry_group_IT_number 15
_symmetry_cell_setting 'monoclinic'
loop_
_space_group_symop_operation_xyz
x,y,z
-x,y,1/2-z
-x,-y,-z
x,-y,1/2+z
1/2+x,1/2+y,z
1/2-x,1/2+y,1/2-z
1/2-x,1/2-y,-z
1/2+x,1/2-y,1/2+z
loop_
_atom_site_type_symbol
_atom_site_label
_atom_site_fract_x
_atom_site_fract_y
_atom_site_fract_z
Si Si1 0.612776 0.091878 0.101817
Si Si2 0.324482 0.598018 0.112963
Si Si3 0.500000 0.998506 0.750000
Si Si4 0.048966 0.839993 0.970821
Si Si5 0.060065 0.707873 0.658398
Si Si6 0.023239 0.933148 0.061086
Si Si7 0.102587 0.534089 0.501888
Si Si8 0.000000 0.694120 0.750000
O O1 0.815075 0.089045 0.351997
O O2 0.597631 0.036105 0.028760
O O3 0.567052 0.155754 0.013288
O O4 0.476654 0.075286 0.019811
O O5 0.500000 0.590652 0.250000
O O6 0.413581 0.617426 0.280734
O O7 0.182781 0.540737 0.956664
O O8 0.187624 0.654321 0.948683
O O9 0.514147 0.962910 0.692504
O O10 0.954241 0.775214 0.891710
O O11 0.236870 0.821639 0.131375
O O12 0.098565 0.882108 0.088231
O O13 0.006638 0.723850 0.681228
O O14 0.186178 0.945468 0.288598
O O15 0.000000 0.000000 0.000000
#
# Coordination Sequence:
#
# PCOD9273857 Si02
#       8
#     8   8   4   8   8   8   8   4
#     4  10  20  38  61  84 116 161 198 249 293 358
#     4  11  22  36  54  79 123 165 202 236 291 349
#     4  11  24  38  60  94 120 154 207 260 298 362
#     4  12  24  38  58  87 123 165 206 252 292 356
#     4  12  24  38  59  87 127 162 213 243 297 356
#     4  10  20  38  60  82 113 155 203 248 300 348
#     4  10  21  37  60  85 117 154 200 249 307 351
#     4  11  22  38  52  78 122 170 197 242 280 346
#
# _framework density 18.598217999999999
#
# number of rings (size 3 to 8) (size 9 to 14) (size 15 to 20)
#    0.000    1.143    2.857    6.000    1.000    2.286 
#    0.000    0.000    0.000    0.000    0.000    1.000 
#    0.000    0.000    0.000    0.000    0.000    0.000 
#
# Total GULP energy -156155.257649 kJ/mol
# GULP energy per Si atom -5576.973487 kJ/mol
# Density = 1.855589 g / cm^3
# Si number density = 18.598218 Si / 1000 Ang^3
#
#
#
# Elastic Constant Matrix: (Units=GPa)
#
#
# Indices 1 2 3 4 5 6 
#
# 1 54.6244 28.9864 28.1984 -0.0022 1.4519 0.0226
# 2 28.9864 79.8360 32.7954 -0.0024 -10.3419 0.0170
# 3 28.1984 32.7954 121.1490 0.0033 4.0360 0.0110
# 4 -0.0022 -0.0024 0.0033 27.9427 -0.0011 10.3271
# 5 1.4519 -10.3419 4.0360 -0.0011 39.0319 0.0156
# 6 0.0226 0.0170 0.0110 10.3271 0.0156 -19.4855
#
#
#
# Elastic Compliance Matrix: (Units=1/GPa)
#
#
# Indices 1 2 3 4 5 6 
#
# 1 0.024264 -0.007719 -0.003472 -0.000004 -0.002589 0.000015
# 2 -0.007719 0.017249 -0.003045 -0.000001 0.005172 0.000008
# 3 -0.003472 -0.003045 0.009944 -0.000001 -0.001706 -0.000003
# 4 -0.000004 -0.000001 -0.000001 0.029926 -0.000006 0.015860
# 5 -0.002589 0.005172 -0.001706 -0.000006 0.027263 0.000019
# 6 0.000015 0.000008 -0.000003 0.015860 0.000019 -0.042914
#
#
# Mechanical properties :
#
#
# Convention : Reuss Voigt Hill
#
# Bulk Modulus (GPa) = 43.50653 48.39665 45.95159
# Shear Modulus (GPa) = 49.08494 20.53976 34.81235
#
# Velocity S-wave (km/s) = 5.14292 3.32685 4.33114
# Velocity P-wave (km/s) = 7.66223 6.39030 7.05499
#
# Compressibility (1/GPa) = 0.02298505
#
# Stress axis : x y z
#
# Youngs Moduli (GPa) = 41.21358 57.97424 100.56771
#
# Poissons Ratio (x) = 0.44749 0.34916
# Poissons Ratio (y) = 0.31812 0.30624
# Poissons Ratio (z) = 0.14309 0.17654
#
# Static dielectric constant tensor:
#      x y z
#    x 1.679410 0.000000 0.034670 
#    y 0.000000 1.644020 0.000000 
#    z 0.034670 0.000000 1.709770 
# 
# From -- ./inp_files/216689.got.cif
#   From: 2010.05.17/outbox.cif.g08.bks.cpg/sg15_109_cif.got.tgz:216689.got - 2010.06.03 18:47:42.
