data_PCOD9273841
_publ_section_title
;
Structure prediction by ZEFSAII (Michael W. Deem and Ramdas Pophale) SiO2 
 PCOD9273841
Probable space group: C 2/C
;
_chemical_formula_sum "Si O2"
_cell_formula_units_Z 52
_cell_length_a 19.420951
_cell_length_b 15.717861
_cell_length_c 15.411638
_cell_angle_alpha 90.000000
_cell_angle_beta 29.866128
_cell_angle_gamma 90.000000
_cell_volume 2342.720175
_symmetry_space_group_name_H-M "C 2/C"
_symmetry_group_IT_number 15
_symmetry_cell_setting 'monoclinic'
loop_
_space_group_symop_operation_xyz
x,y,z
-x,y,1/2-z
-x,-y,-z
x,-y,1/2+z
1/2+x,1/2+y,z
1/2-x,1/2+y,1/2-z
1/2-x,1/2-y,-z
1/2+x,1/2-y,1/2+z
loop_
_atom_site_type_symbol
_atom_site_label
_atom_site_fract_x
_atom_site_fract_y
_atom_site_fract_z
Si Si1 0.500000 0.137085 0.750000
Si Si2 0.703351 0.093270 0.381197
Si Si3 0.168678 0.042763 0.660516
Si Si4 0.500000 0.585711 0.250000
Si Si5 0.000000 0.837754 0.250000
Si Si6 0.922664 0.776929 0.707116
Si Si7 0.910327 0.301371 0.634279
Si Si8 0.337540 0.198347 0.510690
O O1 0.584964 0.085158 0.584819
O O2 0.404668 0.201594 0.797018
O O3 0.786106 0.177544 0.321214
O O4 0.650995 0.112800 0.342127
O O5 0.802338 0.012046 0.285623
O O6 0.035135 0.103630 0.794297
O O7 0.292430 0.109611 0.517431
O O8 0.133236 0.972851 0.625353
O O9 0.489055 0.648417 0.343211
O O10 0.875741 0.775327 0.405612
O O11 0.005694 0.740023 0.536390
O O12 0.788712 0.237117 0.795340
O O13 0.023231 0.315724 0.585531
#
# Coordination Sequence:
#
# PCOD9273841 Si02
#       8
#     4   8   8   4   4   8   8   8
#     4   9  18  30  58  93 126 170 204 245 300 370
#     4  10  20  38  59  94 131 160 202 258 311 362
#     4  10  22  40  65  91 124 157 215 259 309 359
#     4   8  18  38  62  94 122 164 206 252 298 368
#     4  11  24  46  70  85 114 174 218 255 302 384
#     4   9  17  36  63  88 128 168 206 240 303 384
#     4  11  23  40  67  94 126 165 207 255 315 372
#     4  12  24  44  67  90 121 165 218 257 305 379
#
# _framework density 22.19642
#
# number of rings (size 3 to 8) (size 9 to 14) (size 15 to 20)
#    0.000    1.846    3.077    0.923    0.000    2.462 
#    0.000    8.462    0.000    0.000    0.000    0.000 
#    0.000    0.000    0.000    0.000    0.000    0.000 
#
# Total GULP energy -144931.923329 kJ/mol
# GULP energy per Si atom -5574.304743 kJ/mol
# Density = 2.214590 g / cm^3
# Si number density = 22.196420 Si / 1000 Ang^3
#
#
#
# Elastic Constant Matrix: (Units=GPa)
#
#
# Indices 1 2 3 4 5 6 
#
# 1 123.1848 45.6410 0.1593 0.0001 -21.6511 0.0000
# 2 45.6410 94.9930 -1.6313 0.0000 -5.6881 0.0000
# 3 0.1593 -1.6313 39.3748 0.0001 1.2502 -0.0001
# 4 0.0001 0.0000 0.0001 -0.2151 -0.0001 -0.5529
# 5 -21.6511 -5.6881 1.2502 -0.0001 26.0925 0.0001
# 6 0.0000 0.0000 -0.0001 -0.5529 0.0001 21.3845
#
#
#
# Elastic Compliance Matrix: (Units=1/GPa)
#
#
# Indices 1 2 3 4 5 6 
#
# 1 0.011458 -0.005009 -0.000522 -0.000001 0.008441 0.000000
# 2 -0.005009 0.012861 0.000597 -0.000001 -0.001381 0.000000
# 3 -0.000522 0.000597 0.025472 0.000014 -0.001523 0.000000
# 4 -0.000001 -0.000001 0.000014 -4.359277 -0.000026 -0.112712
# 5 0.008441 -0.001381 -0.001523 -0.000026 0.045101 -0.000001
# 6 0.000000 0.000000 0.000000 -0.112712 -0.000001 0.043849
#
#
# Mechanical properties :
#
#
# Convention : Reuss Voigt Hill
#
# Bulk Modulus (GPa) = 25.04759 38.43229 31.73994
# Shear Modulus (GPa) = -1.19122 23.67793 11.24335
#
# Velocity S-wave (km/s) = -0.73338 3.26965 2.25308
# Velocity P-wave (km/s) = 3.25452 5.62195 4.59338
#
# Compressibility (1/GPa) = 0.03992400
#
# Stress axis : x y z
#
# Youngs Moduli (GPa) = 87.27636 77.75353 39.25856
#
# Poissons Ratio (x) = 0.38944 0.02049
# Poissons Ratio (y) = 0.43714 -0.02344
# Poissons Ratio (z) = 0.04555 -0.04642
#
# Static dielectric constant tensor:
#      x y z
#    x 1.888190 0.000000 -0.040800 
#    y 0.000000 1.861230 0.000000 
#    z -0.040800 0.000000 1.818130 
# 
# From -- ./inp_files/48687.got.cif
#   From: 2010.05.17/outbox.cif.g08.bks.cpg/sg15_25_cif.got.tgz:48687.got - 2010.06.03 18:47:42.
