data_PCOD9273895
_publ_section_title
;
Structure prediction by ZEFSAII (Michael W. Deem and Ramdas Pophale) SiO2 
 PCOD9273895
Probable space group: C 2/C
;
_chemical_formula_sum "Si O2"
_cell_formula_units_Z 40
_cell_length_a 12.439201
_cell_length_b 15.045664
_cell_length_c 9.099905
_cell_angle_alpha 90.000000
_cell_angle_beta 70.678368
_cell_angle_gamma 90.000000
_cell_volume 1607.176814
_symmetry_space_group_name_H-M "C 2/C"
_symmetry_group_IT_number 15
_symmetry_cell_setting 'monoclinic'
loop_
_space_group_symop_operation_xyz
x,y,z
-x,y,1/2-z
-x,-y,-z
x,-y,1/2+z
1/2+x,1/2+y,z
1/2-x,1/2+y,1/2-z
1/2-x,1/2-y,-z
1/2+x,1/2-y,1/2+z
loop_
_atom_site_type_symbol
_atom_site_label
_atom_site_fract_x
_atom_site_fract_y
_atom_site_fract_z
Si Si1 0.372653 0.638817 0.475793
Si Si2 0.869649 0.579271 0.255018
Si Si3 0.773065 0.960548 0.398860
Si Si4 0.573646 0.696618 0.584926
Si Si5 0.283614 0.254981 0.758641
O O1 0.349892 0.542558 0.419645
O O2 0.487375 0.646542 0.515439
O O3 0.370158 0.704764 0.338545
O O4 0.269703 0.671389 0.629734
O O5 0.815072 0.500665 0.179862
O O6 0.804228 0.569742 0.434351
O O7 0.817709 0.670471 0.207616
O O8 0.000000 0.570558 0.250000
O O9 0.856169 0.875903 0.353853
O O10 0.500000 0.742338 0.750000
O O11 0.653337 0.749846 0.429807
#
# Coordination Sequence:
#
# PCOD9273895 Si02
#       5
#     8   8   8   8   8
#     4  10  20  40  63  89 127 168 211 266 316 371
#     4  10  20  38  60  85 124 165 206 260 317 380
#     4  10  21  37  61  94 123 160 216 262 316 383
#     4  11  22  37  62  96 132 167 207 264 323 374
#     4   9  22  40  60  88 123 169 219 254 309 387
#
# _framework density 24.888362999999998
#
# number of rings (size 3 to 8) (size 9 to 14) (size 15 to 20)
#    0.000    2.000    0.000    3.000    0.000    4.800 
#    0.000   10.000    0.000    0.000    0.000    0.000 
#    0.000    0.000    0.000    0.000    0.000    0.000 
#
# Total GULP energy -111594.285377 kJ/mol
# GULP energy per Si atom -5579.714269 kJ/mol
# Density = 2.483172 g / cm^3
# Si number density = 24.888363 Si / 1000 Ang^3
#
#
#
# Elastic Constant Matrix: (Units=GPa)
#
#
# Indices 1 2 3 4 5 6 
#
# 1 322.1283 143.3895 99.6360 0.0000 -16.0286 0.0000
# 2 143.3895 168.2827 85.8085 0.0000 -40.1680 0.0000
# 3 99.6360 85.8085 174.9621 0.0000 -5.1871 0.0000
# 4 0.0000 0.0000 0.0000 18.1841 0.0000 17.1104
# 5 -16.0286 -40.1680 -5.1871 0.0000 67.4802 0.0000
# 6 0.0000 0.0000 0.0000 17.1104 0.0000 31.6842
#
#
#
# Elastic Compliance Matrix: (Units=1/GPa)
#
#
# Indices 1 2 3 4 5 6 
#
# 1 0.005249 -0.004353 -0.000896 0.000000 -0.001413 0.000000
# 2 -0.004353 0.013118 -0.003762 0.000000 0.006485 0.000000
# 3 -0.000896 -0.003762 0.008017 0.000000 -0.001836 0.000000
# 4 0.000000 0.000000 0.000000 0.111807 0.000000 -0.060379
# 5 -0.001413 0.006485 -0.001836 0.000000 0.018203 0.000000
# 6 0.000000 0.000000 0.000000 -0.060379 0.000000 0.064168
#
#
# Mechanical properties :
#
#
# Convention : Reuss Voigt Hill
#
# Bulk Modulus (GPa) = 119.60980 147.00456 133.30718
# Shear Modulus (GPa) = 20.71510 45.90563 33.31037
#
# Velocity S-wave (km/s) = 2.88813 4.29938 3.66237
# Velocity P-wave (km/s) = 7.69965 9.15642 8.45945
#
# Compressibility (1/GPa) = 0.00836052
#
# Stress axis : x y z
#
# Youngs Moduli (GPa) = 190.52228 76.23322 124.73962
#
# Poissons Ratio (x) = 0.33182 0.11179
# Poissons Ratio (y) = 0.82927 0.46933
# Poissons Ratio (z) = 0.17074 0.28682
#
# Static dielectric constant tensor:
#      x y z
#    x 1.762780 0.000000 0.004550 
#    y 0.000000 2.174610 0.000000 
#    z 0.004550 0.000000 1.969500 
# 
# From -- ./inp_files/29043.got.cif
#   From: 2010.05.17/outbox.cif.g08.bks.cpg/sg15_15_cif.got.tgz:29043.got - 2010.06.03 18:47:42.
