data_PCOD9273783
_publ_section_title
;
Structure prediction by ZEFSAII (Michael W. Deem and Ramdas Pophale) SiO2 
 PCOD9273783
Probable space group: C 2/C
;
_chemical_formula_sum "Si O2"
_cell_formula_units_Z 60
_cell_length_a 32.941858
_cell_length_b 18.142058
_cell_length_c 8.035959
_cell_angle_alpha 90.000000
_cell_angle_beta 36.747070
_cell_angle_gamma 90.000000
_cell_volume 2873.290061
_symmetry_space_group_name_H-M "C 2/C"
_symmetry_group_IT_number 15
_symmetry_cell_setting 'monoclinic'
loop_
_space_group_symop_operation_xyz
x,y,z
-x,y,1/2-z
-x,-y,-z
x,-y,1/2+z
1/2+x,1/2+y,z
1/2-x,1/2+y,1/2-z
1/2-x,1/2-y,-z
1/2+x,1/2-y,1/2+z
loop_
_atom_site_type_symbol
_atom_site_label
_atom_site_fract_x
_atom_site_fract_y
_atom_site_fract_z
Si Si1 0.630002 0.410754 0.436780
Si Si2 0.449965 0.076213 0.264284
Si Si3 0.792759 0.589592 0.018714
Si Si4 0.913905 0.579950 0.867217
Si Si5 0.500000 0.322400 0.750000
Si Si6 0.293610 0.535810 0.499242
Si Si7 0.401603 0.803078 0.711721
Si Si8 0.218281 0.207998 0.450880
O O1 0.553798 0.376301 0.669894
O O2 0.648712 0.490786 0.295673
O O3 0.664559 0.415164 0.505413
O O4 0.672938 0.355568 0.182227
O O5 0.500000 0.083628 0.250000
O O6 0.412177 0.149200 0.340413
O O7 0.402048 0.005947 0.449573
O O8 0.505039 0.074212 0.930758
O O9 0.759628 0.577494 0.945727
O O10 0.753246 0.523810 0.249143
O O11 0.767943 0.668767 0.163254
O O12 0.868833 0.590354 0.849268
O O13 0.899500 0.641184 0.056197
O O14 0.544079 0.262940 0.497076
O O15 0.330450 0.765540 0.972122
O O16 0.250000 0.250000 0.500000
#
# Coordination Sequence:
#
# PCOD9273783 Si02
#       8
#     8   8   8   8   4   8   8   8
#     4   9  20  37  63  85 116 148 195 240 298 346
#     4  11  24  37  54  89 117 150 200 250 286 333
#     4  10  21  36  61  90 118 156 196 241 299 350
#     4  11  21  37  61  82 114 159 196 240 290 348
#     4  10  20  38  62  82 108 162 194 224 296 362
#     4   9  20  39  58  90 121 144 192 257 288 344
#     4  11  21  40  61  79 120 157 196 240 292 358
#     4  10  20  38  59  84 114 162 196 233 295 358
#
# _framework density 20.881985
#
# number of rings (size 3 to 8) (size 9 to 14) (size 15 to 20)
#    0.000    1.867    2.667    1.600    3.733    1.600 
#    2.400    0.667    0.000    0.000    0.000    0.000 
#    0.000    0.000    0.000    0.000    0.000    0.000 
#
# Total GULP energy -167014.096613 kJ/mol
# GULP energy per Si atom -5567.136554 kJ/mol
# Density = 2.083446 g / cm^3
# Si number density = 20.881985 Si / 1000 Ang^3
#
#
#
# Elastic Constant Matrix: (Units=GPa)
#
#
# Indices 1 2 3 4 5 6 
#
# 1 138.5620 46.7176 21.6639 0.0000 -21.0529 0.0000
# 2 46.7176 79.2524 19.8856 0.0000 -18.7244 0.0000
# 3 21.6639 19.8856 39.8505 0.0000 -21.0901 0.0000
# 4 0.0000 0.0000 0.0000 3.4652 0.0000 -3.6350
# 5 -21.0529 -18.7244 -21.0901 0.0000 35.1173 0.0000
# 6 0.0000 0.0000 0.0000 -3.6350 0.0000 47.5861
#
#
#
# Elastic Compliance Matrix: (Units=1/GPa)
#
#
# Indices 1 2 3 4 5 6 
#
# 1 0.009350 -0.004586 -0.001645 0.000000 0.002172 0.000000
# 2 -0.004586 0.017282 -0.003971 0.000000 0.004080 0.000000
# 3 -0.001645 -0.003971 0.038594 0.000000 0.020074 0.000000
# 4 0.000000 0.000000 0.000000 0.313726 0.000000 0.023965
# 5 0.002172 0.004080 0.020074 0.000000 0.044010 0.000000
# 6 0.000000 0.000000 0.000000 0.023965 0.000000 0.022845
#
#
# Mechanical properties :
#
#
# Convention : Reuss Voigt Hill
#
# Bulk Modulus (GPa) = 22.31076 48.24437 35.27757
# Shear Modulus (GPa) = 10.39174 28.52688 19.45931
#
# Velocity S-wave (km/s) = 2.23321 3.70009 3.05597
# Velocity P-wave (km/s) = 4.16618 6.43488 5.42055
#
# Compressibility (1/GPa) = 0.04482142
#
# Stress axis : x y z
#
# Youngs Moduli (GPa) = 106.94688 57.86494 25.91104
#
# Poissons Ratio (x) = 0.26536 0.04263
# Poissons Ratio (y) = 0.49044 0.10290
# Poissons Ratio (z) = 0.17594 0.22979
#
# Static dielectric constant tensor:
#      x y z
#    x 1.690710 0.000000 0.013650 
#    y 0.000000 1.867740 0.000000 
#    z 0.013650 0.000000 1.903870 
# 
# From -- ./inp_files/70762.got.cif
#   From: 2010.05.17/outbox.cif.g08.bks.cpg/sg15_36_cif.got.tgz:70762.got - 2010.06.03 18:47:42.
