data_PCOD9273610
_publ_section_title
;
Structure prediction by ZEFSAII (Michael W. Deem and Ramdas Pophale) SiO2 
 PCOD9273610
Probable space group: C 2/C
;
_chemical_formula_sum "Si O2"
_cell_formula_units_Z 48
_cell_length_a 9.392734
_cell_length_b 24.768228
_cell_length_c 14.664330
_cell_angle_alpha 90.000000
_cell_angle_beta 43.262628
_cell_angle_gamma 90.000000
_cell_volume 2338.069884
_symmetry_space_group_name_H-M "C 2/C"
_symmetry_group_IT_number 15
_symmetry_cell_setting 'monoclinic'
loop_
_space_group_symop_operation_xyz
x,y,z
-x,y,1/2-z
-x,-y,-z
x,-y,1/2+z
1/2+x,1/2+y,z
1/2-x,1/2+y,1/2-z
1/2-x,1/2-y,-z
1/2+x,1/2-y,1/2+z
loop_
_atom_site_type_symbol
_atom_site_label
_atom_site_fract_x
_atom_site_fract_y
_atom_site_fract_z
Si Si1 0.275807 0.830318 0.380160
Si Si2 0.000000 0.371471 0.750000
Si Si3 0.213699 0.056647 0.262206
Si Si4 0.000000 0.876305 0.250000
Si Si5 0.757813 0.911244 0.963914
Si Si6 0.309836 0.934267 0.230895
Si Si7 0.857981 0.196100 0.985655
O O1 0.500000 0.805264 0.250000
O O2 0.273154 0.849269 0.487116
O O3 0.273118 0.887023 0.322640
O O4 0.071520 0.798121 0.444372
O O5 0.106581 0.409567 0.774334
O O6 0.184965 0.335437 0.623754
O O7 0.233426 0.071277 0.145660
O O8 0.982683 0.074229 0.398276
O O9 0.229917 0.994307 0.282834
O O10 0.188683 0.912496 0.198634
O O11 0.078972 0.839406 0.131054
O O12 0.554552 0.939774 0.098661
O O13 0.750000 0.250000 0.000000
#
# Coordination Sequence:
#
# PCOD9273610 Si02
#       7
#     8   4   8   4   8   8   8
#     4   9  20  39  64  90 126 167 220 261 317 398
#     4  12  25  40  64 106 132 164 217 284 328 382
#     4  11  23  35  60  92 135 169 211 261 330 379
#     4  10  21  42  64  94 128 172 229 258 320 412
#     4  10  20  38  55  86 129 172 209 258 314 383
#     4  10  21  36  59  89 126 180 211 257 315 401
#     4  11  23  43  69  93 128 171 221 282 332 376
#
# _framework density 20.529752999999999
#
# number of rings (size 3 to 8) (size 9 to 14) (size 15 to 20)
#    0.000    1.667    1.667    3.000    3.500    3.333 
#    0.000    0.000    7.333    7.000    0.000    0.000 
#    0.000    0.000    0.000    0.000    0.000    0.000 
#
# Total GULP energy -133896.614626 kJ/mol
# GULP energy per Si atom -5579.025609 kJ/mol
# Density = 2.048303 g / cm^3
# Si number density = 20.529753 Si / 1000 Ang^3
#
#
#
# Elastic Constant Matrix: (Units=GPa)
#
#
# Indices 1 2 3 4 5 6 
#
# 1 91.2604 15.4258 13.5760 0.0000 -27.8476 0.0000
# 2 15.4258 54.1806 5.9536 0.0000 -13.7645 0.0000
# 3 13.5760 5.9536 95.3050 0.0000 -26.4438 0.0000
# 4 0.0000 0.0000 0.0000 4.2261 0.0000 -9.6300
# 5 -27.8476 -13.7645 -26.4438 0.0000 41.1420 0.0000
# 6 0.0000 0.0000 0.0000 -9.6300 0.0000 57.8607
#
#
#
# Elastic Compliance Matrix: (Units=1/GPa)
#
#
# Indices 1 2 3 4 5 6 
#
# 1 0.013994 -0.001683 0.000710 0.000000 0.009366 0.000000
# 2 -0.001683 0.020417 0.000662 0.000000 0.006117 0.000000
# 3 0.000710 0.000662 0.012834 0.000000 0.008951 0.000000
# 4 0.000000 0.000000 0.000000 0.381193 0.000000 0.063444
# 5 0.009366 0.006117 0.008951 0.000000 0.038445 0.000000
# 6 0.000000 0.000000 0.000000 0.063444 0.000000 0.027842
#
#
# Mechanical properties :
#
#
# Convention : Reuss Voigt Hill
#
# Bulk Modulus (GPa) = 21.44864 34.51741 27.98303
# Shear Modulus (GPa) = 9.78687 34.36513 22.07600
#
# Velocity S-wave (km/s) = 2.18575 4.09579 3.28276
# Velocity P-wave (km/s) = 4.10369 6.26237 5.29422
#
# Compressibility (1/GPa) = 0.04662300
#
# Stress axis : x y z
#
# Youngs Moduli (GPa) = 71.45716 48.97815 77.92005
#
# Poissons Ratio (x) = 0.08243 -0.05535
# Poissons Ratio (y) = 0.12026 -0.05154
# Poissons Ratio (z) = -0.05076 -0.03240
#
# Static dielectric constant tensor:
#      x y z
#    x 1.749110 0.000000 0.011140 
#    y 0.000000 1.613270 0.000000 
#    z 0.011140 0.000000 1.717270 
# 
# From -- ./inp_files/138948.got.cif
#   From: 2010.05.17/outbox.cif.g08.bks.cpg/sg15_70_cif.got.tgz:138948.got - 2010.06.03 18:47:42.
