data_PCOD9273040
_publ_section_title
;
Structure prediction by ZEFSAII (Michael W. Deem and Ramdas Pophale) SiO2 
 PCOD9273040
Probable space group: C 2/C
;
_chemical_formula_sum "Si O2"
_cell_formula_units_Z 48
_cell_length_a 9.573291
_cell_length_b 17.146360
_cell_length_c 16.238041
_cell_angle_alpha 90.000000
_cell_angle_beta 122.669337
_cell_angle_gamma 90.000000
_cell_volume 2243.756070
_symmetry_space_group_name_H-M "C 2/C"
_symmetry_group_IT_number 15
_symmetry_cell_setting 'monoclinic'
loop_
_space_group_symop_operation_xyz
x,y,z
-x,y,1/2-z
-x,-y,-z
x,-y,1/2+z
1/2+x,1/2+y,z
1/2-x,1/2+y,1/2-z
1/2-x,1/2-y,-z
1/2+x,1/2-y,1/2+z
loop_
_atom_site_type_symbol
_atom_site_label
_atom_site_fract_x
_atom_site_fract_y
_atom_site_fract_z
Si Si1 0.183383 0.884896 0.772050
Si Si2 0.562748 0.088778 0.004253
Si Si3 0.553775 0.471640 0.150802
Si Si4 0.807097 0.185279 0.403741
Si Si5 0.782063 0.851586 0.076588
Si Si6 0.138742 0.105750 0.516204
O O1 0.328740 0.879395 0.884497
O O2 0.227818 0.843736 0.699656
O O3 0.000000 0.860639 0.750000
O O4 0.162865 0.976981 0.746056
O O5 0.392199 0.132194 0.938447
O O6 0.681814 0.107285 0.966047
O O7 0.500000 0.000000 0.000000
O O8 0.424824 0.410481 0.146502
O O9 0.651918 0.423690 0.113405
O O10 0.453498 0.539131 0.068398
O O11 0.767139 0.133749 0.472553
O O12 0.699927 0.261483 0.393108
O O13 0.011573 0.179546 0.472333
#
# Coordination Sequence:
#
# PCOD9273040 Si02
#       6
#     8   8   8   8   8   8
#     4  11  20  37  62  89 120 165 208 247 314 370
#     4  12  22  35  62  96 119 154 207 265 301 358
#     4   9  17  35  61  82 118 162 200 250 298 379
#     4   9  20  38  62  85 118 168 197 250 311 392
#     4  10  20  37  62  89 121 151 213 253 311 364
#     4   9  17  34  57  88 117 159 198 237 321 364
#
# _framework density 21.392700000000001
#
# number of rings (size 3 to 8) (size 9 to 14) (size 15 to 20)
#    0.000    2.000    5.000    1.000    0.000    1.333 
#    0.000    0.000   29.333    0.000    0.000    0.000 
#    0.000    0.000    0.000    0.000    0.000    0.000 
#
# Total GULP energy -133659.988266 kJ/mol
# GULP energy per Si atom -5569.166178 kJ/mol
# Density = 2.134401 g / cm^3
# Si number density = 21.392700 Si / 1000 Ang^3
#
#
#
# Elastic Constant Matrix: (Units=GPa)
#
#
# Indices 1 2 3 4 5 6 
#
# 1 138.2828 -1.6682 23.4276 0.0000 -15.2922 0.0000
# 2 -1.6682 42.8982 5.9269 0.0000 -6.9105 0.0000
# 3 23.4276 5.9269 36.7477 0.0000 -20.8367 0.0000
# 4 0.0000 0.0000 0.0000 13.0835 0.0000 -2.8809
# 5 -15.2922 -6.9105 -20.8367 0.0000 23.9257 0.0000
# 6 0.0000 0.0000 0.0000 -2.8809 0.0000 28.1214
#
#
#
# Elastic Compliance Matrix: (Units=1/GPa)
#
#
# Indices 1 2 3 4 5 6 
#
# 1 0.008188 0.001208 -0.004444 0.000000 0.001712 0.000000
# 2 0.001208 0.024627 -0.000536 0.000000 0.007419 0.000000
# 3 -0.004444 -0.000536 0.056173 0.000000 0.045925 0.000000
# 4 0.000000 0.000000 0.000000 0.078196 0.000000 0.008011
# 5 0.001712 0.007419 0.045925 0.000000 0.085029 0.000000
# 6 0.000000 0.000000 0.000000 0.008011 0.000000 0.036381
#
#
# Mechanical properties :
#
#
# Convention : Reuss Voigt Hill
#
# Bulk Modulus (GPa) = 12.27825 30.36681 21.32253
# Shear Modulus (GPa) = 15.46616 25.70896 20.58756
#
# Velocity S-wave (km/s) = 2.69172 3.47041 3.10556
# Velocity P-wave (km/s) = 3.92586 5.50309 4.77998
#
# Compressibility (1/GPa) = 0.08144485
#
# Stress axis : x y z
#
# Youngs Moduli (GPa) = 122.12353 40.60565 17.80210
#
# Poissons Ratio (x) = -0.04906 0.07912
# Poissons Ratio (y) = -0.14756 0.00954
# Poissons Ratio (z) = 0.54278 0.02175
#
# Static dielectric constant tensor:
#      x y z
#    x 1.816590 0.000000 -0.034310 
#    y 0.000000 1.991220 0.000000 
#    z -0.034310 0.000000 1.825100 
# 
# From -- ./inp_files/190608.got.cif
#   From: 2010.05.17/outbox.cif.g08.bks.cpg/sg15_96_cif.got.tgz:190608.got - 2010.06.03 18:47:42.
