data_PCOD9273922
_publ_section_title
;
Structure prediction by ZEFSAII (Michael W. Deem and Ramdas Pophale) SiO2 
 PCOD9273922
Probable space group: C 2/C
;
_chemical_formula_sum "Si O2"
_cell_formula_units_Z 52
_cell_length_a 16.390303
_cell_length_b 19.288948
_cell_length_c 12.830960
_cell_angle_alpha 90.000000
_cell_angle_beta 148.582548
_cell_angle_gamma 90.000000
_cell_volume 2114.545669
_symmetry_space_group_name_H-M "C 2/C"
_symmetry_group_IT_number 15
_symmetry_cell_setting 'monoclinic'
loop_
_space_group_symop_operation_xyz
x,y,z
-x,y,1/2-z
-x,-y,-z
x,-y,1/2+z
1/2+x,1/2+y,z
1/2-x,1/2+y,1/2-z
1/2-x,1/2-y,-z
1/2+x,1/2-y,1/2+z
loop_
_atom_site_type_symbol
_atom_site_label
_atom_site_fract_x
_atom_site_fract_y
_atom_site_fract_z
Si Si1 0.288240 0.943218 0.840272
Si Si2 0.000000 0.707314 0.750000
Si Si3 0.250604 0.911355 0.242229
Si Si4 0.493815 0.817412 0.029021
Si Si5 0.593570 0.761659 0.767965
Si Si6 0.820897 0.884619 0.567786
Si Si7 0.972400 0.891731 0.100601
O O1 0.432625 0.890601 0.005839
O O2 0.191808 0.931501 0.842458
O O3 0.182025 0.919945 0.625632
O O4 0.341994 0.021591 0.883197
O O5 0.987582 0.735058 0.618278
O O6 0.827181 0.668803 0.578637
O O7 0.341466 0.837985 0.342398
O O8 0.105984 0.910192 0.162924
O O9 0.208181 0.921301 0.074706
O O10 0.382198 0.795150 0.815875
O O11 0.500000 0.807657 0.750000
O O12 0.494793 0.691783 0.636329
O O13 0.750000 0.750000 0.000000
O O14 0.000000 0.857501 0.750000
O O15 0.000000 0.917670 0.250000
#
# Coordination Sequence:
#
# PCOD9273922 Si02
#       7
#     8   4   8   8   8   8   8
#     4  11  23  38  61  91 126 167 216 274 325 399
#     4   8  20  38  62  94 126 162 214 278 324 402
#     4  11  23  38  62  91 126 169 214 270 334 401
#     4  10  21  42  63  89 128 171 216 271 336 389
#     4  11  23  43  66  93 130 172 218 279 326 397
#     4  10  20  38  60  87 129 167 211 271 333 389
#     4  11  24  39  62  93 125 164 218 269 324 395
#
# _framework density 24.591571999999999
#
# number of rings (size 3 to 8) (size 9 to 14) (size 15 to 20)
#    0.000    1.538    1.538    3.692    2.154    0.000 
#    0.000    1.538    0.000    6.462    0.000    0.000 
#    0.000    0.000    0.000    0.000    0.000    0.000 
#
# Total GULP energy -144952.307035 kJ/mol
# GULP energy per Si atom -5575.088732 kJ/mol
# Density = 2.453560 g / cm^3
# Si number density = 24.591572 Si / 1000 Ang^3
#
#
#
# Elastic Constant Matrix: (Units=GPa)
#
#
# Indices 1 2 3 4 5 6 
#
# 1 147.3447 16.8965 56.6821 0.0000 -29.5546 0.0000
# 2 16.8965 55.4031 2.0015 0.0000 -9.8967 0.0000
# 3 56.6821 2.0015 113.4398 0.0000 -20.8327 0.0000
# 4 0.0000 0.0000 0.0000 25.7325 0.0000 -7.7672
# 5 -29.5546 -9.8967 -20.8327 0.0000 66.2728 0.0000
# 6 0.0000 0.0000 0.0000 -7.7672 0.0000 18.9727
#
#
#
# Elastic Compliance Matrix: (Units=1/GPa)
#
#
# Indices 1 2 3 4 5 6 
#
# 1 0.009088 -0.002187 -0.004052 0.000000 0.002453 0.000000
# 2 -0.002187 0.019075 0.001168 0.000000 0.002240 0.000000
# 3 -0.004052 0.001168 0.011164 0.000000 0.001877 0.000000
# 4 0.000000 0.000000 0.000000 0.044341 0.000000 0.018153
# 5 0.002453 0.002240 0.001877 0.000000 0.017107 0.000000
# 6 0.000000 0.000000 0.000000 0.018153 0.000000 0.060139
#
#
# Mechanical properties :
#
#
# Convention : Reuss Voigt Hill
#
# Bulk Modulus (GPa) = 34.26579 51.92753 43.09666
# Shear Modulus (GPa) = 27.65716 38.23609 32.94663
#
# Velocity S-wave (km/s) = 3.35723 3.94743 3.66423
# Velocity P-wave (km/s) = 5.38444 6.47596 5.95526
#
# Compressibility (1/GPa) = 0.02918363
#
# Stress axis : x y z
#
# Youngs Moduli (GPa) = 110.03035 52.42590 89.57342
#
# Poissons Ratio (x) = 0.11467 0.36297
# Poissons Ratio (y) = 0.24066 -0.10460
# Poissons Ratio (z) = 0.44586 -0.06122
#
# Static dielectric constant tensor:
#      x y z
#    x 2.014500 0.000000 0.047950 
#    y 0.000000 2.051880 0.000000 
#    z 0.047950 0.000000 1.952410 
# 
# From -- ./inp_files/100714.got.cif
#   From: 2010.05.17/outbox.cif.g08.bks.cpg/sg15_51_cif.got.tgz:100714.got - 2010.06.03 18:47:42.
