data_PCOD9273596
_publ_section_title
;
Structure prediction by ZEFSAII (Michael W. Deem and Ramdas Pophale) SiO2 
 PCOD9273596
Probable space group: C 2/C
;
_chemical_formula_sum "Si O2"
_cell_formula_units_Z 52
_cell_length_a 17.156580
_cell_length_b 31.630212
_cell_length_c 5.089556
_cell_angle_alpha 90.000000
_cell_angle_beta 86.706003
_cell_angle_gamma 90.000000
_cell_volume 2757.367188
_symmetry_space_group_name_H-M "C 2/C"
_symmetry_group_IT_number 15
_symmetry_cell_setting 'monoclinic'
loop_
_space_group_symop_operation_xyz
x,y,z
-x,y,1/2-z
-x,-y,-z
x,-y,1/2+z
1/2+x,1/2+y,z
1/2-x,1/2+y,1/2-z
1/2-x,1/2-y,-z
1/2+x,1/2-y,1/2+z
loop_
_atom_site_type_symbol
_atom_site_label
_atom_site_fract_x
_atom_site_fract_y
_atom_site_fract_z
Si Si1 0.500000 0.324141 0.250000
Si Si2 0.244721 0.697479 0.319099
Si Si3 0.500000 0.030616 0.250000
Si Si4 0.607064 0.605526 0.891017
Si Si5 0.000000 0.030178 0.750000
Si Si6 0.712321 0.608096 0.371844
Si Si7 0.340575 0.274295 0.303768
Si Si8 0.669957 0.030882 0.151362
O O1 0.459814 0.358626 0.062651
O O2 0.426529 0.293757 0.312592
O O3 0.239819 0.648866 0.237839
O O4 0.285798 0.702730 0.594339
O O5 0.167275 0.725686 0.292910
O O6 0.303347 0.718774 0.096597
O O7 0.584057 0.052350 0.205641
O O8 0.500000 0.000000 0.500000
O O9 0.571237 0.562344 0.784746
O O10 0.668750 0.618639 0.653037
O O11 0.648007 0.599627 0.160495
O O12 0.000000 0.000000 0.500000
O O13 0.766084 0.567135 0.380627
O O14 0.676879 0.999061 0.395738
#
# Coordination Sequence:
#
# PCOD9273596 Si02
#       8
#     4   8   4   8   4   8   8   8
#     4  11  20  40  57  88 108 152 188 240 265 351
#     4  10  20  38  54  86 107 151 169 244 282 339
#     4   8  16  34  53  76 105 134 181 228 271 330
#     4  11  25  35  58  82 112 151 202 231 284 334
#     4  11  24  42  54  74 115 158 195 248 294 321
#     4  12  21  38  56  85 117 148 189 242 279 343
#     4  10  21  35  61  78 114 137 194 218 296 335
#     4  10  21  35  57  84 112 151 193 233 285 338
#
# _framework density 18.85857
#
# number of rings (size 3 to 8) (size 9 to 14) (size 15 to 20)
#    0.000    1.538    3.077    1.846    0.000    7.385 
#    0.000    0.769    0.000    0.000    0.000    8.615 
#    0.000    0.000    0.000    0.000    0.000    0.000 
#
# Total GULP energy -144872.007504 kJ/mol
# GULP energy per Si atom -5572.000289 kJ/mol
# Density = 1.881565 g / cm^3
# Si number density = 18.858570 Si / 1000 Ang^3
#
#
#
# Elastic Constant Matrix: (Units=GPa)
#
#
# Indices 1 2 3 4 5 6 
#
# 1 102.3948 50.0211 22.4874 0.0000 8.9678 0.0000
# 2 50.0211 129.8046 24.2559 0.0000 -0.2518 0.0000
# 3 22.4874 24.2559 118.1350 0.0000 0.0516 0.0000
# 4 0.0000 0.0000 0.0000 24.3250 0.0000 1.0037
# 5 8.9678 -0.2518 0.0516 0.0000 18.4450 0.0000
# 6 0.0000 0.0000 0.0000 1.0037 0.0000 46.4095
#
#
#
# Elastic Compliance Matrix: (Units=1/GPa)
#
#
# Indices 1 2 3 4 5 6 
#
# 1 0.012961 -0.004728 -0.001494 0.000000 -0.006362 0.000000
# 2 -0.004728 0.009736 -0.001100 0.000000 0.002435 0.000000
# 3 -0.001494 -0.001100 0.008975 0.000000 0.000686 0.000000
# 4 0.000000 0.000000 0.000000 0.041147 0.000000 -0.000890
# 5 -0.006362 0.002435 0.000686 0.000000 0.057340 0.000000
# 6 0.000000 0.000000 0.000000 -0.000890 0.000000 0.021567
#
#
# Mechanical properties :
#
#
# Convention : Reuss Voigt Hill
#
# Bulk Modulus (GPa) = 58.72481 60.42924 59.57703
# Shear Modulus (GPa) = 29.06234 34.74057 31.90145
#
# Velocity S-wave (km/s) = 3.92990 4.29670 4.11739
# Velocity P-wave (km/s) = 7.19718 7.53183 7.36640
#
# Compressibility (1/GPa) = 0.01702858
#
# Stress axis : x y z
#
# Youngs Moduli (GPa) = 77.15511 102.71070 111.42308
#
# Poissons Ratio (x) = 0.48560 0.16643
# Poissons Ratio (y) = 0.36477 0.12258
# Poissons Ratio (z) = 0.11524 0.11300
#
# Static dielectric constant tensor:
#      x y z
#    x 1.917870 0.000000 -0.348200 
#    y 0.000000 -1.125180 0.000000 
#    z -0.348200 0.000000 2.184270 
# 
# From -- ./inp_files/11295.got.cif
#   From: 2010.05.17/outbox.cif.g08.bks.cpg/sg15_6_cif.got.tgz:11295.got - 2010.06.03 18:47:42.
