data_PCOD9273001
_publ_section_title
;
Structure prediction by ZEFSAII (Michael W. Deem and Ramdas Pophale) SiO2 
 PCOD9273001
Probable space group: C 2/C
;
_chemical_formula_sum "Si O2"
_cell_formula_units_Z 40
_cell_length_a 21.895016
_cell_length_b 13.998360
_cell_length_c 12.572200
_cell_angle_alpha 90.000000
_cell_angle_beta 154.047730
_cell_angle_gamma 90.000000
_cell_volume 1686.293280
_symmetry_space_group_name_H-M "C 2/C"
_symmetry_group_IT_number 15
_symmetry_cell_setting 'monoclinic'
loop_
_space_group_symop_operation_xyz
x,y,z
-x,y,1/2-z
-x,-y,-z
x,-y,1/2+z
1/2+x,1/2+y,z
1/2-x,1/2+y,1/2-z
1/2-x,1/2-y,-z
1/2+x,1/2-y,1/2+z
loop_
_atom_site_type_symbol
_atom_site_label
_atom_site_fract_x
_atom_site_fract_y
_atom_site_fract_z
Si Si1 0.236304 0.850508 0.911281
Si Si2 0.089458 0.364704 0.003700
Si Si3 0.448559 0.681049 0.861605
Si Si4 0.818447 0.557019 0.084356
Si Si5 0.127898 0.223435 0.521864
O O1 0.083968 0.871806 0.622622
O O2 0.250000 0.750000 0.000000
O O3 0.335609 0.826886 0.967171
O O4 0.283386 0.946860 0.039346
O O5 0.238316 0.343027 0.287795
O O6 0.137532 0.413166 0.968214
O O7 0.014338 0.259760 0.886658
O O8 0.966376 0.420586 0.870340
O O9 0.320643 0.620638 0.612633
O O10 0.394280 0.728079 0.887005
O O11 0.000000 0.186623 0.250000
#
# Coordination Sequence:
#
# PCOD9273001 Si02
#       5
#     8   8   8   8   8
#     4  11  22  37  63  91 121 168 207 250 316 360
#     4   9  21  36  61  93 120 164 208 251 314 362
#     4  10  20  39  63  88 126 168 200 256 317 366
#     4  10  21  39  61  92 125 159 211 255 307 377
#     4  10  20  37  62  85 126 165 201 254 310 356
#
# _framework density 23.720666999999999
#
# number of rings (size 3 to 8) (size 9 to 14) (size 15 to 20)
#    0.000    2.000    2.000    1.200    2.800    0.000 
#    0.000   11.000    0.000    7.200    0.000    0.000 
#    0.000    0.000    0.000    0.000    0.000    0.000 
#
# Total GULP energy -111341.101958 kJ/mol
# GULP energy per Si atom -5567.055098 kJ/mol
# Density = 2.366668 g / cm^3
# Si number density = 23.720667 Si / 1000 Ang^3
#
#
#
# Elastic Constant Matrix: (Units=GPa)
#
#
# Indices 1 2 3 4 5 6 
#
# 1 75.8420 31.8902 27.6514 0.0000 -5.9804 0.0000
# 2 31.8902 109.5281 57.9342 0.0000 11.6899 0.0000
# 3 27.6514 57.9342 186.0266 0.0000 39.0639 0.0000
# 4 0.0000 0.0000 0.0000 11.0737 0.0000 -17.4735
# 5 -5.9804 11.6899 39.0639 0.0000 28.9275 0.0000
# 6 0.0000 0.0000 0.0000 -17.4735 0.0000 18.6507
#
#
#
# Elastic Compliance Matrix: (Units=1/GPa)
#
#
# Indices 1 2 3 4 5 6 
#
# 1 0.016880 -0.004246 -0.003182 0.000000 0.009503 0.000000
# 2 -0.004246 0.012000 -0.002657 0.000000 -0.002139 0.000000
# 3 -0.003182 -0.002657 0.009197 0.000000 -0.012003 0.000000
# 4 0.000000 0.000000 0.000000 -0.188791 0.000000 -0.176875
# 5 0.009503 -0.002139 -0.012003 0.000000 0.053608 0.000000
# 6 0.000000 0.000000 0.000000 -0.176875 0.000000 -0.112094
#
#
# Mechanical properties :
#
#
# Convention : Reuss Voigt Hill
#
# Bulk Modulus (GPa) = 55.84472 67.37202 61.60837
# Shear Modulus (GPa) = -27.31328 28.65844 0.67258
#
# Velocity S-wave (km/s) = -3.39699 3.47964 0.53307
# Velocity P-wave (km/s) = 2.86491 6.67890 5.13884
#
# Compressibility (1/GPa) = 0.01790679
#
# Stress axis : x y z
#
# Youngs Moduli (GPa) = 59.24100 83.33405 108.73540
#
# Poissons Ratio (x) = 0.35382 0.34604
# Poissons Ratio (y) = 0.25152 0.28889
# Poissons Ratio (z) = 0.18853 0.22140
#
# Static dielectric constant tensor:
#      x y z
#    x 1.957680 0.000000 -0.025720 
#    y 0.000000 1.900020 0.000000 
#    z -0.025720 0.000000 2.046730 
# 
# From -- ./inp_files/225054.got.cif
#   From: 2010.05.17/outbox.cif.g08.bks.cpg/sg15_113_cif.got.tgz:225054.got - 2010.06.03 18:47:42.
