data_PCOD9273032
_publ_section_title
;
Structure prediction by ZEFSAII (Michael W. Deem and Ramdas Pophale) SiO2 
 PCOD9273032
Probable space group: C 2/C
;
_chemical_formula_sum "Si O2"
_cell_formula_units_Z 64
_cell_length_a 30.792958
_cell_length_b 12.805465
_cell_length_c 11.613301
_cell_angle_alpha 90.000000
_cell_angle_beta 146.729087
_cell_angle_gamma 90.000000
_cell_volume 2512.216203
_symmetry_space_group_name_H-M "C 2/C"
_symmetry_group_IT_number 15
_symmetry_cell_setting 'monoclinic'
loop_
_space_group_symop_operation_xyz
x,y,z
-x,y,1/2-z
-x,-y,-z
x,-y,1/2+z
1/2+x,1/2+y,z
1/2-x,1/2+y,1/2-z
1/2-x,1/2-y,-z
1/2+x,1/2-y,1/2+z
loop_
_atom_site_type_symbol
_atom_site_label
_atom_site_fract_x
_atom_site_fract_y
_atom_site_fract_z
Si Si1 0.700263 0.412532 0.988953
Si Si2 0.409160 0.667502 0.443544
Si Si3 0.754397 0.929692 0.088460
Si Si4 0.086662 0.064133 0.446385
Si Si5 0.310942 0.884500 0.898274
Si Si6 0.560765 0.980310 0.480445
Si Si7 0.185453 0.715968 0.590164
Si Si8 0.053167 0.333152 0.136780
O O1 0.668848 0.346296 0.810102
O O2 0.732966 0.518368 0.005685
O O3 0.625682 0.439194 0.906147
O O4 0.767251 0.354959 0.211305
O O5 0.426866 0.550668 0.525953
O O6 0.390343 0.738989 0.512538
O O7 0.464951 0.731799 0.480109
O O8 0.686267 0.847993 0.972800
O O9 0.841068 0.887142 0.319386
O O10 0.731501 0.027208 0.119944
O O11 0.000000 0.115965 0.250000
O O12 0.243504 0.812090 0.699805
O O13 0.366979 0.937873 0.930783
O O14 0.372230 0.817940 0.113043
O O15 0.500000 0.023485 0.250000
O O16 0.517631 0.884144 0.448425
O O17 0.578884 0.071904 0.609488
#
# Coordination Sequence:
#
# PCOD9273032 Si02
#       8
#     8   8   8   8   8   8   8   8
#     4  10  20  39  60  84 114 156 200 249 296 359
#     4  11  20  37  62  88 113 155 204 242 297 368
#     4  10  22  37  63  88 119 156 200 254 308 350
#     4  10  23  41  57  82 123 159 201 253 302 356
#     4  11  19  38  61  92 119 153 202 253 294 359
#     4   9  21  38  59  89 129 152 194 246 301 362
#     4  11  20  37  61  90 117 149 203 252 301 357
#     4  10  20  37  62  89 116 165 199 237 303 367
#
# _framework density 25.475515000000001
#
# number of rings (size 3 to 8) (size 9 to 14) (size 15 to 20)
#    0.000    1.750    3.750    1.875    0.000    3.500 
#    6.750    1.875    0.000    0.000    0.000    0.000 
#    0.000    0.000    0.000    0.000    0.000    0.000 
#
# Total GULP energy -179066.344691 kJ/mol
# GULP energy per Si atom -5595.823272 kJ/mol
# Density = 2.541753 g / cm^3
# Si number density = 25.475515 Si / 1000 Ang^3
#
#
#
# Elastic Constant Matrix: (Units=GPa)
#
#
# Indices 1 2 3 4 5 6 
#
# 1 107.9301 10.2909 1.8097 0.0000 -2.3487 0.0000
# 2 10.2909 59.0413 -4.5957 0.0000 -12.4399 0.0000
# 3 1.8097 -4.5957 57.7707 0.0000 0.6037 0.0000
# 4 0.0000 0.0000 0.0000 12.8888 0.0000 7.3513
# 5 -2.3487 -12.4399 0.6037 0.0000 14.5524 0.0000
# 6 0.0000 0.0000 0.0000 7.3513 0.0000 21.9968
#
#
#
# Elastic Compliance Matrix: (Units=1/GPa)
#
#
# Indices 1 2 3 4 5 6 
#
# 1 0.009433 -0.001650 -0.000428 0.000000 0.000130 0.000000
# 2 -0.001650 0.021070 0.001543 0.000000 0.017681 0.000000
# 3 -0.000428 0.001543 0.017440 0.000000 0.000526 0.000000
# 4 0.000000 0.000000 0.000000 0.095858 0.000000 -0.032036
# 5 0.000130 0.017681 0.000526 0.000000 0.083831 0.000000
# 6 0.000000 0.000000 0.000000 -0.032036 0.000000 0.056167
#
#
# Mechanical properties :
#
#
# Convention : Reuss Voigt Hill
#
# Bulk Modulus (GPa) = 21.33413 26.63911 23.98662
# Shear Modulus (GPa) = 16.63922 24.37009 20.50465
#
# Velocity S-wave (km/s) = 2.55844 3.09626 2.84011
# Velocity P-wave (km/s) = 4.13764 4.82306 4.49344
#
# Compressibility (1/GPa) = 0.04687326
#
# Stress axis : x y z
#
# Youngs Moduli (GPa) = 106.01544 47.45977 57.33789
#
# Poissons Ratio (x) = 0.07831 0.02455
# Poissons Ratio (y) = 0.17494 -0.08848
# Poissons Ratio (z) = 0.04539 -0.07323
#
# Static dielectric constant tensor:
#      x y z
#    x 1.987780 0.000000 -0.036250 
#    y 0.000000 2.032170 0.000000 
#    z -0.036250 0.000000 2.053930 
# 
# From -- ./inp_files/126894.got.cif
#   From: 2010.05.17/outbox.cif.g08.bks.cpg/sg15_64_cif.got.tgz:126894.got - 2010.06.03 18:47:42.
