data_PCOD9273787
_publ_section_title
;
Structure prediction by ZEFSAII (Michael W. Deem and Ramdas Pophale) SiO2 
 PCOD9273787
Probable space group: C 2/C
;
_chemical_formula_sum "Si O2"
_cell_formula_units_Z 28
_cell_length_a 7.409130
_cell_length_b 11.921780
_cell_length_c 19.830064
_cell_angle_alpha 90.000000
_cell_angle_beta 137.170777
_cell_angle_gamma 90.000000
_cell_volume 1190.757873
_symmetry_space_group_name_H-M "C 2/C"
_symmetry_group_IT_number 15
_symmetry_cell_setting 'monoclinic'
loop_
_space_group_symop_operation_xyz
x,y,z
-x,y,1/2-z
-x,-y,-z
x,-y,1/2+z
1/2+x,1/2+y,z
1/2-x,1/2+y,1/2-z
1/2-x,1/2-y,-z
1/2+x,1/2-y,1/2+z
loop_
_atom_site_type_symbol
_atom_site_label
_atom_site_fract_x
_atom_site_fract_y
_atom_site_fract_z
Si Si1 0.000000 0.150310 0.250000
Si Si2 0.519974 0.000288 0.119109
Si Si3 0.169766 0.828285 0.094862
Si Si4 0.276044 0.158320 0.934004
O O1 0.113864 0.230563 0.339132
O O2 0.240139 0.075001 0.287290
O O3 0.659383 0.898355 0.118023
O O4 0.385689 0.076066 0.023662
O O5 0.302593 0.943022 0.107453
O O6 0.030816 0.833226 0.130190
O O7 0.936920 0.774890 0.984796
#
# Coordination Sequence:
#
# PCOD9273787 Si02
#       4
#     4   8   8   8
#     4  10  24  36  54  94 120 150 200 228 290 366
#     4  10  20  38  59  84 119 151 191 244 284 339
#     4  10  20  38  59  84 119 151 191 244 284 339
#     4   9  20  37  62  86 108 152 204 234 282 345
#
# _framework density 23.514434999999999
#
# number of rings (size 3 to 8) (size 9 to 14) (size 15 to 20)
#    0.000    2.286    0.000    1.714    4.000    0.000 
#    0.000    2.857    0.000    0.000    0.000    0.000 
#    0.000    0.000    0.000    0.000    0.000    0.000 
#
# Total GULP energy -78183.220479 kJ/mol
# GULP energy per Si atom -5584.515749 kJ/mol
# Density = 2.346091 g / cm^3
# Si number density = 23.514435 Si / 1000 Ang^3
#
#
#
# Elastic Constant Matrix: (Units=GPa)
#
#
# Indices 1 2 3 4 5 6 
#
# 1 51.9975 20.0222 38.4125 0.0000 26.0958 0.0000
# 2 20.0222 87.8457 35.1432 0.0000 21.1839 0.0000
# 3 38.4125 35.1432 66.5489 0.0000 31.6741 0.0000
# 4 0.0000 0.0000 0.0000 38.2620 0.0000 14.2978
# 5 26.0958 21.1839 31.6741 0.0000 25.5042 0.0000
# 6 0.0000 0.0000 0.0000 14.2978 0.0000 39.9565
#
#
#
# Elastic Compliance Matrix: (Units=1/GPa)
#
#
# Indices 1 2 3 4 5 6 
#
# 1 0.042054 0.002248 -0.010008 0.000000 -0.032468 0.000000
# 2 0.002248 0.014961 -0.005353 0.000000 -0.008079 0.000000
# 3 -0.010008 -0.005353 0.040694 0.000000 -0.035852 0.000000
# 4 0.000000 0.000000 0.000000 0.030170 0.000000 -0.010796
# 5 -0.032468 -0.008079 -0.035852 0.000000 0.123666 0.000000
# 6 0.000000 0.000000 0.000000 -0.010796 0.000000 0.028890
#
#
# Mechanical properties :
#
#
# Convention : Reuss Voigt Hill
#
# Bulk Modulus (GPa) = 13.98933 43.72755 28.85844
# Shear Modulus (GPa) = 15.12915 28.26548 21.69732
#
# Velocity S-wave (km/s) = 2.53928 3.47082 3.04093
# Velocity P-wave (km/s) = 3.81568 5.89054 4.96276
#
# Compressibility (1/GPa) = 0.07148307
#
# Stress axis : x y z
#
# Youngs Moduli (GPa) = 23.77919 66.84083 24.57367
#
# Poissons Ratio (x) = -0.15027 0.24593
# Poissons Ratio (y) = -0.05346 0.13154
# Poissons Ratio (z) = 0.23798 0.35780
#
# Static dielectric constant tensor:
#      x y z
#    x 1.896010 0.000000 0.032490 
#    y 0.000000 1.918420 0.000000 
#    z 0.032490 0.000000 1.967590 
# 
# From -- ./inp_files/131573.got.cif
#   From: 2010.05.17/outbox.cif.g08.bks.cpg/sg15_66_cif.got.tgz:131573.got - 2010.06.03 18:47:42.
