data_PCOD9273788
_publ_section_title
;
Structure prediction by ZEFSAII (Michael W. Deem and Ramdas Pophale) SiO2 
 PCOD9273788
Probable space group: C 2/C
;
_chemical_formula_sum "Si O2"
_cell_formula_units_Z 44
_cell_length_a 9.575649
_cell_length_b 10.393750
_cell_length_c 22.729626
_cell_angle_alpha 90.000000
_cell_angle_beta 105.771885
_cell_angle_gamma 90.000000
_cell_volume 2177.040437
_symmetry_space_group_name_H-M "C 2/C"
_symmetry_group_IT_number 15
_symmetry_cell_setting 'monoclinic'
loop_
_space_group_symop_operation_xyz
x,y,z
-x,y,1/2-z
-x,-y,-z
x,-y,1/2+z
1/2+x,1/2+y,z
1/2-x,1/2+y,1/2-z
1/2-x,1/2-y,-z
1/2+x,1/2-y,1/2+z
loop_
_atom_site_type_symbol
_atom_site_label
_atom_site_fract_x
_atom_site_fract_y
_atom_site_fract_z
Si Si1 0.991237 0.321237 0.829091
Si Si2 0.218973 0.234715 0.780729
Si Si3 0.825236 0.383298 0.989898
Si Si4 0.735593 0.480536 0.850117
Si Si5 0.125476 0.653963 0.467377
Si Si6 0.000000 0.832478 0.750000
O O1 0.129025 0.349359 0.802891
O O2 0.053075 0.293186 0.900066
O O3 0.892182 0.211032 0.786573
O O4 0.873974 0.431639 0.828237
O O5 0.376489 0.257891 0.772449
O O6 0.223086 0.128802 0.831919
O O7 0.763214 0.437377 0.920323
O O8 0.995668 0.354026 0.999826
O O9 0.750000 0.250000 0.000000
O O10 0.817344 0.506661 0.032285
O O11 0.593262 0.413917 0.807240
O O12 0.250000 0.750000 0.500000
#
# Coordination Sequence:
#
# PCOD9273788 Si02
#       6
#     8   8   8   8   8   4
#     4   9  20  37  57  85 119 152 194 246 301 359
#     4  10  20  38  59  84 119 153 194 251 306 362
#     4  10  23  41  61  89 127 163 208 260 302 362
#     4  10  21  38  58  85 119 156 196 247 306 359
#     4  10  21  39  62  89 122 166 208 250 306 363
#     4  10  22  34  58  88 108 146 200 242 302 364
#
# _framework density 20.210923000000001
#
# number of rings (size 3 to 8) (size 9 to 14) (size 15 to 20)
#    0.000    2.182    0.000    2.182    0.000    9.455 
#    0.000   14.545    0.000    0.000    0.000    0.000 
#    0.000    0.000    0.000    0.000    0.000    0.000 
#
# Total GULP energy -122496.920890 kJ/mol
# GULP energy per Si atom -5568.041859 kJ/mol
# Density = 2.016492 g / cm^3
# Si number density = 20.210923 Si / 1000 Ang^3
#
#
#
# Elastic Constant Matrix: (Units=GPa)
#
#
# Indices 1 2 3 4 5 6 
#
# 1 131.5333 53.4318 39.4670 0.0000 9.9190 0.0000
# 2 53.4318 81.9294 18.5630 0.0000 -0.4051 0.0000
# 3 39.4670 18.5630 71.1091 0.0000 11.7760 0.0000
# 4 0.0000 0.0000 0.0000 26.8748 0.0000 -2.5818
# 5 9.9190 -0.4051 11.7760 0.0000 33.4205 0.0000
# 6 0.0000 0.0000 0.0000 -2.5818 0.0000 26.3466
#
#
#
# Elastic Compliance Matrix: (Units=1/GPa)
#
#
# Indices 1 2 3 4 5 6 
#
# 1 0.011822 -0.006705 -0.004478 0.000000 -0.002012 0.000000
# 2 -0.006705 0.016841 -0.001103 0.000000 0.002583 0.000000
# 3 -0.004478 -0.001103 0.017648 0.000000 -0.004903 0.000000
# 4 0.000000 0.000000 0.000000 0.037563 0.000000 0.003681
# 5 -0.002012 0.002583 -0.004903 0.000000 0.032278 0.000000
# 6 0.000000 0.000000 0.000000 0.003681 0.000000 0.038316
#
#
# Mechanical properties :
#
#
# Convention : Reuss Voigt Hill
#
# Bulk Modulus (GPa) = 45.99855 56.38839 51.19347
# Shear Modulus (GPa) = 26.84054 28.86904 27.85479
#
# Velocity S-wave (km/s) = 3.64816 3.78350 3.71645
# Velocity P-wave (km/s) = 6.36821 6.85909 6.61820
#
# Compressibility (1/GPa) = 0.02173982
#
# Stress axis : x y z
#
# Youngs Moduli (GPa) = 84.59008 59.37847 56.66413
#
# Poissons Ratio (x) = 0.39814 0.25372
# Poissons Ratio (y) = 0.56719 0.06248
# Poissons Ratio (z) = 0.37877 0.06547
#
# Static dielectric constant tensor:
#      x y z
#    x 1.722830 0.000000 -0.006710 
#    y 0.000000 1.750670 0.000000 
#    z -0.006710 0.000000 1.768470 
# 
# From -- ./inp_files/230127.got.cif
#   From: 2010.05.17/outbox.cif.g08.bks.cpg/sg15_116_cif.got.tgz:230127.got - 2010.06.03 18:47:42.
