data_PCOD9273604
_publ_section_title
;
Structure prediction by ZEFSAII (Michael W. Deem and Ramdas Pophale) SiO2 
 PCOD9273604
Probable space group: C 2/C
;
_chemical_formula_sum "Si O2"
_cell_formula_units_Z 60
_cell_length_a 31.983224
_cell_length_b 11.902378
_cell_length_c 12.109411
_cell_angle_alpha 90.000000
_cell_angle_beta 45.429385
_cell_angle_gamma 90.000000
_cell_volume 3283.933937
_symmetry_space_group_name_H-M "C 2/C"
_symmetry_group_IT_number 15
_symmetry_cell_setting 'monoclinic'
loop_
_space_group_symop_operation_xyz
x,y,z
-x,y,1/2-z
-x,-y,-z
x,-y,1/2+z
1/2+x,1/2+y,z
1/2-x,1/2+y,1/2-z
1/2-x,1/2-y,-z
1/2+x,1/2-y,1/2+z
loop_
_atom_site_type_symbol
_atom_site_label
_atom_site_fract_x
_atom_site_fract_y
_atom_site_fract_z
Si Si1 0.589566 0.323627 0.486044
Si Si2 0.361391 0.966425 0.060184
Si Si3 0.196016 0.684570 0.226712
Si Si4 0.556200 0.116735 0.701906
Si Si5 0.677811 0.231842 0.003564
Si Si6 0.447413 0.308795 0.199993
Si Si7 0.500000 0.501400 0.750000
Si Si8 0.031586 0.387110 0.486738
O O1 0.659121 0.291554 0.344990
O O2 0.567496 0.214876 0.593564
O O3 0.567595 0.325344 0.400894
O O4 0.556373 0.426056 0.608953
O O5 0.328888 0.068380 0.180429
O O6 0.322665 0.866938 0.084844
O O7 0.411941 0.918445 0.046516
O O8 0.392951 0.025149 0.896741
O O9 0.264944 0.693384 0.122393
O O10 0.185350 0.687052 0.114909
O O11 0.500000 0.057836 0.750000
O O12 0.549514 0.166622 0.835521
O O13 0.613866 0.289717 0.122003
O O14 0.480809 0.415351 0.187363
O O15 0.487597 0.196952 0.129815
O O16 0.000000 0.500000 0.500000
#
# Coordination Sequence:
#
# PCOD9273604 Si02
#       8
#     8   8   8   8   8   8   4   8
#     4  10  20  38  55  75 106 152 188 218 277 337
#     4  11  21  32  58  87 110 146 185 241 291 332
#     4   9  21  40  59  78 106 152 198 229 271 347
#     4  11  18  32  53  80 112 144 177 220 277 354
#     4  10  21  39  56  78 112 146 189 232 280 331
#     4  11  22  34  53  84 113 143 181 228 279 344
#     4  12  22  34  54  82 116 144 178 228 280 328
#     4  12  20  32  54  86 121 139 175 231 298 341
#
# _framework density 18.270769999999999
#
# number of rings (size 3 to 8) (size 9 to 14) (size 15 to 20)
#    0.000    1.333    3.333    4.400    0.000    1.067 
#    0.000    0.000    0.000    7.200    0.000    0.000 
#    0.000    0.000    0.000    0.000    0.000    0.000 
#
# Total GULP energy -167234.347044 kJ/mol
# GULP energy per Si atom -5574.478235 kJ/mol
# Density = 1.822918 g / cm^3
# Si number density = 18.270770 Si / 1000 Ang^3
#
#
#
# Elastic Constant Matrix: (Units=GPa)
#
#
# Indices 1 2 3 4 5 6 
#
# 1 71.6928 34.0335 35.5620 0.0000 -12.1636 0.0000
# 2 34.0335 75.4942 29.4583 0.0000 -7.1573 0.0000
# 3 35.5620 29.4583 86.8284 0.0000 -12.1743 0.0000
# 4 0.0000 0.0000 0.0000 23.9069 0.0000 3.4894
# 5 -12.1636 -7.1573 -12.1743 0.0000 24.6047 0.0000
# 6 0.0000 0.0000 0.0000 3.4894 0.0000 30.2886
#
#
#
# Elastic Compliance Matrix: (Units=1/GPa)
#
#
# Indices 1 2 3 4 5 6 
#
# 1 0.020794 -0.006714 -0.005449 0.000000 0.005630 0.000000
# 2 -0.006714 0.017529 -0.003167 0.000000 0.000213 0.000000
# 3 -0.005449 -0.003167 0.015384 0.000000 0.003997 0.000000
# 4 0.000000 0.000000 0.000000 0.042544 0.000000 -0.004901
# 5 0.005630 0.000213 0.003997 0.000000 0.045465 0.000000
# 6 0.000000 0.000000 0.000000 -0.004901 0.000000 0.033580
#
#
# Mechanical properties :
#
#
# Convention : Reuss Voigt Hill
#
# Bulk Modulus (GPa) = 43.39263 48.01366 45.70314
# Shear Modulus (GPa) = 23.40393 24.75749 24.08071
#
# Velocity S-wave (km/s) = 3.58292 3.68507 3.63435
# Velocity P-wave (km/s) = 6.39670 6.66651 6.53299
#
# Compressibility (1/GPa) = 0.02304539
#
# Stress axis : x y z
#
# Youngs Moduli (GPa) = 48.09122 57.04875 65.00370
#
# Poissons Ratio (x) = 0.38302 0.35422
# Poissons Ratio (y) = 0.32288 0.20589
# Poissons Ratio (z) = 0.26206 0.18070
#
# Static dielectric constant tensor:
#      x y z
#    x 1.612880 0.000000 -0.016080 
#    y 0.000000 1.616570 0.000000 
#    z -0.016080 0.000000 1.710350 
# 
# From -- ./inp_files/126441.got.cif
#   From: 2010.05.17/outbox.cif.g08.bks.cpg/sg15_64_cif.got.tgz:126441.got - 2010.06.03 18:47:42.
