data_PCOD9273267
_publ_section_title
;
Structure prediction by ZEFSAII (Michael W. Deem and Ramdas Pophale) SiO2 
 PCOD9273267
Probable space group: C 2/C
;
_chemical_formula_sum "Si O2"
_cell_formula_units_Z 56
_cell_length_a 8.133563
_cell_length_b 26.252324
_cell_length_c 15.193480
_cell_angle_alpha 90.000000
_cell_angle_beta 122.505689
_cell_angle_gamma 90.000000
_cell_volume 2735.946282
_symmetry_space_group_name_H-M "C 2/C"
_symmetry_group_IT_number 15
_symmetry_cell_setting 'monoclinic'
loop_
_space_group_symop_operation_xyz
x,y,z
-x,y,1/2-z
-x,-y,-z
x,-y,1/2+z
1/2+x,1/2+y,z
1/2-x,1/2+y,1/2-z
1/2-x,1/2-y,-z
1/2+x,1/2-y,1/2+z
loop_
_atom_site_type_symbol
_atom_site_label
_atom_site_fract_x
_atom_site_fract_y
_atom_site_fract_z
Si Si1 0.152166 0.658115 0.715242
Si Si2 0.710880 0.557814 0.665927
Si Si3 0.855712 0.487227 0.039027
Si Si4 0.045297 0.950314 0.665381
Si Si5 0.020106 0.244342 0.660932
Si Si6 0.693139 0.592106 0.044562
Si Si7 0.378270 0.817350 0.488136
O O1 0.241625 0.601882 0.751416
O O2 0.315640 0.701279 0.780524
O O3 0.063482 0.663931 0.592185
O O4 0.000000 0.663609 0.750000
O O5 0.864311 0.549198 0.628856
O O6 0.671551 0.502813 0.698880
O O7 0.508663 0.577924 0.563647
O O8 0.657516 0.467307 0.937228
O O9 0.823179 0.542185 0.071927
O O10 0.000000 0.500000 0.000000
O O11 0.139892 0.906722 0.632098
O O12 0.000000 0.933655 0.750000
O O13 0.000000 0.271319 0.750000
O O14 0.816097 0.215690 0.585658
O O15 0.036471 0.283529 0.585210
O O16 0.802932 0.638144 0.030354
#
# Coordination Sequence:
#
# PCOD9273267 Si02
#       7
#     8   8   8   8   8   8   8
#     4  11  23  34  59  95 120 149 199 251 308 352
#     4   9  19  33  51  83 118 156 196 238 286 350
#     4   9  19  33  52  79 119 155 189 238 290 337
#     4   9  19  33  54  78 116 158 195 237 286 347
#     4   9  20  40  62  85 111 151 197 248 305 364
#     4   9  18  35  55  78 110 155 194 233 289 347
#     4  10  20  37  64  84 114 154 200 251 292 360
#
# _framework density 20.468239000000001
#
# number of rings (size 3 to 8) (size 9 to 14) (size 15 to 20)
#    0.000    2.571    1.429    1.714    6.000    0.571 
#    0.000    3.571    0.000    3.429    0.000    0.000 
#    0.000    0.000    0.000    0.000    0.000    0.000 
#
# Total GULP energy -156039.565754 kJ/mol
# GULP energy per Si atom -5572.841634 kJ/mol
# Density = 2.042165 g / cm^3
# Si number density = 20.468239 Si / 1000 Ang^3
#
#
#
# Elastic Constant Matrix: (Units=GPa)
#
#
# Indices 1 2 3 4 5 6 
#
# 1 60.4944 11.9785 17.2910 0.0000 -26.9207 0.0000
# 2 11.9785 61.5174 55.5074 0.0000 -12.0554 0.0000
# 3 17.2910 55.5074 108.3880 0.0000 -38.9144 0.0000
# 4 0.0000 0.0000 0.0000 31.7761 0.0000 -12.7438
# 5 -26.9207 -12.0554 -38.9144 0.0000 37.4529 0.0000
# 6 0.0000 0.0000 0.0000 -12.7438 0.0000 18.5496
#
#
#
# Elastic Compliance Matrix: (Units=1/GPa)
#
#
# Indices 1 2 3 4 5 6 
#
# 1 0.027673 -0.009150 0.010136 0.000000 0.027478 0.000000
# 2 -0.009150 0.035865 -0.024122 0.000000 -0.020096 0.000000
# 3 0.010136 -0.024122 0.031566 0.000000 0.032319 0.000000
# 4 0.000000 0.000000 0.000000 0.043439 0.000000 0.029843
# 5 0.027478 -0.020096 0.032319 0.000000 0.073563 0.000000
# 6 0.000000 0.000000 0.000000 0.029843 0.000000 0.074412
#
#
# Mechanical properties :
#
#
# Convention : Reuss Voigt Hill
#
# Bulk Modulus (GPa) = 20.47828 44.43926 32.45877
# Shear Modulus (GPa) = 14.32393 27.26391 20.79392
#
# Velocity S-wave (km/s) = 2.64827 3.65363 3.19079
# Velocity P-wave (km/s) = 4.40201 6.28945 5.42839
#
# Compressibility (1/GPa) = 0.04883221
#
# Stress axis : x y z
#
# Youngs Moduli (GPa) = 36.13648 27.88254 31.67950
#
# Poissons Ratio (x) = 0.25512 -0.32112
# Poissons Ratio (y) = 0.33064 0.76419
# Poissons Ratio (z) = -0.36630 0.67260
#
# Static dielectric constant tensor:
#      x y z
#    x 1.781360 0.000000 0.001770 
#    y 0.000000 1.738510 0.000000 
#    z 0.001770 0.000000 1.804970 
# 
# From -- ./inp_files/138280.got.cif
#   From: 2010.05.17/outbox.cif.g08.bks.cpg/sg15_70_cif.got.tgz:138280.got - 2010.06.03 18:47:42.
