data_PCOD9273547
_publ_section_title
;
Structure prediction by ZEFSAII (Michael W. Deem and Ramdas Pophale) SiO2 
 PCOD9273547
Probable space group: C 2/C
;
_chemical_formula_sum "Si O2"
_cell_formula_units_Z 36
_cell_length_a 8.731006
_cell_length_b 14.776412
_cell_length_c 18.981668
_cell_angle_alpha 90.000000
_cell_angle_beta 42.086468
_cell_angle_gamma 90.000000
_cell_volume 1641.365711
_symmetry_space_group_name_H-M "C 2/C"
_symmetry_group_IT_number 15
_symmetry_cell_setting 'monoclinic'
loop_
_space_group_symop_operation_xyz
x,y,z
-x,y,1/2-z
-x,-y,-z
x,-y,1/2+z
1/2+x,1/2+y,z
1/2-x,1/2+y,1/2-z
1/2-x,1/2-y,-z
1/2+x,1/2-y,1/2+z
loop_
_atom_site_type_symbol
_atom_site_label
_atom_site_fract_x
_atom_site_fract_y
_atom_site_fract_z
Si Si1 0.862244 0.140076 0.151849
Si Si2 0.500000 0.410823 0.750000
Si Si3 0.500000 0.017105 0.750000
Si Si4 0.745123 0.429120 0.086270
Si Si5 0.500000 0.709545 0.750000
Si Si6 0.650733 0.072577 0.550250
O O1 0.715946 0.224746 0.177888
O O2 0.885325 0.146104 0.228279
O O3 0.718105 0.048840 0.186048
O O4 0.114454 0.128082 0.033917
O O5 0.330106 0.479469 0.847277
O O6 0.542156 0.072440 0.664332
O O7 0.545579 0.357107 0.168148
O O8 0.967201 0.397106 0.053840
O O9 0.792352 0.467573 0.992493
#
# Coordination Sequence:
#
# PCOD9273547 Si02
#       6
#     8   4   4   8   4   8
#     4  10  21  36  61  94 128 163 201 258 314 373
#     4   9  16  37  65  83 122 168 212 243 300 371
#     4  11  20  37  63  98 121 156 212 273 284 359
#     4   9  19  38  65  90 118 168 211 252 303 377
#     4  10  22  40  62  93 135 156 196 264 328 356
#     4  10  20  37  68  92 118 163 223 249 299 369
#
# _framework density 21.932953999999999
#
# number of rings (size 3 to 8) (size 9 to 14) (size 15 to 20)
#    0.000    2.222    2.222    0.667    0.000    0.889 
#    0.000    5.556    0.000    0.000    0.000    0.000 
#    0.000    0.000    0.000    0.000    0.000    0.000 
#
# Total GULP energy -100461.237484 kJ/mol
# GULP energy per Si atom -5581.179860 kJ/mol
# Density = 2.188303 g / cm^3
# Si number density = 21.932954 Si / 1000 Ang^3
#
#
#
# Elastic Constant Matrix: (Units=GPa)
#
#
# Indices 1 2 3 4 5 6 
#
# 1 56.5774 11.6860 33.3209 -0.0001 7.6751 -0.0004
# 2 11.6860 66.9357 29.6210 -0.0020 -3.6364 -0.0001
# 3 33.3209 29.6210 114.4585 -0.0036 -0.8071 -0.0013
# 4 -0.0001 -0.0020 -0.0036 12.2060 -0.0005 0.5354
# 5 7.6751 -3.6364 -0.8071 -0.0005 38.4954 0.0003
# 6 -0.0004 -0.0001 -0.0013 0.5354 0.0003 -0.8590
#
#
#
# Elastic Compliance Matrix: (Units=1/GPa)
#
#
# Indices 1 2 3 4 5 6 
#
# 1 0.022217 -0.001419 -0.006133 -0.000002 -0.004692 -0.000004
# 2 -0.001419 0.017050 -0.003986 0.000001 0.001810 0.000006
# 3 -0.006133 -0.003986 0.011562 0.000003 0.001089 -0.000012
# 4 -0.000002 0.000001 0.000003 0.079747 0.000001 0.049704
# 5 -0.004692 0.001810 0.001089 0.000001 0.027107 0.000011
# 6 -0.000004 0.000006 -0.000012 0.049704 0.000011 -1.133137
#
#
# Mechanical properties :
#
#
# Convention : Reuss Voigt Hill
#
# Bulk Modulus (GPa) = 36.03616 43.02526 39.53071
# Shear Modulus (GPa) = -5.30152 20.85804 7.77826
#
# Velocity S-wave (km/s) = -1.55640 3.08716 1.88523
# Velocity P-wave (km/s) = 3.63812 5.68918 4.77507
#
# Compressibility (1/GPa) = 0.02774991
#
# Stress axis : x y z
#
# Youngs Moduli (GPa) = 45.01079 58.65114 86.49246
#
# Poissons Ratio (x) = 0.08325 0.53050
# Poissons Ratio (y) = 0.06389 0.34480
# Poissons Ratio (z) = 0.27607 0.23381
#
# Static dielectric constant tensor:
#      x y z
#    x 1.857740 0.000000 -0.016160 
#    y 0.000000 1.784290 0.000000 
#    z -0.016160 0.000000 1.853220 
# 
# From -- ./inp_files/132682.got.cif
#   From: 2010.05.17/outbox.cif.g08.bks.cpg/sg15_67_cif.got.tgz:132682.got - 2010.06.03 18:47:42.
