data_PCOD9273820
_publ_section_title
;
Structure prediction by ZEFSAII (Michael W. Deem and Ramdas Pophale) SiO2 
 PCOD9273820
Probable space group: C 2/C
;
_chemical_formula_sum "Si O2"
_cell_formula_units_Z 40
_cell_length_a 8.168700
_cell_length_b 26.376724
_cell_length_c 7.930575
_cell_angle_alpha 90.000000
_cell_angle_beta 87.858633
_cell_angle_gamma 90.000000
_cell_volume 1707.556547
_symmetry_space_group_name_H-M "C 2/C"
_symmetry_group_IT_number 15
_symmetry_cell_setting 'monoclinic'
loop_
_space_group_symop_operation_xyz
x,y,z
-x,y,1/2-z
-x,-y,-z
x,-y,1/2+z
1/2+x,1/2+y,z
1/2-x,1/2+y,1/2-z
1/2-x,1/2-y,-z
1/2+x,1/2-y,1/2+z
loop_
_atom_site_type_symbol
_atom_site_label
_atom_site_fract_x
_atom_site_fract_y
_atom_site_fract_z
Si Si1 0.500000 0.512435 0.250000
Si Si2 0.602611 0.162796 0.503211
Si Si3 0.770897 0.177878 0.844264
Si Si4 0.998777 0.441488 0.045480
Si Si5 0.643799 0.428733 0.046814
Si Si6 0.500000 0.763042 0.750000
O O1 0.640402 0.471272 0.196329
O O2 0.529372 0.548016 0.408514
O O3 0.275928 0.176775 0.851397
O O4 0.619726 0.102165 0.474559
O O5 0.411407 0.173305 0.566404
O O6 0.621172 0.199553 0.345575
O O7 0.674128 0.072731 0.029739
O O8 0.875331 0.128062 0.889678
O O9 0.886164 0.226217 0.866954
O O10 0.000000 0.434630 0.250000
O O11 0.000000 0.500000 0.000000
#
# Coordination Sequence:
#
# PCOD9273820 Si02
#       6
#     4   8   8   8   8   4
#     4  10  21  36  58  90 128 157 202 242 298 370
#     4  10  22  42  61  90 125 158 204 265 304 370
#     4  10  21  43  61  85 125 162 202 260 316 355
#     4  11  21  38  63  89 120 158 197 246 302 362
#     4  10  20  38  59  88 123 162 196 246 302 363
#     4  12  23  38  66  92 112 165 216 254 314 370
#
# _framework density 23.425286
#
# number of rings (size 3 to 8) (size 9 to 14) (size 15 to 20)
#    0.000    1.600    4.000    3.000    1.400    0.000 
#    0.000    6.000    0.000    0.000    0.000    0.000 
#    0.000    0.000    0.000    0.000    0.000    0.000 
#
# Total GULP energy -111503.028760 kJ/mol
# GULP energy per Si atom -5575.151438 kJ/mol
# Density = 2.337197 g / cm^3
# Si number density = 23.425286 Si / 1000 Ang^3
#
#
#
# Elastic Constant Matrix: (Units=GPa)
#
#
# Indices 1 2 3 4 5 6 
#
# 1 36.8784 17.1824 0.4593 0.0000 3.4264 0.0000
# 2 17.1824 202.9493 48.9192 0.0000 31.6410 0.0000
# 3 0.4593 48.9192 52.2950 0.0000 17.0168 0.0000
# 4 0.0000 0.0000 0.0000 37.8176 0.0000 6.8522
# 5 3.4264 31.6410 17.0168 0.0000 20.8832 0.0000
# 6 0.0000 0.0000 0.0000 6.8522 0.0000 23.1467
#
#
#
# Elastic Compliance Matrix: (Units=1/GPa)
#
#
# Indices 1 2 3 4 5 6 
#
# 1 0.028651 -0.002720 0.003377 0.000000 -0.003331 0.000000
# 2 -0.002720 0.007347 -0.004588 0.000000 -0.006946 0.000000
# 3 0.003377 -0.004588 0.028990 0.000000 -0.017225 0.000000
# 4 0.000000 0.000000 0.000000 0.027941 0.000000 -0.008272
# 5 -0.003331 -0.006946 -0.017225 0.000000 0.072992 0.000000
# 6 0.000000 0.000000 0.000000 -0.008272 0.000000 0.045651
#
#
# Mechanical properties :
#
#
# Convention : Reuss Voigt Hill
#
# Bulk Modulus (GPa) = 17.50574 47.24939 32.37757
# Shear Modulus (GPa) = 20.96645 31.40694 26.18670
#
# Velocity S-wave (km/s) = 2.99496 3.66557 3.34710
# Velocity P-wave (km/s) = 4.41010 6.17489 5.36555
#
# Compressibility (1/GPa) = 0.05712411
#
# Stress axis : x y z
#
# Youngs Moduli (GPa) = 34.90273 136.11889 34.49520
#
# Poissons Ratio (x) = 0.37030 -0.11649
# Poissons Ratio (y) = 0.09495 0.15827
# Poissons Ratio (z) = -0.11787 0.62453
#
# Static dielectric constant tensor:
#      x y z
#    x 1.975870 0.000000 -0.068960 
#    y 0.000000 1.949880 0.000000 
#    z -0.068960 0.000000 1.970670 
# 
# From -- ./inp_files/31337.got.cif
#   From: 2010.05.17/outbox.cif.g08.bks.cpg/sg15_16_cif.got.tgz:31337.got - 2010.06.03 18:47:42.
