data_PCOD9273454
_publ_section_title
;
Structure prediction by ZEFSAII (Michael W. Deem and Ramdas Pophale) SiO2 
 PCOD9273454
Probable space group: C 2/C
;
_chemical_formula_sum "Si O2"
_cell_formula_units_Z 48
_cell_length_a 15.694324
_cell_length_b 24.355146
_cell_length_c 9.106382
_cell_angle_alpha 90.000000
_cell_angle_beta 145.295350
_cell_angle_gamma 90.000000
_cell_volume 1981.781074
_symmetry_space_group_name_H-M "C 2/C"
_symmetry_group_IT_number 15
_symmetry_cell_setting 'monoclinic'
loop_
_space_group_symop_operation_xyz
x,y,z
-x,y,1/2-z
-x,-y,-z
x,-y,1/2+z
1/2+x,1/2+y,z
1/2-x,1/2+y,1/2-z
1/2-x,1/2-y,-z
1/2+x,1/2-y,1/2+z
loop_
_atom_site_type_symbol
_atom_site_label
_atom_site_fract_x
_atom_site_fract_y
_atom_site_fract_z
Si Si1 0.362889 0.050822 0.409965
Si Si2 0.875354 0.038278 0.902773
Si Si3 0.752338 0.216292 0.352540
Si Si4 0.062918 0.311734 0.008639
Si Si5 0.851961 0.898303 0.104613
Si Si6 0.692468 0.087011 0.871304
O O1 0.540454 0.050347 0.650509
O O2 0.304361 0.095495 0.448868
O O3 0.278472 0.996086 0.339303
O O4 0.292187 0.069726 0.156973
O O5 0.869733 0.094422 0.801725
O O6 0.841747 0.057175 0.023220
O O7 0.000000 0.000000 0.000000
O O8 0.750000 0.250000 0.500000
O O9 0.836350 0.256940 0.361556
O O10 0.579759 0.200033 0.089648
O O11 0.840027 0.161310 0.518312
O O12 0.000000 0.324121 0.750000
O O13 0.152161 0.360977 0.213058
O O14 0.000000 0.926457 0.250000
#
# Coordination Sequence:
#
# PCOD9273454 Si02
#       6
#     8   8   8   8   8   8
#     4  11  25  44  65  94 140 183 226 279 337 419
#     4  12  25  43  69  99 137 178 230 289 345 405
#     4  10  20  37  66 100 129 168 227 289 343 401
#     4  10  20  40  68  98 134 170 231 289 344 416
#     4  12  23  42  70  98 136 175 230 284 342 410
#     4  11  25  44  67  97 139 180 228 280 350 412
#
# _framework density 24.220635999999999
#
# number of rings (size 3 to 8) (size 9 to 14) (size 15 to 20)
#    0.000    1.000    3.333    5.000    0.000    1.333 
#    0.000    0.833    0.000    0.000    0.000    0.000 
#    0.000    0.000    0.000    0.000    0.000    0.000 
#
# Total GULP energy -133888.176267 kJ/mol
# GULP energy per Si atom -5578.674011 kJ/mol
# Density = 2.416551 g / cm^3
# Si number density = 24.220636 Si / 1000 Ang^3
#
#
#
# Elastic Constant Matrix: (Units=GPa)
#
#
# Indices 1 2 3 4 5 6 
#
# 1 156.6889 33.7443 26.1539 0.0000 28.8963 0.0000
# 2 33.7443 94.1972 0.0191 0.0000 12.2316 0.0000
# 3 26.1539 0.0191 26.6527 0.0000 20.9564 0.0000
# 4 0.0000 0.0000 0.0000 28.2476 0.0000 5.5627
# 5 28.8963 12.2316 20.9564 0.0000 54.1407 0.0000
# 6 0.0000 0.0000 0.0000 5.5627 0.0000 42.8487
#
#
#
# Elastic Compliance Matrix: (Units=1/GPa)
#
#
# Indices 1 2 3 4 5 6 
#
# 1 0.008438 -0.002901 -0.007550 0.000000 -0.000926 0.000000
# 2 -0.002901 0.012080 0.005414 0.000000 -0.003276 0.000000
# 3 -0.007550 0.005414 0.061407 0.000000 -0.020962 0.000000
# 4 0.000000 0.000000 0.000000 0.036330 0.000000 -0.004716
# 5 -0.000926 -0.003276 -0.020962 0.000000 0.027819 0.000000
# 6 0.000000 0.000000 0.000000 -0.004716 0.000000 0.023950
#
#
# Mechanical properties :
#
#
# Convention : Reuss Voigt Hill
#
# Bulk Modulus (GPa) = 13.91779 44.15259 29.03519
# Shear Modulus (GPa) = 24.50426 39.55551 32.02989
#
# Velocity S-wave (km/s) = 3.18419 4.04559 3.64046
# Velocity P-wave (km/s) = 4.39061 6.33177 5.44834
#
# Compressibility (1/GPa) = 0.07185050
#
# Stress axis : x y z
#
# Youngs Moduli (GPa) = 118.51543 82.78444 16.28492
#
# Poissons Ratio (x) = 0.24015 0.12295
# Poissons Ratio (y) = 0.34380 -0.08817
# Poissons Ratio (z) = 0.89478 -0.44821
#
# Static dielectric constant tensor:
#      x y z
#    x 1.924130 0.000000 -0.289880 
#    y 0.000000 1.921760 0.000000 
#    z -0.289880 0.000000 1.652470 
# 
# From -- ./inp_files/43940.got.cif
#   From: 2010.05.17/outbox.cif.g08.bks.cpg/sg15_22_cif.got.tgz:43940.got - 2010.06.03 18:47:42.
