data_PCOD9273664
_publ_section_title
;
Structure prediction by ZEFSAII (Michael W. Deem and Ramdas Pophale) SiO2 
 PCOD9273664
Probable space group: C 2/C
;
_chemical_formula_sum "Si O2"
_cell_formula_units_Z 48
_cell_length_a 23.977211
_cell_length_b 11.976715
_cell_length_c 8.215786
_cell_angle_alpha 90.000000
_cell_angle_beta 89.344813
_cell_angle_gamma 90.000000
_cell_volume 2359.158409
_symmetry_space_group_name_H-M "C 2/C"
_symmetry_group_IT_number 15
_symmetry_cell_setting 'monoclinic'
loop_
_space_group_symop_operation_xyz
x,y,z
-x,y,1/2-z
-x,-y,-z
x,-y,1/2+z
1/2+x,1/2+y,z
1/2-x,1/2+y,1/2-z
1/2-x,1/2-y,-z
1/2+x,1/2-y,1/2+z
loop_
_atom_site_type_symbol
_atom_site_label
_atom_site_fract_x
_atom_site_fract_y
_atom_site_fract_z
Si Si1 0.599643 0.290052 0.899906
Si Si2 0.793462 0.162959 0.572306
Si Si3 0.942422 0.978011 0.166446
Si Si4 0.992280 0.374214 0.054640
Si Si5 0.828404 0.938062 0.378768
Si Si6 0.407246 0.724362 0.475937
O O1 0.556655 0.393878 0.888175
O O2 0.566245 0.187550 0.981381
O O3 0.610718 0.261337 0.711083
O O4 0.651902 0.345258 0.990600
O O5 0.750000 0.250000 0.500000
O O6 0.784403 0.113037 0.752532
O O7 0.851329 0.231605 0.580881
O O8 0.806255 0.052926 0.459995
O O9 0.885394 0.962588 0.273654
O O10 0.000000 0.947320 0.250000
O O11 0.932472 0.897168 0.014034
O O12 0.044133 0.307629 0.978783
O O13 0.000000 0.365445 0.250000
O O14 0.000000 0.500000 0.000000
#
# Coordination Sequence:
#
# PCOD9273664 Si02
#       6
#     8   8   8   8   8   8
#     4  11  19  35  62  89 123 154 190 243 302 360
#     4  11  23  42  64  87 118 154 202 265 315 361
#     4  11  19  30  60  99 124 151 184 238 305 361
#     4  10  23  37  55  82 126 168 197 230 284 365
#     4  11  21  39  62  92 123 147 198 256 307 371
#     4  10  20  38  57  86 122 154 199 245 296 353
#
# _framework density 20.346236999999999
#
# number of rings (size 3 to 8) (size 9 to 14) (size 15 to 20)
#    0.000    1.333    5.000    2.500    0.000    5.333 
#    0.000    8.333    0.000    0.000    0.000    0.000 
#    0.000    0.000    0.000    0.000    0.000    0.000 
#
# Total GULP energy -133898.167728 kJ/mol
# GULP energy per Si atom -5579.090322 kJ/mol
# Density = 2.029993 g / cm^3
# Si number density = 20.346237 Si / 1000 Ang^3
#
#
#
# Elastic Constant Matrix: (Units=GPa)
#
#
# Indices 1 2 3 4 5 6 
#
# 1 41.6658 22.9554 12.8501 0.0000 18.0246 0.0000
# 2 22.9554 113.5521 22.9376 0.0000 11.0930 0.0000
# 3 12.8501 22.9376 65.6650 0.0000 21.0853 0.0000
# 4 0.0000 0.0000 0.0000 32.3930 0.0000 5.0363
# 5 18.0246 11.0930 21.0853 0.0000 26.6827 0.0000
# 6 0.0000 0.0000 0.0000 5.0363 0.0000 37.0391
#
#
#
# Elastic Compliance Matrix: (Units=1/GPa)
#
#
# Indices 1 2 3 4 5 6 
#
# 1 0.036969 -0.005594 0.002669 0.000000 -0.024757 0.000000
# 2 -0.005594 0.010385 -0.003162 0.000000 0.001961 0.000000
# 3 0.002669 -0.003162 0.021397 0.000000 -0.017397 0.000000
# 4 0.000000 0.000000 0.000000 0.031538 0.000000 -0.004288
# 5 -0.024757 0.001961 -0.017397 0.000000 0.067133 0.000000
# 6 0.000000 0.000000 0.000000 -0.004288 0.000000 0.027582
#
#
# Mechanical properties :
#
#
# Convention : Reuss Voigt Hill
#
# Bulk Modulus (GPa) = 17.67531 37.59657 27.63594
# Shear Modulus (GPa) = 22.12024 30.03229 26.07626
#
# Velocity S-wave (km/s) = 3.30083 3.84612 3.58386
# Velocity P-wave (km/s) = 4.82011 6.18402 5.54416
#
# Compressibility (1/GPa) = 0.05657610
#
# Stress axis : x y z
#
# Youngs Moduli (GPa) = 27.04964 96.29557 46.73465
#
# Poissons Ratio (x) = 0.53870 -0.12473
# Poissons Ratio (y) = 0.15132 0.14779
# Poissons Ratio (z) = -0.07220 0.30452
#
# Static dielectric constant tensor:
#      x y z
#    x 1.749440 0.000000 -0.017670 
#    y 0.000000 1.739690 0.000000 
#    z -0.017670 0.000000 1.829470 
# 
# From -- ./inp_files/64895.got.cif
#   From: 2010.05.17/outbox.cif.g08.bks.cpg/sg15_33_cif.got.tgz:64895.got - 2010.06.03 18:47:42.
