data_PCOD9273816
_publ_section_title
;
Structure prediction by ZEFSAII (Michael W. Deem and Ramdas Pophale) SiO2 
 PCOD9273816
Probable space group: C 2/C
;
_chemical_formula_sum "Si O2"
_cell_formula_units_Z 56
_cell_length_a 13.933570
_cell_length_b 13.816241
_cell_length_c 28.208194
_cell_angle_alpha 90.000000
_cell_angle_beta 31.713873
_cell_angle_gamma 90.000000
_cell_volume 2854.612032
_symmetry_space_group_name_H-M "C 2/C"
_symmetry_group_IT_number 15
_symmetry_cell_setting 'monoclinic'
loop_
_space_group_symop_operation_xyz
x,y,z
-x,y,1/2-z
-x,-y,-z
x,-y,1/2+z
1/2+x,1/2+y,z
1/2-x,1/2+y,1/2-z
1/2-x,1/2-y,-z
1/2+x,1/2-y,1/2+z
loop_
_atom_site_type_symbol
_atom_site_label
_atom_site_fract_x
_atom_site_fract_y
_atom_site_fract_z
Si Si1 0.921956 0.898645 0.014006
Si Si2 0.815765 0.090118 0.178522
Si Si3 0.000000 0.770205 0.750000
Si Si4 0.865955 0.071280 0.376974
Si Si5 0.215659 0.794676 0.234786
Si Si6 0.715914 0.369976 0.329812
Si Si7 0.500000 0.588764 0.750000
Si Si8 0.857294 0.351363 0.447035
O O1 0.890381 0.846993 0.076996
O O2 0.735960 0.898785 0.060802
O O3 0.072365 0.865966 0.913128
O O4 0.000000 0.000000 0.000000
O O5 0.689853 0.178970 0.246217
O O6 0.958399 0.073713 0.161534
O O7 0.742234 0.984865 0.193484
O O8 0.118462 0.838530 0.665819
O O9 0.112165 0.699543 0.736548
O O10 0.696981 0.084249 0.484091
O O11 0.887926 0.979113 0.333763
O O12 0.121434 0.838778 0.321130
O O13 0.132487 0.843947 0.224130
O O14 0.429317 0.827568 0.146567
O O15 0.750000 0.250000 0.500000
#
# Coordination Sequence:
#
# PCOD9273816 Si02
#       8
#     8   8   4   8   8   8   4   8
#     4   9  19  33  58  91 121 151 188 256 312 345
#     4  10  20  38  59  88 122 157 199 253 305 360
#     4  11  20  31  62  96 110 151 214 257 292 356
#     4  10  20  39  61  86 120 158 202 258 300 358
#     4  12  23  38  63  91 123 165 207 248 313 368
#     4  11  20  34  58  91 119 155 199 252 302 361
#     4  11  26  41  58  86 132 169 198 251 318 370
#     4  11  19  36  65  91 117 155 207 255 297 368
#
# _framework density 19.617377000000001
#
# number of rings (size 3 to 8) (size 9 to 14) (size 15 to 20)
#    0.000    1.429    5.714    1.714    0.000    1.143 
#    0.000    0.000    3.143    0.857    0.000    0.000 
#    0.000    0.000    0.000    0.000    0.000    0.000 
#
# Total GULP energy -155984.413137 kJ/mol
# GULP energy per Si atom -5570.871898 kJ/mol
# Density = 1.957273 g / cm^3
# Si number density = 19.617377 Si / 1000 Ang^3
#
#
#
# Elastic Constant Matrix: (Units=GPa)
#
#
# Indices 1 2 3 4 5 6 
#
# 1 123.7903 38.0830 32.4267 0.0001 21.1565 0.0000
# 2 38.0830 89.1185 -0.4973 -0.0002 4.9476 0.0001
# 3 32.4267 -0.4973 35.5621 -0.0004 22.4878 0.0005
# 4 0.0001 -0.0002 -0.0004 3.7814 -0.0001 3.5990
# 5 21.1565 4.9476 22.4878 -0.0001 37.4311 0.0000
# 6 0.0000 0.0001 0.0005 3.5990 0.0000 39.6133
#
#
#
# Elastic Compliance Matrix: (Units=1/GPa)
#
#
# Indices 1 2 3 4 5 6 
#
# 1 0.012913 -0.005638 -0.012432 -0.000002 0.000916 0.000000
# 2 -0.005638 0.013836 0.007218 0.000002 -0.002978 0.000000
# 3 -0.012432 0.007218 0.057599 0.000007 -0.028531 -0.000001
# 4 -0.000002 0.000002 0.000007 0.289485 -0.000003 -0.026301
# 5 0.000916 -0.002978 -0.028531 -0.000003 0.043733 0.000001
# 6 0.000000 0.000000 -0.000001 -0.026301 0.000001 0.027634
#
#
# Mechanical properties :
#
#
# Convention : Reuss Voigt Hill
#
# Bulk Modulus (GPa) = 15.96359 43.16620 29.56489
# Shear Modulus (GPa) = 10.25043 28.06241 19.15642
#
# Velocity S-wave (km/s) = 2.28835 3.78628 3.12829
# Velocity P-wave (km/s) = 3.89065 6.41610 5.30583
#
# Compressibility (1/GPa) = 0.06264255
#
# Stress axis : x y z
#
# Youngs Moduli (GPa) = 77.44224 72.27499 17.36152
#
# Poissons Ratio (x) = 0.40751 0.21584
# Poissons Ratio (y) = 0.43664 -0.12532
# Poissons Ratio (z) = 0.96279 -0.52169
#
# Static dielectric constant tensor:
#      x y z
#    x 1.849410 0.000000 0.030140 
#    y 0.000000 1.711780 0.000000 
#    z 0.030140 0.000000 1.760780 
# 
# From -- ./inp_files/313878.got.cif
#   From: 2010.05.17/outbox.cif.g08.bks.cpg/sg15_157_cif.got.tgz:313878.got - 2010.06.03 18:47:42.
