data_PCOD9273835
_publ_section_title
;
Structure prediction by ZEFSAII (Michael W. Deem and Ramdas Pophale) SiO2 
 PCOD9273835
Probable space group: C 2/C
;
_chemical_formula_sum "Si O2"
_cell_formula_units_Z 40
_cell_length_a 18.317450
_cell_length_b 12.255267
_cell_length_c 8.291458
_cell_angle_alpha 90.000000
_cell_angle_beta 103.505157
_cell_angle_gamma 90.000000
_cell_volume 1809.842685
_symmetry_space_group_name_H-M "C 2/C"
_symmetry_group_IT_number 15
_symmetry_cell_setting 'monoclinic'
loop_
_space_group_symop_operation_xyz
x,y,z
-x,y,1/2-z
-x,-y,-z
x,-y,1/2+z
1/2+x,1/2+y,z
1/2-x,1/2+y,1/2-z
1/2-x,1/2-y,-z
1/2+x,1/2-y,1/2+z
loop_
_atom_site_type_symbol
_atom_site_label
_atom_site_fract_x
_atom_site_fract_y
_atom_site_fract_z
Si Si1 0.833840 0.517388 0.323738
Si Si2 0.575291 0.886214 0.893207
Si Si3 0.101555 0.059184 0.677283
Si Si4 0.255090 0.374371 0.451548
Si Si5 0.063730 0.855153 0.496076
O O1 0.902948 0.483121 0.473894
O O2 0.859081 0.608726 0.208626
O O3 0.807632 0.412248 0.209960
O O4 0.765765 0.556160 0.400501
O O5 0.500000 0.898702 0.750000
O O6 0.572071 0.774057 0.990855
O O7 0.167363 0.098677 0.595756
O O8 0.108331 0.098685 0.863520
O O9 0.023322 0.112999 0.576415
O O10 0.091653 0.928168 0.658915
O O11 0.250000 0.250000 0.500000
#
# Coordination Sequence:
#
# PCOD9273835 Si02
#       5
#     8   8   8   8   8
#     4  10  25  40  63  96 117 166 210 246 315 372
#     4  11  21  43  65  88 123 160 207 265 305 357
#     4  10  20  38  59  92 118 157 199 248 298 363
#     4  11  23  41  64  89 133 161 201 253 308 374
#     4  10  21  37  66  86 121 157 204 249 308 350
#
# _framework density 22.101368999999998
#
# number of rings (size 3 to 8) (size 9 to 14) (size 15 to 20)
#    0.000    1.600    2.000    3.000    0.000    3.200 
#    0.000    5.000    0.000    0.000    0.000    0.000 
#    0.000    0.000    0.000    0.000    0.000    0.000 
#
# Total GULP energy -111747.032331 kJ/mol
# GULP energy per Si atom -5587.351617 kJ/mol
# Density = 2.205107 g / cm^3
# Si number density = 22.101369 Si / 1000 Ang^3
#
#
#
# Elastic Constant Matrix: (Units=GPa)
#
#
# Indices 1 2 3 4 5 6 
#
# 1 104.5460 22.5949 9.8801 0.0000 -17.3891 0.0000
# 2 22.5949 99.8812 17.8000 0.0000 5.7655 0.0000
# 3 9.8801 17.8000 42.9831 0.0000 -4.1486 0.0000
# 4 0.0000 0.0000 0.0000 29.8458 0.0000 -7.6996
# 5 -17.3891 5.7655 -4.1486 0.0000 22.7971 0.0000
# 6 0.0000 0.0000 0.0000 -7.6996 0.0000 25.1017
#
#
#
# Elastic Compliance Matrix: (Units=1/GPa)
#
#
# Indices 1 2 3 4 5 6 
#
# 1 0.011931 -0.003181 -0.000478 0.000000 0.009818 0.000000
# 2 -0.003181 0.011958 -0.004832 0.000000 -0.006329 0.000000
# 3 -0.000478 -0.004832 0.025914 0.000000 0.005573 0.000000
# 4 0.000000 0.000000 0.000000 0.036385 0.000000 0.011160
# 5 0.009818 -0.006329 0.005573 0.000000 0.053969 0.000000
# 6 0.000000 0.000000 0.000000 0.011160 0.000000 0.043261
#
#
# Mechanical properties :
#
#
# Convention : Reuss Voigt Hill
#
# Bulk Modulus (GPa) = 30.46721 38.66225 34.56473
# Shear Modulus (GPa) = 23.65881 28.69128 26.17505
#
# Velocity S-wave (km/s) = 3.27535 3.60692 3.44513
# Velocity P-wave (km/s) = 5.30274 5.90573 5.61234
#
# Compressibility (1/GPa) = 0.03282217
#
# Stress axis : x y z
#
# Youngs Moduli (GPa) = 83.81730 83.62727 38.58978
#
# Poissons Ratio (x) = 0.26598 0.01843
# Poissons Ratio (y) = 0.26658 0.18646
# Poissons Ratio (z) = 0.04004 0.40407
#
# Static dielectric constant tensor:
#      x y z
#    x 1.817420 0.000000 0.030640 
#    y 0.000000 1.784800 0.000000 
#    z 0.030640 0.000000 1.875930 
# 
# From -- ./inp_files/46265.got.cif
#   From: 2010.05.17/outbox.cif.g08.bks.cpg/sg15_24_cif.got.tgz:46265.got - 2010.06.03 18:47:42.
