data_PCOD9273262
_publ_section_title
;
Structure prediction by ZEFSAII (Michael W. Deem and Ramdas Pophale) SiO2 
 PCOD9273262
Probable space group: C 2/C
;
_chemical_formula_sum "Si O2"
_cell_formula_units_Z 52
_cell_length_a 14.659804
_cell_length_b 14.679622
_cell_length_c 11.908431
_cell_angle_alpha 90.000000
_cell_angle_beta 77.122062
_cell_angle_gamma 90.000000
_cell_volume 2498.239546
_symmetry_space_group_name_H-M "C 2/C"
_symmetry_group_IT_number 15
_symmetry_cell_setting 'monoclinic'
loop_
_space_group_symop_operation_xyz
x,y,z
-x,y,1/2-z
-x,-y,-z
x,-y,1/2+z
1/2+x,1/2+y,z
1/2-x,1/2+y,1/2-z
1/2-x,1/2-y,-z
1/2+x,1/2-y,1/2+z
loop_
_atom_site_type_symbol
_atom_site_label
_atom_site_fract_x
_atom_site_fract_y
_atom_site_fract_z
Si Si1 0.519077 0.200077 0.031938
Si Si2 0.500000 0.082386 0.250000
Si Si3 0.583683 0.960254 0.394820
Si Si4 0.662394 0.811699 0.052623
Si Si5 0.676853 0.674482 0.459163
Si Si6 0.766376 0.979297 0.963355
Si Si7 0.889618 0.158300 0.277663
O O1 0.566503 0.145987 0.915418
O O2 0.409890 0.194146 0.032066
O O3 0.572596 0.294320 0.025275
O O4 0.538100 0.145837 0.141203
O O5 0.572551 0.012515 0.282725
O O6 0.500000 0.000000 0.500000
O O7 0.685791 0.983168 0.405846
O O8 0.613901 0.758797 0.166289
O O9 0.750000 0.750000 0.000000
O O10 0.705962 0.910925 0.059377
O O11 0.750000 0.750000 0.500000
O O12 0.694667 0.570839 0.492174
O O13 0.665644 0.667634 0.326015
O O14 0.837297 0.915602 0.872847
O O15 0.000000 0.133033 0.250000
#
# Coordination Sequence:
#
# PCOD9273262 Si02
#       7
#     8   4   8   8   8   8   8
#     4  11  22  44  66 103 145 185 232 308 353 429
#     4  10  22  36  70  96 140 184 238 286 372 420
#     4  10  20  37  64 102 134 175 230 294 351 408
#     4  10  22  45  72 101 138 186 242 289 360 435
#     4  12  27  44  69 107 148 180 244 303 354 427
#     4  11  24  45  70 103 143 189 239 291 358 436
#     4  11  26  48  73 101 143 196 238 294 367 429
#
# _framework density 20.814658000000001
#
# number of rings (size 3 to 8) (size 9 to 14) (size 15 to 20)
#    0.000    1.231    6.154    0.000    2.154    3.077 
#    1.385    0.000    0.000    0.000    0.000    0.000 
#    0.000    0.000    0.000    0.000    0.000    0.000 
#
# Total GULP energy -144750.932313 kJ/mol
# GULP energy per Si atom -5567.343551 kJ/mol
# Density = 2.076728 g / cm^3
# Si number density = 20.814658 Si / 1000 Ang^3
#
#
#
# Elastic Constant Matrix: (Units=GPa)
#
#
# Indices 1 2 3 4 5 6 
#
# 1 120.8042 66.2845 39.4204 0.0000 -1.1149 0.0000
# 2 66.2845 138.3061 39.2822 0.0000 12.3087 0.0000
# 3 39.4204 39.2822 78.3271 0.0000 15.9211 0.0000
# 4 0.0000 0.0000 0.0000 48.9540 0.0000 7.2370
# 5 -1.1149 12.3087 15.9211 0.0000 36.7939 0.0000
# 6 0.0000 0.0000 0.0000 7.2370 0.0000 65.5746
#
#
#
# Elastic Compliance Matrix: (Units=1/GPa)
#
#
# Indices 1 2 3 4 5 6 
#
# 1 0.012624 -0.005100 -0.004627 0.000000 0.004091 0.000000
# 2 -0.005100 0.010531 -0.002157 0.000000 -0.002744 0.000000
# 3 -0.004627 -0.002157 0.017608 0.000000 -0.007038 0.000000
# 4 0.000000 0.000000 0.000000 0.020766 0.000000 -0.002292
# 5 0.004091 -0.002744 -0.007038 0.000000 0.031266 0.000000
# 6 0.000000 0.000000 0.000000 -0.002292 0.000000 0.015503
#
#
# Mechanical properties :
#
#
# Convention : Reuss Voigt Hill
#
# Bulk Modulus (GPa) = 58.84131 69.71240 64.27685
# Shear Modulus (GPa) = 36.30255 43.09453 39.69854
#
# Velocity S-wave (km/s) = 4.18076 4.55509 4.37193
# Velocity P-wave (km/s) = 7.18578 7.82495 7.51217
#
# Compressibility (1/GPa) = 0.01699486
#
# Stress axis : x y z
#
# Youngs Moduli (GPa) = 79.21536 94.95373 56.79208
#
# Poissons Ratio (x) = 0.48426 0.26278
# Poissons Ratio (y) = 0.40399 0.12251
# Poissons Ratio (z) = 0.36654 0.20483
#
# Static dielectric constant tensor:
#      x y z
#    x 1.739250 0.000000 -0.044620 
#    y 0.000000 1.843870 0.000000 
#    z -0.044620 0.000000 1.809930 
# 
# From -- ./inp_files/96970.got.cif
#   From: 2010.05.17/outbox.cif.g08.bks.cpg/sg15_49_cif.got.tgz:96970.got - 2010.06.03 18:47:42.
