data_PCOD9273261
_publ_section_title
;
Structure prediction by ZEFSAII (Michael W. Deem and Ramdas Pophale) SiO2 
 PCOD9273261
Probable space group: C 2/C
;
_chemical_formula_sum "Si O2"
_cell_formula_units_Z 32
_cell_length_a 20.797555
_cell_length_b 7.018367
_cell_length_c 9.267483
_cell_angle_alpha 90.000000
_cell_angle_beta 67.444074
_cell_angle_gamma 90.000000
_cell_volume 1249.250889
_symmetry_space_group_name_H-M "C 2/C"
_symmetry_group_IT_number 15
_symmetry_cell_setting 'monoclinic'
loop_
_space_group_symop_operation_xyz
x,y,z
-x,y,1/2-z
-x,-y,-z
x,-y,1/2+z
1/2+x,1/2+y,z
1/2-x,1/2+y,1/2-z
1/2-x,1/2-y,-z
1/2+x,1/2-y,1/2+z
loop_
_atom_site_type_symbol
_atom_site_label
_atom_site_fract_x
_atom_site_fract_y
_atom_site_fract_z
Si Si1 0.307527 0.332528 0.557102
Si Si2 0.951768 0.103267 0.652180
Si Si3 0.332562 0.679451 0.346422
Si Si4 0.082265 0.559978 0.188084
O O1 0.250000 0.250000 0.500000
O O2 0.286033 0.307265 0.742106
O O3 0.310896 0.554257 0.503271
O O4 0.378457 0.208839 0.457668
O O5 0.891374 0.958152 0.732220
O O6 0.000000 0.126885 0.750000
O O7 0.920557 0.314143 0.660797
O O8 0.000000 0.000000 0.500000
O O9 0.367880 0.879381 0.350287
O O10 0.000000 0.496376 0.250000
#
# Coordination Sequence:
#
# PCOD9273261 Si02
#       4
#     8   8   8   8
#     4  11  28  47  70 103 141 188 240 290 354 423
#     4  10  20  37  64 101 143 176 222 280 344 417
#     4  11  24  44  71  98 140 185 232 293 348 423
#     4  10  23  42  71 108 142 182 231 289 358 418
#
# _framework density 25.615349999999999
#
# number of rings (size 3 to 8) (size 9 to 14) (size 15 to 20)
#    0.000    1.500    0.000    5.250    3.500   12.000 
#    0.000    0.000    0.000    0.000    0.000    0.000 
#    0.000    0.000    0.000    0.000    0.000    0.000 
#
# Total GULP energy -89279.310962 kJ/mol
# GULP energy per Si atom -5579.956935 kJ/mol
# Density = 2.555705 g / cm^3
# Si number density = 25.615350 Si / 1000 Ang^3
#
#
#
# Elastic Constant Matrix: (Units=GPa)
#
#
# Indices 1 2 3 4 5 6 
#
# 1 86.4645 40.7835 30.8836 0.0000 4.1725 0.0000
# 2 40.7835 219.1609 67.7446 0.0000 13.6625 0.0000
# 3 30.8836 67.7446 108.0917 0.0000 -7.4123 0.0000
# 4 0.0000 0.0000 0.0000 53.5595 0.0000 6.2583
# 5 4.1725 13.6625 -7.4123 0.0000 35.5295 0.0000
# 6 0.0000 0.0000 0.0000 6.2583 0.0000 41.9621
#
#
#
# Elastic Compliance Matrix: (Units=1/GPa)
#
#
# Indices 1 2 3 4 5 6 
#
# 1 0.013415 -0.001456 -0.003033 0.000000 -0.001648 0.000000
# 2 -0.001456 0.006141 -0.003635 0.000000 -0.002949 0.000000
# 3 -0.003033 -0.003635 0.012698 0.000000 0.004403 0.000000
# 4 0.000000 0.000000 0.000000 0.019002 0.000000 -0.002834
# 5 -0.001648 -0.002949 0.004403 0.000000 0.030392 0.000000
# 6 0.000000 0.000000 0.000000 -0.002834 0.000000 0.024254
#
#
# Mechanical properties :
#
#
# Convention : Reuss Voigt Hill
#
# Bulk Modulus (GPa) = 62.47812 76.94895 69.71353
# Shear Modulus (GPa) = 39.21971 44.49726 41.85848
#
# Velocity S-wave (km/s) = 3.91717 4.17241 4.04681
# Velocity P-wave (km/s) = 6.70096 7.30188 7.00786
#
# Compressibility (1/GPa) = 0.01600560
#
# Stress axis : x y z
#
# Youngs Moduli (GPa) = 74.54202 162.83180 78.75036
#
# Poissons Ratio (x) = 0.23708 0.23889
# Poissons Ratio (y) = 0.10853 0.28627
# Poissons Ratio (z) = 0.22612 0.59192
#
# Static dielectric constant tensor:
#      x y z
#    x 2.351490 0.000000 0.197700 
#    y 0.000000 2.198160 0.000000 
#    z 0.197700 0.000000 2.185680 
# 
# From -- ./inp_files/115867.got.cif
#   From: 2010.05.17/outbox.cif.g08.bks.cpg/sg15_58_cif.got.tgz:115867.got - 2010.06.03 18:47:42.
