data_PCOD9273524
_publ_section_title
;
Structure prediction by ZEFSAII (Michael W. Deem and Ramdas Pophale) SiO2 
 PCOD9273524
Probable space group: C 2/C
;
_chemical_formula_sum "Si O2"
_cell_formula_units_Z 56
_cell_length_a 16.165480
_cell_length_b 10.884852
_cell_length_c 19.251663
_cell_angle_alpha 90.000000
_cell_angle_beta 133.154948
_cell_angle_gamma 90.000000
_cell_volume 2471.204283
_symmetry_space_group_name_H-M "C 2/C"
_symmetry_group_IT_number 15
_symmetry_cell_setting 'monoclinic'
loop_
_space_group_symop_operation_xyz
x,y,z
-x,y,1/2-z
-x,-y,-z
x,-y,1/2+z
1/2+x,1/2+y,z
1/2-x,1/2+y,1/2-z
1/2-x,1/2-y,-z
1/2+x,1/2-y,1/2+z
loop_
_atom_site_type_symbol
_atom_site_label
_atom_site_fract_x
_atom_site_fract_y
_atom_site_fract_z
Si Si1 0.614185 0.616070 0.933038
Si Si2 0.898868 0.359512 0.953098
Si Si3 0.087705 0.911677 0.090389
Si Si4 0.836363 0.481369 0.205929
Si Si5 0.140991 0.407979 0.141240
Si Si6 0.777975 0.607892 0.523721
Si Si7 0.296638 0.760526 0.644249
O O1 0.484215 0.618019 0.882239
O O2 0.633902 0.681127 0.871103
O O3 0.667482 0.479497 0.959188
O O4 0.693089 0.682896 0.037046
O O5 0.880652 0.215734 0.929816
O O6 0.842955 0.446947 0.863692
O O7 0.852297 0.415612 0.998190
O O8 0.034016 0.372593 0.032536
O O9 0.206657 0.980801 0.160735
O O10 0.000000 0.000000 0.000000
O O11 0.894298 0.400282 0.298542
O O12 0.838975 0.422413 0.131267
O O13 0.866067 0.623749 0.213482
O O14 0.242237 0.322589 0.173360
O O15 0.750000 0.750000 0.500000
#
# Coordination Sequence:
#
# PCOD9273524 Si02
#       7
#     8   8   8   8   8   8   8
#     4  10  20  37  67  91 123 168 217 260 317 388
#     4  11  23  40  68  90 127 172 218 254 340 396
#     4  12  20  41  66  99 121 171 217 261 320 399
#     4  11  25  37  67  94 132 166 222 272 324 380
#     4  11  24  41  63  97 127 169 214 279 324 385
#     4  11  20  38  64  98 125 172 214 266 321 397
#     4  10  20  39  62  90 128 165 209 267 320 382
#
# _framework density 22.661016
#
# number of rings (size 3 to 8) (size 9 to 14) (size 15 to 20)
#    0.000    1.143    7.143    0.000    2.000    0.571 
#    0.000    0.714    0.000    0.000    0.000    0.000 
#    0.000    0.000    0.000    0.000    0.000    0.000 
#
# Total GULP energy -156443.524503 kJ/mol
# GULP energy per Si atom -5587.268732 kJ/mol
# Density = 2.260944 g / cm^3
# Si number density = 22.661016 Si / 1000 Ang^3
#
#
#
# Elastic Constant Matrix: (Units=GPa)
#
#
# Indices 1 2 3 4 5 6 
#
# 1 121.5493 27.3966 13.5776 0.0000 -24.3243 0.0000
# 2 27.3966 128.1039 29.1314 0.0000 -22.7795 0.0000
# 3 13.5776 29.1314 49.1139 0.0000 -18.2229 0.0000
# 4 0.0000 0.0000 0.0000 13.0984 0.0000 -8.3685
# 5 -24.3243 -22.7795 -18.2229 0.0000 44.5597 0.0000
# 6 0.0000 0.0000 0.0000 -8.3685 0.0000 40.7911
#
#
#
# Elastic Compliance Matrix: (Units=1/GPa)
#
#
# Indices 1 2 3 4 5 6 
#
# 1 0.009406 -0.001163 -0.000266 0.000000 0.004431 0.000000
# 2 -0.001163 0.009487 -0.004411 0.000000 0.002411 0.000000
# 3 -0.000266 -0.004411 0.026124 0.000000 0.008283 0.000000
# 4 0.000000 0.000000 0.000000 0.087861 0.000000 0.018025
# 5 0.004431 0.002411 0.008283 0.000000 0.029481 0.000000
# 6 0.000000 0.000000 0.000000 0.018025 0.000000 0.028213
#
#
# Mechanical properties :
#
#
# Convention : Reuss Voigt Hill
#
# Bulk Modulus (GPa) = 29.99759 48.77534 39.38647
# Shear Modulus (GPa) = 23.43413 34.93394 29.18404
#
# Velocity S-wave (km/s) = 3.21926 3.93057 3.59256
# Velocity P-wave (km/s) = 5.20427 6.49382 5.88448
#
# Compressibility (1/GPa) = 0.03333601
#
# Stress axis : x y z
#
# Youngs Moduli (GPa) = 106.31830 105.41119 38.27884
#
# Poissons Ratio (x) = 0.12260 0.01020
# Poissons Ratio (y) = 0.12365 0.16884
# Poissons Ratio (z) = 0.02832 0.46495
#
# Static dielectric constant tensor:
#      x y z
#    x 1.864190 0.000000 -0.030010 
#    y 0.000000 1.865690 0.000000 
#    z -0.030010 0.000000 1.953010 
# 
# From -- ./inp_files/248428.got.cif
#   From: 2010.05.17/outbox.cif.g08.bks.cpg/sg15_125_cif.got.tgz:248428.got - 2010.06.03 18:47:42.
