data_PCOD9273145
_publ_section_title
;
Structure prediction by ZEFSAII (Michael W. Deem and Ramdas Pophale) SiO2 
 PCOD9273145
Probable space group: C 2/C
;
_chemical_formula_sum "Si O2"
_cell_formula_units_Z 64
_cell_length_a 34.111132
_cell_length_b 14.574817
_cell_length_c 23.749822
_cell_angle_alpha 90.000000
_cell_angle_beta 162.377875
_cell_angle_gamma 90.000000
_cell_volume 3574.591864
_symmetry_space_group_name_H-M "C 2/C"
_symmetry_group_IT_number 15
_symmetry_cell_setting 'monoclinic'
loop_
_space_group_symop_operation_xyz
x,y,z
-x,y,1/2-z
-x,-y,-z
x,-y,1/2+z
1/2+x,1/2+y,z
1/2-x,1/2+y,1/2-z
1/2-x,1/2-y,-z
1/2+x,1/2-y,1/2+z
loop_
_atom_site_type_symbol
_atom_site_label
_atom_site_fract_x
_atom_site_fract_y
_atom_site_fract_z
Si Si1 0.885157 0.579518 0.725544
Si Si2 0.454624 0.275841 0.377465
Si Si3 0.541778 0.214776 0.867960
Si Si4 0.796980 0.625406 0.952386
Si Si5 0.128300 0.861368 0.808587
Si Si6 0.172113 0.276911 0.264794
Si Si7 0.454110 0.877713 0.782520
Si Si8 0.443052 0.479242 0.361016
O O1 0.759877 0.601107 0.515412
O O2 0.847932 0.622372 0.735259
O O3 0.917882 0.472771 0.763782
O O4 0.004179 0.639060 0.862934
O O5 0.311146 0.296171 0.206281
O O6 0.558193 0.243140 0.564805
O O7 0.445965 0.205065 0.315023
O O8 0.491380 0.379217 0.407930
O O9 0.500000 0.175925 0.750000
O O10 0.448304 0.301463 0.751011
O O11 0.687788 0.252165 0.068836
O O12 0.711018 0.533606 0.839853
O O13 0.861791 0.638676 0.102107
O O14 0.903565 0.617879 0.050405
O O15 0.158558 0.792733 0.798800
O O16 0.041636 0.942038 0.663589
O O17 0.500000 0.500000 0.500000
#
# Coordination Sequence:
#
# PCOD9273145 Si02
#       8
#     8   8   8   8   8   8   8   8
#     4  11  22  34  60  89 117 154 198 245 293 357
#     4  10  23  39  59  82 124 153 195 251 302 344
#     4  11  21  33  59  88 123 154 197 240 297 358
#     4   9  22  38  63  85 112 149 208 246 284 350
#     4  11  19  37  58  89 115 147 202 245 294 352
#     4  11  22  37  56  89 124 158 188 245 304 352
#     4  11  22  39  63  88 112 158 207 242 294 357
#     4  10  20  37  63  82 111 151 191 247 299 338
#
# _framework density 17.904142
#
# number of rings (size 3 to 8) (size 9 to 14) (size 15 to 20)
#    0.750    0.750    5.000    1.125    3.500    3.500 
#    0.000    1.250    2.750    0.000    0.000    0.000 
#    0.000    0.000    0.000    0.000    0.000    0.000 
#
# Total GULP energy -178340.354959 kJ/mol
# GULP energy per Si atom -5573.136092 kJ/mol
# Density = 1.786339 g / cm^3
# Si number density = 17.904142 Si / 1000 Ang^3
#
#
#
# Elastic Constant Matrix: (Units=GPa)
#
#
# Indices 1 2 3 4 5 6 
#
# 1 13.4044 14.3470 11.0196 0.0000 7.9552 0.0000
# 2 14.3470 100.8068 9.0816 0.0000 -2.2666 0.0000
# 3 11.0196 9.0816 80.3109 0.0000 3.2678 0.0000
# 4 0.0000 0.0000 0.0000 20.4988 0.0000 -3.7861
# 5 7.9552 -2.2666 3.2678 0.0000 20.0582 0.0000
# 6 0.0000 0.0000 0.0000 -3.7861 0.0000 26.2294
#
#
#
# Elastic Compliance Matrix: (Units=1/GPa)
#
#
# Indices 1 2 3 4 5 6 
#
# 1 0.141515 -0.020059 -0.014872 0.000000 -0.055970 0.000000
# 2 -0.020059 0.012901 0.000917 0.000000 0.009264 0.000000
# 3 -0.014872 0.000917 0.014239 0.000000 0.003682 0.000000
# 4 0.000000 0.000000 0.000000 0.050119 0.000000 0.007235
# 5 -0.055970 0.009264 0.003682 0.000000 0.072500 0.000000
# 6 0.000000 0.000000 0.000000 0.007235 0.000000 0.039169
#
#
# Mechanical properties :
#
#
# Convention : Reuss Voigt Hill
#
# Bulk Modulus (GPa) = 9.93789 29.26873 19.60331
# Shear Modulus (GPa) = 11.57371 24.02888 17.80130
#
# Velocity S-wave (km/s) = 2.54525 3.66742 3.15660
# Velocity P-wave (km/s) = 3.76834 5.85801 4.92527
#
# Compressibility (1/GPa) = 0.10062503
#
# Stress axis : x y z
#
# Youngs Moduli (GPa) = 7.06640 77.51592 70.23104
#
# Poissons Ratio (x) = 1.55492 1.04446
# Poissons Ratio (y) = 0.14175 -0.06438
# Poissons Ratio (z) = 0.10509 -0.07105
#
# Static dielectric constant tensor:
#      x y z
#    x 1.608160 0.000000 0.008450 
#    y 0.000000 1.635360 0.000000 
#    z 0.008450 0.000000 1.629740 
# 
# From -- ./inp_files/259457.got.cif
#   From: 2010.05.17/outbox.cif.g08.bks.cpg/sg15_130_cif.got.tgz:259457.got - 2010.06.03 18:47:42.
