data_PCOD9273131
_publ_section_title
;
Structure prediction by ZEFSAII (Michael W. Deem and Ramdas Pophale) SiO2 
 PCOD9273131
Probable space group: C 2/C
;
_chemical_formula_sum "Si O2"
_cell_formula_units_Z 36
_cell_length_a 5.542633
_cell_length_b 23.318836
_cell_length_c 13.064811
_cell_angle_alpha 90.000000
_cell_angle_beta 57.458270
_cell_angle_gamma 90.000000
_cell_volume 1423.487449
_symmetry_space_group_name_H-M "C 2/C"
_symmetry_group_IT_number 15
_symmetry_cell_setting 'monoclinic'
loop_
_space_group_symop_operation_xyz
x,y,z
-x,y,1/2-z
-x,-y,-z
x,-y,1/2+z
1/2+x,1/2+y,z
1/2-x,1/2+y,1/2-z
1/2-x,1/2-y,-z
1/2+x,1/2-y,1/2+z
loop_
_atom_site_type_symbol
_atom_site_label
_atom_site_fract_x
_atom_site_fract_y
_atom_site_fract_z
Si Si1 0.340062 0.485873 0.182601
Si Si2 0.000000 0.694500 0.750000
Si Si3 0.161930 0.123421 0.314926
Si Si4 0.728136 0.777818 0.390799
Si Si5 0.465452 0.624797 0.935434
O O1 0.500000 0.467563 0.250000
O O2 0.368538 0.554232 0.174528
O O3 0.508407 0.443604 0.068005
O O4 0.000000 0.474388 0.250000
O O5 0.010709 0.730165 0.642075
O O6 0.733051 0.651909 0.816599
O O7 0.500000 0.135406 0.250000
O O8 0.000000 0.143014 0.250000
O O9 0.031938 0.146143 0.449285
O O10 0.750000 0.750000 0.500000
O O11 0.000000 0.765058 0.250000
O O12 0.711349 0.845317 0.429968
#
# Coordination Sequence:
#
# PCOD9273131 Si02
#       5
#     8   4   8   8   8
#     4  10  20  37  62  95 132 174 223 272 327 389
#     4  10  22  42  70  96 124 170 224 276 338 406
#     4  10  24  40  59  97 140 181 223 269 329 397
#     4  10  24  44  66  98 129 170 225 283 347 413
#     4  11  22  39  66  93 130 172 225 272 334 399
#
# _framework density 25.290001
#
# number of rings (size 3 to 8) (size 9 to 14) (size 15 to 20)
#    0.000    1.778    1.111    2.667    3.111    4.444 
#    2.000    6.667    0.000    0.000    0.000    0.000 
#    0.000    0.000    0.000    0.000    0.000    0.000 
#
# Total GULP energy -100253.898569 kJ/mol
# GULP energy per Si atom -5569.661032 kJ/mol
# Density = 2.523244 g / cm^3
# Si number density = 25.290001 Si / 1000 Ang^3
#
#
#
# Elastic Constant Matrix: (Units=GPa)
#
#
# Indices 1 2 3 4 5 6 
#
# 1 122.4684 21.0132 64.8277 0.0000 55.0117 0.0000
# 2 21.0132 118.7168 18.5909 0.0000 16.5222 0.0000
# 3 64.8277 18.5909 161.5146 0.0000 50.6840 0.0000
# 4 0.0000 0.0000 0.0000 9.3491 0.0000 4.1205
# 5 55.0117 16.5222 50.6840 0.0000 41.0304 0.0000
# 6 0.0000 0.0000 0.0000 4.1205 0.0000 -5.5063
#
#
#
# Elastic Compliance Matrix: (Units=1/GPa)
#
#
# Indices 1 2 3 4 5 6 
#
# 1 0.020576 0.000220 0.000655 0.000000 -0.028485 0.000000
# 2 0.000220 0.008929 0.000171 0.000000 -0.004101 0.000000
# 3 0.000655 0.000171 0.010134 0.000000 -0.013465 0.000000
# 4 0.000000 0.000000 0.000000 0.080434 0.000000 0.060191
# 5 -0.028485 -0.004101 -0.013465 0.000000 0.080849 0.000000
# 6 0.000000 0.000000 0.000000 0.060191 0.000000 -0.136567
#
#
# Mechanical properties :
#
#
# Convention : Reuss Voigt Hill
#
# Bulk Modulus (GPa) = 23.96341 67.95148 45.95745
# Shear Modulus (GPa) = 65.63961 28.85918 47.24939
#
# Velocity S-wave (km/s) = 5.10011 3.38173 4.32708
# Velocity P-wave (km/s) = 6.64662 6.49425 6.57088
#
# Compressibility (1/GPa) = 0.04173028
#
# Stress axis : x y z
#
# Youngs Moduli (GPa) = 48.59952 112.00075 98.67310
#
# Poissons Ratio (x) = -0.02461 -0.06459
# Poissons Ratio (y) = -0.01068 -0.01688
# Poissons Ratio (z) = -0.03181 -0.01917
#
# Static dielectric constant tensor:
#      x y z
#    x 2.404480 0.000000 -0.038640 
#    y 0.000000 2.046960 0.000000 
#    z -0.038640 0.000000 2.043760 
# 
# From -- ./inp_files/72479.got.cif
#   From: 2010.05.17/outbox.cif.g08.bks.cpg/sg15_37_cif.got.tgz:72479.got - 2010.06.03 18:47:42.
