data_PCOD9273953
_publ_section_title
;
Structure prediction by ZEFSAII (Michael W. Deem and Ramdas Pophale) SiO2 
 PCOD9273953
Probable space group: C 2/C
;
_chemical_formula_sum "Si O2"
_cell_formula_units_Z 60
_cell_length_a 25.972056
_cell_length_b 19.539510
_cell_length_c 8.495399
_cell_angle_alpha 90.000000
_cell_angle_beta 49.195266
_cell_angle_gamma 90.000000
_cell_volume 3263.366470
_symmetry_space_group_name_H-M "C 2/C"
_symmetry_group_IT_number 15
_symmetry_cell_setting 'monoclinic'
loop_
_space_group_symop_operation_xyz
x,y,z
-x,y,1/2-z
-x,-y,-z
x,-y,1/2+z
1/2+x,1/2+y,z
1/2-x,1/2+y,1/2-z
1/2-x,1/2-y,-z
1/2+x,1/2-y,1/2+z
loop_
_atom_site_type_symbol
_atom_site_label
_atom_site_fract_x
_atom_site_fract_y
_atom_site_fract_z
Si Si1 0.150652 0.774841 0.259771
Si Si2 0.928101 0.493010 0.844012
Si Si3 0.831796 0.500692 0.787781
Si Si4 0.268514 0.139824 0.399060
Si Si5 0.849479 0.223835 0.368461
Si Si6 0.998883 0.266846 0.065830
Si Si7 0.000000 0.640934 0.250000
Si Si8 0.730177 0.859723 0.980063
O O1 0.181404 0.701219 0.145979
O O2 0.165154 0.780325 0.416496
O O3 0.069826 0.772747 0.400730
O O4 0.193258 0.834424 0.092518
O O5 0.908981 0.507162 0.702760
O O6 0.000000 0.525861 0.750000
O O7 0.938085 0.412329 0.851558
O O8 0.856315 0.513920 0.061702
O O9 0.791690 0.433041 0.920848
O O10 0.791100 0.569999 0.894738
O O11 0.273502 0.135375 0.200707
O O12 0.805373 0.165862 0.374004
O O13 0.820787 0.297784 0.369911
O O14 0.930332 0.222661 0.188096
O O15 0.000000 0.292725 0.250000
O O16 0.994754 0.318809 0.925619
#
# Coordination Sequence:
#
# PCOD9273953 Si02
#       8
#     8   8   8   8   8   8   4   8
#     4   9  20  37  58  84 113 147 193 250 298 350
#     4  10  24  38  51  83 114 159 196 240 282 345
#     4  12  21  40  56  79 118 156 202 236 292 363
#     4  10  21  36  56  82 113 154 193 240 293 354
#     4   9  20  37  58  84 113 147 193 250 298 350
#     4  10  20  38  60  90 116 155 200 251 302 353
#     4  10  22  36  56  86 118 160 192 236 290 348
#     4  10  21  36  56  82 113 154 193 240 293 354
#
# _framework density 18.385922000000001
#
# number of rings (size 3 to 8) (size 9 to 14) (size 15 to 20)
#    0.400    1.600    1.333    2.000    3.733    0.000 
#    4.800    0.000    0.000    0.800    0.000    0.000 
#    0.000    0.000    0.000    0.000    0.000    0.000 
#
# Total GULP energy -167035.582486 kJ/mol
# GULP energy per Si atom -5567.852750 kJ/mol
# Density = 1.834407 g / cm^3
# Si number density = 18.385922 Si / 1000 Ang^3
#
#
#
# Elastic Constant Matrix: (Units=GPa)
#
#
# Indices 1 2 3 4 5 6 
#
# 1 94.4676 42.0723 21.5718 0.0000 -21.4831 0.0000
# 2 42.0723 94.1594 42.6025 0.0000 -16.2068 0.0000
# 3 21.5718 42.6025 86.6343 0.0000 -24.9062 0.0000
# 4 0.0000 0.0000 0.0000 22.5384 0.0000 -3.5246
# 5 -21.4831 -16.2068 -24.9062 0.0000 25.8732 0.0000
# 6 0.0000 0.0000 0.0000 -3.5246 0.0000 25.4379
#
#
#
# Elastic Compliance Matrix: (Units=1/GPa)
#
#
# Indices 1 2 3 4 5 6 
#
# 1 0.015243 -0.005946 0.002345 0.000000 0.011190 0.000000
# 2 -0.005946 0.016137 -0.006869 0.000000 -0.001442 0.000000
# 3 0.002345 -0.006869 0.018886 0.000000 0.015825 0.000000
# 4 0.000000 0.000000 0.000000 0.045351 0.000000 0.006284
# 5 0.011190 -0.001442 0.015825 0.000000 0.062272 0.000000
# 6 0.000000 0.000000 0.000000 0.006284 0.000000 0.040182
#
#
# Mechanical properties :
#
#
# Convention : Reuss Voigt Hill
#
# Bulk Modulus (GPa) = 34.09901 54.19493 44.14697
# Shear Modulus (GPa) = 21.85444 26.03754 23.94599
#
# Velocity S-wave (km/s) = 3.45142 3.76728 3.61281
# Velocity P-wave (km/s) = 5.87108 6.96158 6.43945
#
# Compressibility (1/GPa) = 0.02932636
#
# Stress axis : x y z
#
# Youngs Moduli (GPa) = 65.60434 61.96949 52.94873
#
# Poissons Ratio (x) = 0.36847 -0.12419
# Poissons Ratio (y) = 0.39009 0.36372
# Poissons Ratio (z) = -0.15387 0.42568
#
# Static dielectric constant tensor:
#      x y z
#    x 1.645900 0.000000 0.027190 
#    y 0.000000 1.604960 0.000000 
#    z 0.027190 0.000000 1.675490 
# 
# From -- ./inp_files/67011.got.cif
#   From: 2010.05.17/outbox.cif.g08.bks.cpg/sg15_34_cif.got.tgz:67011.got - 2010.06.03 18:47:42.
