data_PCOD9273528
_publ_section_title
;
Structure prediction by ZEFSAII (Michael W. Deem and Ramdas Pophale) SiO2 
 PCOD9273528
Probable space group: C 2/C
;
_chemical_formula_sum "Si O2"
_cell_formula_units_Z 40
_cell_length_a 12.724760
_cell_length_b 12.215942
_cell_length_c 13.416241
_cell_angle_alpha 90.000000
_cell_angle_beta 59.879223
_cell_angle_gamma 90.000000
_cell_volume 1803.882345
_symmetry_space_group_name_H-M "C 2/C"
_symmetry_group_IT_number 15
_symmetry_cell_setting 'monoclinic'
loop_
_space_group_symop_operation_xyz
x,y,z
-x,y,1/2-z
-x,-y,-z
x,-y,1/2+z
1/2+x,1/2+y,z
1/2-x,1/2+y,1/2-z
1/2-x,1/2-y,-z
1/2+x,1/2-y,1/2+z
loop_
_atom_site_type_symbol
_atom_site_label
_atom_site_fract_x
_atom_site_fract_y
_atom_site_fract_z
Si Si1 0.785909 0.043018 0.777825
Si Si2 0.641378 0.537390 0.056963
Si Si3 0.492654 0.349509 0.045709
Si Si4 0.568435 0.107693 0.010082
Si Si5 0.629404 0.014380 0.667351
O O1 0.885705 0.112019 0.671137
O O2 0.848683 0.964803 0.829331
O O3 0.700249 0.988204 0.735004
O O4 0.693436 0.113805 0.888751
O O5 0.610234 0.413706 0.032594
O O6 0.538442 0.605112 0.049415
O O7 0.770728 0.574630 0.949241
O O8 0.500266 0.220756 0.034271
O O9 0.593388 0.086349 0.114444
O O10 0.500000 0.000000 0.000000
O O11 0.500000 0.072282 0.750000
#
# Coordination Sequence:
#
# PCOD9273528 Si02
#       5
#     8   8   8   8   8
#     4  10  21  42  66  97 134 178 222 274 335 389
#     4   9  21  40  66  96 134 171 225 276 330 393
#     4  10  22  42  68  99 133 174 223 275 336 398
#     4  11  23  41  68  96 134 175 221 272 326 401
#     4  10  20  37  67  92 134 174 216 270 325 394
#
# _framework density 22.174392999999998
#
# number of rings (size 3 to 8) (size 9 to 14) (size 15 to 20)
#    0.000    2.000    2.000    0.600    0.000    6.400 
#    3.600    9.000   13.200    0.000    0.000    0.000 
#    0.000    0.000    0.000    0.000    0.000    0.000 
#
# Total GULP energy -111580.847440 kJ/mol
# GULP energy per Si atom -5579.042372 kJ/mol
# Density = 2.212392 g / cm^3
# Si number density = 22.174393 Si / 1000 Ang^3
#
#
#
# Elastic Constant Matrix: (Units=GPa)
#
#
# Indices 1 2 3 4 5 6 
#
# 1 152.2488 46.6468 67.5309 0.0000 29.0483 0.0000
# 2 46.6468 90.6240 31.4694 0.0000 16.5022 0.0000
# 3 67.5309 31.4694 149.3990 0.0000 13.1589 0.0000
# 4 0.0000 0.0000 0.0000 9.3211 0.0000 0.0560
# 5 29.0483 16.5022 13.1589 0.0000 66.1828 0.0000
# 6 0.0000 0.0000 0.0000 0.0560 0.0000 6.8304
#
#
#
# Elastic Compliance Matrix: (Units=1/GPa)
#
#
# Indices 1 2 3 4 5 6 
#
# 1 0.009600 -0.003261 -0.003413 0.000000 -0.002722 0.000000
# 2 -0.003261 0.013439 -0.001209 0.000000 -0.001679 0.000000
# 3 -0.003413 -0.001209 0.008481 0.000000 0.000113 0.000000
# 4 0.000000 0.000000 0.000000 0.107288 0.000000 -0.000880
# 5 -0.002722 -0.001679 0.000113 0.000000 0.016701 0.000000
# 6 0.000000 0.000000 0.000000 -0.000880 0.000000 0.146411
#
#
# Mechanical properties :
#
#
# Convention : Reuss Voigt Hill
#
# Bulk Modulus (GPa) = 63.47314 75.95176 69.71245
# Shear Modulus (GPa) = 15.48290 32.90853 24.19571
#
# Velocity S-wave (km/s) = 2.64528 3.85655 3.30685
# Velocity P-wave (km/s) = 6.16576 7.35915 6.78873
#
# Compressibility (1/GPa) = 0.01575469
#
# Stress axis : x y z
#
# Youngs Moduli (GPa) = 104.16178 74.41260 117.91257
#
# Poissons Ratio (x) = 0.24264 0.40243
# Poissons Ratio (y) = 0.33965 0.14254
# Poissons Ratio (z) = 0.35550 0.08995
#
# Static dielectric constant tensor:
#      x y z
#    x 1.899250 0.000000 -0.043920 
#    y 0.000000 1.773600 0.000000 
#    z -0.043920 0.000000 1.878970 
# 
# From -- ./inp_files/151217.got.cif
#   From: 2010.05.17/outbox.cif.g08.bks.cpg/sg15_76_cif.got.tgz:151217.got - 2010.06.03 18:47:42.
