data_PCOD9273402
_publ_section_title
;
Structure prediction by ZEFSAII (Michael W. Deem and Ramdas Pophale) SiO2 
 PCOD9273402
Probable space group: C 2/C
;
_chemical_formula_sum "Si O2"
_cell_formula_units_Z 52
_cell_length_a 16.728436
_cell_length_b 9.170284
_cell_length_c 18.200007
_cell_angle_alpha 90.000000
_cell_angle_beta 63.690845
_cell_angle_gamma 90.000000
_cell_volume 2502.759375
_symmetry_space_group_name_H-M "C 2/C"
_symmetry_group_IT_number 15
_symmetry_cell_setting 'monoclinic'
loop_
_space_group_symop_operation_xyz
x,y,z
-x,y,1/2-z
-x,-y,-z
x,-y,1/2+z
1/2+x,1/2+y,z
1/2-x,1/2+y,1/2-z
1/2-x,1/2-y,-z
1/2+x,1/2-y,1/2+z
loop_
_atom_site_type_symbol
_atom_site_label
_atom_site_fract_x
_atom_site_fract_y
_atom_site_fract_z
Si Si1 0.000000 0.078948 0.250000
Si Si2 0.469685 0.170762 0.654764
Si Si3 0.298542 0.926594 0.311465
Si Si4 0.336867 0.125054 0.586858
Si Si5 0.129891 0.815664 0.206760
Si Si6 0.382661 0.076422 0.404411
Si Si7 0.189608 0.650502 0.313448
O O1 0.992066 0.184648 0.323406
O O2 0.083908 0.971709 0.223031
O O3 0.398961 0.104128 0.742150
O O4 0.410685 0.204614 0.606760
O O5 0.542462 0.045986 0.612447
O O6 0.304973 0.995697 0.388920
O O7 0.249807 0.773718 0.324993
O O8 0.262812 0.042432 0.265561
O O9 0.236026 0.169496 0.648313
O O10 0.351887 0.137103 0.494794
O O11 0.347543 0.957148 0.609912
O O12 0.090922 0.708405 0.160498
O O13 0.121177 0.737682 0.289339
#
# Coordination Sequence:
#
# PCOD9273402 Si02
#       7
#     4   8   8   8   8   8   8
#     4  12  26  40  68  96 124 158 226 272 302 366
#     4  11  22  42  65  92 128 167 215 260 308 378
#     4  10  20  37  65  92 125 165 220 255 309 373
#     4  11  24  42  68  92 132 168 211 255 329 376
#     4  11  25  42  67  94 127 164 218 265 312 372
#     4  11  24  40  66  96 131 168 207 264 321 379
#     4  10  20  37  65  90 119 166 215 258 302 377
#
# _framework density 20.777068
#
# number of rings (size 3 to 8) (size 9 to 14) (size 15 to 20)
#    0.000    1.231    4.615    1.846    6.462    0.615 
#    0.000    0.769    0.000    0.000    0.000    0.000 
#    0.000    0.000    0.000    0.000    0.000    0.000 
#
# Total GULP energy -145231.718778 kJ/mol
# GULP energy per Si atom -5585.835338 kJ/mol
# Density = 2.072978 g / cm^3
# Si number density = 20.777068 Si / 1000 Ang^3
#
#
#
# Elastic Constant Matrix: (Units=GPa)
#
#
# Indices 1 2 3 4 5 6 
#
# 1 77.0670 22.0744 15.3299 0.0000 12.6149 0.0000
# 2 22.0744 98.0989 -2.3984 0.0000 1.0081 0.0000
# 3 15.3299 -2.3984 55.8045 0.0000 25.4977 0.0000
# 4 0.0000 0.0000 0.0000 14.5318 0.0000 8.1511
# 5 12.6149 1.0081 25.4977 0.0000 23.7757 0.0000
# 6 0.0000 0.0000 0.0000 8.1511 0.0000 48.2359
#
#
#
# Elastic Compliance Matrix: (Units=1/GPa)
#
#
# Indices 1 2 3 4 5 6 
#
# 1 0.015288 -0.003407 -0.001384 0.000000 -0.006483 0.000000
# 2 -0.003407 0.011002 0.001561 0.000000 -0.000332 0.000000
# 3 -0.001384 0.001561 0.035415 0.000000 -0.037312 0.000000
# 4 0.000000 0.000000 0.000000 0.076020 0.000000 -0.012846
# 5 -0.006483 -0.000332 -0.037312 0.000000 0.085528 0.000000
# 6 0.000000 0.000000 0.000000 -0.012846 0.000000 0.022902
#
#
# Mechanical properties :
#
#
# Convention : Reuss Voigt Hill
#
# Bulk Modulus (GPa) = 18.10157 33.44247 25.77202
# Shear Modulus (GPa) = 18.44801 30.37299 24.41050
#
# Velocity S-wave (km/s) = 2.98300 3.82756 3.43137
# Velocity P-wave (km/s) = 4.53824 5.97197 5.30377
#
# Compressibility (1/GPa) = 0.05524382
#
# Stress axis : x y z
#
# Youngs Moduli (GPa) = 65.40996 90.89162 28.23642
#
# Poissons Ratio (x) = 0.30970 0.03909
# Poissons Ratio (y) = 0.22288 -0.04407
# Poissons Ratio (z) = 0.09054 -0.14186
#
# Static dielectric constant tensor:
#      x y z
#    x 1.816680 0.000000 0.017600 
#    y 0.000000 1.755320 0.000000 
#    z 0.017600 0.000000 1.717670 
# 
# From -- ./inp_files/209020.got.cif
#   From: 2010.05.17/outbox.cif.g08.bks.cpg/sg15_105_cif.got.tgz:209020.got - 2010.06.03 18:47:42.
