data_PCOD9273530
_publ_section_title
;
Structure prediction by ZEFSAII (Michael W. Deem and Ramdas Pophale) SiO2 
 PCOD9273530
Probable space group: C 2/C
;
_chemical_formula_sum "Si O2"
_cell_formula_units_Z 48
_cell_length_a 14.619491
_cell_length_b 17.980756
_cell_length_c 7.975059
_cell_angle_alpha 90.000000
_cell_angle_beta 108.083591
_cell_angle_gamma 90.000000
_cell_volume 1992.847412
_symmetry_space_group_name_H-M "C 2/C"
_symmetry_group_IT_number 15
_symmetry_cell_setting 'monoclinic'
loop_
_space_group_symop_operation_xyz
x,y,z
-x,y,1/2-z
-x,-y,-z
x,-y,1/2+z
1/2+x,1/2+y,z
1/2-x,1/2+y,1/2-z
1/2-x,1/2-y,-z
1/2+x,1/2-y,1/2+z
loop_
_atom_site_type_symbol
_atom_site_label
_atom_site_fract_x
_atom_site_fract_y
_atom_site_fract_z
Si Si1 0.500000 0.824789 0.250000
Si Si2 0.000000 0.856287 0.250000
Si Si3 0.945269 0.421520 0.495019
Si Si4 0.704196 0.587316 0.432031
Si Si5 0.855876 0.374502 0.767211
Si Si6 0.101945 0.040952 0.048540
Si Si7 0.369028 0.270397 0.430636
O O1 0.429134 0.881464 0.310460
O O2 0.573611 0.772218 0.390918
O O3 0.914875 0.903611 0.115216
O O4 0.950335 0.809868 0.366313
O O5 0.861651 0.410714 0.585613
O O6 0.000000 0.500000 0.500000
O O7 0.033725 0.372287 0.614642
O O8 0.800197 0.578815 0.376560
O O9 0.680368 0.521002 0.545623
O O10 0.696016 0.665405 0.524094
O O11 0.625300 0.580979 0.236454
O O12 0.819060 0.290438 0.778296
O O13 0.000000 0.000000 0.000000
#
# Coordination Sequence:
#
# PCOD9273530 Si02
#       7
#     4   4   8   8   8   8   8
#     4  10  20  37  67  94 122 172 222 256 318 394
#     4  12  22  41  71  90 134 176 222 266 318 398
#     4  10  21  43  66  91 126 170 217 270 320 391
#     4  12  24  41  65  96 137 168 214 281 321 394
#     4  10  24  41  63  95 131 171 219 260 333 388
#     4  12  23  42  65 100 127 174 224 261 333 390
#     4  11  22  40  64  96 134 173 216 267 324 391
#
# _framework density 24.086141000000001
#
# number of rings (size 3 to 8) (size 9 to 14) (size 15 to 20)
#    0.000    1.000    3.333    4.500    2.333    0.000 
#    0.000    5.000    0.000    0.000    0.000    0.000 
#    0.000    0.000    0.000    0.000    0.000    0.000 
#
# Total GULP energy -133985.527686 kJ/mol
# GULP energy per Si atom -5582.730320 kJ/mol
# Density = 2.403132 g / cm^3
# Si number density = 24.086141 Si / 1000 Ang^3
#
#
#
# Elastic Constant Matrix: (Units=GPa)
#
#
# Indices 1 2 3 4 5 6 
#
# 1 94.4308 22.9506 22.8840 0.0000 -45.1236 0.0000
# 2 22.9506 136.7872 61.3851 0.0000 -31.3501 0.0000
# 3 22.8840 61.3851 97.0358 0.0000 -36.1863 0.0000
# 4 0.0000 0.0000 0.0000 48.7133 0.0000 -8.0680
# 5 -45.1236 -31.3501 -36.1863 0.0000 54.2368 0.0000
# 6 0.0000 0.0000 0.0000 -8.0680 0.0000 13.4167
#
#
#
# Elastic Compliance Matrix: (Units=1/GPa)
#
#
# Indices 1 2 3 4 5 6 
#
# 1 0.017804 -0.000162 0.001854 0.000000 0.015956 0.000000
# 2 -0.000162 0.010397 -0.005788 0.000000 0.002013 0.000000
# 3 0.001854 -0.005788 0.017116 0.000000 0.009617 0.000000
# 4 0.000000 0.000000 0.000000 0.022799 0.000000 0.013710
# 5 0.015956 0.002013 0.009617 0.000000 0.039292 0.000000
# 6 0.000000 0.000000 0.000000 0.013710 0.000000 0.082778
#
#
# Mechanical properties :
#
#
# Convention : Reuss Voigt Hill
#
# Bulk Modulus (GPa) = 26.93650 60.29923 43.61787
# Shear Modulus (GPa) = 23.72436 38.00898 30.86667
#
# Velocity S-wave (km/s) = 3.14184 3.97677 3.58370
# Velocity P-wave (km/s) = 4.93652 6.79525 5.93905
#
# Compressibility (1/GPa) = 0.03712435
#
# Stress axis : x y z
#
# Youngs Moduli (GPa) = 56.16568 96.18503 58.42505
#
# Poissons Ratio (x) = 0.01562 -0.10833
# Poissons Ratio (y) = 0.00912 0.33817
# Poissons Ratio (z) = -0.10414 0.55673
#
# Static dielectric constant tensor:
#      x y z
#    x 0.528690 0.000000 0.322190 
#    y 0.000000 2.001570 0.000000 
#    z 0.322190 0.000000 1.988290 
# 
# From -- ./inp_files/39678.got.cif
#   From: 2010.05.17/outbox.cif.g08.bks.cpg/sg15_20_cif.got.tgz:39678.got - 2010.06.03 18:47:42.
