data_PCOD9273111
_publ_section_title
;
Structure prediction by ZEFSAII (Michael W. Deem and Ramdas Pophale) SiO2 
 PCOD9273111
Probable space group: C 2/C
;
_chemical_formula_sum "Si O2"
_cell_formula_units_Z 40
_cell_length_a 6.027729
_cell_length_b 15.299645
_cell_length_c 18.643337
_cell_angle_alpha 90.000000
_cell_angle_beta 66.388719
_cell_angle_gamma 90.000000
_cell_volume 1575.392494
_symmetry_space_group_name_H-M "C 2/C"
_symmetry_group_IT_number 15
_symmetry_cell_setting 'monoclinic'
loop_
_space_group_symop_operation_xyz
x,y,z
-x,y,1/2-z
-x,-y,-z
x,-y,1/2+z
1/2+x,1/2+y,z
1/2-x,1/2+y,1/2-z
1/2-x,1/2-y,-z
1/2+x,1/2-y,1/2+z
loop_
_atom_site_type_symbol
_atom_site_label
_atom_site_fract_x
_atom_site_fract_y
_atom_site_fract_z
Si Si1 0.067012 0.316881 0.460007
Si Si2 0.231690 0.543691 0.316278
Si Si3 0.637633 0.111059 0.654889
Si Si4 0.103938 0.977959 0.062923
Si Si5 0.549231 0.228593 0.366891
O O1 0.231813 0.394132 0.469375
O O2 0.269297 0.258517 0.391930
O O3 0.894647 0.358656 0.423348
O O4 0.946500 0.276711 0.545993
O O5 0.500000 0.549919 0.250000
O O6 0.254355 0.538792 0.400567
O O7 0.095712 0.635769 0.323530
O O8 0.095507 0.454248 0.308144
O O9 0.742449 0.199603 0.679926
O O10 0.863776 0.048468 0.636101
O O11 0.000000 0.000000 0.000000
#
# Coordination Sequence:
#
# PCOD9273111 Si02
#       5
#     8   8   8   8   8
#     4   9  19  36  62  96 128 156 216 275 323 390
#     4  11  25  43  59  93 133 172 222 264 325 411
#     4  10  21  39  60  90 125 166 207 269 320 382
#     4  10  20  37  65  95 124 168 211 273 331 378
#     4  10  20  37  62  93 125 165 213 265 331 388
#
# _framework density 25.390495999999999
#
# number of rings (size 3 to 8) (size 9 to 14) (size 15 to 20)
#    0.000    2.000    0.000    3.000    0.000    8.800 
#   10.800    0.000    0.000    0.000    0.000    0.000 
#    0.000    0.000    0.000    0.000    0.000    0.000 
#
# Total GULP energy -111564.495978 kJ/mol
# GULP energy per Si atom -5578.224799 kJ/mol
# Density = 2.533271 g / cm^3
# Si number density = 25.390496 Si / 1000 Ang^3
#
#
#
# Elastic Constant Matrix: (Units=GPa)
#
#
# Indices 1 2 3 4 5 6 
#
# 1 78.0928 49.5496 29.4029 0.0000 -17.4547 0.0000
# 2 49.5496 135.0260 38.8053 0.0000 -25.7268 0.0000
# 3 29.4029 38.8053 88.8214 0.0000 -22.4575 0.0000
# 4 0.0000 0.0000 0.0000 14.9936 0.0000 -19.5766
# 5 -17.4547 -25.7268 -22.4575 0.0000 58.0166 0.0000
# 6 0.0000 0.0000 0.0000 -19.5766 0.0000 47.1110
#
#
#
# Elastic Compliance Matrix: (Units=1/GPa)
#
#
# Indices 1 2 3 4 5 6 
#
# 1 0.017719 -0.005267 -0.003112 0.000000 0.001791 0.000000
# 2 -0.005267 0.010397 -0.002254 0.000000 0.002153 0.000000
# 3 -0.003112 -0.002254 0.014171 0.000000 0.003550 0.000000
# 4 0.000000 0.000000 0.000000 0.145799 0.000000 0.060585
# 5 0.001791 0.002153 0.003550 0.000000 0.020104 0.000000
# 6 0.000000 0.000000 0.000000 0.060585 0.000000 0.046402
#
#
# Mechanical properties :
#
#
# Convention : Reuss Voigt Hill
#
# Bulk Modulus (GPa) = 47.57155 59.71732 53.64444
# Shear Modulus (GPa) = 17.67630 36.30308 26.98969
#
# Velocity S-wave (km/s) = 2.64138 3.78536 3.26388
# Velocity P-wave (km/s) = 5.29898 6.53268 5.94790
#
# Compressibility (1/GPa) = 0.02102097
#
# Stress axis : x y z
#
# Youngs Moduli (GPa) = 56.43702 96.18339 70.56639
#
# Poissons Ratio (x) = 0.50657 0.21959
# Poissons Ratio (y) = 0.29723 0.15909
# Poissons Ratio (z) = 0.17562 0.21684
#
# Static dielectric constant tensor:
#      x y z
#    x 1.929950 0.000000 -0.069030 
#    y 0.000000 2.014850 0.000000 
#    z -0.069030 0.000000 2.105780 
# 
# From -- ./inp_files/184255.got.cif
#   From: 2010.05.17/outbox.cif.g08.bks.cpg/sg15_93_cif.got.tgz:184255.got - 2010.06.03 18:47:42.
