data_PCOD9273243
_publ_section_title
;
Structure prediction by ZEFSAII (Michael W. Deem and Ramdas Pophale) SiO2 
 PCOD9273243
Probable space group: C 2/C
;
_chemical_formula_sum "Si O2"
_cell_formula_units_Z 60
_cell_length_a 9.176655
_cell_length_b 22.231725
_cell_length_c 22.052108
_cell_angle_alpha 90.000000
_cell_angle_beta 140.377361
_cell_angle_gamma 90.000000
_cell_volume 2869.085083
_symmetry_space_group_name_H-M "C 2/C"
_symmetry_group_IT_number 15
_symmetry_cell_setting 'monoclinic'
loop_
_space_group_symop_operation_xyz
x,y,z
-x,y,1/2-z
-x,-y,-z
x,-y,1/2+z
1/2+x,1/2+y,z
1/2-x,1/2+y,1/2-z
1/2-x,1/2-y,-z
1/2+x,1/2-y,1/2+z
loop_
_atom_site_type_symbol
_atom_site_label
_atom_site_fract_x
_atom_site_fract_y
_atom_site_fract_z
Si Si1 0.721807 0.778627 0.665983
Si Si2 0.203914 0.451633 0.767860
Si Si3 0.414163 0.888299 0.584079
Si Si4 0.660616 0.224497 0.676526
Si Si5 0.242875 0.341519 0.389054
Si Si6 0.536130 0.427023 0.133312
Si Si7 0.396538 0.346800 0.903772
Si Si8 0.500000 0.635213 0.750000
O O1 0.573077 0.837301 0.604974
O O2 0.682407 0.756661 0.722443
O O3 0.652664 0.721535 0.602617
O O4 0.000000 0.788809 0.750000
O O5 0.384563 0.504488 0.834652
O O6 0.322148 0.389155 0.825073
O O7 0.000000 0.463539 0.750000
O O8 0.079938 0.440141 0.664016
O O9 0.293214 0.856889 0.604341
O O10 0.208224 0.914229 0.477308
O O11 0.497640 0.182399 0.664614
O O12 0.561708 0.279789 0.607041
O O13 0.789391 0.180126 0.673625
O O14 0.280263 0.390300 0.348818
O O15 0.373879 0.366604 0.489253
O O16 0.534171 0.401578 0.200300
#
# Coordination Sequence:
#
# PCOD9273243 Si02
#       8
#     8   8   8   8   8   8   8   4
#     4  10  20  37  63  95 133 174 216 259 325 388
#     4  10  23  43  70  91 127 174 224 273 308 389
#     4  10  22  43  68  95 127 178 220 270 323 384
#     4  11  21  39  64  97 134 169 208 267 330 388
#     4  10  23  38  65 101 133 172 211 264 332 387
#     4  11  26  45  65  98 128 175 223 264 336 385
#     4  10  21  38  67 101 127 168 220 265 320 384
#     4  12  26  40  62  92 138 162 212 276 332 384
#
# _framework density 20.912590999999999
#
# number of rings (size 3 to 8) (size 9 to 14) (size 15 to 20)
#    0.000    1.600    2.667    1.200    4.667    5.867 
#    1.200    0.667    0.000    0.000    0.000    0.000 
#    0.000    0.000    0.000    0.000    0.000    0.000 
#
# Total GULP energy -167355.307383 kJ/mol
# GULP energy per Si atom -5578.510246 kJ/mol
# Density = 2.086499 g / cm^3
# Si number density = 20.912591 Si / 1000 Ang^3
#
#
#
# Elastic Constant Matrix: (Units=GPa)
#
#
# Indices 1 2 3 4 5 6 
#
# 1 25.3096 17.8595 12.5178 0.0004 -2.9160 0.0001
# 2 17.8595 78.7129 30.6558 -0.0001 15.3384 -0.0001
# 3 12.5178 30.6558 90.4540 0.0007 1.1402 0.0006
# 4 0.0004 -0.0001 0.0007 32.4713 0.0006 12.7276
# 5 -2.9160 15.3384 1.1402 0.0006 25.6380 0.0004
# 6 0.0001 -0.0001 0.0006 12.7276 0.0004 13.6319
#
#
#
# Elastic Compliance Matrix: (Units=1/GPa)
#
#
# Indices 1 2 3 4 5 6 
#
# 1 0.052019 -0.013451 -0.002818 -0.000001 0.014089 0.000000
# 2 -0.013451 0.020257 -0.004835 0.000000 -0.013434 0.000000
# 3 -0.002818 -0.004835 0.013059 0.000000 0.001991 -0.000001
# 4 -0.000001 0.000000 0.000000 0.048572 -0.000001 -0.045350
# 5 0.014089 -0.013434 0.001991 -0.000001 0.048556 -0.000001
# 6 0.000000 0.000000 -0.000001 -0.045350 -0.000001 0.115700
#
#
# Mechanical properties :
#
#
# Convention : Reuss Voigt Hill
#
# Bulk Modulus (GPa) = 23.18661 35.17142 29.17902
# Shear Modulus (GPa) = 14.09465 23.24445 18.66955
#
# Velocity S-wave (km/s) = 2.59893 3.33754 2.99112
# Velocity P-wave (km/s) = 4.48524 5.63090 5.09040
#
# Compressibility (1/GPa) = 0.04312834
#
# Stress axis : x y z
#
# Youngs Moduli (GPa) = 19.22373 49.36565 76.57749
#
# Poissons Ratio (x) = 0.66401 0.21578
# Poissons Ratio (y) = 0.25858 0.37022
# Poissons Ratio (z) = 0.05417 0.23866
#
# Static dielectric constant tensor:
#      x y z
#    x 1.781190 0.000000 0.025290 
#    y 0.000000 1.738270 0.000000 
#    z 0.025290 0.000000 1.785350 
# 
# From -- ./inp_files/234609.got.cif
#   From: 2010.05.17/outbox.cif.g08.bks.cpg/sg15_118_cif.got.tgz:234609.got - 2010.06.03 18:47:42.
