data_PCOD9273510
_publ_section_title
;
Structure prediction by ZEFSAII (Michael W. Deem and Ramdas Pophale) SiO2 
 PCOD9273510
Probable space group: C 2/C
;
_chemical_formula_sum "Si O2"
_cell_formula_units_Z 48
_cell_length_a 21.118236
_cell_length_b 17.910599
_cell_length_c 5.375238
_cell_angle_alpha 90.000000
_cell_angle_beta 94.720441
_cell_angle_gamma 90.000000
_cell_volume 2026.235203
_symmetry_space_group_name_H-M "C 2/C"
_symmetry_group_IT_number 15
_symmetry_cell_setting 'monoclinic'
loop_
_space_group_symop_operation_xyz
x,y,z
-x,y,1/2-z
-x,-y,-z
x,-y,1/2+z
1/2+x,1/2+y,z
1/2-x,1/2+y,1/2-z
1/2-x,1/2-y,-z
1/2+x,1/2-y,1/2+z
loop_
_atom_site_type_symbol
_atom_site_label
_atom_site_fract_x
_atom_site_fract_y
_atom_site_fract_z
Si Si1 0.345766 0.198569 0.587156
Si Si2 0.923580 0.546940 0.707494
Si Si3 0.931239 0.073371 0.761759
Si Si4 0.785298 0.798121 0.210526
Si Si5 0.797948 0.032085 0.654013
Si Si6 0.569541 0.327045 0.735101
O O1 0.385576 0.123389 0.636922
O O2 0.271167 0.183592 0.609708
O O3 0.341590 0.245921 0.329997
O O4 0.377393 0.263278 0.764341
O O5 0.908776 0.491155 0.470591
O O6 0.000000 0.560896 0.750000
O O7 0.872830 0.016629 0.720338
O O8 0.931289 0.127505 0.521035
O O9 0.000000 0.035452 0.750000
O O10 0.923213 0.120937 0.014743
O O11 0.800054 0.879737 0.116124
O O12 0.750000 0.750000 0.000000
O O13 0.768518 0.992615 0.406117
O O14 0.500000 0.290951 0.750000
#
# Coordination Sequence:
#
# PCOD9273510 Si02
#       6
#     8   8   8   8   8   8
#     4  11  24  42  72  96 135 185 227 286 343 408
#     4  10  24  45  70 107 146 180 228 293 363 428
#     4  10  21  39  63  95 133 170 213 268 320 391
#     4  11  27  46  69  99 136 182 238 291 332 410
#     4  12  27  45  69  95 136 177 220 277 341 400
#     4  10  20  37  67 101 130 166 221 272 328 393
#
# _framework density 23.689254999999999
#
# number of rings (size 3 to 8) (size 9 to 14) (size 15 to 20)
#    0.000    1.333    1.667    2.500    7.000    2.000 
#    0.000    5.000    0.000    0.000    0.000    0.000 
#    0.000    0.000    0.000    0.000    0.000    0.000 
#
# Total GULP energy -133966.927250 kJ/mol
# GULP energy per Si atom -5581.955302 kJ/mol
# Density = 2.363534 g / cm^3
# Si number density = 23.689255 Si / 1000 Ang^3
#
#
#
# Elastic Constant Matrix: (Units=GPa)
#
#
# Indices 1 2 3 4 5 6 
#
# 1 45.0573 18.3617 5.2557 0.0000 -1.1692 0.0000
# 2 18.3617 145.4941 74.4369 0.0000 13.8801 0.0000
# 3 5.2557 74.4369 149.0752 0.0000 1.8248 0.0000
# 4 0.0000 0.0000 0.0000 38.2624 0.0000 7.1917
# 5 -1.1692 13.8801 1.8248 0.0000 28.7476 0.0000
# 6 0.0000 0.0000 0.0000 7.1917 0.0000 38.8893
#
#
#
# Elastic Compliance Matrix: (Units=1/GPa)
#
#
# Indices 1 2 3 4 5 6 
#
# 1 0.023681 -0.003766 0.001012 0.000000 0.002717 0.000000
# 2 -0.003766 0.010358 -0.004980 0.000000 -0.004838 0.000000
# 3 0.001012 -0.004980 0.009136 0.000000 0.001866 0.000000
# 4 0.000000 0.000000 0.000000 0.027076 0.000000 -0.005007
# 5 0.002717 -0.004838 0.001866 0.000000 0.037113 0.000000
# 6 0.000000 0.000000 0.000000 -0.005007 0.000000 0.026640
#
#
# Mechanical properties :
#
#
# Convention : Reuss Voigt Hill
#
# Bulk Modulus (GPa) = 36.09065 59.52612 47.80838
# Shear Modulus (GPa) = 31.50454 37.28469 34.39462
#
# Velocity S-wave (km/s) = 3.65075 3.97155 3.81452
# Velocity P-wave (km/s) = 5.74793 6.79805 6.29492
#
# Compressibility (1/GPa) = 0.02770801
#
# Stress axis : x y z
#
# Youngs Moduli (GPa) = 42.22800 96.54682 109.45626
#
# Poissons Ratio (x) = 0.36356 -0.11078
# Poissons Ratio (y) = 0.15901 0.54508
# Poissons Ratio (z) = -0.04274 0.48079
#
# Static dielectric constant tensor:
#      x y z
#    x 2.115980 0.000000 -0.106870 
#    y 0.000000 1.860940 0.000000 
#    z -0.106870 0.000000 2.061380 
# 
# From -- ./inp_files/15443.got.cif
#   From: 2010.05.17/outbox.cif.g08.bks.cpg/sg15_8_cif.got.tgz:15443.got - 2010.06.03 18:47:42.
