data_PCOD9273523
_publ_section_title
;
Structure prediction by ZEFSAII (Michael W. Deem and Ramdas Pophale) SiO2 
 PCOD9273523
Probable space group: C 2/C
;
_chemical_formula_sum "Si O2"
_cell_formula_units_Z 44
_cell_length_a 12.206851
_cell_length_b 21.694331
_cell_length_c 9.102332
_cell_angle_alpha 90.000000
_cell_angle_beta 127.338299
_cell_angle_gamma 90.000000
_cell_volume 1916.491863
_symmetry_space_group_name_H-M "C 2/C"
_symmetry_group_IT_number 15
_symmetry_cell_setting 'monoclinic'
loop_
_space_group_symop_operation_xyz
x,y,z
-x,y,1/2-z
-x,-y,-z
x,-y,1/2+z
1/2+x,1/2+y,z
1/2-x,1/2+y,1/2-z
1/2-x,1/2-y,-z
1/2+x,1/2-y,1/2+z
loop_
_atom_site_type_symbol
_atom_site_label
_atom_site_fract_x
_atom_site_fract_y
_atom_site_fract_z
Si Si1 0.000000 0.523659 0.250000
Si Si2 0.545994 0.390384 0.120953
Si Si3 0.513495 0.251788 0.438492
Si Si4 0.250107 0.711210 0.149757
Si Si5 0.362953 0.425364 0.730994
Si Si6 0.679271 0.037612 0.643345
O O1 0.911832 0.481986 0.291746
O O2 0.091300 0.564063 0.436078
O O3 0.500000 0.390368 0.250000
O O4 0.547297 0.319631 0.073681
O O5 0.692926 0.420090 0.211471
O O6 0.423487 0.426828 0.943688
O O7 0.500000 0.245082 0.250000
O O8 0.659835 0.256307 0.644460
O O9 0.406880 0.204610 0.423527
O O10 0.311490 0.643917 0.165096
O O11 0.250000 0.750000 0.000000
O O12 0.500000 0.438774 0.750000
O O13 0.245213 0.475589 0.627234
#
# Coordination Sequence:
#
# PCOD9273523 Si02
#       6
#     4   8   8   8   8   8
#     4  10  24  38  56  82 140 162 200 252 298 408
#     4  10  20  37  67  91 118 158 213 268 310 369
#     4  10  22  41  64  93 126 168 221 272 322 382
#     4  11  22  41  61  94 130 172 214 272 322 384
#     4  11  22  38  64  93 121 160 215 265 311 372
#     4  11  21  41  59  91 126 166 206 253 325 366
#
# _framework density 22.958615999999999
#
# number of rings (size 3 to 8) (size 9 to 14) (size 15 to 20)
#    0.000    1.455    0.000    6.545    0.000    0.000 
#   11.455    0.000    2.000    0.000    0.000    0.000 
#    0.000    0.000    0.000    0.000    0.000    0.000 
#
# Total GULP energy -122938.185180 kJ/mol
# GULP energy per Si atom -5588.099326 kJ/mol
# Density = 2.290636 g / cm^3
# Si number density = 22.958616 Si / 1000 Ang^3
#
#
#
# Elastic Constant Matrix: (Units=GPa)
#
#
# Indices 1 2 3 4 5 6 
#
# 1 91.5435 21.7938 -18.0583 0.0000 6.8839 0.0000
# 2 21.7938 42.4959 13.6701 0.0000 1.0901 0.0000
# 3 -18.0583 13.6701 105.7816 0.0000 3.5025 0.0000
# 4 0.0000 0.0000 0.0000 26.7374 0.0000 4.2963
# 5 6.8839 1.0901 3.5025 0.0000 31.6038 0.0000
# 6 0.0000 0.0000 0.0000 4.2963 0.0000 24.7143
#
#
#
# Elastic Compliance Matrix: (Units=1/GPa)
#
#
# Indices 1 2 3 4 5 6 
#
# 1 0.013781 -0.008115 0.003504 0.000000 -0.003110 0.000000
# 2 -0.008115 0.029339 -0.005221 0.000000 0.001334 0.000000
# 3 0.003504 -0.005221 0.010785 0.000000 -0.001778 0.000000
# 4 0.000000 0.000000 0.000000 0.038475 0.000000 -0.006689
# 5 -0.003110 0.001334 -0.001778 0.000000 0.032470 0.000000
# 6 0.000000 0.000000 0.000000 -0.006689 0.000000 0.041625
#
#
# Mechanical properties :
#
#
# Convention : Reuss Voigt Hill
#
# Bulk Modulus (GPa) = 29.20428 30.51469 29.85949
# Shear Modulus (GPa) = 25.30971 31.43880 28.37426
#
# Velocity S-wave (km/s) = 3.32385 3.70451 3.51933
# Velocity P-wave (km/s) = 5.24201 5.62298 5.43583
#
# Compressibility (1/GPa) = 0.03424155
#
# Stress axis : x y z
#
# Youngs Moduli (GPa) = 72.56460 34.08475 92.71927
#
# Poissons Ratio (x) = 0.27659 -0.32491
# Poissons Ratio (y) = 0.58885 0.48408
# Poissons Ratio (z) = -0.25428 0.17795
#
# Static dielectric constant tensor:
#      x y z
#    x 1.877130 0.000000 0.062080 
#    y 0.000000 1.888130 0.000000 
#    z 0.062080 0.000000 1.829160 
# 
# From -- ./inp_files/34497.got.cif
#   From: 2010.05.17/outbox.cif.g08.bks.cpg/sg15_18_cif.got.tgz:34497.got - 2010.06.03 18:47:42.
