data_PCOD9273900
_publ_section_title
;
Structure prediction by ZEFSAII (Michael W. Deem and Ramdas Pophale) SiO2 
 PCOD9273900
Probable space group: C 2/C
;
_chemical_formula_sum "Si O2"
_cell_formula_units_Z 56
_cell_length_a 13.191272
_cell_length_b 31.979139
_cell_length_c 9.129802
_cell_angle_alpha 90.000000
_cell_angle_beta 48.768326
_cell_angle_gamma 90.000000
_cell_volume 2896.422403
_symmetry_space_group_name_H-M "C 2/C"
_symmetry_group_IT_number 15
_symmetry_cell_setting 'monoclinic'
loop_
_space_group_symop_operation_xyz
x,y,z
-x,y,1/2-z
-x,-y,-z
x,-y,1/2+z
1/2+x,1/2+y,z
1/2-x,1/2+y,1/2-z
1/2-x,1/2-y,-z
1/2+x,1/2-y,1/2+z
loop_
_atom_site_type_symbol
_atom_site_label
_atom_site_fract_x
_atom_site_fract_y
_atom_site_fract_z
Si Si1 0.465048 0.929807 0.116433
Si Si2 0.760567 0.770334 0.328953
Si Si3 0.141946 0.074970 0.535075
Si Si4 0.966256 0.218957 0.112150
Si Si5 0.730599 0.131699 0.850292
Si Si6 0.007325 0.121227 0.411314
Si Si7 0.626902 0.982078 0.741569
O O1 0.500000 0.918284 0.250000
O O2 0.398328 0.892162 0.091641
O O3 0.364666 0.969858 0.218479
O O4 0.588819 0.950884 0.910830
O O5 0.750000 0.750000 0.500000
O O6 0.661874 0.744758 0.317703
O O7 0.715570 0.818769 0.378247
O O8 0.909418 0.770459 0.115051
O O9 0.224823 0.111318 0.538995
O O10 0.102327 0.090802 0.412511
O O11 0.235429 0.034624 0.454376
O O12 0.000000 0.068760 0.750000
O O13 0.000000 0.227821 0.250000
O O14 0.941533 0.169114 0.124746
O O15 0.857458 0.122408 0.622715
O O16 0.000000 0.109393 0.250000
O O17 0.500000 0.979581 0.750000
#
# Coordination Sequence:
#
# PCOD9273900 Si02
#       7
#     8   8   8   8   8   8   8
#     4  10  22  38  61  87 120 159 199 248 303 358
#     4  11  22  39  61  89 121 158 203 251 300 363
#     4  10  20  38  60  86 117 157 199 248 296 350
#     4  10  21  40  59  84 120 162 193 245 312 361
#     4  10  21  39  58  86 123 153 202 247 294 362
#     4   9  20  37  59  83 119 157 196 244 301 356
#     4  10  20  40  63  84 120 159 200 247 307 355
#
# _framework density 19.334195999999999
#
# number of rings (size 3 to 8) (size 9 to 14) (size 15 to 20)
#    0.000    2.000    1.429    1.714    2.000    2.857 
#    7.714    3.571    0.000    0.000    0.000    0.000 
#    0.000    0.000    0.000    0.000    0.000    0.000 
#
# Total GULP energy -156344.761372 kJ/mol
# GULP energy per Si atom -5583.741478 kJ/mol
# Density = 1.929019 g / cm^3
# Si number density = 19.334196 Si / 1000 Ang^3
#
#
#
# Elastic Constant Matrix: (Units=GPa)
#
#
# Indices 1 2 3 4 5 6 
#
# 1 76.4599 34.4014 24.5331 0.0000 8.1874 0.0000
# 2 34.4014 63.9766 18.4144 0.0000 -2.0311 0.0000
# 3 24.5331 18.4144 44.9315 0.0000 24.1855 0.0000
# 4 0.0000 0.0000 0.0000 24.9391 0.0000 1.9003
# 5 8.1874 -2.0311 24.1855 0.0000 24.7809 0.0000
# 6 0.0000 0.0000 0.0000 1.9003 0.0000 14.4088
#
#
#
# Elastic Compliance Matrix: (Units=1/GPa)
#
#
# Indices 1 2 3 4 5 6 
#
# 1 0.019027 -0.008268 -0.006851 0.000000 -0.000278 0.000000
# 2 -0.008268 0.026165 -0.018610 0.000000 0.023039 0.000000
# 3 -0.006851 -0.018610 0.070001 0.000000 -0.067581 0.000000
# 4 0.000000 0.000000 0.000000 0.040505 0.000000 -0.005342
# 5 -0.000278 0.023039 -0.067581 0.000000 0.108291 0.000000
# 6 0.000000 0.000000 0.000000 -0.005342 0.000000 0.070106
#
#
# Mechanical properties :
#
#
# Convention : Reuss Voigt Hill
#
# Bulk Modulus (GPa) = 20.94930 37.78509 29.36719
# Shear Modulus (GPa) = 11.97712 20.02706 16.00209
#
# Velocity S-wave (km/s) = 2.49163 3.22193 2.88002
# Velocity P-wave (km/s) = 4.37453 5.78158 5.12656
#
# Compressibility (1/GPa) = 0.04773429
#
# Stress axis : x y z
#
# Youngs Moduli (GPa) = 52.55800 38.21972 14.28554
#
# Poissons Ratio (x) = 0.31600 0.09787
# Poissons Ratio (y) = 0.43454 0.26586
# Poissons Ratio (z) = 0.36007 0.71127
#
# Static dielectric constant tensor:
#      x y z
#    x 1.440920 0.000000 -0.205930 
#    y 0.000000 1.646810 0.000000 
#    z -0.205930 0.000000 1.478370 
# 
# From -- ./inp_files/35549.got.cif
#   From: 2010.05.17/outbox.cif.g08.bks.cpg/sg15_18_cif.got.tgz:35549.got - 2010.06.03 18:47:42.
