data_PCOD9273464
_publ_section_title
;
Structure prediction by ZEFSAII (Michael W. Deem and Ramdas Pophale) SiO2 
 PCOD9273464
Probable space group: C 2/C
;
_chemical_formula_sum "Si O2"
_cell_formula_units_Z 36
_cell_length_a 4.894313
_cell_length_b 12.858822
_cell_length_c 23.368016
_cell_angle_alpha 90.000000
_cell_angle_beta 69.787604
_cell_angle_gamma 90.000000
_cell_volume 1380.102148
_symmetry_space_group_name_H-M "C 2/C"
_symmetry_group_IT_number 15
_symmetry_cell_setting 'monoclinic'
loop_
_space_group_symop_operation_xyz
x,y,z
-x,y,1/2-z
-x,-y,-z
x,-y,1/2+z
1/2+x,1/2+y,z
1/2-x,1/2+y,1/2-z
1/2-x,1/2-y,-z
1/2+x,1/2-y,1/2+z
loop_
_atom_site_type_symbol
_atom_site_label
_atom_site_fract_x
_atom_site_fract_y
_atom_site_fract_z
Si Si1 0.201985 0.160053 0.189203
Si Si2 0.000000 0.830070 0.250000
Si Si3 0.648001 0.837846 0.569955
Si Si4 0.205223 0.596841 0.503960
Si Si5 0.592094 0.824291 0.370942
O O1 0.334333 0.252293 0.218800
O O2 0.454018 0.106874 0.133630
O O3 0.000000 0.101226 0.250000
O O4 0.020532 0.222014 0.154288
O O5 0.772274 0.884589 0.309046
O O6 0.951894 0.896836 0.535123
O O7 0.447917 0.821397 0.528602
O O8 0.709076 0.725826 0.593892
O O9 0.145237 0.615733 0.575007
O O10 0.000000 0.500000 0.500000
#
# Coordination Sequence:
#
# PCOD9273464 Si02
#       5
#     8   4   8   8   8
#     4   9  18  35  62  98 116 151 206 273 307 358
#     4   8  18  32  60  92 116 152 198 264 308 356
#     4  11  22  40  62  90 118 161 207 252 307 361
#     4  12  26  39  58  91 132 166 201 251 308 368
#     4  10  20  37  66  87 123 154 215 252 307 368
#
# _framework density 26.085025999999999
#
# number of rings (size 3 to 8) (size 9 to 14) (size 15 to 20)
#    0.000    1.778    2.222    2.000    6.222    0.000 
#    0.000    0.000    2.444    0.000    0.000    0.000 
#    0.000    0.000    0.000    0.000    0.000    0.000 
#
# Total GULP energy -100439.671626 kJ/mol
# GULP energy per Si atom -5579.981757 kJ/mol
# Density = 2.602565 g / cm^3
# Si number density = 26.085026 Si / 1000 Ang^3
#
#
#
# Elastic Constant Matrix: (Units=GPa)
#
#
# Indices 1 2 3 4 5 6 
#
# 1 157.0778 15.6195 87.2788 0.0000 -21.2668 0.0000
# 2 15.6195 56.4997 46.2369 0.0000 -25.2441 0.0000
# 3 87.2788 46.2369 317.2394 0.0000 -82.1419 0.0000
# 4 0.0000 0.0000 0.0000 30.6997 0.0000 -13.2946
# 5 -21.2668 -25.2441 -82.1419 0.0000 82.5587 0.0000
# 6 0.0000 0.0000 0.0000 -13.2946 0.0000 14.0998
#
#
#
# Elastic Compliance Matrix: (Units=1/GPa)
#
#
# Indices 1 2 3 4 5 6 
#
# 1 0.007529 -0.000512 -0.002068 0.000000 -0.000274 0.000000
# 2 -0.000512 0.021363 -0.001772 0.000000 0.004637 0.000000
# 3 -0.002068 -0.001772 0.004986 0.000000 0.003886 0.000000
# 4 0.000000 0.000000 0.000000 0.055053 0.000000 0.051909
# 5 -0.000274 0.004637 0.003886 0.000000 0.017326 0.000000
# 6 0.000000 0.000000 0.000000 0.051909 0.000000 0.119867
#
#
# Mechanical properties :
#
#
# Convention : Reuss Voigt Hill
#
# Bulk Modulus (GPa) = 39.72379 92.12081 65.92230
# Shear Modulus (GPa) = 20.55766 50.91709 35.73738
#
# Velocity S-wave (km/s) = 2.81036 4.42290 3.70541
# Velocity P-wave (km/s) = 5.07863 7.84060 6.60558
#
# Compressibility (1/GPa) = 0.02517383
#
# Stress axis : x y z
#
# Youngs Moduli (GPa) = 132.82009 46.81036 200.58081
#
# Poissons Ratio (x) = 0.02396 0.41477
# Poissons Ratio (y) = 0.06798 0.35545
# Poissons Ratio (z) = 0.27465 0.08295
#
# Static dielectric constant tensor:
#      x y z
#    x 2.220510 0.000000 -0.045040 
#    y 0.000000 2.197760 0.000000 
#    z -0.045040 0.000000 2.292920 
# 
# From -- ./inp_files/226501.got.cif
#   From: 2010.05.17/outbox.cif.g08.bks.cpg/sg15_114_cif.got.tgz:226501.got - 2010.06.03 18:47:42.
