data_PCOD9273070
_publ_section_title
;
Structure prediction by ZEFSAII (Michael W. Deem and Ramdas Pophale) SiO2 
 PCOD9273070
Probable space group: C 2/C
;
_chemical_formula_sum "Si O2"
_cell_formula_units_Z 60
_cell_length_a 10.814041
_cell_length_b 28.950165
_cell_length_c 26.159382
_cell_angle_alpha 90.000000
_cell_angle_beta 155.244379
_cell_angle_gamma 90.000000
_cell_volume 3429.415768
_symmetry_space_group_name_H-M "C 2/C"
_symmetry_group_IT_number 15
_symmetry_cell_setting 'monoclinic'
loop_
_space_group_symop_operation_xyz
x,y,z
-x,y,1/2-z
-x,-y,-z
x,-y,1/2+z
1/2+x,1/2+y,z
1/2-x,1/2+y,1/2-z
1/2-x,1/2-y,-z
1/2+x,1/2-y,1/2+z
loop_
_atom_site_type_symbol
_atom_site_label
_atom_site_fract_x
_atom_site_fract_y
_atom_site_fract_z
Si Si1 0.595724 0.752560 0.136970
Si Si2 0.580020 0.902805 0.340506
Si Si3 0.729106 0.107482 0.419577
Si Si4 0.237958 0.325775 0.013416
Si Si5 0.788383 0.749347 0.327062
Si Si6 0.355118 0.993160 0.639371
Si Si7 0.145895 0.851084 0.256680
Si Si8 0.000000 0.324373 0.750000
O O1 0.704029 0.745029 0.235926
O O2 0.708434 0.804011 0.167023
O O3 0.731758 0.711351 0.154867
O O4 0.250000 0.750000 0.000000
O O5 0.500000 0.894933 0.250000
O O6 0.385380 0.873927 0.307868
O O7 0.933254 0.893923 0.475279
O O8 0.522199 0.956963 0.331360
O O9 0.730683 0.129139 0.476110
O O10 0.596788 0.055964 0.369600
O O11 0.545658 0.142336 0.315205
O O12 0.469850 0.289517 0.075515
O O13 0.372669 0.337383 0.118264
O O14 0.932502 0.298213 0.900185
O O15 0.500000 0.761810 0.250000
O O16 0.500000 0.987034 0.750000
O O17 0.000000 0.000000 0.500000
O O18 0.000000 0.877563 0.250000
#
# Coordination Sequence:
#
# PCOD9273070 Si02
#       8
#     8   8   8   8   8   8   8   4
#     4  11  24  35  52  79 112 155 193 236 284 345
#     4  10  20  37  62  91 113 148 192 243 303 348
#     4  11  20  36  60  86 119 147 191 247 297 350
#     4  10  22  37  55  81 110 155 198 240 291 344
#     4  10  23  36  54  75 112 155 198 238 286 347
#     4   9  19  35  59  93 119 144 185 251 307 356
#     4  11  23  38  58  83 118 155 199 241 288 356
#     4  12  22  36  52  82 122 150 188 238 292 334
#
# _framework density 17.495691000000001
#
# number of rings (size 3 to 8) (size 9 to 14) (size 15 to 20)
#    0.000    1.600    4.000    0.800    7.467    0.000 
#    0.000    0.000    0.000    1.600    0.000    0.000 
#    0.000    0.000    0.000    0.000    0.000    0.000 
#
# Total GULP energy -167201.027534 kJ/mol
# GULP energy per Si atom -5573.367584 kJ/mol
# Density = 1.745587 g / cm^3
# Si number density = 17.495691 Si / 1000 Ang^3
#
#
#
# Elastic Constant Matrix: (Units=GPa)
#
#
# Indices 1 2 3 4 5 6 
#
# 1 55.2762 24.9084 2.4927 0.0079 2.9273 -0.0029
# 2 24.9084 107.5088 15.3610 0.0004 -6.5872 0.0020
# 3 2.4927 15.3610 69.9155 0.0118 -4.0243 -0.0069
# 4 0.0079 0.0004 0.0118 17.5244 -0.0029 -5.7993
# 5 2.9273 -6.5872 -4.0243 -0.0029 19.0803 -0.0025
# 6 -0.0029 0.0020 -0.0069 -5.7993 -0.0025 9.9130
#
#
#
# Elastic Compliance Matrix: (Units=1/GPa)
#
#
# Indices 1 2 3 4 5 6 
#
# 1 0.020643 -0.005098 0.000102 -0.000010 -0.004906 0.000000
# 2 -0.005098 0.011024 -0.002000 0.000003 0.004166 -0.000002
# 3 0.000102 -0.002000 0.014879 -0.000007 0.002432 0.000007
# 4 -0.000010 0.000003 -0.000007 0.070763 0.000018 0.041398
# 5 -0.004906 0.004166 0.002432 0.000018 0.055114 0.000024
# 6 0.000000 -0.000002 0.000007 0.041398 0.000024 0.125096
#
#
# Mechanical properties :
#
#
# Convention : Reuss Voigt Hill
#
# Bulk Modulus (GPa) = 30.71948 35.35830 33.03889
# Shear Modulus (GPa) = 15.51044 21.96611 18.73827
#
# Velocity S-wave (km/s) = 2.98069 3.54717 3.27620
# Velocity P-wave (km/s) = 5.42609 6.08524 5.76509
#
# Compressibility (1/GPa) = 0.03255263
#
# Stress axis : x y z
#
# Youngs Moduli (GPa) = 48.44165 90.71305 67.20947
#
# Poissons Ratio (x) = 0.46245 -0.00683
# Poissons Ratio (y) = 0.24695 0.13445
# Poissons Ratio (z) = -0.00493 0.18147
#
# Static dielectric constant tensor:
#      x y z
#    x 1.640200 -0.000020 -0.034930 
#    y -0.000020 1.618190 0.000040 
#    z -0.034930 0.000040 1.444870 
# 
# From -- ./inp_files/311837.got.cif
#   From: 2010.05.17/outbox.cif.g08.bks.cpg/sg15_156_cif.got.tgz:311837.got - 2010.06.03 18:47:42.
