data_PCOD9273123
_publ_section_title
;
Structure prediction by ZEFSAII (Michael W. Deem and Ramdas Pophale) SiO2 
 PCOD9273123
Probable space group: C 2/C
;
_chemical_formula_sum "Si O2"
_cell_formula_units_Z 60
_cell_length_a 18.912306
_cell_length_b 18.132199
_cell_length_c 12.588292
_cell_angle_alpha 90.000000
_cell_angle_beta 139.748087
_cell_angle_gamma 90.000000
_cell_volume 2789.296991
_symmetry_space_group_name_H-M "C 2/C"
_symmetry_group_IT_number 15
_symmetry_cell_setting 'monoclinic'
loop_
_space_group_symop_operation_xyz
x,y,z
-x,y,1/2-z
-x,-y,-z
x,-y,1/2+z
1/2+x,1/2+y,z
1/2-x,1/2+y,1/2-z
1/2-x,1/2-y,-z
1/2+x,1/2-y,1/2+z
loop_
_atom_site_type_symbol
_atom_site_label
_atom_site_fract_x
_atom_site_fract_y
_atom_site_fract_z
Si Si1 0.875014 0.198428 0.433587
Si Si2 0.579692 0.931545 0.719384
Si Si3 0.661441 0.005564 0.506758
Si Si4 0.966183 0.789665 0.589688
Si Si5 0.453789 0.449923 0.088212
Si Si6 0.154020 0.355380 0.595814
Si Si7 0.000000 0.702735 0.250000
Si Si8 0.149633 0.082461 0.655358
O O1 0.881779 0.122640 0.508282
O O2 0.749452 0.195925 0.253625
O O3 0.941659 0.200421 0.397579
O O4 0.931106 0.254566 0.580804
O O5 0.462729 0.972389 0.600488
O O6 0.604015 0.908436 0.628780
O O7 0.578493 0.852769 0.777485
O O8 0.665316 0.979227 0.884853
O O9 0.736817 0.061858 0.659408
O O10 0.693078 0.920026 0.561002
O O11 0.930447 0.703920 0.546990
O O12 0.870203 0.844521 0.436946
O O13 0.000000 0.808752 0.750000
O O14 0.500000 0.478726 0.250000
O O15 0.558600 0.420674 0.143279
O O16 0.385990 0.512790 0.954811
#
# Coordination Sequence:
#
# PCOD9273123 Si02
#       8
#     8   8   8   8   8   8   4   8
#     4  11  23  41  66 105 131 172 228 275 339 399
#     4  10  25  43  67  97 135 173 221 286 334 394
#     4  10  23  43  66  99 131 175 226 275 335 399
#     4  11  27  45  66  95 143 179 219 278 336 405
#     4  10  20  37  62  94 135 169 219 278 328 397
#     4  12  25  44  70  98 131 182 228 273 338 410
#     4  10  20  42  66 100 136 162 216 286 336 390
#     4  10  22  40  62  97 131 176 220 272 340 395
#
# _framework density 21.510795999999999
#
# number of rings (size 3 to 8) (size 9 to 14) (size 15 to 20)
#    0.000    1.600    3.333    0.800    7.467    1.067 
#    2.400    0.000    0.000    0.000    0.000    0.000 
#    0.000    0.000    0.000    0.000    0.000    0.000 
#
# Total GULP energy -167189.592496 kJ/mol
# GULP energy per Si atom -5572.986417 kJ/mol
# Density = 2.146184 g / cm^3
# Si number density = 21.510796 Si / 1000 Ang^3
#
#
#
# Elastic Constant Matrix: (Units=GPa)
#
#
# Indices 1 2 3 4 5 6 
#
# 1 27.7368 -0.0734 25.1893 0.0000 -4.3560 0.0000
# 2 -0.0734 101.2630 37.5065 0.0000 -6.5922 0.0000
# 3 25.1893 37.5065 140.9113 0.0000 -6.9978 0.0000
# 4 0.0000 0.0000 0.0000 9.1655 0.0000 -0.4417
# 5 -4.3560 -6.5922 -6.9978 0.0000 21.7264 0.0000
# 6 0.0000 0.0000 0.0000 -0.4417 0.0000 16.4440
#
#
#
# Elastic Compliance Matrix: (Units=1/GPa)
#
#
# Indices 1 2 3 4 5 6 
#
# 1 0.045115 0.003732 -0.008692 0.000000 0.007378 0.000000
# 2 0.003732 0.011391 -0.003547 0.000000 0.003062 0.000000
# 3 -0.008692 -0.003547 0.009608 0.000000 0.000276 0.000000
# 4 0.000000 0.000000 0.000000 0.109247 0.000000 0.002935
# 5 0.007378 0.003062 0.000276 0.000000 0.048524 0.000000
# 6 0.000000 0.000000 0.000000 0.002935 0.000000 0.060891
#
#
# Mechanical properties :
#
#
# Convention : Reuss Voigt Hill
#
# Bulk Modulus (GPa) = 20.36601 43.90622 32.13612
# Shear Modulus (GPa) = 15.71551 23.28642 19.50097
#
# Velocity S-wave (km/s) = 2.70587 3.29378 3.01419
# Velocity P-wave (km/s) = 4.38756 5.90939 5.20440
#
# Compressibility (1/GPa) = 0.04910141
#
# Stress axis : x y z
#
# Youngs Moduli (GPa) = 22.16545 87.78768 104.07725
#
# Poissons Ratio (x) = -0.32765 0.90462
# Poissons Ratio (y) = -0.08273 0.36917
# Poissons Ratio (z) = 0.19266 0.31139
#
# Static dielectric constant tensor:
#      x y z
#    x 1.862340 0.000000 -0.006450 
#    y 0.000000 1.768120 0.000000 
#    z -0.006450 0.000000 1.838790 
# 
# From -- ./inp_files/113816.got.cif
#   From: 2010.05.17/outbox.cif.g08.bks.cpg/sg15_57_cif.got.tgz:113816.got - 2010.06.03 18:47:42.
