data_PCOD9273281
_publ_section_title
;
Structure prediction by ZEFSAII (Michael W. Deem and Ramdas Pophale) SiO2 
 PCOD9273281
Probable space group: C 2/C
;
_chemical_formula_sum "Si O2"
_cell_formula_units_Z 60
_cell_length_a 19.410053
_cell_length_b 12.518272
_cell_length_c 19.773479
_cell_angle_alpha 90.000000
_cell_angle_beta 36.929650
_cell_angle_gamma 90.000000
_cell_volume 2886.746671
_symmetry_space_group_name_H-M "C 2/C"
_symmetry_group_IT_number 15
_symmetry_cell_setting 'monoclinic'
loop_
_space_group_symop_operation_xyz
x,y,z
-x,y,1/2-z
-x,-y,-z
x,-y,1/2+z
1/2+x,1/2+y,z
1/2-x,1/2+y,1/2-z
1/2-x,1/2-y,-z
1/2+x,1/2-y,1/2+z
loop_
_atom_site_type_symbol
_atom_site_label
_atom_site_fract_x
_atom_site_fract_y
_atom_site_fract_z
Si Si1 0.142041 0.098368 0.579218
Si Si2 0.801043 0.191583 0.188277
Si Si3 0.542961 0.694604 0.077498
Si Si4 0.000000 0.078981 0.250000
Si Si5 0.878461 0.623759 0.063696
Si Si6 0.381585 0.883896 0.044351
Si Si7 0.605031 0.485994 0.969271
Si Si8 0.106056 0.656347 0.122793
O O1 0.122036 0.216664 0.623539
O O2 0.275542 0.096019 0.454992
O O3 0.104898 0.005296 0.659507
O O4 0.074162 0.079075 0.562048
O O5 0.704906 0.185955 0.320240
O O6 0.798787 0.294351 0.141261
O O7 0.924666 0.194202 0.127999
O O8 0.800716 0.083322 0.143844
O O9 0.509022 0.653904 0.177848
O O10 0.600983 0.808876 0.020594
O O11 0.627160 0.604760 0.979235
O O12 0.834931 0.504113 0.085673
O O13 0.000951 0.617630 0.005189
O O14 0.410351 0.856215 0.944590
O O15 0.500000 0.500000 0.000000
O O16 0.000000 0.617391 0.250000
#
# Coordination Sequence:
#
# PCOD9273281 Si02
#       8
#     8   8   8   4   8   8   8   8
#     4  10  21  37  60  95 126 166 213 259 323 381
#     4  10  20  37  64  88 117 163 205 260 314 367
#     4   9  21  39  60  91 117 158 209 262 310 375
#     4  10  20  42  66  86 128 156 214 278 310 376
#     4  10  23  40  61  89 125 159 213 251 313 382
#     4  10  23  42  59  91 126 164 205 256 312 376
#     4   9  18  36  59  90 118 149 211 261 310 367
#     4  11  23  38  59  93 136 171 204 258 325 395
#
# _framework density 20.784642000000002
#
# number of rings (size 3 to 8) (size 9 to 14) (size 15 to 20)
#    0.000    2.133    2.000    0.000    5.600    0.000 
#    1.200    0.667    0.000    0.000    0.000    0.000 
#    0.000    0.000    0.000    0.000    0.000    0.000 
#
# Total GULP energy -167334.054440 kJ/mol
# GULP energy per Si atom -5577.801815 kJ/mol
# Density = 2.073734 g / cm^3
# Si number density = 20.784642 Si / 1000 Ang^3
#
#
#
# Elastic Constant Matrix: (Units=GPa)
#
#
# Indices 1 2 3 4 5 6 
#
# 1 43.0783 37.1438 26.7678 0.0000 14.5299 0.0000
# 2 37.1438 119.3600 66.4634 0.0000 17.1315 0.0000
# 3 26.7678 66.4634 140.3177 0.0000 13.6068 0.0000
# 4 0.0000 0.0000 0.0000 14.4745 0.0000 32.4799
# 5 14.5299 17.1315 13.6068 0.0000 31.5795 0.0000
# 6 0.0000 0.0000 0.0000 32.4799 0.0000 -27.1893
#
#
#
# Elastic Compliance Matrix: (Units=1/GPa)
#
#
# Indices 1 2 3 4 5 6 
#
# 1 0.035224 -0.008481 -0.001646 0.000000 -0.010897 0.000000
# 2 -0.008481 0.013932 -0.004828 0.000000 -0.001575 0.000000
# 3 -0.001646 -0.004828 0.009810 0.000000 -0.000850 0.000000
# 4 0.000000 0.000000 0.000000 0.018771 0.000000 0.022423
# 5 -0.010897 -0.001575 -0.000850 0.000000 0.037901 0.000000
# 6 0.000000 0.000000 0.000000 0.022423 0.000000 -0.009993
#
#
# Mechanical properties :
#
#
# Convention : Reuss Voigt Hill
#
# Bulk Modulus (GPa) = 34.41635 62.61179 48.51407
# Shear Modulus (GPa) = 34.42555 15.26500 24.84528
#
# Velocity S-wave (km/s) = 4.07418 2.71299 3.46116
# Velocity P-wave (km/s) = 6.22305 6.32481 6.27414
#
# Compressibility (1/GPa) = 0.02905596
#
# Stress axis : x y z
#
# Youngs Moduli (GPa) = 28.38948 71.77739 101.93533
#
# Poissons Ratio (x) = 0.60875 0.16776
# Poissons Ratio (y) = 0.24077 0.49219
# Poissons Ratio (z) = 0.04672 0.34657
#
# Static dielectric constant tensor:
#      x y z
#    x 1.766900 0.000000 0.006930 
#    y 0.000000 1.778630 0.000000 
#    z 0.006930 0.000000 1.730990 
# 
# From -- ./inp_files/215204.got.cif
#   From: 2010.05.17/outbox.cif.g08.bks.cpg/sg15_108_cif.got.tgz:215204.got - 2010.06.03 18:47:42.
