data_PCOD9273519
_publ_section_title
;
Structure prediction by ZEFSAII (Michael W. Deem and Ramdas Pophale) SiO2 
 PCOD9273519
Probable space group: C 2/C
;
_chemical_formula_sum "Si O2"
_cell_formula_units_Z 52
_cell_length_a 7.674458
_cell_length_b 15.543099
_cell_length_c 19.636131
_cell_angle_alpha 90.000000
_cell_angle_beta 82.052908
_cell_angle_gamma 90.000000
_cell_volume 2319.798142
_symmetry_space_group_name_H-M "C 2/C"
_symmetry_group_IT_number 15
_symmetry_cell_setting 'monoclinic'
loop_
_space_group_symop_operation_xyz
x,y,z
-x,y,1/2-z
-x,-y,-z
x,-y,1/2+z
1/2+x,1/2+y,z
1/2-x,1/2+y,1/2-z
1/2-x,1/2-y,-z
1/2+x,1/2-y,1/2+z
loop_
_atom_site_type_symbol
_atom_site_label
_atom_site_fract_x
_atom_site_fract_y
_atom_site_fract_z
Si Si1 0.106861 0.703867 0.103252
Si Si2 0.227764 0.141276 0.920795
Si Si3 0.822284 0.529958 0.470293
Si Si4 0.676112 0.539794 0.196425
Si Si5 0.145747 0.110631 0.603475
Si Si6 0.703972 0.318952 0.579719
Si Si7 0.000000 0.632625 0.250000
O O1 0.192508 0.617697 0.070642
O O2 0.212616 0.792309 0.085603
O O3 0.071630 0.691237 0.184919
O O4 0.915741 0.696126 0.076328
O O5 0.355327 0.221614 0.899626
O O6 0.060811 0.132785 0.880971
O O7 0.305316 0.046930 0.918305
O O8 0.168973 0.155726 0.003599
O O9 0.683243 0.548075 0.537753
O O10 0.000000 0.500000 0.500000
O O11 0.500000 0.539149 0.250000
O O12 0.708173 0.444961 0.163706
O O13 0.651055 0.608198 0.135604
O O14 0.843018 0.574749 0.228679
#
# Coordination Sequence:
#
# PCOD9273519 Si02
#       7
#     8   8   8   8   8   8   4
#     4  10  22  40  65  89 130 172 207 267 322 375
#     4  10  20  37  67  89 128 164 196 266 322 376
#     4  12  21  38  62  97 128 165 205 265 320 380
#     4  11  24  43  69  93 126 173 224 266 319 391
#     4  11  24  40  62  98 127 163 218 257 325 397
#     4   9  19  41  61  94 127 164 210 256 323 387
#     4  10  24  48  64  84 132 176 218 272 320 372
#
# _framework density 22.415742000000002
#
# number of rings (size 3 to 8) (size 9 to 14) (size 15 to 20)
#    0.000    1.538    3.077    1.846    3.231    0.000 
#    2.769    0.000    3.385    0.000    0.000    0.000 
#    0.000    0.000    0.000    0.000    0.000    0.000 
#
# Total GULP energy -145024.733251 kJ/mol
# GULP energy per Si atom -5577.874356 kJ/mol
# Density = 2.236472 g / cm^3
# Si number density = 22.415742 Si / 1000 Ang^3
#
#
#
# Elastic Constant Matrix: (Units=GPa)
#
#
# Indices 1 2 3 4 5 6 
#
# 1 31.2763 9.5833 2.0068 0.0000 9.7308 0.0000
# 2 9.5833 177.2463 23.9640 0.0000 4.1885 0.0000
# 3 2.0068 23.9640 71.7501 0.0000 9.7418 0.0000
# 4 0.0000 0.0000 0.0000 35.7072 0.0000 4.4141
# 5 9.7308 4.1885 9.7418 0.0000 27.2814 0.0000
# 6 0.0000 0.0000 0.0000 4.4141 0.0000 24.1166
#
#
#
# Elastic Compliance Matrix: (Units=1/GPa)
#
#
# Indices 1 2 3 4 5 6 
#
# 1 0.036577 -0.001853 0.001396 0.000000 -0.013261 0.000000
# 2 -0.001853 0.006004 -0.002016 0.000000 0.000459 0.000000
# 3 0.001396 -0.002016 0.015341 0.000000 -0.005667 0.000000
# 4 0.000000 0.000000 0.000000 0.028654 0.000000 -0.005245
# 5 -0.013261 0.000459 -0.005667 0.000000 0.043338 0.000000
# 6 0.000000 0.000000 0.000000 -0.005245 0.000000 0.042425
#
#
# Mechanical properties :
#
#
# Convention : Reuss Voigt Hill
#
# Bulk Modulus (GPa) = 18.87626 39.04234 28.95930
# Shear Modulus (GPa) = 25.64864 33.73561 29.69213
#
# Velocity S-wave (km/s) = 3.38631 3.88364 3.64347
# Velocity P-wave (km/s) = 4.87121 6.12906 5.53598
#
# Compressibility (1/GPa) = 0.05297660
#
# Stress axis : x y z
#
# Youngs Moduli (GPa) = 27.33960 166.56299 65.18561
#
# Poissons Ratio (x) = 0.30865 -0.09102
# Poissons Ratio (y) = 0.05066 0.13139
# Poissons Ratio (z) = -0.03817 0.33574
#
# Static dielectric constant tensor:
#      x y z
#    x 1.920010 0.000000 -0.018680 
#    y 0.000000 2.089560 0.000000 
#    z -0.018680 0.000000 1.811640 
# 
# From -- ./inp_files/231153.got.cif
#   From: 2010.05.17/outbox.cif.g08.bks.cpg/sg15_116_cif.got.tgz:231153.got - 2010.06.03 18:47:42.
