data_PCOD9273676
_publ_section_title
;
Structure prediction by ZEFSAII (Michael W. Deem and Ramdas Pophale) SiO2 
 PCOD9273676
Probable space group: C 2/C
;
_chemical_formula_sum "Si O2"
_cell_formula_units_Z 52
_cell_length_a 9.999616
_cell_length_b 10.146520
_cell_length_c 22.260921
_cell_angle_alpha 90.000000
_cell_angle_beta 54.643198
_cell_angle_gamma 90.000000
_cell_volume 1842.051551
_symmetry_space_group_name_H-M "C 2/C"
_symmetry_group_IT_number 15
_symmetry_cell_setting 'monoclinic'
loop_
_space_group_symop_operation_xyz
x,y,z
-x,y,1/2-z
-x,-y,-z
x,-y,1/2+z
1/2+x,1/2+y,z
1/2-x,1/2+y,1/2-z
1/2-x,1/2-y,-z
1/2+x,1/2-y,1/2+z
loop_
_atom_site_type_symbol
_atom_site_label
_atom_site_fract_x
_atom_site_fract_y
_atom_site_fract_z
Si Si1 0.331233 0.920938 0.213464
Si Si2 0.724758 0.607627 0.476261
Si Si3 0.942594 0.328453 0.827940
Si Si4 0.761888 0.212354 0.404166
Si Si5 0.533173 0.129973 0.557863
Si Si6 0.000000 0.803789 0.750000
Si Si7 0.584343 0.401501 0.371349
O O1 0.357123 0.891544 0.135550
O O2 0.396013 0.790348 0.231463
O O3 0.168998 0.967867 0.291480
O O4 0.458042 0.036217 0.195061
O O5 0.750000 0.750000 0.500000
O O6 0.863202 0.502448 0.456984
O O7 0.561428 0.547584 0.548631
O O8 0.756137 0.638955 0.397145
O O9 0.014122 0.230899 0.858783
O O10 0.000000 0.268504 0.750000
O O11 0.589377 0.161296 0.475314
O O12 0.883443 0.250987 0.426228
O O13 0.862902 0.129958 0.328299
O O14 0.720634 0.349782 0.382225
#
# Coordination Sequence:
#
# PCOD9273676 Si02
#       7
#     8   8   8   8   8   4   8
#     4   9  17  34  55  80 105 139 188 223 264 324
#     4   9  20  38  56  79 113 148 182 228 278 321
#     4  10  20  38  58  75 108 154 177 218 288 329
#     4   9  18  33  54  85 112 142 184 223 278 325
#     4   9  18  35  58  80 112 152 174 218 292 334
#     4   8  14  30  54  74 112 144 170 228 272 318
#     4  10  21  36  54  86 110 136 192 240 256 321
#
# _framework density 28.229393999999999
#
# number of rings (size 3 to 8) (size 9 to 14) (size 15 to 20)
#    0.000    2.769    0.769    0.000    2.154    1.846 
#   11.077   10.000    1.692    0.000    0.000    0.000 
#    0.000    0.000    0.000    0.000    0.000    0.000 
#
# Total GULP energy -145165.124924 kJ/mol
# GULP energy per Si atom -5583.274036 kJ/mol
# Density = 2.816514 g / cm^3
# Si number density = 28.229394 Si / 1000 Ang^3
#
#
#
# Elastic Constant Matrix: (Units=GPa)
#
#
# Indices 1 2 3 4 5 6 
#
# 1 45.7438 21.5130 42.1305 0.0000 -9.7450 0.0000
# 2 21.5130 72.2549 33.9523 0.0000 3.9407 0.0000
# 3 42.1305 33.9523 362.0089 0.0000 -39.3000 0.0000
# 4 0.0000 0.0000 0.0000 35.6514 0.0000 -9.3772
# 5 -9.7450 3.9407 -39.3000 0.0000 44.4847 0.0000
# 6 0.0000 0.0000 0.0000 -9.3772 0.0000 24.6686
#
#
#
# Elastic Compliance Matrix: (Units=1/GPa)
#
#
# Indices 1 2 3 4 5 6 
#
# 1 0.028497 -0.007814 -0.002025 0.000000 0.005146 0.000000
# 2 -0.007814 0.016930 -0.001136 0.000000 -0.004215 0.000000
# 3 -0.002025 -0.001136 0.003393 0.000000 0.002654 0.000000
# 4 0.000000 0.000000 0.000000 0.031165 0.000000 0.011847
# 5 0.005146 -0.004215 0.002654 0.000000 0.026325 0.000000
# 6 0.000000 0.000000 0.000000 0.011847 0.000000 0.045041
#
#
# Mechanical properties :
#
#
# Convention : Reuss Voigt Hill
#
# Bulk Modulus (GPa) = 37.21604 75.02214 56.11909
# Shear Modulus (GPa) = 27.43373 46.45506 36.94439
#
# Velocity S-wave (km/s) = 3.12078 4.06103 3.62155
# Velocity P-wave (km/s) = 5.11837 6.97301 6.11640
#
# Compressibility (1/GPa) = 0.02687014
#
# Stress axis : x y z
#
# Youngs Moduli (GPa) = 35.09151 59.06656 294.74681
#
# Poissons Ratio (x) = 0.46153 0.59686
# Poissons Ratio (y) = 0.27419 0.33486
# Poissons Ratio (z) = 0.07106 0.06710
#
# Static dielectric constant tensor:
#      x y z
#    x 2.270960 0.000000 0.015920 
#    y 0.000000 2.228280 0.000000 
#    z 0.015920 0.000000 2.434120 
# 
# From -- ./inp_files/273817.got.cif
#   From: 2010.05.17/outbox.cif.g08.bks.cpg/sg15_137_cif.got.tgz:273817.got - 2010.06.03 18:47:42.
