data_PCOD9273127
_publ_section_title
;
Structure prediction by ZEFSAII (Michael W. Deem and Ramdas Pophale) SiO2 
 PCOD9273127
Probable space group: C 2/C
;
_chemical_formula_sum "Si O2"
_cell_formula_units_Z 60
_cell_length_a 15.476835
_cell_length_b 21.436853
_cell_length_c 14.235798
_cell_angle_alpha 90.000000
_cell_angle_beta 36.690618
_cell_angle_gamma 90.000000
_cell_volume 2822.009292
_symmetry_space_group_name_H-M "C 2/C"
_symmetry_group_IT_number 15
_symmetry_cell_setting 'monoclinic'
loop_
_space_group_symop_operation_xyz
x,y,z
-x,y,1/2-z
-x,-y,-z
x,-y,1/2+z
1/2+x,1/2+y,z
1/2-x,1/2+y,1/2-z
1/2-x,1/2-y,-z
1/2+x,1/2-y,1/2+z
loop_
_atom_site_type_symbol
_atom_site_label
_atom_site_fract_x
_atom_site_fract_y
_atom_site_fract_z
Si Si1 0.671338 0.067875 0.592709
Si Si2 0.248167 0.625431 0.903909
Si Si3 0.500000 0.702229 0.750000
Si Si4 0.326438 0.313905 0.900225
Si Si5 0.897558 0.518065 0.506218
Si Si6 0.956769 0.268169 0.965574
Si Si7 0.681112 0.933308 0.667376
Si Si8 0.766836 0.172340 0.233804
O O1 0.500000 0.083966 0.750000
O O2 0.770277 0.128303 0.512904
O O3 0.668506 0.039339 0.490862
O O4 0.716302 0.006929 0.616011
O O5 0.236431 0.562088 0.856147
O O6 0.137273 0.669801 0.946326
O O7 0.218955 0.606136 0.039628
O O8 0.398878 0.659745 0.775418
O O9 0.418607 0.745735 0.893607
O O10 0.500000 0.308033 0.750000
O O11 0.276856 0.329986 0.837141
O O12 0.250000 0.250000 0.000000
O O13 0.000000 0.500000 0.500000
O O14 0.010928 0.558064 0.342409
O O15 0.122600 0.288288 0.831585
O O16 0.902175 0.213656 0.080548
O O17 0.751777 0.893372 0.690675
#
# Coordination Sequence:
#
# PCOD9273127 Si02
#       8
#     8   8   4   8   8   8   8   8
#     4   9  21  41  69  98 128 173 226 282 343 405
#     4  11  21  36  60  90 139 178 212 275 337 404
#     4  12  22  36  56 100 140 178 208 272 354 414
#     4  12  27  51  73  96 135 183 232 290 356 410
#     4  10  20  37  62  95 125 175 227 275 326 404
#     4  12  23  36  63 100 140 179 229 269 341 410
#     4  10  20  39  67  96 132 174 225 276 344 411
#     4  12  24  42  68 100 136 181 235 289 335 421
#
# _framework density 21.261447
#
# number of rings (size 3 to 8) (size 9 to 14) (size 15 to 20)
#    0.000    1.067    4.000    4.400    0.000    0.000 
#    7.200    0.667    0.000    0.000    0.000    0.000 
#    0.000    0.000    0.000    0.000    0.000    0.000 
#
# Total GULP energy -167193.792380 kJ/mol
# GULP energy per Si atom -5573.126413 kJ/mol
# Density = 2.121305 g / cm^3
# Si number density = 21.261447 Si / 1000 Ang^3
#
#
#
# Elastic Constant Matrix: (Units=GPa)
#
#
# Indices 1 2 3 4 5 6 
#
# 1 88.1263 38.1635 7.1552 0.0018 0.5053 0.0010
# 2 38.1635 141.1704 44.4814 0.0073 -6.8249 -0.0004
# 3 7.1552 44.4814 47.4192 0.0107 -5.7143 -0.0020
# 4 0.0018 0.0073 0.0107 21.1401 -0.0044 -16.3114
# 5 0.5053 -6.8249 -5.7143 -0.0044 32.6877 -0.0035
# 6 0.0010 -0.0004 -0.0020 -16.3114 -0.0035 16.8976
#
#
#
# Elastic Compliance Matrix: (Units=1/GPa)
#
#
# Indices 1 2 3 4 5 6 
#
# 1 0.012988 -0.004119 0.001814 -0.000005 -0.000744 -0.000006
# 2 -0.004119 0.011369 -0.009959 0.000005 0.000696 0.000004
# 3 0.001814 -0.009959 0.030546 -0.000034 0.003233 -0.000029
# 4 -0.000005 0.000005 -0.000034 0.185367 0.000039 0.178935
# 5 -0.000744 0.000696 0.003233 0.000039 0.031315 0.000045
# 6 -0.000006 0.000004 -0.000029 0.178935 0.000045 0.231907
#
#
# Mechanical properties :
#
#
# Convention : Reuss Voigt Hill
#
# Bulk Modulus (GPa) = 32.92089 50.70178 41.81133
# Shear Modulus (GPa) = 9.29121 26.60616 17.94868
#
# Velocity S-wave (km/s) = 2.09272 3.54132 2.90865
# Velocity P-wave (km/s) = 4.62134 6.37337 5.56671
#
# Compressibility (1/GPa) = 0.03037585
#
# Stress axis : x y z
#
# Youngs Moduli (GPa) = 76.99455 87.96078 32.73725
#
# Poissons Ratio (x) = 0.36228 -0.05939
# Poissons Ratio (y) = 0.31712 0.32603
# Poissons Ratio (z) = -0.13968 0.87600
#
# Static dielectric constant tensor:
#      x y z
#    x 1.792940 0.000000 0.063630 
#    y 0.000000 1.787070 0.000000 
#    z 0.063630 0.000000 1.897730 
# 
# From -- ./inp_files/156343.got.cif
#   From: 2010.05.17/outbox.cif.g08.bks.cpg/sg15_79_cif.got.tgz:156343.got - 2010.06.03 18:47:42.
