data_PCOD9273322
_publ_section_title
;
Structure prediction by ZEFSAII (Michael W. Deem and Ramdas Pophale) SiO2 
 PCOD9273322
Probable space group: C 2/C
;
_chemical_formula_sum "Si O2"
_cell_formula_units_Z 52
_cell_length_a 17.645606
_cell_length_b 8.748834
_cell_length_c 19.748786
_cell_angle_alpha 90.000000
_cell_angle_beta 50.078061
_cell_angle_gamma 90.000000
_cell_volume 2338.174538
_symmetry_space_group_name_H-M "C 2/C"
_symmetry_group_IT_number 15
_symmetry_cell_setting 'monoclinic'
loop_
_space_group_symop_operation_xyz
x,y,z
-x,y,1/2-z
-x,-y,-z
x,-y,1/2+z
1/2+x,1/2+y,z
1/2-x,1/2+y,1/2-z
1/2-x,1/2-y,-z
1/2+x,1/2-y,1/2+z
loop_
_atom_site_type_symbol
_atom_site_label
_atom_site_fract_x
_atom_site_fract_y
_atom_site_fract_z
Si Si1 0.286294 0.415351 0.389263
Si Si2 0.987958 0.238311 0.396761
Si Si3 0.840352 0.597649 0.321845
Si Si4 0.479450 0.088920 0.368664
Si Si5 0.500000 0.440457 0.750000
Si Si6 0.284676 0.397502 0.023319
Si Si7 0.090292 0.619663 0.954863
O O1 0.270672 0.242281 0.372493
O O2 0.397532 0.465734 0.308674
O O3 0.276842 0.463776 0.473152
O O4 0.190585 0.479964 0.404525
O O5 0.008056 0.159366 0.313369
O O6 0.896445 0.142730 0.479380
O O7 0.957132 0.410764 0.394972
O O8 0.074886 0.264451 0.401496
O O9 0.904675 0.599327 0.216610
O O10 0.782863 0.443346 0.374387
O O11 0.918028 0.625924 0.337640
O O12 0.436961 0.186344 0.455204
O O13 0.250000 0.250000 0.000000
O O14 0.000000 0.500000 0.000000
#
# Coordination Sequence:
#
# PCOD9273322 Si02
#       7
#     8   8   8   8   4   8   8
#     4  11  23  41  67  94 137 173 228 273 346 399
#     4  10  21  39  64  95 133 165 228 276 332 400
#     4  11  21  37  65  96 126 171 232 276 321 406
#     4  10  20  37  64  92 131 173 225 266 339 405
#     4  10  22  40  70 100 128 176 238 294 316 402
#     4  11  20  37  66  97 121 172 224 282 321 393
#     4  10  21  43  61  91 136 183 209 273 349 408
#
# _framework density 22.239571999999999
#
# number of rings (size 3 to 8) (size 9 to 14) (size 15 to 20)
#    0.000    1.538    3.077    3.231    2.154    0.000 
#    5.538    2.308    0.000    0.000    0.000    0.000 
#    0.000    0.000    0.000    0.000    0.000    0.000 
#
# Total GULP energy -144831.924829 kJ/mol
# GULP energy per Si atom -5570.458647 kJ/mol
# Density = 2.218895 g / cm^3
# Si number density = 22.239572 Si / 1000 Ang^3
#
#
#
# Elastic Constant Matrix: (Units=GPa)
#
#
# Indices 1 2 3 4 5 6 
#
# 1 118.7391 10.8335 34.4022 0.0000 -7.1871 0.0000
# 2 10.8335 58.8074 25.5700 0.0000 -0.7607 0.0000
# 3 34.4022 25.5700 123.2301 0.0000 -8.0051 0.0000
# 4 0.0000 0.0000 0.0000 19.1098 0.0000 -6.3285
# 5 -7.1871 -0.7607 -8.0051 0.0000 32.1524 0.0000
# 6 0.0000 0.0000 0.0000 -6.3285 0.0000 19.8860
#
#
#
# Elastic Compliance Matrix: (Units=1/GPa)
#
#
# Indices 1 2 3 4 5 6 
#
# 1 0.009252 -0.000664 -0.002350 0.000000 0.001467 0.000000
# 2 -0.000664 0.018748 -0.003746 0.000000 -0.000637 0.000000
# 3 -0.002350 -0.003746 0.009665 0.000000 0.001792 0.000000
# 4 0.000000 0.000000 0.000000 0.058494 0.000000 0.018615
# 5 0.001467 -0.000637 0.001792 0.000000 0.031861 0.000000
# 6 0.000000 0.000000 0.000000 0.018615 0.000000 0.056211
#
#
# Mechanical properties :
#
#
# Convention : Reuss Voigt Hill
#
# Bulk Modulus (GPa) = 41.41688 49.15423 45.28555
# Shear Modulus (GPa) = 24.29575 29.56105 26.92840
#
# Velocity S-wave (km/s) = 3.30882 3.64979 3.48348
# Velocity P-wave (km/s) = 5.76725 6.31755 6.04866
#
# Compressibility (1/GPa) = 0.02414474
#
# Stress axis : x y z
#
# Youngs Moduli (GPa) = 108.08456 53.34026 103.46963
#
# Poissons Ratio (x) = 0.03540 0.24314
# Poissons Ratio (y) = 0.07173 0.38762
# Poissons Ratio (z) = 0.25398 0.19982
#
# Static dielectric constant tensor:
#      x y z
#    x 1.966140 0.000000 -0.013640 
#    y 0.000000 1.895450 0.000000 
#    z -0.013640 0.000000 1.979700 
# 
# From -- ./inp_files/247776.got.cif
#   From: 2010.05.17/outbox.cif.g08.bks.cpg/sg15_124_cif.got.tgz:247776.got - 2010.06.03 18:47:42.
