data_PCOD9273688
_publ_section_title
;
Structure prediction by ZEFSAII (Michael W. Deem and Ramdas Pophale) SiO2 
 PCOD9273688
Probable space group: C 2/C
;
_chemical_formula_sum "Si O2"
_cell_formula_units_Z 44
_cell_length_a 14.381085
_cell_length_b 6.217691
_cell_length_c 26.186818
_cell_angle_alpha 90.000000
_cell_angle_beta 124.134154
_cell_angle_gamma 90.000000
_cell_volume 1938.162161
_symmetry_space_group_name_H-M "C 2/C"
_symmetry_group_IT_number 15
_symmetry_cell_setting 'monoclinic'
loop_
_space_group_symop_operation_xyz
x,y,z
-x,y,1/2-z
-x,-y,-z
x,-y,1/2+z
1/2+x,1/2+y,z
1/2-x,1/2+y,1/2-z
1/2-x,1/2-y,-z
1/2+x,1/2-y,1/2+z
loop_
_atom_site_type_symbol
_atom_site_label
_atom_site_fract_x
_atom_site_fract_y
_atom_site_fract_z
Si Si1 0.000000 0.000835 0.750000
Si Si2 0.164766 0.304287 0.843727
Si Si3 0.593030 0.582956 0.100923
Si Si4 0.941715 0.302628 0.137048
Si Si5 0.927122 0.765955 0.019860
Si Si6 0.761370 0.989396 0.541650
O O1 0.105777 0.161701 0.782409
O O2 0.022427 0.851480 0.805215
O O3 0.273004 0.425560 0.855065
O O4 0.077718 0.463257 0.845138
O O5 0.209492 0.145422 0.901692
O O6 0.534896 0.738766 0.124030
O O7 0.538013 0.343898 0.083429
O O8 0.561941 0.680841 0.036018
O O9 0.819325 0.231050 0.076430
O O10 0.832982 0.921361 0.016244
O O11 0.870608 0.531487 0.007938
#
# Coordination Sequence:
#
# PCOD9273688 Si02
#       6
#     4   8   8   8   8   8
#     4  10  22  42  56  76 106 146 194 250 316 332
#     4  10  20  38  58  81 112 149 195 246 292 352
#     4   9  18  34  58  88 114 148 194 231 282 352
#     4  10  20  38  58  81 112 149 195 246 292 352
#     4   8  14  32  54  82 126 152 176 232 278 341
#     4   8  16  32  56  82 120 158 180 226 290 340
#
# _framework density 22.701920000000001
#
# number of rings (size 3 to 8) (size 9 to 14) (size 15 to 20)
#    0.000    2.909    0.000    0.545    0.000    0.000 
#    6.545   49.091    0.000    0.000    0.000    0.000 
#    0.000    0.000    0.000    0.000    0.000    0.000 
#
# Total GULP energy -122756.085477 kJ/mol
# GULP energy per Si atom -5579.822067 kJ/mol
# Density = 2.265025 g / cm^3
# Si number density = 22.701920 Si / 1000 Ang^3
#
#
#
# Elastic Constant Matrix: (Units=GPa)
#
#
# Indices 1 2 3 4 5 6 
#
# 1 98.2036 15.0673 38.1585 0.0000 -0.5372 0.0000
# 2 15.0673 64.9030 35.6628 0.0000 3.4159 0.0000
# 3 38.1585 35.6628 46.9927 0.0000 12.4924 0.0000
# 4 0.0000 0.0000 0.0000 23.9122 0.0000 -0.7352
# 5 -0.5372 3.4159 12.4924 0.0000 22.8453 0.0000
# 6 0.0000 0.0000 0.0000 -0.7352 0.0000 23.9938
#
#
#
# Elastic Compliance Matrix: (Units=1/GPa)
#
#
# Indices 1 2 3 4 5 6 
#
# 1 0.018819 0.009007 -0.025597 0.000000 0.013093 0.000000
# 2 0.009007 0.032124 -0.035655 0.000000 0.014906 0.000000
# 3 -0.025597 -0.035655 0.079411 0.000000 -0.038695 0.000000
# 4 0.000000 0.000000 0.000000 0.041859 0.000000 0.001283
# 5 0.013093 0.014906 -0.038695 0.000000 0.063011 0.000000
# 6 0.000000 0.000000 0.000000 0.001283 0.000000 0.041717
#
#
# Mechanical properties :
#
#
# Convention : Reuss Voigt Hill
#
# Bulk Modulus (GPa) = 38.66619 43.09737 40.88178
# Shear Modulus (GPa) = 12.81880 22.23095 17.52487
#
# Velocity S-wave (km/s) = 2.37883 3.13270 2.78142
# Velocity P-wave (km/s) = 4.96127 5.66660 5.32562
#
# Compressibility (1/GPa) = 0.02586239
#
# Stress axis : x y z
#
# Youngs Moduli (GPa) = 53.13843 31.12940 12.59277
#
# Poissons Ratio (x) = -0.28039 0.32234
# Poissons Ratio (y) = -0.47863 0.44900
# Poissons Ratio (z) = 1.36020 1.10993
#
# Static dielectric constant tensor:
#      x y z
#    x 1.852110 0.000000 0.034520 
#    y 0.000000 1.911690 0.000000 
#    z 0.034520 0.000000 1.866070 
# 
# From -- ./inp_files/260380.got.cif
#   From: 2010.05.17/outbox.cif.g08.bks.cpg/sg15_131_cif.got.tgz:260380.got - 2010.06.03 18:47:42.
