data_PCOD9273719
_publ_section_title
;
Structure prediction by ZEFSAII (Michael W. Deem and Ramdas Pophale) SiO2 
 PCOD9273719
Probable space group: C 2/C
;
_chemical_formula_sum "Si O2"
_cell_formula_units_Z 52
_cell_length_a 21.065256
_cell_length_b 14.340651
_cell_length_c 18.326415
_cell_angle_alpha 90.000000
_cell_angle_beta 24.148244
_cell_angle_gamma 90.000000
_cell_volume 2264.860597
_symmetry_space_group_name_H-M "C 2/C"
_symmetry_group_IT_number 15
_symmetry_cell_setting 'monoclinic'
loop_
_space_group_symop_operation_xyz
x,y,z
-x,y,1/2-z
-x,-y,-z
x,-y,1/2+z
1/2+x,1/2+y,z
1/2-x,1/2+y,1/2-z
1/2-x,1/2-y,-z
1/2+x,1/2-y,1/2+z
loop_
_atom_site_type_symbol
_atom_site_label
_atom_site_fract_x
_atom_site_fract_y
_atom_site_fract_z
Si Si1 0.568968 0.555007 0.544185
Si Si2 0.000000 0.188089 0.750000
Si Si3 0.963315 0.121883 0.207195
Si Si4 0.709046 0.213271 0.671822
Si Si5 0.912981 0.520624 0.669129
Si Si6 0.188461 0.781664 0.855786
Si Si7 0.537737 0.164804 0.327518
O O1 0.579917 0.617221 0.607877
O O2 0.443013 0.473891 0.683285
O O3 0.728847 0.502436 0.357079
O O4 0.557515 0.636935 0.497425
O O5 0.085214 0.264603 0.712944
O O6 0.000000 0.088721 0.250000
O O7 0.834028 0.200481 0.334950
O O8 0.121121 0.174302 0.020523
O O9 0.709048 0.252821 0.752876
O O10 0.586330 0.127042 0.803638
O O11 0.968366 0.446397 0.672510
O O12 0.000000 0.500000 0.500000
O O13 0.344058 0.818497 0.729717
O O14 0.127770 0.698815 0.970196
#
# Coordination Sequence:
#
# PCOD9273719 Si02
#       7
#     8   4   8   8   8   8   8
#     4   9  21  37  66  85 128 155 207 257 313 358
#     4  10  20  42  64  94 114 170 198 262 312 366
#     4  11  23  43  63  90 125 171 205 256 300 381
#     4  11  23  39  67  88 127 165 210 250 315 360
#     4  10  20  38  58  87 125 165 192 262 305 362
#     4  10  20  38  61  95 117 161 200 261 304 362
#     4  10  21  37  64  88 129 152 208 248 312 366
#
# _framework density 22.95947
#
# number of rings (size 3 to 8) (size 9 to 14) (size 15 to 20)
#    0.000    1.846    2.308    1.385    2.154    6.154 
#    1.385    7.692    0.000    0.000    0.000    0.000 
#    0.000    0.000    0.000    0.000    0.000    0.000 
#
# Total GULP energy -144863.600559 kJ/mol
# GULP energy per Si atom -5571.676945 kJ/mol
# Density = 2.290721 g / cm^3
# Si number density = 22.959470 Si / 1000 Ang^3
#
#
#
# Elastic Constant Matrix: (Units=GPa)
#
#
# Indices 1 2 3 4 5 6 
#
# 1 35.2854 27.8748 -2.2883 0.0010 6.3538 -0.0003
# 2 27.8748 131.8869 -2.8439 0.0016 -0.4369 -0.0015
# 3 -2.2883 -2.8439 35.7211 0.0019 17.7758 -0.0012
# 4 0.0010 0.0016 0.0019 37.6142 -0.0009 13.7053
# 5 6.3538 -0.4369 17.7758 -0.0009 20.4819 0.0004
# 6 -0.0003 -0.0015 -0.0012 13.7053 0.0004 42.3635
#
#
#
# Elastic Compliance Matrix: (Units=1/GPa)
#
#
# Indices 1 2 3 4 5 6 
#
# 1 0.040407 -0.008311 0.014527 -0.000003 -0.025319 0.000002
# 2 -0.008311 0.009309 -0.002065 0.000000 0.004569 0.000000
# 3 0.014527 -0.002065 0.054611 -0.000006 -0.051946 0.000004
# 4 -0.000003 0.000000 -0.000006 0.030138 0.000007 -0.009750
# 5 -0.025319 0.004569 -0.051946 0.000007 0.101859 -0.000005
# 6 0.000002 0.000000 0.000004 -0.009750 -0.000005 0.026760
#
#
# Mechanical properties :
#
#
# Convention : Reuss Voigt Hill
#
# Bulk Modulus (GPa) = 8.87871 27.59764 18.23817
# Shear Modulus (GPa) = 17.10427 32.10196 24.60311
#
# Velocity S-wave (km/s) = 2.73239 3.74331 3.27706
# Velocity P-wave (km/s) = 3.71888 5.54341 4.72014
#
# Compressibility (1/GPa) = 0.11262900
#
# Stress axis : x y z
#
# Youngs Moduli (GPa) = 24.74820 107.41847 18.31143
#
# Poissons Ratio (x) = 0.89273 -0.26600
# Poissons Ratio (y) = 0.20568 0.03781
# Poissons Ratio (z) = -0.35950 0.22179
#
# Static dielectric constant tensor:
#      x y z
#    x 1.856180 0.000000 0.005530 
#    y 0.000000 1.973660 0.000000 
#    z 0.005530 0.000000 1.751150 
# 
# From -- ./inp_files/215575.got.cif
#   From: 2010.05.17/outbox.cif.g08.bks.cpg/sg15_108_cif.got.tgz:215575.got - 2010.06.03 18:47:42.
