data_PCOD9273461
_publ_section_title
;
Structure prediction by ZEFSAII (Michael W. Deem and Ramdas Pophale) SiO2 
 PCOD9273461
Probable space group: C 2/C
;
_chemical_formula_sum "Si O2"
_cell_formula_units_Z 40
_cell_length_a 16.161811
_cell_length_b 10.779985
_cell_length_c 9.779591
_cell_angle_alpha 90.000000
_cell_angle_beta 57.248856
_cell_angle_gamma 90.000000
_cell_volume 1432.977715
_symmetry_space_group_name_H-M "C 2/C"
_symmetry_group_IT_number 15
_symmetry_cell_setting 'monoclinic'
loop_
_space_group_symop_operation_xyz
x,y,z
-x,y,1/2-z
-x,-y,-z
x,-y,1/2+z
1/2+x,1/2+y,z
1/2-x,1/2+y,1/2-z
1/2-x,1/2-y,-z
1/2+x,1/2-y,1/2+z
loop_
_atom_site_type_symbol
_atom_site_label
_atom_site_fract_x
_atom_site_fract_y
_atom_site_fract_z
Si Si1 0.399712 0.464864 0.776762
Si Si2 0.794920 0.379718 0.995269
Si Si3 0.042768 0.251225 0.473341
Si Si4 0.649809 0.105896 0.683260
Si Si5 0.656828 0.269636 0.433745
O O1 0.500000 0.527122 0.750000
O O2 0.301001 0.546255 0.857218
O O3 0.418079 0.382470 0.621999
O O4 0.379159 0.365365 0.916276
O O5 0.896240 0.334567 0.976147
O O6 0.750000 0.250000 0.000000
O O7 0.826154 0.462534 0.836425
O O8 0.050734 0.344003 0.335436
O O9 0.927664 0.231054 0.602722
O O10 0.661738 0.142442 0.513824
O O11 0.733082 0.184794 0.690681
#
# Coordination Sequence:
#
# PCOD9273461 Si02
#       5
#     8   8   8   8   8
#     4   8  17  39  62  80 112 161 199 237 292 356
#     4  11  24  37  54  91 126 145 202 252 289 348
#     4  10  20  37  66  86 116 161 197 240 301 352
#     4   9  18  37  61  86 120 155 191 246 295 350
#     4   8  16  36  63  88 109 153 211 234 280 368
#
# _framework density 27.913900999999999
#
# number of rings (size 3 to 8) (size 9 to 14) (size 15 to 20)
#    0.000    2.800    0.000    3.000    2.800    0.800 
#    3.600    5.000    0.000    0.000    0.000    0.000 
#    0.000    0.000    0.000    0.000    0.000    0.000 
#
# Total GULP energy -111693.455958 kJ/mol
# GULP energy per Si atom -5584.672798 kJ/mol
# Density = 2.785037 g / cm^3
# Si number density = 27.913901 Si / 1000 Ang^3
#
#
#
# Elastic Constant Matrix: (Units=GPa)
#
#
# Indices 1 2 3 4 5 6 
#
# 1 200.5958 46.3863 29.3680 0.0000 -42.1303 0.0000
# 2 46.3863 120.6638 30.0930 0.0000 -20.6139 0.0000
# 3 29.3680 30.0930 64.3828 0.0000 -22.0352 0.0000
# 4 0.0000 0.0000 0.0000 31.2289 0.0000 -4.1642
# 5 -42.1303 -20.6139 -22.0352 0.0000 35.5538 0.0000
# 6 0.0000 0.0000 0.0000 -4.1642 0.0000 55.5048
#
#
#
# Elastic Compliance Matrix: (Units=1/GPa)
#
#
# Indices 1 2 3 4 5 6 
#
# 1 0.006838 -0.001387 0.000034 0.000000 0.007320 0.000000
# 2 -0.001387 0.010009 -0.003328 0.000000 0.002097 0.000000
# 3 0.000034 -0.003328 0.020848 0.000000 0.011032 0.000000
# 4 0.000000 0.000000 0.000000 0.032345 0.000000 0.002427
# 5 0.007320 0.002097 0.011032 0.000000 0.044854 0.000000
# 6 0.000000 0.000000 0.000000 0.002427 0.000000 0.018199
#
#
# Mechanical properties :
#
#
# Convention : Reuss Voigt Hill
#
# Bulk Modulus (GPa) = 35.29299 66.37078 50.83188
# Shear Modulus (GPa) = 32.91687 43.11052 38.01369
#
# Velocity S-wave (km/s) = 3.43772 3.93416 3.69429
# Velocity P-wave (km/s) = 5.33181 6.66824 6.03712
#
# Compressibility (1/GPa) = 0.02833424
#
# Stress axis : x y z
#
# Youngs Moduli (GPa) = 146.23573 99.91168 47.96718
#
# Poissons Ratio (x) = 0.13856 -0.00165
# Poissons Ratio (y) = 0.20280 0.15963
# Poissons Ratio (z) = -0.00503 0.33249
#
# Static dielectric constant tensor:
#      x y z
#    x 2.446000 0.000000 0.121200 
#    y 0.000000 2.183290 0.000000 
#    z 0.121200 0.000000 2.232640 
# 
# From -- ./inp_files/159931.got.cif
#   From: 2010.05.17/outbox.cif.g08.bks.cpg/sg15_80_cif.got.tgz:159931.got - 2010.06.03 18:47:42.
