data_PCOD9273330
_publ_section_title
;
Structure prediction by ZEFSAII (Michael W. Deem and Ramdas Pophale) SiO2 
 PCOD9273330
Probable space group: C 2/C
;
_chemical_formula_sum "Si O2"
_cell_formula_units_Z 56
_cell_length_a 29.214680
_cell_length_b 7.702375
_cell_length_c 12.644624
_cell_angle_alpha 90.000000
_cell_angle_beta 46.575373
_cell_angle_gamma 90.000000
_cell_volume 2066.499791
_symmetry_space_group_name_H-M "C 2/C"
_symmetry_group_IT_number 15
_symmetry_cell_setting 'monoclinic'
loop_
_space_group_symop_operation_xyz
x,y,z
-x,y,1/2-z
-x,-y,-z
x,-y,1/2+z
1/2+x,1/2+y,z
1/2-x,1/2+y,1/2-z
1/2-x,1/2-y,-z
1/2+x,1/2-y,1/2+z
loop_
_atom_site_type_symbol
_atom_site_label
_atom_site_fract_x
_atom_site_fract_y
_atom_site_fract_z
Si Si1 0.526146 0.328838 0.088516
Si Si2 0.070192 0.567414 0.652166
Si Si3 0.573965 0.706227 0.933758
Si Si4 0.820347 0.902262 0.369052
Si Si5 0.242587 0.091624 0.871926
Si Si6 0.377037 0.221576 0.720805
Si Si7 0.795610 0.492537 0.564265
O O1 0.500000 0.342228 0.250000
O O2 0.471752 0.264541 0.094303
O O3 0.548774 0.522547 0.019936
O O4 0.584752 0.215271 0.949922
O O5 0.076999 0.678859 0.534176
O O6 0.077872 0.669380 0.752160
O O7 0.132475 0.451312 0.560217
O O8 0.000000 0.494497 0.750000
O O9 0.640927 0.724719 0.766886
O O10 0.809207 0.948169 0.509534
O O11 0.854459 0.082093 0.277346
O O12 0.748321 0.911181 0.448352
O O13 0.311476 0.117431 0.817633
O O14 0.210463 0.282235 0.932680
O O15 0.262594 0.044194 0.724172
#
# Coordination Sequence:
#
# PCOD9273330 Si02
#       7
#     8   8   8   8   8   8   8
#     4  10  21  35  55  93 139 171 206 280 330 385
#     4  12  21  39  66  93 129 178 227 266 320 419
#     4  10  22  32  61 101 127 171 224 273 327 391
#     4  10  20  37  64  93 132 167 217 277 337 381
#     4  11  22  43  68  97 133 177 223 277 333 396
#     4  10  20  39  63  91 129 179 215 263 342 396
#     4  11  23  41  69  98 129 176 226 272 333 392
#
# _framework density 27.098963000000001
#
# number of rings (size 3 to 8) (size 9 to 14) (size 15 to 20)
#    0.000    1.429    4.286    2.143    4.000    2.286 
#    0.000    5.714    0.000    0.000    0.000    0.000 
#    0.000    0.000    0.000    0.000    0.000    0.000 
#
# Total GULP energy -156444.779198 kJ/mol
# GULP energy per Si atom -5587.313543 kJ/mol
# Density = 2.703728 g / cm^3
# Si number density = 27.098963 Si / 1000 Ang^3
#
#
#
# Elastic Constant Matrix: (Units=GPa)
#
#
# Indices 1 2 3 4 5 6 
#
# 1 119.5874 13.6874 50.0259 0.0000 -5.8410 0.0000
# 2 13.6874 74.5519 18.2065 0.0000 8.3880 0.0000
# 3 50.0259 18.2065 239.2051 0.0000 6.5289 0.0000
# 4 0.0000 0.0000 0.0000 12.1294 0.0000 10.3532
# 5 -5.8410 8.3880 6.5289 0.0000 59.7097 0.0000
# 6 0.0000 0.0000 0.0000 10.3532 0.0000 15.6283
#
#
#
# Elastic Compliance Matrix: (Units=1/GPa)
#
#
# Indices 1 2 3 4 5 6 
#
# 1 0.009379 -0.001409 -0.001890 0.000000 0.001322 0.000000
# 2 -0.001409 0.014077 -0.000721 0.000000 -0.002037 0.000000
# 3 -0.001890 -0.000721 0.004647 0.000000 -0.000592 0.000000
# 4 0.000000 0.000000 0.000000 0.189727 0.000000 -0.125687
# 5 0.001322 -0.002037 -0.000592 0.000000 0.017228 0.000000
# 6 0.000000 0.000000 0.000000 -0.125687 0.000000 0.147250
#
#
# Mechanical properties :
#
#
# Convention : Reuss Voigt Hill
#
# Bulk Modulus (GPa) = 49.84539 66.35377 58.09958
# Shear Modulus (GPa) = 12.59332 40.92178 26.75755
#
# Velocity S-wave (km/s) = 2.15807 3.89020 3.14570
# Velocity P-wave (km/s) = 4.96422 6.68708 5.88899
#
# Compressibility (1/GPa) = 0.02006204
#
# Stress axis : x y z
#
# Youngs Moduli (GPa) = 106.62514 71.03573 215.19863
#
# Poissons Ratio (x) = 0.10009 0.40678
# Poissons Ratio (y) = 0.15024 0.15520
# Poissons Ratio (z) = 0.20155 0.05123
#
# Static dielectric constant tensor:
#      x y z
#    x 2.214000 0.000000 0.018960 
#    y 0.000000 2.218970 0.000000 
#    z 0.018960 0.000000 2.106290 
# 
# From -- ./inp_files/122605.got.cif
#   From: 2010.05.17/outbox.cif.g08.bks.cpg/sg15_62_cif.got.tgz:122605.got - 2010.06.03 18:47:42.
