data_PCOD9273226
_publ_section_title
;
Structure prediction by ZEFSAII (Michael W. Deem and Ramdas Pophale) SiO2 
 PCOD9273226
Probable space group: C 2/C
;
_chemical_formula_sum "Si O2"
_cell_formula_units_Z 40
_cell_length_a 17.701025
_cell_length_b 19.898443
_cell_length_c 13.424199
_cell_angle_alpha 90.000000
_cell_angle_beta 156.213997
_cell_angle_gamma 90.000000
_cell_volume 1907.030117
_symmetry_space_group_name_H-M "C 2/C"
_symmetry_group_IT_number 15
_symmetry_cell_setting 'monoclinic'
loop_
_space_group_symop_operation_xyz
x,y,z
-x,y,1/2-z
-x,-y,-z
x,-y,1/2+z
1/2+x,1/2+y,z
1/2-x,1/2+y,1/2-z
1/2-x,1/2-y,-z
1/2+x,1/2-y,1/2+z
loop_
_atom_site_type_symbol
_atom_site_label
_atom_site_fract_x
_atom_site_fract_y
_atom_site_fract_z
Si Si1 0.685427 0.479858 0.847282
Si Si2 0.398001 0.697907 0.525796
Si Si3 0.091870 0.890942 0.099660
Si Si4 0.013180 0.344791 0.923219
Si Si5 0.448515 0.993797 0.822401
O O1 0.542045 0.422749 0.643962
O O2 0.619242 0.549905 0.716292
O O3 0.747897 0.484207 0.037560
O O4 0.881690 0.468054 0.026239
O O5 0.498864 0.668624 0.550331
O O6 0.423541 0.778299 0.558707
O O7 0.180560 0.676796 0.258805
O O8 0.500000 0.672362 0.750000
O O9 0.289303 0.868055 0.290582
O O10 0.956785 0.414827 0.803624
O O11 0.500000 0.000000 0.000000
#
# Coordination Sequence:
#
# PCOD9273226 Si02
#       5
#     8   8   8   8   8
#     4   9  20  37  61  87 127 164 200 267 315 372
#     4  12  23  34  58  91 127 170 206 260 321 383
#     4  10  21  39  57  89 127 162 202 252 319 377
#     4  11  23  36  58  90 128 160 210 258 320 386
#     4  10  20  37  63  93 120 162 214 263 317 378
#
# _framework density 20.975023
#
# number of rings (size 3 to 8) (size 9 to 14) (size 15 to 20)
#    0.000    1.600    2.000    3.000    5.600    0.000 
#    0.000   10.000    0.000    1.200    5.200    0.000 
#    0.000    0.000    0.000    0.000    0.000    0.000 
#
# Total GULP energy -111438.579446 kJ/mol
# GULP energy per Si atom -5571.928972 kJ/mol
# Density = 2.092728 g / cm^3
# Si number density = 20.975023 Si / 1000 Ang^3
#
#
#
# Elastic Constant Matrix: (Units=GPa)
#
#
# Indices 1 2 3 4 5 6 
#
# 1 66.2446 24.5906 56.9032 0.0000 -1.3683 0.0000
# 2 24.5906 84.7181 64.9524 0.0000 -2.1080 0.0000
# 3 56.9032 64.9524 179.2006 0.0000 -1.8596 0.0000
# 4 0.0000 0.0000 0.0000 25.8577 0.0000 15.0030
# 5 -1.3683 -2.1080 -1.8596 0.0000 50.8937 0.0000
# 6 0.0000 0.0000 0.0000 15.0030 0.0000 21.3671
#
#
#
# Elastic Compliance Matrix: (Units=1/GPa)
#
#
# Indices 1 2 3 4 5 6 
#
# 1 0.020873 -0.001346 -0.006137 0.000000 0.000281 0.000000
# 2 -0.001346 0.016444 -0.005528 0.000000 0.000443 0.000000
# 3 -0.006137 -0.005528 0.009532 0.000000 -0.000046 0.000000
# 4 0.000000 0.000000 0.000000 0.065260 0.000000 -0.045823
# 5 0.000281 0.000443 -0.000046 0.000000 0.019673 0.000000
# 6 0.000000 0.000000 0.000000 -0.045823 0.000000 0.078975
#
#
# Mechanical properties :
#
#
# Convention : Reuss Voigt Hill
#
# Bulk Modulus (GPa) = 48.01682 69.22841 58.62261
# Shear Modulus (GPa) = 20.51512 31.87151 26.19332
#
# Velocity S-wave (km/s) = 3.13081 3.90230 3.53765
# Velocity P-wave (km/s) = 6.00095 7.30621 6.68551
#
# Compressibility (1/GPa) = 0.02082604
#
# Stress axis : x y z
#
# Youngs Moduli (GPa) = 47.90926 60.81237 104.90664
#
# Poissons Ratio (x) = 0.08188 0.64381
# Poissons Ratio (y) = 0.06451 0.57993
# Poissons Ratio (z) = 0.29402 0.33618
#
# Static dielectric constant tensor:
#      x y z
#    x 1.940920 0.000000 -0.054140 
#    y 0.000000 1.756640 0.000000 
#    z -0.054140 0.000000 1.839210 
# 
# From -- ./inp_files/169498.got.cif
#   From: 2010.05.17/outbox.cif.g08.bks.cpg/sg15_85_cif.got.tgz:169498.got - 2010.06.03 18:47:42.
