data_PCOD9273434
_publ_section_title
;
Structure prediction by ZEFSAII (Michael W. Deem and Ramdas Pophale) SiO2 
 PCOD9273434
Probable space group: C 2/C
;
_chemical_formula_sum "Si O2"
_cell_formula_units_Z 60
_cell_length_a 27.850659
_cell_length_b 5.156405
_cell_length_c 19.204142
_cell_angle_alpha 90.000000
_cell_angle_beta 95.614490
_cell_angle_gamma 90.000000
_cell_volume 2744.662486
_symmetry_space_group_name_H-M "C 2/C"
_symmetry_group_IT_number 15
_symmetry_cell_setting 'monoclinic'
loop_
_space_group_symop_operation_xyz
x,y,z
-x,y,1/2-z
-x,-y,-z
x,-y,1/2+z
1/2+x,1/2+y,z
1/2-x,1/2+y,1/2-z
1/2-x,1/2-y,-z
1/2+x,1/2-y,1/2+z
loop_
_atom_site_type_symbol
_atom_site_label
_atom_site_fract_x
_atom_site_fract_y
_atom_site_fract_z
Si Si1 0.415588 0.345929 0.693594
Si Si2 0.663427 0.961840 0.835514
Si Si3 0.000000 0.471036 0.750000
Si Si4 0.490816 0.026729 0.401264
Si Si5 0.564965 0.495886 0.065990
Si Si6 0.634214 0.631234 0.695211
Si Si7 0.738892 0.404242 0.706333
Si Si8 0.086749 0.233249 0.923516
O O1 0.454972 0.134587 0.716210
O O2 0.404472 0.479305 0.764387
O O3 0.434150 0.538117 0.637682
O O4 0.363263 0.236070 0.664928
O O5 0.649288 0.849749 0.755583
O O6 0.720899 0.958346 0.846549
O O7 0.636911 0.811654 0.894160
O O8 0.981895 0.362938 0.821167
O O9 0.473052 0.261811 0.448030
O O10 0.548724 0.029415 0.421704
O O11 0.462119 0.755304 0.406674
O O12 0.606409 0.353155 0.118281
O O13 0.588225 0.596484 0.997680
O O14 0.683556 0.475907 0.686154
O O15 0.754845 0.607873 0.769037
#
# Coordination Sequence:
#
# PCOD9273434 Si02
#       8
#     8   8   4   8   8   8   8   8
#     4  11  21  40  63  92 126 162 214 257 320 359
#     4  10  21  40  65  95 122 168 209 269 317 371
#     4  12  22  38  66  96 122 158 208 274 300 368
#     4  12  26  41  65  90 129 165 213 253 315 368
#     4  12  27  43  62  92 130 171 209 252 311 380
#     4  10  22  39  64  96 125 161 214 266 316 373
#     4  10  20  37  65  95 125 155 208 270 323 369
#     4  11  26  40  62  89 131 172 208 253 310 387
#
# _framework density 21.860610999999999
#
# number of rings (size 3 to 8) (size 9 to 14) (size 15 to 20)
#    0.000    1.067    4.000    2.400    3.733    0.533 
#    0.000    0.667    0.000    0.800    0.000    0.000 
#    0.000    0.000    0.000    0.000    0.000    0.000 
#
# Total GULP energy -167236.662843 kJ/mol
# GULP energy per Si atom -5574.555428 kJ/mol
# Density = 2.181085 g / cm^3
# Si number density = 21.860611 Si / 1000 Ang^3
#
#
#
# Elastic Constant Matrix: (Units=GPa)
#
#
# Indices 1 2 3 4 5 6 
#
# 1 102.6414 20.3376 46.7295 0.0000 -16.0756 0.0000
# 2 20.3376 65.9036 5.1180 0.0000 -16.7338 0.0000
# 3 46.7295 5.1180 91.4625 0.0000 -29.7460 0.0000
# 4 0.0000 0.0000 0.0000 24.6253 0.0000 -10.5648
# 5 -16.0756 -16.7338 -29.7460 0.0000 25.0896 0.0000
# 6 0.0000 0.0000 0.0000 -10.5648 0.0000 34.0821
#
#
#
# Elastic Compliance Matrix: (Units=1/GPa)
#
#
# Indices 1 2 3 4 5 6 
#
# 1 0.013675 -0.004532 -0.007921 0.000000 -0.003652 0.000000
# 2 -0.004532 0.021154 0.007773 0.000000 0.020421 0.000000
# 3 -0.007921 0.007773 0.023731 0.000000 0.028245 0.000000
# 4 0.000000 0.000000 0.000000 0.046838 0.000000 0.014519
# 5 -0.003652 0.020421 0.028245 0.000000 0.084624 0.000000
# 6 0.000000 0.000000 0.000000 0.014519 0.000000 0.033842
#
#
# Mechanical properties :
#
#
# Convention : Reuss Voigt Hill
#
# Bulk Modulus (GPa) = 20.32495 44.93086 32.62790
# Shear Modulus (GPa) = 20.03024 29.28087 24.65556
#
# Velocity S-wave (km/s) = 3.03028 3.66380 3.36200
# Velocity P-wave (km/s) = 4.64340 6.20450 5.47983
#
# Compressibility (1/GPa) = 0.04920061
#
# Stress axis : x y z
#
# Youngs Moduli (GPa) = 73.12744 47.27311 42.13854
#
# Poissons Ratio (x) = 0.21424 0.33376
# Poissons Ratio (y) = 0.33142 -0.32755
# Poissons Ratio (z) = 0.57921 -0.36746
#
# Static dielectric constant tensor:
#      x y z
#    x 1.898190 0.000000 -0.020870 
#    y 0.000000 1.871230 0.000000 
#    z -0.020870 0.000000 1.848480 
# 
# From -- ./inp_files/221257.got.cif
#   From: 2010.05.17/outbox.cif.g08.bks.cpg/sg15_111_cif.got.tgz:221257.got - 2010.06.03 18:47:42.
