data_PCOD9273790
_publ_section_title
;
Structure prediction by ZEFSAII (Michael W. Deem and Ramdas Pophale) SiO2 
 PCOD9273790
Probable space group: C 2/C
;
_chemical_formula_sum "Si O2"
_cell_formula_units_Z 48
_cell_length_a 26.262215
_cell_length_b 10.240465
_cell_length_c 9.252641
_cell_angle_alpha 90.000000
_cell_angle_beta 88.672979
_cell_angle_gamma 90.000000
_cell_volume 2487.712842
_symmetry_space_group_name_H-M "C 2/C"
_symmetry_group_IT_number 15
_symmetry_cell_setting 'monoclinic'
loop_
_space_group_symop_operation_xyz
x,y,z
-x,y,1/2-z
-x,-y,-z
x,-y,1/2+z
1/2+x,1/2+y,z
1/2-x,1/2+y,1/2-z
1/2-x,1/2-y,-z
1/2+x,1/2-y,1/2+z
loop_
_atom_site_type_symbol
_atom_site_label
_atom_site_fract_x
_atom_site_fract_y
_atom_site_fract_z
Si Si1 0.363180 0.850520 0.303057
Si Si2 0.055225 0.140222 0.817742
Si Si3 0.210753 0.645493 0.442671
Si Si4 0.206958 0.654305 0.947503
Si Si5 0.945657 0.132082 0.330083
Si Si6 0.637060 0.849583 0.707630
O O1 0.342101 0.845843 0.466353
O O2 0.312975 0.820369 0.212041
O O3 0.407378 0.746352 0.287601
O O4 0.378515 0.999485 0.267402
O O5 0.095058 0.250913 0.767862
O O6 0.000000 0.169217 0.750000
O O7 0.071941 0.004910 0.739486
O O8 0.051192 0.125977 0.993559
O O9 0.250000 0.750000 0.500000
O O10 0.227087 0.494783 0.457058
O O11 0.191621 0.670213 0.282789
O O12 0.250000 0.750000 0.000000
O O13 0.154161 0.666511 0.041174
O O14 0.000000 0.156369 0.250000
#
# Coordination Sequence:
#
# PCOD9273790 Si02
#       6
#     8   8   8   8   8   8
#     4  10  22  40  61  89 123 160 201 249 301 357
#     4  11  24  42  64  92 123 158 201 252 305 364
#     4  10  20  38  59  84 123 159 200 251 297 352
#     4  10  22  36  59  90 121 159 204 247 297 356
#     4  11  24  42  64  92 123 158 201 252 305 364
#     4  10  22  40  61  89 123 160 201 249 301 357
#
# _framework density 19.294833000000001
#
# number of rings (size 3 to 8) (size 9 to 14) (size 15 to 20)
#    0.000    1.667    1.667    3.000    4.667    3.333 
#    0.000    1.667    0.000    0.000    0.000    0.000 
#    0.000    0.000    0.000    0.000    0.000    0.000 
#
# Total GULP energy -133842.928655 kJ/mol
# GULP energy per Si atom -5576.788694 kJ/mol
# Density = 1.925092 g / cm^3
# Si number density = 19.294833 Si / 1000 Ang^3
#
#
#
# Elastic Constant Matrix: (Units=GPa)
#
#
# Indices 1 2 3 4 5 6 
#
# 1 73.2085 94.1487 23.9256 0.0000 3.5813 0.0000
# 2 94.1487 142.0619 40.5209 0.0000 11.4911 0.0000
# 3 23.9256 40.5209 93.5451 0.0000 -4.1340 0.0000
# 4 0.0000 0.0000 0.0000 26.3147 0.0000 1.1788
# 5 3.5813 11.4911 -4.1340 0.0000 26.0637 0.0000
# 6 0.0000 0.0000 0.0000 1.1788 0.0000 51.3919
#
#
#
# Elastic Compliance Matrix: (Units=1/GPa)
#
#
# Indices 1 2 3 4 5 6 
#
# 1 0.100470 -0.069491 0.005185 0.000000 0.017655 0.000000
# 2 -0.069491 0.056561 -0.007460 0.000000 -0.016572 0.000000
# 3 0.005185 -0.007460 0.012799 0.000000 0.004606 0.000000
# 4 0.000000 0.000000 0.000000 0.038041 0.000000 -0.000873
# 5 0.017655 -0.016572 0.004606 0.000000 0.043979 0.000000
# 6 0.000000 0.000000 0.000000 -0.000873 0.000000 0.019478
#
#
# Mechanical properties :
#
#
# Convention : Reuss Voigt Hill
#
# Bulk Modulus (GPa) = 38.02549 69.55619 53.79084
# Shear Modulus (GPa) = 11.80289 30.76873 21.28581
#
# Velocity S-wave (km/s) = 2.47597 3.99765 3.32503
# Velocity P-wave (km/s) = 5.28434 7.57863 6.53299
#
# Compressibility (1/GPa) = 0.02629815
#
# Stress axis : x y z
#
# Youngs Moduli (GPa) = 9.95325 17.67990 78.13310
#
# Poissons Ratio (x) = 1.22860 -0.40513
# Poissons Ratio (y) = 0.69166 0.58284
# Poissons Ratio (z) = -0.05161 0.13188
#
# Static dielectric constant tensor:
#      x y z
#    x 1.650300 0.000000 0.003890 
#    y 0.000000 1.669080 0.000000 
#    z 0.003890 0.000000 1.681090 
# 
# From -- ./inp_files/26108.got.cif
#   From: 2010.05.17/outbox.cif.g08.bks.cpg/sg15_14_cif.got.tgz:26108.got - 2010.06.03 18:47:42.
