data_PCOD9273546
_publ_section_title
;
Structure prediction by ZEFSAII (Michael W. Deem and Ramdas Pophale) SiO2 
 PCOD9273546
Probable space group: C 2/C
;
_chemical_formula_sum "Si O2"
_cell_formula_units_Z 64
_cell_length_a 14.613445
_cell_length_b 11.273297
_cell_length_c 19.402376
_cell_angle_alpha 90.000000
_cell_angle_beta 79.658112
_cell_angle_gamma 90.000000
_cell_volume 3144.452296
_symmetry_space_group_name_H-M "C 2/C"
_symmetry_group_IT_number 15
_symmetry_cell_setting 'monoclinic'
loop_
_space_group_symop_operation_xyz
x,y,z
-x,y,1/2-z
-x,-y,-z
x,-y,1/2+z
1/2+x,1/2+y,z
1/2-x,1/2+y,1/2-z
1/2-x,1/2-y,-z
1/2+x,1/2-y,1/2+z
loop_
_atom_site_type_symbol
_atom_site_label
_atom_site_fract_x
_atom_site_fract_y
_atom_site_fract_z
Si Si1 0.335053 0.689645 0.109184
Si Si2 0.216737 0.904079 0.093833
Si Si3 0.806259 0.438931 0.464392
Si Si4 0.606663 0.217924 0.756176
Si Si5 0.801274 0.512228 0.319928
Si Si6 0.756329 0.609929 0.189419
Si Si7 0.856282 0.757160 0.057206
Si Si8 0.958466 0.886321 0.467160
O O1 0.245281 0.768874 0.102738
O O2 0.386441 0.759534 0.163165
O O3 0.300205 0.561167 0.141312
O O4 0.396286 0.677520 0.033441
O O5 0.240889 0.982369 0.157008
O O6 0.110248 0.917232 0.085602
O O7 0.276343 0.960851 0.022831
O O8 0.847652 0.495750 0.389159
O O9 0.867396 0.339245 0.494338
O O10 0.713294 0.362068 0.457932
O O11 0.500000 0.199007 0.750000
O O12 0.672314 0.111803 0.719621
O O13 0.655426 0.333423 0.716913
O O14 0.813667 0.601404 0.253331
O O15 0.807284 0.689963 0.126434
O O16 0.954695 0.807561 0.065608
O O17 0.000000 0.000000 0.500000
#
# Coordination Sequence:
#
# PCOD9273546 Si02
#       8
#     8   8   8   8   8   8   8   8
#     4  11  25  43  66  97 136 173 212 267 344 391
#     4  11  22  44  64  96 132 172 207 272 339 393
#     4  10  20  37  68  89 129 170 213 255 335 382
#     4  11  25  42  70  94 129 172 229 272 307 396
#     4  11  21  43  64  92 128 180 213 261 331 395
#     4  10  23  43  68  89 131 176 221 261 340 391
#     4  10  21  39  64  99 126 171 217 277 314 389
#     4  12  24  38  67 102 128 159 227 280 319 381
#
# _framework density 20.353304999999999
#
# number of rings (size 3 to 8) (size 9 to 14) (size 15 to 20)
#    0.000    1.250    5.000    0.375    3.500    0.000 
#    2.250    2.500    0.000    0.000    0.000    0.000 
#    0.000    0.000    0.000    0.000    0.000    0.000 
#
# Total GULP energy -178357.011663 kJ/mol
# GULP energy per Si atom -5573.656614 kJ/mol
# Density = 2.030698 g / cm^3
# Si number density = 20.353305 Si / 1000 Ang^3
#
#
#
# Elastic Constant Matrix: (Units=GPa)
#
#
# Indices 1 2 3 4 5 6 
#
# 1 67.7185 34.7347 14.9727 0.0000 10.7900 0.0000
# 2 34.7347 66.5047 16.9895 0.0000 -0.0911 0.0000
# 3 14.9727 16.9895 86.3823 0.0000 15.2916 0.0000
# 4 0.0000 0.0000 0.0000 19.7701 0.0000 6.0280
# 5 10.7900 -0.0911 15.2916 0.0000 26.7300 0.0000
# 6 0.0000 0.0000 0.0000 6.0280 0.0000 17.8682
#
#
#
# Elastic Compliance Matrix: (Units=1/GPa)
#
#
# Indices 1 2 3 4 5 6 
#
# 1 0.022132 -0.011580 0.000033 0.000000 -0.008993 0.000000
# 2 -0.011580 0.021992 -0.003515 0.000000 0.006760 0.000000
# 3 0.000033 -0.003515 0.013649 0.000000 -0.007833 0.000000
# 4 0.000000 0.000000 0.000000 0.056381 0.000000 -0.019021
# 5 -0.008993 0.006760 -0.007833 0.000000 0.045545 0.000000
# 6 0.000000 0.000000 0.000000 -0.019021 0.000000 0.062382
#
#
# Mechanical properties :
#
#
# Convention : Reuss Voigt Hill
#
# Bulk Modulus (GPa) = 36.16737 39.33326 37.75031
# Shear Modulus (GPa) = 19.12619 23.13424 21.13021
#
# Velocity S-wave (km/s) = 3.06879 3.37506 3.22556
# Velocity P-wave (km/s) = 5.51045 5.87837 5.69738
#
# Compressibility (1/GPa) = 0.02764924
#
# Stress axis : x y z
#
# Youngs Moduli (GPa) = 45.18275 45.47114 73.26715
#
# Poissons Ratio (x) = 0.52657 -0.00244
# Poissons Ratio (y) = 0.52323 0.25752
# Poissons Ratio (z) = -0.00150 0.15982
#
# Static dielectric constant tensor:
#      x y z
#    x 1.694640 0.000000 0.024940 
#    y 0.000000 1.749840 0.000000 
#    z 0.024940 0.000000 1.731330 
# 
# From -- ./inp_files/243701.got.cif
#   From: 2010.05.17/outbox.cif.g08.bks.cpg/sg15_122_cif.got.tgz:243701.got - 2010.06.03 18:47:42.
