data_PCOD9273632
_publ_section_title
;
Structure prediction by ZEFSAII (Michael W. Deem and Ramdas Pophale) SiO2 
 PCOD9273632
Probable space group: C 2/C
;
_chemical_formula_sum "Si O2"
_cell_formula_units_Z 36
_cell_length_a 13.614970
_cell_length_b 23.126635
_cell_length_c 7.855147
_cell_angle_alpha 90.000000
_cell_angle_beta 40.177211
_cell_angle_gamma 90.000000
_cell_volume 1595.683446
_symmetry_space_group_name_H-M "C 2/C"
_symmetry_group_IT_number 15
_symmetry_cell_setting 'monoclinic'
loop_
_space_group_symop_operation_xyz
x,y,z
-x,y,1/2-z
-x,-y,-z
x,-y,1/2+z
1/2+x,1/2+y,z
1/2-x,1/2+y,1/2-z
1/2-x,1/2-y,-z
1/2+x,1/2-y,1/2+z
loop_
_atom_site_type_symbol
_atom_site_label
_atom_site_fract_x
_atom_site_fract_y
_atom_site_fract_z
Si Si1 0.374908 0.079311 0.690077
Si Si2 0.978342 0.812898 0.984091
Si Si3 0.951691 0.937124 0.007981
Si Si4 0.500000 0.994685 0.750000
Si Si5 0.623384 0.200162 0.939243
O O1 0.369802 0.042209 0.870314
O O2 0.391890 0.147894 0.678208
O O3 0.503360 0.048773 0.405628
O O4 0.229891 0.068138 0.761882
O O5 0.013887 0.877571 0.005713
O O6 0.000000 0.812316 0.750000
O O7 0.081166 0.762632 0.923110
O O8 0.800291 0.800507 0.259221
O O9 0.000000 0.933027 0.750000
O O10 0.000000 0.000000 0.000000
O O11 0.500000 0.187322 0.250000
#
# Coordination Sequence:
#
# PCOD9273632 Si02
#       5
#     8   8   8   4   8
#     4  10  21  37  60  85 120 152 200 244 299 356
#     4  10  23  41  62  89 122 161 206 250 302 366
#     4  10  21  39  59  86 119 152 196 245 295 358
#     4  10  20  38  56  88 114 156 194 242 302 350
#     4  11  22  41  61  90 124 159 204 255 302 363
#
# _framework density 22.560865
#
# number of rings (size 3 to 8) (size 9 to 14) (size 15 to 20)
#    0.000    1.778    1.111    2.667    1.556    0.889 
#    8.000    0.000    0.000    0.000    0.000    0.000 
#    0.000    0.000    0.000    0.000    0.000    0.000 
#
# Total GULP energy -100271.414184 kJ/mol
# GULP energy per Si atom -5570.634121 kJ/mol
# Density = 2.250952 g / cm^3
# Si number density = 22.560865 Si / 1000 Ang^3
#
#
#
# Elastic Constant Matrix: (Units=GPa)
#
#
# Indices 1 2 3 4 5 6 
#
# 1 26.9933 57.2638 -6.2838 0.0000 -2.3161 0.0000
# 2 57.2638 258.8078 7.9207 0.0000 -17.4218 0.0000
# 3 -6.2838 7.9207 64.1448 0.0000 -4.9055 0.0000
# 4 0.0000 0.0000 0.0000 26.9029 0.0000 -3.3232
# 5 -2.3161 -17.4218 -4.9055 0.0000 23.3995 0.0000
# 6 0.0000 0.0000 0.0000 -3.3232 0.0000 46.5382
#
#
#
# Elastic Compliance Matrix: (Units=1/GPa)
#
#
# Indices 1 2 3 4 5 6 
#
# 1 0.075370 -0.017188 0.009246 0.000000 -0.003398 0.000000
# 2 -0.017188 0.007992 -0.002384 0.000000 0.003749 0.000000
# 3 0.009246 -0.002384 0.016997 0.000000 0.002703 0.000000
# 4 0.000000 0.000000 0.000000 0.037501 0.000000 0.002678
# 5 -0.003398 0.003749 0.002703 0.000000 0.045758 0.000000
# 6 0.000000 0.000000 0.000000 0.002678 0.000000 0.021679
#
#
# Mechanical properties :
#
#
# Convention : Reuss Voigt Hill
#
# Bulk Modulus (GPa) = 12.54602 51.97191 32.25897
# Shear Modulus (GPa) = 19.80058 38.77114 29.28586
#
# Velocity S-wave (km/s) = 2.96573 4.14999 3.60680
# Velocity P-wave (km/s) = 4.15938 6.78598 5.62806
#
# Compressibility (1/GPa) = 0.07970655
#
# Stress axis : x y z
#
# Youngs Moduli (GPa) = 13.26793 125.12126 58.83526
#
# Poissons Ratio (x) = 2.15059 -0.54399
# Poissons Ratio (y) = 0.22805 0.14026
# Poissons Ratio (z) = -0.12267 0.29828
#
# Static dielectric constant tensor:
#      x y z
#    x 1.857080 0.000000 0.054470 
#    y 0.000000 1.887010 0.000000 
#    z 0.054470 0.000000 1.934540 
# 
# From -- ./inp_files/29428.got.cif
#   From: 2010.05.17/outbox.cif.g08.bks.cpg/sg15_15_cif.got.tgz:29428.got - 2010.06.03 18:47:42.
