data_PCOD9273775
_publ_section_title
;
Structure prediction by ZEFSAII (Michael W. Deem and Ramdas Pophale) SiO2 
 PCOD9273775
Probable space group: C 2/C
;
_chemical_formula_sum "Si O2"
_cell_formula_units_Z 56
_cell_length_a 7.587128
_cell_length_b 23.280289
_cell_length_c 15.822275
_cell_angle_alpha 90.000000
_cell_angle_beta 122.690678
_cell_angle_gamma 90.000000
_cell_volume 2352.013153
_symmetry_space_group_name_H-M "C 2/C"
_symmetry_group_IT_number 15
_symmetry_cell_setting 'monoclinic'
loop_
_space_group_symop_operation_xyz
x,y,z
-x,y,1/2-z
-x,-y,-z
x,-y,1/2+z
1/2+x,1/2+y,z
1/2-x,1/2+y,1/2-z
1/2-x,1/2-y,-z
1/2+x,1/2-y,1/2+z
loop_
_atom_site_type_symbol
_atom_site_label
_atom_site_fract_x
_atom_site_fract_y
_atom_site_fract_z
Si Si1 0.247193 0.933582 0.672868
Si Si2 0.710159 0.323753 0.762506
Si Si3 0.118008 0.125066 0.963971
Si Si4 0.911710 0.225300 0.428946
Si Si5 0.154808 0.331125 0.523431
Si Si6 0.830867 0.944386 0.282065
Si Si7 0.465018 0.059975 0.942601
O O1 0.500000 0.933190 0.750000
O O2 0.170971 0.889247 0.724528
O O3 0.169130 0.908210 0.564241
O O4 0.162529 0.997095 0.663835
O O5 0.500000 0.298551 0.750000
O O6 0.753515 0.291228 0.686560
O O7 0.866050 0.324422 0.880749
O O8 0.292089 0.098045 0.947239
O O9 0.128728 0.191989 0.993684
O O10 0.901032 0.107482 0.861285
O O11 0.967265 0.292030 0.439999
O O12 0.129635 0.195440 0.454650
O O13 0.160303 0.397638 0.500216
O O14 0.612589 0.944404 0.173910
O O15 0.000000 0.948325 0.250000
O O16 0.500000 0.000000 0.000000
#
# Coordination Sequence:
#
# PCOD9273775 Si02
#       7
#     8   8   8   8   8   8   8
#     4  11  20  33  55  83 110 143 191 233 269 322
#     4   9  18  34  55  78 109 148 184 224 278 334
#     4  10  22  38  56  82 113 146 189 232 278 334
#     4   9  21  37  58  85 111 147 190 230 278 332
#     4  10  20  38  59  82 114 148 186 233 278 330
#     4  10  22  37  53  77 114 152 181 223 285 340
#     4  11  23  39  58  83 114 149 188 230 282 337
#
# _framework density 23.809388999999999
#
# number of rings (size 3 to 8) (size 9 to 14) (size 15 to 20)
#    0.000    2.000    0.000    3.429    0.000    9.714 
#    0.000    1.429    0.000    0.857    0.000    0.000 
#    0.000    0.000    0.000    0.000    0.000    0.000 
#
# Total GULP energy -156346.238199 kJ/mol
# GULP energy per Si atom -5583.794221 kJ/mol
# Density = 2.375520 g / cm^3
# Si number density = 23.809389 Si / 1000 Ang^3
#
#
#
# Elastic Constant Matrix: (Units=GPa)
#
#
# Indices 1 2 3 4 5 6 
#
# 1 46.4505 9.7911 12.5318 0.0000 -3.0245 0.0000
# 2 9.7911 119.0395 21.5947 0.0000 7.2610 0.0000
# 3 12.5318 21.5947 90.9433 0.0000 11.2595 0.0000
# 4 0.0000 0.0000 0.0000 11.3195 0.0000 2.3231
# 5 -3.0245 7.2610 11.2595 0.0000 25.4278 0.0000
# 6 0.0000 0.0000 0.0000 2.3231 0.0000 25.5525
#
#
#
# Elastic Compliance Matrix: (Units=1/GPa)
#
#
# Indices 1 2 3 4 5 6 
#
# 1 0.023079 -0.001570 -0.003389 0.000000 0.004694 0.000000
# 2 -0.001570 0.008954 -0.001661 0.000000 -0.002008 0.000000
# 3 -0.003389 -0.001661 0.012536 0.000000 -0.005480 0.000000
# 4 0.000000 0.000000 0.000000 0.090023 0.000000 -0.008184
# 5 0.004694 -0.002008 -0.005480 0.000000 0.042885 0.000000
# 6 0.000000 0.000000 0.000000 -0.008184 0.000000 0.039879
#
#
# Mechanical properties :
#
#
# Convention : Reuss Voigt Hill
#
# Bulk Modulus (GPa) = 31.91929 38.25206 35.08568
# Shear Modulus (GPa) = 20.74367 26.62767 23.68567
#
# Velocity S-wave (km/s) = 2.95488 3.34783 3.15747
# Velocity P-wave (km/s) = 5.00770 5.57178 5.29725
#
# Compressibility (1/GPa) = 0.03132902
#
# Stress axis : x y z
#
# Youngs Moduli (GPa) = 43.32933 111.68810 79.77247
#
# Poissons Ratio (x) = 0.17533 0.27032
# Poissons Ratio (y) = 0.06802 0.13251
# Poissons Ratio (z) = 0.14683 0.18553
#
# Static dielectric constant tensor:
#      x y z
#    x 2.030830 0.000000 0.057870 
#    y 0.000000 1.898520 0.000000 
#    z 0.057870 0.000000 1.945090 
# 
# From -- ./inp_files/137980.got.cif
#   From: 2010.05.17/outbox.cif.g08.bks.cpg/sg15_69_cif.got.tgz:137980.got - 2010.06.03 18:47:42.
