data_PCOD9273093
_publ_section_title
;
Structure prediction by ZEFSAII (Michael W. Deem and Ramdas Pophale) SiO2 
 PCOD9273093
Probable space group: C 2/C
;
_chemical_formula_sum "Si O2"
_cell_formula_units_Z 56
_cell_length_a 18.218754
_cell_length_b 14.703041
_cell_length_c 11.462593
_cell_angle_alpha 90.000000
_cell_angle_beta 121.792174
_cell_angle_gamma 90.000000
_cell_volume 2609.814154
_symmetry_space_group_name_H-M "C 2/C"
_symmetry_group_IT_number 15
_symmetry_cell_setting 'monoclinic'
loop_
_space_group_symop_operation_xyz
x,y,z
-x,y,1/2-z
-x,-y,-z
x,-y,1/2+z
1/2+x,1/2+y,z
1/2-x,1/2+y,1/2-z
1/2-x,1/2-y,-z
1/2+x,1/2-y,1/2+z
loop_
_atom_site_type_symbol
_atom_site_label
_atom_site_fract_x
_atom_site_fract_y
_atom_site_fract_z
Si Si1 0.709568 0.882733 0.488480
Si Si2 0.909483 0.874217 0.657288
Si Si3 0.130697 0.285480 0.214064
Si Si4 0.116001 0.239738 0.584172
Si Si5 0.747303 0.216188 0.367449
Si Si6 0.125989 0.437434 0.818882
Si Si7 0.523876 0.130572 0.446379
O O1 0.809930 0.904399 0.601919
O O2 0.702991 0.822807 0.364150
O O3 0.659764 0.822515 0.544114
O O4 0.655167 0.971713 0.408623
O O5 0.920904 0.784414 0.748417
O O6 0.903087 0.841366 0.518776
O O7 0.000000 0.927870 0.750000
O O8 0.167331 0.228293 0.136566
O O9 0.079384 0.368753 0.111884
O O10 0.181225 0.219370 0.742239
O O11 0.031470 0.279022 0.576089
O O12 0.750000 0.250000 0.500000
O O13 0.707670 0.115008 0.333695
O O14 0.087387 0.373444 0.889446
O O15 0.050573 0.440230 0.657573
#
# Coordination Sequence:
#
# PCOD9273093 Si02
#       7
#     8   8   8   8   8   8   8
#     4  11  23  38  58  91 128 168 204 254 332 384
#     4  11  20  38  65  92 118 160 224 269 308 367
#     4  11  20  37  63  88 121 165 211 263 316 374
#     4  10  20  37  62  91 127 160 212 264 317 379
#     4  11  20  38  60  86 119 169 212 254 312 382
#     4  10  24  37  56  91 135 163 202 253 322 403
#     4  10  21  37  56  93 127 161 202 253 321 367
#
# _framework density 21.457467999999999
#
# number of rings (size 3 to 8) (size 9 to 14) (size 15 to 20)
#    0.000    1.429    5.714    0.857    0.000    5.714 
#    0.000    0.000    0.000    4.286    0.000    0.000 
#    0.000    0.000    0.000    0.000    0.000    0.000 
#
# Total GULP energy -155924.052123 kJ/mol
# GULP energy per Si atom -5568.716147 kJ/mol
# Density = 2.140863 g / cm^3
# Si number density = 21.457468 Si / 1000 Ang^3
#
#
#
# Elastic Constant Matrix: (Units=GPa)
#
#
# Indices 1 2 3 4 5 6 
#
# 1 99.6173 18.2411 28.7585 0.0000 2.9558 0.0000
# 2 18.2411 27.9584 13.1387 0.0000 -3.6850 0.0000
# 3 28.7585 13.1387 147.9508 0.0000 0.6155 0.0000
# 4 0.0000 0.0000 0.0000 19.1205 0.0000 3.9322
# 5 2.9558 -3.6850 0.6155 0.0000 44.9095 0.0000
# 6 0.0000 0.0000 0.0000 3.9322 0.0000 9.1698
#
#
#
# Elastic Compliance Matrix: (Units=1/GPa)
#
#
# Indices 1 2 3 4 5 6 
#
# 1 0.011866 -0.007136 -0.001667 0.000000 -0.001344 0.000000
# 2 -0.007136 0.042055 -0.002364 0.000000 0.003953 0.000000
# 3 -0.001667 -0.002364 0.007294 0.000000 -0.000184 0.000000
# 4 0.000000 0.000000 0.000000 0.057358 0.000000 -0.024596
# 5 -0.001344 0.003953 -0.000184 0.000000 0.022682 0.000000
# 6 0.000000 0.000000 0.000000 -0.024596 0.000000 0.119601
#
#
# Mechanical properties :
#
#
# Convention : Reuss Voigt Hill
#
# Bulk Modulus (GPa) = 25.71945 43.97813 34.84879
# Shear Modulus (GPa) = 16.88331 28.99918 22.94125
#
# Velocity S-wave (km/s) = 2.80809 3.68023 3.27333
# Velocity P-wave (km/s) = 4.74616 6.21279 5.52833
#
# Compressibility (1/GPa) = 0.03888107
#
# Stress axis : x y z
#
# Youngs Moduli (GPa) = 84.27277 23.77838 137.10275
#
# Poissons Ratio (x) = 0.16967 0.22859
# Poissons Ratio (y) = 0.60133 0.32413
# Poissons Ratio (z) = 0.14051 0.05622
#
# Static dielectric constant tensor:
#      x y z
#    x 1.857440 0.000000 0.079820 
#    y 0.000000 1.795960 0.000000 
#    z 0.079820 0.000000 1.847100 
# 
# From -- ./inp_files/106467.got.cif
#   From: 2010.05.17/outbox.cif.g08.bks.cpg/sg15_54_cif.got.tgz:106467.got - 2010.06.03 18:47:42.
