data_PCOD9273965
_publ_section_title
;
Structure prediction by ZEFSAII (Michael W. Deem and Ramdas Pophale) SiO2 
 PCOD9273965
Probable space group: C 2/C
;
_chemical_formula_sum "Si O2"
_cell_formula_units_Z 48
_cell_length_a 11.954595
_cell_length_b 21.505729
_cell_length_c 16.453526
_cell_angle_alpha 90.000000
_cell_angle_beta 32.309043
_cell_angle_gamma 90.000000
_cell_volume 2260.914554
_symmetry_space_group_name_H-M "C 2/C"
_symmetry_group_IT_number 15
_symmetry_cell_setting 'monoclinic'
loop_
_space_group_symop_operation_xyz
x,y,z
-x,y,1/2-z
-x,-y,-z
x,-y,1/2+z
1/2+x,1/2+y,z
1/2-x,1/2+y,1/2-z
1/2-x,1/2-y,-z
1/2+x,1/2-y,1/2+z
loop_
_atom_site_type_symbol
_atom_site_label
_atom_site_fract_x
_atom_site_fract_y
_atom_site_fract_z
Si Si1 0.867128 0.521291 0.960537
Si Si2 0.617371 0.453665 0.989341
Si Si3 0.494614 0.675230 0.012924
Si Si4 0.359282 0.800856 0.156832
Si Si5 0.318182 0.655583 0.423997
Si Si6 0.764689 0.431297 0.170423
O O1 0.811400 0.488818 0.910538
O O2 0.725878 0.582312 0.060985
O O3 0.827542 0.472520 0.056373
O O4 0.099743 0.546920 0.834041
O O5 0.630450 0.386254 0.938853
O O6 0.470449 0.441304 0.157938
O O7 0.500000 0.500000 0.000000
O O8 0.681389 0.691485 0.834996
O O9 0.352272 0.735494 0.115533
O O10 0.601937 0.662264 0.033678
O O11 0.320394 0.859670 0.122360
O O12 0.596557 0.809747 0.045580
O O13 0.500000 0.676570 0.250000
#
# Coordination Sequence:
#
# PCOD9273965 Si02
#       6
#     8   8   8   8   8   8
#     4  10  20  38  60  91 119 156 197 243 307 358
#     4  11  21  36  60  90 121 152 195 247 305 354
#     4  11  22  38  57  84 120 158 199 251 296 361
#     4  10  22  38  56  81 118 160 201 243 299 354
#     4  11  20  33  60  88 118 154 198 251 305 362
#     4   9  21  38  61  85 121 155 195 249 292 362
#
# _framework density 21.230346000000001
#
# number of rings (size 3 to 8) (size 9 to 14) (size 15 to 20)
#    0.000    1.667    1.667    3.500    0.000    0.667 
#    3.000    0.833    0.000    0.000    0.000    0.000 
#    0.000    0.000    0.000    0.000    0.000    0.000 
#
# Total GULP energy -134079.817653 kJ/mol
# GULP energy per Si atom -5586.659069 kJ/mol
# Density = 2.118203 g / cm^3
# Si number density = 21.230346 Si / 1000 Ang^3
#
#
#
# Elastic Constant Matrix: (Units=GPa)
#
#
# Indices 1 2 3 4 5 6 
#
# 1 68.8289 44.0701 12.1954 0.0254 -1.1824 -0.0094
# 2 44.0701 130.7887 13.3293 -0.0034 11.9044 -0.0029
# 3 12.1954 13.3293 55.4109 -0.0432 3.8634 -0.0102
# 4 0.0254 -0.0034 -0.0432 11.0941 -0.0087 5.6556
# 5 -1.1824 11.9044 3.8634 -0.0087 23.1329 0.0121
# 6 -0.0094 -0.0029 -0.0102 5.6556 0.0121 29.2587
#
#
#
# Elastic Compliance Matrix: (Units=1/GPa)
#
#
# Indices 1 2 3 4 5 6 
#
# 1 0.019431 -0.006690 -0.003012 -0.000062 0.004939 0.000014
# 2 -0.006690 0.010479 -0.000656 0.000012 -0.005625 -0.000001
# 3 -0.003012 -0.000656 0.019077 0.000083 -0.003002 -0.000009
# 4 -0.000062 0.000012 0.000083 0.099991 0.000024 -0.019328
# 5 0.004939 -0.005625 -0.003002 0.000024 0.046877 -0.000024
# 6 0.000014 -0.000001 -0.000009 -0.019328 -0.000024 0.037914
#
#
# Mechanical properties :
#
#
# Convention : Reuss Voigt Hill
#
# Bulk Modulus (GPa) = 35.37150 43.80200 39.58675
# Shear Modulus (GPa) = 18.94600 25.05940 22.00270
#
# Velocity S-wave (km/s) = 2.99055 3.43936 3.22278
# Velocity P-wave (km/s) = 5.34991 6.03729 5.70396
#
# Compressibility (1/GPa) = 0.02827135
#
# Stress axis : x y z
#
# Youngs Moduli (GPa) = 51.46498 95.42926 52.41897
#
# Poissons Ratio (x) = 0.63841 0.15787
# Poissons Ratio (y) = 0.34429 0.03440
# Poissons Ratio (z) = 0.15499 0.06262
#
# Static dielectric constant tensor:
#      x y z
#    x 1.782910 0.000000 -0.029000 
#    y 0.000000 1.791220 0.000000 
#    z -0.029000 0.000000 1.782340 
# 
# From -- ./inp_files/57970.got.cif
#   From: 2010.05.17/outbox.cif.g08.bks.cpg/sg15_29_cif.got.tgz:57970.got - 2010.06.03 18:47:42.
