data_PCOD9273607
_publ_section_title
;
Structure prediction by ZEFSAII (Michael W. Deem and Ramdas Pophale) SiO2 
 PCOD9273607
Probable space group: C 2/C
;
_chemical_formula_sum "Si O2"
_cell_formula_units_Z 64
_cell_length_a 10.049530
_cell_length_b 28.319471
_cell_length_c 23.992020
_cell_angle_alpha 90.000000
_cell_angle_beta 152.663311
_cell_angle_gamma 90.000000
_cell_volume 3135.574039
_symmetry_space_group_name_H-M "C 2/C"
_symmetry_group_IT_number 15
_symmetry_cell_setting 'monoclinic'
loop_
_space_group_symop_operation_xyz
x,y,z
-x,y,1/2-z
-x,-y,-z
x,-y,1/2+z
1/2+x,1/2+y,z
1/2-x,1/2+y,1/2-z
1/2-x,1/2-y,-z
1/2+x,1/2-y,1/2+z
loop_
_atom_site_type_symbol
_atom_site_label
_atom_site_fract_x
_atom_site_fract_y
_atom_site_fract_z
Si Si1 0.348578 0.552390 0.884061
Si Si2 0.307407 0.640759 0.033757
Si Si3 0.149268 0.946845 0.618475
Si Si4 0.091228 0.756575 0.119387
Si Si5 0.226596 0.229678 0.186860
Si Si6 0.079299 0.849640 0.432506
Si Si7 0.190643 0.661560 0.113282
Si Si8 0.270737 0.664340 0.705885
O O1 0.419691 0.500162 0.887118
O O2 0.474212 0.597742 0.900185
O O3 0.000000 0.555712 0.750000
O O4 0.498706 0.555511 0.001187
O O5 0.512000 0.595998 0.101692
O O6 0.488333 0.688910 0.092473
O O7 0.161807 0.641703 0.040803
O O8 0.024673 0.638141 0.889430
O O9 0.500000 0.942008 0.750000
O O10 0.218992 0.738121 0.226420
O O11 0.196473 0.718572 0.113903
O O12 0.092526 0.810166 0.094953
O O13 0.750000 0.750000 0.000000
O O14 0.500000 0.214502 0.250000
O O15 0.174415 0.283838 0.147821
O O16 0.427237 0.849824 0.557436
O O17 0.969201 0.828864 0.333201
O O18 0.500000 0.644672 0.250000
O O19 0.500000 0.640555 0.750000
#
# Coordination Sequence:
#
# PCOD9273607 Si02
#       8
#     8   8   8   8   8   8   8   8
#     4  10  22  45  67  91 117 155 205 260 307 364
#     4  12  22  37  59  87 121 159 195 245 304 366
#     4  10  24  42  66  93 122 151 200 265 316 352
#     4   9  20  36  53  80 119 162 195 237 293 355
#     4  10  21  35  54  83 118 159 203 245 291 352
#     4  10  21  39  65  83 114 163 203 246 295 364
#     4  11  22  36  56  85 126 158 191 238 299 363
#     4  10  20  38  55  83 120 156 197 241 291 347
#
# _framework density 20.410937000000001
#
# number of rings (size 3 to 8) (size 9 to 14) (size 15 to 20)
#    0.000    1.750    2.500    1.500    3.500    2.500 
#    2.250    0.625    0.000    0.000    0.000    0.000 
#    0.000    0.000    0.000    0.000    0.000    0.000 
#
# Total GULP energy -178145.929443 kJ/mol
# GULP energy per Si atom -5567.060295 kJ/mol
# Density = 2.036448 g / cm^3
# Si number density = 20.410937 Si / 1000 Ang^3
#
#
#
# Elastic Constant Matrix: (Units=GPa)
#
#
# Indices 1 2 3 4 5 6 
#
# 1 40.3263 31.5787 17.1909 0.0002 11.3027 0.0001
# 2 31.5787 116.0091 36.8978 0.0011 27.9763 -0.0006
# 3 17.1909 36.8978 122.2101 -0.0009 15.3607 0.0055
# 4 0.0002 0.0011 -0.0009 28.5610 -0.0023 6.1056
# 5 11.3027 27.9763 15.3607 -0.0023 27.4911 0.0003
# 6 0.0001 -0.0006 0.0055 6.1056 0.0003 22.6378
#
#
#
# Elastic Compliance Matrix: (Units=1/GPa)
#
#
# Indices 1 2 3 4 5 6 
#
# 1 0.032528 -0.007023 -0.001799 0.000000 -0.005221 0.000000
# 2 -0.007023 0.013484 -0.001851 -0.000002 -0.009800 0.000001
# 3 -0.001799 -0.001851 0.009319 0.000001 -0.002584 -0.000002
# 4 0.000000 -0.000002 0.000001 0.037155 0.000005 -0.010021
# 5 -0.005221 -0.009800 -0.002584 0.000005 0.049939 -0.000002
# 6 0.000000 0.000001 -0.000002 -0.010021 -0.000002 0.046877
#
#
# Mechanical properties :
#
#
# Convention : Reuss Voigt Hill
#
# Bulk Modulus (GPa) = 29.42535 49.98669 39.70602
# Shear Modulus (GPa) = 22.52498 28.59652 25.56075
#
# Velocity S-wave (km/s) = 3.32561 3.74711 3.54263
# Velocity P-wave (km/s) = 5.40315 6.57757 6.01907
#
# Compressibility (1/GPa) = 0.03398431
#
# Stress axis : x y z
#
# Youngs Moduli (GPa) = 30.74316 74.16237 107.30333
#
# Poissons Ratio (x) = 0.52084 0.19303
# Poissons Ratio (y) = 0.21591 0.19866
# Poissons Ratio (z) = 0.05530 0.13730
#
# Static dielectric constant tensor:
#      x y z
#    x 1.865790 0.000010 -0.034440 
#    y 0.000010 1.802020 -0.000010 
#    z -0.034440 -0.000010 1.812500 
# 
# From -- ./inp_files/266744.got.cif
#   From: 2010.05.17/outbox.cif.g08.bks.cpg/sg15_134_cif.got.tgz:266744.got - 2010.06.03 18:47:42.
