data_PCOD9273232
_publ_section_title
;
Structure prediction by ZEFSAII (Michael W. Deem and Ramdas Pophale) SiO2 
 PCOD9273232
Probable space group: C 2/C
;
_chemical_formula_sum "Si O2"
_cell_formula_units_Z 48
_cell_length_a 10.933626
_cell_length_b 26.466382
_cell_length_c 10.869875
_cell_angle_alpha 90.000000
_cell_angle_beta 128.918481
_cell_angle_gamma 90.000000
_cell_volume 2447.290791
_symmetry_space_group_name_H-M "C 2/C"
_symmetry_group_IT_number 15
_symmetry_cell_setting 'monoclinic'
loop_
_space_group_symop_operation_xyz
x,y,z
-x,y,1/2-z
-x,-y,-z
x,-y,1/2+z
1/2+x,1/2+y,z
1/2-x,1/2+y,1/2-z
1/2-x,1/2-y,-z
1/2+x,1/2-y,1/2+z
loop_
_atom_site_type_symbol
_atom_site_label
_atom_site_fract_x
_atom_site_fract_y
_atom_site_fract_z
Si Si1 0.679385 0.192446 0.321816
Si Si2 0.500000 0.531324 0.750000
Si Si3 0.270232 0.095961 0.784959
Si Si4 0.000000 0.467466 0.750000
Si Si5 0.624357 0.899197 0.621372
Si Si6 0.818337 0.193895 0.663543
Si Si7 0.258886 0.460021 0.492302
O O1 0.500000 0.196775 0.250000
O O2 0.678899 0.155627 0.204898
O O3 0.754883 0.171375 0.494649
O O4 0.744490 0.249611 0.348467
O O5 0.640810 0.565202 0.783248
O O6 0.414562 0.494027 0.599064
O O7 0.216599 0.154196 0.752731
O O8 0.262780 0.070667 0.646918
O O9 0.448318 0.098026 0.951153
O O10 0.890271 0.433319 0.765945
O O11 0.890117 0.502246 0.596806
O O12 0.742835 0.923290 0.598701
O O13 0.000000 0.198520 0.750000
#
# Coordination Sequence:
#
# PCOD9273232 Si02
#       7
#     8   4   8   4   8   8   8
#     4  10  20  37  63  94 119 155 205 256 302 365
#     4  12  26  42  59  92 125 168 208 258 306 350
#     4  12  22  41  63  93 123 164 207 254 309 364
#     4  12  20  38  63  88 117 166 210 250 286 364
#     4  12  22  40  67  91 120 167 212 247 305 370
#     4  10  21  37  62  95 124 149 202 263 308 351
#     4  12  26  40  60  91 130 162 206 256 305 368
#
# _framework density 19.613526
#
# number of rings (size 3 to 8) (size 9 to 14) (size 15 to 20)
#    0.000    0.667    6.667    2.000    0.000    1.333 
#    0.000    0.833    0.000    0.000    0.000    0.000 
#    0.000    0.000    0.000    0.000    0.000    0.000 
#
# Total GULP energy -133929.283489 kJ/mol
# GULP energy per Si atom -5580.386812 kJ/mol
# Density = 1.956888 g / cm^3
# Si number density = 19.613526 Si / 1000 Ang^3
#
#
#
# Elastic Constant Matrix: (Units=GPa)
#
#
# Indices 1 2 3 4 5 6 
#
# 1 49.5524 26.4261 9.0378 0.0000 -14.0885 0.0000
# 2 26.4261 115.3769 30.3389 0.0000 -20.6596 0.0000
# 3 9.0378 30.3389 82.8514 0.0000 -0.2146 0.0000
# 4 0.0000 0.0000 0.0000 35.0185 0.0000 -0.1331
# 5 -14.0885 -20.6596 -0.2146 0.0000 32.0591 0.0000
# 6 0.0000 0.0000 0.0000 -0.1331 0.0000 -17.8501
#
#
#
# Elastic Compliance Matrix: (Units=1/GPa)
#
#
# Indices 1 2 3 4 5 6 
#
# 1 0.024866 -0.003847 -0.001282 0.000000 0.008440 0.000000
# 2 -0.003847 0.011578 -0.003805 0.000000 0.005745 0.000000
# 3 -0.001282 -0.003805 0.013595 0.000000 -0.002924 0.000000
# 4 0.000000 0.000000 0.000000 0.028555 0.000000 -0.000213
# 5 0.008440 0.005745 -0.002924 0.000000 0.038584 0.000000
# 6 0.000000 0.000000 0.000000 -0.000213 0.000000 -0.056020
#
#
# Mechanical properties :
#
#
# Convention : Reuss Voigt Hill
#
# Bulk Modulus (GPa) = 31.08404 42.15403 36.61903
# Shear Modulus (GPa) = 55.71104 21.97735 38.84419
#
# Velocity S-wave (km/s) = 5.33536 3.35105 4.45509
# Velocity P-wave (km/s) = 7.33740 6.04249 6.72120
#
# Compressibility (1/GPa) = 0.03217085
#
# Stress axis : x y z
#
# Youngs Moduli (GPa) = 40.21625 86.37382 73.55430
#
# Poissons Ratio (x) = 0.33227 0.09429
# Poissons Ratio (y) = 0.15471 0.27988
# Poissons Ratio (z) = 0.05155 0.32865
#
# Static dielectric constant tensor:
#      x y z
#    x 1.636910 0.000000 -0.015260 
#    y 0.000000 1.760310 0.000000 
#    z -0.015260 0.000000 1.664970 
# 
# From -- ./inp_files/33850.got.cif
#   From: 2010.05.17/outbox.cif.g08.bks.cpg/sg15_17_cif.got.tgz:33850.got - 2010.06.03 18:47:42.
