data_PCOD9273345
_publ_section_title
;
Structure prediction by ZEFSAII (Michael W. Deem and Ramdas Pophale) SiO2 
 PCOD9273345
Probable space group: C 2/C
;
_chemical_formula_sum "Si O2"
_cell_formula_units_Z 32
_cell_length_a 13.964183
_cell_length_b 5.015876
_cell_length_c 21.718728
_cell_angle_alpha 90.000000
_cell_angle_beta 137.057778
_cell_angle_gamma 90.000000
_cell_volume 1036.358279
_symmetry_space_group_name_H-M "C 2/C"
_symmetry_group_IT_number 15
_symmetry_cell_setting 'monoclinic'
loop_
_space_group_symop_operation_xyz
x,y,z
-x,y,1/2-z
-x,-y,-z
x,-y,1/2+z
1/2+x,1/2+y,z
1/2-x,1/2+y,1/2-z
1/2-x,1/2-y,-z
1/2+x,1/2-y,1/2+z
loop_
_atom_site_type_symbol
_atom_site_label
_atom_site_fract_x
_atom_site_fract_y
_atom_site_fract_z
Si Si1 0.924238 0.925831 0.096614
Si Si2 0.838552 0.382890 0.152530
Si Si3 0.526269 0.099839 0.943543
Si Si4 0.221829 0.896959 0.305326
O O1 0.914885 0.100415 0.029335
O O2 0.853017 0.154191 0.105912
O O3 0.892726 0.622807 0.059594
O O4 0.076332 0.877767 0.200167
O O5 0.790335 0.687850 0.142871
O O6 0.000000 0.402178 0.250000
O O7 0.760066 0.201607 0.165289
O O8 0.370068 0.151997 0.842351
O O9 0.500000 0.000000 0.000000
#
# Coordination Sequence:
#
# PCOD9273345 Si02
#       4
#     8   8   8   8
#     4  11  22  41  65  90 123 165 209 261 319 376
#     4  10  20  37  64  95 120 151 208 269 315 367
#     4  12  25  41  59  90 130 170 210 257 312 379
#     4  11  21  39  65  93 120 158 209 263 315 374
#
# _framework density 30.877348999999999
#
# number of rings (size 3 to 8) (size 9 to 14) (size 15 to 20)
#    0.000    1.000    0.000   10.500    0.000    0.000 
#    0.000    7.500    0.000    0.000    0.000    0.000 
#    0.000    0.000    0.000    0.000    0.000    0.000 
#
# Total GULP energy -89404.681391 kJ/mol
# GULP energy per Si atom -5587.792587 kJ/mol
# Density = 3.080707 g / cm^3
# Si number density = 30.877349 Si / 1000 Ang^3
#
#
#
# Elastic Constant Matrix: (Units=GPa)
#
#
# Indices 1 2 3 4 5 6 
#
# 1 79.4767 54.6596 15.3671 -0.0001 0.4921 -0.0002
# 2 54.6596 315.2109 59.5160 -0.0007 -12.5599 -0.0004
# 3 15.3671 59.5160 138.6991 0.0001 -0.6910 0.0001
# 4 -0.0001 -0.0007 0.0001 67.3488 0.0000 -11.2549
# 5 0.4921 -12.5599 -0.6910 0.0000 52.7071 -0.0001
# 6 -0.0002 -0.0004 0.0001 -11.2549 -0.0001 73.1443
#
#
#
# Elastic Compliance Matrix: (Units=1/GPa)
#
#
# Indices 1 2 3 4 5 6 
#
# 1 0.014354 -0.002412 -0.000559 0.000000 -0.000716 0.000000
# 2 -0.002412 0.003892 -0.001398 0.000000 0.000932 0.000000
# 3 -0.000559 -0.001398 0.007871 0.000000 -0.000225 0.000000
# 4 0.000000 0.000000 0.000000 0.015240 0.000000 0.002345
# 5 -0.000716 0.000932 -0.000225 0.000000 0.019199 0.000000
# 6 0.000000 0.000000 0.000000 0.002345 0.000000 0.014032
#
#
# Mechanical properties :
#
#
# Convention : Reuss Voigt Hill
#
# Bulk Modulus (GPa) = 57.54382 88.05245 72.79813
# Shear Modulus (GPa) = 56.10557 65.56297 60.83427
#
# Velocity S-wave (km/s) = 4.26731 4.61297 4.44350
# Velocity P-wave (km/s) = 6.55413 7.54661 7.06781
#
# Compressibility (1/GPa) = 0.01737806
#
# Stress axis : x y z
#
# Youngs Moduli (GPa) = 69.66866 256.94758 127.05529
#
# Poissons Ratio (x) = 0.61976 0.07101
# Poissons Ratio (y) = 0.16804 0.17764
# Poissons Ratio (z) = 0.03894 0.35924
#
# Static dielectric constant tensor:
#      x y z
#    x 2.564170 0.000000 -0.021300 
#    y 0.000000 2.215400 0.000000 
#    z -0.021300 0.000000 2.978980 
# 
# From -- ./inp_files/241562.got.cif
#   From: 2010.05.17/outbox.cif.g08.bks.cpg/sg15_121_cif.got.tgz:241562.got - 2010.06.03 18:47:42.
