data_PCOD9273659
_publ_section_title
;
Structure prediction by ZEFSAII (Michael W. Deem and Ramdas Pophale) SiO2 
 PCOD9273659
Probable space group: C 2/C
;
_chemical_formula_sum "Si O2"
_cell_formula_units_Z 52
_cell_length_a 15.700814
_cell_length_b 27.969395
_cell_length_c 5.656800
_cell_angle_alpha 90.000000
_cell_angle_beta 58.269102
_cell_angle_gamma 90.000000
_cell_volume 2112.829653
_symmetry_space_group_name_H-M "C 2/C"
_symmetry_group_IT_number 15
_symmetry_cell_setting 'monoclinic'
loop_
_space_group_symop_operation_xyz
x,y,z
-x,y,1/2-z
-x,-y,-z
x,-y,1/2+z
1/2+x,1/2+y,z
1/2-x,1/2+y,1/2-z
1/2-x,1/2-y,-z
1/2+x,1/2-y,1/2+z
loop_
_atom_site_type_symbol
_atom_site_label
_atom_site_fract_x
_atom_site_fract_y
_atom_site_fract_z
Si Si1 0.500000 0.972772 0.750000
Si Si2 0.366023 0.480927 0.558084
Si Si3 0.617972 0.276754 0.096848
Si Si4 0.305269 0.618577 0.976527
Si Si5 0.121085 0.265079 0.097172
Si Si6 0.201976 0.556385 0.788515
Si Si7 0.619849 0.872231 0.053922
O O1 0.603904 0.944738 0.594736
O O2 0.500000 0.000000 0.500000
O O3 0.407829 0.500253 0.246569
O O4 0.356010 0.423597 0.559187
O O5 0.254638 0.505229 0.702686
O O6 0.500000 0.265477 0.250000
O O7 0.655168 0.249401 0.280548
O O8 0.634049 0.332919 0.118228
O O9 0.656010 0.265201 0.774099
O O10 0.192089 0.631769 0.222123
O O11 0.288047 0.591775 0.755159
O O12 0.139821 0.320342 0.139811
O O13 0.000000 0.259919 0.250000
O O14 0.161080 0.580174 0.613980
O O15 0.500000 0.876961 0.250000
#
# Coordination Sequence:
#
# PCOD9273659 Si02
#       7
#     4   8   8   8   8   8   8
#     4  12  26  40  62  86 128 182 232 260 302 378
#     4  10  20  38  57  83 123 162 201 252 307 359
#     4  10  23  45  70  93 123 165 214 274 336 392
#     4  11  24  39  65  94 125 171 219 267 323 384
#     4   9  22  43  65  93 130 164 208 272 329 380
#     4  11  24  39  58  89 131 171 216 264 313 370
#     4  11  24  40  62  93 132 175 216 259 315 386
#
# _framework density 24.611543999999999
#
# number of rings (size 3 to 8) (size 9 to 14) (size 15 to 20)
#    0.000    1.538    1.538    2.769    7.538    1.231 
#    1.385    0.000    0.000    3.692    0.000    0.000 
#    0.000    0.000    0.000    0.000    0.000    0.000 
#
# Total GULP energy -145062.604428 kJ/mol
# GULP energy per Si atom -5579.330940 kJ/mol
# Density = 2.455553 g / cm^3
# Si number density = 24.611544 Si / 1000 Ang^3
#
#
#
# Elastic Constant Matrix: (Units=GPa)
#
#
# Indices 1 2 3 4 5 6 
#
# 1 89.4390 18.9567 30.2553 0.0000 21.1760 0.0000
# 2 18.9567 117.4411 13.4888 0.0000 29.5279 0.0000
# 3 30.2553 13.4888 129.5458 0.0000 15.4899 0.0000
# 4 0.0000 0.0000 0.0000 41.7039 0.0000 -0.6107
# 5 21.1760 29.5279 15.4899 0.0000 29.3737 0.0000
# 6 0.0000 0.0000 0.0000 -0.6107 0.0000 41.4917
#
#
#
# Elastic Compliance Matrix: (Units=1/GPa)
#
#
# Indices 1 2 3 4 5 6 
#
# 1 0.014060 0.000321 -0.002206 0.000000 -0.009296 0.000000
# 2 0.000321 0.011407 0.000145 0.000000 -0.011775 0.000000
# 3 -0.002206 0.000145 0.008588 0.000000 -0.003085 0.000000
# 4 0.000000 0.000000 0.000000 0.023984 0.000000 0.000353
# 5 -0.009296 -0.011775 -0.003085 0.000000 0.054209 0.000000
# 6 0.000000 0.000000 0.000000 0.000353 0.000000 0.024106
#
#
# Mechanical properties :
#
#
# Convention : Reuss Voigt Hill
#
# Bulk Modulus (GPa) = 32.70527 51.31416 42.00972
# Shear Modulus (GPa) = 33.32791 40.76219 37.04505
#
# Velocity S-wave (km/s) = 3.68388 4.07409 3.88389
# Velocity P-wave (km/s) = 5.60465 6.55941 6.10073
#
# Compressibility (1/GPa) = 0.03057611
#
# Stress axis : x y z
#
# Youngs Moduli (GPa) = 71.12515 87.66603 116.43996
#
# Poissons Ratio (x) = -0.02814 0.25682
# Poissons Ratio (y) = -0.02283 -0.01691
# Poissons Ratio (z) = 0.15687 -0.01273
#
# Static dielectric constant tensor:
#      x y z
#    x 2.044080 0.000000 0.001370 
#    y 0.000000 1.914890 0.000000 
#    z 0.001370 0.000000 2.070120 
# 
# From -- ./inp_files/11430.got.cif
#   From: 2010.05.17/outbox.cif.g08.bks.cpg/sg15_6_cif.got.tgz:11430.got - 2010.06.03 18:47:42.
