data_PCOD9273760
_publ_section_title
;
Structure prediction by ZEFSAII (Michael W. Deem and Ramdas Pophale) SiO2 
 PCOD9273760
Probable space group: C 2/C
;
_chemical_formula_sum "Si O2"
_cell_formula_units_Z 64
_cell_length_a 20.704779
_cell_length_b 9.517464
_cell_length_c 17.728090
_cell_angle_alpha 90.000000
_cell_angle_beta 122.212154
_cell_angle_gamma 90.000000
_cell_volume 2955.733509
_symmetry_space_group_name_H-M "C 2/C"
_symmetry_group_IT_number 15
_symmetry_cell_setting 'monoclinic'
loop_
_space_group_symop_operation_xyz
x,y,z
-x,y,1/2-z
-x,-y,-z
x,-y,1/2+z
1/2+x,1/2+y,z
1/2-x,1/2+y,1/2-z
1/2-x,1/2-y,-z
1/2+x,1/2-y,1/2+z
loop_
_atom_site_type_symbol
_atom_site_label
_atom_site_fract_x
_atom_site_fract_y
_atom_site_fract_z
Si Si1 0.057780 0.306755 0.680850
Si Si2 0.198385 0.187059 0.036799
Si Si3 0.169053 0.492338 0.335423
Si Si4 0.407875 0.824220 0.973665
Si Si5 0.739190 0.285789 0.814840
Si Si6 0.168118 0.079349 0.722130
Si Si7 0.418703 0.528192 0.988327
Si Si8 0.095418 0.418222 0.940701
O O1 0.104454 0.437939 0.743058
O O2 0.061897 0.310452 0.592439
O O3 0.103095 0.163212 0.728651
O O4 0.968364 0.324034 0.640755
O O5 0.258849 0.098750 0.122767
O O6 0.127011 0.077134 0.985478
O O7 0.250000 0.250000 0.000000
O O8 0.150432 0.325880 0.028210
O O9 0.191329 0.334371 0.327825
O O10 0.142112 0.504090 0.404586
O O11 0.316084 0.828082 0.907686
O O12 0.425967 0.681607 0.028951
O O13 0.441168 0.959415 0.033611
O O14 0.768114 0.197660 0.758774
O O15 0.697398 0.432834 0.773240
O O16 0.134096 0.042981 0.618825
O O17 0.500000 0.500000 0.000000
#
# Coordination Sequence:
#
# PCOD9273760 Si02
#       8
#     8   8   8   8   8   8   8   8
#     4  10  22  41  62  93 124 168 220 269 330 383
#     4  10  21  38  58  88 124 171 215 254 331 394
#     4  11  22  41  62  91 132 171 212 269 319 396
#     4  10  22  37  63  91 125 158 219 268 318 381
#     4  10  20  38  58  97 121 162 211 268 326 376
#     4  10  21  35  63  89 128 154 210 276 321 378
#     4  10  20  38  60  88 126 164 213 275 328 388
#     4  11  24  40  62  92 131 177 210 260 331 400
#
# _framework density 21.652830999999999
#
# number of rings (size 3 to 8) (size 9 to 14) (size 15 to 20)
#    0.000    2.000    2.500    3.750    1.750    2.500 
#    0.000    0.000    0.000    1.500    0.000    0.000 
#    0.000    0.000    0.000    0.000    0.000    0.000 
#
# Total GULP energy -178194.241278 kJ/mol
# GULP energy per Si atom -5568.570040 kJ/mol
# Density = 2.160355 g / cm^3
# Si number density = 21.652831 Si / 1000 Ang^3
#
#
#
# Elastic Constant Matrix: (Units=GPa)
#
#
# Indices 1 2 3 4 5 6 
#
# 1 80.0636 47.2812 11.9760 0.0000 14.2953 0.0000
# 2 47.2812 162.5088 31.5261 0.0000 12.0196 0.0000
# 3 11.9760 31.5261 28.0199 0.0000 11.4351 0.0000
# 4 0.0000 0.0000 0.0000 31.8400 0.0000 3.4077
# 5 14.2953 12.0196 11.4351 0.0000 23.3351 0.0000
# 6 0.0000 0.0000 0.0000 3.4077 0.0000 37.0821
#
#
#
# Elastic Compliance Matrix: (Units=1/GPa)
#
#
# Indices 1 2 3 4 5 6 
#
# 1 0.016400 -0.004421 0.001419 0.000000 -0.008465 0.000000
# 2 -0.004421 0.009066 -0.009388 0.000000 0.002639 0.000000
# 3 0.001419 -0.009388 0.055032 0.000000 -0.023002 0.000000
# 4 0.000000 0.000000 0.000000 0.031719 0.000000 -0.002915
# 5 -0.008465 0.002639 -0.023002 0.000000 0.057952 0.000000
# 6 0.000000 0.000000 0.000000 -0.002915 0.000000 0.027235
#
#
# Mechanical properties :
#
#
# Convention : Reuss Voigt Hill
#
# Bulk Modulus (GPa) = 17.94724 50.23985 34.09355
# Shear Modulus (GPa) = 20.76803 30.43871 25.60337
#
# Velocity S-wave (km/s) = 3.10035 3.75342 3.44241
# Velocity P-wave (km/s) = 4.59596 6.48359 5.61960
#
# Compressibility (1/GPa) = 0.05571887
#
# Stress axis : x y z
#
# Youngs Moduli (GPa) = 60.97625 110.30642 18.17133
#
# Poissons Ratio (x) = 0.48762 -0.02579
# Poissons Ratio (y) = 0.26955 0.17058
# Poissons Ratio (z) = -0.08653 1.03551
#
# Static dielectric constant tensor:
#      x y z
#    x 1.866690 0.000000 0.009190 
#    y 0.000000 1.860040 0.000000 
#    z 0.009190 0.000000 1.827210 
# 
# From -- ./inp_files/251940.got.cif
#   From: 2010.05.17/outbox.cif.g08.bks.cpg/sg15_126_cif.got.tgz:251940.got - 2010.06.03 18:47:42.
