data_PCOD9273448
_publ_section_title
;
Structure prediction by ZEFSAII (Michael W. Deem and Ramdas Pophale) SiO2 
 PCOD9273448
Probable space group: C 2/C
;
_chemical_formula_sum "Si O2"
_cell_formula_units_Z 56
_cell_length_a 10.624163
_cell_length_b 9.202113
_cell_length_c 26.963849
_cell_angle_alpha 90.000000
_cell_angle_beta 113.182432
_cell_angle_gamma 90.000000
_cell_volume 2423.263760
_symmetry_space_group_name_H-M "C 2/C"
_symmetry_group_IT_number 15
_symmetry_cell_setting 'monoclinic'
loop_
_space_group_symop_operation_xyz
x,y,z
-x,y,1/2-z
-x,-y,-z
x,-y,1/2+z
1/2+x,1/2+y,z
1/2-x,1/2+y,1/2-z
1/2-x,1/2-y,-z
1/2+x,1/2-y,1/2+z
loop_
_atom_site_type_symbol
_atom_site_label
_atom_site_fract_x
_atom_site_fract_y
_atom_site_fract_z
Si Si1 0.556469 0.584207 0.669626
Si Si2 0.852444 0.825405 0.879512
Si Si3 0.094472 0.302188 0.475003
Si Si4 0.581259 0.896955 0.711840
Si Si5 0.369518 0.245991 0.410322
Si Si6 0.851463 0.494444 0.099555
Si Si7 0.732301 0.481854 0.330222
O O1 0.642778 0.447723 0.662366
O O2 0.605460 0.723972 0.708908
O O3 0.532238 0.670025 0.613137
O O4 0.425119 0.524184 0.678163
O O5 0.792851 0.676765 0.849542
O O6 0.000822 0.797948 0.925729
O O7 0.755810 0.877116 0.909283
O O8 0.250000 0.250000 0.500000
O O9 0.057116 0.288377 0.526616
O O10 0.096454 0.456292 0.447109
O O11 0.500000 0.921473 0.750000
O O12 0.475112 0.966502 0.655327
O O13 0.724425 0.971479 0.718624
O O14 0.238695 0.353991 0.397857
O O15 0.305086 0.102347 0.376153
#
# Coordination Sequence:
#
# PCOD9273448 Si02
#       7
#     8   8   8   8   8   8   8
#     4  10  22  43  63  92 129 169 210 271 323 380
#     4  11  22  39  67  91 133 168 216 259 319 383
#     4  10  20  37  65  97 134 179 217 253 322 390
#     4  11  24  46  66  92 124 162 221 278 337 395
#     4   9  22  38  64  96 136 175 211 260 320 387
#     4  10  20  41  65  89 132 172 211 276 320 380
#     4  11  22  42  67  95 129 170 211 267 329 386
#
# _framework density 23.10933
#
# number of rings (size 3 to 8) (size 9 to 14) (size 15 to 20)
#    0.000    1.714    2.857    1.714    0.000    6.857 
#    7.714    2.143    0.000    0.000    0.000    0.000 
#    0.000    0.000    0.000    0.000    0.000    0.000 
#
# Total GULP energy -156284.819916 kJ/mol
# GULP energy per Si atom -5581.600711 kJ/mol
# Density = 2.305673 g / cm^3
# Si number density = 23.109330 Si / 1000 Ang^3
#
#
#
# Elastic Constant Matrix: (Units=GPa)
#
#
# Indices 1 2 3 4 5 6 
#
# 1 68.7085 12.0683 -14.7028 0.0000 -16.8797 0.0000
# 2 12.0683 119.8474 10.4877 0.0000 -13.0435 0.0000
# 3 -14.7028 10.4877 61.4476 0.0000 -9.2022 0.0000
# 4 0.0000 0.0000 0.0000 18.6972 0.0000 -10.1597
# 5 -16.8797 -13.0435 -9.2022 0.0000 33.8743 0.0000
# 6 0.0000 0.0000 0.0000 -10.1597 0.0000 54.1127
#
#
#
# Elastic Compliance Matrix: (Units=1/GPa)
#
#
# Indices 1 2 3 4 5 6 
#
# 1 0.018710 -0.001287 0.006274 0.000000 0.010532 0.000000
# 2 -0.001287 0.008860 -0.001465 0.000000 0.002372 0.000000
# 3 0.006274 -0.001465 0.019190 0.000000 0.007775 0.000000
# 4 0.000000 0.000000 0.000000 0.059560 0.000000 0.011182
# 5 0.010532 0.002372 0.007775 0.000000 0.037795 0.000000
# 6 0.000000 0.000000 0.000000 0.011182 0.000000 0.020579
#
#
# Mechanical properties :
#
#
# Convention : Reuss Voigt Hill
#
# Bulk Modulus (GPa) = 18.58596 29.52331 24.05463
# Shear Modulus (GPa) = 28.47631 37.48021 32.97826
#
# Velocity S-wave (km/s) = 3.51414 4.03161 3.78173
# Velocity P-wave (km/s) = 4.95234 5.87154 5.43142
#
# Compressibility (1/GPa) = 0.05380406
#
# Stress axis : x y z
#
# Youngs Moduli (GPa) = 53.44666 112.86802 52.11158
#
# Poissons Ratio (x) = 0.14524 -0.32694
# Poissons Ratio (y) = 0.06878 0.07633
# Poissons Ratio (z) = -0.33531 0.16533
#
# Static dielectric constant tensor:
#      x y z
#    x 1.919940 0.000000 -0.031660 
#    y 0.000000 1.855380 0.000000 
#    z -0.031660 0.000000 1.922760 
# 
# From -- ./inp_files/310054.got.cif
#   From: 2010.05.17/outbox.cif.g08.bks.cpg/sg15_156_cif.got.tgz:310054.got - 2010.06.03 18:47:42.
