data_PCOD9273805
_publ_section_title
;
Structure prediction by ZEFSAII (Michael W. Deem and Ramdas Pophale) SiO2 
 PCOD9273805
Probable space group: C 2/C
;
_chemical_formula_sum "Si O2"
_cell_formula_units_Z 44
_cell_length_a 26.784939
_cell_length_b 8.146553
_cell_length_c 12.224535
_cell_angle_alpha 90.000000
_cell_angle_beta 124.967242
_cell_angle_gamma 90.000000
_cell_volume 2185.924579
_symmetry_space_group_name_H-M "C 2/C"
_symmetry_group_IT_number 15
_symmetry_cell_setting 'monoclinic'
loop_
_space_group_symop_operation_xyz
x,y,z
-x,y,1/2-z
-x,-y,-z
x,-y,1/2+z
1/2+x,1/2+y,z
1/2-x,1/2+y,1/2-z
1/2-x,1/2-y,-z
1/2+x,1/2-y,1/2+z
loop_
_atom_site_type_symbol
_atom_site_label
_atom_site_fract_x
_atom_site_fract_y
_atom_site_fract_z
Si Si1 0.057595 0.208749 0.882238
Si Si2 0.272845 0.498295 0.534790
Si Si3 0.000000 0.115496 0.250000
Si Si4 0.667709 0.795008 0.297207
Si Si5 0.307241 0.232349 0.924264
Si Si6 0.532494 0.834678 0.085670
O O1 0.000000 0.292999 0.750000
O O2 0.122858 0.293614 0.947099
O O3 0.042655 0.218461 0.992292
O O4 0.054124 0.020145 0.835120
O O5 0.326635 0.390808 0.653011
O O6 0.213839 0.392391 0.431019
O O7 0.293278 0.585773 0.449446
O O8 0.245965 0.626023 0.588309
O O9 0.002354 0.231474 0.146271
O O10 0.691267 0.792546 0.202604
O O11 0.600772 0.870054 0.213609
O O12 0.500000 0.000000 0.000000
#
# Coordination Sequence:
#
# PCOD9273805 Si02
#       6
#     8   8   4   8   8   8
#     4   9  22  39  62  85 125 160 203 253 309 375
#     4  10  21  37  61  84 115 155 193 248 302 352
#     4  10  22  40  60  84 124 168 206 246 314 372
#     4  10  22  38  57  86 119 150 198 246 302 358
#     4  10  20  38  59  87 112 153 200 244 296 360
#     4  11  24  38  61  91 123 164 208 259 308 368
#
# _framework density 20.128782999999999
#
# number of rings (size 3 to 8) (size 9 to 14) (size 15 to 20)
#    0.545    1.455    0.000    2.727    3.818    1.455 
#    0.000    1.818    0.000    0.000    0.000    0.000 
#    0.000    0.000    0.000    0.000    0.000    0.000 
#
# Total GULP energy -122500.799495 kJ/mol
# GULP energy per Si atom -5568.218159 kJ/mol
# Density = 2.008297 g / cm^3
# Si number density = 20.128783 Si / 1000 Ang^3
#
#
#
# Elastic Constant Matrix: (Units=GPa)
#
#
# Indices 1 2 3 4 5 6 
#
# 1 30.2447 2.2254 -6.6802 0.0000 5.9531 0.0000
# 2 2.2254 60.6651 19.1506 0.0000 5.3683 0.0000
# 3 -6.6802 19.1506 69.5854 0.0000 10.7556 0.0000
# 4 0.0000 0.0000 0.0000 43.6024 0.0000 -0.4865
# 5 5.9531 5.3683 10.7556 0.0000 24.5228 0.0000
# 6 0.0000 0.0000 0.0000 -0.4865 0.0000 14.9439
#
#
#
# Elastic Compliance Matrix: (Units=1/GPa)
#
#
# Indices 1 2 3 4 5 6 
#
# 1 0.036673 -0.002213 0.005826 0.000000 -0.010973 0.000000
# 2 -0.002213 0.018269 -0.005047 0.000000 -0.001248 0.000000
# 3 0.005826 -0.005047 0.017557 0.000000 -0.008010 0.000000
# 4 0.000000 0.000000 0.000000 0.022943 0.000000 0.000747
# 5 -0.010973 -0.001248 -0.008010 0.000000 0.047229 0.000000
# 6 0.000000 0.000000 0.000000 0.000747 0.000000 0.066941
#
#
# Mechanical properties :
#
#
# Convention : Reuss Voigt Hill
#
# Bulk Modulus (GPa) = 14.36167 21.09853 17.73010
# Shear Modulus (GPa) = 21.21414 26.33377 23.77395
#
# Velocity S-wave (km/s) = 3.24994 3.62092 3.44043
# Velocity P-wave (km/s) = 4.60795 5.29017 4.96080
#
# Compressibility (1/GPa) = 0.06962979
#
# Stress axis : x y z
#
# Youngs Moduli (GPa) = 27.26784 54.73778 56.95651
#
# Poissons Ratio (x) = 0.12115 -0.33182
# Poissons Ratio (y) = 0.06035 0.28748
# Poissons Ratio (z) = -0.15886 0.27628
#
# Static dielectric constant tensor:
#      x y z
#    x 1.708740 0.000000 0.023540 
#    y 0.000000 1.761290 0.000000 
#    z 0.023540 0.000000 1.718110 
# 
# From -- ./inp_files/176748.got.cif
#   From: 2010.05.17/outbox.cif.g08.bks.cpg/sg15_89_cif.got.tgz:176748.got - 2010.06.03 18:47:42.
