data_PCOD9273168
_publ_section_title
;
Structure prediction by ZEFSAII (Michael W. Deem and Ramdas Pophale) SiO2 
 PCOD9273168
Probable space group: C 2/C
;
_chemical_formula_sum "Si O2"
_cell_formula_units_Z 28
_cell_length_a 13.769432
_cell_length_b 6.578596
_cell_length_c 11.434213
_cell_angle_alpha 90.000000
_cell_angle_beta 109.049727
_cell_angle_gamma 90.000000
_cell_volume 979.029138
_symmetry_space_group_name_H-M "C 2/C"
_symmetry_group_IT_number 15
_symmetry_cell_setting 'monoclinic'
loop_
_space_group_symop_operation_xyz
x,y,z
-x,y,1/2-z
-x,-y,-z
x,-y,1/2+z
1/2+x,1/2+y,z
1/2-x,1/2+y,1/2-z
1/2-x,1/2-y,-z
1/2+x,1/2-y,1/2+z
loop_
_atom_site_type_symbol
_atom_site_label
_atom_site_fract_x
_atom_site_fract_y
_atom_site_fract_z
Si Si1 0.000000 0.500000 0.500000
Si Si2 0.113539 0.813049 0.283685
Si Si3 0.358539 0.728496 0.102022
Si Si4 0.158870 0.176572 0.141176
O O1 0.941222 0.649958 0.564612
O O2 0.901280 0.333124 0.464243
O O3 0.115323 0.989872 0.380989
O O4 0.122650 0.946280 0.164282
O O5 0.000000 0.714075 0.250000
O O6 0.218539 0.688286 0.334646
O O7 0.354038 0.782215 0.236184
O O8 0.250000 0.750000 0.000000
#
# Coordination Sequence:
#
# PCOD9273168 Si02
#       4
#     4   8   8   8
#     4  12  16  36  66  88 114 168 204 248 312 368
#     4  10  20  40  60  89 124 161 205 257 308 368
#     4  10  20  37  63  88 122 164 203 255 309 368
#     4  10  21  36  65  90 123 165 208 255 313 373
#
# _framework density 28.599761999999998
#
# number of rings (size 3 to 8) (size 9 to 14) (size 15 to 20)
#    1.714    0.000    5.714    0.857    0.000    0.000 
#    0.000   10.000    0.000    0.000    0.000    0.000 
#    0.000    0.000    0.000    0.000    0.000    0.000 
#
# Total GULP energy -77963.085847 kJ/mol
# GULP energy per Si atom -5568.791846 kJ/mol
# Density = 2.853467 g / cm^3
# Si number density = 28.599762 Si / 1000 Ang^3
#
#
#
# Elastic Constant Matrix: (Units=GPa)
#
#
# Indices 1 2 3 4 5 6 
#
# 1 282.9534 51.5978 27.2009 0.0000 16.7330 0.0000
# 2 51.5978 107.2640 55.2430 0.0000 -6.3750 0.0000
# 3 27.2009 55.2430 84.6347 0.0000 20.7861 0.0000
# 4 0.0000 0.0000 0.0000 32.5043 0.0000 20.3325
# 5 16.7330 -6.3750 20.7861 0.0000 53.6354 0.0000
# 6 0.0000 0.0000 0.0000 20.3325 0.0000 3.7790
#
#
#
# Elastic Compliance Matrix: (Units=1/GPa)
#
#
# Indices 1 2 3 4 5 6 
#
# 1 0.004012 -0.002418 0.000737 0.000000 -0.001825 0.000000
# 2 -0.002418 0.017328 -0.012405 0.000000 0.007621 0.000000
# 3 0.000737 -0.012405 0.022208 0.000000 -0.010311 0.000000
# 4 0.000000 0.000000 0.000000 -0.013005 0.000000 0.069973
# 5 -0.001825 0.007621 -0.010311 0.000000 0.024115 0.000000
# 6 0.000000 0.000000 0.000000 0.069973 0.000000 -0.111862
#
#
# Mechanical properties :
#
#
# Convention : Reuss Voigt Hill
#
# Bulk Modulus (GPa) = 65.03663 82.54840 73.79251
# Shear Modulus (GPa) = -209.14141 40.70444 -84.21849
#
# Velocity S-wave (km/s) = -8.56071 3.77668 -5.43242
# Velocity P-wave (km/s) = 8.65590 6.92414 3.67294
#
# Compressibility (1/GPa) = 0.01537595
#
# Stress axis : x y z
#
# Youngs Moduli (GPa) = 249.24348 57.71162 45.02925
#
# Poissons Ratio (x) = 0.13954 -0.03318
# Poissons Ratio (y) = 0.60266 0.55858
# Poissons Ratio (z) = -0.18367 0.71590
#
# Static dielectric constant tensor:
#      x y z
#    x 2.213940 0.000000 -0.092120 
#    y 0.000000 2.304200 0.000000 
#    z -0.092120 0.000000 2.525060 
# 
# From -- ./inp_files/140601.got.cif
#   From: 2010.05.17/outbox.cif.g08.bks.cpg/sg15_71_cif.got.tgz:140601.got - 2010.06.03 18:47:42.
