data_PCOD9273617
_publ_section_title
;
Structure prediction by ZEFSAII (Michael W. Deem and Ramdas Pophale) SiO2 
 PCOD9273617
Probable space group: C 2/C
;
_chemical_formula_sum "Si O2"
_cell_formula_units_Z 60
_cell_length_a 20.510875
_cell_length_b 18.932802
_cell_length_c 7.849401
_cell_angle_alpha 90.000000
_cell_angle_beta 71.725395
_cell_angle_gamma 90.000000
_cell_volume 2894.410280
_symmetry_space_group_name_H-M "C 2/C"
_symmetry_group_IT_number 15
_symmetry_cell_setting 'monoclinic'
loop_
_space_group_symop_operation_xyz
x,y,z
-x,y,1/2-z
-x,-y,-z
x,-y,1/2+z
1/2+x,1/2+y,z
1/2-x,1/2+y,1/2-z
1/2-x,1/2-y,-z
1/2+x,1/2-y,1/2+z
loop_
_atom_site_type_symbol
_atom_site_label
_atom_site_fract_x
_atom_site_fract_y
_atom_site_fract_z
Si Si1 0.209596 0.674610 0.230855
Si Si2 0.500000 0.655543 0.250000
Si Si3 0.236311 0.898273 0.329210
Si Si4 0.122970 0.213659 0.938646
Si Si5 0.329441 0.791760 0.112218
Si Si6 0.564964 0.705995 0.621588
Si Si7 0.059084 0.059338 0.455544
Si Si8 0.211377 0.953914 0.964202
O O1 0.156614 0.707969 0.410989
O O2 0.269924 0.733091 0.175265
O O3 0.248382 0.599919 0.194378
O O4 0.172441 0.676910 0.077231
O O5 0.450685 0.701699 0.412875
O O6 0.555321 0.599113 0.279115
O O7 0.179369 0.844090 0.449049
O O8 0.306482 0.854318 0.252434
O O9 0.243364 0.968771 0.430676
O O10 0.214642 0.922432 0.153238
O O11 0.114318 0.197866 0.743265
O O12 0.399115 0.747355 0.061524
O O13 0.500000 0.746178 0.750000
O O14 0.543744 0.628153 0.582018
O O15 0.133524 0.035987 0.458412
O O16 0.000000 0.000000 0.500000
#
# Coordination Sequence:
#
# PCOD9273617 Si02
#       8
#     8   4   8   8   8   8   8   8
#     4   8  15  33  58  75 100 138 185 234 271 308
#     4  12  26  36  46  76 114 148 178 222 270 328
#     4  10  21  35  58  79 108 139 186 232 272 318
#     4  10  20  38  56  77 106 145 189 228 266 318
#     4   8  15  33  55  80  98 134 188 235 258 312
#     4  11  19  36  58  78 101 145 189 220 260 327
#     4  12  26  35  49  74 118 153 180 213 266 334
#     4  11  21  36  56  82 108 146 183 227 277 325
#
# _framework density 20.729610999999998
#
# number of rings (size 3 to 8) (size 9 to 14) (size 15 to 20)
#    0.000    1.867    4.000    2.400    4.667    0.000 
#    0.000    2.000    0.000    0.000    1.733    2.800 
#    0.000    0.000    0.000    0.000    0.000    0.000 
#
# Total GULP energy -167157.462602 kJ/mol
# GULP energy per Si atom -5571.915420 kJ/mol
# Density = 2.068243 g / cm^3
# Si number density = 20.729611 Si / 1000 Ang^3
#
#
#
# Elastic Constant Matrix: (Units=GPa)
#
#
# Indices 1 2 3 4 5 6 
#
# 1 52.1530 35.3782 28.7261 0.0000 -13.9087 0.0000
# 2 35.3782 96.6977 43.0305 0.0000 -22.7381 0.0000
# 3 28.7261 43.0305 72.6062 0.0000 -22.5265 0.0000
# 4 0.0000 0.0000 0.0000 32.2730 0.0000 -6.0387
# 5 -13.9087 -22.7381 -22.5265 0.0000 40.9259 0.0000
# 6 0.0000 0.0000 0.0000 -6.0387 0.0000 27.1075
#
#
#
# Elastic Compliance Matrix: (Units=1/GPa)
#
#
# Indices 1 2 3 4 5 6 
#
# 1 0.027891 -0.006900 -0.006264 0.000000 0.002197 0.000000
# 2 -0.006900 0.016285 -0.005839 0.000000 0.003489 0.000000
# 3 -0.006264 -0.005839 0.021761 0.000000 0.006605 0.000000
# 4 0.000000 0.000000 0.000000 0.032333 0.000000 0.007203
# 5 0.002197 0.003489 0.006605 0.000000 0.030755 0.000000
# 6 0.000000 0.000000 0.000000 0.007203 0.000000 0.038495
#
#
# Mechanical properties :
#
#
# Convention : Reuss Voigt Hill
#
# Bulk Modulus (GPa) = 35.80236 48.41405 42.10821
# Shear Modulus (GPa) = 23.27357 27.68274 25.47816
#
# Velocity S-wave (km/s) = 3.35434 3.65830 3.50961
# Velocity P-wave (km/s) = 5.68425 6.42261 6.06468
#
# Compressibility (1/GPa) = 0.02793112
#
# Stress axis : x y z
#
# Youngs Moduli (GPa) = 35.85337 61.40733 45.95447
#
# Poissons Ratio (x) = 0.42373 0.28785
# Poissons Ratio (y) = 0.24740 0.26832
# Poissons Ratio (z) = 0.22458 0.35854
#
# Static dielectric constant tensor:
#      x y z
#    x 1.875210 0.000000 0.065670 
#    y 0.000000 1.755770 0.000000 
#    z 0.065670 0.000000 1.854140 
# 
# From -- ./inp_files/62724.got.cif
#   From: 2010.05.17/outbox.cif.g08.bks.cpg/sg15_32_cif.got.tgz:62724.got - 2010.06.03 18:47:42.
