data_PCOD9273237
_publ_section_title
;
Structure prediction by ZEFSAII (Michael W. Deem and Ramdas Pophale) SiO2 
 PCOD9273237
Probable space group: C 2/C
;
_chemical_formula_sum "Si O2"
_cell_formula_units_Z 64
_cell_length_a 15.645876
_cell_length_b 15.693627
_cell_length_c 18.492999
_cell_angle_alpha 90.000000
_cell_angle_beta 36.247739
_cell_angle_gamma 90.000000
_cell_volume 2684.863108
_symmetry_space_group_name_H-M "C 2/C"
_symmetry_group_IT_number 15
_symmetry_cell_setting 'monoclinic'
loop_
_space_group_symop_operation_xyz
x,y,z
-x,y,1/2-z
-x,-y,-z
x,-y,1/2+z
1/2+x,1/2+y,z
1/2-x,1/2+y,1/2-z
1/2-x,1/2-y,-z
1/2+x,1/2-y,1/2+z
loop_
_atom_site_type_symbol
_atom_site_label
_atom_site_fract_x
_atom_site_fract_y
_atom_site_fract_z
Si Si1 0.664723 0.806994 0.298325
Si Si2 0.160886 0.949640 0.673150
Si Si3 0.879104 0.893893 0.639505
Si Si4 0.032397 0.297672 0.618771
Si Si5 0.895131 0.429312 0.038018
Si Si6 0.639401 0.168231 0.550509
Si Si7 0.181947 0.843727 0.447641
Si Si8 0.763082 0.327737 0.891758
O O1 0.635122 0.709383 0.340332
O O2 0.689736 0.868650 0.348297
O O3 0.521969 0.852236 0.362781
O O4 0.780612 0.806292 0.155631
O O5 0.167830 0.940733 0.755401
O O6 0.240500 0.867663 0.586023
O O7 0.000000 0.956368 0.750000
O O8 0.268358 0.025737 0.579296
O O9 0.794529 0.903035 0.621472
O O10 0.051894 0.907699 0.522000
O O11 0.003748 0.366991 0.577014
O O12 0.139578 0.342061 0.603743
O O13 0.123675 0.222982 0.517773
O O14 0.883075 0.276501 0.761009
O O15 0.000000 0.500000 0.000000
O O16 0.677138 0.130161 0.603233
O O17 0.636291 0.270264 0.536952
#
# Coordination Sequence:
#
# PCOD9273237 Si02
#       8
#     8   8   8   8   8   8   8   8
#     4  11  22  38  65 100 125 173 231 279 318 405
#     4  12  24  44  63  96 139 180 216 272 348 411
#     4  11  22  37  69  98 131 170 225 288 330 390
#     4  10  23  45  68 106 131 178 226 291 343 398
#     4  12  25  45  68  94 138 185 226 262 342 423
#     4  10  20  37  63  94 130 169 209 277 335 392
#     4  10  21  35  62 101 131 162 217 283 336 380
#     4  10  22  41  72 102 135 166 231 291 340 383
#
# _framework density 23.837342
#
# number of rings (size 3 to 8) (size 9 to 14) (size 15 to 20)
#    0.000    1.250    5.000    1.125    1.750    0.000 
#    6.750    4.375    0.000    0.000    0.000    0.000 
#    0.000    0.000    0.000    0.000    0.000    0.000 
#
# Total GULP energy -178411.105861 kJ/mol
# GULP energy per Si atom -5575.347058 kJ/mol
# Density = 2.378309 g / cm^3
# Si number density = 23.837342 Si / 1000 Ang^3
#
#
#
# Elastic Constant Matrix: (Units=GPa)
#
#
# Indices 1 2 3 4 5 6 
#
# 1 96.0072 4.4607 19.2323 0.0001 -6.1611 0.0000
# 2 4.4607 39.6843 14.4113 0.0002 3.3154 0.0000
# 3 19.2323 14.4113 77.0256 0.0005 1.0636 -0.0001
# 4 0.0001 0.0002 0.0005 22.8001 -0.0002 -3.1592
# 5 -6.1611 3.3154 1.0636 -0.0002 46.8763 0.0000
# 6 0.0000 0.0000 -0.0001 -3.1592 0.0000 22.5135
#
#
#
# Elastic Compliance Matrix: (Units=1/GPa)
#
#
# Indices 1 2 3 4 5 6 
#
# 1 0.011077 -0.000388 -0.002714 0.000000 0.001545 0.000000
# 2 -0.000388 0.027202 -0.004967 0.000000 -0.001862 0.000000
# 3 -0.002714 -0.004967 0.014594 0.000000 -0.000337 0.000000
# 4 0.000000 0.000000 0.000000 0.044729 0.000000 0.006277
# 5 0.001545 -0.001862 -0.000337 0.000000 0.021675 0.000000
# 6 0.000000 0.000000 0.000000 0.006277 0.000000 0.045298
#
#
# Mechanical properties :
#
#
# Convention : Reuss Voigt Hill
#
# Bulk Modulus (GPa) = 27.22278 32.10285 29.66282
# Shear Modulus (GPa) = 25.91219 30.07885 27.99552
#
# Velocity S-wave (km/s) = 3.30061 3.55609 3.43073
# Velocity P-wave (km/s) = 5.09611 5.50978 5.30698
#
# Compressibility (1/GPa) = 0.03673393
#
# Stress axis : x y z
#
# Youngs Moduli (GPa) = 90.27854 36.76233 68.51967
#
# Poissons Ratio (x) = 0.01428 0.18599
# Poissons Ratio (y) = 0.03507 0.34032
# Poissons Ratio (z) = 0.24505 0.18259
#
# Static dielectric constant tensor:
#      x y z
#    x 2.114070 0.000000 -0.020300 
#    y 0.000000 1.875430 0.000000 
#    z -0.020300 0.000000 1.968950 
# 
# From -- ./inp_files/206452.got.cif
#   From: 2010.05.17/outbox.cif.g08.bks.cpg/sg15_104_cif.got.tgz:206452.got - 2010.06.03 18:47:42.
