data_PCOD9273384
_publ_section_title
;
Structure prediction by ZEFSAII (Michael W. Deem and Ramdas Pophale) SiO2 
 PCOD9273384
Probable space group: C 2/C
;
_chemical_formula_sum "Si O2"
_cell_formula_units_Z 48
_cell_length_a 26.959972
_cell_length_b 9.784480
_cell_length_c 18.397950
_cell_angle_alpha 90.000000
_cell_angle_beta 148.530351
_cell_angle_gamma 90.000000
_cell_volume 2533.588512
_symmetry_space_group_name_H-M "C 2/C"
_symmetry_group_IT_number 15
_symmetry_cell_setting 'monoclinic'
loop_
_space_group_symop_operation_xyz
x,y,z
-x,y,1/2-z
-x,-y,-z
x,-y,1/2+z
1/2+x,1/2+y,z
1/2-x,1/2+y,1/2-z
1/2-x,1/2-y,-z
1/2+x,1/2-y,1/2+z
loop_
_atom_site_type_symbol
_atom_site_label
_atom_site_fract_x
_atom_site_fract_y
_atom_site_fract_z
Si Si1 0.058939 0.081479 0.254843
Si Si2 0.559089 0.155960 0.651080
Si Si3 0.799565 0.643773 0.968208
Si Si4 0.564982 0.099452 0.491259
Si Si5 0.229679 0.408244 0.460978
Si Si6 0.095264 0.790970 0.271504
O O1 0.055304 0.197939 0.188172
O O2 0.163287 0.044386 0.417600
O O3 0.000000 0.130865 0.250000
O O4 0.034003 0.930847 0.195309
O O5 0.575168 0.157626 0.585163
O O6 0.651060 0.082118 0.801251
O O7 0.466300 0.060468 0.546677
O O8 0.843908 0.630015 0.944434
O O9 0.805052 0.494839 0.013596
O O10 0.863172 0.742420 0.098660
O O11 0.689688 0.690050 0.839342
O O12 0.475054 0.175353 0.343849
O O13 0.250000 0.250000 0.500000
#
# Coordination Sequence:
#
# PCOD9273384 Si02
#       6
#     8   8   8   8   8   8
#     4  10  21  37  61  87 117 155 200 249 297 343
#     4  10  23  38  56  92 120 149 204 246 296 369
#     4  10  20  37  65  84 116 160 202 244 298 349
#     4  11  22  39  61  86 123 159 193 247 309 358
#     4   9  19  36  60  87 114 147 201 247 280 359
#     4  10  21  38  60  91 114 155 210 245 285 372
#
# _framework density 18.945459
#
# number of rings (size 3 to 8) (size 9 to 14) (size 15 to 20)
#    0.000    2.000    1.667    1.500    4.667    0.667 
#    3.000    3.333    0.000    0.000    0.000    0.000 
#    0.000    0.000    0.000    0.000    0.000    0.000 
#
# Total GULP energy -133644.577823 kJ/mol
# GULP energy per Si atom -5568.524076 kJ/mol
# Density = 1.890234 g / cm^3
# Si number density = 18.945459 Si / 1000 Ang^3
#
#
#
# Elastic Constant Matrix: (Units=GPa)
#
#
# Indices 1 2 3 4 5 6 
#
# 1 137.3837 29.2591 13.7221 0.0000 -2.9550 0.0000
# 2 29.2591 109.7886 -5.2674 0.0000 -5.5499 0.0000
# 3 13.7221 -5.2674 15.8086 0.0000 -2.7466 0.0000
# 4 0.0000 0.0000 0.0000 8.7252 0.0000 -1.2874
# 5 -2.9550 -5.5499 -2.7466 0.0000 9.0888 0.0000
# 6 0.0000 0.0000 0.0000 -1.2874 0.0000 15.4311
#
#
#
# Elastic Compliance Matrix: (Units=1/GPa)
#
#
# Indices 1 2 3 4 5 6 
#
# 1 0.008724 -0.002824 -0.008782 0.000000 -0.001542 0.000000
# 2 -0.002824 0.010606 0.007336 0.000000 0.007775 0.000000
# 3 -0.008782 0.007336 0.077685 0.000000 0.025101 0.000000
# 4 0.000000 0.000000 0.000000 0.116039 0.000000 0.009681
# 5 -0.001542 0.007775 0.025101 0.000000 0.121858 0.000000
# 6 0.000000 0.000000 0.000000 0.009681 0.000000 0.065612
#
#
# Mechanical properties :
#
#
# Convention : Reuss Voigt Hill
#
# Bulk Modulus (GPa) = 11.30251 37.60094 24.45173
# Shear Modulus (GPa) = 11.40105 21.66681 16.53393
#
# Velocity S-wave (km/s) = 2.45579 3.38545 2.95738
# Velocity P-wave (km/s) = 3.74432 5.93057 4.95942
#
# Compressibility (1/GPa) = 0.08847590
#
# Stress axis : x y z
#
# Youngs Moduli (GPa) = 114.62134 94.28494 12.87250
#
# Poissons Ratio (x) = 0.26630 0.11304
# Poissons Ratio (y) = 0.32373 -0.09444
# Poissons Ratio (z) = 1.00659 -0.69172
#
# Static dielectric constant tensor:
#      x y z
#    x 1.674590 0.000000 0.024660 
#    y 0.000000 1.958450 0.000000 
#    z 0.024660 0.000000 1.708180 
# 
# From -- ./inp_files/222341.got.cif
#   From: 2010.05.17/outbox.cif.g08.bks.cpg/sg15_112_cif.got.tgz:222341.got - 2010.06.03 18:47:42.
