data_PCOD9273992
_publ_section_title
;
Structure prediction by ZEFSAII (Michael W. Deem and Ramdas Pophale) SiO2 
 PCOD9273992
Probable space group: C 2/C
;
_chemical_formula_sum "Si O2"
_cell_formula_units_Z 60
_cell_length_a 11.806903
_cell_length_b 11.138401
_cell_length_c 18.980108
_cell_angle_alpha 90.000000
_cell_angle_beta 89.726564
_cell_angle_gamma 90.000000
_cell_volume 2496.045962
_symmetry_space_group_name_H-M "C 2/C"
_symmetry_group_IT_number 15
_symmetry_cell_setting 'monoclinic'
loop_
_space_group_symop_operation_xyz
x,y,z
-x,y,1/2-z
-x,-y,-z
x,-y,1/2+z
1/2+x,1/2+y,z
1/2-x,1/2+y,1/2-z
1/2-x,1/2-y,-z
1/2+x,1/2-y,1/2+z
loop_
_atom_site_type_symbol
_atom_site_label
_atom_site_fract_x
_atom_site_fract_y
_atom_site_fract_z
Si Si1 0.955952 0.459711 0.120447
Si Si2 0.037520 0.796837 0.648407
Si Si3 0.553944 0.631230 0.998724
Si Si4 0.129580 0.350838 0.774374
Si Si5 0.227195 0.871135 0.858937
Si Si6 0.393902 0.145130 0.473409
Si Si7 0.338882 0.621762 0.645467
Si Si8 0.500000 0.514607 0.250000
O O1 0.025120 0.346763 0.153950
O O2 0.881402 0.524698 0.180948
O O3 0.036252 0.556917 0.080381
O O4 0.888708 0.407270 0.052534
O O5 0.096071 0.830094 0.575103
O O6 0.904857 0.838122 0.641475
O O7 0.080053 0.888237 0.708779
O O8 0.463179 0.731718 0.976833
O O9 0.644965 0.626840 0.937564
O O10 0.500000 0.500000 0.000000
O O11 0.200935 0.318532 0.704458
O O12 0.178578 0.253993 0.828306
O O13 0.000000 0.332271 0.750000
O O14 0.275607 0.839841 0.934764
O O15 0.245367 0.012668 0.843104
O O16 0.445487 0.570793 0.691107
#
# Coordination Sequence:
#
# PCOD9273992 Si02
#       8
#     8   8   8   8   8   8   8   4
#     4  10  22  41  64  89 121 175 214 250 316 403
#     4  10  24  39  64  95 132 161 215 265 325 378
#     4  11  19  41  66  93 123 171 210 258 316 392
#     4  12  23  42  67  89 126 182 212 257 329 390
#     4  11  24  41  62 100 125 164 213 280 311 378
#     4  10  22  42  67  90 128 166 220 260 318 383
#     4  11  23  42  65  95 130 165 225 259 320 385
#     4  10  20  38  60  94 128 168 198 264 320 388
#
# _framework density 24.038018999999998
#
# number of rings (size 3 to 8) (size 9 to 14) (size 15 to 20)
#    0.000    1.333    6.000    0.000    2.800    2.133 
#    2.400    6.000    0.000    0.000    0.000    0.000 
#    0.000    0.000    0.000    0.000    0.000    0.000 
#
# Total GULP energy -167491.972350 kJ/mol
# GULP energy per Si atom -5583.065745 kJ/mol
# Density = 2.398331 g / cm^3
# Si number density = 24.038019 Si / 1000 Ang^3
#
#
#
# Elastic Constant Matrix: (Units=GPa)
#
#
# Indices 1 2 3 4 5 6 
#
# 1 33.4200 -21.4399 -6.2433 0.0000 9.3551 0.0000
# 2 -21.4399 124.1214 1.1898 0.0000 3.7092 0.0000
# 3 -6.2433 1.1898 103.4708 0.0000 -2.7350 0.0000
# 4 0.0000 0.0000 0.0000 23.7080 0.0000 -8.9908
# 5 9.3551 3.7092 -2.7350 0.0000 22.5907 0.0000
# 6 0.0000 0.0000 0.0000 -8.9908 0.0000 13.1559
#
#
#
# Elastic Compliance Matrix: (Units=1/GPa)
#
#
# Indices 1 2 3 4 5 6 
#
# 1 0.039924 0.007402 0.001861 0.000000 -0.017523 0.000000
# 2 0.007402 0.009470 0.000216 0.000000 -0.004594 0.000000
# 3 0.001861 0.000216 0.009784 0.000000 0.000379 0.000000
# 4 0.000000 0.000000 0.000000 0.056936 0.000000 0.038910
# 5 -0.017523 -0.004594 0.000379 0.000000 0.052323 0.000000
# 6 0.000000 0.000000 0.000000 0.038910 0.000000 0.102602
#
#
# Mechanical properties :
#
#
# Convention : Reuss Voigt Hill
#
# Bulk Modulus (GPa) = 12.79818 23.11393 17.95605
# Shear Modulus (GPa) = 17.97742 31.05797 24.51769
#
# Velocity S-wave (km/s) = 2.73770 3.59839 3.19714
# Velocity P-wave (km/s) = 3.91523 5.18662 4.59511
#
# Compressibility (1/GPa) = 0.07813613
#
# Stress axis : x y z
#
# Youngs Moduli (GPa) = 25.04786 105.59204 102.20406
#
# Poissons Ratio (x) = -0.78159 -0.19017
# Poissons Ratio (y) = -0.18540 -0.02211
# Poissons Ratio (z) = -0.04661 -0.02284
#
# Static dielectric constant tensor:
#      x y z
#    x 1.974340 0.000000 0.029270 
#    y 0.000000 1.946170 0.000000 
#    z 0.029270 0.000000 1.921570 
# 
# From -- ./inp_files/203996.got.cif
#   From: 2010.05.17/outbox.cif.g08.bks.cpg/sg15_102_cif.got.tgz:203996.got - 2010.06.03 18:47:42.
