data_PCOD9273264
_publ_section_title
;
Structure prediction by ZEFSAII (Michael W. Deem and Ramdas Pophale) SiO2 
 PCOD9273264
Probable space group: C 2/C
;
_chemical_formula_sum "Si O2"
_cell_formula_units_Z 56
_cell_length_a 8.368380
_cell_length_b 18.436877
_cell_length_c 17.466002
_cell_angle_alpha 90.000000
_cell_angle_beta 106.845806
_cell_angle_gamma 90.000000
_cell_volume 2579.135638
_symmetry_space_group_name_H-M "C 2/C"
_symmetry_group_IT_number 15
_symmetry_cell_setting 'monoclinic'
loop_
_space_group_symop_operation_xyz
x,y,z
-x,y,1/2-z
-x,-y,-z
x,-y,1/2+z
1/2+x,1/2+y,z
1/2-x,1/2+y,1/2-z
1/2-x,1/2-y,-z
1/2+x,1/2-y,1/2+z
loop_
_atom_site_type_symbol
_atom_site_label
_atom_site_fract_x
_atom_site_fract_y
_atom_site_fract_z
Si Si1 0.670631 0.917416 0.092997
Si Si2 0.613404 0.436086 0.688660
Si Si3 0.662678 0.184607 0.726729
Si Si4 0.090666 0.925057 0.983643
Si Si5 0.346109 0.826070 0.776226
Si Si6 0.069274 0.902034 0.145039
Si Si7 0.081526 0.424207 0.572428
O O1 0.629162 0.847158 0.137882
O O2 0.871387 0.916179 0.123791
O O3 0.601738 0.995638 0.113840
O O4 0.591124 0.913692 0.997220
O O5 0.500000 0.431633 0.750000
O O6 0.518205 0.400659 0.603695
O O7 0.786377 0.397149 0.723864
O O8 0.643861 0.519244 0.672934
O O9 0.500000 0.161050 0.750000
O O10 0.695857 0.269297 0.746125
O O11 0.832539 0.149765 0.784409
O O12 0.274319 0.930555 0.972823
O O13 0.098825 0.878389 0.061574
O O14 0.000000 0.000000 0.000000
O O15 0.500000 0.794742 0.750000
O O16 0.386154 0.857276 0.865943
#
# Coordination Sequence:
#
# PCOD9273264 Si02
#       7
#     8   8   8   8   8   8   8
#     4  11  23  42  71 102 141 171 226 286 345 404
#     4  11  20  39  68  98 133 175 221 273 340 395
#     4  12  27  47  66  94 135 183 235 282 343 414
#     4  10  20  37  64 104 129 170 217 272 338 396
#     4  12  27  44  66  97 135 183 232 278 338 417
#     4  11  22  41  71 102 134 178 222 283 343 404
#     4  11  23  42  70 107 139 176 224 286 346 406
#
# _framework density 21.712700000000002
#
# number of rings (size 3 to 8) (size 9 to 14) (size 15 to 20)
#    0.000    0.857    4.286    4.286    2.000    3.429 
#    2.571    2.857    0.000    0.000    0.000    0.000 
#    0.000    0.000    0.000    0.000    0.000    0.000 
#
# Total GULP energy -156202.183856 kJ/mol
# GULP energy per Si atom -5578.649423 kJ/mol
# Density = 2.166328 g / cm^3
# Si number density = 21.712700 Si / 1000 Ang^3
#
#
#
# Elastic Constant Matrix: (Units=GPa)
#
#
# Indices 1 2 3 4 5 6 
#
# 1 59.6035 18.1014 24.6337 0.0000 13.2188 0.0000
# 2 18.1014 75.5189 37.8703 0.0000 5.2490 0.0000
# 3 24.6337 37.8703 127.7214 0.0000 4.5291 0.0000
# 4 0.0000 0.0000 0.0000 21.4296 0.0000 5.1729
# 5 13.2188 5.2490 4.5291 0.0000 29.7860 0.0000
# 6 0.0000 0.0000 0.0000 5.1729 0.0000 19.7094
#
#
#
# Elastic Compliance Matrix: (Units=1/GPa)
#
#
# Indices 1 2 3 4 5 6 
#
# 1 0.020666 -0.002971 -0.002813 0.000000 -0.008220 0.000000
# 2 -0.002971 0.016107 -0.004171 0.000000 -0.000886 0.000000
# 3 -0.002813 -0.004171 0.009590 0.000000 0.000525 0.000000
# 4 0.000000 0.000000 0.000000 0.049821 0.000000 -0.013076
# 5 -0.008220 -0.000886 0.000525 0.000000 0.037297 0.000000
# 6 0.000000 0.000000 0.000000 -0.013076 0.000000 0.054169
#
#
# Mechanical properties :
#
#
# Convention : Reuss Voigt Hill
#
# Bulk Modulus (GPa) = 37.80546 47.11718 42.46132
# Shear Modulus (GPa) = 23.10756 26.33423 24.72090
#
# Velocity S-wave (km/s) = 3.26581 3.48638 3.37789
# Velocity P-wave (km/s) = 5.62763 6.16067 5.90017
#
# Compressibility (1/GPa) = 0.02645121
#
# Stress axis : x y z
#
# Youngs Moduli (GPa) = 48.38950 62.08358 104.27122
#
# Poissons Ratio (x) = 0.18447 0.29335
# Poissons Ratio (y) = 0.14378 0.43496
# Poissons Ratio (z) = 0.13613 0.25898
#
# Static dielectric constant tensor:
#      x y z
#    x 1.953520 0.000000 -0.069690 
#    y 0.000000 1.807200 0.000000 
#    z -0.069690 0.000000 1.864300 
# 
# From -- ./inp_files/191047.got.cif
#   From: 2010.05.17/outbox.cif.g08.bks.cpg/sg15_96_cif.got.tgz:191047.got - 2010.06.03 18:47:42.
