data_PCOD9273612
_publ_section_title
;
Structure prediction by ZEFSAII (Michael W. Deem and Ramdas Pophale) SiO2 
 PCOD9273612
Probable space group: C 2/C
;
_chemical_formula_sum "Si O2"
_cell_formula_units_Z 56
_cell_length_a 8.861268
_cell_length_b 11.409124
_cell_length_c 25.933554
_cell_angle_alpha 90.000000
_cell_angle_beta 108.066241
_cell_angle_gamma 90.000000
_cell_volume 2492.602765
_symmetry_space_group_name_H-M "C 2/C"
_symmetry_group_IT_number 15
_symmetry_cell_setting 'monoclinic'
loop_
_space_group_symop_operation_xyz
x,y,z
-x,y,1/2-z
-x,-y,-z
x,-y,1/2+z
1/2+x,1/2+y,z
1/2-x,1/2+y,1/2-z
1/2-x,1/2-y,-z
1/2+x,1/2-y,1/2+z
loop_
_atom_site_type_symbol
_atom_site_label
_atom_site_fract_x
_atom_site_fract_y
_atom_site_fract_z
Si Si1 0.421964 0.315405 0.830113
Si Si2 0.570702 0.901218 0.608799
Si Si3 0.279044 0.804839 0.095347
Si Si4 0.951402 0.080652 0.854852
Si Si5 0.226730 0.741511 0.412241
Si Si6 0.141136 0.287628 0.724552
Si Si7 0.990311 0.606719 0.959368
O O1 0.571754 0.230611 0.852726
O O2 0.481674 0.448526 0.842357
O O3 0.307513 0.292337 0.866826
O O4 0.311562 0.301039 0.768815
O O5 0.670816 0.812239 0.583432
O O6 0.386094 0.864582 0.582859
O O7 0.619650 0.869268 0.672134
O O8 0.589022 0.035923 0.597209
O O9 0.177219 0.904405 0.112998
O O10 0.348961 0.842711 0.047891
O O11 0.884898 0.156615 0.800030
O O12 0.103741 0.152092 0.890583
O O13 0.371860 0.788724 0.462009
O O14 0.000000 0.313296 0.750000
O O15 0.000000 0.500000 0.000000
#
# Coordination Sequence:
#
# PCOD9273612 Si02
#       7
#     8   8   8   8   8   8   8
#     4  11  19  36  59  82 117 159 185 233 285 337
#     4  10  21  40  57  80 125 151 186 253 290 337
#     4   9  22  38  57  88 114 145 201 236 282 357
#     4  10  21  38  57  81 120 155 187 239 293 338
#     4   9  20  39  59  82 118 147 193 238 287 354
#     4  10  20  38  55  89 116 153 200 230 285 359
#     4  11  23  39  63  88 112 156 200 245 304 348
#
# _framework density 22.466474999999999
#
# number of rings (size 3 to 8) (size 9 to 14) (size 15 to 20)
#    0.000    2.286    2.857    1.714    0.000    5.714 
#    5.143    2.857    0.000    0.000    0.000    0.000 
#    0.000    0.000    0.000    0.000    0.000    0.000 
#
# Total GULP energy -156438.137944 kJ/mol
# GULP energy per Si atom -5587.076355 kJ/mol
# Density = 2.241534 g / cm^3
# Si number density = 22.466475 Si / 1000 Ang^3
#
#
#
# Elastic Constant Matrix: (Units=GPa)
#
#
# Indices 1 2 3 4 5 6 
#
# 1 88.1837 6.7911 -4.8259 0.0000 -10.1549 0.0000
# 2 6.7911 54.3204 2.1422 0.0000 -5.7510 0.0000
# 3 -4.8259 2.1422 38.3102 0.0000 -10.4089 0.0000
# 4 0.0000 0.0000 0.0000 27.5428 0.0000 0.7921
# 5 -10.1549 -5.7510 -10.4089 0.0000 20.8048 0.0000
# 6 0.0000 0.0000 0.0000 0.7921 0.0000 34.3100
#
#
#
# Elastic Compliance Matrix: (Units=1/GPa)
#
#
# Indices 1 2 3 4 5 6 
#
# 1 0.012501 -0.000893 0.003721 0.000000 0.007717 0.000000
# 2 -0.000893 0.019034 0.000156 0.000000 0.004904 0.000000
# 3 0.003721 0.000156 0.031326 0.000000 0.017532 0.000000
# 4 0.000000 0.000000 0.000000 0.036331 0.000000 -0.000839
# 5 0.007717 0.004904 0.017532 0.000000 0.061960 0.000000
# 6 0.000000 0.000000 0.000000 -0.000839 0.000000 0.029165
#
#
# Mechanical properties :
#
#
# Convention : Reuss Voigt Hill
#
# Bulk Modulus (GPa) = 14.52858 21.00321 17.76589
# Shear Modulus (GPa) = 24.12053 28.31197 26.21625
#
# Velocity S-wave (km/s) = 3.28017 3.55376 3.41971
# Velocity P-wave (km/s) = 4.56365 5.11937 4.84948
#
# Compressibility (1/GPa) = 0.06882985
#
# Stress axis : x y z
#
# Youngs Moduli (GPa) = 79.99358 52.53781 31.92201
#
# Poissons Ratio (x) = 0.04690 -0.11879
# Poissons Ratio (y) = 0.07140 -0.00497
# Poissons Ratio (z) = -0.29768 -0.00817
#
# Static dielectric constant tensor:
#      x y z
#    x 1.863160 0.000000 0.000590 
#    y 0.000000 1.774050 0.000000 
#    z 0.000590 0.000000 1.885120 
# 
# From -- ./inp_files/307241.got.cif
#   From: 2010.05.17/outbox.cif.g08.bks.cpg/sg15_154_cif.got.tgz:307241.got - 2010.06.03 18:47:42.
