data_PCOD9273200
_publ_section_title
;
Structure prediction by ZEFSAII (Michael W. Deem and Ramdas Pophale) SiO2 
 PCOD9273200
Probable space group: C 2/C
;
_chemical_formula_sum "Si O2"
_cell_formula_units_Z 52
_cell_length_a 18.254980
_cell_length_b 18.290341
_cell_length_c 13.909331
_cell_angle_alpha 90.000000
_cell_angle_beta 145.136267
_cell_angle_gamma 90.000000
_cell_volume 2654.739131
_symmetry_space_group_name_H-M "C 2/C"
_symmetry_group_IT_number 15
_symmetry_cell_setting 'monoclinic'
loop_
_space_group_symop_operation_xyz
x,y,z
-x,y,1/2-z
-x,-y,-z
x,-y,1/2+z
1/2+x,1/2+y,z
1/2-x,1/2+y,1/2-z
1/2-x,1/2-y,-z
1/2+x,1/2-y,1/2+z
loop_
_atom_site_type_symbol
_atom_site_label
_atom_site_fract_x
_atom_site_fract_y
_atom_site_fract_z
Si Si1 0.537007 0.023196 0.893379
Si Si2 0.500000 0.510458 0.750000
Si Si3 0.760523 0.271681 0.900726
Si Si4 0.997626 0.753280 0.514150
Si Si5 0.694502 0.442833 0.833205
Si Si6 0.904337 0.607030 0.348378
Si Si7 0.402577 0.401636 0.962821
O O1 0.500000 0.056594 0.750000
O O2 0.450098 0.953067 0.821303
O O3 0.686463 0.002837 0.046732
O O4 0.537937 0.075678 0.987731
O O5 0.616732 0.459201 0.844454
O O6 0.461478 0.559381 0.617971
O O7 0.635130 0.240850 0.712080
O O8 0.747569 0.360040 0.887555
O O9 0.750000 0.250000 0.000000
O O10 0.886949 0.247419 0.977672
O O11 0.961092 0.687847 0.403122
O O12 0.018192 0.829370 0.480613
O O13 0.605761 0.448478 0.644196
O O14 0.749891 0.612574 0.182268
#
# Coordination Sequence:
#
# PCOD9273200 Si02
#       7
#     8   4   8   8   8   8   8
#     4  10  20  37  63  91 123 162 213 262 318 379
#     4  12  24  42  68  90 128 176 218 264 342 390
#     4  11  24  38  65  97 130 168 217 260 328 391
#     4  11  21  43  63  89 136 166 209 272 318 383
#     4  10  23  41  61  96 131 159 216 273 320 386
#     4  10  21  41  62  91 130 162 213 271 318 387
#     4  10  23  44  62  95 128 168 219 270 327 389
#
# _framework density 19.587613000000001
#
# number of rings (size 3 to 8) (size 9 to 14) (size 15 to 20)
#    0.000    1.538    4.615    1.846    6.462    1.231 
#    1.385    0.769    0.000    0.000    0.000    0.000 
#    0.000    0.000    0.000    0.000    0.000    0.000 
#
# Total GULP energy -144966.856824 kJ/mol
# GULP energy per Si atom -5575.648339 kJ/mol
# Density = 1.954303 g / cm^3
# Si number density = 19.587613 Si / 1000 Ang^3
#
#
#
# Elastic Constant Matrix: (Units=GPa)
#
#
# Indices 1 2 3 4 5 6 
#
# 1 96.9425 51.6777 28.5250 0.0000 16.7666 0.0000
# 2 51.6777 66.9919 47.8953 0.0000 17.5613 0.0000
# 3 28.5250 47.8953 54.4148 0.0000 4.7445 0.0000
# 4 0.0000 0.0000 0.0000 23.4249 0.0000 9.3500
# 5 16.7666 17.5613 4.7445 0.0000 47.2198 0.0000
# 6 0.0000 0.0000 0.0000 9.3500 0.0000 41.7091
#
#
#
# Elastic Compliance Matrix: (Units=1/GPa)
#
#
# Indices 1 2 3 4 5 6 
#
# 1 0.018670 -0.019985 0.007802 0.000000 0.000019 0.000000
# 2 -0.019985 0.068995 -0.049063 0.000000 -0.013634 0.000000
# 3 0.007802 -0.049063 0.056619 0.000000 0.009788 0.000000
# 4 0.000000 0.000000 0.000000 0.046885 0.000000 -0.010510
# 5 0.000019 -0.013634 0.009788 0.000000 0.025258 0.000000
# 6 0.000000 0.000000 0.000000 -0.010510 0.000000 0.026332
#
#
# Mechanical properties :
#
#
# Convention : Reuss Voigt Hill
#
# Bulk Modulus (GPa) = 45.89073 52.72726 49.30900
# Shear Modulus (GPa) = 13.42229 28.48751 20.95490
#
# Velocity S-wave (km/s) = 2.62056 3.81775 3.27433
# Velocity P-wave (km/s) = 5.71277 6.81254 6.28675
#
# Compressibility (1/GPa) = 0.02179089
#
# Stress axis : x y z
#
# Youngs Moduli (GPa) = 53.56248 14.49384 17.66184
#
# Poissons Ratio (x) = 0.28965 -0.13779
# Poissons Ratio (y) = 1.07043 0.86655
# Poissons Ratio (z) = -0.41787 0.71112
#
# Static dielectric constant tensor:
#      x y z
#    x 1.725970 0.000000 0.006970 
#    y 0.000000 1.708600 0.000000 
#    z 0.006970 0.000000 1.714120 
# 
# From -- ./inp_files/163643.got.cif
#   From: 2010.05.17/outbox.cif.g08.bks.cpg/sg15_82_cif.got.tgz:163643.got - 2010.06.03 18:47:42.
