data_PCOD9273071
_publ_section_title
;
Structure prediction by ZEFSAII (Michael W. Deem and Ramdas Pophale) SiO2 
 PCOD9273071
Probable space group: C 2/C
;
_chemical_formula_sum "Si O2"
_cell_formula_units_Z 60
_cell_length_a 11.415794
_cell_length_b 26.631778
_cell_length_c 12.463661
_cell_angle_alpha 90.000000
_cell_angle_beta 56.172443
_cell_angle_gamma 90.000000
_cell_volume 3147.783943
_symmetry_space_group_name_H-M "C 2/C"
_symmetry_group_IT_number 15
_symmetry_cell_setting 'monoclinic'
loop_
_space_group_symop_operation_xyz
x,y,z
-x,y,1/2-z
-x,-y,-z
x,-y,1/2+z
1/2+x,1/2+y,z
1/2-x,1/2+y,1/2-z
1/2-x,1/2-y,-z
1/2+x,1/2-y,1/2+z
loop_
_atom_site_type_symbol
_atom_site_label
_atom_site_fract_x
_atom_site_fract_y
_atom_site_fract_z
Si Si1 0.364485 0.555773 0.633140
Si Si2 0.891586 0.839004 0.705350
Si Si3 0.000000 0.881159 0.250000
Si Si4 0.940118 0.760525 0.505905
Si Si5 0.823086 0.792901 0.276138
Si Si6 0.572035 0.451324 0.828336
Si Si7 0.187987 0.703275 0.466001
Si Si8 0.667992 0.856552 0.174105
O O1 0.468127 0.584177 0.664128
O O2 0.335656 0.500118 0.691977
O O3 0.448277 0.550773 0.479511
O O4 0.230061 0.590901 0.682606
O O5 0.949948 0.812014 0.569785
O O6 0.855356 0.896918 0.704851
O O7 0.000000 0.836537 0.750000
O O8 0.762273 0.806592 0.815564
O O9 0.131595 0.842599 0.180017
O O10 0.778624 0.741976 0.600357
O O11 0.033684 0.769520 0.350719
O O12 0.027981 0.717761 0.524352
O O13 0.734625 0.814584 0.219077
O O14 0.500000 0.457662 0.750000
O O15 0.250000 0.750000 0.500000
O O16 0.215110 0.656012 0.528742
O O17 0.500000 0.854532 0.250000
#
# Coordination Sequence:
#
# PCOD9273071 Si02
#       8
#     8   8   4   8   8   8   8   8
#     4  10  21  39  62  89 119 155 206 263 306 367
#     4  11  19  30  53  82 122 153 196 250 305 363
#     4  10  22  42  58  84 118 164 208 248 294 378
#     4  12  21  34  54  89 119 160 196 252 301 365
#     4  11  23  36  57  81 121 163 207 242 303 362
#     4  10  20  37  62  91 113 151 209 265 313 353
#     4  12  20  30  50  86 125 156 191 244 316 371
#     4  11  20  33  55  86 120 155 195 250 315 370
#
# _framework density 19.061029000000001
#
# number of rings (size 3 to 8) (size 9 to 14) (size 15 to 20)
#    0.000    1.067    6.000    3.200    0.000    0.533 
#    0.000    0.000    0.000    6.400    1.733    0.000 
#    0.000    0.000    0.000    0.000    0.000    0.000 
#
# Total GULP energy -167323.910959 kJ/mol
# GULP energy per Si atom -5577.463699 kJ/mol
# Density = 1.901764 g / cm^3
# Si number density = 19.061029 Si / 1000 Ang^3
#
#
#
# Elastic Constant Matrix: (Units=GPa)
#
#
# Indices 1 2 3 4 5 6 
#
# 1 63.4393 28.2666 41.6559 0.0000 5.5221 0.0000
# 2 28.2666 122.4875 39.3591 0.0000 1.5173 0.0000
# 3 41.6559 39.3591 108.8094 0.0000 -1.0064 0.0000
# 4 0.0000 0.0000 0.0000 23.5737 0.0000 0.7574
# 5 5.5221 1.5173 -1.0064 0.0000 30.8680 0.0000
# 6 0.0000 0.0000 0.0000 0.7574 0.0000 27.6246
#
#
#
# Elastic Compliance Matrix: (Units=1/GPa)
#
#
# Indices 1 2 3 4 5 6 
#
# 1 0.022303 -0.002648 -0.007619 0.000000 -0.004108 0.000000
# 2 -0.002648 0.009562 -0.002446 0.000000 -0.000076 0.000000
# 3 -0.007619 -0.002446 0.013009 0.000000 0.001907 0.000000
# 4 0.000000 0.000000 0.000000 0.042457 0.000000 -0.001164
# 5 -0.004108 -0.000076 0.001907 0.000000 0.033197 0.000000
# 6 0.000000 0.000000 0.000000 -0.001164 0.000000 0.036232
#
#
# Mechanical properties :
#
#
# Convention : Reuss Voigt Hill
#
# Bulk Modulus (GPa) = 51.41419 57.03327 54.22373
# Shear Modulus (GPa) = 26.50156 28.77690 27.63923
#
# Velocity S-wave (km/s) = 3.73279 3.88973 3.81207
# Velocity P-wave (km/s) = 6.75354 7.08235 6.91990
#
# Compressibility (1/GPa) = 0.01944988
#
# Stress axis : x y z
#
# Youngs Moduli (GPa) = 44.83696 104.58034 76.86777
#
# Poissons Ratio (x) = 0.27692 0.58562
# Poissons Ratio (y) = 0.11873 0.18800
# Poissons Ratio (z) = 0.34159 0.25578
#
# Static dielectric constant tensor:
#      x y z
#    x 1.692340 0.000000 0.010520 
#    y 0.000000 1.682230 0.000000 
#    z 0.010520 0.000000 1.721830 
# 
# From -- ./inp_files/91835.got.cif
#   From: 2010.05.17/outbox.cif.g08.bks.cpg/sg15_46_cif.got.tgz:91835.got - 2010.06.03 18:47:42.
