data_PCOD9273121
_publ_section_title
;
Structure prediction by ZEFSAII (Michael W. Deem and Ramdas Pophale) SiO2 
 PCOD9273121
Probable space group: C 2/C
;
_chemical_formula_sum "Si O2"
_cell_formula_units_Z 52
_cell_length_a 11.660159
_cell_length_b 11.160178
_cell_length_c 16.309489
_cell_angle_alpha 90.000000
_cell_angle_beta 110.598123
_cell_angle_gamma 90.000000
_cell_volume 1986.665580
_symmetry_space_group_name_H-M "C 2/C"
_symmetry_group_IT_number 15
_symmetry_cell_setting 'monoclinic'
loop_
_space_group_symop_operation_xyz
x,y,z
-x,y,1/2-z
-x,-y,-z
x,-y,1/2+z
1/2+x,1/2+y,z
1/2-x,1/2+y,1/2-z
1/2-x,1/2-y,-z
1/2+x,1/2-y,1/2+z
loop_
_atom_site_type_symbol
_atom_site_label
_atom_site_fract_x
_atom_site_fract_y
_atom_site_fract_z
Si Si1 0.885113 0.418202 0.310743
Si Si2 0.500000 0.316545 0.250000
Si Si3 0.604841 0.067577 0.443013
Si Si4 0.737511 0.288718 0.629806
Si Si5 0.101102 0.317486 0.517758
Si Si6 0.866814 0.036093 0.274872
Si Si7 0.647620 0.261861 0.849494
O O1 0.991397 0.494134 0.140911
O O2 0.827952 0.339565 0.371618
O O3 0.778026 0.509495 0.265173
O O4 0.881162 0.328399 0.231901
O O5 0.620955 0.240052 0.303478
O O6 0.443452 0.414107 0.300275
O O7 0.724837 0.131614 0.438910
O O8 0.519291 0.171080 0.458768
O O9 0.637663 0.956977 0.510989
O O10 0.639440 0.372853 0.651948
O O11 0.208646 0.254818 0.594268
O O12 0.090175 0.263857 0.423812
O O13 0.886662 0.108755 0.194703
#
# Coordination Sequence:
#
# PCOD9273121 Si02
#       7
#     8   4   8   8   8   8   8
#     4  10  21  38  68 100 127 170 236 278 319 395
#     4  10  22  36  62  98 128 164 212 294 334 376
#     4  11  22  43  66  98 131 181 227 271 338 410
#     4  10  22  38  65  98 133 169 221 288 328 383
#     4  10  23  39  63  94 140 180 213 269 352 410
#     4  10  20  37  62  94 133 164 222 282 326 386
#     4  10  21  40  61  95 139 174 216 284 335 391
#
# _framework density 26.174510000000001
#
# number of rings (size 3 to 8) (size 9 to 14) (size 15 to 20)
#    0.000    1.846    1.538    1.846    4.308    4.308 
#    2.769    3.077    0.000    9.231    0.000    0.000 
#    0.000    0.000    0.000    0.000    0.000    0.000 
#
# Total GULP energy -145091.496897 kJ/mol
# GULP energy per Si atom -5580.442188 kJ/mol
# Density = 2.611494 g / cm^3
# Si number density = 26.174510 Si / 1000 Ang^3
#
#
#
# Elastic Constant Matrix: (Units=GPa)
#
#
# Indices 1 2 3 4 5 6 
#
# 1 121.5201 26.5031 45.6098 0.0000 -2.3392 0.0000
# 2 26.5031 71.5582 24.7918 0.0000 -13.5177 0.0000
# 3 45.6098 24.7918 93.3947 0.0000 -10.1210 0.0000
# 4 0.0000 0.0000 0.0000 38.1027 0.0000 -7.2774
# 5 -2.3392 -13.5177 -10.1210 0.0000 50.2481 0.0000
# 6 0.0000 0.0000 0.0000 -7.2774 0.0000 63.0894
#
#
#
# Elastic Compliance Matrix: (Units=1/GPa)
#
#
# Indices 1 2 3 4 5 6 
#
# 1 0.010468 -0.002504 -0.004567 0.000000 -0.001106 0.000000
# 2 -0.002504 0.016576 -0.002767 0.000000 0.003785 0.000000
# 3 -0.004567 -0.002767 0.013871 0.000000 0.001837 0.000000
# 4 0.000000 0.000000 0.000000 0.026836 0.000000 0.003096
# 5 -0.001106 0.003785 0.001837 0.000000 0.021238 0.000000
# 6 0.000000 0.000000 0.000000 0.003096 0.000000 0.016208
#
#
# Mechanical properties :
#
#
# Convention : Reuss Voigt Hill
#
# Bulk Modulus (GPa) = 47.08389 53.36472 50.22430
# Shear Modulus (GPa) = 37.89228 42.92593 40.40911
#
# Velocity S-wave (km/s) = 3.80897 4.05407 3.93343
# Velocity P-wave (km/s) = 6.11325 6.50740 6.31340
#
# Compressibility (1/GPa) = 0.02123869
#
# Stress axis : x y z
#
# Youngs Moduli (GPa) = 95.52815 60.32935 72.09084
#
# Poissons Ratio (x) = 0.15104 0.32927
# Poissons Ratio (y) = 0.23917 0.19949
# Poissons Ratio (z) = 0.43632 0.16694
#
# Static dielectric constant tensor:
#      x y z
#    x 2.186210 0.000000 -0.019470 
#    y 0.000000 2.039480 0.000000 
#    z -0.019470 0.000000 2.221480 
# 
# From -- ./inp_files/243091.got.cif
#   From: 2010.05.17/outbox.cif.g08.bks.cpg/sg15_122_cif.got.tgz:243091.got - 2010.06.03 18:47:42.
