data_PCOD9273169
_publ_section_title
;
Structure prediction by ZEFSAII (Michael W. Deem and Ramdas Pophale) SiO2 
 PCOD9273169
Probable space group: C 2/C
;
_chemical_formula_sum "Si O2"
_cell_formula_units_Z 64
_cell_length_a 16.965260
_cell_length_b 9.132777
_cell_length_c 18.908214
_cell_angle_alpha 90.000000
_cell_angle_beta 70.964417
_cell_angle_gamma 90.000000
_cell_volume 2769.433770
_symmetry_space_group_name_H-M "C 2/C"
_symmetry_group_IT_number 15
_symmetry_cell_setting 'monoclinic'
loop_
_space_group_symop_operation_xyz
x,y,z
-x,y,1/2-z
-x,-y,-z
x,-y,1/2+z
1/2+x,1/2+y,z
1/2-x,1/2+y,1/2-z
1/2-x,1/2-y,-z
1/2+x,1/2-y,1/2+z
loop_
_atom_site_type_symbol
_atom_site_label
_atom_site_fract_x
_atom_site_fract_y
_atom_site_fract_z
Si Si1 0.821127 0.213535 0.537496
Si Si2 0.941911 0.868492 0.896679
Si Si3 0.287950 0.611343 0.333877
Si Si4 0.323781 0.366994 0.568887
Si Si5 0.059160 0.597526 0.303661
Si Si6 0.943543 0.811884 0.408986
Si Si7 0.826093 0.209839 0.816930
Si Si8 0.898557 0.732684 0.687018
O O1 0.750000 0.250000 0.500000
O O2 0.910567 0.227332 0.472635
O O3 0.795271 0.319660 0.608756
O O4 0.817466 0.042178 0.560832
O O5 0.857280 0.891838 0.876647
O O6 0.008674 0.793239 0.827545
O O7 0.977486 0.024628 0.912746
O O8 0.282564 0.443158 0.310433
O O9 0.329838 0.711886 0.262201
O O10 0.368884 0.298541 0.487049
O O11 0.233469 0.304447 0.615255
O O12 0.376547 0.309045 0.619465
O O13 0.137311 0.697144 0.257530
O O14 0.091984 0.440233 0.316531
O O15 0.000000 0.577895 0.250000
O O16 0.008068 0.680887 0.380214
O O17 0.906236 0.824611 0.341150
#
# Coordination Sequence:
#
# PCOD9273169 Si02
#       8
#     8   8   8   8   8   8   8   8
#     4   9  20  39  64  90 115 152 206 257 300 354
#     4   9  19  38  61  87 117 156 205 254 302 359
#     4  10  20  37  63  89 115 159 208 253 305 361
#     4  11  24  39  57  89 127 160 194 246 314 372
#     4  10  21  38  62  88 115 158 212 262 304 357
#     4   9  20  39  62  84 112 153 204 257 306 357
#     4  10  21  39  63  86 115 154 204 259 303 356
#     4  12  24  36  56  88 127 162 196 246 306 372
#
# _framework density 23.109416
#
# number of rings (size 3 to 8) (size 9 to 14) (size 15 to 20)
#    0.000    2.000    0.000    3.750    0.000   10.500 
#    0.000    2.500    0.000    0.000    0.000    0.000 
#    0.000    0.000    0.000    0.000    0.000    0.000 
#
# Total GULP energy -178724.349105 kJ/mol
# GULP energy per Si atom -5585.135910 kJ/mol
# Density = 2.305682 g / cm^3
# Si number density = 23.109416 Si / 1000 Ang^3
#
#
#
# Elastic Constant Matrix: (Units=GPa)
#
#
# Indices 1 2 3 4 5 6 
#
# 1 46.4156 46.6651 30.8225 0.0000 -6.1395 0.0000
# 2 46.6651 84.9226 -21.5769 0.0000 19.1224 0.0000
# 3 30.8225 -21.5769 -13.1354 0.0000 25.6193 0.0000
# 4 0.0000 0.0000 0.0000 53.6079 0.0000 22.5057
# 5 -6.1395 19.1224 25.6193 0.0000 20.8163 0.0000
# 6 0.0000 0.0000 0.0000 22.5057 0.0000 79.0533
#
#
#
# Elastic Compliance Matrix: (Units=1/GPa)
#
#
# Indices 1 2 3 4 5 6 
#
# 1 0.013165 -0.001579 0.012907 0.000000 -0.010552 0.000000
# 2 -0.001579 0.009045 -0.010492 0.000000 0.004138 0.000000
# 3 0.012907 -0.010492 -0.000701 0.000000 0.014308 0.000000
# 4 0.000000 0.000000 0.000000 0.021186 0.000000 -0.006031
# 5 -0.010552 0.004138 0.014308 0.000000 0.023516 0.000000
# 6 0.000000 0.000000 0.000000 -0.006031 0.000000 0.014367
#
#
# Mechanical properties :
#
#
# Convention : Reuss Voigt Hill
#
# Bulk Modulus (GPa) = 43.13938 25.55826 34.34882
# Shear Modulus (GPa) = 57.71380 34.84832 46.28106
#
# Velocity S-wave (km/s) = 5.00284 3.88747 4.48000
# Velocity P-wave (km/s) = 7.21659 5.58870 6.45417
#
# Compressibility (1/GPa) = 0.02318068
#
# Stress axis : x y z
#
# Youngs Moduli (GPa) = 75.95662 110.55347 -1426.25143
#
# Poissons Ratio (x) = 0.17457 18.40867
# Poissons Ratio (y) = 0.11994 -14.96486
# Poissons Ratio (z) = -0.98037 1.15998
#
# Static dielectric constant tensor:
#      x y z
#    x 2.004160 0.000000 0.015010 
#    y 0.000000 1.848280 0.000000 
#    z 0.015010 0.000000 1.871210 
# 
# From -- ./inp_files/251886.got.cif
#   From: 2010.05.17/outbox.cif.g08.bks.cpg/sg15_126_cif.got.tgz:251886.got - 2010.06.03 18:47:42.
