data_PCOD9273730
_publ_section_title
;
Structure prediction by ZEFSAII (Michael W. Deem and Ramdas Pophale) SiO2 
 PCOD9273730
Probable space group: C 2/C
;
_chemical_formula_sum "Si O2"
_cell_formula_units_Z 56
_cell_length_a 8.373204
_cell_length_b 33.728393
_cell_length_c 10.838417
_cell_angle_alpha 90.000000
_cell_angle_beta 117.463389
_cell_angle_gamma 90.000000
_cell_volume 2715.979265
_symmetry_space_group_name_H-M "C 2/C"
_symmetry_group_IT_number 15
_symmetry_cell_setting 'monoclinic'
loop_
_space_group_symop_operation_xyz
x,y,z
-x,y,1/2-z
-x,-y,-z
x,-y,1/2+z
1/2+x,1/2+y,z
1/2-x,1/2+y,1/2-z
1/2-x,1/2-y,-z
1/2+x,1/2-y,1/2+z
loop_
_atom_site_type_symbol
_atom_site_label
_atom_site_fract_x
_atom_site_fract_y
_atom_site_fract_z
Si Si1 0.334916 0.503614 0.597464
Si Si2 0.525163 0.363197 0.398200
Si Si3 0.799377 0.217165 0.836311
Si Si4 0.045993 0.063621 0.047246
Si Si5 0.048893 0.634642 0.412168
Si Si6 0.019407 0.712375 0.963939
Si Si7 0.381179 0.053218 0.327487
O O1 0.500000 0.509065 0.750000
O O2 0.333204 0.543529 0.517911
O O3 0.395641 0.468268 0.527991
O O4 0.168192 0.485700 0.612454
O O5 0.500000 0.377886 0.250000
O O6 0.422136 0.321824 0.372039
O O7 0.458647 0.396106 0.470387
O O8 0.736997 0.361059 0.499879
O O9 0.661514 0.213324 0.902068
O O10 0.675150 0.220364 0.669491
O O11 0.923062 0.254655 0.915414
O O12 0.185773 0.068532 0.208875
O O13 0.972357 0.669816 0.468001
O O14 0.000000 0.638772 0.250000
O O15 0.975575 0.591133 0.423633
O O16 0.500000 0.042835 0.250000
#
# Coordination Sequence:
#
# PCOD9273730 Si02
#       7
#     8   8   8   8   8   8   8
#     4   9  20  37  62  88 121 164 211 267 317 383
#     4  12  23  40  61  93 126 166 210 261 316 375
#     4  10  24  42  67  94 127 168 211 264 315 383
#     4  10  20  38  60  89 122 162 214 258 321 378
#     4  11  23  41  60  91 129 167 210 264 314 379
#     4  10  23  45  64  94 130 165 214 260 317 385
#     4  10  20  38  58  89 123 163 209 263 317 378
#
# _framework density 20.618714000000001
#
# number of rings (size 3 to 8) (size 9 to 14) (size 15 to 20)
#    0.000    1.714    4.286    0.429    4.000    1.714 
#    0.000    0.000    0.000    0.000    0.000    0.000 
#    0.000    0.000    0.000    0.000    0.000    0.000 
#
# Total GULP energy -156314.098880 kJ/mol
# GULP energy per Si atom -5582.646389 kJ/mol
# Density = 2.057179 g / cm^3
# Si number density = 20.618714 Si / 1000 Ang^3
#
#
#
# Elastic Constant Matrix: (Units=GPa)
#
#
# Indices 1 2 3 4 5 6 
#
# 1 47.0512 31.6784 20.8784 0.0000 14.1691 0.0000
# 2 31.6784 69.1909 11.5546 0.0000 18.3454 0.0000
# 3 20.8784 11.5546 92.9364 0.0000 29.7886 0.0000
# 4 0.0000 0.0000 0.0000 36.4441 0.0000 -1.0912
# 5 14.1691 18.3454 29.7886 0.0000 30.6714 0.0000
# 6 0.0000 0.0000 0.0000 -1.0912 0.0000 26.8756
#
#
#
# Elastic Compliance Matrix: (Units=1/GPa)
#
#
# Indices 1 2 3 4 5 6 
#
# 1 0.033559 -0.013923 -0.005094 0.000000 -0.002228 0.000000
# 2 -0.013923 0.023136 0.003812 0.000000 -0.011109 0.000000
# 3 -0.005094 0.003812 0.016563 0.000000 -0.016013 0.000000
# 4 0.000000 0.000000 0.000000 0.027473 0.000000 0.001115
# 5 -0.002228 -0.011109 -0.016013 0.000000 0.055830 0.000000
# 6 0.000000 0.000000 0.000000 0.001115 0.000000 0.037254
#
#
# Mechanical properties :
#
#
# Convention : Reuss Voigt Hill
#
# Bulk Modulus (GPa) = 23.33842 37.48904 30.41373
# Shear Modulus (GPa) = 20.96371 28.46936 24.71653
#
# Velocity S-wave (km/s) = 3.19208 3.71988 3.46604
# Velocity P-wave (km/s) = 4.99294 6.05570 5.54982
#
# Compressibility (1/GPa) = 0.04284781
#
# Stress axis : x y z
#
# Youngs Moduli (GPa) = 29.79832 43.22231 60.37494
#
# Poissons Ratio (x) = 0.60180 0.30755
# Poissons Ratio (y) = 0.41489 -0.23015
# Poissons Ratio (z) = 0.15179 -0.16477
#
# Static dielectric constant tensor:
#      x y z
#    x 1.780600 0.000000 0.000640 
#    y 0.000000 1.727040 0.000000 
#    z 0.000640 0.000000 1.767310 
# 
# From -- ./inp_files/82706.got.cif
#   From: 2010.05.17/outbox.cif.g08.bks.cpg/sg15_42_cif.got.tgz:82706.got - 2010.06.03 18:47:42.
