data_PCOD9273991
_publ_section_title
;
Structure prediction by ZEFSAII (Michael W. Deem and Ramdas Pophale) SiO2 
 PCOD9273991
Probable space group: C 2/C
;
_chemical_formula_sum "Si O2"
_cell_formula_units_Z 52
_cell_length_a 5.069642
_cell_length_b 28.417287
_cell_length_c 15.605830
_cell_angle_alpha 90.000000
_cell_angle_beta 72.941455
_cell_angle_gamma 90.000000
_cell_volume 2149.350154
_symmetry_space_group_name_H-M "C 2/C"
_symmetry_group_IT_number 15
_symmetry_cell_setting 'monoclinic'
loop_
_space_group_symop_operation_xyz
x,y,z
-x,y,1/2-z
-x,-y,-z
x,-y,1/2+z
1/2+x,1/2+y,z
1/2-x,1/2+y,1/2-z
1/2-x,1/2-y,-z
1/2+x,1/2-y,1/2+z
loop_
_atom_site_type_symbol
_atom_site_label
_atom_site_fract_x
_atom_site_fract_y
_atom_site_fract_z
Si Si1 0.141797 0.606048 0.408241
Si Si2 0.000000 0.620023 0.250000
Si Si3 0.184279 0.711992 0.811790
Si Si4 0.457561 0.684872 0.111406
Si Si5 0.932336 0.056771 0.852804
Si Si6 0.170055 0.463042 0.042745
Si Si7 0.845855 0.853736 0.444759
O O1 0.126877 0.588347 0.313248
O O2 0.265390 0.658197 0.388249
O O3 0.296460 0.573831 0.461726
O O4 0.847019 0.612464 0.479797
O O5 0.223779 0.653190 0.181356
O O6 0.500000 0.716891 0.750000
O O7 0.073894 0.762594 0.853287
O O8 0.181319 0.676882 0.891899
O O9 0.000000 0.695808 0.750000
O O10 0.460187 0.680498 0.007687
O O11 0.598615 0.057658 0.883653
O O12 0.026289 0.109798 0.872309
O O13 0.000000 0.043923 0.750000
O O14 0.095184 0.025755 0.909186
O O15 0.000000 0.500000 0.000000
#
# Coordination Sequence:
#
# PCOD9273991 Si02
#       7
#     8   4   8   8   8   8   8
#     4  10  22  39  67  91 129 177 227 281 355 416
#     4  10  20  38  60  94 124 176 228 288 332 424
#     4  12  27  41  62  96 137 180 235 298 344 399
#     4  11  21  42  63  90 133 181 233 286 353 401
#     4  11  23  45  72 103 138 182 226 277 342 411
#     4  11  24  46  71 102 141 175 220 283 345 420
#     4  10  24  40  66  93 131 179 236 279 346 413
#
# _framework density 24.193359999999998
#
# number of rings (size 3 to 8) (size 9 to 14) (size 15 to 20)
#    0.000    1.231    2.308    3.231    4.308    3.077 
#    2.769    0.000    0.000    0.000    0.000    0.000 
#    0.000    0.000    0.000    0.000    0.000    0.000 
#
# Total GULP energy -145137.728887 kJ/mol
# GULP energy per Si atom -5582.220342 kJ/mol
# Density = 2.413829 g / cm^3
# Si number density = 24.193360 Si / 1000 Ang^3
#
#
#
# Elastic Constant Matrix: (Units=GPa)
#
#
# Indices 1 2 3 4 5 6 
#
# 1 122.8798 9.9231 42.9351 0.0000 24.6325 0.0000
# 2 9.9231 38.3141 17.4413 0.0000 -3.9611 0.0000
# 3 42.9351 17.4413 116.4999 0.0000 50.7772 0.0000
# 4 0.0000 0.0000 0.0000 3.6717 0.0000 4.6747
# 5 24.6325 -3.9611 50.7772 0.0000 42.1592 0.0000
# 6 0.0000 0.0000 0.0000 4.6747 0.0000 30.3428
#
#
#
# Elastic Compliance Matrix: (Units=1/GPa)
#
#
# Indices 1 2 3 4 5 6 
#
# 1 0.009647 -0.002297 -0.001391 0.000000 -0.004177 0.000000
# 2 -0.002297 0.034998 -0.013496 0.000000 0.020885 0.000000
# 3 -0.001391 -0.013496 0.023819 0.000000 -0.029143 0.000000
# 4 0.000000 0.000000 0.000000 0.338811 0.000000 -0.052198
# 5 -0.004177 0.020885 -0.029143 0.000000 0.063223 0.000000
# 6 0.000000 0.000000 0.000000 -0.052198 0.000000 0.040999
#
#
# Mechanical properties :
#
#
# Convention : Reuss Voigt Hill
#
# Bulk Modulus (GPa) = 29.32862 46.47696 37.90279
# Shear Modulus (GPa) = 8.97296 29.06103 19.01700
#
# Velocity S-wave (km/s) = 1.92793 3.46959 2.80669
# Velocity P-wave (km/s) = 4.13579 5.94164 5.11898
#
# Compressibility (1/GPa) = 0.03409638
#
# Stress axis : x y z
#
# Youngs Moduli (GPa) = 103.66103 28.57328 41.98324
#
# Poissons Ratio (x) = 0.06564 0.05838
# Poissons Ratio (y) = 0.23814 0.56659
# Poissons Ratio (z) = 0.14415 0.38562
#
# Static dielectric constant tensor:
#      x y z
#    x 2.010060 0.000000 0.021400 
#    y 0.000000 1.987690 0.000000 
#    z 0.021400 0.000000 1.979120 
# 
# From -- ./inp_files/130717.got.cif
#   From: 2010.05.17/outbox.cif.g08.bks.cpg/sg15_66_cif.got.tgz:130717.got - 2010.06.03 18:47:42.
