data_PCOD9273308
_publ_section_title
;
Structure prediction by ZEFSAII (Michael W. Deem and Ramdas Pophale) SiO2 
 PCOD9273308
Probable space group: C 2/C
;
_chemical_formula_sum "Si O2"
_cell_formula_units_Z 44
_cell_length_a 8.675263
_cell_length_b 11.996554
_cell_length_c 18.555094
_cell_angle_alpha 90.000000
_cell_angle_beta 107.220667
_cell_angle_gamma 90.000000
_cell_volume 1844.521575
_symmetry_space_group_name_H-M "C 2/C"
_symmetry_group_IT_number 15
_symmetry_cell_setting 'monoclinic'
loop_
_space_group_symop_operation_xyz
x,y,z
-x,y,1/2-z
-x,-y,-z
x,-y,1/2+z
1/2+x,1/2+y,z
1/2-x,1/2+y,1/2-z
1/2-x,1/2-y,-z
1/2+x,1/2-y,1/2+z
loop_
_atom_site_type_symbol
_atom_site_label
_atom_site_fract_x
_atom_site_fract_y
_atom_site_fract_z
Si Si1 0.388457 0.188141 0.091421
Si Si2 0.664059 0.958044 0.635569
Si Si3 0.675027 0.383560 0.978494
Si Si4 0.913874 0.303378 0.430119
Si Si5 0.000000 0.015589 0.250000
Si Si6 0.566805 0.424140 0.109662
O O1 0.511019 0.105103 0.146566
O O2 0.218906 0.208122 0.106196
O O3 0.473896 0.307479 0.097035
O O4 0.362936 0.156920 0.003980
O O5 0.681720 0.907779 0.556895
O O6 0.838774 0.929083 0.693954
O O7 0.621497 0.088810 0.623502
O O8 0.582753 0.264980 0.954107
O O9 0.547264 0.478038 0.935687
O O10 0.702692 0.409095 0.067121
O O11 0.915080 0.949205 0.303803
#
# Coordination Sequence:
#
# PCOD9273308 Si02
#       6
#     8   8   8   8   4   8
#     4  10  20  37  64  91 122 152 204 254 308 356
#     4  11  22  41  60  92 123 162 200 256 306 364
#     4   9  19  37  64  90 120 153 205 256 300 357
#     4  10  20  38  61  97 119 153 200 260 309 358
#     4  10  20  40  58  80 130 168 202 238 308 374
#     4   9  18  37  59  86 115 165 194 242 305 359
#
# _framework density 23.854423000000001
#
# number of rings (size 3 to 8) (size 9 to 14) (size 15 to 20)
#    0.000    2.182    3.636    0.545    2.545    2.909 
#    9.818    0.000    0.000    0.000    0.000    0.000 
#    0.000    0.000    0.000    0.000    0.000    0.000 
#
# Total GULP energy -122667.280651 kJ/mol
# GULP energy per Si atom -5575.785484 kJ/mol
# Density = 2.380013 g / cm^3
# Si number density = 23.854423 Si / 1000 Ang^3
#
#
#
# Elastic Constant Matrix: (Units=GPa)
#
#
# Indices 1 2 3 4 5 6 
#
# 1 113.8931 29.2058 21.4764 0.0000 18.2888 0.0000
# 2 29.2058 105.8045 15.3577 0.0000 20.3763 0.0000
# 3 21.4764 15.3577 78.0101 0.0000 -12.5018 0.0000
# 4 0.0000 0.0000 0.0000 2.1863 0.0000 13.8908
# 5 18.2888 20.3763 -12.5018 0.0000 35.6497 0.0000
# 6 0.0000 0.0000 0.0000 13.8908 0.0000 33.6146
#
#
#
# Elastic Compliance Matrix: (Units=1/GPa)
#
#
# Indices 1 2 3 4 5 6 
#
# 1 0.010782 -0.001264 -0.003698 0.000000 -0.006106 0.000000
# 2 -0.001264 0.011605 -0.003069 0.000000 -0.007061 0.000000
# 3 -0.003698 -0.003069 0.015921 0.000000 0.009234 0.000000
# 4 0.000000 0.000000 0.000000 -0.281380 0.000000 0.116277
# 5 -0.006106 -0.007061 0.009234 0.000000 0.038457 0.000000
# 6 0.000000 0.000000 0.000000 0.116277 0.000000 -0.018301
#
#
# Mechanical properties :
#
#
# Convention : Reuss Voigt Hill
#
# Bulk Modulus (GPa) = 44.94767 47.75417 46.35092
# Shear Modulus (GPa) = -25.07036 29.73465 2.33214
#
# Velocity S-wave (km/s) = -3.24539 3.53442 0.98984
# Velocity P-wave (km/s) = 2.20000 6.05959 4.55843
#
# Compressibility (1/GPa) = 0.02224810
#
# Stress axis : x y z
#
# Youngs Moduli (GPa) = 92.74722 86.16647 62.81047
#
# Poissons Ratio (x) = 0.10887 0.23228
# Poissons Ratio (y) = 0.11719 0.19273
# Poissons Ratio (z) = 0.34299 0.26440
#
# Static dielectric constant tensor:
#      x y z
#    x 2.049690 0.000000 0.030990 
#    y 0.000000 1.952880 0.000000 
#    z 0.030990 0.000000 2.000060 
# 
# From -- ./inp_files/230295.got.cif
#   From: 2010.05.17/outbox.cif.g08.bks.cpg/sg15_116_cif.got.tgz:230295.got - 2010.06.03 18:47:42.
