data_PCOD9273353
_publ_section_title
;
Structure prediction by ZEFSAII (Michael W. Deem and Ramdas Pophale) SiO2 
 PCOD9273353
Probable space group: C 2/C
;
_chemical_formula_sum "Si O2"
_cell_formula_units_Z 56
_cell_length_a 9.168075
_cell_length_b 24.550967
_cell_length_c 17.389897
_cell_angle_alpha 90.000000
_cell_angle_beta 44.080124
_cell_angle_gamma 90.000000
_cell_volume 2722.971349
_symmetry_space_group_name_H-M "C 2/C"
_symmetry_group_IT_number 15
_symmetry_cell_setting 'monoclinic'
loop_
_space_group_symop_operation_xyz
x,y,z
-x,y,1/2-z
-x,-y,-z
x,-y,1/2+z
1/2+x,1/2+y,z
1/2-x,1/2+y,1/2-z
1/2-x,1/2-y,-z
1/2+x,1/2-y,1/2+z
loop_
_atom_site_type_symbol
_atom_site_label
_atom_site_fract_x
_atom_site_fract_y
_atom_site_fract_z
Si Si1 0.398635 0.942368 0.557130
Si Si2 0.751802 0.454904 0.351995
Si Si3 0.007736 0.732642 0.075384
Si Si4 0.513008 0.556250 0.102788
Si Si5 0.135303 0.373171 0.775836
Si Si6 0.163391 0.347012 0.408334
Si Si7 0.416302 0.654464 0.659266
O O1 0.158741 0.945737 0.622105
O O2 0.418577 0.916337 0.635058
O O3 0.522213 0.899902 0.456592
O O4 0.500000 0.000000 0.500000
O O5 0.644814 0.505634 0.348640
O O6 0.667322 0.451118 0.471299
O O7 0.672891 0.399034 0.344902
O O8 0.000000 0.460020 0.250000
O O9 0.915544 0.687137 0.169734
O O10 0.895239 0.790439 0.118860
O O11 0.250000 0.750000 0.000000
O O12 0.017413 0.701973 0.991125
O O13 0.372096 0.610899 0.161167
O O14 0.000000 0.380396 0.750000
O O15 0.342286 0.355762 0.406258
O O16 0.287764 0.334595 0.285140
#
# Coordination Sequence:
#
# PCOD9273353 Si02
#       7
#     8   8   8   8   8   8   8
#     4  11  24  43  66  95 136 183 225 281 346 414
#     4  11  25  43  65 100 140 181 237 284 345 418
#     4   9  21  38  65  99 132 173 232 284 343 403
#     4  11  26  42  69  96 140 185 229 288 354 414
#     4  11  26  42  71 104 138 179 233 290 346 413
#     4   9  20  36  60  94 128 170 225 273 336 411
#     4  10  20  37  64  95 131 173 223 287 341 400
#
# _framework density 20.565770000000001
#
# number of rings (size 3 to 8) (size 9 to 14) (size 15 to 20)
#    0.000    1.714    0.000    2.571   18.000    0.000 
#    0.000    2.857    0.000    6.000    0.000    0.000 
#    0.000    0.000    0.000    0.000    0.000    0.000 
#
# Total GULP energy -156272.802007 kJ/mol
# GULP energy per Si atom -5581.171500 kJ/mol
# Density = 2.051896 g / cm^3
# Si number density = 20.565770 Si / 1000 Ang^3
#
#
#
# Elastic Constant Matrix: (Units=GPa)
#
#
# Indices 1 2 3 4 5 6 
#
# 1 78.2186 34.4466 28.1167 0.0000 -9.4842 0.0000
# 2 34.4466 133.7354 47.7812 0.0000 -11.4678 0.0000
# 3 28.1167 47.7812 98.8813 0.0000 -21.5661 0.0000
# 4 0.0000 0.0000 0.0000 37.0478 0.0000 -7.8290
# 5 -9.4842 -11.4678 -21.5661 0.0000 24.0118 0.0000
# 6 0.0000 0.0000 0.0000 -7.8290 0.0000 17.9404
#
#
#
# Elastic Compliance Matrix: (Units=1/GPa)
#
#
# Indices 1 2 3 4 5 6 
#
# 1 0.015203 -0.002843 -0.002407 0.000000 0.002485 0.000000
# 2 -0.002843 0.009574 -0.003812 0.000000 0.000025 0.000000
# 3 -0.002407 -0.003812 0.014967 0.000000 0.010671 0.000000
# 4 0.000000 0.000000 0.000000 0.029734 0.000000 0.012976
# 5 0.002485 0.000025 0.010671 0.000000 0.052224 0.000000
# 6 0.000000 0.000000 0.000000 0.012976 0.000000 0.061403
#
#
# Mechanical properties :
#
#
# Convention : Reuss Voigt Hill
#
# Bulk Modulus (GPa) = 46.25450 59.05826 52.65638
# Shear Modulus (GPa) = 23.98805 29.16605 26.57705
#
# Velocity S-wave (km/s) = 3.41897 3.76996 3.59875
# Velocity P-wave (km/s) = 6.17460 6.90864 6.55191
#
# Compressibility (1/GPa) = 0.02161952
#
# Stress axis : x y z
#
# Youngs Moduli (GPa) = 65.77530 104.44997 66.81246
#
# Poissons Ratio (x) = 0.29692 0.16084
# Poissons Ratio (y) = 0.18698 0.25472
# Poissons Ratio (z) = 0.15834 0.39821
#
# Static dielectric constant tensor:
#      x y z
#    x 1.728610 0.000000 0.010050 
#    y 0.000000 2.189390 0.000000 
#    z 0.010050 0.000000 1.767270 
# 
# From -- ./inp_files/193845.got.cif
#   From: 2010.05.17/outbox.cif.g08.bks.cpg/sg15_97_cif.got.tgz:193845.got - 2010.06.03 18:47:42.
