data_PCOD9273606
_publ_section_title
;
Structure prediction by ZEFSAII (Michael W. Deem and Ramdas Pophale) SiO2 
 PCOD9273606
Probable space group: C 2/C
;
_chemical_formula_sum "Si O2"
_cell_formula_units_Z 64
_cell_length_a 7.101740
_cell_length_b 16.581648
_cell_length_c 20.919586
_cell_angle_alpha 90.000000
_cell_angle_beta 76.615368
_cell_angle_gamma 90.000000
_cell_volume 2396.547676
_symmetry_space_group_name_H-M "C 2/C"
_symmetry_group_IT_number 15
_symmetry_cell_setting 'monoclinic'
loop_
_space_group_symop_operation_xyz
x,y,z
-x,y,1/2-z
-x,-y,-z
x,-y,1/2+z
1/2+x,1/2+y,z
1/2-x,1/2+y,1/2-z
1/2-x,1/2-y,-z
1/2+x,1/2-y,1/2+z
loop_
_atom_site_type_symbol
_atom_site_label
_atom_site_fract_x
_atom_site_fract_y
_atom_site_fract_z
Si Si1 0.728849 0.966248 0.651678
Si Si2 0.261997 0.637897 0.880298
Si Si3 0.265804 0.639624 0.643498
Si Si4 0.764678 0.566667 0.489673
Si Si5 0.631698 0.208588 0.180367
Si Si6 0.821755 0.112206 0.492683
Si Si7 0.124340 0.980014 0.677142
Si Si8 0.775270 0.311312 0.631154
O O1 0.649835 0.950208 0.586855
O O2 0.694559 0.882674 0.690854
O O3 0.678012 0.056752 0.678018
O O4 0.962852 0.972840 0.633983
O O5 0.500518 0.637747 0.863259
O O6 0.216240 0.721825 0.849342
O O7 0.231907 0.554187 0.845382
O O8 0.174635 0.626032 0.958016
O O9 0.240656 0.635381 0.568654
O O10 0.193562 0.728320 0.667227
O O11 0.549421 0.598925 0.489113
O O12 0.762138 0.476110 0.518218
O O13 0.500000 0.236155 0.250000
O O14 0.502855 0.200256 0.126189
O O15 0.777461 0.172432 0.438342
O O16 0.000000 0.995809 0.750000
O O17 0.217969 0.892373 0.672211
#
# Coordination Sequence:
#
# PCOD9273606 Si02
#       8
#     8   8   8   8   8   8   8   8
#     4  10  20  38  55  78 112 147 177 224 285 317
#     4   9  18  35  58  80 104 143 186 222 274 332
#     4   8  18  31  55  81 110 142 174 217 273 334
#     4   9  15  31  58  86 109 133 175 237 279 312
#     4  11  24  39  52  75 115 152 180 220 277 333
#     4   9  14  29  56  85 109 135 176 223 269 326
#     4  11  20  34  59  83 103 139 195 235 259 316
#     4  11  19  34  56  82 105 140 192 218 262 325
#
# _framework density 26.705079999999999
#
# number of rings (size 3 to 8) (size 9 to 14) (size 15 to 20)
#    0.000    2.250    2.500    3.000    0.000    0.500 
#    0.000    4.375    0.000    0.000    0.000    0.000 
#    0.000    0.000    0.000    0.000    0.000    0.000 
#
# Total GULP energy -178633.833605 kJ/mol
# GULP energy per Si atom -5582.307300 kJ/mol
# Density = 2.664430 g / cm^3
# Si number density = 26.705080 Si / 1000 Ang^3
#
#
#
# Elastic Constant Matrix: (Units=GPa)
#
#
# Indices 1 2 3 4 5 6 
#
# 1 76.8894 14.8720 -11.4715 0.0000 17.0245 0.0000
# 2 14.8720 233.6086 33.9890 0.0000 7.9013 0.0000
# 3 -11.4715 33.9890 94.5804 0.0000 1.9613 0.0000
# 4 0.0000 0.0000 0.0000 20.1333 0.0000 -11.1107
# 5 17.0245 7.9013 1.9613 0.0000 14.8810 0.0000
# 6 0.0000 0.0000 0.0000 -11.1107 0.0000 17.7201
#
#
#
# Elastic Compliance Matrix: (Units=1/GPa)
#
#
# Indices 1 2 3 4 5 6 
#
# 1 0.018215 -0.000888 0.002959 0.000000 -0.020757 0.000000
# 2 -0.000888 0.004632 -0.001747 0.000000 -0.001213 0.000000
# 3 0.002959 -0.001747 0.011643 0.000000 -0.003992 0.000000
# 4 0.000000 0.000000 0.000000 0.075949 0.000000 0.047621
# 5 -0.020757 -0.001213 -0.003992 0.000000 0.092117 0.000000
# 6 0.000000 0.000000 0.000000 0.047621 0.000000 0.086292
#
#
# Mechanical properties :
#
#
# Convention : Reuss Voigt Hill
#
# Bulk Modulus (GPa) = 28.46018 53.31750 40.88884
# Shear Modulus (GPa) = 16.67148 35.05946 25.86547
#
# Velocity S-wave (km/s) = 2.50127 3.62724 3.11555
# Velocity P-wave (km/s) = 4.36144 6.12790 5.31852
#
# Compressibility (1/GPa) = 0.03513681
#
# Stress axis : x y z
#
# Youngs Moduli (GPa) = 54.90034 215.86781 85.89160
#
# Poissons Ratio (x) = 0.19170 -0.25414
# Poissons Ratio (y) = 0.04875 0.15008
# Poissons Ratio (z) = -0.16244 0.37719
#
# Static dielectric constant tensor:
#      x y z
#    x 2.172830 0.000000 0.011390 
#    y 0.000000 2.176340 0.000000 
#    z 0.011390 0.000000 2.058340 
# 
# From -- ./inp_files/264710.got.cif
#   From: 2010.05.17/outbox.cif.g08.bks.cpg/sg15_133_cif.got.tgz:264710.got - 2010.06.03 18:47:42.
