data_PCOD9273819
_publ_section_title
;
Structure prediction by ZEFSAII (Michael W. Deem and Ramdas Pophale) SiO2 
 PCOD9273819
Probable space group: C 2/C
;
_chemical_formula_sum "Si O2"
_cell_formula_units_Z 64
_cell_length_a 29.050226
_cell_length_b 13.272916
_cell_length_c 13.406679
_cell_angle_alpha 90.000000
_cell_angle_beta 35.723870
_cell_angle_gamma 90.000000
_cell_volume 3018.285290
_symmetry_space_group_name_H-M "C 2/C"
_symmetry_group_IT_number 15
_symmetry_cell_setting 'monoclinic'
loop_
_space_group_symop_operation_xyz
x,y,z
-x,y,1/2-z
-x,-y,-z
x,-y,1/2+z
1/2+x,1/2+y,z
1/2-x,1/2+y,1/2-z
1/2-x,1/2-y,-z
1/2+x,1/2-y,1/2+z
loop_
_atom_site_type_symbol
_atom_site_label
_atom_site_fract_x
_atom_site_fract_y
_atom_site_fract_z
Si Si1 0.590473 0.537492 0.338107
Si Si2 0.475394 0.137762 0.404734
Si Si3 0.127211 0.159567 0.865336
Si Si4 0.891001 0.643395 0.184409
Si Si5 0.696869 0.171655 0.959933
Si Si6 0.681144 0.027137 0.819342
Si Si7 0.409431 0.335034 0.468179
Si Si8 0.868400 0.960074 0.948465
O O1 0.500000 0.500000 0.500000
O O2 0.635518 0.431907 0.273298
O O3 0.614833 0.609736 0.386000
O O4 0.608678 0.581392 0.198857
O O5 0.500000 0.099322 0.250000
O O6 0.537960 0.099319 0.374542
O O7 0.387599 0.106002 0.593243
O O8 0.478268 0.259811 0.386459
O O9 0.076691 0.251877 0.916695
O O10 0.214722 0.202775 0.719350
O O11 0.103318 0.110236 0.011118
O O12 0.826306 0.666233 0.384253
O O13 0.855278 0.575411 0.159646
O O14 0.685666 0.061526 0.927536
O O15 0.644782 0.254690 0.994315
O O16 0.772583 0.032292 0.624093
O O17 0.410381 0.431593 0.392970
#
# Coordination Sequence:
#
# PCOD9273819 Si02
#       8
#     8   8   8   8   8   8   8   8
#     4  11  23  37  61  88 124 160 202 249 318 373
#     4  11  22  40  63  89 122 160 206 258 300 361
#     4  10  22  36  60  93 120 159 208 251 309 368
#     4  12  20  36  64  87 124 162 212 250 303 367
#     4  10  20  38  59  88 123 158 212 258 293 365
#     4  10  22  39  60  91 122 162 207 254 312 363
#     4  10  21  37  63  88 117 163 207 246 313 358
#     4  10  22  40  60  91 130 156 202 264 308 368
#
# _framework density 21.204093
#
# number of rings (size 3 to 8) (size 9 to 14) (size 15 to 20)
#    0.000    1.500    2.500    3.750    1.750    1.500 
#    0.000    8.125    2.750    0.000    0.000    0.000 
#    0.000    0.000    0.000    0.000    0.000    0.000 
#
# Total GULP energy -178209.729596 kJ/mol
# GULP energy per Si atom -5569.054050 kJ/mol
# Density = 2.115583 g / cm^3
# Si number density = 21.204093 Si / 1000 Ang^3
#
#
#
# Elastic Constant Matrix: (Units=GPa)
#
#
# Indices 1 2 3 4 5 6 
#
# 1 81.1431 29.9767 13.1176 0.0000 12.2966 0.0000
# 2 29.9767 92.0747 22.7424 0.0000 20.3427 0.0000
# 3 13.1176 22.7424 54.3636 0.0000 -0.7852 0.0000
# 4 0.0000 0.0000 0.0000 15.3815 0.0000 -1.9847
# 5 12.2966 20.3427 -0.7852 0.0000 44.4099 0.0000
# 6 0.0000 0.0000 0.0000 -1.9847 0.0000 34.1035
#
#
#
# Elastic Compliance Matrix: (Units=1/GPa)
#
#
# Indices 1 2 3 4 5 6 
#
# 1 0.014350 -0.003675 -0.001959 0.000000 -0.002325 0.000000
# 2 -0.003675 0.014651 -0.005326 0.000000 -0.005788 0.000000
# 3 -0.001959 -0.005326 0.021144 0.000000 0.003356 0.000000
# 4 0.000000 0.000000 0.000000 0.065505 0.000000 0.003812
# 5 -0.002325 -0.005788 0.003356 0.000000 0.025872 0.000000
# 6 0.000000 0.000000 0.000000 0.003812 0.000000 0.029544
#
#
# Mechanical properties :
#
#
# Convention : Reuss Voigt Hill
#
# Bulk Modulus (GPa) = 35.42800 39.91721 37.67260
# Shear Modulus (GPa) = 24.70410 29.56195 27.13303
#
# Velocity S-wave (km/s) = 3.41700 3.73790 3.58105
# Velocity P-wave (km/s) = 5.68439 6.12334 5.90794
#
# Compressibility (1/GPa) = 0.02822626
#
# Stress axis : x y z
#
# Youngs Moduli (GPa) = 69.68445 68.25276 47.29473
#
# Poissons Ratio (x) = 0.25080 0.09265
# Poissons Ratio (y) = 0.25606 0.25190
# Poissons Ratio (z) = 0.13652 0.36353
#
# Static dielectric constant tensor:
#      x y z
#    x 1.890450 0.000000 -0.053400 
#    y 0.000000 1.802260 0.000000 
#    z -0.053400 0.000000 1.821980 
# 
# From -- ./inp_files/123516.got.cif
#   From: 2010.05.17/outbox.cif.g08.bks.cpg/sg15_62_cif.got.tgz:123516.got - 2010.06.03 18:47:42.
