data_PCOD9273979
_publ_section_title
;
Structure prediction by ZEFSAII (Michael W. Deem and Ramdas Pophale) SiO2 
 PCOD9273979
Probable space group: C 2/C
;
_chemical_formula_sum "Si O2"
_cell_formula_units_Z 40
_cell_length_a 14.175689
_cell_length_b 15.119820
_cell_length_c 12.070070
_cell_angle_alpha 90.000000
_cell_angle_beta 140.765212
_cell_angle_gamma 90.000000
_cell_volume 1636.292403
_symmetry_space_group_name_H-M "C 2/C"
_symmetry_group_IT_number 15
_symmetry_cell_setting 'monoclinic'
loop_
_space_group_symop_operation_xyz
x,y,z
-x,y,1/2-z
-x,-y,-z
x,-y,1/2+z
1/2+x,1/2+y,z
1/2-x,1/2+y,1/2-z
1/2-x,1/2-y,-z
1/2+x,1/2-y,1/2+z
loop_
_atom_site_type_symbol
_atom_site_label
_atom_site_fract_x
_atom_site_fract_y
_atom_site_fract_z
Si Si1 0.714979 0.180935 0.820560
Si Si2 0.150479 0.133550 0.327945
Si Si3 0.816057 0.001685 0.336890
Si Si4 0.089920 0.779254 0.198063
Si Si5 0.781864 0.140824 0.478834
O O1 0.615614 0.269313 0.743734
O O2 0.849372 0.222672 0.869701
O O3 0.715093 0.087013 0.754065
O O4 0.741336 0.151956 0.970754
O O5 0.214800 0.067324 0.294095
O O6 0.000000 0.098728 0.250000
O O7 0.785013 0.047104 0.426551
O O8 0.000000 0.000000 0.500000
O O9 0.174931 0.852025 0.353512
O O10 0.135607 0.690577 0.303648
O O11 0.918034 0.803893 0.046596
#
# Coordination Sequence:
#
# PCOD9273979 Si02
#       5
#     8   8   8   8   8
#     4  11  24  37  63  95 133 173 216 282 341 396
#     4  11  23  42  64  93 135 173 221 276 346 405
#     4  12  22  37  65  99 119 170 231 281 317 403
#     4  10  20  38  60  93 126 175 207 283 339 401
#     4  10  21  36  63  91 131 162 228 270 344 392
#
# _framework density 24.445508
#
# number of rings (size 3 to 8) (size 9 to 14) (size 15 to 20)
#    0.000    1.200    6.000    0.000    2.800    0.000 
#    0.000    0.000    8.800    6.000    0.000    0.000 
#    0.000    0.000    0.000    0.000    0.000    0.000 
#
# Total GULP energy -111376.526930 kJ/mol
# GULP energy per Si atom -5568.826347 kJ/mol
# Density = 2.438987 g / cm^3
# Si number density = 24.445508 Si / 1000 Ang^3
#
#
#
# Elastic Constant Matrix: (Units=GPa)
#
#
# Indices 1 2 3 4 5 6 
#
# 1 73.8628 38.4557 29.2255 0.0000 -33.1133 0.0000
# 2 38.4557 117.4589 15.6232 0.0000 -16.1773 0.0000
# 3 29.2255 15.6232 78.4986 0.0000 -29.8930 0.0000
# 4 0.0000 0.0000 0.0000 9.0290 0.0000 -16.6747
# 5 -33.1133 -16.1773 -29.8930 0.0000 37.2460 0.0000
# 6 0.0000 0.0000 0.0000 -16.6747 0.0000 41.9525
#
#
#
# Elastic Compliance Matrix: (Units=1/GPa)
#
#
# Indices 1 2 3 4 5 6 
#
# 1 0.025577 -0.005552 -0.000974 0.000000 0.019546 0.000000
# 2 -0.005552 0.010271 -0.000228 0.000000 -0.000658 0.000000
# 3 -0.000974 -0.000228 0.018405 0.000000 0.013806 0.000000
# 4 0.000000 0.000000 0.000000 0.416434 0.000000 0.165519
# 5 0.019546 -0.000658 0.013806 0.000000 0.055021 0.000000
# 6 0.000000 0.000000 0.000000 0.165519 0.000000 0.089625
#
#
# Mechanical properties :
#
#
# Convention : Reuss Voigt Hill
#
# Bulk Modulus (GPa) = 24.54303 48.49211 36.51757
# Shear Modulus (GPa) = 7.78304 30.07988 18.93146
#
# Velocity S-wave (km/s) = 1.78627 3.51164 2.78589
# Velocity P-wave (km/s) = 3.78365 6.02677 5.03180
#
# Compressibility (1/GPa) = 0.04074477
#
# Stress axis : x y z
#
# Youngs Moduli (GPa) = 39.09690 97.36043 54.33409
#
# Poissons Ratio (x) = 0.54058 0.05294
# Poissons Ratio (y) = 0.21708 0.01236
# Poissons Ratio (z) = 0.03809 0.02215
#
# Static dielectric constant tensor:
#      x y z
#    x 1.927210 0.000000 0.017220 
#    y 0.000000 2.197770 0.000000 
#    z 0.017220 0.000000 2.004900 
# 
# From -- ./inp_files/96666.got.cif
#   From: 2010.05.17/outbox.cif.g08.bks.cpg/sg15_49_cif.got.tgz:96666.got - 2010.06.03 18:47:42.
