data_PCOD9273847
_publ_section_title
;
Structure prediction by ZEFSAII (Michael W. Deem and Ramdas Pophale) SiO2 
 PCOD9273847
Probable space group: C 2/C
;
_chemical_formula_sum "Si O2"
_cell_formula_units_Z 44
_cell_length_a 21.994899
_cell_length_b 13.293979
_cell_length_c 10.494283
_cell_angle_alpha 90.000000
_cell_angle_beta 136.743513
_cell_angle_gamma 90.000000
_cell_volume 2102.754491
_symmetry_space_group_name_H-M "C 2/C"
_symmetry_group_IT_number 15
_symmetry_cell_setting 'monoclinic'
loop_
_space_group_symop_operation_xyz
x,y,z
-x,y,1/2-z
-x,-y,-z
x,-y,1/2+z
1/2+x,1/2+y,z
1/2-x,1/2+y,1/2-z
1/2-x,1/2-y,-z
1/2+x,1/2-y,1/2+z
loop_
_atom_site_type_symbol
_atom_site_label
_atom_site_fract_x
_atom_site_fract_y
_atom_site_fract_z
Si Si1 0.017136 0.589075 0.626375
Si Si2 0.500000 0.411654 0.250000
Si Si3 0.352741 0.348236 0.730210
Si Si4 0.955823 0.197119 0.946687
Si Si5 0.702720 0.148267 0.805301
Si Si6 0.164062 0.033214 0.626694
O O1 0.121194 0.616295 0.769350
O O2 0.000000 0.569172 0.750000
O O3 0.000000 0.500000 0.500000
O O4 0.961069 0.685458 0.488777
O O5 0.529243 0.340732 0.176008
O O6 0.586217 0.479409 0.422310
O O7 0.331715 0.256803 0.796737
O O8 0.293502 0.329607 0.517976
O O9 0.327591 0.454576 0.746944
O O10 0.455145 0.346267 0.851967
O O11 0.873433 0.138341 0.878242
O O12 0.737207 0.057049 0.772582
#
# Coordination Sequence:
#
# PCOD9273847 Si02
#       6
#     8   4   8   8   8   8
#     4  11  28  47  68  89 125 177 220 266 325 393
#     4  10  20  38  60 100 142 162 208 272 328 386
#     4   9  20  37  56  91 126 161 204 259 312 375
#     4  10  22  38  66  95 129 173 212 265 330 384
#     4  10  22  37  62  87 126 160 217 261 308 383
#     4  11  20  34  65  96 128 167 208 264 327 375
#
# _framework density 20.924934
#
# number of rings (size 3 to 8) (size 9 to 14) (size 15 to 20)
#    0.000    1.818    0.000    4.364   12.727    0.000 
#    0.000    0.000    0.000    6.545    0.000    0.000 
#    0.000    0.000    0.000    0.000    0.000    0.000 
#
# Total GULP energy -122545.387638 kJ/mol
# GULP energy per Si atom -5570.244893 kJ/mol
# Density = 2.087731 g / cm^3
# Si number density = 20.924934 Si / 1000 Ang^3
#
#
#
# Elastic Constant Matrix: (Units=GPa)
#
#
# Indices 1 2 3 4 5 6 
#
# 1 116.9954 61.3848 26.2511 0.0000 -4.2073 0.0000
# 2 61.3848 121.6636 3.6051 0.0000 -20.9167 0.0000
# 3 26.2511 3.6051 32.3257 0.0000 -9.1023 0.0000
# 4 0.0000 0.0000 0.0000 26.0389 0.0000 3.7923
# 5 -4.2073 -20.9167 -9.1023 0.0000 29.6392 0.0000
# 6 0.0000 0.0000 0.0000 3.7923 0.0000 23.6499
#
#
#
# Elastic Compliance Matrix: (Units=1/GPa)
#
#
# Indices 1 2 3 4 5 6 
#
# 1 0.016491 -0.009403 -0.014836 0.000000 -0.008851 0.000000
# 2 -0.009403 0.014739 0.009354 0.000000 0.011939 0.000000
# 3 -0.014836 0.009354 0.047295 0.000000 0.019020 0.000000
# 4 0.000000 0.000000 0.000000 0.039322 0.000000 -0.006305
# 5 -0.008851 0.011939 0.019020 0.000000 0.046749 0.000000
# 6 0.000000 0.000000 0.000000 -0.006305 0.000000 0.043295
#
#
# Mechanical properties :
#
#
# Convention : Reuss Voigt Hill
#
# Bulk Modulus (GPa) = 20.51017 50.38520 35.44768
# Shear Modulus (GPa) = 19.69177 27.84849 23.77013
#
# Velocity S-wave (km/s) = 3.07101 3.65207 3.37407
# Velocity P-wave (km/s) = 4.73264 6.47417 5.67066
#
# Compressibility (1/GPa) = 0.04875631
#
# Stress axis : x y z
#
# Youngs Moduli (GPa) = 60.63844 67.84774 21.14373
#
# Poissons Ratio (x) = 0.63794 0.31368
# Poissons Ratio (y) = 0.57016 -0.19777
# Poissons Ratio (z) = 0.89962 -0.63463
#
# Static dielectric constant tensor:
#      x y z
#    x 1.852320 0.000000 -0.044610 
#    y 0.000000 1.915540 0.000000 
#    z -0.044610 0.000000 1.759850 
# 
# From -- ./inp_files/104332.got.cif
#   From: 2010.05.17/outbox.cif.g08.bks.cpg/sg15_53_cif.got.tgz:104332.got - 2010.06.03 18:47:42.
