data_PCOD9273613
_publ_section_title
;
Structure prediction by ZEFSAII (Michael W. Deem and Ramdas Pophale) SiO2 
 PCOD9273613
Probable space group: C 2/C
;
_chemical_formula_sum "Si O2"
_cell_formula_units_Z 36
_cell_length_a 13.795003
_cell_length_b 24.345107
_cell_length_c 9.386282
_cell_angle_alpha 90.000000
_cell_angle_beta 32.080908
_cell_angle_gamma 90.000000
_cell_volume 1674.236067
_symmetry_space_group_name_H-M "C 2/C"
_symmetry_group_IT_number 15
_symmetry_cell_setting 'monoclinic'
loop_
_space_group_symop_operation_xyz
x,y,z
-x,y,1/2-z
-x,-y,-z
x,-y,1/2+z
1/2+x,1/2+y,z
1/2-x,1/2+y,1/2-z
1/2-x,1/2-y,-z
1/2+x,1/2-y,1/2+z
loop_
_atom_site_type_symbol
_atom_site_label
_atom_site_fract_x
_atom_site_fract_y
_atom_site_fract_z
Si Si1 0.770765 0.394308 0.776561
Si Si2 0.709130 0.985474 0.189343
Si Si3 0.691199 0.687877 0.598398
Si Si4 0.000000 0.427067 0.250000
Si Si5 0.429407 0.377507 0.997706
O O1 0.708938 0.454380 0.907864
O O2 0.949770 0.394492 0.453085
O O3 0.609988 0.378894 0.869383
O O4 0.808799 0.355630 0.862269
O O5 0.673812 0.964255 0.072877
O O6 0.500000 0.000000 0.500000
O O7 0.821016 0.936249 0.124672
O O8 0.500000 0.682516 0.750000
O O9 0.750000 0.750000 0.500000
O O10 0.683484 0.668123 0.772085
O O11 0.500000 0.364786 0.750000
#
# Coordination Sequence:
#
# PCOD9273613 Si02
#       5
#     8   8   8   4   8
#     4  10  22  40  64  93 132 172 218 265 324 394
#     4  10  22  35  61  97 135 169 211 261 326 386
#     4  10  25  46  65  94 126 171 222 272 329 382
#     4  10  20  38  56 100 130 166 220 260 326 392
#     4  11  22  42  67  93 131 171 219 266 326 393
#
# _framework density 21.502345999999999
#
# number of rings (size 3 to 8) (size 9 to 14) (size 15 to 20)
#    0.000    1.778    2.222    0.667    6.222    6.222 
#    2.000    2.222    0.000    0.000    0.000    0.000 
#    0.000    0.000    0.000    0.000    0.000    0.000 
#
# Total GULP energy -100216.106292 kJ/mol
# GULP energy per Si atom -5567.561461 kJ/mol
# Density = 2.145341 g / cm^3
# Si number density = 21.502346 Si / 1000 Ang^3
#
#
#
# Elastic Constant Matrix: (Units=GPa)
#
#
# Indices 1 2 3 4 5 6 
#
# 1 73.4553 29.8672 28.9383 0.0000 26.1610 0.0000
# 2 29.8672 144.0345 73.9543 0.0000 46.4322 0.0000
# 3 28.9383 73.9543 127.8435 0.0001 40.4597 0.0000
# 4 0.0000 0.0000 0.0001 29.6399 -0.0001 0.6884
# 5 26.1610 46.4322 40.4597 -0.0001 31.4812 0.0001
# 6 0.0000 0.0000 0.0000 0.6884 0.0001 28.4686
#
#
#
# Elastic Compliance Matrix: (Units=1/GPa)
#
#
# Indices 1 2 3 4 5 6 
#
# 1 0.019769 0.002126 0.000821 0.000000 -0.020619 0.000000
# 2 0.002126 0.013953 -0.002496 0.000000 -0.019139 0.000000
# 3 0.000821 -0.002496 0.013705 0.000000 -0.014615 0.000000
# 4 0.000000 0.000000 0.000000 0.033757 0.000000 -0.000816
# 5 -0.020619 -0.019139 -0.014615 0.000000 0.095912 0.000000
# 6 0.000000 0.000000 0.000000 -0.000816 0.000000 0.035146
#
#
# Mechanical properties :
#
#
# Convention : Reuss Voigt Hill
#
# Bulk Modulus (GPa) = 20.69106 67.87255 44.28180
# Shear Modulus (GPa) = 21.98278 32.08951 27.03614
#
# Velocity S-wave (km/s) = 3.20088 3.86731 3.54977
# Velocity P-wave (km/s) = 4.82747 7.18159 6.11881
#
# Compressibility (1/GPa) = 0.04833006
#
# Stress axis : x y z
#
# Youngs Moduli (GPa) = 50.58330 71.66830 72.96384
#
# Poissons Ratio (x) = -0.15238 -0.05987
# Poissons Ratio (y) = -0.10755 0.18210
# Poissons Ratio (z) = -0.04151 0.17886
#
# Static dielectric constant tensor:
#      x y z
#    x 1.823610 0.000000 -0.083020 
#    y 0.000000 1.914960 0.000000 
#    z -0.083020 0.000000 2.000570 
# 
# From -- ./inp_files/31681.got.cif
#   From: 2010.05.17/outbox.cif.g08.bks.cpg/sg15_16_cif.got.tgz:31681.got - 2010.06.03 18:47:42.
