data_PCOD9273806
_publ_section_title
;
Structure prediction by ZEFSAII (Michael W. Deem and Ramdas Pophale) SiO2 
 PCOD9273806
Probable space group: C 2/C
;
_chemical_formula_sum "Si O2"
_cell_formula_units_Z 60
_cell_length_a 8.694162
_cell_length_b 26.678180
_cell_length_c 21.837682
_cell_angle_alpha 90.000000
_cell_angle_beta 143.503284
_cell_angle_gamma 90.000000
_cell_volume 3012.620448
_symmetry_space_group_name_H-M "C 2/C"
_symmetry_group_IT_number 15
_symmetry_cell_setting 'monoclinic'
loop_
_space_group_symop_operation_xyz
x,y,z
-x,y,1/2-z
-x,-y,-z
x,-y,1/2+z
1/2+x,1/2+y,z
1/2-x,1/2+y,1/2-z
1/2-x,1/2-y,-z
1/2+x,1/2-y,1/2+z
loop_
_atom_site_type_symbol
_atom_site_label
_atom_site_fract_x
_atom_site_fract_y
_atom_site_fract_z
Si Si1 0.500000 0.442626 0.250000
Si Si2 0.160536 0.350470 0.162626
Si Si3 0.694519 0.540080 0.088348
Si Si4 0.728046 0.471737 0.742673
Si Si5 0.108857 0.859498 0.720464
Si Si6 0.363629 0.191811 0.088747
Si Si7 0.891252 0.193842 0.619166
Si Si8 0.560574 0.351943 0.970022
O O1 0.259502 0.404087 0.167783
O O2 0.419046 0.480492 0.277733
O O3 0.347878 0.336291 0.279432
O O4 0.225077 0.311703 0.128359
O O5 0.861350 0.351381 0.082352
O O6 0.729093 0.526298 0.170218
O O7 0.572487 0.595684 0.051332
O O8 0.970069 0.534245 0.142715
O O9 0.500000 0.500000 0.000000
O O10 0.593662 0.419633 0.717015
O O11 0.407402 0.842669 0.812429
O O12 0.000000 0.839192 0.750000
O O13 0.970828 0.844558 0.613119
O O14 0.457759 0.249118 0.122900
O O15 0.109072 0.188692 0.048957
O O16 0.275898 0.175720 0.992468
#
# Coordination Sequence:
#
# PCOD9273806 Si02
#       8
#     4   8   8   8   8   8   8   8
#     4  10  20  40  64  82 126 170 206 256 308 364
#     4  10  23  43  62  91 129 163 220 251 315 378
#     4  10  21  37  56  89 124 153 205 255 305 373
#     4  10  20  38  59  87 119 162 205 250 307 365
#     4  11  22  39  62  92 127 159 213 258 308 381
#     4  11  22  42  66  91 126 165 207 262 326 357
#     4   9  23  43  63  91 126 163 211 262 307 387
#     4  11  23  38  65  93 125 170 205 258 322 371
#
# _framework density 19.916215999999999
#
# number of rings (size 3 to 8) (size 9 to 14) (size 15 to 20)
#    0.000    1.867    2.000    2.000    3.733    3.200 
#    7.200    2.000    0.000    0.000    0.000    0.000 
#    0.000    0.000    0.000    0.000    0.000    0.000 
#
# Total GULP energy -167284.482226 kJ/mol
# GULP energy per Si atom -5576.149408 kJ/mol
# Density = 1.987089 g / cm^3
# Si number density = 19.916216 Si / 1000 Ang^3
#
#
#
# Elastic Constant Matrix: (Units=GPa)
#
#
# Indices 1 2 3 4 5 6 
#
# 1 54.7368 1.5803 5.6833 0.0010 16.4852 0.0002
# 2 1.5803 55.8270 27.6219 0.0002 -0.9737 -0.0001
# 3 5.6833 27.6219 82.9066 0.0023 17.6047 -0.0006
# 4 0.0010 0.0002 0.0023 18.6737 0.0014 -3.3507
# 5 16.4852 -0.9737 17.6047 0.0014 34.0864 0.0001
# 6 0.0002 -0.0001 -0.0006 -3.3507 0.0001 29.6709
#
#
#
# Elastic Compliance Matrix: (Units=1/GPa)
#
#
# Indices 1 2 3 4 5 6 
#
# 1 0.021534 -0.001495 0.001395 0.000000 -0.011178 0.000000
# 2 -0.001495 0.022285 -0.008548 0.000000 0.005775 0.000000
# 3 0.001395 -0.008548 0.016858 -0.000001 -0.009626 0.000000
# 4 0.000000 0.000000 -0.000001 0.054659 -0.000001 0.006172
# 5 -0.011178 0.005775 -0.009626 -0.000001 0.039880 0.000000
# 6 0.000000 0.000000 0.000000 0.006172 0.000000 0.034400
#
#
# Mechanical properties :
#
#
# Convention : Reuss Voigt Hill
#
# Bulk Modulus (GPa) = 23.05136 29.24904 26.15020
# Shear Modulus (GPa) = 22.58644 27.05854 24.82249
#
# Velocity S-wave (km/s) = 3.37125 3.68994 3.53419
# Velocity P-wave (km/s) = 5.17234 5.73343 5.46009
#
# Compressibility (1/GPa) = 0.04338139
#
# Stress axis : x y z
#
# Youngs Moduli (GPa) = 46.43826 44.87317 59.31853
#
# Poissons Ratio (x) = 0.06708 -0.08278
# Poissons Ratio (y) = 0.06942 0.50708
# Poissons Ratio (z) = -0.06480 0.38359
#
# Static dielectric constant tensor:
#      x y z
#    x 1.719950 0.000000 0.021180 
#    y 0.000000 1.712460 0.000000 
#    z 0.021180 0.000000 1.658180 
# 
# From -- ./inp_files/234786.got.cif
#   From: 2010.05.17/outbox.cif.g08.bks.cpg/sg15_118_cif.got.tgz:234786.got - 2010.06.03 18:47:42.
