data_PCOD9273005
_publ_section_title
;
Structure prediction by ZEFSAII (Michael W. Deem and Ramdas Pophale) SiO2 
 PCOD9273005
Probable space group: C 2/C
;
_chemical_formula_sum "Si O2"
_cell_formula_units_Z 52
_cell_length_a 7.410957
_cell_length_b 18.375972
_cell_length_c 22.801400
_cell_angle_alpha 90.000000
_cell_angle_beta 44.743587
_cell_angle_gamma 90.000000
_cell_volume 2185.842312
_symmetry_space_group_name_H-M "C 2/C"
_symmetry_group_IT_number 15
_symmetry_cell_setting 'monoclinic'
loop_
_space_group_symop_operation_xyz
x,y,z
-x,y,1/2-z
-x,-y,-z
x,-y,1/2+z
1/2+x,1/2+y,z
1/2-x,1/2+y,1/2-z
1/2-x,1/2-y,-z
1/2+x,1/2-y,1/2+z
loop_
_atom_site_type_symbol
_atom_site_label
_atom_site_fract_x
_atom_site_fract_y
_atom_site_fract_z
Si Si1 0.486830 0.960645 0.586659
Si Si2 0.762432 0.737428 0.766875
Si Si3 0.439425 0.806316 0.927015
Si Si4 0.299674 0.428908 0.182005
Si Si5 0.095799 0.789058 0.588498
Si Si6 0.368789 0.450145 0.947177
Si Si7 0.000000 0.998233 0.250000
O O1 0.656605 0.888723 0.549541
O O2 0.317096 0.956931 0.566787
O O3 0.665526 0.031526 0.545463
O O4 0.262933 0.957334 0.686143
O O5 0.520086 0.784615 0.842647
O O6 0.704806 0.658934 0.810887
O O7 0.000000 0.767041 0.750000
O O8 0.869820 0.744547 0.675421
O O9 0.685823 0.802880 0.912865
O O10 0.250000 0.750000 0.000000
O O11 0.434029 0.482857 0.104291
O O12 0.457943 0.448756 0.203722
O O13 0.000000 0.448664 0.250000
O O14 0.250000 0.750000 0.500000
O O15 0.017045 0.869462 0.583330
#
# Coordination Sequence:
#
# PCOD9273005 Si02
#       7
#     8   8   8   8   8   8   4
#     4   9  19  34  61  87 117 157 209 253 309 372
#     4   9  20  37  61  83 117 165 200 250 317 374
#     4  10  20  37  62  86 117 158 207 251 307 378
#     4  10  21  40  62  88 124 159 212 259 311 375
#     4  10  22  39  58  85 127 161 197 253 323 366
#     4   9  19  37  59  86 124 159 200 264 310 368
#     4  10  22  36  64  90 116 162 208 254 318 372
#
# _framework density 23.789455
#
# number of rings (size 3 to 8) (size 9 to 14) (size 15 to 20)
#    0.000    2.462    0.000    0.923    9.692    1.231 
#    2.769    0.769    0.000    0.000    0.000    0.000 
#    0.000    0.000    0.000    0.000    0.000    0.000 
#
# Total GULP energy -144739.982445 kJ/mol
# GULP energy per Si atom -5566.922402 kJ/mol
# Density = 2.373531 g / cm^3
# Si number density = 23.789455 Si / 1000 Ang^3
#
#
#
# Elastic Constant Matrix: (Units=GPa)
#
#
# Indices 1 2 3 4 5 6 
#
# 1 63.8445 -5.3298 -4.6216 -0.0034 6.5047 0.0028
# 2 -5.3298 94.4275 72.0921 -0.0046 -27.7392 0.0034
# 3 -4.6216 72.0921 143.7172 -0.0058 -4.6830 0.0044
# 4 -0.0034 -0.0046 -0.0058 -17.2541 0.0017 14.4180
# 5 6.5047 -27.7392 -4.6830 0.0017 26.0707 -0.0016
# 6 0.0028 0.0034 0.0044 14.4180 -0.0016 4.4539
#
#
#
# Elastic Compliance Matrix: (Units=1/GPa)
#
#
# Indices 1 2 3 4 5 6 
#
# 1 0.016174 -0.001556 0.001122 -0.000004 -0.005490 0.000000
# 2 -0.001556 0.030098 -0.014175 0.000001 0.029866 0.000001
# 3 0.001122 -0.014175 0.013684 -0.000002 -0.012904 0.000000
# 4 -0.000004 0.000001 -0.000002 -0.015643 0.000005 0.050638
# 5 -0.005490 0.029866 -0.012904 0.000005 0.069186 0.000001
# 6 0.000000 0.000001 0.000000 0.050638 0.000001 0.060599
#
#
# Mechanical properties :
#
#
# Convention : Reuss Voigt Hill
#
# Bulk Modulus (GPa) = 32.53376 47.36341 39.94858
# Shear Modulus (GPa) = 23.41243 18.64400 21.02822
#
# Velocity S-wave (km/s) = 3.14052 2.80252 2.97632
# Velocity P-wave (km/s) = 5.18227 5.51586 5.35167
#
# Compressibility (1/GPa) = 0.03073730
#
# Stress axis : x y z
#
# Youngs Moduli (GPa) = 61.82897 33.22532 73.07783
#
# Poissons Ratio (x) = 0.05171 -0.08199
# Poissons Ratio (y) = 0.09623 1.03585
# Poissons Ratio (z) = -0.06937 0.47095
#
# Static dielectric constant tensor:
#      x y z
#    x 1.919920 0.000000 0.025570 
#    y 0.000000 1.917240 0.000000 
#    z 0.025570 0.000000 2.058210 
# 
# From -- ./inp_files/289548.got.cif
#   From: 2010.05.17/outbox.cif.g08.bks.cpg/sg15_145_cif.got.tgz:289548.got - 2010.06.03 18:47:42.
