data_PCOD9273403
_publ_section_title
;
Structure prediction by ZEFSAII (Michael W. Deem and Ramdas Pophale) SiO2 
 PCOD9273403
Probable space group: C 2/C
;
_chemical_formula_sum "Si O2"
_cell_formula_units_Z 52
_cell_length_a 18.321283
_cell_length_b 9.628351
_cell_length_c 25.939199
_cell_angle_alpha 90.000000
_cell_angle_beta 31.058347
_cell_angle_gamma 90.000000
_cell_volume 2360.689644
_symmetry_space_group_name_H-M "C 2/C"
_symmetry_group_IT_number 15
_symmetry_cell_setting 'monoclinic'
loop_
_space_group_symop_operation_xyz
x,y,z
-x,y,1/2-z
-x,-y,-z
x,-y,1/2+z
1/2+x,1/2+y,z
1/2-x,1/2+y,1/2-z
1/2-x,1/2-y,-z
1/2+x,1/2-y,1/2+z
loop_
_atom_site_type_symbol
_atom_site_label
_atom_site_fract_x
_atom_site_fract_y
_atom_site_fract_z
Si Si1 0.000000 0.558535 0.750000
Si Si2 0.969216 0.203873 0.897969
Si Si3 0.167214 0.676038 0.113374
Si Si4 0.835851 0.049133 0.242047
Si Si5 0.518572 0.050029 0.430193
Si Si6 0.413783 0.717453 0.385480
Si Si7 0.286277 0.503074 0.890689
O O1 0.871112 0.448931 0.826022
O O2 0.971431 0.656935 0.815761
O O3 0.948799 0.306798 0.861826
O O4 0.993737 0.286881 0.935725
O O5 0.814115 0.138025 0.997240
O O6 0.088082 0.094419 0.815900
O O7 0.180113 0.831561 0.129033
O O8 0.678356 0.036237 0.313337
O O9 0.953923 0.168297 0.158168
O O10 0.801586 0.056638 0.323962
O O11 0.376440 0.984128 0.491480
O O12 0.500000 0.000000 0.500000
O O13 0.250000 0.750000 0.500000
O O14 0.390415 0.580666 0.364068
#
# Coordination Sequence:
#
# PCOD9273403 Si02
#       7
#     4   8   8   8   8   8   8
#     4  12  24  36  58 104 128 158 208 276 336 386
#     4  10  20  37  65  90 119 168 221 260 313 383
#     4  10  21  37  63  94 122 157 225 271 308 382
#     4  11  20  40  61  90 125 173 213 258 329 395
#     4   9  22  38  61  88 126 167 213 259 321 385
#     4  12  25  39  63  96 134 167 210 271 342 390
#     4  10  20  43  65  87 126 173 209 272 323 386
#
# _framework density 22.027460000000001
#
# number of rings (size 3 to 8) (size 9 to 14) (size 15 to 20)
#    0.000    1.538    3.077    1.846    4.308    1.231 
#    0.000    0.000    0.000    1.846    0.000    0.000 
#    0.000    0.000    0.000    0.000    0.000    0.000 
#
# Total GULP energy -144817.491535 kJ/mol
# GULP energy per Si atom -5569.903521 kJ/mol
# Density = 2.197732 g / cm^3
# Si number density = 22.027460 Si / 1000 Ang^3
#
#
#
# Elastic Constant Matrix: (Units=GPa)
#
#
# Indices 1 2 3 4 5 6 
#
# 1 37.3959 21.8006 23.7450 0.0000 -19.2765 0.0000
# 2 21.8006 91.3778 53.1079 -0.0002 -14.8247 0.0000
# 3 23.7450 53.1079 150.0841 -0.0005 -32.2440 0.0000
# 4 0.0000 -0.0002 -0.0005 47.2317 0.0000 7.3874
# 5 -19.2765 -14.8247 -32.2440 0.0000 39.1905 0.0000
# 6 0.0000 0.0000 0.0000 7.3874 0.0000 24.6222
#
#
#
# Elastic Compliance Matrix: (Units=1/GPa)
#
#
# Indices 1 2 3 4 5 6 
#
# 1 0.039291 -0.006473 -0.000364 0.000000 0.016578 0.000000
# 2 -0.006473 0.014912 -0.004525 0.000000 -0.001265 0.000000
# 3 -0.000364 -0.004525 0.009615 0.000000 0.006020 0.000000
# 4 0.000000 0.000000 0.000000 0.022215 0.000000 -0.006665
# 5 0.016578 -0.001265 0.006020 0.000000 0.038145 0.000000
# 6 0.000000 0.000000 0.000000 -0.006665 0.000000 0.042614
#
#
# Mechanical properties :
#
#
# Convention : Reuss Voigt Hill
#
# Bulk Modulus (GPa) = 24.33389 52.90719 38.62054
# Shear Modulus (GPa) = 24.60482 34.22251 29.41367
#
# Velocity S-wave (km/s) = 3.34579 3.94589 3.65816
# Velocity P-wave (km/s) = 5.09871 6.69559 5.95095
#
# Compressibility (1/GPa) = 0.04109494
#
# Stress axis : x y z
#
# Youngs Moduli (GPa) = 25.45118 67.05955 104.00493
#
# Poissons Ratio (x) = 0.43405 0.03789
# Poissons Ratio (y) = 0.16474 0.47057
# Poissons Ratio (z) = 0.00927 0.30341
#
# Static dielectric constant tensor:
#      x y z
#    x 1.896860 0.000000 -0.007710 
#    y 0.000000 1.825480 0.000000 
#    z -0.007710 0.000000 1.915740 
# 
# From -- ./inp_files/317368.got.cif
#   From: 2010.05.17/outbox.cif.g08.bks.cpg/sg15_159_cif.got.tgz:317368.got - 2010.06.03 18:47:42.
