data_PCOD9273110
_publ_section_title
;
Structure prediction by ZEFSAII (Michael W. Deem and Ramdas Pophale) SiO2 
 PCOD9273110
Probable space group: C 2/C
;
_chemical_formula_sum "Si O2"
_cell_formula_units_Z 48
_cell_length_a 8.773016
_cell_length_b 20.591666
_cell_length_c 28.766813
_cell_angle_alpha 90.000000
_cell_angle_beta 152.309741
_cell_angle_gamma 90.000000
_cell_volume 2414.887457
_symmetry_space_group_name_H-M "C 2/C"
_symmetry_group_IT_number 15
_symmetry_cell_setting 'monoclinic'
loop_
_space_group_symop_operation_xyz
x,y,z
-x,y,1/2-z
-x,-y,-z
x,-y,1/2+z
1/2+x,1/2+y,z
1/2-x,1/2+y,1/2-z
1/2-x,1/2-y,-z
1/2+x,1/2-y,1/2+z
loop_
_atom_site_type_symbol
_atom_site_label
_atom_site_fract_x
_atom_site_fract_y
_atom_site_fract_z
Si Si1 0.366876 0.018998 0.761238
Si Si2 0.313506 0.937157 0.467409
Si Si3 0.386144 0.681007 0.987476
Si Si4 0.823631 0.318153 0.407767
Si Si5 0.052706 0.664633 0.710285
Si Si6 0.721956 0.054737 0.431639
O O1 0.500000 0.985959 0.750000
O O2 0.539214 0.087909 0.819708
O O3 0.029735 0.047821 0.650846
O O4 0.415729 0.972258 0.818250
O O5 0.410778 0.867031 0.473480
O O6 0.330889 0.937452 0.527682
O O7 0.500000 0.000000 0.500000
O O8 0.067461 0.660414 0.932060
O O9 0.217780 0.700159 0.893364
O O10 0.574056 0.743814 0.056879
O O11 0.636177 0.621653 0.050174
O O12 0.427729 0.322847 0.295126
O O13 0.000000 0.680585 0.750000
O O14 0.000000 0.000000 0.500000
#
# Coordination Sequence:
#
# PCOD9273110 Si02
#       6
#     8   8   8   8   8   8
#     4  10  20  37  62  93 124 163 211 255 316 381
#     4  11  24  41  63  94 131 164 213 267 318 385
#     4  11  22  42  66  88 128 168 214 266 313 382
#     4  10  24  41  62  94 125 169 213 258 318 380
#     4  10  20  38  65  90 123 167 211 256 316 388
#     4  12  21  38  67  94 123 169 210 258 328 370
#
# _framework density 19.876702000000002
#
# number of rings (size 3 to 8) (size 9 to 14) (size 15 to 20)
#    0.000    1.333    3.333    3.500    0.000    3.333 
#    3.000    0.000    0.000    0.000    0.000    0.000 
#    0.000    0.000    0.000    0.000    0.000    0.000 
#
# Total GULP energy -133691.160640 kJ/mol
# GULP energy per Si atom -5570.465027 kJ/mol
# Density = 1.983146 g / cm^3
# Si number density = 19.876702 Si / 1000 Ang^3
#
#
#
# Elastic Constant Matrix: (Units=GPa)
#
#
# Indices 1 2 3 4 5 6 
#
# 1 88.8333 32.9599 27.8532 -0.0025 -13.6635 0.0004
# 2 32.9599 70.7771 13.1196 0.0023 -0.7857 0.0027
# 3 27.8532 13.1196 72.5738 0.0030 -15.2053 0.0035
# 4 -0.0025 0.0023 0.0030 28.2892 0.0060 1.1328
# 5 -13.6635 -0.7857 -15.2053 0.0060 28.7199 0.0011
# 6 0.0004 0.0027 0.0035 1.1328 0.0011 31.7906
#
#
#
# Elastic Compliance Matrix: (Units=1/GPa)
#
#
# Indices 1 2 3 4 5 6 
#
# 1 0.015669 -0.006549 -0.003718 0.000001 0.005307 0.000001
# 2 -0.006549 0.017388 -0.001331 -0.000001 -0.003344 -0.000001
# 3 -0.003718 -0.001331 0.016948 -0.000003 0.007168 -0.000002
# 4 0.000001 -0.000001 -0.000003 0.035400 -0.000009 -0.001261
# 5 0.005307 -0.003344 0.007168 -0.000009 0.041047 -0.000002
# 6 0.000001 -0.000001 -0.000002 -0.001261 -0.000002 0.031501
#
#
# Mechanical properties :
#
#
# Convention : Reuss Voigt Hill
#
# Bulk Modulus (GPa) = 37.29858 42.22773 39.76316
# Shear Modulus (GPa) = 26.30417 28.31005 27.30711
#
# Velocity S-wave (km/s) = 3.64176 3.77806 3.71054
# Velocity P-wave (km/s) = 6.04061 6.35001 6.19724
#
# Compressibility (1/GPa) = 0.02681067
#
# Stress axis : x y z
#
# Youngs Moduli (GPa) = 63.82134 57.51088 59.00306
#
# Poissons Ratio (x) = 0.37662 0.21936
# Poissons Ratio (y) = 0.41794 0.07852
# Poissons Ratio (z) = 0.23727 0.07653
#
# Static dielectric constant tensor:
#      x y z
#    x 1.775860 0.000010 -0.030170 
#    y 0.000010 2.020330 -0.000010 
#    z -0.030170 -0.000010 1.394710 
# 
# From -- ./inp_files/290136.got.cif
#   From: 2010.05.17/outbox.cif.g08.bks.cpg/sg15_146_cif.got.tgz:290136.got - 2010.06.03 18:47:42.
