data_PCOD9273021
_publ_section_title
;
Structure prediction by ZEFSAII (Michael W. Deem and Ramdas Pophale) SiO2 
 PCOD9273021
Probable space group: C 2/C
;
_chemical_formula_sum "Si O2"
_cell_formula_units_Z 56
_cell_length_a 10.572388
_cell_length_b 18.063533
_cell_length_c 18.113035
_cell_angle_alpha 90.000000
_cell_angle_beta 133.278869
_cell_angle_gamma 90.000000
_cell_volume 2518.336106
_symmetry_space_group_name_H-M "C 2/C"
_symmetry_group_IT_number 15
_symmetry_cell_setting 'monoclinic'
loop_
_space_group_symop_operation_xyz
x,y,z
-x,y,1/2-z
-x,-y,-z
x,-y,1/2+z
1/2+x,1/2+y,z
1/2-x,1/2+y,1/2-z
1/2-x,1/2-y,-z
1/2+x,1/2-y,1/2+z
loop_
_atom_site_type_symbol
_atom_site_label
_atom_site_fract_x
_atom_site_fract_y
_atom_site_fract_z
Si Si1 0.375806 0.533184 0.385637
Si Si2 0.896489 0.270537 0.952031
Si Si3 0.000000 0.700510 0.250000
Si Si4 0.257713 0.223753 0.749528
Si Si5 0.000000 0.537948 0.750000
Si Si6 0.878339 0.337803 0.088173
Si Si7 0.514712 0.410307 0.167570
Si Si8 0.693187 0.336637 0.544738
O O1 0.500000 0.500000 0.500000
O O2 0.172927 0.509342 0.303495
O O3 0.454307 0.494991 0.344492
O O4 0.373246 0.617889 0.409547
O O5 0.792497 0.278631 0.835446
O O6 0.793215 0.201927 0.950130
O O7 0.880796 0.339710 0.000438
O O8 0.086497 0.240321 0.004820
O O9 0.153566 0.749372 0.278357
O O10 0.100802 0.662982 0.358202
O O11 0.461456 0.218190 0.835426
O O12 0.177282 0.141177 0.705403
O O13 0.932704 0.590355 0.655847
O O14 0.500000 0.404237 0.250000
O O15 0.361932 0.376671 0.053999
#
# Coordination Sequence:
#
# PCOD9273021 Si02
#       8
#     8   8   4   8   4   8   8   8
#     4  10  21  38  63  84 111 155 205 249 287 351
#     4  10  21  35  59  86 121 155 195 246 297 353
#     4  12  23  36  58  84 127 158 190 230 300 372
#     4  11  20  35  55  89 120 152 191 237 294 357
#     4  12  19  36  66  88 113 160 210 246 294 354
#     4  11  19  34  58  87 118 150 197 248 292 349
#     4  10  20  37  62  88 114 148 196 251 294 345
#     4  10  22  39  58  86 118 159 197 234 300 359
#
# _framework density 22.236906000000001
#
# number of rings (size 3 to 8) (size 9 to 14) (size 15 to 20)
#    0.000    1.429    5.000    2.143    0.000    3.429 
#    0.000    0.000   14.143    4.286    0.000    0.000 
#    0.000    0.000    0.000    0.000    0.000    0.000 
#
# Total GULP energy -155983.178267 kJ/mol
# GULP energy per Si atom -5570.827795 kJ/mol
# Density = 2.218629 g / cm^3
# Si number density = 22.236906 Si / 1000 Ang^3
#
#
#
# Elastic Constant Matrix: (Units=GPa)
#
#
# Indices 1 2 3 4 5 6 
#
# 1 67.8084 10.6101 49.7097 0.0000 -3.0628 0.0000
# 2 10.6101 40.2129 9.8902 0.0000 -5.1420 0.0000
# 3 49.7097 9.8902 131.3423 0.0000 7.3230 0.0000
# 4 0.0000 0.0000 0.0000 24.6987 0.0000 -1.1416
# 5 -3.0628 -5.1420 7.3230 0.0000 54.9843 0.0000
# 6 0.0000 0.0000 0.0000 -1.1416 0.0000 27.7115
#
#
#
# Elastic Compliance Matrix: (Units=1/GPa)
#
#
# Indices 1 2 3 4 5 6 
#
# 1 0.021113 -0.003399 -0.007841 0.000000 0.001903 0.000000
# 2 -0.003399 0.026271 -0.000824 0.000000 0.002377 0.000000
# 3 -0.007841 -0.000824 0.010752 0.000000 -0.001946 0.000000
# 4 0.000000 0.000000 0.000000 0.040565 0.000000 0.001671
# 5 0.001903 0.002377 -0.001946 0.000000 0.018774 0.000000
# 6 0.000000 0.000000 0.000000 0.001671 0.000000 0.036155
#
#
# Mechanical properties :
#
#
# Convention : Reuss Voigt Hill
#
# Bulk Modulus (GPa) = 29.40509 42.19817 35.80163
# Shear Modulus (GPa) = 26.44165 32.75582 29.59874
#
# Velocity S-wave (km/s) = 3.45206 3.84218 3.65233
# Velocity P-wave (km/s) = 5.39826 6.22101 5.82418
#
# Compressibility (1/GPa) = 0.03400772
#
# Stress axis : x y z
#
# Youngs Moduli (GPa) = 47.36326 38.06457 93.00695
#
# Poissons Ratio (x) = 0.12938 0.72927
# Poissons Ratio (y) = 0.16099 0.07667
# Poissons Ratio (z) = 0.37138 0.03138
#
# Static dielectric constant tensor:
#      x y z
#    x 1.884240 0.000000 -0.004080 
#    y 0.000000 1.872350 0.000000 
#    z -0.004080 0.000000 1.898860 
# 
# From -- ./inp_files/200832.got.cif
#   From: 2010.05.17/outbox.cif.g08.bks.cpg/sg15_101_cif.got.tgz:200832.got - 2010.06.03 18:47:42.
