data_PCOD9273052
_publ_section_title
;
Structure prediction by ZEFSAII (Michael W. Deem and Ramdas Pophale) SiO2 
 PCOD9273052
Probable space group: C 2/C
;
_chemical_formula_sum "Si O2"
_cell_formula_units_Z 60
_cell_length_a 24.765108
_cell_length_b 21.044198
_cell_length_c 12.782262
_cell_angle_alpha 90.000000
_cell_angle_beta 26.265209
_cell_angle_gamma 90.000000
_cell_volume 2947.948185
_symmetry_space_group_name_H-M "C 2/C"
_symmetry_group_IT_number 15
_symmetry_cell_setting 'monoclinic'
loop_
_space_group_symop_operation_xyz
x,y,z
-x,y,1/2-z
-x,-y,-z
x,-y,1/2+z
1/2+x,1/2+y,z
1/2-x,1/2+y,1/2-z
1/2-x,1/2-y,-z
1/2+x,1/2-y,1/2+z
loop_
_atom_site_type_symbol
_atom_site_label
_atom_site_fract_x
_atom_site_fract_y
_atom_site_fract_z
Si Si1 0.307598 0.468069 0.056337
Si Si2 0.957121 0.591198 0.521077
Si Si3 0.035098 0.056938 0.016777
Si Si4 0.345130 0.078963 0.141804
Si Si5 0.416493 0.224419 0.496139
Si Si6 0.500000 0.011574 0.250000
Si Si7 0.783162 0.716825 0.281528
Si Si8 0.915506 0.814339 0.193287
O O1 0.179109 0.437041 0.246418
O O2 0.275251 0.543418 0.104428
O O3 0.354769 0.456104 0.092731
O O4 0.413596 0.440067 0.799574
O O5 0.939548 0.665843 0.532150
O O6 0.042225 0.576770 0.471751
O O7 0.022401 0.557490 0.308983
O O8 0.068417 0.119060 0.891781
O O9 0.000000 0.000000 0.000000
O O10 0.326200 0.152602 0.151715
O O11 0.388619 0.035137 0.970559
O O12 0.500000 0.211007 0.250000
O O13 0.283159 0.235724 0.682960
O O14 0.461353 0.290775 0.465784
O O15 0.881723 0.759392 0.169082
O O16 0.689391 0.691741 0.535203
#
# Coordination Sequence:
#
# PCOD9273052 Si02
#       8
#     8   8   8   8   8   4   8   8
#     4  10  24  40  61  90 124 166 205 254 313 379
#     4  11  21  42  65  92 123 159 212 260 313 367
#     4  11  24  42  62  89 128 167 209 252 317 383
#     4  11  23  41  62  95 126 159 209 265 315 372
#     4  10  20  37  62  90 118 157 205 257 305 361
#     4  10  22  36  64  90 124 160 196 258 318 366
#     4  10  21  37  63  94 125 154 213 263 305 373
#     4  10  21  39  63  90 118 168 208 255 313 365
#
# _framework density 20.35314
#
# number of rings (size 3 to 8) (size 9 to 14) (size 15 to 20)
#    0.000    1.600    2.000    3.200    1.867    6.400 
#    0.000    3.333    0.000    0.000    0.000    0.000 
#    0.000    0.000    0.000    0.000    0.000    0.000 
#
# Total GULP energy -167339.782571 kJ/mol
# GULP energy per Si atom -5577.992752 kJ/mol
# Density = 2.030682 g / cm^3
# Si number density = 20.353140 Si / 1000 Ang^3
#
#
#
# Elastic Constant Matrix: (Units=GPa)
#
#
# Indices 1 2 3 4 5 6 
#
# 1 67.5831 17.0957 17.1686 -0.0001 -9.3863 0.0000
# 2 17.0957 122.3892 18.4286 -0.0003 6.0794 0.0001
# 3 17.1686 18.4286 46.2869 -0.0005 -1.7261 0.0003
# 4 -0.0001 -0.0003 -0.0005 11.0418 0.0003 6.9516
# 5 -9.3863 6.0794 -1.7261 0.0003 22.4147 -0.0001
# 6 0.0000 0.0001 0.0003 6.9516 -0.0001 35.4061
#
#
#
# Elastic Compliance Matrix: (Units=1/GPa)
#
#
# Indices 1 2 3 4 5 6 
#
# 1 0.017756 -0.002028 -0.005497 0.000000 0.007562 0.000000
# 2 -0.002028 0.009081 -0.002995 0.000000 -0.003543 0.000000
# 3 -0.005497 -0.002995 0.024852 0.000001 0.000424 0.000000
# 4 0.000000 0.000000 0.000001 0.103339 -0.000002 -0.020289
# 5 0.007562 -0.003543 0.000424 -0.000002 0.048774 0.000000
# 6 0.000000 0.000000 0.000000 -0.020289 0.000000 0.032227
#
#
# Mechanical properties :
#
#
# Convention : Reuss Voigt Hill
#
# Bulk Modulus (GPa) = 32.62797 37.96055 35.29426
# Shear Modulus (GPa) = 18.70660 26.01026 22.35843
#
# Velocity S-wave (km/s) = 3.03496 3.57872 3.31800
# Velocity P-wave (km/s) = 5.32419 5.98061 5.66192
#
# Compressibility (1/GPa) = 0.03064855
#
# Stress axis : x y z
#
# Youngs Moduli (GPa) = 56.31799 110.12042 40.23896
#
# Poissons Ratio (x) = 0.22335 0.22118
# Poissons Ratio (y) = 0.11423 0.12053
# Poissons Ratio (z) = 0.30956 0.32984
#
# Static dielectric constant tensor:
#      x y z
#    x 1.706460 0.000000 0.012360 
#    y 0.000000 1.724680 0.000000 
#    z 0.012360 0.000000 1.777440 
# 
# From -- ./inp_files/119929.got.cif
#   From: 2010.05.17/outbox.cif.g08.bks.cpg/sg15_60_cif.got.tgz:119929.got - 2010.06.03 18:47:42.
