data_PCOD9273511
_publ_section_title
;
Structure prediction by ZEFSAII (Michael W. Deem and Ramdas Pophale) SiO2 
 PCOD9273511
Probable space group: C 2/C
;
_chemical_formula_sum "Si O2"
_cell_formula_units_Z 48
_cell_length_a 12.723016
_cell_length_b 30.198546
_cell_length_c 7.994352
_cell_angle_alpha 90.000000
_cell_angle_beta 138.707410
_cell_angle_gamma 90.000000
_cell_volume 2026.937999
_symmetry_space_group_name_H-M "C 2/C"
_symmetry_group_IT_number 15
_symmetry_cell_setting 'monoclinic'
loop_
_space_group_symop_operation_xyz
x,y,z
-x,y,1/2-z
-x,-y,-z
x,-y,1/2+z
1/2+x,1/2+y,z
1/2-x,1/2+y,1/2-z
1/2-x,1/2-y,-z
1/2+x,1/2-y,1/2+z
loop_
_atom_site_type_symbol
_atom_site_label
_atom_site_fract_x
_atom_site_fract_y
_atom_site_fract_z
Si Si1 0.793774 0.147333 0.659435
Si Si2 0.590704 0.774614 0.038233
Si Si3 0.281128 0.813865 0.798392
Si Si4 0.822420 0.448362 0.476809
Si Si5 0.659748 0.477443 0.614988
Si Si6 0.102489 0.886379 0.707880
O O1 0.733147 0.190392 0.685292
O O2 0.752112 0.160765 0.418592
O O3 0.696861 0.103080 0.589908
O O4 0.973262 0.133255 0.920096
O O5 0.500000 0.769443 0.750000
O O6 0.457454 0.794489 0.999490
O O7 0.662359 0.727559 0.171399
O O8 0.238790 0.849788 0.886489
O O9 0.692279 0.459425 0.467030
O O10 0.784810 0.483051 0.287294
O O11 0.000000 0.455547 0.750000
O O12 0.500000 0.500000 0.500000
O O13 0.675749 0.432847 0.741002
O O14 0.000000 0.893019 0.750000
#
# Coordination Sequence:
#
# PCOD9273511 Si02
#       6
#     8   8   8   8   8   8
#     4  11  22  40  68  95 128 168 214 266 324 386
#     4  10  20  37  67 102 128 158 214 271 322 386
#     4  11  21  40  66  98 127 166 212 268 325 386
#     4  12  25  44  68 100 135 170 217 271 331 388
#     4  12  25  44  67  97 130 174 221 269 323 389
#     4  12  25  42  62  92 129 174 220 267 322 385
#
# _framework density 23.681041
#
# number of rings (size 3 to 8) (size 9 to 14) (size 15 to 20)
#    0.000    0.667    3.333    8.000    0.000    0.000 
#    0.000    4.167    0.000    0.000    0.000    0.000 
#    0.000    0.000    0.000    0.000    0.000    0.000 
#
# Total GULP energy -134242.380375 kJ/mol
# GULP energy per Si atom -5593.432516 kJ/mol
# Density = 2.362714 g / cm^3
# Si number density = 23.681041 Si / 1000 Ang^3
#
#
#
# Elastic Constant Matrix: (Units=GPa)
#
#
# Indices 1 2 3 4 5 6 
#
# 1 51.3417 3.4442 -5.5270 0.0000 -5.9764 0.0000
# 2 3.4442 174.2827 10.9010 0.0000 -3.2912 0.0000
# 3 -5.5270 10.9010 18.0114 0.0000 13.8044 0.0000
# 4 0.0000 0.0000 0.0000 3.6122 0.0000 -5.3439
# 5 -5.9764 -3.2912 13.8044 0.0000 38.1819 0.0000
# 6 0.0000 0.0000 0.0000 -5.3439 0.0000 33.9943
#
#
#
# Elastic Compliance Matrix: (Units=1/GPa)
#
#
# Indices 1 2 3 4 5 6 
#
# 1 0.020280 -0.000754 0.005944 0.000000 0.000960 0.000000
# 2 -0.000754 0.006172 -0.005926 0.000000 0.002556 0.000000
# 3 0.005944 -0.005926 0.083842 0.000000 -0.029893 0.000000
# 4 0.000000 0.000000 0.000000 0.360732 0.000000 0.056707
# 5 0.000960 0.002556 -0.029893 0.000000 0.037369 0.000000
# 6 0.000000 0.000000 0.000000 0.056707 0.000000 0.038331
#
#
# Mechanical properties :
#
#
# Convention : Reuss Voigt Hill
#
# Bulk Modulus (GPa) = 9.18954 29.03024 19.10989
# Shear Modulus (GPa) = 8.55473 30.81220 19.68347
#
# Velocity S-wave (km/s) = 1.90271 3.61104 2.88617
# Velocity P-wave (km/s) = 2.95230 5.44716 4.38108
#
# Compressibility (1/GPa) = 0.10881938
#
# Stress axis : x y z
#
# Youngs Moduli (GPa) = 49.31073 162.03113 11.92722
#
# Poissons Ratio (x) = 0.12223 -0.07089
# Poissons Ratio (y) = 0.03720 0.07068
# Poissons Ratio (z) = -0.29309 0.96021
#
# Static dielectric constant tensor:
#      x y z
#    x 1.959020 0.000000 -0.034520 
#    y 0.000000 1.848240 0.000000 
#    z -0.034520 0.000000 1.973320 
# 
# From -- ./inp_files/43927.got.cif
#   From: 2010.05.17/outbox.cif.g08.bks.cpg/sg15_22_cif.got.tgz:43927.got - 2010.06.03 18:47:42.
