data_PCOD9273266
_publ_section_title
;
Structure prediction by ZEFSAII (Michael W. Deem and Ramdas Pophale) SiO2 
 PCOD9273266
Probable space group: C 2/C
;
_chemical_formula_sum "Si O2"
_cell_formula_units_Z 60
_cell_length_a 23.600186
_cell_length_b 14.425800
_cell_length_c 16.643430
_cell_angle_alpha 90.000000
_cell_angle_beta 147.555189
_cell_angle_gamma 90.000000
_cell_volume 3039.886387
_symmetry_space_group_name_H-M "C 2/C"
_symmetry_group_IT_number 15
_symmetry_cell_setting 'monoclinic'
loop_
_space_group_symop_operation_xyz
x,y,z
-x,y,1/2-z
-x,-y,-z
x,-y,1/2+z
1/2+x,1/2+y,z
1/2-x,1/2+y,1/2-z
1/2-x,1/2-y,-z
1/2+x,1/2-y,1/2+z
loop_
_atom_site_type_symbol
_atom_site_label
_atom_site_fract_x
_atom_site_fract_y
_atom_site_fract_z
Si Si1 0.269712 0.541860 0.124644
Si Si2 0.000000 0.927082 0.250000
Si Si3 0.624815 0.885924 0.174999
Si Si4 0.117025 0.150217 0.739478
Si Si5 0.787244 0.657287 0.198154
Si Si6 0.580249 0.052245 0.007588
Si Si7 0.704350 0.522131 0.527814
Si Si8 0.102969 0.826687 0.603807
O O1 0.304746 0.435557 0.181293
O O2 0.151428 0.558462 0.014288
O O3 0.345586 0.605590 0.269356
O O4 0.284254 0.560481 0.048071
O O5 0.067422 0.866500 0.268530
O O6 0.083007 0.993298 0.395344
O O7 0.609372 0.778776 0.140732
O O8 0.594710 0.949679 0.062607
O O9 0.742871 0.910643 0.344167
O O10 0.541710 0.920624 0.143105
O O11 0.173387 0.248379 0.794269
O O12 0.016420 0.146884 0.560055
O O13 0.868535 0.620355 0.363471
O O14 0.770079 0.573703 0.115502
O O15 0.676615 0.668849 0.112600
#
# Coordination Sequence:
#
# PCOD9273266 Si02
#       8
#     8   4   8   8   8   8   8   8
#     4  10  23  37  58  87 123 153 205 235 298 354
#     4  10  22  40  60  84 130 154 196 240 300 350
#     4  10  20  37  64  83 123 153 201 244 302 343
#     4  11  21  40  61  88 119 159 194 249 296 355
#     4  10  20  38  64  88 122 149 202 242 302 345
#     4   9  19  38  58  91 114 157 197 250 288 353
#     4  10  22  41  57  86 120 163 188 249 292 357
#     4  11  21  39  63  91 115 160 200 250 287 356
#
# _framework density 19.737580999999999
#
# number of rings (size 3 to 8) (size 9 to 14) (size 15 to 20)
#    0.000    1.867    2.667    1.200    0.000    3.200 
#    7.200    0.000    0.000    0.000    0.000    0.000 
#    0.000    0.000    0.000    0.000    0.000    0.000 
#
# Total GULP energy -167517.091348 kJ/mol
# GULP energy per Si atom -5583.903045 kJ/mol
# Density = 1.969266 g / cm^3
# Si number density = 19.737581 Si / 1000 Ang^3
#
#
#
# Elastic Constant Matrix: (Units=GPa)
#
#
# Indices 1 2 3 4 5 6 
#
# 1 64.2740 5.2653 1.0332 0.0000 -2.1814 0.0000
# 2 5.2653 66.7832 -4.3370 0.0000 -7.2063 0.0000
# 3 1.0332 -4.3370 49.5953 0.0000 7.9524 0.0000
# 4 0.0000 0.0000 0.0000 13.2186 0.0000 0.6996
# 5 -2.1814 -7.2063 7.9524 0.0000 22.6062 0.0000
# 6 0.0000 0.0000 0.0000 0.6996 0.0000 19.2166
#
#
#
# Elastic Compliance Matrix: (Units=1/GPa)
#
#
# Indices 1 2 3 4 5 6 
#
# 1 0.015708 -0.001131 -0.000648 0.000000 0.001383 0.000000
# 2 -0.001131 0.015605 0.000644 0.000000 0.004639 0.000000
# 3 -0.000648 0.000644 0.021418 0.000000 -0.007392 0.000000
# 4 0.000000 0.000000 0.000000 0.075797 0.000000 -0.002759
# 5 0.001383 0.004639 -0.007392 0.000000 0.048448 0.000000
# 6 0.000000 0.000000 0.000000 -0.002759 0.000000 0.052139
#
#
# Mechanical properties :
#
#
# Convention : Reuss Voigt Hill
#
# Bulk Modulus (GPa) = 19.81673 20.50839 20.16256
# Shear Modulus (GPa) = 20.14453 22.92102 21.53277
#
# Velocity S-wave (km/s) = 3.19818 3.41146 3.30654
# Velocity P-wave (km/s) = 4.86823 5.09220 4.98148
#
# Compressibility (1/GPa) = 0.05046242
#
# Stress axis : x y z
#
# Youngs Moduli (GPa) = 63.66008 64.08029 46.68907
#
# Poissons Ratio (x) = 0.07250 0.03025
# Poissons Ratio (y) = 0.07202 -0.03009
# Poissons Ratio (z) = 0.04125 -0.04130
#
# Static dielectric constant tensor:
#      x y z
#    x 1.708870 0.000000 0.009010 
#    y 0.000000 1.662940 0.000000 
#    z 0.009010 0.000000 1.723360 
# 
# From -- ./inp_files/222722.got.cif
#   From: 2010.05.17/outbox.cif.g08.bks.cpg/sg15_112_cif.got.tgz:222722.got - 2010.06.03 18:47:42.
