data_PCOD9273242
_publ_section_title
;
Structure prediction by ZEFSAII (Michael W. Deem and Ramdas Pophale) SiO2 
 PCOD9273242
Probable space group: C 2/C
;
_chemical_formula_sum "Si O2"
_cell_formula_units_Z 48
_cell_length_a 31.538558
_cell_length_b 8.037998
_cell_length_c 8.418068
_cell_angle_alpha 90.000000
_cell_angle_beta 101.532888
_cell_angle_gamma 90.000000
_cell_volume 2090.952034
_symmetry_space_group_name_H-M "C 2/C"
_symmetry_group_IT_number 15
_symmetry_cell_setting 'monoclinic'
loop_
_space_group_symop_operation_xyz
x,y,z
-x,y,1/2-z
-x,-y,-z
x,-y,1/2+z
1/2+x,1/2+y,z
1/2-x,1/2+y,1/2-z
1/2-x,1/2-y,-z
1/2+x,1/2-y,1/2+z
loop_
_atom_site_type_symbol
_atom_site_label
_atom_site_fract_x
_atom_site_fract_y
_atom_site_fract_z
Si Si1 0.550155 0.748982 0.774969
Si Si2 0.185428 0.364742 0.732099
Si Si3 0.585675 0.571640 0.491297
Si Si4 0.126141 0.558740 0.472402
Si Si5 0.232847 0.287019 0.313116
Si Si6 0.138845 0.165227 0.229813
O O1 0.500000 0.790742 0.750000
O O2 0.561512 0.686966 0.603108
O O3 0.579707 0.905164 0.855422
O O4 0.559674 0.587874 0.897710
O O5 0.152917 0.396946 0.557495
O O6 0.157391 0.351361 0.869145
O O7 0.213196 0.533447 0.766477
O O8 0.223571 0.232143 0.755349
O O9 0.607446 0.657072 0.357149
O O10 0.625276 0.492905 0.617570
O O11 0.124850 0.666803 0.630671
O O12 0.250000 0.250000 0.500000
O O13 0.190498 0.170728 0.271158
#
# Coordination Sequence:
#
# PCOD9273242 Si02
#       6
#     8   8   8   8   8   8
#     4  10  20  37  63  95 125 164 210 260 316 383
#     4  11  24  43  63  90 126 169 214 266 308 370
#     4   9  19  36  61  90 132 162 201 259 315 374
#     4  10  23  40  60  86 123 161 207 259 321 369
#     4  11  24  39  63  91 125 167 218 255 306 369
#     4   9  21  35  57  90 122 164 201 251 316 364
#
# _framework density 22.956049
#
# number of rings (size 3 to 8) (size 9 to 14) (size 15 to 20)
#    0.000    2.000    1.667    0.500    4.667    5.333 
#    0.000    0.833    0.000    0.000    0.000    0.000 
#    0.000    0.000    0.000    0.000    0.000    0.000 
#
# Total GULP energy -133859.849797 kJ/mol
# GULP energy per Si atom -5577.493742 kJ/mol
# Density = 2.290380 g / cm^3
# Si number density = 22.956049 Si / 1000 Ang^3
#
#
#
# Elastic Constant Matrix: (Units=GPa)
#
#
# Indices 1 2 3 4 5 6 
#
# 1 170.5010 38.3452 48.7358 0.0000 14.3848 0.0000
# 2 38.3452 45.3023 0.2349 0.0000 7.4373 0.0000
# 3 48.7358 0.2349 75.8331 0.0000 2.7474 0.0000
# 4 0.0000 0.0000 0.0000 33.7198 0.0000 6.3117
# 5 14.3848 7.4373 2.7474 0.0000 24.8150 0.0000
# 6 0.0000 0.0000 0.0000 6.3117 0.0000 22.5732
#
#
#
# Elastic Compliance Matrix: (Units=1/GPa)
#
#
# Indices 1 2 3 4 5 6 
#
# 1 0.009500 -0.007588 -0.005989 0.000000 -0.002570 0.000000
# 2 -0.007588 0.029280 0.004965 0.000000 -0.004926 0.000000
# 3 -0.005989 0.004965 0.017017 0.000000 0.000100 0.000000
# 4 0.000000 0.000000 0.000000 0.031294 0.000000 -0.008750
# 5 -0.002570 -0.004926 0.000100 0.000000 0.043253 0.000000
# 6 0.000000 0.000000 0.000000 -0.008750 0.000000 0.046747
#
#
# Mechanical properties :
#
#
# Convention : Reuss Voigt Hill
#
# Bulk Modulus (GPa) = 25.92579 51.80760 38.86669
# Shear Modulus (GPa) = 24.13425 29.84296 26.98860
#
# Velocity S-wave (km/s) = 3.24593 3.60947 3.43252
# Velocity P-wave (km/s) = 5.03649 6.32362 5.71640
#
# Compressibility (1/GPa) = 0.03857163
#
# Stress axis : x y z
#
# Youngs Moduli (GPa) = 105.25860 34.15294 58.76526
#
# Poissons Ratio (x) = 0.25917 0.35195
# Poissons Ratio (y) = 0.79875 -0.29175
# Poissons Ratio (z) = 0.63040 -0.16956
#
# Static dielectric constant tensor:
#      x y z
#    x 1.881760 0.000000 -0.041430 
#    y 0.000000 2.238150 0.000000 
#    z -0.041430 0.000000 1.954400 
# 
# From -- ./inp_files/68607.got.cif
#   From: 2010.05.17/outbox.cif.g08.bks.cpg/sg15_35_cif.got.tgz:68607.got - 2010.06.03 18:47:42.
