data_PCOD9273009
_publ_section_title
;
Structure prediction by ZEFSAII (Michael W. Deem and Ramdas Pophale) SiO2 
 PCOD9273009
Probable space group: C 2/C
;
_chemical_formula_sum "Si O2"
_cell_formula_units_Z 48
_cell_length_a 24.840594
_cell_length_b 13.518983
_cell_length_c 13.983033
_cell_angle_alpha 90.000000
_cell_angle_beta 147.477785
_cell_angle_gamma 90.000000
_cell_volume 2524.574007
_symmetry_space_group_name_H-M "C 2/C"
_symmetry_group_IT_number 15
_symmetry_cell_setting 'monoclinic'
loop_
_space_group_symop_operation_xyz
x,y,z
-x,y,1/2-z
-x,-y,-z
x,-y,1/2+z
1/2+x,1/2+y,z
1/2-x,1/2+y,1/2-z
1/2-x,1/2-y,-z
1/2+x,1/2-y,1/2+z
loop_
_atom_site_type_symbol
_atom_site_label
_atom_site_fract_x
_atom_site_fract_y
_atom_site_fract_z
Si Si1 0.056589 0.793392 0.241328
Si Si2 0.237522 0.133241 0.471912
Si Si3 0.535174 0.937677 0.194067
Si Si4 0.915089 0.069196 0.419561
Si Si5 0.902507 0.378967 0.830170
Si Si6 0.315969 0.531134 0.468580
O O1 0.115665 0.715589 0.264711
O O2 0.120025 0.887539 0.375148
O O3 0.000000 0.750112 0.250000
O O4 0.971262 0.834833 0.043844
O O5 0.250000 0.250000 0.500000
O O6 0.349697 0.093310 0.632083
O O7 0.170082 0.100929 0.281605
O O8 0.187619 0.074808 0.485585
O O9 0.500000 0.940271 0.250000
O O10 0.535273 0.045047 0.143669
O O11 0.468415 0.867604 0.025092
O O12 0.864085 0.021492 0.436452
O O13 0.000000 0.000000 0.500000
O O14 0.796949 0.426620 0.702743
#
# Coordination Sequence:
#
# PCOD9273009 Si02
#       6
#     8   8   8   8   8   8
#     4  10  20  37  62  91 119 161 210 257 309 376
#     4  11  23  42  61  91 126 164 212 259 314 378
#     4  10  21  38  57  86 124 160 201 257 312 372
#     4  11  22  41  63  89 127 165 207 256 316 369
#     4  10  20  37  62  86 122 161 206 254 316 368
#     4  10  22  40  62  89 126 161 209 265 309 374
#
# _framework density 19.013107999999999
#
# number of rings (size 3 to 8) (size 9 to 14) (size 15 to 20)
#    0.000    1.667    1.667    3.000    0.000    0.000 
#    9.000    3.333    0.000    0.000    0.000    0.000 
#    0.000    0.000    0.000    0.000    0.000    0.000 
#
# Total GULP energy -133895.657082 kJ/mol
# GULP energy per Si atom -5578.985712 kJ/mol
# Density = 1.896983 g / cm^3
# Si number density = 19.013108 Si / 1000 Ang^3
#
#
#
# Elastic Constant Matrix: (Units=GPa)
#
#
# Indices 1 2 3 4 5 6 
#
# 1 159.1727 63.7578 43.3411 0.0000 -18.3778 0.0000
# 2 63.7578 84.6787 29.6843 0.0000 -16.0841 0.0000
# 3 43.3411 29.6843 133.3485 0.0000 -20.2163 0.0000
# 4 0.0000 0.0000 0.0000 14.7282 0.0000 -0.9481
# 5 -18.3778 -16.0841 -20.2163 0.0000 26.5747 0.0000
# 6 0.0000 0.0000 0.0000 -0.9481 0.0000 22.2367
#
#
#
# Elastic Compliance Matrix: (Units=1/GPa)
#
#
# Indices 1 2 3 4 5 6 
#
# 1 0.009352 -0.006241 -0.001404 0.000000 0.001622 0.000000
# 2 -0.006241 0.017984 -0.001107 0.000000 0.005727 0.000000
# 3 -0.001404 -0.001107 0.008990 0.000000 0.005198 0.000000
# 4 0.000000 0.000000 0.000000 0.068084 0.000000 0.002903
# 5 0.001622 0.005727 0.005198 0.000000 0.046172 0.000000
# 6 0.000000 0.000000 0.000000 0.002903 0.000000 0.045095
#
#
# Mechanical properties :
#
#
# Convention : Reuss Voigt Hill
#
# Bulk Modulus (GPa) = 53.13009 72.30735 62.71872
# Shear Modulus (GPa) = 22.78373 28.73569 25.75971
#
# Velocity S-wave (km/s) = 3.46543 3.89184 3.68481
# Velocity P-wave (km/s) = 6.63452 7.63597 7.15279
#
# Compressibility (1/GPa) = 0.01882173
#
# Stress axis : x y z
#
# Youngs Moduli (GPa) = 106.92797 55.60408 111.23443
#
# Poissons Ratio (x) = 0.34704 0.15622
# Poissons Ratio (y) = 0.66736 0.12310
# Poissons Ratio (z) = 0.15018 0.06154
#
# Static dielectric constant tensor:
#      x y z
#    x 1.657860 0.000000 0.002780 
#    y 0.000000 1.709500 0.000000 
#    z 0.002780 0.000000 1.645550 
# 
# From -- ./inp_files/96869.got.cif
#   From: 2010.05.17/outbox.cif.g08.bks.cpg/sg15_49_cif.got.tgz:96869.got - 2010.06.03 18:47:42.
