data_PCOD9273550
_publ_section_title
;
Structure prediction by ZEFSAII (Michael W. Deem and Ramdas Pophale) SiO2 
 PCOD9273550
Probable space group: C 2/C
;
_chemical_formula_sum "Si O2"
_cell_formula_units_Z 60
_cell_length_a 25.798337
_cell_length_b 11.629128
_cell_length_c 17.492247
_cell_angle_alpha 90.000000
_cell_angle_beta 148.766975
_cell_angle_gamma 90.000000
_cell_volume 2721.134038
_symmetry_space_group_name_H-M "C 2/C"
_symmetry_group_IT_number 15
_symmetry_cell_setting 'monoclinic'
loop_
_space_group_symop_operation_xyz
x,y,z
-x,y,1/2-z
-x,-y,-z
x,-y,1/2+z
1/2+x,1/2+y,z
1/2-x,1/2+y,1/2-z
1/2-x,1/2-y,-z
1/2+x,1/2-y,1/2+z
loop_
_atom_site_type_symbol
_atom_site_label
_atom_site_fract_x
_atom_site_fract_y
_atom_site_fract_z
Si Si1 0.237821 0.031029 0.683246
Si Si2 0.996004 0.673169 0.160624
Si Si3 0.000000 0.060497 0.250000
Si Si4 0.224706 0.655466 0.394520
Si Si5 0.458362 0.408921 0.050039
Si Si6 0.350131 0.964709 0.973750
Si Si7 0.817587 0.109369 0.672343
Si Si8 0.314202 0.723275 0.001529
O O1 0.234894 0.153722 0.634278
O O2 0.252300 0.947017 0.631080
O O3 0.136319 0.983021 0.596766
O O4 0.321710 0.996530 0.850480
O O5 0.942363 0.772051 0.042377
O O6 0.000000 0.725702 0.250000
O O7 0.108977 0.651560 0.274928
O O8 0.940599 0.552387 0.100651
O O9 0.096071 0.140531 0.358473
O O10 0.979708 0.978049 0.154301
O O11 0.231641 0.774524 0.356114
O O12 0.300884 0.642007 0.561622
O O13 0.570650 0.408277 0.157908
O O14 0.361743 0.836017 0.019952
O O15 0.254455 0.005921 0.901671
O O16 0.250000 0.750000 0.000000
#
# Coordination Sequence:
#
# PCOD9273550 Si02
#       8
#     8   8   4   8   8   8   8   8
#     4  11  26  42  65  92 138 175 215 272 334 398
#     4  11  22  38  69 100 124 164 221 282 329 388
#     4  10  20  40  66  94 126 170 218 274 312 390
#     4  10  21  38  66  98 127 160 214 274 331 389
#     4  10  20  39  66  97 127 162 218 271 330 389
#     4  12  26  41  66  95 137 173 219 271 337 394
#     4  10  20  37  68  98 122 163 217 274 322 388
#     4  11  26  44  66  95 132 182 223 266 331 403
#
# _framework density 22.049631000000002
#
# number of rings (size 3 to 8) (size 9 to 14) (size 15 to 20)
#    0.000    1.333    2.000    4.000    6.533    1.067 
#    0.000    0.000    0.000    0.000    0.000    0.000 
#    0.000    0.000    0.000    0.000    0.000    0.000 
#
# Total GULP energy -167025.259381 kJ/mol
# GULP energy per Si atom -5567.508646 kJ/mol
# Density = 2.199945 g / cm^3
# Si number density = 22.049631 Si / 1000 Ang^3
#
#
#
# Elastic Constant Matrix: (Units=GPa)
#
#
# Indices 1 2 3 4 5 6 
#
# 1 82.0589 39.1135 24.9389 0.0000 11.8641 0.0000
# 2 39.1135 126.8605 14.8103 0.0000 1.1092 0.0000
# 3 24.9389 14.8103 62.4382 0.0000 6.5764 0.0000
# 4 0.0000 0.0000 0.0000 21.5547 0.0000 13.9497
# 5 11.8641 1.1092 6.5764 0.0000 28.0678 0.0000
# 6 0.0000 0.0000 0.0000 13.9497 0.0000 20.3227
#
#
#
# Elastic Compliance Matrix: (Units=1/GPa)
#
#
# Indices 1 2 3 4 5 6 
#
# 1 0.016677 -0.004509 -0.004991 0.000000 -0.005702 0.000000
# 2 -0.004509 0.009327 -0.000588 0.000000 0.001675 0.000000
# 3 -0.004991 -0.000588 0.018378 0.000000 -0.002173 0.000000
# 4 0.000000 0.000000 0.000000 0.083476 0.000000 -0.057299
# 5 -0.005702 0.001675 -0.002173 0.000000 0.038481 0.000000
# 6 0.000000 0.000000 0.000000 -0.057299 0.000000 0.088536
#
#
# Mechanical properties :
#
#
# Convention : Reuss Voigt Hill
#
# Bulk Modulus (GPa) = 41.31274 47.67590 44.49432
# Shear Modulus (GPa) = 17.66043 26.82203 22.24123
#
# Velocity S-wave (km/s) = 2.83316 3.49153 3.17943
# Velocity P-wave (km/s) = 5.42949 6.15820 5.80529
#
# Compressibility (1/GPa) = 0.02420561
#
# Stress axis : x y z
#
# Youngs Moduli (GPa) = 59.96327 107.21636 54.41412
#
# Poissons Ratio (x) = 0.48347 0.27158
# Poissons Ratio (y) = 0.27039 0.03198
# Poissons Ratio (z) = 0.29927 0.06301
#
# Static dielectric constant tensor:
#      x y z
#    x 1.901160 0.000000 0.014570 
#    y 0.000000 1.921430 0.000000 
#    z 0.014570 0.000000 1.970950 
# 
# From -- ./inp_files/222579.got.cif
#   From: 2010.05.17/outbox.cif.g08.bks.cpg/sg15_112_cif.got.tgz:222579.got - 2010.06.03 18:47:42.
