data_PCOD9273654
_publ_section_title
;
Structure prediction by ZEFSAII (Michael W. Deem and Ramdas Pophale) SiO2 
 PCOD9273654
Probable space group: C 2/C
;
_chemical_formula_sum "Si O2"
_cell_formula_units_Z 64
_cell_length_a 9.113043
_cell_length_b 28.101083
_cell_length_c 14.242120
_cell_angle_alpha 90.000000
_cell_angle_beta 64.191901
_cell_angle_gamma 90.000000
_cell_volume 3283.429841
_symmetry_space_group_name_H-M "C 2/C"
_symmetry_group_IT_number 15
_symmetry_cell_setting 'monoclinic'
loop_
_space_group_symop_operation_xyz
x,y,z
-x,y,1/2-z
-x,-y,-z
x,-y,1/2+z
1/2+x,1/2+y,z
1/2-x,1/2+y,1/2-z
1/2-x,1/2-y,-z
1/2+x,1/2-y,1/2+z
loop_
_atom_site_type_symbol
_atom_site_label
_atom_site_fract_x
_atom_site_fract_y
_atom_site_fract_z
Si Si1 0.855077 0.492883 0.348116
Si Si2 0.281100 0.731760 0.831709
Si Si3 0.774266 0.078881 0.998006
Si Si4 0.389763 0.429855 0.188099
Si Si5 0.209618 0.181533 0.476524
Si Si6 0.938779 0.698945 0.924098
Si Si7 0.425031 0.904901 0.134972
Si Si8 0.379044 0.271018 0.095396
O O1 0.773451 0.530070 0.439914
O O2 0.710902 0.474977 0.320500
O O3 0.000000 0.517714 0.250000
O O4 0.951680 0.446904 0.365468
O O5 0.276039 0.690958 0.914470
O O6 0.383782 0.728097 0.707577
O O7 0.095903 0.728356 0.846345
O O8 0.301947 0.779453 0.887851
O O9 0.737359 0.128416 0.060531
O O10 0.666593 0.079403 0.933694
O O11 0.968630 0.083116 0.924145
O O12 0.500000 0.437230 0.250000
O O13 0.233996 0.395699 0.252839
O O14 0.020376 0.194714 0.516629
O O15 0.788629 0.710621 0.899789
O O16 0.977824 0.643383 0.907281
O O17 0.906157 0.719536 0.038389
#
# Coordination Sequence:
#
# PCOD9273654 Si02
#       8
#     8   8   8   8   8   8   8   8
#     4  10  22  40  61  89 118 157 201 245 307 367
#     4  10  20  38  57  82 118 159 192 249 295 353
#     4  11  21  39  59  88 121 154 198 255 302 357
#     4   9  21  37  62  88 116 150 199 249 301 356
#     4  10  22  36  55  86 120 152 206 236 297 364
#     4  10  21  38  57  90 118 153 205 247 298 361
#     4  10  21  38  61  88 119 153 203 251 300 360
#     4  10  22  36  60  84 121 160 197 248 302 355
#
# _framework density 19.491811999999999
#
# number of rings (size 3 to 8) (size 9 to 14) (size 15 to 20)
#    0.000    2.000    1.250    1.500    3.500    3.000 
#    2.250    0.000    0.000    0.000    0.000    0.000 
#    0.000    0.000    0.000    0.000    0.000    0.000 
#
# Total GULP energy -178240.280431 kJ/mol
# GULP energy per Si atom -5570.008763 kJ/mol
# Density = 1.944745 g / cm^3
# Si number density = 19.491812 Si / 1000 Ang^3
#
#
#
# Elastic Constant Matrix: (Units=GPa)
#
#
# Indices 1 2 3 4 5 6 
#
# 1 94.5127 31.9563 8.0972 0.0000 -5.9084 0.0000
# 2 31.9563 95.6977 35.4345 0.0000 -10.4137 0.0000
# 3 8.0972 35.4345 57.2994 0.0000 -0.6396 0.0000
# 4 0.0000 0.0000 0.0000 9.1849 0.0000 0.8230
# 5 -5.9084 -10.4137 -0.6396 0.0000 22.9348 0.0000
# 6 0.0000 0.0000 0.0000 0.8230 0.0000 18.5942
#
#
#
# Elastic Compliance Matrix: (Units=1/GPa)
#
#
# Indices 1 2 3 4 5 6 
#
# 1 0.012003 -0.004221 0.000927 0.000000 0.001202 0.000000
# 2 -0.004221 0.015892 -0.009166 0.000000 0.005873 0.000000
# 3 0.000927 -0.009166 0.022953 0.000000 -0.003283 0.000000
# 4 0.000000 0.000000 0.000000 0.109308 0.000000 -0.004838
# 5 0.001202 0.005873 -0.003283 0.000000 0.046486 0.000000
# 6 0.000000 0.000000 0.000000 -0.004838 0.000000 0.053994
#
#
# Mechanical properties :
#
#
# Convention : Reuss Voigt Hill
#
# Bulk Modulus (GPa) = 38.56593 44.27618 41.42106
# Shear Modulus (GPa) = 16.99530 21.61088 19.30309
#
# Velocity S-wave (km/s) = 2.95603 3.33335 3.15035
# Velocity P-wave (km/s) = 5.61066 6.13022 5.87618
#
# Compressibility (1/GPa) = 0.02592962
#
# Stress axis : x y z
#
# Youngs Moduli (GPa) = 83.30958 62.92479 43.56788
#
# Poissons Ratio (x) = 0.26560 -0.04041
# Poissons Ratio (y) = 0.35165 0.39933
# Poissons Ratio (z) = -0.07727 0.57675
#
# Static dielectric constant tensor:
#      x y z
#    x 1.728420 0.000000 -0.005500 
#    y 0.000000 1.679710 0.000000 
#    z -0.005500 0.000000 1.749720 
# 
# From -- ./inp_files/138561.got.cif
#   From: 2010.05.17/outbox.cif.g08.bks.cpg/sg15_70_cif.got.tgz:138561.got - 2010.06.03 18:47:42.
