data_PCOD9273119
_publ_section_title
;
Structure prediction by ZEFSAII (Michael W. Deem and Ramdas Pophale) SiO2 
 PCOD9273119
Probable space group: C 2/C
;
_chemical_formula_sum "Si O2"
_cell_formula_units_Z 64
_cell_length_a 6.574103
_cell_length_b 20.864268
_cell_length_c 24.945867
_cell_angle_alpha 90.000000
_cell_angle_beta 112.906491
_cell_angle_gamma 90.000000
_cell_volume 3151.842602
_symmetry_space_group_name_H-M "C 2/C"
_symmetry_group_IT_number 15
_symmetry_cell_setting 'monoclinic'
loop_
_space_group_symop_operation_xyz
x,y,z
-x,y,1/2-z
-x,-y,-z
x,-y,1/2+z
1/2+x,1/2+y,z
1/2-x,1/2+y,1/2-z
1/2-x,1/2-y,-z
1/2+x,1/2-y,1/2+z
loop_
_atom_site_type_symbol
_atom_site_label
_atom_site_fract_x
_atom_site_fract_y
_atom_site_fract_z
Si Si1 0.456038 0.987707 0.557899
Si Si2 0.335442 0.817712 0.183186
Si Si3 0.092261 0.063312 0.343989
Si Si4 0.135907 0.681665 0.138908
Si Si5 0.970346 0.377682 0.401343
Si Si6 0.675052 0.615461 0.085247
Si Si7 0.280207 0.819431 0.979538
Si Si8 0.498895 0.419478 0.311452
O O1 0.686020 0.959635 0.603051
O O2 0.269409 0.937241 0.554123
O O3 0.500000 0.000000 0.500000
O O4 0.408218 0.053436 0.584592
O O5 0.500000 0.810420 0.250000
O O6 0.193386 0.752399 0.165692
O O7 0.449591 0.830341 0.137293
O O8 0.200148 0.882772 0.180711
O O9 0.192492 0.125758 0.323070
O O10 0.910804 0.086030 0.367844
O O11 0.999423 0.997040 0.310194
O O12 0.880927 0.661734 0.120394
O O13 0.170042 0.682277 0.078123
O O14 0.025283 0.350469 0.465532
O O15 0.718139 0.395210 0.363890
O O16 0.455869 0.646217 0.037782
O O17 0.250000 0.750000 0.000000
O O18 0.500000 0.397329 0.250000
#
# Coordination Sequence:
#
# PCOD9273119 Si02
#       8
#     8   8   8   8   8   8   8   8
#     4  10  20  37  62  94 130 163 206 257 319 386
#     4  12  25  42  66  94 128 172 221 270 330 385
#     4   9  21  40  63  90 123 165 211 265 315 381
#     4  10  23  42  65  97 132 173 217 269 324 399
#     4  11  23  41  63  95 132 164 215 267 327 390
#     4  10  21  39  63  93 131 167 213 259 327 386
#     4  11  23  39  62  94 134 172 211 266 322 395
#     4  11  24  43  68  91 126 171 218 272 330 388
#
# _framework density 20.305582999999999
#
# number of rings (size 3 to 8) (size 9 to 14) (size 15 to 20)
#    0.000    1.500    2.500    3.000    1.750    6.000 
#    0.000    0.000    0.000    0.000    0.000    0.000 
#    0.000    0.000    0.000    0.000    0.000    0.000 
#
# Total GULP energy -178526.441888 kJ/mol
# GULP energy per Si atom -5578.951309 kJ/mol
# Density = 2.025937 g / cm^3
# Si number density = 20.305583 Si / 1000 Ang^3
#
#
#
# Elastic Constant Matrix: (Units=GPa)
#
#
# Indices 1 2 3 4 5 6 
#
# 1 62.2137 7.7807 30.0733 0.0000 -0.0051 0.0000
# 2 7.7807 82.4798 34.9665 0.0000 11.6253 0.0000
# 3 30.0733 34.9665 84.5421 0.0000 15.9601 0.0000
# 4 0.0000 0.0000 0.0000 29.6731 0.0000 5.1750
# 5 -0.0051 11.6253 15.9601 0.0000 16.6367 0.0000
# 6 0.0000 0.0000 0.0000 5.1750 0.0000 49.8759
#
#
#
# Elastic Compliance Matrix: (Units=1/GPa)
#
#
# Indices 1 2 3 4 5 6 
#
# 1 0.020389 0.000789 -0.009130 0.000000 0.008213 0.000000
# 2 0.000789 0.015144 -0.005552 0.000000 -0.005256 0.000000
# 3 -0.009130 -0.005552 0.020321 0.000000 -0.015617 0.000000
# 4 0.000000 0.000000 0.000000 0.034322 0.000000 -0.003561
# 5 0.008213 -0.005256 -0.015617 0.000000 0.078765 0.000000
# 6 0.000000 0.000000 0.000000 -0.003561 0.000000 0.020419
#
#
# Mechanical properties :
#
#
# Convention : Reuss Voigt Hill
#
# Bulk Modulus (GPa) = 35.62681 41.65298 38.63990
# Shear Modulus (GPa) = 22.07495 29.66483 25.86989
#
# Velocity S-wave (km/s) = 3.30075 3.82634 3.57323
# Velocity P-wave (km/s) = 5.66657 6.33078 6.00786
#
# Compressibility (1/GPa) = 0.02806875
#
# Stress axis : x y z
#
# Youngs Moduli (GPa) = 49.04671 66.03131 49.21078
#
# Poissons Ratio (x) = -0.05213 0.44928
# Poissons Ratio (y) = -0.03872 0.27324
# Poissons Ratio (z) = 0.44778 0.36663
#
# Static dielectric constant tensor:
#      x y z
#    x 1.745140 0.000000 0.001330 
#    y 0.000000 1.785830 0.000000 
#    z 0.001330 0.000000 1.712960 
# 
# From -- ./inp_files/261826.got.cif
#   From: 2010.05.17/outbox.cif.g08.bks.cpg/sg15_131_cif.got.tgz:261826.got - 2010.06.03 18:47:42.
