data_PCOD9273644
_publ_section_title
;
Structure prediction by ZEFSAII (Michael W. Deem and Ramdas Pophale) SiO2 
 PCOD9273644
Probable space group: C 2/C
;
_chemical_formula_sum "Si O2"
_cell_formula_units_Z 52
_cell_length_a 17.643779
_cell_length_b 20.714759
_cell_length_c 16.107489
_cell_angle_alpha 90.000000
_cell_angle_beta 25.152721
_cell_angle_gamma 90.000000
_cell_volume 2502.196914
_symmetry_space_group_name_H-M "C 2/C"
_symmetry_group_IT_number 15
_symmetry_cell_setting 'monoclinic'
loop_
_space_group_symop_operation_xyz
x,y,z
-x,y,1/2-z
-x,-y,-z
x,-y,1/2+z
1/2+x,1/2+y,z
1/2-x,1/2+y,1/2-z
1/2-x,1/2-y,-z
1/2+x,1/2-y,1/2+z
loop_
_atom_site_type_symbol
_atom_site_label
_atom_site_fract_x
_atom_site_fract_y
_atom_site_fract_z
Si Si1 0.703825 0.588944 0.513341
Si Si2 0.832794 0.661616 0.537051
Si Si3 0.012432 0.216024 0.070926
Si Si4 0.395783 0.149976 0.657748
Si Si5 0.077409 0.803927 0.023834
Si Si6 0.500000 0.640876 0.250000
Si Si7 0.328766 0.947291 0.361416
O O1 0.500000 0.583638 0.750000
O O2 0.828317 0.612693 0.465549
O O3 0.702264 0.644885 0.445601
O O4 0.760975 0.520235 0.421901
O O5 0.920314 0.638393 0.535899
O O6 0.904768 0.733845 0.451593
O O7 0.623557 0.672774 0.763415
O O8 0.024623 0.293649 0.063629
O O9 0.899133 0.202815 0.098718
O O10 0.951676 0.185082 0.218031
O O11 0.202829 0.183438 0.864193
O O12 0.390404 0.084927 0.714583
O O13 0.332457 0.596081 0.441414
O O14 0.500000 0.945370 0.250000
#
# Coordination Sequence:
#
# PCOD9273644 Si02
#       7
#     8   8   8   8   8   4   8
#     4  10  20  38  57  79 117 158 192 231 287 344
#     4   9  18  35  58  85 113 148 187 241 287 337
#     4   9  19  34  57  83 112 146 187 236 294 327
#     4   9  20  36  55  86 114 142 191 240 286 342
#     4   9  18  34  57  87 112 145 191 238 288 338
#     4  10  22  40  58  84 116 156 188 238 286 336
#     4  11  24  39  57  84 118 154 197 230 281 346
#
# _framework density 20.781738000000001
#
# number of rings (size 3 to 8) (size 9 to 14) (size 15 to 20)
#    0.000    2.462    0.769    0.462    3.231    2.462 
#    2.769    3.846    0.000    0.000    0.000    0.000 
#    0.000    0.000    0.000    0.000    0.000    0.000 
#
# Total GULP energy -145188.917239 kJ/mol
# GULP energy per Si atom -5584.189125 kJ/mol
# Density = 2.073444 g / cm^3
# Si number density = 20.781738 Si / 1000 Ang^3
#
#
#
# Elastic Constant Matrix: (Units=GPa)
#
#
# Indices 1 2 3 4 5 6 
#
# 1 77.4945 71.5404 18.0195 0.1057 9.3286 -0.0035
# 2 71.5404 140.9656 22.7505 -0.2702 14.4039 0.0500
# 3 18.0195 22.7505 51.5260 -0.1045 7.8575 0.0235
# 4 0.1057 -0.2702 -0.1045 -40.1164 0.0347 28.8470
# 5 9.3286 14.4039 7.8575 0.0347 21.0151 -0.0086
# 6 -0.0035 0.0500 0.0235 28.8470 -0.0086 2.8623
#
#
#
# Elastic Compliance Matrix: (Units=1/GPa)
#
#
# Indices 1 2 3 4 5 6 
#
# 1 0.024859 -0.011934 -0.003170 0.000041 -0.001671 -0.000155
# 2 -0.011934 0.013736 -0.001340 -0.000037 -0.003616 0.000120
# 3 -0.003170 -0.001340 0.022008 -0.000023 -0.005903 0.000054
# 4 0.000041 -0.000037 -0.000023 -0.003022 0.000033 0.030462
# 5 -0.001671 -0.003616 -0.005903 0.000033 0.053012 -0.000067
# 6 -0.000155 0.000120 0.000054 0.030462 -0.000067 0.042364
#
#
# Mechanical properties :
#
#
# Convention : Reuss Voigt Hill
#
# Bulk Modulus (GPa) = 36.08008 54.95634 45.51821
# Shear Modulus (GPa) = 25.63028 7.26393 16.44710
#
# Velocity S-wave (km/s) = 3.51566 1.87161 2.81627
# Velocity P-wave (km/s) = 5.82056 5.58324 5.70313
#
# Compressibility (1/GPa) = 0.02771612
#
# Stress axis : x y z
#
# Youngs Moduli (GPa) = 40.22709 72.80172 45.43800
#
# Poissons Ratio (x) = 0.86879 0.14402
# Poissons Ratio (y) = 0.48005 0.06090
# Poissons Ratio (z) = 0.12750 0.09757
#
# Static dielectric constant tensor:
#      x y z
#    x 1.755220 0.000000 -0.005760 
#    y 0.000000 1.714770 0.000010 
#    z -0.005760 0.000010 1.795660 
# 
# From -- ./inp_files/48439.got.cif
#   From: 2010.05.17/outbox.cif.g08.bks.cpg/sg15_25_cif.got.tgz:48439.got - 2010.06.03 18:47:42.
