data_PCOD9273767
_publ_section_title
;
Structure prediction by ZEFSAII (Michael W. Deem and Ramdas Pophale) SiO2 
 PCOD9273767
Probable space group: C 2/C
;
_chemical_formula_sum "Si O2"
_cell_formula_units_Z 52
_cell_length_a 5.779813
_cell_length_b 13.616318
_cell_length_c 26.096039
_cell_angle_alpha 90.000000
_cell_angle_beta 91.446136
_cell_angle_gamma 90.000000
_cell_volume 2053.098178
_symmetry_space_group_name_H-M "C 2/C"
_symmetry_group_IT_number 15
_symmetry_cell_setting 'monoclinic'
loop_
_space_group_symop_operation_xyz
x,y,z
-x,y,1/2-z
-x,-y,-z
x,-y,1/2+z
1/2+x,1/2+y,z
1/2-x,1/2+y,1/2-z
1/2-x,1/2-y,-z
1/2+x,1/2-y,1/2+z
loop_
_atom_site_type_symbol
_atom_site_label
_atom_site_fract_x
_atom_site_fract_y
_atom_site_fract_z
Si Si1 0.876022 0.981281 0.822825
Si Si2 0.500000 0.966520 0.250000
Si Si3 0.763442 0.620454 0.847353
Si Si4 0.043183 0.811341 0.880197
Si Si5 0.355854 0.598328 0.484890
Si Si6 0.347944 0.295425 0.448328
Si Si7 0.937246 0.509338 0.581599
O O1 0.725297 0.975500 0.770881
O O2 0.696111 0.972042 0.868827
O O3 0.007472 0.085859 0.829305
O O4 0.047130 0.891270 0.835362
O O5 0.580715 0.904527 0.201465
O O6 0.857867 0.726603 0.864623
O O7 0.820863 0.545258 0.894800
O O8 0.295078 0.768820 0.897957
O O9 0.965743 0.858280 0.933855
O O10 0.500000 0.500000 0.500000
O O11 0.396668 0.671965 0.532267
O O12 0.099981 0.567970 0.464401
O O13 0.250000 0.250000 0.500000
O O14 0.199096 0.392753 0.435742
#
# Coordination Sequence:
#
# PCOD9273767 Si02
#       7
#     8   4   8   8   8   8   8
#     4  10  20  38  59  80 113 148 186 244 307 359
#     4  10  22  42  56  84 108 138 192 244 312 376
#     4  10  20  38  59  81 114 149 188 252 301 363
#     4   9  18  33  56  88 110 155 199 228 297 358
#     4   8  13  26  53  82 116 161 191 233 282 333
#     4   8  13  25  51  79 112 152 193 230 277 331
#     4   8  16  30  52  79 112 152 193 227 288 346
#
# _framework density 25.327575
#
# number of rings (size 3 to 8) (size 9 to 14) (size 15 to 20)
#    0.000    3.077    0.000    0.462    0.000    0.000 
#    5.538   12.308    0.000  116.308    0.000    0.000 
#    0.000    0.000    0.000    0.000    0.000    0.000 
#
# Total GULP energy -145113.191143 kJ/mol
# GULP energy per Si atom -5581.276582 kJ/mol
# Density = 2.526993 g / cm^3
# Si number density = 25.327575 Si / 1000 Ang^3
#
#
#
# Elastic Constant Matrix: (Units=GPa)
#
#
# Indices 1 2 3 4 5 6 
#
# 1 50.4474 15.7706 50.4191 0.0000 2.2264 0.0000
# 2 15.7706 95.8491 77.5313 0.0000 21.2723 0.0000
# 3 50.4191 77.5313 158.7041 0.0000 40.4769 0.0000
# 4 0.0000 0.0000 0.0000 39.2606 0.0000 3.1309
# 5 2.2264 21.2723 40.4769 0.0000 52.3246 0.0000
# 6 0.0000 0.0000 0.0000 3.1309 0.0000 18.9456
#
#
#
# Elastic Compliance Matrix: (Units=1/GPa)
#
#
# Indices 1 2 3 4 5 6 
#
# 1 0.032791 0.004802 -0.014837 0.000000 0.008130 0.000000
# 2 0.004802 0.017968 -0.010450 0.000000 0.000575 0.000000
# 3 -0.014837 -0.010450 0.018531 0.000000 -0.009456 0.000000
# 4 0.000000 0.000000 0.000000 0.025811 0.000000 -0.004266
# 5 0.008130 0.000575 -0.009456 0.000000 0.025847 0.000000
# 6 0.000000 0.000000 0.000000 -0.004266 0.000000 0.053488
#
#
# Mechanical properties :
#
#
# Convention : Reuss Voigt Hill
#
# Bulk Modulus (GPa) = 35.30997 65.82695 50.56846
# Shear Modulus (GPa) = 22.23736 32.85813 27.54774
#
# Velocity S-wave (km/s) = 2.96630 3.60575 3.30154
# Velocity P-wave (km/s) = 5.06986 6.58649 5.87730
#
# Compressibility (1/GPa) = 0.02832061
#
# Stress axis : x y z
#
# Youngs Moduli (GPa) = 30.49595 55.65301 53.96258
#
# Poissons Ratio (x) = -0.26723 0.80063
# Poissons Ratio (y) = -0.14643 0.56391
# Poissons Ratio (z) = 0.45246 0.58158
#
# Static dielectric constant tensor:
#      x y z
#    x 2.039520 0.000000 0.061810 
#    y 0.000000 2.080270 0.000000 
#    z 0.061810 0.000000 1.985550 
# 
# From -- ./inp_files/305460.got.cif
#   From: 2010.05.17/outbox.cif.g08.bks.cpg/sg15_153_cif.got.tgz:305460.got - 2010.06.03 18:47:42.
