data_PCOD9273207
_publ_section_title
;
Structure prediction by ZEFSAII (Michael W. Deem and Ramdas Pophale) SiO2 
 PCOD9273207
Probable space group: C 2/C
;
_chemical_formula_sum "Si O2"
_cell_formula_units_Z 60
_cell_length_a 12.287703
_cell_length_b 23.372929
_cell_length_c 8.996817
_cell_angle_alpha 90.000000
_cell_angle_beta 86.783803
_cell_angle_gamma 90.000000
_cell_volume 2579.812573
_symmetry_space_group_name_H-M "C 2/C"
_symmetry_group_IT_number 15
_symmetry_cell_setting 'monoclinic'
loop_
_space_group_symop_operation_xyz
x,y,z
-x,y,1/2-z
-x,-y,-z
x,-y,1/2+z
1/2+x,1/2+y,z
1/2-x,1/2+y,1/2-z
1/2-x,1/2-y,-z
1/2+x,1/2-y,1/2+z
loop_
_atom_site_type_symbol
_atom_site_label
_atom_site_fract_x
_atom_site_fract_y
_atom_site_fract_z
Si Si1 0.730608 0.998744 0.304026
Si Si2 0.969308 0.938542 0.077148
Si Si3 0.822220 0.081299 0.056333
Si Si4 0.181952 0.323461 0.443889
Si Si5 0.000000 0.687875 0.750000
Si Si6 0.290914 0.078836 0.950055
Si Si7 0.387426 0.264767 0.305807
Si Si8 0.350644 0.208660 0.006456
O O1 0.807701 0.040545 0.199527
O O2 0.667835 0.042799 0.412129
O O3 0.791095 0.957566 0.415827
O O4 0.670475 0.957232 0.195040
O O5 0.842563 0.924144 0.056969
O O6 0.000000 0.938570 0.250000
O O7 0.055007 0.897980 0.983069
O O8 0.000000 0.000000 0.000000
O O9 0.736146 0.132654 0.054916
O O10 0.281402 0.305474 0.325941
O O11 0.130684 0.270649 0.540287
O O12 0.084052 0.345927 0.348822
O O13 0.067383 0.726092 0.630252
O O14 0.324998 0.143272 0.972013
O O15 0.500000 0.296650 0.250000
O O16 0.387003 0.218683 0.172142
O O17 0.250000 0.250000 0.000000
#
# Coordination Sequence:
#
# PCOD9273207 Si02
#       8
#     8   8   8   8   4   8   8   8
#     4  10  20  37  63  91 129 175 218 281 341 404
#     4  12  20  34  57  91 131 174 211 275 349 398
#     4  11  21  37  60  96 129 169 219 270 339 409
#     4  11  25  43  71  99 133 177 230 277 342 409
#     4  12  24  46  72  96 138 186 226 288 348 402
#     4  11  22  39  64  97 134 178 225 279 353 417
#     4  11  24  47  69 100 135 175 225 287 342 407
#     4  12  26  45  70 102 139 185 234 286 350 421
#
# _framework density 23.257503
#
# number of rings (size 3 to 8) (size 9 to 14) (size 15 to 20)
#    0.000    0.800    6.667    1.600    0.000    1.600 
#    0.000    0.000    0.000   12.800    0.000    0.000 
#    0.000    0.000    0.000    0.000    0.000    0.000 
#
# Total GULP energy -167387.569285 kJ/mol
# GULP energy per Si atom -5579.585643 kJ/mol
# Density = 2.320457 g / cm^3
# Si number density = 23.257503 Si / 1000 Ang^3
#
#
#
# Elastic Constant Matrix: (Units=GPa)
#
#
# Indices 1 2 3 4 5 6 
#
# 1 89.5671 19.3733 18.9111 0.0000 -14.9589 0.0000
# 2 19.3733 71.6235 23.3677 0.0000 -4.9904 0.0000
# 3 18.9111 23.3677 116.9211 0.0000 -19.4614 0.0000
# 4 0.0000 0.0000 0.0000 35.9504 0.0000 -0.5484
# 5 -14.9589 -4.9904 -19.4614 0.0000 35.7097 0.0000
# 6 0.0000 0.0000 0.0000 -0.5484 0.0000 17.8155
#
#
#
# Elastic Compliance Matrix: (Units=1/GPa)
#
#
# Indices 1 2 3 4 5 6 
#
# 1 0.012696 -0.002883 -0.000725 0.000000 0.004521 0.000000
# 2 -0.002883 0.015599 -0.002738 0.000000 -0.000520 0.000000
# 3 -0.000725 -0.002738 0.010011 0.000000 0.004770 0.000000
# 4 0.000000 0.000000 0.000000 0.027829 0.000000 0.000857
# 5 0.004521 -0.000520 0.004770 0.000000 0.032424 0.000000
# 6 0.000000 0.000000 0.000000 0.000857 0.000000 0.056157
#
#
# Mechanical properties :
#
#
# Convention : Reuss Voigt Hill
#
# Bulk Modulus (GPa) = 39.03924 44.60175 41.82050
# Shear Modulus (GPa) = 28.41783 32.32577 30.37180
#
# Velocity S-wave (km/s) = 3.49933 3.73219 3.61763
# Velocity P-wave (km/s) = 5.75753 6.14746 5.95569
#
# Compressibility (1/GPa) = 0.02561525
#
# Stress axis : x y z
#
# Youngs Moduli (GPa) = 78.76233 64.10818 99.88910
#
# Poissons Ratio (x) = 0.18481 0.07242
# Poissons Ratio (y) = 0.22705 0.27347
# Poissons Ratio (z) = 0.05710 0.17551
#
# Static dielectric constant tensor:
#      x y z
#    x 2.019980 0.000000 -0.009690 
#    y 0.000000 1.901220 0.000000 
#    z -0.009690 0.000000 1.942600 
# 
# From -- ./inp_files/34288.got.cif
#   From: 2010.05.17/outbox.cif.g08.bks.cpg/sg15_18_cif.got.tgz:34288.got - 2010.06.03 18:47:42.
