data_PCOD9273092
_publ_section_title
;
Structure prediction by ZEFSAII (Michael W. Deem and Ramdas Pophale) SiO2 
 PCOD9273092
Probable space group: C 2/C
;
_chemical_formula_sum "Si O2"
_cell_formula_units_Z 56
_cell_length_a 13.634998
_cell_length_b 20.413091
_cell_length_c 9.147272
_cell_angle_alpha 90.000000
_cell_angle_beta 117.745051
_cell_angle_gamma 90.000000
_cell_volume 2253.265576
_symmetry_space_group_name_H-M "C 2/C"
_symmetry_group_IT_number 15
_symmetry_cell_setting 'monoclinic'
loop_
_space_group_symop_operation_xyz
x,y,z
-x,y,1/2-z
-x,-y,-z
x,-y,1/2+z
1/2+x,1/2+y,z
1/2-x,1/2+y,1/2-z
1/2-x,1/2-y,-z
1/2+x,1/2-y,1/2+z
loop_
_atom_site_type_symbol
_atom_site_label
_atom_site_fract_x
_atom_site_fract_y
_atom_site_fract_z
Si Si1 0.222405 0.248731 0.234697
Si Si2 0.685527 0.838537 0.457913
Si Si3 0.894655 0.772798 0.097383
Si Si4 0.791867 0.964133 0.217373
Si Si5 0.375469 0.878820 0.552111
Si Si6 0.396549 0.067841 0.370942
Si Si7 0.606441 0.429009 0.921516
O O1 0.302249 0.215235 0.407535
O O2 0.157298 0.302936 0.286744
O O3 0.301029 0.272205 0.157120
O O4 0.140993 0.200711 0.086192
O O5 0.615594 0.897781 0.479219
O O6 0.807348 0.869288 0.525583
O O7 0.916397 0.695943 0.067873
O O8 0.000000 0.802304 0.250000
O O9 0.885731 0.948447 0.402167
O O10 0.686424 0.006634 0.203274
O O11 0.842329 0.008443 0.125961
O O12 0.732690 0.900836 0.109595
O O13 0.472433 0.930582 0.573748
O O14 0.353659 0.886655 0.708884
O O15 0.500000 0.412492 0.750000
#
# Coordination Sequence:
#
# PCOD9273092 Si02
#       7
#     8   8   8   8   8   8   8
#     4  10  22  39  63  86 118 162 203 250 313 358
#     4  10  21  42  61  87 123 157 203 262 303 355
#     4  11  21  38  61  90 120 158 201 248 302 370
#     4  11  22  40  61  90 121 162 201 247 303 371
#     4  11  19  37  64  90 126 156 199 248 311 377
#     4  10  20  37  62  91 126 160 193 252 312 370
#     4  11  24  40  60  84 119 160 208 251 298 351
#
# _framework density 24.852817999999999
#
# number of rings (size 3 to 8) (size 9 to 14) (size 15 to 20)
#    0.000    1.429    4.286    1.714    0.000    1.143 
#    0.000   10.000    0.000    1.714    0.000    0.000 
#    0.000    0.000    0.000    0.000    0.000    0.000 
#
# Total GULP energy -156206.662970 kJ/mol
# GULP energy per Si atom -5578.809392 kJ/mol
# Density = 2.479625 g / cm^3
# Si number density = 24.852818 Si / 1000 Ang^3
#
#
#
# Elastic Constant Matrix: (Units=GPa)
#
#
# Indices 1 2 3 4 5 6 
#
# 1 32.9180 -5.5673 35.2824 0.0000 -3.7414 0.0000
# 2 -5.5673 32.9354 8.5528 0.0000 -6.0148 0.0000
# 3 35.2824 8.5528 192.8682 0.0000 -8.3070 0.0000
# 4 0.0000 0.0000 0.0000 18.8064 0.0000 -2.4117
# 5 -3.7414 -6.0148 -8.3070 0.0000 39.5163 0.0000
# 6 0.0000 0.0000 0.0000 -2.4117 0.0000 19.1625
#
#
#
# Elastic Compliance Matrix: (Units=1/GPa)
#
#
# Indices 1 2 3 4 5 6 
#
# 1 0.040670 0.009548 -0.007705 0.000000 0.003684 0.000000
# 2 0.009548 0.033746 -0.003010 0.000000 0.005408 0.000000
# 3 -0.007705 -0.003010 0.006738 0.000000 0.000229 0.000000
# 4 0.000000 0.000000 0.000000 0.054046 0.000000 0.006802
# 5 0.003684 0.005408 0.000229 0.000000 0.026526 0.000000
# 6 0.000000 0.000000 0.000000 0.006802 0.000000 0.053041
#
#
# Mechanical properties :
#
#
# Convention : Reuss Voigt Hill
#
# Bulk Modulus (GPa) = 12.68706 37.25084 24.96895
# Shear Modulus (GPa) = 20.54454 30.19395 25.36925
#
# Velocity S-wave (km/s) = 2.87827 3.48934 3.19843
# Velocity P-wave (km/s) = 4.02018 5.59063 4.86914
#
# Compressibility (1/GPa) = 0.07882046
#
# Stress axis : x y z
#
# Youngs Moduli (GPa) = 24.58796 29.63334 148.41845
#
# Poissons Ratio (x) = -0.28295 1.14353
# Poissons Ratio (y) = -0.23478 0.44678
# Poissons Ratio (z) = 0.18944 0.08920
#
# Static dielectric constant tensor:
#      x y z
#    x 2.021480 0.000000 0.076880 
#    y 0.000000 2.086320 0.000000 
#    z 0.076880 0.000000 2.099020 
# 
# From -- ./inp_files/42099.got.cif
#   From: 2010.05.17/outbox.cif.g08.bks.cpg/sg15_22_cif.got.tgz:42099.got - 2010.06.03 18:47:42.
