data_PCOD9273072
_publ_section_title
;
Structure prediction by ZEFSAII (Michael W. Deem and Ramdas Pophale) SiO2 
 PCOD9273072
Probable space group: C 2/C
;
_chemical_formula_sum "Si O2"
_cell_formula_units_Z 60
_cell_length_a 11.535370
_cell_length_b 24.566848
_cell_length_c 14.213476
_cell_angle_alpha 90.000000
_cell_angle_beta 129.557439
_cell_angle_gamma 90.000000
_cell_volume 3105.475145
_symmetry_space_group_name_H-M "C 2/C"
_symmetry_group_IT_number 15
_symmetry_cell_setting 'monoclinic'
loop_
_space_group_symop_operation_xyz
x,y,z
-x,y,1/2-z
-x,-y,-z
x,-y,1/2+z
1/2+x,1/2+y,z
1/2-x,1/2+y,1/2-z
1/2-x,1/2-y,-z
1/2+x,1/2-y,1/2+z
loop_
_atom_site_type_symbol
_atom_site_label
_atom_site_fract_x
_atom_site_fract_y
_atom_site_fract_z
Si Si1 0.229246 0.120400 0.166281
Si Si2 0.546198 0.779626 0.089058
Si Si3 0.946443 0.826667 0.617349
Si Si4 0.150947 0.465904 0.894430
Si Si5 0.175084 0.268409 0.862079
Si Si6 0.511747 0.113208 0.048812
Si Si7 0.192337 0.414885 0.467881
Si Si8 0.000000 0.349874 0.250000
O O1 0.229526 0.065426 0.107996
O O2 0.302582 0.166984 0.138219
O O3 0.341958 0.113326 0.310740
O O4 0.072934 0.139991 0.126675
O O5 0.432513 0.728470 0.046785
O O6 0.713037 0.756282 0.159039
O O7 0.531493 0.813191 0.176710
O O8 0.521245 0.823304 0.992397
O O9 0.812286 0.869612 0.562431
O O10 0.000000 0.810274 0.750000
O O11 0.000000 0.474491 0.750000
O O12 0.104260 0.424959 0.955029
O O13 0.221129 0.521899 0.967644
O O14 0.000000 0.254772 0.750000
O O15 0.250000 0.250000 0.000000
O O16 0.556188 0.087117 0.972250
O O17 0.138196 0.389343 0.342084
#
# Coordination Sequence:
#
# PCOD9273072 Si02
#       8
#     8   8   8   8   8   8   8   4
#     4  10  21  37  60  85 120 155 207 244 304 360
#     4  10  22  37  60  88 128 155 198 249 308 364
#     4  11  22  38  56  88 119 160 194 241 303 365
#     4  10  20  38  61  86 116 156 206 258 296 354
#     4  11  22  38  62  90 124 163 206 251 307 375
#     4  10  20  37  62  91 115 160 205 253 296 369
#     4  11  22  37  61  84 123 154 206 245 308 357
#     4  10  22  38  54  92 114 156 196 248 296 360
#
# _framework density 19.320715
#
# number of rings (size 3 to 8) (size 9 to 14) (size 15 to 20)
#    0.000    1.600    2.667    3.200    0.000    6.933 
#    0.000    0.000    0.000    3.200    0.000    0.000 
#    0.000    0.000    0.000    0.000    0.000    0.000 
#
# Total GULP energy -167131.074629 kJ/mol
# GULP energy per Si atom -5571.035821 kJ/mol
# Density = 1.927674 g / cm^3
# Si number density = 19.320715 Si / 1000 Ang^3
#
#
#
# Elastic Constant Matrix: (Units=GPa)
#
#
# Indices 1 2 3 4 5 6 
#
# 1 74.2263 33.4183 8.1593 0.0000 -6.7102 0.0000
# 2 33.4183 131.0043 18.0260 0.0000 -12.4952 0.0000
# 3 8.1593 18.0260 41.3162 0.0000 -8.3573 0.0000
# 4 0.0000 0.0000 0.0000 21.3335 0.0000 -15.8940
# 5 -6.7102 -12.4952 -8.3573 0.0000 17.9036 0.0000
# 6 0.0000 0.0000 0.0000 -15.8940 0.0000 99.9276
#
#
#
# Elastic Compliance Matrix: (Units=1/GPa)
#
#
# Indices 1 2 3 4 5 6 
#
# 1 0.015425 -0.003533 -0.000921 0.000000 0.002886 0.000000
# 2 -0.003533 0.009262 -0.002544 0.000000 0.003952 0.000000
# 3 -0.000921 -0.002544 0.027680 0.000000 0.010800 0.000000
# 4 0.000000 0.000000 0.000000 0.053176 0.000000 0.008458
# 5 0.002886 0.003952 0.010800 0.000000 0.064736 0.000000
# 6 0.000000 0.000000 0.000000 0.008458 0.000000 0.011353
#
#
# Mechanical properties :
#
#
# Convention : Reuss Voigt Hill
#
# Bulk Modulus (GPa) = 26.06116 40.63935 33.35026
# Shear Modulus (GPa) = 23.99039 40.29581 32.14310
#
# Velocity S-wave (km/s) = 3.52759 4.57182 4.08322
# Velocity P-wave (km/s) = 5.48724 6.99632 6.28722
#
# Compressibility (1/GPa) = 0.03837128
#
# Stress axis : x y z
#
# Youngs Moduli (GPa) = 64.82986 107.97384 36.12724
#
# Poissons Ratio (x) = 0.38145 0.03328
# Poissons Ratio (y) = 0.22903 0.09189
# Poissons Ratio (z) = 0.05972 0.27464
#
# Static dielectric constant tensor:
#      x y z
#    x 1.709260 0.000000 -0.011120 
#    y 0.000000 1.744450 0.000000 
#    z -0.011120 0.000000 1.721550 
# 
# From -- ./inp_files/148109.got.cif
#   From: 2010.05.17/outbox.cif.g08.bks.cpg/sg15_75_cif.got.tgz:148109.got - 2010.06.03 18:47:42.
