data_PCOD9273020
_publ_section_title
;
Structure prediction by ZEFSAII (Michael W. Deem and Ramdas Pophale) SiO2 
 PCOD9273020
Probable space group: C 2/C
;
_chemical_formula_sum "Si O2"
_cell_formula_units_Z 56
_cell_length_a 16.486546
_cell_length_b 10.467067
_cell_length_c 13.414111
_cell_angle_alpha 90.000000
_cell_angle_beta 106.579544
_cell_angle_gamma 90.000000
_cell_volume 2218.576919
_symmetry_space_group_name_H-M "C 2/C"
_symmetry_group_IT_number 15
_symmetry_cell_setting 'monoclinic'
loop_
_space_group_symop_operation_xyz
x,y,z
-x,y,1/2-z
-x,-y,-z
x,-y,1/2+z
1/2+x,1/2+y,z
1/2-x,1/2+y,1/2-z
1/2-x,1/2-y,-z
1/2+x,1/2-y,1/2+z
loop_
_atom_site_type_symbol
_atom_site_label
_atom_site_fract_x
_atom_site_fract_y
_atom_site_fract_z
Si Si1 0.212680 0.024611 0.036498
Si Si2 0.047126 0.696772 0.017395
Si Si3 0.406261 0.747408 0.758459
Si Si4 0.346078 0.484589 0.685805
Si Si5 0.373839 0.073632 0.974856
Si Si6 0.448515 0.407131 0.906493
Si Si7 0.186445 0.504381 0.748301
O O1 0.163253 0.948658 0.932530
O O2 0.289035 0.097408 0.006639
O O3 0.141449 0.109165 0.066747
O O4 0.262211 0.944024 0.138833
O O5 0.092234 0.773579 0.121499
O O6 0.102905 0.577019 0.005831
O O7 0.959666 0.643066 0.036222
O O8 0.008784 0.785258 0.919753
O O9 0.500000 0.729535 0.750000
O O10 0.348559 0.639931 0.688652
O O11 0.375470 0.892792 0.736598
O O12 0.421643 0.450635 0.787069
O O13 0.260365 0.438994 0.708361
O O14 0.358752 0.091507 0.850109
O O15 0.500000 0.500000 0.000000
#
# Coordination Sequence:
#
# PCOD9273020 Si02
#       7
#     8   8   8   8   8   8   8
#     4  10  21  38  59  86 121 150 202 244 288 357
#     4  10  20  37  62  87 122 152 191 250 300 349
#     4  11  20  34  61  91 114 151 201 252 303 344
#     4  10  22  36  59  86 121 154 192 243 302 358
#     4   9  20  39  63  89 118 155 195 242 306 351
#     4  11  22  38  61  85 118 157 197 243 294 350
#     4   9  21  37  58  86 119 154 194 249 293 350
#
# _framework density 25.241406000000001
#
# number of rings (size 3 to 8) (size 9 to 14) (size 15 to 20)
#    0.000    2.000    1.429    1.714    0.000    5.714 
#    0.000    0.714    9.429    0.000    0.000    0.000 
#    0.000    0.000    0.000    0.000    0.000    0.000 
#
# Total GULP energy -156321.302168 kJ/mol
# GULP energy per Si atom -5582.903649 kJ/mol
# Density = 2.518396 g / cm^3
# Si number density = 25.241406 Si / 1000 Ang^3
#
#
#
# Elastic Constant Matrix: (Units=GPa)
#
#
# Indices 1 2 3 4 5 6 
#
# 1 133.0736 21.0010 7.4894 0.0000 1.9968 0.0000
# 2 21.0010 28.7449 17.1558 0.0000 13.4373 0.0000
# 3 7.4894 17.1558 196.6632 0.0000 26.3986 0.0000
# 4 0.0000 0.0000 0.0000 20.7234 0.0000 7.0465
# 5 1.9968 13.4373 26.3986 0.0000 38.0654 0.0000
# 6 0.0000 0.0000 0.0000 7.0465 0.0000 25.1035
#
#
#
# Elastic Compliance Matrix: (Units=1/GPa)
#
#
# Indices 1 2 3 4 5 6 
#
# 1 0.008635 -0.007311 0.000026 0.000000 0.002110 0.000000
# 2 -0.007311 0.048460 -0.001879 0.000000 -0.015420 0.000000
# 3 0.000026 -0.001879 0.005688 0.000000 -0.003283 0.000000
# 4 0.000000 0.000000 0.000000 0.053346 0.000000 -0.014974
# 5 0.002110 -0.015420 -0.003283 0.000000 0.033880 0.000000
# 6 0.000000 0.000000 0.000000 -0.014974 0.000000 0.044038
#
#
# Mechanical properties :
#
#
# Convention : Reuss Voigt Hill
#
# Bulk Modulus (GPa) = 22.49444 49.97488 36.23466
# Shear Modulus (GPa) = 22.00761 37.63415 29.82088
#
# Velocity S-wave (km/s) = 2.95597 3.86550 3.44092
# Velocity P-wave (km/s) = 4.53668 6.30591 5.49299
#
# Compressibility (1/GPa) = 0.04445543
#
# Stress axis : x y z
#
# Youngs Moduli (GPa) = 115.80449 20.63574 175.79439
#
# Poissons Ratio (x) = 0.15086 -0.00451
# Poissons Ratio (y) = 0.84659 0.33033
# Poissons Ratio (z) = -0.00297 0.03878
#
# Static dielectric constant tensor:
#      x y z
#    x 1.952260 0.000000 0.002410 
#    y 0.000000 1.998650 0.000000 
#    z 0.002410 0.000000 2.039400 
# 
# From -- ./inp_files/160990.got.cif
#   From: 2010.05.17/outbox.cif.g08.bks.cpg/sg15_81_cif.got.tgz:160990.got - 2010.06.03 18:47:42.
