data_PCOD9273958
_publ_section_title
;
Structure prediction by ZEFSAII (Michael W. Deem and Ramdas Pophale) SiO2 
 PCOD9273958
Probable space group: C 2/C
;
_chemical_formula_sum "Si O2"
_cell_formula_units_Z 44
_cell_length_a 14.786075
_cell_length_b 16.427189
_cell_length_c 19.685778
_cell_angle_alpha 90.000000
_cell_angle_beta 154.639690
_cell_angle_gamma 90.000000
_cell_volume 2047.982385
_symmetry_space_group_name_H-M "C 2/C"
_symmetry_group_IT_number 15
_symmetry_cell_setting 'monoclinic'
loop_
_space_group_symop_operation_xyz
x,y,z
-x,y,1/2-z
-x,-y,-z
x,-y,1/2+z
1/2+x,1/2+y,z
1/2-x,1/2+y,1/2-z
1/2-x,1/2-y,-z
1/2+x,1/2-y,1/2+z
loop_
_atom_site_type_symbol
_atom_site_label
_atom_site_fract_x
_atom_site_fract_y
_atom_site_fract_z
Si Si1 0.500000 0.120828 0.750000
Si Si2 0.853820 0.420078 0.908650
Si Si3 0.424962 0.461103 0.547949
Si Si4 0.080974 0.867024 0.515915
Si Si5 0.434140 0.794475 0.082343
Si Si6 0.823734 0.283685 0.783054
O O1 0.303626 0.072428 0.587712
O O2 0.418027 0.174109 0.756435
O O3 0.612664 0.443948 0.727999
O O4 0.915958 0.354629 0.892959
O O5 0.870593 0.368166 0.989509
O O6 0.000000 0.500000 0.000000
O O7 0.489953 0.415968 0.521052
O O8 0.393598 0.556808 0.516336
O O9 0.289929 0.820496 0.685294
O O10 0.942559 0.799468 0.382408
O O11 0.579932 0.733908 0.139363
O O12 0.250000 0.750000 0.000000
#
# Coordination Sequence:
#
# PCOD9273958 Si02
#       6
#     4   8   8   8   8   8
#     4  12  24  38  60  90 134 170 198 264 336 394
#     4  11  24  40  62  92 131 175 223 262 321 400
#     4  10  23  39  60  89 131 173 211 265 322 400
#     4  10  20  38  60  90 122 166 222 263 321 382
#     4  12  23  39  60  98 137 169 208 267 337 397
#     4  11  20  36  61  93 120 167 215 274 316 386
#
# _framework density 21.484559000000001
#
# number of rings (size 3 to 8) (size 9 to 14) (size 15 to 20)
#    0.000    1.091    3.636    4.364    5.091    2.182 
#    0.000    0.000    0.000    1.091    0.000    0.000 
#    0.000    0.000    0.000    0.000    0.000    0.000 
#
# Total GULP energy -122678.708332 kJ/mol
# GULP energy per Si atom -5576.304924 kJ/mol
# Density = 2.143566 g / cm^3
# Si number density = 21.484559 Si / 1000 Ang^3
#
#
#
# Elastic Constant Matrix: (Units=GPa)
#
#
# Indices 1 2 3 4 5 6 
#
# 1 26.6561 28.1429 16.5417 0.0095 -18.6528 0.0004
# 2 28.1429 176.2933 52.2006 0.0040 -15.7377 0.0019
# 3 16.5417 52.2006 94.3336 0.0062 -16.0686 -0.0051
# 4 0.0095 0.0040 0.0062 43.5441 -0.0034 -12.4555
# 5 -18.6528 -15.7377 -16.0686 -0.0034 24.1160 -0.0025
# 6 0.0004 0.0019 -0.0051 -12.4555 -0.0025 35.7572
#
#
#
# Elastic Compliance Matrix: (Units=1/GPa)
#
#
# Indices 1 2 3 4 5 6 
#
# 1 0.093524 -0.008964 -0.000129 -0.000015 0.066402 -0.000001
# 2 -0.008964 0.007746 -0.003423 0.000001 -0.004159 -0.000001
# 3 -0.000129 -0.003423 0.013671 0.000000 0.006776 0.000002
# 4 -0.000015 0.000001 0.000000 0.025507 -0.000006 0.008885
# 5 0.066402 -0.004159 0.006776 -0.000006 0.094627 0.000005
# 6 -0.000001 -0.000001 0.000002 0.008885 0.000005 0.031061
#
#
# Mechanical properties :
#
#
# Convention : Reuss Voigt Hill
#
# Bulk Modulus (GPa) = 11.12217 54.56149 32.84183
# Shear Modulus (GPa) = 15.56969 34.04331 24.80650
#
# Velocity S-wave (km/s) = 2.69493 3.98496 3.40166
# Velocity P-wave (km/s) = 3.85637 6.82818 5.54507
#
# Compressibility (1/GPa) = 0.08991053
#
# Stress axis : x y z
#
# Youngs Moduli (GPa) = 10.69241 129.10697 73.14507
#
# Poissons Ratio (x) = 1.15733 0.00941
# Poissons Ratio (y) = 0.09585 0.25035
# Poissons Ratio (z) = 0.00137 0.44189
#
# Static dielectric constant tensor:
#      x y z
#    x 1.785930 0.000000 0.008350 
#    y 0.000000 1.814180 0.000000 
#    z 0.008350 0.000000 1.819830 
# 
# From -- ./inp_files/47025.got.cif
#   From: 2010.05.17/outbox.cif.g08.bks.cpg/sg15_24_cif.got.tgz:47025.got - 2010.06.03 18:47:42.
