data_PCOD9273278
_publ_section_title
;
Structure prediction by ZEFSAII (Michael W. Deem and Ramdas Pophale) SiO2 
 PCOD9273278
Probable space group: C 2/C
;
_chemical_formula_sum "Si O2"
_cell_formula_units_Z 60
_cell_length_a 19.815433
_cell_length_b 8.869839
_cell_length_c 18.327523
_cell_angle_alpha 90.000000
_cell_angle_beta 58.651411
_cell_angle_gamma 90.000000
_cell_volume 2750.996743
_symmetry_space_group_name_H-M "C 2/C"
_symmetry_group_IT_number 15
_symmetry_cell_setting 'monoclinic'
loop_
_space_group_symop_operation_xyz
x,y,z
-x,y,1/2-z
-x,-y,-z
x,-y,1/2+z
1/2+x,1/2+y,z
1/2-x,1/2+y,1/2-z
1/2-x,1/2-y,-z
1/2+x,1/2-y,1/2+z
loop_
_atom_site_type_symbol
_atom_site_label
_atom_site_fract_x
_atom_site_fract_y
_atom_site_fract_z
Si Si1 0.282123 0.995687 0.489711
Si Si2 0.369286 0.100235 0.081682
Si Si3 0.258230 0.149513 0.856408
Si Si4 0.484441 0.302713 0.941935
Si Si5 0.854630 0.201854 0.913811
Si Si6 0.876525 0.938526 0.548249
Si Si7 0.078545 0.425974 0.307324
Si Si8 0.000000 0.319984 0.750000
O O1 0.202919 0.062089 0.572133
O O2 0.312406 0.138140 0.425196
O O3 0.346027 0.959160 0.514771
O O4 0.266982 0.865745 0.439238
O O5 0.294836 0.210044 0.139916
O O6 0.388012 0.980907 0.133177
O O7 0.448920 0.196547 0.025361
O O8 0.345338 0.141861 0.775639
O O9 0.202383 0.004586 0.871762
O O10 0.561883 0.388074 0.926170
O O11 0.510440 0.197766 0.860587
O O12 0.416271 0.428492 0.976249
O O13 0.936537 0.215370 0.826354
O O14 0.863870 0.190405 0.996158
O O15 0.043130 0.567951 0.283214
#
# Coordination Sequence:
#
# PCOD9273278 Si02
#       8
#     8   8   8   8   8   8   8   4
#     4  10  20  41  64  89 124 168 209 249 316 382
#     4  11  23  40  66  91 121 165 217 251 312 387
#     4  10  23  40  62  93 128 163 203 264 319 364
#     4  10  21  39  64  91 123 164 206 260 311 371
#     4  10  20  37  64  87 120 169 201 253 305 376
#     4   9  20  41  64  89 124 165 211 253 308 385
#     4  12  25  39  63  94 126 167 203 273 315 373
#     4  12  24  42  58  94 134 158 212 262 320 360
#
# _framework density 21.810275000000001
#
# number of rings (size 3 to 8) (size 9 to 14) (size 15 to 20)
#    0.000    1.600    1.333    3.200    1.867    1.067 
#    2.400    0.000    0.000    0.000    0.000    0.000 
#    0.000    0.000    0.000    0.000    0.000    0.000 
#
# Total GULP energy -167430.707310 kJ/mol
# GULP energy per Si atom -5581.023577 kJ/mol
# Density = 2.176063 g / cm^3
# Si number density = 21.810275 Si / 1000 Ang^3
#
#
#
# Elastic Constant Matrix: (Units=GPa)
#
#
# Indices 1 2 3 4 5 6 
#
# 1 62.2458 -6.7308 3.1648 0.0000 2.7890 0.0000
# 2 -6.7308 34.5236 18.7803 -0.0001 -7.2141 0.0002
# 3 3.1648 18.7803 88.9348 0.0000 -36.1209 0.0000
# 4 0.0000 -0.0001 0.0000 27.0804 0.0000 -6.5273
# 5 2.7890 -7.2141 -36.1209 0.0000 35.2952 0.0000
# 6 0.0000 0.0002 0.0000 -6.5273 0.0000 22.2840
#
#
#
# Elastic Compliance Matrix: (Units=1/GPa)
#
#
# Indices 1 2 3 4 5 6 
#
# 1 0.016808 0.004116 -0.002849 0.000000 -0.003403 0.000000
# 2 0.004116 0.033742 -0.007877 0.000000 -0.001490 0.000000
# 3 -0.002849 -0.007877 0.021300 0.000000 0.020413 0.000000
# 4 0.000000 0.000000 0.000000 0.039732 0.000000 0.011638
# 5 -0.003403 -0.001490 0.020413 0.000000 0.049188 0.000000
# 6 0.000000 0.000000 0.000000 0.011638 0.000000 0.048284
#
#
# Mechanical properties :
#
#
# Convention : Reuss Voigt Hill
#
# Bulk Modulus (GPa) = 17.05648 24.01474 20.53561
# Shear Modulus (GPa) = 20.67685 28.29792 24.48739
#
# Velocity S-wave (km/s) = 3.08235 3.60593 3.35437
# Velocity P-wave (km/s) = 4.52827 5.32650 4.94353
#
# Compressibility (1/GPa) = 0.05862874
#
# Stress axis : x y z
#
# Youngs Moduli (GPa) = 59.49645 29.63696 46.94902
#
# Poissons Ratio (x) = -0.12198 0.13377
# Poissons Ratio (y) = -0.24488 0.36980
# Poissons Ratio (z) = 0.16952 0.23344
#
# Static dielectric constant tensor:
#      x y z
#    x 1.808170 0.000000 -0.014970 
#    y 0.000000 1.850000 0.000000 
#    z -0.014970 0.000000 1.782690 
# 
# From -- ./inp_files/252103.got.cif
#   From: 2010.05.17/outbox.cif.g08.bks.cpg/sg15_127_cif.got.tgz:252103.got - 2010.06.03 18:47:42.
