data_PCOD9273909
_publ_section_title
;
Structure prediction by ZEFSAII (Michael W. Deem and Ramdas Pophale) SiO2 
 PCOD9273909
Probable space group: C 2/C
;
_chemical_formula_sum "Si O2"
_cell_formula_units_Z 36
_cell_length_a 13.801613
_cell_length_b 12.198360
_cell_length_c 11.153546
_cell_angle_alpha 90.000000
_cell_angle_beta 123.528250
_cell_angle_gamma 90.000000
_cell_volume 1565.341279
_symmetry_space_group_name_H-M "C 2/C"
_symmetry_group_IT_number 15
_symmetry_cell_setting 'monoclinic'
loop_
_space_group_symop_operation_xyz
x,y,z
-x,y,1/2-z
-x,-y,-z
x,-y,1/2+z
1/2+x,1/2+y,z
1/2-x,1/2+y,1/2-z
1/2-x,1/2-y,-z
1/2+x,1/2-y,1/2+z
loop_
_atom_site_type_symbol
_atom_site_label
_atom_site_fract_x
_atom_site_fract_y
_atom_site_fract_z
Si Si1 0.589077 0.916349 0.199061
Si Si2 0.685097 0.870388 0.742856
Si Si3 0.944955 0.819505 0.950915
Si Si4 0.313483 0.323317 0.445075
Si Si5 0.500000 0.753244 0.750000
O O1 0.500000 0.919769 0.250000
O O2 0.571643 0.805517 0.111298
O O3 0.717676 0.911235 0.346342
O O4 0.609228 0.028696 0.140151
O O5 0.823419 0.881086 0.848693
O O6 0.672329 0.765054 0.650122
O O7 0.613062 0.831302 0.810100
O O8 0.972999 0.815556 0.111846
O O9 0.055196 0.865164 0.950801
O O10 0.250000 0.250000 0.500000
#
# Coordination Sequence:
#
# PCOD9273909 Si02
#       5
#     8   8   8   8   4
#     4  11  21  38  64  93 122 162 208 256 308 370
#     4  10  22  36  60  92 122 159 208 255 304 367
#     4  10  22  39  62  89 128 162 205 253 312 364
#     4  10  21  38  60  90 127 165 198 255 316 363
#     4  10  20  38  60  86 124 168 200 248 308 368
#
# _framework density 22.998179
#
# number of rings (size 3 to 8) (size 9 to 14) (size 15 to 20)
#    0.000    1.778    3.333    0.667    0.000    6.222 
#    0.000    0.000    0.000    2.667    0.000    0.000 
#    0.000    0.000    0.000    0.000    0.000    0.000 
#
# Total GULP energy -100296.357314 kJ/mol
# GULP energy per Si atom -5572.019851 kJ/mol
# Density = 2.294583 g / cm^3
# Si number density = 22.998179 Si / 1000 Ang^3
#
#
#
# Elastic Constant Matrix: (Units=GPa)
#
#
# Indices 1 2 3 4 5 6 
#
# 1 183.6574 28.8431 43.5423 0.0000 40.8225 0.0000
# 2 28.8431 50.1287 -1.5481 0.0000 17.0310 0.0000
# 3 43.5423 -1.5481 53.0425 0.0000 28.8955 0.0000
# 4 0.0000 0.0000 0.0000 13.7537 0.0000 8.5540
# 5 40.8225 17.0310 28.8955 0.0000 46.5810 0.0000
# 6 0.0000 0.0000 0.0000 8.5540 0.0000 20.7890
#
#
#
# Elastic Compliance Matrix: (Units=1/GPa)
#
#
# Indices 1 2 3 4 5 6 
#
# 1 0.007803 -0.003968 -0.005417 0.000000 -0.002027 0.000000
# 2 -0.003968 0.027192 0.011438 0.000000 -0.013560 0.000000
# 3 -0.005417 0.011438 0.035231 0.000000 -0.021290 0.000000
# 4 0.000000 0.000000 0.000000 0.097714 0.000000 -0.040206
# 5 -0.002027 -0.013560 -0.021290 0.000000 0.041409 0.000000
# 6 0.000000 0.000000 0.000000 -0.040206 0.000000 0.064646
#
#
# Mechanical properties :
#
#
# Convention : Reuss Voigt Hill
#
# Bulk Modulus (GPa) = 13.45328 47.61147 30.53238
# Shear Modulus (GPa) = 16.96838 30.62416 23.79627
#
# Velocity S-wave (km/s) = 2.71922 3.65306 3.22017
# Velocity P-wave (km/s) = 3.96501 6.20808 5.20872
#
# Compressibility (1/GPa) = 0.07433129
#
# Stress axis : x y z
#
# Youngs Moduli (GPa) = 128.15609 36.77563 28.38410
#
# Poissons Ratio (x) = 0.14593 0.15375
# Poissons Ratio (y) = 0.50855 -0.32465
# Poissons Ratio (z) = 0.69420 -0.42063
#
# Static dielectric constant tensor:
#      x y z
#    x 1.875760 0.000000 0.057020 
#    y 0.000000 2.006060 0.000000 
#    z 0.057020 0.000000 1.956580 
# 
# From -- ./inp_files/85360.got.cif
#   From: 2010.05.17/outbox.cif.g08.bks.cpg/sg15_43_cif.got.tgz:85360.got - 2010.06.03 18:47:42.
