data_PCOD9273024
_publ_section_title
;
Structure prediction by ZEFSAII (Michael W. Deem and Ramdas Pophale) SiO2 
 PCOD9273024
Probable space group: C 2/C
;
_chemical_formula_sum "Si O2"
_cell_formula_units_Z 44
_cell_length_a 20.088456
_cell_length_b 19.513834
_cell_length_c 7.377533
_cell_angle_alpha 90.000000
_cell_angle_beta 134.022979
_cell_angle_gamma 90.000000
_cell_volume 2079.534578
_symmetry_space_group_name_H-M "C 2/C"
_symmetry_group_IT_number 15
_symmetry_cell_setting 'monoclinic'
loop_
_space_group_symop_operation_xyz
x,y,z
-x,y,1/2-z
-x,-y,-z
x,-y,1/2+z
1/2+x,1/2+y,z
1/2-x,1/2+y,1/2-z
1/2-x,1/2-y,-z
1/2+x,1/2-y,1/2+z
loop_
_atom_site_type_symbol
_atom_site_label
_atom_site_fract_x
_atom_site_fract_y
_atom_site_fract_z
Si Si1 0.692352 0.095987 0.172738
Si Si2 0.257418 0.742365 0.295617
Si Si3 0.000000 0.331823 0.250000
Si Si4 0.413179 0.425190 0.719300
Si Si5 0.099043 0.226312 0.209235
Si Si6 0.710763 0.530288 0.814354
O O1 0.750055 0.162305 0.227017
O O2 0.719997 0.030303 0.109919
O O3 0.732682 0.077333 0.443995
O O4 0.587481 0.120514 0.958914
O O5 0.250000 0.750000 0.500000
O O6 0.353644 0.759272 0.379285
O O7 0.172895 0.772880 0.017671
O O8 0.979374 0.279114 0.374746
O O9 0.500000 0.434869 0.750000
O O10 0.429860 0.353652 0.856406
O O11 0.379899 0.490242 0.776872
O O12 0.324536 0.424295 0.417727
#
# Coordination Sequence:
#
# PCOD9273024 Si02
#       6
#     8   8   4   8   8   8
#     4  10  21  40  61  90 123 161 213 249 312 371
#     4  10  20  37  63  88 119 163 209 258 309 376
#     4  10  22  40  64  90 126 166 210 266 302 364
#     4  11  20  37  61  92 125 159 205 263 321 377
#     4  10  20  37  62  88 121 164 204 256 321 362
#     4  10  22  37  62  90 121 169 204 252 317 382
#
# _framework density 21.158580000000001
#
# number of rings (size 3 to 8) (size 9 to 14) (size 15 to 20)
#    0.000    1.818    2.727    1.636    0.000    0.727 
#    0.000    3.636    0.000    0.000    0.000    0.000 
#    0.000    0.000    0.000    0.000    0.000    0.000 
#
# Total GULP energy -122556.102219 kJ/mol
# GULP energy per Si atom -5570.731919 kJ/mol
# Density = 2.111042 g / cm^3
# Si number density = 21.158580 Si / 1000 Ang^3
#
#
#
# Elastic Constant Matrix: (Units=GPa)
#
#
# Indices 1 2 3 4 5 6 
#
# 1 114.4104 4.1479 15.3159 0.0000 11.8034 0.0000
# 2 4.1479 84.7961 11.3908 0.0000 12.5588 0.0000
# 3 15.3159 11.3908 26.0838 0.0000 0.0654 0.0000
# 4 0.0000 0.0000 0.0000 -27.7388 0.0000 -14.4228
# 5 11.8034 12.5588 0.0654 0.0000 33.8335 0.0000
# 6 0.0000 0.0000 0.0000 -14.4228 0.0000 -27.8622
#
#
#
# Elastic Compliance Matrix: (Units=1/GPa)
#
#
# Indices 1 2 3 4 5 6 
#
# 1 0.009931 0.000911 -0.006220 0.000000 -0.003791 0.000000
# 2 0.000911 0.013385 -0.006367 0.000000 -0.005274 0.000000
# 3 -0.006220 -0.006367 0.044759 0.000000 0.004447 0.000000
# 4 0.000000 0.000000 0.000000 -0.049327 0.000000 0.025534
# 5 -0.003791 -0.005274 0.004447 0.000000 0.032828 0.000000
# 6 0.000000 0.000000 0.000000 0.025534 0.000000 -0.049109
#
#
# Mechanical properties :
#
#
# Convention : Reuss Voigt Hill
#
# Bulk Modulus (GPa) = 22.35923 31.88884 27.12403
# Shear Modulus (GPa) = 122.76835 8.60888 65.68862
#
# Velocity S-wave (km/s) = 7.62554 2.01930 5.57793
# Velocity P-wave (km/s) = 9.38735 4.53220 7.37099
#
# Compressibility (1/GPa) = 0.04472427
#
# Stress axis : x y z
#
# Youngs Moduli (GPa) = 100.69328 74.71161 22.34163
#
# Poissons Ratio (x) = -0.06807 0.13896
# Poissons Ratio (y) = -0.09175 0.14225
# Poissons Ratio (z) = 0.62629 0.47569
#
# Static dielectric constant tensor:
#      x y z
#    x 1.849370 0.000000 -0.003770 
#    y 0.000000 1.821280 0.000000 
#    z -0.003770 0.000000 1.757150 
# 
# From -- ./inp_files/62826.got.cif
#   From: 2010.05.17/outbox.cif.g08.bks.cpg/sg15_32_cif.got.tgz:62826.got - 2010.06.03 18:47:42.
