data_PCOD9273026
_publ_section_title
;
Structure prediction by ZEFSAII (Michael W. Deem and Ramdas Pophale) SiO2 
 PCOD9273026
Probable space group: C 2/C
;
_chemical_formula_sum "Si O2"
_cell_formula_units_Z 64
_cell_length_a 12.399058
_cell_length_b 27.158378
_cell_length_c 14.657127
_cell_angle_alpha 90.000000
_cell_angle_beta 138.632274
_cell_angle_gamma 90.000000
_cell_volume 3261.895527
_symmetry_space_group_name_H-M "C 2/C"
_symmetry_group_IT_number 15
_symmetry_cell_setting 'monoclinic'
loop_
_space_group_symop_operation_xyz
x,y,z
-x,y,1/2-z
-x,-y,-z
x,-y,1/2+z
1/2+x,1/2+y,z
1/2-x,1/2+y,1/2-z
1/2-x,1/2-y,-z
1/2+x,1/2-y,1/2+z
loop_
_atom_site_type_symbol
_atom_site_label
_atom_site_fract_x
_atom_site_fract_y
_atom_site_fract_z
Si Si1 0.807550 0.232121 0.633631
Si Si2 0.972112 0.666827 0.975918
Si Si3 0.200964 0.178702 0.200444
Si Si4 0.485636 0.515978 0.850746
Si Si5 0.988754 0.527789 0.351954
Si Si6 0.361027 0.569976 0.389930
Si Si7 0.864237 0.562280 0.878792
Si Si8 0.055753 0.251839 0.382271
O O1 0.750000 0.250000 0.500000
O O2 0.694096 0.185203 0.581758
O O3 0.765677 0.277179 0.676120
O O4 0.000000 0.221731 0.750000
O O5 0.924117 0.616614 0.896660
O O6 0.012678 0.710096 0.932716
O O7 0.135705 0.663006 0.140702
O O8 0.130007 0.129120 0.108530
O O9 0.053408 0.203102 0.165637
O O10 0.500000 0.511514 0.750000
O O11 0.474954 0.462305 0.893510
O O12 0.318005 0.546140 0.761154
O O13 0.613559 0.547208 0.992718
O O14 0.818464 0.555672 0.258392
O O15 0.976573 0.474739 0.392109
O O16 0.000000 0.524780 0.250000
O O17 0.115350 0.555458 0.498471
O O18 0.250000 0.250000 0.500000
O O19 0.000000 0.271337 0.250000
#
# Coordination Sequence:
#
# PCOD9273026 Si02
#       8
#     8   8   8   8   8   8   8   8
#     4  11  24  41  62  93 128 165 209 261 315 377
#     4  11  23  42  66  93 130 166 210 267 314 377
#     4  11  23  42  67  93 127 169 213 261 317 382
#     4  10  22  41  59  93 130 163 204 266 313 369
#     4  10  20  37  62  88 123 162 203 256 306 375
#     4  10  22  40  64  89 126 166 211 254 318 378
#     4  10  22  38  60  92 124 159 209 256 310 367
#     4  11  24  43  67  94 125 166 212 267 323 376
#
# _framework density 19.620493
#
# number of rings (size 3 to 8) (size 9 to 14) (size 15 to 20)
#    0.000    1.500    3.750    0.750    0.000    6.000 
#    0.000    1.250    0.000    0.000    0.000    0.000 
#    0.000    0.000    0.000    0.000    0.000    0.000 
#
# Total GULP energy -178270.774616 kJ/mol
# GULP energy per Si atom -5570.961707 kJ/mol
# Density = 1.957584 g / cm^3
# Si number density = 19.620493 Si / 1000 Ang^3
#
#
#
# Elastic Constant Matrix: (Units=GPa)
#
#
# Indices 1 2 3 4 5 6 
#
# 1 63.4775 6.3897 11.5898 0.0000 9.2839 0.0000
# 2 6.3897 89.2645 2.2562 0.0000 13.7318 0.0000
# 3 11.5898 2.2562 99.6927 0.0000 12.3840 0.0000
# 4 0.0000 0.0000 0.0000 20.4557 0.0000 -8.6473
# 5 9.2839 13.7318 12.3840 0.0000 39.9404 0.0000
# 6 0.0000 0.0000 0.0000 -8.6473 0.0000 -3.3596
#
#
#
# Elastic Compliance Matrix: (Units=1/GPa)
#
#
# Indices 1 2 3 4 5 6 
#
# 1 0.016558 -0.000662 -0.001519 0.000000 -0.003150 0.000000
# 2 -0.000662 0.011861 0.000308 0.000000 -0.004019 0.000000
# 3 -0.001519 0.000308 0.010577 0.000000 -0.003032 0.000000
# 4 0.000000 0.000000 0.000000 0.023412 0.000000 -0.060261
# 5 -0.003150 -0.004019 -0.003032 0.000000 0.028092 0.000000
# 6 0.000000 0.000000 0.000000 -0.060261 0.000000 -0.142550
#
#
# Mechanical properties :
#
#
# Convention : Reuss Voigt Hill
#
# Bulk Modulus (GPa) = 28.36890 32.54510 30.45700
# Shear Modulus (GPa) = -136.78324 26.88724 -54.94800
#
# Velocity S-wave (km/s) = -8.35858 3.70586 -5.29776
# Velocity P-wave (km/s) = 8.86929 5.91054 4.67599
#
# Compressibility (1/GPa) = 0.03524987
#
# Stress axis : x y z
#
# Youngs Moduli (GPa) = 60.39264 84.31285 94.54392
#
# Poissons Ratio (x) = 0.05584 0.14358
# Poissons Ratio (y) = 0.04000 -0.02911
# Poissons Ratio (z) = 0.09172 -0.02596
#
# Static dielectric constant tensor:
#      x y z
#    x 1.698510 0.000000 -0.010820 
#    y 0.000000 1.503750 0.000000 
#    z -0.010820 0.000000 1.646970 
# 
# From -- ./inp_files/148794.got.cif
#   From: 2010.05.17/outbox.cif.g08.bks.cpg/sg15_75_cif.got.tgz:148794.got - 2010.06.03 18:47:42.
