data_PCOD9273029
_publ_section_title
;
Structure prediction by ZEFSAII (Michael W. Deem and Ramdas Pophale) SiO2 
 PCOD9273029
Probable space group: C 2/C
;
_chemical_formula_sum "Si O2"
_cell_formula_units_Z 52
_cell_length_a 31.768333
_cell_length_b 14.760926
_cell_length_c 8.826369
_cell_angle_alpha 90.000000
_cell_angle_beta 145.650934
_cell_angle_gamma 90.000000
_cell_volume 2335.332964
_symmetry_space_group_name_H-M "C 2/C"
_symmetry_group_IT_number 15
_symmetry_cell_setting 'monoclinic'
loop_
_space_group_symop_operation_xyz
x,y,z
-x,y,1/2-z
-x,-y,-z
x,-y,1/2+z
1/2+x,1/2+y,z
1/2-x,1/2+y,1/2-z
1/2-x,1/2-y,-z
1/2+x,1/2-y,1/2+z
loop_
_atom_site_type_symbol
_atom_site_label
_atom_site_fract_x
_atom_site_fract_y
_atom_site_fract_z
Si Si1 0.965725 0.598155 0.430306
Si Si2 0.173503 0.007674 0.045154
Si Si3 0.848785 0.722193 0.653222
Si Si4 0.604583 0.819972 0.523594
Si Si5 0.000000 0.711146 0.250000
Si Si6 0.748390 0.391027 0.041010
Si Si7 0.087821 0.889108 0.026639
O O1 0.895358 0.610123 0.334872
O O2 0.959675 0.649679 0.255463
O O3 0.000000 0.500000 0.500000
O O4 0.031155 0.651895 0.711477
O O5 0.121038 0.059321 0.770180
O O6 0.242214 0.966829 0.152109
O O7 0.199970 0.073629 0.255828
O O8 0.129387 0.927681 0.001202
O O9 0.839908 0.687134 0.453877
O O10 0.824733 0.640493 0.692223
O O11 0.791380 0.803093 0.507995
O O12 0.931340 0.756644 0.952849
O O13 0.600280 0.718660 0.576346
O O14 0.000000 0.905741 0.750000
#
# Coordination Sequence:
#
# PCOD9273029 Si02
#       7
#     8   8   8   8   4   8   8
#     4  10  20  38  59  85 131 161 207 267 334 385
#     4  10  23  39  65  92 131 172 222 261 326 404
#     4  10  22  42  66  88 131 170 224 267 331 385
#     4  10  20  37  62  88 127 170 204 272 323 392
#     4  10  22  38  64 100 114 164 214 274 320 392
#     4  10  22  45  63  89 131 179 215 271 321 400
#     4  11  20  38  62  98 132 166 209 274 331 383
#
# _framework density 22.266631
#
# number of rings (size 3 to 8) (size 9 to 14) (size 15 to 20)
#    0.000    1.846    3.077    1.385    2.154    0.000 
#   16.615    2.308    0.000    0.000    0.000    0.000 
#    0.000    0.000    0.000    0.000    0.000    0.000 
#
# Total GULP energy -144923.342973 kJ/mol
# GULP energy per Si atom -5573.974730 kJ/mol
# Density = 2.221595 g / cm^3
# Si number density = 22.266631 Si / 1000 Ang^3
#
#
#
# Elastic Constant Matrix: (Units=GPa)
#
#
# Indices 1 2 3 4 5 6 
#
# 1 147.4438 41.5426 17.0962 0.0000 -34.1519 0.0000
# 2 41.5426 86.9341 8.1638 0.0000 -10.0554 0.0000
# 3 17.0962 8.1638 36.9135 0.0000 -9.2304 0.0000
# 4 0.0000 0.0000 0.0000 21.2375 0.0000 -16.8758
# 5 -34.1519 -10.0554 -9.2304 0.0000 27.6499 0.0000
# 6 0.0000 0.0000 0.0000 -16.8758 0.0000 99.2359
#
#
#
# Elastic Compliance Matrix: (Units=1/GPa)
#
#
# Indices 1 2 3 4 5 6 
#
# 1 0.010571 -0.003624 -0.001265 0.000000 0.011317 0.000000
# 2 -0.003624 0.013350 -0.001287 0.000000 -0.000051 0.000000
# 3 -0.001265 -0.001287 0.029953 0.000000 0.007969 0.000000
# 4 0.000000 0.000000 0.000000 0.054444 0.000000 0.009259
# 5 0.011317 -0.000051 0.007969 0.000000 0.052787 0.000000
# 6 0.000000 0.000000 0.000000 0.009259 0.000000 0.011651
#
#
# Mechanical properties :
#
#
# Convention : Reuss Voigt Hill
#
# Bulk Modulus (GPa) = 24.08256 44.98853 34.53554
# Shear Modulus (GPa) = 25.13219 43.25723 34.19471
#
# Velocity S-wave (km/s) = 3.36325 4.41238 3.92304
# Velocity P-wave (km/s) = 5.09126 6.79758 6.00533
#
# Compressibility (1/GPa) = 0.04152382
#
# Stress axis : x y z
#
# Youngs Moduli (GPa) = 94.59633 74.90843 33.38515
#
# Poissons Ratio (x) = 0.27146 0.04222
# Poissons Ratio (y) = 0.34280 0.04296
# Poissons Ratio (z) = 0.11963 0.09639
#
# Static dielectric constant tensor:
#      x y z
#    x 2.030280 0.000000 0.102010 
#    y 0.000000 1.816020 0.000000 
#    z 0.102010 0.000000 1.871190 
# 
# From -- ./inp_files/70201.got.cif
#   From: 2010.05.17/outbox.cif.g08.bks.cpg/sg15_36_cif.got.tgz:70201.got - 2010.06.03 18:47:42.
