data_PCOD9273813
_publ_section_title
;
Structure prediction by ZEFSAII (Michael W. Deem and Ramdas Pophale) SiO2 
 PCOD9273813
Probable space group: C 2/C
;
_chemical_formula_sum "Si O2"
_cell_formula_units_Z 48
_cell_length_a 14.985833
_cell_length_b 12.193877
_cell_length_c 14.402961
_cell_angle_alpha 90.000000
_cell_angle_beta 66.750784
_cell_angle_gamma 90.000000
_cell_volume 2418.209195
_symmetry_space_group_name_H-M "C 2/C"
_symmetry_group_IT_number 15
_symmetry_cell_setting 'monoclinic'
loop_
_space_group_symop_operation_xyz
x,y,z
-x,y,1/2-z
-x,-y,-z
x,-y,1/2+z
1/2+x,1/2+y,z
1/2-x,1/2+y,1/2-z
1/2-x,1/2-y,-z
1/2+x,1/2-y,1/2+z
loop_
_atom_site_type_symbol
_atom_site_label
_atom_site_fract_x
_atom_site_fract_y
_atom_site_fract_z
Si Si1 0.172541 0.797696 0.364469
Si Si2 0.535026 0.483939 0.342054
Si Si3 0.659317 0.411268 0.559209
Si Si4 0.125082 0.790305 0.761295
Si Si5 0.021644 0.569977 0.844512
Si Si6 0.858390 0.555292 0.062822
O O1 0.200730 0.854695 0.450436
O O2 0.268826 0.763350 0.268594
O O3 0.128853 0.681193 0.411563
O O4 0.096396 0.879341 0.348196
O O5 0.500000 0.469657 0.250000
O O6 0.431920 0.513537 0.432214
O O7 0.601075 0.594067 0.319919
O O8 0.623093 0.324150 0.652305
O O9 0.748938 0.467758 0.574987
O O10 0.049747 0.697599 0.822788
O O11 0.111066 0.515443 0.861645
O O12 0.000000 0.528894 0.750000
O O13 0.930315 0.542240 0.946735
#
# Coordination Sequence:
#
# PCOD9273813 Si02
#       6
#     8   8   8   8   8   8
#     4  11  21  36  63  83 119 156 198 256 304 351
#     4  10  22  37  59  88 119 155 200 249 298 361
#     4  10  20  38  59  88 114 150 212 250 295 352
#     4  10  21  35  61  88 115 151 208 243 293 354
#     4  11  21  38  63  85 126 161 199 248 308 356
#     4  10  23  38  59  94 120 158 206 250 295 371
#
# _framework density 19.849398999999998
#
# number of rings (size 3 to 8) (size 9 to 14) (size 15 to 20)
#    0.000    1.667    0.000    7.000    7.000    0.667 
#    0.000    0.000    0.000    3.000    0.000    0.000 
#    0.000    0.000    0.000    0.000    0.000    0.000 
#
# Total GULP energy -133872.701394 kJ/mol
# GULP energy per Si atom -5578.029225 kJ/mol
# Density = 1.980422 g / cm^3
# Si number density = 19.849399 Si / 1000 Ang^3
#
#
#
# Elastic Constant Matrix: (Units=GPa)
#
#
# Indices 1 2 3 4 5 6 
#
# 1 141.0897 71.4984 29.3918 0.0000 -3.4023 0.0000
# 2 71.4984 63.2117 12.0131 0.0000 7.0391 0.0000
# 3 29.3918 12.0131 51.2242 0.0000 7.1254 0.0000
# 4 0.0000 0.0000 0.0000 9.6131 0.0000 -1.6982
# 5 -3.4023 7.0391 7.1254 0.0000 20.2982 0.0000
# 6 0.0000 0.0000 0.0000 -1.6982 0.0000 47.3330
#
#
#
# Elastic Compliance Matrix: (Units=1/GPa)
#
#
# Indices 1 2 3 4 5 6 
#
# 1 0.021827 -0.024712 -0.008862 0.000000 0.015339 0.000000
# 2 -0.024712 0.044956 0.006709 0.000000 -0.022087 0.000000
# 3 -0.008862 0.006709 0.024774 0.000000 -0.012508 0.000000
# 4 0.000000 0.000000 0.000000 0.104688 0.000000 0.003756
# 5 0.015339 -0.022087 -0.012508 0.000000 0.063887 0.000000
# 6 0.000000 0.000000 0.000000 0.003756 0.000000 0.021262
#
#
# Mechanical properties :
#
#
# Convention : Reuss Voigt Hill
#
# Bulk Modulus (GPa) = 26.43715 53.48136 39.95926
# Shear Modulus (GPa) = 14.37884 24.95703 19.66793
#
# Velocity S-wave (km/s) = 2.69438 3.54972 3.15120
# Velocity P-wave (km/s) = 4.79868 6.61836 5.78057
#
# Compressibility (1/GPa) = 0.03782555
#
# Stress axis : x y z
#
# Youngs Moduli (GPa) = 45.81519 22.24387 40.36548
#
# Poissons Ratio (x) = 0.54969 0.35773
# Poissons Ratio (y) = 1.13219 -0.27080
# Poissons Ratio (z) = 0.40602 -0.14923
#
# Static dielectric constant tensor:
#      x y z
#    x 1.751020 0.000000 -0.029280 
#    y 0.000000 1.685390 0.000000 
#    z -0.029280 0.000000 1.741550 
# 
# From -- ./inp_files/151816.got.cif
#   From: 2010.05.17/outbox.cif.g08.bks.cpg/sg15_76_cif.got.tgz:151816.got - 2010.06.03 18:47:42.
