data_PCOD9273959
_publ_section_title
;
Structure prediction by ZEFSAII (Michael W. Deem and Ramdas Pophale) SiO2 
 PCOD9273959
Probable space group: C 2/C
;
_chemical_formula_sum "Si O2"
_cell_formula_units_Z 56
_cell_length_a 25.686253
_cell_length_b 7.459177
_cell_length_c 13.091834
_cell_angle_alpha 90.000000
_cell_angle_beta 123.075392
_cell_angle_gamma 90.000000
_cell_volume 2101.899344
_symmetry_space_group_name_H-M "C 2/C"
_symmetry_group_IT_number 15
_symmetry_cell_setting 'monoclinic'
loop_
_space_group_symop_operation_xyz
x,y,z
-x,y,1/2-z
-x,-y,-z
x,-y,1/2+z
1/2+x,1/2+y,z
1/2-x,1/2+y,1/2-z
1/2-x,1/2-y,-z
1/2+x,1/2-y,1/2+z
loop_
_atom_site_type_symbol
_atom_site_label
_atom_site_fract_x
_atom_site_fract_y
_atom_site_fract_z
Si Si1 0.585319 0.630283 0.518392
Si Si2 0.280517 0.493724 0.891954
Si Si3 0.937108 0.313221 0.800038
Si Si4 0.000000 0.500000 0.500000
Si Si5 0.698786 0.896686 0.121870
Si Si6 0.400190 0.716731 0.333522
Si Si7 0.663061 0.090366 0.892072
Si Si8 0.000000 0.005345 0.750000
O O1 0.652885 0.587908 0.543473
O O2 0.574541 0.799225 0.585371
O O3 0.581298 0.469779 0.597102
O O4 0.534752 0.604733 0.375859
O O5 0.281209 0.281853 0.917371
O O6 0.252697 0.516420 0.747570
O O7 0.231581 0.580697 0.916664
O O8 0.879952 0.426753 0.696935
O O9 0.949174 0.135746 0.748726
O O10 0.004559 0.402186 0.886318
O O11 0.956858 0.348090 0.402896
O O12 0.651029 0.809978 0.149646
O O13 0.669563 0.044029 0.017239
O O14 0.370689 0.733976 0.189461
#
# Coordination Sequence:
#
# PCOD9273959 Si02
#       8
#     8   8   8   4   8   8   8   4
#     4  11  23  42  63  91 130 173 209 274 325 385
#     4  10  21  38  64  91 128 161 213 265 326 377
#     4  11  23  41  68  93 135 169 220 271 328 385
#     4  10  20  38  64  84 122 170 206 262 318 368
#     4  10  20  38  60  90 123 166 205 263 321 388
#     4   9  20  38  59  89 123 160 210 262 317 371
#     4  10  21  39  65  94 122 168 216 262 323 397
#     4  12  24  40  66  92 130 178 220 264 328 394
#
# _framework density 26.642569000000002
#
# number of rings (size 3 to 8) (size 9 to 14) (size 15 to 20)
#    0.000    1.714    1.429    3.429    0.000    1.143 
#    0.000   14.286    0.000    0.000    0.000    0.000 
#    0.000    0.000    0.000    0.000    0.000    0.000 
#
# Total GULP energy -156304.836166 kJ/mol
# GULP energy per Si atom -5582.315577 kJ/mol
# Density = 2.658193 g / cm^3
# Si number density = 26.642569 Si / 1000 Ang^3
#
#
#
# Elastic Constant Matrix: (Units=GPa)
#
#
# Indices 1 2 3 4 5 6 
#
# 1 97.2730 18.5007 35.1655 0.0000 -1.9093 0.0000
# 2 18.5007 99.4409 46.6297 0.0000 -8.7028 0.0000
# 3 35.1655 46.6297 184.8499 0.0000 6.7609 0.0000
# 4 0.0000 0.0000 0.0000 46.2504 0.0000 -19.1950
# 5 -1.9093 -8.7028 6.7609 0.0000 33.7739 0.0000
# 6 0.0000 0.0000 0.0000 -19.1950 0.0000 11.7691
#
#
#
# Elastic Compliance Matrix: (Units=1/GPa)
#
#
# Indices 1 2 3 4 5 6 
#
# 1 0.011186 -0.001144 -0.001865 0.000000 0.000711 0.000000
# 2 -0.001144 0.011959 -0.002931 0.000000 0.003604 0.000000
# 3 -0.001865 -0.002931 0.006584 0.000000 -0.002179 0.000000
# 4 0.000000 0.000000 0.000000 0.066916 0.000000 0.109138
# 5 0.000711 0.003604 -0.002179 0.000000 0.031014 0.000000
# 6 0.000000 0.000000 0.000000 0.109138 0.000000 0.262968
#
#
# Mechanical properties :
#
#
# Convention : Reuss Voigt Hill
#
# Bulk Modulus (GPa) = 56.02921 64.68396 60.35658
# Shear Modulus (GPa) = 12.24121 37.10988 24.67555
#
# Velocity S-wave (km/s) = 2.14583 3.73618 3.04661
# Velocity P-wave (km/s) = 5.21680 6.55310 5.92276
#
# Compressibility (1/GPa) = 0.01784783
#
# Stress axis : x y z
#
# Youngs Moduli (GPa) = 89.39508 83.62051 151.89101
#
# Poissons Ratio (x) = 0.09568 0.28334
# Poissons Ratio (y) = 0.10229 0.44516
# Poissons Ratio (z) = 0.16676 0.24508
#
# Static dielectric constant tensor:
#      x y z
#    x 1.867820 0.000000 -0.255060 
#    y 0.000000 2.133130 0.000000 
#    z -0.255060 0.000000 1.960220 
# 
# From -- ./inp_files/125863.got.cif
#   From: 2010.05.17/outbox.cif.g08.bks.cpg/sg15_63_cif.got.tgz:125863.got - 2010.06.03 18:47:42.
