data_PCOD9273950
_publ_section_title
;
Structure prediction by ZEFSAII (Michael W. Deem and Ramdas Pophale) SiO2 
 PCOD9273950
Probable space group: C 2/C
;
_chemical_formula_sum "Si O2"
_cell_formula_units_Z 52
_cell_length_a 9.350053
_cell_length_b 23.810612
_cell_length_c 12.846467
_cell_angle_alpha 90.000000
_cell_angle_beta 61.461907
_cell_angle_gamma 90.000000
_cell_volume 2512.522411
_symmetry_space_group_name_H-M "C 2/C"
_symmetry_group_IT_number 15
_symmetry_cell_setting 'monoclinic'
loop_
_space_group_symop_operation_xyz
x,y,z
-x,y,1/2-z
-x,-y,-z
x,-y,1/2+z
1/2+x,1/2+y,z
1/2-x,1/2+y,1/2-z
1/2-x,1/2-y,-z
1/2+x,1/2-y,1/2+z
loop_
_atom_site_type_symbol
_atom_site_label
_atom_site_fract_x
_atom_site_fract_y
_atom_site_fract_z
Si Si1 0.475962 0.237872 0.020963
Si Si2 0.060413 0.156410 0.609956
Si Si3 0.115670 0.614788 0.933341
Si Si4 0.500000 0.494459 0.750000
Si Si5 0.292021 0.574131 0.671235
Si Si6 0.782173 0.428121 0.531304
Si Si7 0.151297 0.192355 0.128248
O O1 0.564079 0.179693 0.964934
O O2 0.423051 0.266368 0.931500
O O3 0.576799 0.283005 0.051720
O O4 0.301093 0.223168 0.135006
O O5 0.217211 0.115635 0.559223
O O6 0.000000 0.163167 0.750000
O O7 0.915845 0.124588 0.601947
O O8 0.162713 0.598655 0.798756
O O9 0.965512 0.574165 0.014091
O O10 0.404304 0.530961 0.696856
O O11 0.644237 0.460097 0.643765
O O12 0.219822 0.552368 0.588194
O O13 0.732039 0.362593 0.551238
O O14 0.000000 0.174469 0.250000
#
# Coordination Sequence:
#
# PCOD9273950 Si02
#       7
#     8   8   8   4   8   8   8
#     4  10  21  35  62  91 127 172 200 247 319 373
#     4  10  20  38  60  89 133 168 204 252 313 381
#     4  10  22  39  63  95 126 161 210 257 305 388
#     4  12  24  44  68  90 124 166 214 276 332 368
#     4  11  22  43  64  91 123 166 210 265 323 377
#     4  11  23  41  68  90 121 164 215 263 317 375
#     4  10  21  35  57  94 125 159 209 259 302 378
#
# _framework density 20.696334
#
# number of rings (size 3 to 8) (size 9 to 14) (size 15 to 20)
#    0.000    1.538    4.615    1.385    4.308    0.615 
#    0.000    0.000    0.000    0.000    0.000    0.000 
#    0.000    0.000    0.000    0.000    0.000    0.000 
#
# Total GULP energy -144963.651366 kJ/mol
# GULP energy per Si atom -5575.525053 kJ/mol
# Density = 2.064923 g / cm^3
# Si number density = 20.696334 Si / 1000 Ang^3
#
#
#
# Elastic Constant Matrix: (Units=GPa)
#
#
# Indices 1 2 3 4 5 6 
#
# 1 87.9756 19.2539 43.2683 0.0000 -12.5756 0.0000
# 2 19.2539 59.0671 12.0934 0.0000 -4.1226 0.0000
# 3 43.2683 12.0934 59.6358 0.0000 -21.3199 0.0000
# 4 0.0000 0.0000 0.0000 63.3611 0.0000 -33.8001
# 5 -12.5756 -4.1226 -21.3199 0.0000 28.7236 0.0000
# 6 0.0000 0.0000 0.0000 -33.8001 0.0000 46.5020
#
#
#
# Elastic Compliance Matrix: (Units=1/GPa)
#
#
# Indices 1 2 3 4 5 6 
#
# 1 0.018431 -0.003403 -0.013574 0.000000 -0.002494 0.000000
# 2 -0.003403 0.018292 -0.001136 0.000000 0.000292 0.000000
# 3 -0.013574 -0.001136 0.033573 0.000000 0.018814 0.000000
# 4 0.000000 0.000000 0.000000 0.025778 0.000000 0.018736
# 5 -0.002494 0.000292 0.018814 0.000000 0.047729 0.000000
# 6 0.000000 0.000000 0.000000 0.018736 0.000000 0.035123
#
#
# Mechanical properties :
#
#
# Convention : Reuss Voigt Hill
#
# Bulk Modulus (GPa) = 29.35092 39.54553 34.44823
# Shear Modulus (GPa) = 22.07419 36.52153 29.29786
#
# Velocity S-wave (km/s) = 3.26939 4.20532 3.76654
# Velocity P-wave (km/s) = 5.33520 6.53671 5.96628
#
# Compressibility (1/GPa) = 0.03407049
#
# Stress axis : x y z
#
# Youngs Moduli (GPa) = 54.25619 54.66839 29.78549
#
# Poissons Ratio (x) = 0.18603 0.40432
# Poissons Ratio (y) = 0.18462 0.03384
# Poissons Ratio (z) = 0.73649 0.06210
#
# Static dielectric constant tensor:
#      x y z
#    x 1.791130 0.000000 -0.049190 
#    y 0.000000 1.764110 0.000000 
#    z -0.049190 0.000000 1.742880 
# 
# From -- ./inp_files/137208.got.cif
#   From: 2010.05.17/outbox.cif.g08.bks.cpg/sg15_69_cif.got.tgz:137208.got - 2010.06.03 18:47:42.
