data_PCOD9273367
_publ_section_title
;
Structure prediction by ZEFSAII (Michael W. Deem and Ramdas Pophale) SiO2 
 PCOD9273367
Probable space group: C 2/C
;
_chemical_formula_sum "Si O2"
_cell_formula_units_Z 64
_cell_length_a 9.319238
_cell_length_b 22.854537
_cell_length_c 13.405645
_cell_angle_alpha 90.000000
_cell_angle_beta 83.864642
_cell_angle_gamma 90.000000
_cell_volume 2838.872136
_symmetry_space_group_name_H-M "C 2/C"
_symmetry_group_IT_number 15
_symmetry_cell_setting 'monoclinic'
loop_
_space_group_symop_operation_xyz
x,y,z
-x,y,1/2-z
-x,-y,-z
x,-y,1/2+z
1/2+x,1/2+y,z
1/2-x,1/2+y,1/2-z
1/2-x,1/2-y,-z
1/2+x,1/2-y,1/2+z
loop_
_atom_site_type_symbol
_atom_site_label
_atom_site_fract_x
_atom_site_fract_y
_atom_site_fract_z
Si Si1 0.331463 0.687702 0.735180
Si Si2 0.925598 0.670891 0.586111
Si Si3 0.242098 0.897418 0.955614
Si Si4 0.385639 0.269683 0.852221
Si Si5 0.794482 0.981463 0.944904
Si Si6 0.174677 0.587086 0.642136
Si Si7 0.159904 0.466398 0.743659
Si Si8 0.521147 0.387192 0.629499
O O1 0.500000 0.693604 0.750000
O O2 0.220543 0.681421 0.837923
O O3 0.260058 0.740113 0.676531
O O4 0.300068 0.630106 0.670779
O O5 0.869904 0.642542 0.487707
O O6 0.028307 0.727983 0.577106
O O7 0.030466 0.624437 0.633770
O O8 0.105366 0.860281 0.930135
O O9 0.264193 0.932612 0.851028
O O10 0.214063 0.949194 0.038091
O O11 0.500000 0.271928 0.750000
O O12 0.359842 0.336073 0.887689
O O13 0.722808 0.961253 0.847672
O O14 0.948638 0.950213 0.921818
O O15 0.714368 0.947895 0.039317
O O16 0.159095 0.535229 0.721700
O O17 0.000000 0.443066 0.750000
O O18 0.500000 0.395573 0.750000
#
# Coordination Sequence:
#
# PCOD9273367 Si02
#       8
#     8   8   8   8   8   8   8   8
#     4  10  20  37  64  97 123 158 212 261 306 361
#     4  10  20  40  65  93 123 163 210 261 307 370
#     4  11  23  37  63  93 124 165 210 254 312 379
#     4   8  19  40  68  86 121 169 208 255 317 364
#     4  11  23  38  58  92 126 166 205 256 314 376
#     4  10  21  38  62  91 127 167 205 254 312 368
#     4  11  21  38  60  91 124 165 208 254 308 374
#     4  11  22  43  62  84 129 168 203 257 323 375
#
# _framework density 22.544163999999999
#
# number of rings (size 3 to 8) (size 9 to 14) (size 15 to 20)
#    0.000    1.750    1.250    4.500    1.750    2.500 
#    4.500    3.125    5.500    0.000    0.000    0.000 
#    0.000    0.000    0.000    0.000    0.000    0.000 
#
# Total GULP energy -178548.995884 kJ/mol
# GULP energy per Si atom -5579.656121 kJ/mol
# Density = 2.249285 g / cm^3
# Si number density = 22.544164 Si / 1000 Ang^3
#
#
#
# Elastic Constant Matrix: (Units=GPa)
#
#
# Indices 1 2 3 4 5 6 
#
# 1 128.0753 16.0945 25.4372 0.0000 24.9236 0.0000
# 2 16.0945 83.0067 22.7691 0.0000 4.0087 0.0000
# 3 25.4372 22.7691 72.5633 0.0000 22.9659 0.0000
# 4 0.0000 0.0000 0.0000 5.0455 0.0000 2.1679
# 5 24.9236 4.0087 22.9659 0.0000 34.2391 0.0000
# 6 0.0000 0.0000 0.0000 2.1679 0.0000 19.9683
#
#
#
# Elastic Compliance Matrix: (Units=1/GPa)
#
#
# Indices 1 2 3 4 5 6 
#
# 1 0.009324 -0.001249 -0.000984 0.000000 -0.005981 0.000000
# 2 -0.001249 0.013415 -0.004522 0.000000 0.002372 0.000000
# 3 -0.000984 -0.004522 0.019234 0.000000 -0.011656 0.000000
# 4 0.000000 0.000000 0.000000 0.207893 0.000000 -0.022570
# 5 -0.005981 0.002372 -0.011656 0.000000 0.041101 0.000000
# 6 0.000000 0.000000 0.000000 -0.022570 0.000000 0.052530
#
#
# Mechanical properties :
#
#
# Convention : Reuss Voigt Hill
#
# Bulk Modulus (GPa) = 35.13311 45.80521 40.46916
# Shear Modulus (GPa) = 13.64273 26.47354 20.05813
#
# Velocity S-wave (km/s) = 2.46266 3.43052 2.98606
# Velocity P-wave (km/s) = 4.86870 6.00445 5.46615
#
# Compressibility (1/GPa) = 0.02846318
#
# Stress axis : x y z
#
# Youngs Moduli (GPa) = 107.24763 74.54125 51.99166
#
# Poissons Ratio (x) = 0.09312 0.05114
# Poissons Ratio (y) = 0.13398 0.23512
# Poissons Ratio (z) = 0.10548 0.33710
#
# Static dielectric constant tensor:
#      x y z
#    x 1.947940 0.000000 -0.034440 
#    y 0.000000 1.830370 0.000000 
#    z -0.034440 0.000000 1.819860 
# 
# From -- ./inp_files/137855.got.cif
#   From: 2010.05.17/outbox.cif.g08.bks.cpg/sg15_69_cif.got.tgz:137855.got - 2010.06.03 18:47:42.
