data_PCOD9273689
_publ_section_title
;
Structure prediction by ZEFSAII (Michael W. Deem and Ramdas Pophale) SiO2 
 PCOD9273689
Probable space group: C 2/C
;
_chemical_formula_sum "Si O2"
_cell_formula_units_Z 56
_cell_length_a 27.536770
_cell_length_b 12.586462
_cell_length_c 15.154246
_cell_angle_alpha 90.000000
_cell_angle_beta 150.031676
_cell_angle_gamma 90.000000
_cell_volume 2623.643799
_symmetry_space_group_name_H-M "C 2/C"
_symmetry_group_IT_number 15
_symmetry_cell_setting 'monoclinic'
loop_
_space_group_symop_operation_xyz
x,y,z
-x,y,1/2-z
-x,-y,-z
x,-y,1/2+z
1/2+x,1/2+y,z
1/2-x,1/2+y,1/2-z
1/2-x,1/2-y,-z
1/2+x,1/2-y,1/2+z
loop_
_atom_site_type_symbol
_atom_site_label
_atom_site_fract_x
_atom_site_fract_y
_atom_site_fract_z
Si Si1 0.806546 0.847384 0.905610
Si Si2 0.600141 0.519635 0.545931
Si Si3 0.718744 0.979089 0.922032
Si Si4 0.425400 0.846754 0.273352
Si Si5 0.696190 0.891656 0.082766
Si Si6 0.124529 0.611768 0.009165
Si Si7 0.601735 0.388912 0.732141
O O1 0.840538 0.727539 0.968035
O O2 0.730252 0.851433 0.705071
O O3 0.887747 0.934144 0.012148
O O4 0.745728 0.892255 0.892247
O O5 0.697219 0.592001 0.704856
O O6 0.598950 0.449708 0.634128
O O7 0.501550 0.585190 0.385172
O O8 0.808454 0.061303 0.073489
O O9 0.708273 0.921248 0.999313
O O10 0.623734 0.051580 0.757944
O O11 0.541487 0.851044 0.445284
O O12 0.390913 0.737610 0.262644
O O13 0.392627 0.851770 0.118409
O O14 0.627474 0.983241 0.013519
#
# Coordination Sequence:
#
# PCOD9273689 Si02
#       7
#     8   8   8   8   8   8   8
#     4  11  21  36  58  81 109 147 183 225 271 325
#     4   9  21  37  57  85 111 140 185 227 274 331
#     4  10  22  35  54  83 112 146 188 218 267 338
#     4  10  20  38  59  81 110 145 180 227 276 320
#     4   9  19  39  55  77 116 146 174 228 279 317
#     4   9  21  36  56  84 109 138 185 227 270 326
#     4  10  20  38  58  81 114 144 176 231 281 320
#
# _framework density 21.344360000000002
#
# number of rings (size 3 to 8) (size 9 to 14) (size 15 to 20)
#    0.000    2.286    0.000    2.571    0.000    8.000 
#    0.000   10.000    0.000    0.000    0.000    0.000 
#    0.000    0.000    0.000    0.000    0.000    0.000 
#
# Total GULP energy -156418.275992 kJ/mol
# GULP energy per Si atom -5586.367000 kJ/mol
# Density = 2.129578 g / cm^3
# Si number density = 21.344360 Si / 1000 Ang^3
#
#
#
# Elastic Constant Matrix: (Units=GPa)
#
#
# Indices 1 2 3 4 5 6 
#
# 1 23.7600 7.9115 -2.0587 0.0000 4.3040 0.0000
# 2 7.9115 100.8790 -10.6833 0.0000 -9.2892 0.0000
# 3 -2.0587 -10.6833 24.2691 0.0000 9.3291 0.0000
# 4 0.0000 0.0000 0.0000 14.6844 0.0000 4.9894
# 5 4.3040 -9.2892 9.3291 0.0000 11.7943 0.0000
# 6 0.0000 0.0000 0.0000 4.9894 0.0000 23.1481
#
#
#
# Elastic Compliance Matrix: (Units=1/GPa)
#
#
# Indices 1 2 3 4 5 6 
#
# 1 0.051820 -0.005702 0.015635 0.000000 -0.035768 0.000000
# 2 -0.005702 0.011391 0.000405 0.000000 0.010732 0.000000
# 3 0.015635 0.000405 0.064345 0.000000 -0.056282 0.000000
# 4 0.000000 0.000000 0.000000 0.073481 0.000000 -0.015838
# 5 -0.035768 0.010732 -0.056282 0.000000 0.150810 0.000000
# 6 0.000000 0.000000 0.000000 -0.015838 0.000000 0.046614
#
#
# Mechanical properties :
#
#
# Convention : Reuss Voigt Hill
#
# Bulk Modulus (GPa) = 6.74611 15.47191 11.10901
# Shear Modulus (GPa) = 11.70428 20.17459 15.93943
#
# Velocity S-wave (km/s) = 2.34424 3.07774 2.73568
# Velocity P-wave (km/s) = 3.23956 4.46032 3.89802
#
# Compressibility (1/GPa) = 0.14823367
#
# Stress axis : x y z
#
# Youngs Moduli (GPa) = 19.29753 87.78718 15.54131
#
# Poissons Ratio (x) = 0.50055 -0.24299
# Poissons Ratio (y) = 0.11003 -0.00630
# Poissons Ratio (z) = -0.30172 -0.03559
#
# Static dielectric constant tensor:
#      x y z
#    x 1.789660 0.000000 -0.005990 
#    y 0.000000 1.743320 0.000000 
#    z -0.005990 0.000000 1.774090 
# 
# From -- ./inp_files/177595.got.cif
#   From: 2010.05.17/outbox.cif.g08.bks.cpg/sg15_89_cif.got.tgz:177595.got - 2010.06.03 18:47:42.
