data_PCOD9273356
_publ_section_title
;
Structure prediction by ZEFSAII (Michael W. Deem and Ramdas Pophale) SiO2 
 PCOD9273356
Probable space group: C 2/C
;
_chemical_formula_sum "Si O2"
_cell_formula_units_Z 56
_cell_length_a 15.144613
_cell_length_b 8.361368
_cell_length_c 18.850972
_cell_angle_alpha 90.000000
_cell_angle_beta 95.861580
_cell_angle_gamma 90.000000
_cell_volume 2374.611737
_symmetry_space_group_name_H-M "C 2/C"
_symmetry_group_IT_number 15
_symmetry_cell_setting 'monoclinic'
loop_
_space_group_symop_operation_xyz
x,y,z
-x,y,1/2-z
-x,-y,-z
x,-y,1/2+z
1/2+x,1/2+y,z
1/2-x,1/2+y,1/2-z
1/2-x,1/2-y,-z
1/2+x,1/2-y,1/2+z
loop_
_atom_site_type_symbol
_atom_site_label
_atom_site_fract_x
_atom_site_fract_y
_atom_site_fract_z
Si Si1 0.611908 0.324291 0.031631
Si Si2 0.346143 0.033380 0.966562
Si Si3 0.739172 0.046710 0.398734
Si Si4 0.039098 0.033562 0.897231
Si Si5 0.828055 0.356358 0.224320
Si Si6 0.702195 0.494567 0.327851
Si Si7 0.591793 0.749256 0.136485
O O1 0.624284 0.143610 0.009344
O O2 0.701438 0.392540 0.074145
O O3 0.530169 0.338093 0.079459
O O4 0.589608 0.450173 0.967617
O O5 0.194457 0.388501 0.966408
O O6 0.273164 0.009609 0.897956
O O7 0.419820 0.141625 0.934026
O O8 0.666654 0.984916 0.337416
O O9 0.812315 0.164033 0.370518
O O10 0.112657 0.086966 0.848175
O O11 0.979439 0.889188 0.862282
O O12 0.740937 0.409519 0.261714
O O13 0.818510 0.178532 0.192748
O O14 0.902032 0.349937 0.291354
#
# Coordination Sequence:
#
# PCOD9273356 Si02
#       7
#     8   8   8   8   8   8   8
#     4  10  20  37  64  96 120 160 211 264 303 386
#     4  11  21  38  68  93 118 159 219 263 306 363
#     4  11  19  38  64  94 118 165 214 263 305 371
#     4  10  22  41  62  89 130 165 203 253 334 374
#     4  11  22  39  61  94 122 164 215 257 304 378
#     4  11  22  41  65  90 122 168 210 258 309 380
#     4  10  24  39  59  95 133 160 202 268 321 381
#
# _framework density 23.582803999999999
#
# number of rings (size 3 to 8) (size 9 to 14) (size 15 to 20)
#    0.000    1.429    4.286    1.714    0.000    1.143 
#    0.000    1.429    0.000    1.714    0.000    0.000 
#    0.000    0.000    0.000    0.000    0.000    0.000 
#
# Total GULP energy -156677.926918 kJ/mol
# GULP energy per Si atom -5595.640247 kJ/mol
# Density = 2.352913 g / cm^3
# Si number density = 23.582804 Si / 1000 Ang^3
#
#
#
# Elastic Constant Matrix: (Units=GPa)
#
#
# Indices 1 2 3 4 5 6 
#
# 1 54.5001 1.2267 18.6805 0.0000 -12.3417 0.0000
# 2 1.2267 51.8564 1.6110 0.0000 -5.9792 0.0000
# 3 18.6805 1.6110 110.3623 0.0000 -9.7268 0.0000
# 4 0.0000 0.0000 0.0000 32.1508 0.0000 5.9426
# 5 -12.3417 -5.9792 -9.7268 0.0000 22.2194 0.0000
# 6 0.0000 0.0000 0.0000 5.9426 0.0000 7.1757
#
#
#
# Elastic Compliance Matrix: (Units=1/GPa)
#
#
# Indices 1 2 3 4 5 6 
#
# 1 0.021784 0.000854 -0.002718 0.000000 0.011139 0.000000
# 2 0.000854 0.019939 0.000082 0.000000 0.005876 0.000000
# 3 -0.002718 0.000082 0.009766 0.000000 0.002788 0.000000
# 4 0.000000 0.000000 0.000000 0.036725 0.000000 -0.030415
# 5 0.011139 0.005876 0.002788 0.000000 0.053994 0.000000
# 6 0.000000 0.000000 0.000000 -0.030415 0.000000 0.164548
#
#
# Mechanical properties :
#
#
# Convention : Reuss Voigt Hill
#
# Bulk Modulus (GPa) = 20.86646 28.86170 24.86408
# Shear Modulus (GPa) = 15.32359 25.32254 20.32306
#
# Velocity S-wave (km/s) = 2.55184 3.28040 2.93878
# Velocity P-wave (km/s) = 4.18926 5.15878 4.69909
#
# Compressibility (1/GPa) = 0.04792380
#
# Stress axis : x y z
#
# Youngs Moduli (GPa) = 45.90626 50.15363 102.40039
#
# Poissons Ratio (x) = -0.04281 0.27831
# Poissons Ratio (y) = -0.03918 -0.00843
# Poissons Ratio (z) = 0.12477 -0.00413
#
# Static dielectric constant tensor:
#      x y z
#    x 1.900670 0.000000 0.010910 
#    y 0.000000 1.880990 0.000000 
#    z 0.010910 0.000000 1.905850 
# 
# From -- ./inp_files/247008.got.cif
#   From: 2010.05.17/outbox.cif.g08.bks.cpg/sg15_124_cif.got.tgz:247008.got - 2010.06.03 18:47:42.
