data_PCOD9273003
_publ_section_title
;
Structure prediction by ZEFSAII (Michael W. Deem and Ramdas Pophale) SiO2 
 PCOD9273003
Probable space group: C 2/C
;
_chemical_formula_sum "Si O2"
_cell_formula_units_Z 40
_cell_length_a 22.810167
_cell_length_b 9.247258
_cell_length_c 16.053407
_cell_angle_alpha 90.000000
_cell_angle_beta 35.879856
_cell_angle_gamma 90.000000
_cell_volume 1984.591536
_symmetry_space_group_name_H-M "C 2/C"
_symmetry_group_IT_number 15
_symmetry_cell_setting 'monoclinic'
loop_
_space_group_symop_operation_xyz
x,y,z
-x,y,1/2-z
-x,-y,-z
x,-y,1/2+z
1/2+x,1/2+y,z
1/2-x,1/2+y,1/2-z
1/2-x,1/2-y,-z
1/2+x,1/2-y,1/2+z
loop_
_atom_site_type_symbol
_atom_site_label
_atom_site_fract_x
_atom_site_fract_y
_atom_site_fract_z
Si Si1 0.181228 0.372473 0.939761
Si Si2 0.000000 0.403770 0.250000
Si Si3 0.541730 0.872990 0.575599
Si Si4 0.568060 0.290509 0.439449
Si Si5 0.500000 0.624554 0.750000
Si Si6 0.102151 0.953574 0.769811
O O1 0.160099 0.276874 0.883245
O O2 0.292498 0.374745 0.844368
O O3 0.099263 0.326442 0.103998
O O4 0.143948 0.535325 0.957627
O O5 0.972114 0.512676 0.206204
O O6 0.492085 0.826344 0.546787
O O7 0.548960 0.729968 0.624375
O O8 0.489164 0.352307 0.597042
O O9 0.600938 0.417506 0.339725
O O10 0.578694 0.526439 0.708574
#
# Coordination Sequence:
#
# PCOD9273003 Si02
#       6
#     8   4   8   8   4   8
#     4  10  20  37  62  86 111 155 200 233 295 345
#     4   7  18  33  52  88 111 144 197 222 284 333
#     4   8  17  37  60  81 117 155 185 242 283 340
#     4  10  21  39  57  89 125 142 196 251 281 352
#     4   9  18  41  56  82 127 150 193 246 270 359
#     4  10  23  38  61  88 115 161 189 238 307 331
#
# _framework density 20.155280999999999
#
# number of rings (size 3 to 8) (size 9 to 14) (size 15 to 20)
#    1.200    1.600    0.000    0.600    2.800    1.600 
#    0.000    4.000    0.000    0.000    0.000    0.000 
#    0.000    0.000    0.000    0.000    0.000    0.000 
#
# Total GULP energy -111406.436278 kJ/mol
# GULP energy per Si atom -5570.321814 kJ/mol
# Density = 2.010941 g / cm^3
# Si number density = 20.155281 Si / 1000 Ang^3
#
#
#
# Elastic Constant Matrix: (Units=GPa)
#
#
# Indices 1 2 3 4 5 6 
#
# 1 117.9753 43.0862 30.7233 0.0001 -11.1499 0.0000
# 2 43.0862 54.1118 12.3392 -0.0001 -1.0750 0.0000
# 3 30.7233 12.3392 49.8041 0.0000 -8.6971 0.0000
# 4 0.0001 -0.0001 0.0000 3.2968 0.0000 3.7995
# 5 -11.1499 -1.0750 -8.6971 0.0000 23.2805 0.0000
# 6 0.0000 0.0000 0.0000 3.7995 0.0000 31.3559
#
#
#
# Elastic Compliance Matrix: (Units=1/GPa)
#
#
# Indices 1 2 3 4 5 6 
#
# 1 0.013810 -0.009684 -0.005395 -0.000001 0.004152 0.000000
# 2 -0.009684 0.026397 -0.001245 0.000001 -0.003884 0.000000
# 3 -0.005395 -0.001245 0.024877 0.000000 0.006652 0.000000
# 4 -0.000001 0.000001 0.000000 0.352562 -0.000001 -0.042721
# 5 0.004152 -0.003884 0.006652 -0.000001 0.047248 0.000000
# 6 0.000000 0.000000 0.000000 -0.042721 0.000000 0.037068
#
#
# Mechanical properties :
#
#
# Convention : Reuss Voigt Hill
#
# Bulk Modulus (GPa) = 30.82836 43.79873 37.31355
# Shear Modulus (GPa) = 9.16719 20.63614 14.90167
#
# Velocity S-wave (km/s) = 2.13498 3.20325 2.72204
# Velocity P-wave (km/s) = 4.62668 5.95474 5.33222
#
# Compressibility (1/GPa) = 0.03243766
#
# Stress axis : x y z
#
# Youngs Moduli (GPa) = 72.40941 37.88241 40.19798
#
# Poissons Ratio (x) = 0.36684 0.21688
# Poissons Ratio (y) = 0.70119 0.05003
# Poissons Ratio (z) = 0.39067 0.04715
#
# Static dielectric constant tensor:
#      x y z
#    x 1.677530 0.000000 0.040500 
#    y 0.000000 1.751920 0.000000 
#    z 0.040500 0.000000 1.712130 
# 
# From -- ./inp_files/166863.got.cif
#   From: 2010.05.17/outbox.cif.g08.bks.cpg/sg15_84_cif.got.tgz:166863.got - 2010.06.03 18:47:42.
