data_PCOD9273188
_publ_section_title
;
Structure prediction by ZEFSAII (Michael W. Deem and Ramdas Pophale) SiO2 
 PCOD9273188
Probable space group: C 2/C
;
_chemical_formula_sum "Si O2"
_cell_formula_units_Z 56
_cell_length_a 18.550435
_cell_length_b 14.142463
_cell_length_c 19.425111
_cell_angle_alpha 90.000000
_cell_angle_beta 26.944726
_cell_angle_gamma 90.000000
_cell_volume 2309.224557
_symmetry_space_group_name_H-M "C 2/C"
_symmetry_group_IT_number 15
_symmetry_cell_setting 'monoclinic'
loop_
_space_group_symop_operation_xyz
x,y,z
-x,y,1/2-z
-x,-y,-z
x,-y,1/2+z
1/2+x,1/2+y,z
1/2-x,1/2+y,1/2-z
1/2-x,1/2-y,-z
1/2+x,1/2-y,1/2+z
loop_
_atom_site_type_symbol
_atom_site_label
_atom_site_fract_x
_atom_site_fract_y
_atom_site_fract_z
Si Si1 0.093016 0.862956 0.235474
Si Si2 0.705526 0.928052 0.796294
Si Si3 0.946513 0.692239 0.435548
Si Si4 0.004719 0.870644 0.033569
Si Si5 0.826299 0.331735 0.532489
Si Si6 0.323199 0.110329 0.746950
Si Si7 0.813708 0.632091 0.897678
O O1 0.023745 0.755976 0.309150
O O2 0.718903 0.859177 0.438858
O O3 0.046239 0.910260 0.348138
O O4 0.000000 0.903048 0.250000
O O5 0.581395 0.870884 0.854913
O O6 0.876076 0.930156 0.613294
O O7 0.728937 0.880876 0.850410
O O8 0.645119 0.035266 0.840189
O O9 0.904463 0.772759 0.527687
O O10 0.841245 0.843004 0.135086
O O11 0.767892 0.391794 0.514908
O O12 0.768310 0.227511 0.560694
O O13 0.017755 0.329428 0.379442
O O14 0.299994 0.064091 0.843152
O O15 0.000000 0.652641 0.750000
#
# Coordination Sequence:
#
# PCOD9273188 Si02
#       7
#     8   8   8   8   8   8   8
#     4  10  20  38  61  88 120 160 221 269 305 373
#     4  12  23  39  64  98 133 173 208 274 342 394
#     4  10  20  37  63  90 124 166 226 260 314 382
#     4  10  22  39  58  91 126 171 220 263 321 391
#     4  10  22  40  67  94 124 170 225 268 325 390
#     4  11  23  42  64  94 136 164 217 274 335 402
#     4   9  21  42  67  98 128 168 222 283 328 385
#
# _framework density 24.250565000000002
#
# number of rings (size 3 to 8) (size 9 to 14) (size 15 to 20)
#    0.857    0.857    1.429    3.000    0.000    6.857 
#    0.000    7.857    0.000    0.857    0.000    0.000 
#    0.000    0.000    0.000    0.000    0.000    0.000 
#
# Total GULP energy -156242.576621 kJ/mol
# GULP energy per Si atom -5580.092022 kJ/mol
# Density = 2.419537 g / cm^3
# Si number density = 24.250565 Si / 1000 Ang^3
#
#
#
# Elastic Constant Matrix: (Units=GPa)
#
#
# Indices 1 2 3 4 5 6 
#
# 1 202.9016 23.9329 66.0888 0.0003 5.7139 0.0000
# 2 23.9329 37.1326 10.4584 -0.0033 -4.9175 0.0002
# 3 66.0888 10.4584 111.6424 -0.0013 -5.5007 0.0000
# 4 0.0003 -0.0033 -0.0013 26.0664 -0.0002 4.0207
# 5 5.7139 -4.9175 -5.5007 -0.0002 33.6638 0.0003
# 6 0.0000 0.0002 0.0000 4.0207 0.0003 23.1606
#
#
#
# Elastic Compliance Matrix: (Units=1/GPa)
#
#
# Indices 1 2 3 4 5 6 
#
# 1 0.006609 -0.003516 -0.003693 -0.000001 -0.002239 0.000000
# 2 -0.003516 0.029982 -0.000486 0.000004 0.004897 -0.000001
# 3 -0.003693 -0.000486 0.011308 0.000001 0.002404 0.000000
# 4 -0.000001 0.000004 0.000001 0.039419 0.000001 -0.006843
# 5 -0.002239 0.004897 0.002404 0.000001 0.031194 -0.000001
# 6 0.000000 -0.000001 0.000000 -0.006843 -0.000001 0.044365
#
#
# Mechanical properties :
#
#
# Convention : Reuss Voigt Hill
#
# Bulk Modulus (GPa) = 30.76166 61.40408 46.08287
# Shear Modulus (GPa) = 26.44056 33.32460 29.88258
#
# Velocity S-wave (km/s) = 3.30556 3.71101 3.51414
# Velocity P-wave (km/s) = 5.22316 6.61346 5.95900
#
# Compressibility (1/GPa) = 0.03250800
#
# Stress axis : x y z
#
# Youngs Moduli (GPa) = 151.30174 33.35318 88.43670
#
# Poissons Ratio (x) = 0.11727 0.32664
# Poissons Ratio (y) = 0.53200 0.04297
# Poissons Ratio (z) = 0.55882 0.01621
#
# Static dielectric constant tensor:
#      x y z
#    x 1.956850 0.000000 0.089100 
#    y 0.000000 2.000040 0.000000 
#    z 0.089100 0.000000 1.950910 
# 
# From -- ./inp_files/249521.got.cif
#   From: 2010.05.17/outbox.cif.g08.bks.cpg/sg15_125_cif.got.tgz:249521.got - 2010.06.03 18:47:42.
