data_PCOD9273096
_publ_section_title
;
Structure prediction by ZEFSAII (Michael W. Deem and Ramdas Pophale) SiO2 
 PCOD9273096
Probable space group: C 2/C
;
_chemical_formula_sum "Si O2"
_cell_formula_units_Z 36
_cell_length_a 5.778968
_cell_length_b 19.759578
_cell_length_c 14.854571
_cell_angle_alpha 90.000000
_cell_angle_beta 106.472739
_cell_angle_gamma 90.000000
_cell_volume 1626.620299
_symmetry_space_group_name_H-M "C 2/C"
_symmetry_group_IT_number 15
_symmetry_cell_setting 'monoclinic'
loop_
_space_group_symop_operation_xyz
x,y,z
-x,y,1/2-z
-x,-y,-z
x,-y,1/2+z
1/2+x,1/2+y,z
1/2-x,1/2+y,1/2-z
1/2-x,1/2-y,-z
1/2+x,1/2-y,1/2+z
loop_
_atom_site_type_symbol
_atom_site_label
_atom_site_fract_x
_atom_site_fract_y
_atom_site_fract_z
Si Si1 0.754873 0.103698 0.617130
Si Si2 0.496315 0.271396 0.077493
Si Si3 0.285342 0.145863 0.459405
Si Si4 0.500000 0.031717 0.750000
Si Si5 0.042823 0.972629 0.647343
O O1 0.903527 0.173537 0.638401
O O2 0.529036 0.113153 0.525497
O O3 0.655420 0.079245 0.702233
O O4 0.919802 0.042113 0.600969
O O5 0.637778 0.200921 0.108551
O O6 0.250000 0.250000 0.000000
O O7 0.665801 0.313051 0.028277
O O8 0.090668 0.091030 0.408530
O O9 0.328328 0.984354 0.670392
O O10 0.000000 0.967493 0.750000
#
# Coordination Sequence:
#
# PCOD9273096 Si02
#       5
#     8   8   8   4   8
#     4  10  20  37  62  92 117 158 205 259 306 358
#     4   9  20  36  61  87 120 157 199 254 302 374
#     4  10  20  38  64  88 122 158 208 253 309 363
#     4  10  22  36  56  92 130 158 200 264 306 370
#     4  10  22  38  61  88 124 158 203 257 307 362
#
# _framework density 22.131777
#
# number of rings (size 3 to 8) (size 9 to 14) (size 15 to 20)
#    0.000    2.222    0.000    2.000    0.000   10.667 
#    0.000    0.000   73.333    0.000    0.000    0.000 
#    0.000    0.000    0.000    0.000    0.000    0.000 
#
# Total GULP energy -100498.014922 kJ/mol
# GULP energy per Si atom -5583.223051 kJ/mol
# Density = 2.208140 g / cm^3
# Si number density = 22.131777 Si / 1000 Ang^3
#
#
#
# Elastic Constant Matrix: (Units=GPa)
#
#
# Indices 1 2 3 4 5 6 
#
# 1 95.1683 55.2971 27.3754 0.0000 29.2427 0.0000
# 2 55.2971 155.2864 57.6906 0.0000 28.6816 0.0000
# 3 27.3754 57.6906 56.9096 0.0000 19.0574 0.0000
# 4 0.0000 0.0000 0.0000 2.8249 0.0000 -14.0318
# 5 29.2427 28.6816 19.0574 0.0000 31.4336 0.0000
# 6 0.0000 0.0000 0.0000 -14.0318 0.0000 16.1764
#
#
#
# Elastic Compliance Matrix: (Units=1/GPa)
#
#
# Indices 1 2 3 4 5 6 
#
# 1 0.016232 -0.003487 -0.000354 0.000000 -0.011704 0.000000
# 2 -0.003487 0.011467 -0.009447 0.000000 -0.001491 0.000000
# 3 -0.000354 -0.009447 0.030518 0.000000 -0.009553 0.000000
# 4 0.000000 0.000000 0.000000 -0.106989 0.000000 -0.092805
# 5 -0.011704 -0.001491 -0.009553 0.000000 0.049854 0.000000
# 6 0.000000 0.000000 0.000000 -0.092805 0.000000 -0.018683
#
#
# Mechanical properties :
#
#
# Convention : Reuss Voigt Hill
#
# Bulk Modulus (GPa) = 31.60534 65.34341 48.47437
# Shear Modulus (GPa) = 256.13344 21.22038 138.67691
#
# Velocity S-wave (km/s) = 10.76951 3.09984 7.92437
# Velocity P-wave (km/s) = 12.99825 6.51159 10.27997
#
# Compressibility (1/GPa) = 0.03164023
#
# Stress axis : x y z
#
# Youngs Moduli (GPa) = 61.60673 87.21007 32.76770
#
# Poissons Ratio (x) = 0.30409 0.01160
# Poissons Ratio (y) = 0.21481 0.30957
# Poissons Ratio (z) = 0.02181 0.82390
#
# Static dielectric constant tensor:
#      x y z
#    x 1.889380 0.000000 0.001570 
#    y 0.000000 1.834370 0.000000 
#    z 0.001570 0.000000 1.825440 
# 
# From -- ./inp_files/128723.got.cif
#   From: 2010.05.17/outbox.cif.g08.bks.cpg/sg15_65_cif.got.tgz:128723.got - 2010.06.03 18:47:42.
