data_PCOD9273746
_publ_section_title
;
Structure prediction by ZEFSAII (Michael W. Deem and Ramdas Pophale) SiO2 
 PCOD9273746
Probable space group: C 2/C
;
_chemical_formula_sum "Si O2"
_cell_formula_units_Z 60
_cell_length_a 29.526757
_cell_length_b 7.610509
_cell_length_c 25.558572
_cell_angle_alpha 90.000000
_cell_angle_beta 151.129780
_cell_angle_gamma 90.000000
_cell_volume 2773.050929
_symmetry_space_group_name_H-M "C 2/C"
_symmetry_group_IT_number 15
_symmetry_cell_setting 'monoclinic'
loop_
_space_group_symop_operation_xyz
x,y,z
-x,y,1/2-z
-x,-y,-z
x,-y,1/2+z
1/2+x,1/2+y,z
1/2-x,1/2+y,1/2-z
1/2-x,1/2-y,-z
1/2+x,1/2-y,1/2+z
loop_
_atom_site_type_symbol
_atom_site_label
_atom_site_fract_x
_atom_site_fract_y
_atom_site_fract_z
Si Si1 0.824254 0.817700 0.533715
Si Si2 0.500000 0.547211 0.750000
Si Si3 0.201707 0.955961 0.581888
Si Si4 0.891810 0.422442 0.006838
Si Si5 0.010097 0.199405 0.871377
Si Si6 0.443955 0.892236 0.397606
Si Si7 0.156424 0.256766 0.731284
Si Si8 0.745274 0.750297 0.707617
O O1 0.750000 0.750000 0.500000
O O2 0.863469 0.672090 0.532258
O O3 0.765546 0.948474 0.436908
O O4 0.910250 0.922853 0.647340
O O5 0.481855 0.668749 0.782587
O O6 0.092507 0.935262 0.465242
O O7 0.253380 0.772268 0.641006
O O8 0.217653 0.076563 0.647985
O O9 0.939353 0.611958 0.066394
O O10 0.975308 0.322696 0.059054
O O11 0.802223 0.404461 0.875856
O O12 0.926000 0.150331 0.825643
O O13 0.359435 0.759875 0.329004
O O14 0.500000 0.000000 0.500000
O O15 0.389151 0.047896 0.312742
O O16 0.192841 0.234761 0.709711
#
# Coordination Sequence:
#
# PCOD9273746 Si02
#       8
#     8   4   8   8   8   8   8   8
#     4  10  23  44  67  90 122 165 217 277 315 389
#     4  10  24  46  62  94 128 160 210 278 338 370
#     4   9  22  40  57  89 129 163 211 266 321 378
#     4  10  22  40  66  95 123 175 220 256 333 386
#     4  10  23  41  65  90 131 163 214 275 328 392
#     4  10  20  38  58  90 133 168 208 264 312 379
#     4  10  21  34  60  91 125 171 210 255 320 386
#     4  10  21  37  61  92 128 171 217 255 315 392
#
# _framework density 21.636818000000002
#
# number of rings (size 3 to 8) (size 9 to 14) (size 15 to 20)
#    0.000    2.133    1.333    0.000    3.733    7.467 
#    0.000   12.000    0.000    0.000    0.000    0.000 
#    0.000    0.000    0.000    0.000    0.000    0.000 
#
# Total GULP energy -167082.391770 kJ/mol
# GULP energy per Si atom -5569.413059 kJ/mol
# Density = 2.158757 g / cm^3
# Si number density = 21.636818 Si / 1000 Ang^3
#
#
#
# Elastic Constant Matrix: (Units=GPa)
#
#
# Indices 1 2 3 4 5 6 
#
# 1 198.3991 49.6144 80.4539 0.0000 15.1937 0.0000
# 2 49.6144 51.9974 29.7071 0.0000 2.0462 0.0000
# 3 80.4539 29.7071 105.4092 0.0000 3.0181 0.0000
# 4 0.0000 0.0000 0.0000 33.8723 0.0000 0.1419
# 5 15.1937 2.0462 3.0181 0.0000 27.9009 0.0000
# 6 0.0000 0.0000 0.0000 0.1419 0.0000 14.9207
#
#
#
# Elastic Compliance Matrix: (Units=1/GPa)
#
#
# Indices 1 2 3 4 5 6 
#
# 1 0.008693 -0.005264 -0.005042 0.000000 -0.003802 0.000000
# 2 -0.005264 0.026137 -0.003386 0.000000 0.001316 0.000000
# 3 -0.005042 -0.003386 0.014248 0.000000 0.001453 0.000000
# 4 0.000000 0.000000 0.000000 0.029524 0.000000 -0.000281
# 5 -0.003802 0.001316 0.001453 0.000000 0.037658 0.000000
# 6 0.000000 0.000000 0.000000 -0.000281 0.000000 0.067024
#
#
# Mechanical properties :
#
#
# Convention : Reuss Voigt Hill
#
# Bulk Modulus (GPa) = 46.09738 75.03961 60.56850
# Shear Modulus (GPa) = 22.94640 28.40746 25.67693
#
# Velocity S-wave (km/s) = 3.26010 3.62736 3.44862
# Velocity P-wave (km/s) = 5.96006 7.23190 6.62656
#
# Compressibility (1/GPa) = 0.02169321
#
# Stress axis : x y z
#
# Youngs Moduli (GPa) = 115.04039 38.25976 70.18479
#
# Poissons Ratio (x) = 0.20139 0.35389
# Poissons Ratio (y) = 0.60555 0.23766
# Poissons Ratio (z) = 0.58007 0.12955
#
# Static dielectric constant tensor:
#      x y z
#    x -0.954160 0.000000 0.390240 
#    y 0.000000 1.880040 0.000000 
#    z 0.390240 0.000000 1.858420 
# 
# From -- ./inp_files/283405.got.cif
#   From: 2010.05.17/outbox.cif.g08.bks.cpg/sg15_142_cif.got.tgz:283405.got - 2010.06.03 18:47:42.
