data_PCOD9273750
_publ_section_title
;
Structure prediction by ZEFSAII (Michael W. Deem and Ramdas Pophale) SiO2 
 PCOD9273750
Probable space group: C 2/C
;
_chemical_formula_sum "Si O2"
_cell_formula_units_Z 52
_cell_length_a 22.876629
_cell_length_b 9.153938
_cell_length_c 15.527267
_cell_angle_alpha 90.000000
_cell_angle_beta 130.365795
_cell_angle_gamma 90.000000
_cell_volume 2477.463663
_symmetry_space_group_name_H-M "C 2/C"
_symmetry_group_IT_number 15
_symmetry_cell_setting 'monoclinic'
loop_
_space_group_symop_operation_xyz
x,y,z
-x,y,1/2-z
-x,-y,-z
x,-y,1/2+z
1/2+x,1/2+y,z
1/2-x,1/2+y,1/2-z
1/2-x,1/2-y,-z
1/2+x,1/2-y,1/2+z
loop_
_atom_site_type_symbol
_atom_site_label
_atom_site_fract_x
_atom_site_fract_y
_atom_site_fract_z
Si Si1 0.500000 0.316082 0.750000
Si Si2 0.250000 0.250000 0.000000
Si Si3 0.029779 0.284343 0.466965
Si Si4 0.120568 0.054441 0.819953
Si Si5 0.845321 0.073620 0.845207
Si Si6 0.083173 0.599712 0.497519
Si Si7 0.768089 0.215292 0.339994
Si Si8 0.000000 0.700625 0.250000
O O1 0.497814 0.230417 0.657713
O O2 0.575086 0.419263 0.817847
O O3 0.196802 0.101039 0.942444
O O4 0.215688 0.303394 0.873574
O O5 0.079523 0.143167 0.540059
O O6 0.081760 0.430866 0.523356
O O7 0.961050 0.310772 0.469625
O O8 0.136024 0.026510 0.734604
O O9 0.063189 0.191025 0.772062
O O10 0.780981 0.201225 0.778161
O O11 0.809478 0.931714 0.853972
O O12 0.166671 0.670903 0.562942
O O13 0.037549 0.613947 0.364501
#
# Coordination Sequence:
#
# PCOD9273750 Si02
#       8
#     4   4   8   8   8   8   8   4
#     4  11  23  40  62  96 130 162 206 268 312 372
#     4  10  20  38  58  92 118 168 202 258 292 382
#     4  11  24  40  63  93 129 161 210 257 319 368
#     4  10  21  36  63  93 124 158 216 249 314 368
#     4  11  23  41  63  92 124 168 206 262 306 379
#     4  11  23  40  64  94 125 167 206 261 310 376
#     4  11  23  40  63  89 126 162 213 252 316 367
#     4  11  19  38  62  96 118 166 202 264 302 384
#
# _framework density 20.989207
#
# number of rings (size 3 to 8) (size 9 to 14) (size 15 to 20)
#    0.000    1.231    3.077    3.231    2.154    1.231 
#    0.000    1.538    0.000    6.462    0.000    0.000 
#    0.000    0.000    0.000    0.000    0.000    0.000 
#
# Total GULP energy -144744.062050 kJ/mol
# GULP energy per Si atom -5567.079310 kJ/mol
# Density = 2.094143 g / cm^3
# Si number density = 20.989207 Si / 1000 Ang^3
#
#
#
# Elastic Constant Matrix: (Units=GPa)
#
#
# Indices 1 2 3 4 5 6 
#
# 1 57.0160 22.2317 22.2995 0.0000 -6.7384 0.0000
# 2 22.2317 61.9059 0.2372 0.0000 6.7667 0.0000
# 3 22.2995 0.2372 80.4301 0.0000 -1.2082 0.0000
# 4 0.0000 0.0000 0.0000 20.9405 0.0000 3.5893
# 5 -6.7384 6.7667 -1.2082 0.0000 27.9819 0.0000
# 6 0.0000 0.0000 0.0000 3.5893 0.0000 20.8194
#
#
#
# Elastic Compliance Matrix: (Units=1/GPa)
#
#
# Indices 1 2 3 4 5 6 
#
# 1 0.024979 -0.009830 -0.006775 0.000000 0.008100 0.000000
# 2 -0.009830 0.020461 0.002557 0.000000 -0.007205 0.000000
# 3 -0.006775 0.002557 0.014279 0.000000 -0.001633 0.000000
# 4 0.000000 0.000000 0.000000 0.049209 0.000000 -0.008484
# 5 0.008100 -0.007205 -0.001633 0.000000 0.039360 0.000000
# 6 0.000000 0.000000 0.000000 -0.008484 0.000000 0.049495
#
#
# Mechanical properties :
#
#
# Convention : Reuss Voigt Hill
#
# Bulk Modulus (GPa) = 31.62163 32.09877 31.86020
# Shear Modulus (GPa) = 21.14887 24.25392 22.70139
#
# Velocity S-wave (km/s) = 3.17773 3.40301 3.29230
# Velocity P-wave (km/s) = 5.34437 5.54679 5.44652
#
# Compressibility (1/GPa) = 0.03162392
#
# Stress axis : x y z
#
# Youngs Moduli (GPa) = 40.03416 48.87261 70.03091
#
# Poissons Ratio (x) = 0.48041 0.47444
# Poissons Ratio (y) = 0.39353 -0.17905
# Poissons Ratio (z) = 0.27122 -0.12495
#
# Static dielectric constant tensor:
#      x y z
#    x 1.802350 0.000000 -0.011080 
#    y 0.000000 1.776050 0.000000 
#    z -0.011080 0.000000 1.755390 
# 
# From -- ./inp_files/172078.got.cif
#   From: 2010.05.17/outbox.cif.g08.bks.cpg/sg15_87_cif.got.tgz:172078.got - 2010.06.03 18:47:42.
