data_PCOD9273949
_publ_section_title
;
Structure prediction by ZEFSAII (Michael W. Deem and Ramdas Pophale) SiO2 
 PCOD9273949
Probable space group: C 2/C
;
_chemical_formula_sum "Si O2"
_cell_formula_units_Z 48
_cell_length_a 29.946902
_cell_length_b 9.994413
_cell_length_c 14.349970
_cell_angle_alpha 90.000000
_cell_angle_beta 37.119929
_cell_angle_gamma 90.000000
_cell_volume 2591.951878
_symmetry_space_group_name_H-M "C 2/C"
_symmetry_group_IT_number 15
_symmetry_cell_setting 'monoclinic'
loop_
_space_group_symop_operation_xyz
x,y,z
-x,y,1/2-z
-x,-y,-z
x,-y,1/2+z
1/2+x,1/2+y,z
1/2-x,1/2+y,1/2-z
1/2-x,1/2-y,-z
1/2+x,1/2-y,1/2+z
loop_
_atom_site_type_symbol
_atom_site_label
_atom_site_fract_x
_atom_site_fract_y
_atom_site_fract_z
Si Si1 0.585124 0.023362 0.839421
Si Si2 0.171667 0.884874 0.414909
Si Si3 0.167843 0.167605 0.522391
Si Si4 0.651753 0.885851 0.406902
Si Si5 0.661567 0.736471 0.737888
Si Si6 0.412065 0.867739 0.373166
O O1 0.614315 0.125392 0.868828
O O2 0.597271 0.075211 0.715150
O O3 0.622940 0.880103 0.793666
O O4 0.500000 0.000000 0.000000
O O5 0.260693 0.873521 0.257791
O O6 0.142015 0.854398 0.359574
O O7 0.131494 0.771130 0.542410
O O8 0.160389 0.028584 0.480734
O O9 0.128724 0.277961 0.522757
O O10 0.252366 0.221780 0.391533
O O11 0.144736 0.162375 0.668695
O O12 0.627277 0.028044 0.490842
O O13 0.500000 0.856738 0.250000
#
# Coordination Sequence:
#
# PCOD9273949 Si02
#       6
#     8   8   8   8   8   8
#     4  12  22  39  66  92 126 170 225 266 316 388
#     4  11  22  39  63  96 132 164 213 277 328 380
#     4  10  21  37  62  90 128 164 208 268 325 384
#     4  11  21  39  63  95 123 174 222 264 315 394
#     4  10  20  38  60  89 129 166 206 266 330 370
#     4  12  24  42  67  95 132 176 219 271 329 390
#
# _framework density 18.518861999999999
#
# number of rings (size 3 to 8) (size 9 to 14) (size 15 to 20)
#    0.000    1.000    6.667    1.000    0.000    2.000 
#    0.000    2.500    0.000    4.000    0.000    0.000 
#    0.000    0.000    0.000    0.000    0.000    0.000 
#
# Total GULP energy -133840.473691 kJ/mol
# GULP energy per Si atom -5576.686404 kJ/mol
# Density = 1.847671 g / cm^3
# Si number density = 18.518862 Si / 1000 Ang^3
#
#
#
# Elastic Constant Matrix: (Units=GPa)
#
#
# Indices 1 2 3 4 5 6 
#
# 1 112.6257 53.2227 40.2100 0.0000 27.2050 0.0000
# 2 53.2227 99.7702 25.0334 0.0000 25.6152 0.0000
# 3 40.2100 25.0334 65.1238 0.0000 15.2830 0.0000
# 4 0.0000 0.0000 0.0000 28.7413 0.0000 10.5758
# 5 27.2050 25.6152 15.2830 0.0000 43.0762 0.0000
# 6 0.0000 0.0000 0.0000 10.5758 0.0000 30.6365
#
#
#
# Elastic Compliance Matrix: (Units=1/GPa)
#
#
# Indices 1 2 3 4 5 6 
#
# 1 0.014407 -0.005183 -0.005990 0.000000 -0.003891 0.000000
# 2 -0.005183 0.014321 -0.001172 0.000000 -0.004827 0.000000
# 3 -0.005990 -0.001172 0.020129 0.000000 -0.002662 0.000000
# 4 0.000000 0.000000 0.000000 0.039856 0.000000 -0.013758
# 5 -0.003891 -0.004827 -0.002662 0.000000 0.029487 0.000000
# 6 0.000000 0.000000 0.000000 -0.013758 0.000000 0.037390
#
#
# Mechanical properties :
#
#
# Convention : Reuss Voigt Hill
#
# Bulk Modulus (GPa) = 41.37871 57.16134 49.27002
# Shear Modulus (GPa) = 26.54832 31.09436 28.82134
#
# Velocity S-wave (km/s) = 3.79038 4.10208 3.94931
# Velocity P-wave (km/s) = 6.44581 7.30546 6.88906
#
# Compressibility (1/GPa) = 0.02416702
#
# Stress axis : x y z
#
# Youngs Moduli (GPa) = 69.41121 69.82533 49.68013
#
# Poissons Ratio (x) = 0.36194 0.29757
# Poissons Ratio (y) = 0.35979 0.05822
# Poissons Ratio (z) = 0.41575 0.08183
#
# Static dielectric constant tensor:
#      x y z
#    x 1.649470 0.000000 0.036650 
#    y 0.000000 1.625170 0.000000 
#    z 0.036650 0.000000 1.646170 
# 
# From -- ./inp_files/176857.got.cif
#   From: 2010.05.17/outbox.cif.g08.bks.cpg/sg15_89_cif.got.tgz:176857.got - 2010.06.03 18:47:42.
