data_PCOD9273842
_publ_section_title
;
Structure prediction by ZEFSAII (Michael W. Deem and Ramdas Pophale) SiO2 
 PCOD9273842
Probable space group: C 2/C
;
_chemical_formula_sum "Si O2"
_cell_formula_units_Z 48
_cell_length_a 16.135693
_cell_length_b 22.505815
_cell_length_c 10.475453
_cell_angle_alpha 90.000000
_cell_angle_beta 146.350793
_cell_angle_gamma 90.000000
_cell_volume 2107.893011
_symmetry_space_group_name_H-M "C 2/C"
_symmetry_group_IT_number 15
_symmetry_cell_setting 'monoclinic'
loop_
_space_group_symop_operation_xyz
x,y,z
-x,y,1/2-z
-x,-y,-z
x,-y,1/2+z
1/2+x,1/2+y,z
1/2-x,1/2+y,1/2-z
1/2-x,1/2-y,-z
1/2+x,1/2-y,1/2+z
loop_
_atom_site_type_symbol
_atom_site_label
_atom_site_fract_x
_atom_site_fract_y
_atom_site_fract_z
Si Si1 0.889797 0.425301 0.917328
Si Si2 0.208323 0.442080 0.236998
Si Si3 0.707135 0.591047 0.921229
Si Si4 0.000000 0.774547 0.750000
Si Si5 0.767217 0.182244 0.156922
Si Si6 0.500000 0.488707 0.750000
Si Si7 0.142750 0.213023 0.944629
O O1 0.846319 0.493492 0.884672
O O2 0.824500 0.414860 0.689418
O O3 0.807074 0.382159 0.910835
O O4 0.069684 0.418980 0.144522
O O5 0.225215 0.403873 0.131811
O O6 0.368519 0.451709 0.511470
O O7 0.593917 0.534727 0.780929
O O8 0.623668 0.651620 0.844353
O O9 0.906557 0.813151 0.735944
O O10 0.866354 0.729317 0.539477
O O11 0.824020 0.201010 0.368168
O O12 0.000000 0.253577 0.750000
O O13 0.250000 0.250000 0.000000
#
# Coordination Sequence:
#
# PCOD9273842 Si02
#       7
#     8   8   8   4   8   4   8
#     4   9  21  40  63  94 131 173 229 284 334 413
#     4  10  20  38  63  94 134 184 222 280 348 411
#     4  10  20  38  64  88 133 177 222 278 339 404
#     4  10  22  44  73  94 138 187 220 294 340 406
#     4  10  22  44  68  99 138 177 233 279 347 413
#     4  10  20  38  59  94 136 181 224 278 336 424
#     4  11  23  40  68  99 130 171 223 279 334 399
#
# _framework density 22.771554999999999
#
# number of rings (size 3 to 8) (size 9 to 14) (size 15 to 20)
#    0.000    2.000    0.833    2.000    0.000    4.000 
#    9.000    0.833    0.000    0.000    0.000    0.000 
#    0.000    0.000    0.000    0.000    0.000    0.000 
#
# Total GULP energy -133829.731513 kJ/mol
# GULP energy per Si atom -5576.238813 kJ/mol
# Density = 2.271973 g / cm^3
# Si number density = 22.771555 Si / 1000 Ang^3
#
#
#
# Elastic Constant Matrix: (Units=GPa)
#
#
# Indices 1 2 3 4 5 6 
#
# 1 208.7742 65.0199 74.3939 0.0000 20.4443 0.0000
# 2 65.0199 54.4019 20.8870 0.0000 0.9779 0.0000
# 3 74.3939 20.8870 104.6843 0.0000 24.7986 0.0000
# 4 0.0000 0.0000 0.0000 27.2243 0.0000 -7.0014
# 5 20.4443 0.9779 24.7986 0.0000 36.5862 0.0000
# 6 0.0000 0.0000 0.0000 -7.0014 0.0000 36.7108
#
#
#
# Elastic Compliance Matrix: (Units=1/GPa)
#
#
# Indices 1 2 3 4 5 6 
#
# 1 0.009590 -0.009748 -0.004363 0.000000 -0.002141 0.000000
# 2 -0.009748 0.030021 -0.000194 0.000000 0.004776 0.000000
# 3 -0.004363 -0.000194 0.014430 0.000000 -0.007338 0.000000
# 4 0.000000 0.000000 0.000000 0.038626 0.000000 0.007367
# 5 -0.002141 0.004776 -0.007338 0.000000 0.033375 0.000000
# 6 0.000000 0.000000 0.000000 0.007367 0.000000 0.028645
#
#
# Mechanical properties :
#
#
# Convention : Reuss Voigt Hill
#
# Bulk Modulus (GPa) = 39.32180 76.49578 57.90879
# Shear Modulus (GPa) = 26.07214 33.94155 30.00685
#
# Velocity S-wave (km/s) = 3.38737 3.86492 3.63400
# Velocity P-wave (km/s) = 5.71003 7.32000 6.56456
#
# Compressibility (1/GPa) = 0.02543119
#
# Stress axis : x y z
#
# Youngs Moduli (GPa) = 104.27214 33.30959 69.30009
#
# Poissons Ratio (x) = 0.32472 0.30236
# Poissons Ratio (y) = 1.01649 0.01342
# Poissons Ratio (z) = 0.45495 0.00645
#
# Static dielectric constant tensor:
#      x y z
#    x 2.016430 0.000000 0.215560 
#    y 0.000000 1.865040 0.000000 
#    z 0.215560 0.000000 2.040610 
# 
# From -- ./inp_files/43989.got.cif
#   From: 2010.05.17/outbox.cif.g08.bks.cpg/sg15_22_cif.got.tgz:43989.got - 2010.06.03 18:47:42.
