data_PCOD9273389
_publ_section_title
;
Structure prediction by ZEFSAII (Michael W. Deem and Ramdas Pophale) SiO2 
 PCOD9273389
Probable space group: C 2/C
;
_chemical_formula_sum "Si O2"
_cell_formula_units_Z 64
_cell_length_a 25.462037
_cell_length_b 11.371442
_cell_length_c 10.962186
_cell_angle_alpha 90.000000
_cell_angle_beta 70.153857
_cell_angle_gamma 90.000000
_cell_volume 2985.481362
_symmetry_space_group_name_H-M "C 2/C"
_symmetry_group_IT_number 15
_symmetry_cell_setting 'monoclinic'
loop_
_space_group_symop_operation_xyz
x,y,z
-x,y,1/2-z
-x,-y,-z
x,-y,1/2+z
1/2+x,1/2+y,z
1/2-x,1/2+y,1/2-z
1/2-x,1/2-y,-z
1/2+x,1/2-y,1/2+z
loop_
_atom_site_type_symbol
_atom_site_label
_atom_site_fract_x
_atom_site_fract_y
_atom_site_fract_z
Si Si1 0.886865 0.187884 0.636728
Si Si2 0.554780 0.704210 0.136687
Si Si3 0.852626 0.342251 0.309822
Si Si4 0.139490 0.610204 0.166343
Si Si5 0.743570 0.639494 0.354892
Si Si6 0.437760 0.567120 0.825521
Si Si7 0.733898 0.625284 0.819348
Si Si8 0.624207 0.277964 0.968014
O O1 0.942488 0.193376 0.511309
O O2 0.873168 0.315866 0.702208
O O3 0.897622 0.112124 0.749726
O O4 0.832659 0.136717 0.608064
O O5 0.500000 0.751494 0.250000
O O6 0.610369 0.777492 0.120415
O O7 0.562781 0.572348 0.176993
O O8 0.872978 0.476064 0.297867
O O9 0.784894 0.347800 0.374084
O O10 0.868115 0.275902 0.171482
O O11 0.206185 0.620609 0.091040
O O12 0.111878 0.672583 0.072416
O O13 0.743472 0.514300 0.279815
O O14 0.756006 0.764581 0.280031
O O15 0.682435 0.657894 0.455979
O O16 0.500000 0.609191 0.750000
O O17 0.420175 0.620875 0.969584
#
# Coordination Sequence:
#
# PCOD9273389 Si02
#       8
#     8   8   8   8   8   8   8   8
#     4  10  22  41  63  90 128 157 211 257 314 379
#     4  11  26  41  63  91 124 167 207 264 314 365
#     4  10  23  39  62  91 128 159 211 252 316 373
#     4   9  20  39  60  91 121 163 200 257 310 371
#     4   9  17  33  58  92 124 165 204 252 313 381
#     4  10  24  40  65  92 120 163 209 262 313 366
#     4   9  19  35  61  92 127 166 204 260 318 372
#     4  10  20  37  65  87 121 164 208 252 310 374
#
# _framework density 21.437078
#
# number of rings (size 3 to 8) (size 9 to 14) (size 15 to 20)
#    0.000    2.250    0.000    1.125    8.750    2.500 
#    0.000    3.125    0.000    0.000    0.000    0.000 
#    0.000    0.000    0.000    0.000    0.000    0.000 
#
# Total GULP energy -178150.908787 kJ/mol
# GULP energy per Si atom -5567.215900 kJ/mol
# Density = 2.138829 g / cm^3
# Si number density = 21.437078 Si / 1000 Ang^3
#
#
#
# Elastic Constant Matrix: (Units=GPa)
#
#
# Indices 1 2 3 4 5 6 
#
# 1 51.7042 22.4662 2.5303 0.0000 -10.6690 0.0000
# 2 22.4662 111.4931 9.7217 0.0000 -0.0846 0.0000
# 3 2.5303 9.7217 44.7109 0.0000 -12.8338 0.0000
# 4 0.0000 0.0000 0.0000 5.5985 0.0000 3.6671
# 5 -10.6690 -0.0846 -12.8338 0.0000 27.0780 0.0000
# 6 0.0000 0.0000 0.0000 3.6671 0.0000 16.1411
#
#
#
# Elastic Compliance Matrix: (Units=1/GPa)
#
#
# Indices 1 2 3 4 5 6 
#
# 1 0.023553 -0.004981 0.002789 0.000000 0.010586 0.000000
# 2 -0.004981 0.010222 -0.002888 0.000000 -0.003299 0.000000
# 3 0.002789 -0.002888 0.026794 0.000000 0.013789 0.000000
# 4 0.000000 0.000000 0.000000 0.209847 0.000000 -0.047676
# 5 0.010586 -0.003299 0.013789 0.000000 0.047627 0.000000
# 6 0.000000 0.000000 0.000000 -0.047676 0.000000 0.072785
#
#
# Mechanical properties :
#
#
# Convention : Reuss Voigt Hill
#
# Bulk Modulus (GPa) = 19.83769 30.81606 25.32688
# Shear Modulus (GPa) = 11.96769 21.30953 16.63861
#
# Velocity S-wave (km/s) = 2.36534 3.15628 2.78899
# Velocity P-wave (km/s) = 4.09069 5.26204 4.71290
#
# Compressibility (1/GPa) = 0.05040909
#
# Stress axis : x y z
#
# Youngs Moduli (GPa) = 42.45712 97.82641 37.32181
#
# Poissons Ratio (x) = 0.48729 -0.10409
# Poissons Ratio (y) = 0.21149 0.10778
# Poissons Ratio (z) = -0.11841 0.28250
#
# Static dielectric constant tensor:
#      x y z
#    x 1.825870 0.000000 0.009770 
#    y 0.000000 1.785800 0.000000 
#    z 0.009770 0.000000 1.835820 
# 
# From -- ./inp_files/117567.got.cif
#   From: 2010.05.17/outbox.cif.g08.bks.cpg/sg15_59_cif.got.tgz:117567.got - 2010.06.03 18:47:42.
