data_PCOD9273174
_publ_section_title
;
Structure prediction by ZEFSAII (Michael W. Deem and Ramdas Pophale) SiO2 
 PCOD9273174
Probable space group: C 2/C
;
_chemical_formula_sum "Si O2"
_cell_formula_units_Z 48
_cell_length_a 8.211019
_cell_length_b 31.358046
_cell_length_c 10.621382
_cell_angle_alpha 90.000000
_cell_angle_beta 43.240943
_cell_angle_gamma 90.000000
_cell_volume 1873.530045
_symmetry_space_group_name_H-M "C 2/C"
_symmetry_group_IT_number 15
_symmetry_cell_setting 'monoclinic'
loop_
_space_group_symop_operation_xyz
x,y,z
-x,y,1/2-z
-x,-y,-z
x,-y,1/2+z
1/2+x,1/2+y,z
1/2-x,1/2+y,1/2-z
1/2-x,1/2-y,-z
1/2+x,1/2-y,1/2+z
loop_
_atom_site_type_symbol
_atom_site_label
_atom_site_fract_x
_atom_site_fract_y
_atom_site_fract_z
Si Si1 0.276591 0.724848 0.792300
Si Si2 0.873891 0.400735 0.685565
Si Si3 0.191289 0.915889 0.249373
Si Si4 0.837644 0.493582 0.715044
Si Si5 0.785266 0.841241 0.085050
Si Si6 0.271478 0.809878 0.658722
O O1 0.500000 0.738145 0.750000
O O2 0.380603 0.690817 0.636034
O O3 0.184594 0.765962 0.769208
O O4 0.055904 0.701591 0.983866
O O5 0.059160 0.404926 0.462979
O O6 0.000000 0.401274 0.750000
O O7 0.734885 0.445816 0.761328
O O8 0.754790 0.354512 0.743059
O O9 0.161593 0.887915 0.390966
O O10 0.000000 0.905740 0.250000
O O11 0.170423 0.965389 0.299967
O O12 0.000000 0.496233 0.750000
O O13 0.000000 0.500000 0.500000
O O14 0.500000 0.838930 0.250000
O O15 0.823143 0.822296 0.926011
#
# Coordination Sequence:
#
# PCOD9273174 Si02
#       6
#     8   8   8   8   8   8
#     4  11  22  38  61  93 126 161 211 262 315 367
#     4  10  21  40  63  90 127 166 207 251 313 378
#     4  11  21  39  69  96 123 163 214 261 307 376
#     4   9  20  37  65  94 125 170 212 252 313 387
#     4  10  20  37  63  89 121 162 212 251 307 376
#     4  11  23  40  64  89 125 169 211 257 310 378
#
# _framework density 25.620086000000001
#
# number of rings (size 3 to 8) (size 9 to 14) (size 15 to 20)
#    0.000    1.667    3.333    2.500    2.333    0.000 
#    0.000    7.500    0.000    0.000    0.000    0.000 
#    0.000    0.000    0.000    0.000    0.000    0.000 
#
# Total GULP energy -134292.224961 kJ/mol
# GULP energy per Si atom -5595.509373 kJ/mol
# Density = 2.556177 g / cm^3
# Si number density = 25.620086 Si / 1000 Ang^3
#
#
#
# Elastic Constant Matrix: (Units=GPa)
#
#
# Indices 1 2 3 4 5 6 
#
# 1 86.6782 30.1993 15.4546 0.0000 25.8880 0.0000
# 2 30.1993 219.9336 40.3863 0.0000 17.6330 0.0000
# 3 15.4546 40.3863 103.1280 0.0000 11.7120 0.0000
# 4 0.0000 0.0000 0.0000 39.4237 0.0000 10.0792
# 5 25.8880 17.6330 11.7120 0.0000 34.2627 0.0000
# 6 0.0000 0.0000 0.0000 10.0792 0.0000 52.6024
#
#
#
# Elastic Compliance Matrix: (Units=1/GPa)
#
#
# Indices 1 2 3 4 5 6 
#
# 1 0.015242 -0.001118 -0.000628 0.000000 -0.010727 0.000000
# 2 -0.001118 0.005108 -0.001696 0.000000 -0.001205 0.000000
# 3 -0.000628 -0.001696 0.010718 0.000000 -0.002316 0.000000
# 4 0.000000 0.000000 0.000000 0.026672 0.000000 -0.005111
# 5 -0.010727 -0.001205 -0.002316 0.000000 0.038703 0.000000
# 6 0.000000 0.000000 0.000000 -0.005111 0.000000 0.019990
#
#
# Mechanical properties :
#
#
# Convention : Reuss Voigt Hill
#
# Bulk Modulus (GPa) = 41.34902 64.64669 52.99786
# Shear Modulus (GPa) = 38.05799 46.83775 42.44787
#
# Velocity S-wave (km/s) = 3.85837 4.28034 4.07482
# Velocity P-wave (km/s) = 6.00197 7.05096 6.54751
#
# Compressibility (1/GPa) = 0.02418437
#
# Stress axis : x y z
#
# Youngs Moduli (GPa) = 65.60834 195.75830 93.29980
#
# Poissons Ratio (x) = 0.21876 0.05862
# Poissons Ratio (y) = 0.07332 0.15826
# Poissons Ratio (z) = 0.04122 0.33205
#
# Static dielectric constant tensor:
#      x y z
#    x 1.977910 0.000000 -0.093350 
#    y 0.000000 1.983170 0.000000 
#    z -0.093350 0.000000 2.148520 
# 
# From -- ./inp_files/80518.got.cif
#   From: 2010.05.17/outbox.cif.g08.bks.cpg/sg15_41_cif.got.tgz:80518.got - 2010.06.03 18:47:42.
