data_PCOD9273027
_publ_section_title
;
Structure prediction by ZEFSAII (Michael W. Deem and Ramdas Pophale) SiO2 
 PCOD9273027
Probable space group: C 2/C
;
_chemical_formula_sum "Si O2"
_cell_formula_units_Z 52
_cell_length_a 20.464185
_cell_length_b 11.449282
_cell_length_c 13.615107
_cell_angle_alpha 90.000000
_cell_angle_beta 128.643563
_cell_angle_gamma 90.000000
_cell_volume 2491.554098
_symmetry_space_group_name_H-M "C 2/C"
_symmetry_group_IT_number 15
_symmetry_cell_setting 'monoclinic'
loop_
_space_group_symop_operation_xyz
x,y,z
-x,y,1/2-z
-x,-y,-z
x,-y,1/2+z
1/2+x,1/2+y,z
1/2-x,1/2+y,1/2-z
1/2-x,1/2-y,-z
1/2+x,1/2-y,1/2+z
loop_
_atom_site_type_symbol
_atom_site_label
_atom_site_fract_x
_atom_site_fract_y
_atom_site_fract_z
Si Si1 0.760889 0.360187 0.308619
Si Si2 0.607861 0.310176 0.498988
Si Si3 0.247396 0.224731 0.384756
Si Si4 0.883620 0.575387 0.428882
Si Si5 0.500000 0.557011 0.750000
Si Si6 0.383146 0.469164 0.802980
Si Si7 0.506293 0.909844 0.638547
O O1 0.799587 0.249070 0.404299
O O2 0.776430 0.329567 0.209383
O O3 0.819072 0.470361 0.385158
O O4 0.666991 0.407881 0.234492
O O5 0.576101 0.366856 0.367709
O O6 0.598761 0.407989 0.575218
O O7 0.545057 0.200436 0.453521
O O8 0.250000 0.250000 0.500000
O O9 0.338247 0.185826 0.431337
O O10 0.180674 0.122546 0.305384
O O11 0.964868 0.531241 0.563400
O O12 0.905537 0.593302 0.335119
O O13 0.461010 0.485976 0.803904
O O14 0.500000 0.903070 0.750000
#
# Coordination Sequence:
#
# PCOD9273027 Si02
#       7
#     8   8   8   8   4   8   8
#     4   9  21  42  62  84 128 160 207 264 300 371
#     4  10  22  41  61  93 124 162 212 253 312 375
#     4  10  22  38  62  89 117 164 212 249 313 368
#     4   9  21  38  58  89 122 160 204 260 307 359
#     4  12  24  38  64  92 130 168 200 256 320 386
#     4  10  24  42  60  93 126 165 207 263 312 365
#     4  10  20  37  62  88 123 162 205 254 312 373
#
# _framework density 20.870508999999998
#
# number of rings (size 3 to 8) (size 9 to 14) (size 15 to 20)
#    0.000    2.154    0.769    0.462    6.462    1.846 
#    0.000    0.000    0.000    0.000    0.000    0.000 
#    0.000    0.000    0.000    0.000    0.000    0.000 
#
# Total GULP energy -144895.969712 kJ/mol
# GULP energy per Si atom -5572.921912 kJ/mol
# Density = 2.082301 g / cm^3
# Si number density = 20.870509 Si / 1000 Ang^3
#
#
#
# Elastic Constant Matrix: (Units=GPa)
#
#
# Indices 1 2 3 4 5 6 
#
# 1 82.9620 9.8560 19.6471 0.0000 -15.4505 0.0000
# 2 9.8560 38.4800 20.9279 0.0000 -6.0445 0.0000
# 3 19.6471 20.9279 119.2209 0.0000 -19.6684 0.0000
# 4 0.0000 0.0000 0.0000 7.0392 0.0000 -9.7699
# 5 -15.4505 -6.0445 -19.6684 0.0000 22.7665 0.0000
# 6 0.0000 0.0000 0.0000 -9.7699 0.0000 2.9136
#
#
#
# Elastic Compliance Matrix: (Units=1/GPa)
#
#
# Indices 1 2 3 4 5 6 
#
# 1 0.014001 -0.001944 -0.000564 0.000000 0.008498 0.000000
# 2 -0.001944 0.029287 -0.004380 0.000000 0.002672 0.000000
# 3 -0.000564 -0.004380 0.010490 0.000000 0.007517 0.000000
# 4 0.000000 0.000000 0.000000 -0.038880 0.000000 -0.130368
# 5 0.008498 0.002672 0.007517 0.000000 0.056895 0.000000
# 6 0.000000 0.000000 0.000000 -0.130368 0.000000 -0.093931
#
#
# Mechanical properties :
#
#
# Convention : Reuss Voigt Hill
#
# Bulk Modulus (GPa) = 24.99908 37.94722 31.47315
# Shear Modulus (GPa) = 1005.51979 19.22600 512.37289
#
# Velocity S-wave (km/s) = 21.97352 3.03843 15.68547
# Velocity P-wave (km/s) = 25.60830 5.52549 18.52453
#
# Compressibility (1/GPa) = 0.04000148
#
# Stress axis : x y z
#
# Youngs Moduli (GPa) = 71.42370 34.14441 95.33256
#
# Poissons Ratio (x) = 0.06639 0.05376
# Poissons Ratio (y) = 0.13888 0.41753
# Poissons Ratio (z) = 0.04028 0.14954
#
# Static dielectric constant tensor:
#      x y z
#    x 1.320160 0.000000 0.465490 
#    y 0.000000 1.779680 0.000000 
#    z 0.465490 0.000000 1.427320 
# 
# From -- ./inp_files/111737.got.cif
#   From: 2010.05.17/outbox.cif.g08.bks.cpg/sg15_56_cif.got.tgz:111737.got - 2010.06.03 18:47:42.
