data_PCOD9273686
_publ_section_title
;
Structure prediction by ZEFSAII (Michael W. Deem and Ramdas Pophale) SiO2 
 PCOD9273686
Probable space group: C 2/C
;
_chemical_formula_sum "Si O2"
_cell_formula_units_Z 44
_cell_length_a 24.707794
_cell_length_b 7.553901
_cell_length_c 13.910512
_cell_angle_alpha 90.000000
_cell_angle_beta 56.455387
_cell_angle_gamma 90.000000
_cell_volume 2163.868937
_symmetry_space_group_name_H-M "C 2/C"
_symmetry_group_IT_number 15
_symmetry_cell_setting 'monoclinic'
loop_
_space_group_symop_operation_xyz
x,y,z
-x,y,1/2-z
-x,-y,-z
x,-y,1/2+z
1/2+x,1/2+y,z
1/2-x,1/2+y,1/2-z
1/2-x,1/2-y,-z
1/2+x,1/2-y,1/2+z
loop_
_atom_site_type_symbol
_atom_site_label
_atom_site_fract_x
_atom_site_fract_y
_atom_site_fract_z
Si Si1 0.859417 0.674602 0.392659
Si Si2 0.000000 0.429860 0.750000
Si Si3 0.094219 0.643118 0.770615
Si Si4 0.172077 0.058540 0.115269
Si Si5 0.219875 0.217293 0.875678
Si Si6 0.674441 0.933621 0.365931
O O1 0.855772 0.495929 0.332253
O O2 0.825862 0.646741 0.527611
O O3 0.936892 0.683763 0.336385
O O4 0.834821 0.849767 0.365273
O O5 0.974657 0.558426 0.689501
O O6 0.108326 0.832473 0.709945
O O7 0.115337 0.640228 0.859925
O O8 0.228731 0.152311 0.120979
O O9 0.187896 0.096347 0.988184
O O10 0.260218 0.113368 0.756240
O O11 0.169028 0.354673 0.880698
#
# Coordination Sequence:
#
# PCOD9273686 Si02
#       6
#     8   4   8   8   8   8
#     4  10  21  39  57  84 111 151 188 239 275 337
#     4   8  20  40  60  80 108 154 188 232 302 308
#     4   9  21  40  56  84 112 150 186 239 274 338
#     4  10  20  38  58  80 124 144 190 225 285 332
#     4  10  21  34  54  90 112 159 180 227 278 341
#     4  11  21  35  59  84 118 145 198 223 280 339
#
# _framework density 20.333949
#
# number of rings (size 3 to 8) (size 9 to 14) (size 15 to 20)
#    1.091    1.091    1.818    1.091    2.545    2.182 
#    0.000    0.000    0.000    6.545    0.000    0.000 
#    0.000    0.000    0.000    0.000    0.000    0.000 
#
# Total GULP energy -122667.914682 kJ/mol
# GULP energy per Si atom -5575.814304 kJ/mol
# Density = 2.028767 g / cm^3
# Si number density = 20.333949 Si / 1000 Ang^3
#
#
#
# Elastic Constant Matrix: (Units=GPa)
#
#
# Indices 1 2 3 4 5 6 
#
# 1 39.4814 3.7546 -3.6433 0.0000 -6.8481 0.0000
# 2 3.7546 69.2324 14.0952 0.0000 15.3686 0.0000
# 3 -3.6433 14.0952 55.9009 0.0000 8.0286 0.0000
# 4 0.0000 0.0000 0.0000 22.1214 0.0000 -5.7644
# 5 -6.8481 15.3686 8.0286 0.0000 20.6877 0.0000
# 6 0.0000 0.0000 0.0000 -5.7644 0.0000 20.7227
#
#
#
# Elastic Compliance Matrix: (Units=1/GPa)
#
#
# Indices 1 2 3 4 5 6 
#
# 1 0.027959 -0.004446 0.001207 0.000000 0.012089 0.000000
# 2 -0.004446 0.018386 -0.002915 0.000000 -0.013999 0.000000
# 3 0.001207 -0.002915 0.019416 0.000000 -0.004970 0.000000
# 4 0.000000 0.000000 0.000000 0.048738 0.000000 0.013557
# 5 0.012089 -0.013999 -0.004970 0.000000 0.064668 0.000000
# 6 0.000000 0.000000 0.000000 0.013557 0.000000 0.052027
#
#
# Mechanical properties :
#
#
# Convention : Reuss Voigt Hill
#
# Bulk Modulus (GPa) = 18.70763 21.44753 20.07758
# Shear Modulus (GPa) = 19.13353 22.73360 20.93356
#
# Velocity S-wave (km/s) = 3.07084 3.34730 3.21205
# Velocity P-wave (km/s) = 4.66836 5.05072 4.86330
#
# Compressibility (1/GPa) = 0.05345414
#
# Stress axis : x y z
#
# Youngs Moduli (GPa) = 35.76612 54.38821 51.50309
#
# Poissons Ratio (x) = 0.24179 -0.06216
# Poissons Ratio (y) = 0.15900 0.15014
# Poissons Ratio (z) = -0.04317 0.15855
#
# Static dielectric constant tensor:
#      x y z
#    x 1.760140 0.000000 -0.015950 
#    y 0.000000 1.735270 0.000000 
#    z -0.015950 0.000000 1.728600 
# 
# From -- ./inp_files/116661.got.cif
#   From: 2010.05.17/outbox.cif.g08.bks.cpg/sg15_59_cif.got.tgz:116661.got - 2010.06.03 18:47:42.
