data_PCOD9273968
_publ_section_title
;
Structure prediction by ZEFSAII (Michael W. Deem and Ramdas Pophale) SiO2 
 PCOD9273968
Probable space group: C 2/C
;
_chemical_formula_sum "Si O2"
_cell_formula_units_Z 44
_cell_length_a 17.799403
_cell_length_b 5.179865
_cell_length_c 20.283012
_cell_angle_alpha 90.000000
_cell_angle_beta 65.758662
_cell_angle_gamma 90.000000
_cell_volume 1705.168903
_symmetry_space_group_name_H-M "C 2/C"
_symmetry_group_IT_number 15
_symmetry_cell_setting 'monoclinic'
loop_
_space_group_symop_operation_xyz
x,y,z
-x,y,1/2-z
-x,-y,-z
x,-y,1/2+z
1/2+x,1/2+y,z
1/2-x,1/2+y,1/2-z
1/2-x,1/2-y,-z
1/2+x,1/2-y,1/2+z
loop_
_atom_site_type_symbol
_atom_site_label
_atom_site_fract_x
_atom_site_fract_y
_atom_site_fract_z
Si Si1 0.734885 0.003512 0.960236
Si Si2 0.000000 0.083666 0.250000
Si Si3 0.276838 0.448782 0.700128
Si Si4 0.968998 0.071475 0.615798
Si Si5 0.561770 0.935781 0.047811
Si Si6 0.847255 0.665613 0.849295
O O1 0.801855 0.937370 0.881105
O O2 0.750000 0.250000 0.000000
O O3 0.639790 0.992690 0.972723
O O4 0.750000 0.750000 0.000000
O O5 0.000909 0.928658 0.318126
O O6 0.079818 0.265892 0.226620
O O7 0.258921 0.174471 0.739651
O O8 0.372271 0.507937 0.651026
O O9 0.222707 0.482725 0.653880
O O10 0.020300 0.843484 0.562068
O O11 0.994895 0.339552 0.573314
O O12 0.606584 0.941555 0.103427
#
# Coordination Sequence:
#
# PCOD9273968 Si02
#       6
#     8   4   8   8   8   8
#     4  10  20  39  64  95 124 160 213 265 310 364
#     4  10  20  38  60  92 116 162 208 252 308 362
#     4  12  26  42  58  92 134 167 202 255 324 383
#     4  11  23  39  62  90 128 159 208 260 310 372
#     4  10  22  40  65  91 119 162 214 260 304 367
#     4  10  23  40  65  93 125 167 206 259 314 376
#
# _framework density 25.803896999999999
#
# number of rings (size 3 to 8) (size 9 to 14) (size 15 to 20)
#    0.000    1.455    1.818    4.364    5.091    3.636 
#    0.000    1.818    0.000    0.000    0.000    0.000 
#    0.000    0.000    0.000    0.000    0.000    0.000 
#
# Total GULP energy -123273.587261 kJ/mol
# GULP energy per Si atom -5603.344876 kJ/mol
# Density = 2.574517 g / cm^3
# Si number density = 25.803897 Si / 1000 Ang^3
#
#
#
# Elastic Constant Matrix: (Units=GPa)
#
#
# Indices 1 2 3 4 5 6 
#
# 1 150.4500 25.2905 31.2657 -0.0054 -15.5720 0.0146
# 2 25.2905 138.2540 16.4676 0.0310 -6.4295 -0.0139
# 3 31.2657 16.4676 72.3205 0.0077 -40.8345 0.0041
# 4 -0.0054 0.0310 0.0077 38.5141 -0.0029 -11.4792
# 5 -15.5720 -6.4295 -40.8345 -0.0029 61.7379 0.0027
# 6 0.0146 -0.0139 0.0041 -11.4792 0.0027 11.2169
#
#
#
# Elastic Compliance Matrix: (Units=1/GPa)
#
#
# Indices 1 2 3 4 5 6 
#
# 1 0.007440 -0.000998 -0.003174 -0.000001 -0.000326 -0.000010
# 2 -0.000998 0.007580 -0.001582 -0.000004 -0.000508 0.000008
# 3 -0.003174 -0.001582 0.023964 -0.000008 0.014885 -0.000019
# 4 -0.000001 -0.000004 -0.000008 0.037360 -0.000006 0.038234
# 5 -0.000326 -0.000508 0.014885 -0.000006 0.025907 -0.000018
# 6 -0.000010 0.000008 -0.000019 0.038234 -0.000018 0.128280
#
#
# Mechanical properties :
#
#
# Convention : Reuss Voigt Hill
#
# Bulk Modulus (GPa) = 36.39283 56.34137 46.36710
# Shear Modulus (GPa) = 19.90459 41.49381 30.69920
#
# Velocity S-wave (km/s) = 2.78038 4.01439 3.45296
# Velocity P-wave (km/s) = 4.94385 6.58551 5.82283
#
# Compressibility (1/GPa) = 0.02747794
#
# Stress axis : x y z
#
# Youngs Moduli (GPa) = 134.40395 131.91899 41.72912
#
# Poissons Ratio (x) = 0.13168 0.13243
# Poissons Ratio (y) = 0.13416 0.06600
# Poissons Ratio (z) = 0.42654 0.20865
#
# Static dielectric constant tensor:
#      x y z
#    x 2.063060 0.000000 0.064790 
#    y 0.000000 1.999120 -0.000080 
#    z 0.064790 -0.000080 2.226320 
# 
# From -- ./inp_files/275929.got.cif
#   From: 2010.05.17/outbox.cif.g08.bks.cpg/sg15_138_cif.got.tgz:275929.got - 2010.06.03 18:47:42.
