data_PCOD9273055
_publ_section_title
;
Structure prediction by ZEFSAII (Michael W. Deem and Ramdas Pophale) SiO2 
 PCOD9273055
Probable space group: C 2/C
;
_chemical_formula_sum "Si O2"
_cell_formula_units_Z 48
_cell_length_a 15.413564
_cell_length_b 8.449440
_cell_length_c 19.194301
_cell_angle_alpha 90.000000
_cell_angle_beta 73.743967
_cell_angle_gamma 90.000000
_cell_volume 2399.848091
_symmetry_space_group_name_H-M "C 2/C"
_symmetry_group_IT_number 15
_symmetry_cell_setting 'monoclinic'
loop_
_space_group_symop_operation_xyz
x,y,z
-x,y,1/2-z
-x,-y,-z
x,-y,1/2+z
1/2+x,1/2+y,z
1/2-x,1/2+y,1/2-z
1/2-x,1/2-y,-z
1/2+x,1/2-y,1/2+z
loop_
_atom_site_type_symbol
_atom_site_label
_atom_site_fract_x
_atom_site_fract_y
_atom_site_fract_z
Si Si1 0.754536 0.357456 0.431563
Si Si2 0.297578 0.598762 0.308004
Si Si3 0.537956 0.610601 0.669061
Si Si4 0.320146 0.818023 0.926441
Si Si5 0.311033 0.216057 0.661298
Si Si6 0.074107 0.959319 0.925413
O O1 0.750000 0.250000 0.500000
O O2 0.773983 0.240877 0.364520
O O3 0.826988 0.494662 0.431098
O O4 0.663203 0.451304 0.433126
O O5 0.385596 0.512297 0.320861
O O6 0.315239 0.684299 0.231009
O O7 0.216595 0.467523 0.322002
O O8 0.500000 0.683090 0.750000
O O9 0.586130 0.727854 0.603272
O O10 0.461241 0.526726 0.640378
O O11 0.273678 0.782339 0.862931
O O12 0.250000 0.750000 0.000000
O O13 0.396702 0.276176 0.595958
O O14 0.000000 0.000000 0.000000
#
# Coordination Sequence:
#
# PCOD9273055 Si02
#       6
#     8   8   8   8   8   8
#     4  11  23  41  65  93 123 169 223 265 315 398
#     4  11  22  40  65  89 128 166 222 261 317 398
#     4  11  22  40  64  95 130 169 209 272 337 380
#     4  10  21  39  64  88 123 170 215 255 321 398
#     4  10  20  37  62  90 118 170 213 252 319 391
#     4  11  22  40  64  92 129 167 209 266 335 384
#
# _framework density 20.001265
#
# number of rings (size 3 to 8) (size 9 to 14) (size 15 to 20)
#    0.000    1.333    1.667    7.000    2.333    0.000 
#    0.000    5.833    0.000    0.000    0.000    0.000 
#    0.000    0.000    0.000    0.000    0.000    0.000 
#
# Total GULP energy -133783.604258 kJ/mol
# GULP energy per Si atom -5574.316844 kJ/mol
# Density = 1.995574 g / cm^3
# Si number density = 20.001265 Si / 1000 Ang^3
#
#
#
# Elastic Constant Matrix: (Units=GPa)
#
#
# Indices 1 2 3 4 5 6 
#
# 1 62.3336 17.3991 14.2864 0.0000 4.9944 0.0000
# 2 17.3991 126.5382 44.6899 0.0000 -11.3621 0.0000
# 3 14.2864 44.6899 116.9349 0.0000 -4.5211 0.0000
# 4 0.0000 0.0000 0.0000 36.0139 0.0000 -0.4667
# 5 4.9944 -11.3621 -4.5211 0.0000 38.3832 0.0000
# 6 0.0000 0.0000 0.0000 -0.4667 0.0000 29.4609
#
#
#
# Elastic Compliance Matrix: (Units=1/GPa)
#
#
# Indices 1 2 3 4 5 6 
#
# 1 0.017206 -0.002144 -0.001400 0.000000 -0.003038 0.000000
# 2 -0.002144 0.009610 -0.003305 0.000000 0.002735 0.000000
# 3 -0.001400 -0.003305 0.010001 0.000000 0.000382 0.000000
# 4 0.000000 0.000000 0.000000 0.027773 0.000000 0.000440
# 5 -0.003038 0.002735 0.000382 0.000000 0.027303 0.000000
# 6 0.000000 0.000000 0.000000 0.000440 0.000000 0.033950
#
#
# Mechanical properties :
#
#
# Convention : Reuss Voigt Hill
#
# Bulk Modulus (GPa) = 43.25659 50.95081 47.10370
# Shear Modulus (GPa) = 33.95646 36.06703 35.01174
#
# Velocity S-wave (km/s) = 4.12480 4.25106 4.18841
# Velocity P-wave (km/s) = 6.66027 7.04446 6.85506
#
# Compressibility (1/GPa) = 0.02311786
#
# Stress axis : x y z
#
# Youngs Moduli (GPa) = 58.12077 104.05377 99.99239
#
# Poissons Ratio (x) = 0.22310 0.14000
# Poissons Ratio (y) = 0.12462 0.33050
# Poissons Ratio (z) = 0.08138 0.34392
#
# Static dielectric constant tensor:
#      x y z
#    x 1.664120 0.000000 -0.143310 
#    y 0.000000 1.760760 0.000000 
#    z -0.143310 0.000000 1.557690 
# 
# From -- ./inp_files/242310.got.cif
#   From: 2010.05.17/outbox.cif.g08.bks.cpg/sg15_122_cif.got.tgz:242310.got - 2010.06.03 18:47:42.
