data_PCOD9273903
_publ_section_title
;
Structure prediction by ZEFSAII (Michael W. Deem and Ramdas Pophale) SiO2 
 PCOD9273903
Probable space group: C 2/C
;
_chemical_formula_sum "Si O2"
_cell_formula_units_Z 40
_cell_length_a 21.756270
_cell_length_b 11.019241
_cell_length_c 10.523947
_cell_angle_alpha 90.000000
_cell_angle_beta 131.517516
_cell_angle_gamma 90.000000
_cell_volume 1889.093335
_symmetry_space_group_name_H-M "C 2/C"
_symmetry_group_IT_number 15
_symmetry_cell_setting 'monoclinic'
loop_
_space_group_symop_operation_xyz
x,y,z
-x,y,1/2-z
-x,-y,-z
x,-y,1/2+z
1/2+x,1/2+y,z
1/2-x,1/2+y,1/2-z
1/2-x,1/2-y,-z
1/2+x,1/2-y,1/2+z
loop_
_atom_site_type_symbol
_atom_site_label
_atom_site_fract_x
_atom_site_fract_y
_atom_site_fract_z
Si Si1 0.474858 0.349646 0.577839
Si Si2 0.249144 0.939272 0.931818
Si Si3 0.098405 0.888473 0.538568
Si Si4 0.688475 0.804128 0.019540
Si Si5 0.805264 0.806221 0.410881
O O1 0.500000 0.303123 0.750000
O O2 0.543818 0.321493 0.570514
O O3 0.456916 0.493912 0.566498
O O4 0.384115 0.300522 0.428506
O O5 0.180905 0.938263 0.724771
O O6 0.301476 0.817811 0.984085
O O7 0.309923 0.053830 0.016387
O O8 0.198811 0.916728 0.993902
O O9 0.118150 0.796656 0.450018
O O10 0.727453 0.810837 0.213724
O O11 0.750000 0.750000 0.000000
#
# Coordination Sequence:
#
# PCOD9273903 Si02
#       5
#     8   8   8   8   8
#     4  11  20  36  61  88 126 154 198 248 303 353
#     4  10  20  38  60  86 119 154 202 249 291 357
#     4  10  22  35  58  92 117 157 201 249 295 356
#     4  11  23  37  60  88 121 155 203 250 300 349
#     4  10  21  37  59  89 116 158 201 241 302 354
#
# _framework density 21.174178999999999
#
# number of rings (size 3 to 8) (size 9 to 14) (size 15 to 20)
#    0.000    1.600    4.000    1.200    2.800    0.000 
#    0.000    1.000    0.000    1.200    0.000    0.000 
#    0.000    0.000    0.000    0.000    0.000    0.000 
#
# Total GULP energy -111382.517341 kJ/mol
# GULP energy per Si atom -5569.125867 kJ/mol
# Density = 2.112599 g / cm^3
# Si number density = 21.174179 Si / 1000 Ang^3
#
#
#
# Elastic Constant Matrix: (Units=GPa)
#
#
# Indices 1 2 3 4 5 6 
#
# 1 142.1995 40.5159 -18.1721 0.0000 -2.8674 0.0000
# 2 40.5159 100.1407 -11.0504 0.0000 -4.0690 0.0000
# 3 -18.1721 -11.0504 22.0850 0.0000 -6.5008 0.0000
# 4 0.0000 0.0000 0.0000 15.6383 0.0000 -3.1918
# 5 -2.8674 -4.0690 -6.5008 0.0000 28.7553 0.0000
# 6 0.0000 0.0000 0.0000 -3.1918 0.0000 33.9622
#
#
#
# Elastic Compliance Matrix: (Units=1/GPa)
#
#
# Indices 1 2 3 4 5 6 
#
# 1 0.008655 -0.002727 0.006318 0.000000 0.001905 0.000000
# 2 -0.002727 0.011657 0.004279 0.000000 0.002345 0.000000
# 3 0.006318 0.004279 0.056760 0.000000 0.014067 0.000000
# 4 0.000000 0.000000 0.000000 0.065196 0.000000 0.006127
# 5 0.001905 0.002345 0.014067 0.000000 0.038478 0.000000
# 6 0.000000 0.000000 0.000000 0.006127 0.000000 0.030020
#
#
# Mechanical properties :
#
#
# Convention : Reuss Voigt Hill
#
# Bulk Modulus (GPa) = 10.77459 31.89023 21.33241
# Shear Modulus (GPa) = 22.12737 32.54662 27.33699
#
# Velocity S-wave (km/s) = 3.23618 3.92483 3.59702
# Velocity P-wave (km/s) = 4.36617 5.96931 5.22953
#
# Compressibility (1/GPa) = 0.09281096
#
# Stress axis : x y z
#
# Youngs Moduli (GPa) = 115.53700 85.78697 17.61810
#
# Poissons Ratio (x) = 0.23396 -0.11131
# Poissons Ratio (y) = 0.31509 -0.07538
# Poissons Ratio (z) = -0.72997 -0.36706
#
# Static dielectric constant tensor:
#      x y z
#    x 1.811160 0.000000 0.001560 
#    y 0.000000 1.849570 0.000000 
#    z 0.001560 0.000000 1.783630 
# 
# From -- ./inp_files/103561.got.cif
#   From: 2010.05.17/outbox.cif.g08.bks.cpg/sg15_52_cif.got.tgz:103561.got - 2010.06.03 18:47:42.
