data_PCOD9273180
_publ_section_title
;
Structure prediction by ZEFSAII (Michael W. Deem and Ramdas Pophale) SiO2 
 PCOD9273180
Probable space group: C 2/C
;
_chemical_formula_sum "Si O2"
_cell_formula_units_Z 36
_cell_length_a 13.202737
_cell_length_b 7.811966
_cell_length_c 23.478654
_cell_angle_alpha 90.000000
_cell_angle_beta 148.753346
_cell_angle_gamma 90.000000
_cell_volume 1256.126260
_symmetry_space_group_name_H-M "C 2/C"
_symmetry_group_IT_number 15
_symmetry_cell_setting 'monoclinic'
loop_
_space_group_symop_operation_xyz
x,y,z
-x,y,1/2-z
-x,-y,-z
x,-y,1/2+z
1/2+x,1/2+y,z
1/2-x,1/2+y,1/2-z
1/2-x,1/2-y,-z
1/2+x,1/2-y,1/2+z
loop_
_atom_site_type_symbol
_atom_site_label
_atom_site_fract_x
_atom_site_fract_y
_atom_site_fract_z
Si Si1 0.388349 0.948215 0.390161
Si Si2 0.039855 0.562935 0.345878
Si Si3 0.250000 0.250000 0.500000
Si Si4 0.611651 0.551785 0.109839
Si Si5 0.960145 0.062936 0.654122
O O1 0.443693 0.750000 0.399228
O O2 0.500000 0.000000 0.500000
O O3 0.631307 0.250000 0.380382
O O4 0.155102 0.956246 0.286020
O O5 0.178346 0.402356 0.419864
O O6 0.844898 0.543754 0.213980
O O7 0.942275 0.563729 0.362611
O O8 0.321655 0.402356 0.580136
O O9 0.557726 0.436271 0.137389
O O10 0.500000 0.500000 0.000000
#
# Coordination Sequence:
#
# PCOD9273180 Si02
#       5
#     8   8   4   8   8
#     4  10  20  37  63  90 117 156 204 249 290 352
#     4  10  22  39  60  89 121 156 201 245 296 358
#     4  12  22  40  62  90 128 160 190 248 314 358
#     4  10  20  37  63  90 117 156 204 249 290 352
#     4  10  22  39  60  89 121 156 201 245 296 358
#
# _framework density 28.659538999999999
#
# number of rings (size 3 to 8) (size 9 to 14) (size 15 to 20)
#    0.000    1.778    2.222    2.000    6.222    0.000 
#    0.000    4.444    0.000    8.000    0.000    0.000 
#    0.000    0.000    0.000    0.000    0.000    0.000 
#
# Total GULP energy -100663.316452 kJ/mol
# GULP energy per Si atom -5592.406470 kJ/mol
# Density = 2.859431 g / cm^3
# Si number density = 28.659539 Si / 1000 Ang^3
#
#
#
# Elastic Constant Matrix: (Units=GPa)
#
#
# Indices 1 2 3 4 5 6 
#
# 1 84.2281 34.0938 11.7279 0.0000 5.8945 0.0000
# 2 34.0938 304.7437 116.6680 0.0000 11.1977 0.0000
# 3 11.7279 116.6680 270.4122 0.0000 -14.7161 0.0000
# 4 0.0000 0.0000 0.0000 60.2858 0.0000 2.1327
# 5 5.8945 11.1977 -14.7161 0.0000 40.1002 0.0000
# 6 0.0000 0.0000 0.0000 2.1327 0.0000 56.2459
#
#
#
# Elastic Compliance Matrix: (Units=1/GPa)
#
#
# Indices 1 2 3 4 5 6 
#
# 1 0.012521 -0.001326 -0.000052 0.000000 -0.001489 0.000000
# 2 -0.001326 0.004196 -0.001843 0.000000 -0.001653 0.000000
# 3 -0.000052 -0.001843 0.004616 0.000000 0.002216 0.000000
# 4 0.000000 0.000000 0.000000 0.016610 0.000000 -0.000630
# 5 -0.001489 -0.001653 0.002216 0.000000 0.026431 0.000000
# 6 0.000000 0.000000 0.000000 -0.000630 0.000000 0.017803
#
#
# Mechanical properties :
#
#
# Convention : Reuss Voigt Hill
#
# Bulk Modulus (GPa) = 67.15455 109.37372 88.26413
# Shear Modulus (GPa) = 53.42878 64.45268 58.94073
#
# Velocity S-wave (km/s) = 4.32239 4.74741 4.53988
# Velocity P-wave (km/s) = 6.95654 8.26417 7.63839
#
# Compressibility (1/GPa) = 0.01489102
#
# Stress axis : x y z
#
# Youngs Moduli (GPa) = 79.86717 238.31883 216.63833
#
# Poissons Ratio (x) = 0.31606 0.01124
# Poissons Ratio (y) = 0.10592 0.39922
# Poissons Ratio (z) = 0.00414 0.43918
#
# Static dielectric constant tensor:
#      x y z
#    x 1.627890 0.000000 -0.325300 
#    y 0.000000 2.042220 0.000000 
#    z -0.325300 0.000000 2.029400 
# 
# From -- ./inp_files/298244.got.cif
#   From: 2010.05.17/outbox.cif.g08.bks.cpg/sg15_150_cif.got.tgz:298244.got - 2010.06.03 18:47:42.
