data_PCOD9273302
_publ_section_title
;
Structure prediction by ZEFSAII (Michael W. Deem and Ramdas Pophale) SiO2 
 PCOD9273302
Probable space group: C 2/C
;
_chemical_formula_sum "Si O2"
_cell_formula_units_Z 48
_cell_length_a 8.926911
_cell_length_b 21.041633
_cell_length_c 14.660964
_cell_angle_alpha 90.000000
_cell_angle_beta 50.799095
_cell_angle_gamma 90.000000
_cell_volume 2134.067604
_symmetry_space_group_name_H-M "C 2/C"
_symmetry_group_IT_number 15
_symmetry_cell_setting 'monoclinic'
loop_
_space_group_symop_operation_xyz
x,y,z
-x,y,1/2-z
-x,-y,-z
x,-y,1/2+z
1/2+x,1/2+y,z
1/2-x,1/2+y,1/2-z
1/2-x,1/2-y,-z
1/2+x,1/2-y,1/2+z
loop_
_atom_site_type_symbol
_atom_site_label
_atom_site_fract_x
_atom_site_fract_y
_atom_site_fract_z
Si Si1 0.116017 0.350099 0.301255
Si Si2 0.231084 0.353621 0.850210
Si Si3 0.445603 0.616366 0.556492
Si Si4 0.677011 0.051315 0.513451
Si Si5 0.517385 0.288653 0.607280
Si Si6 0.895656 0.415189 0.888950
O O1 0.330759 0.373366 0.194683
O O2 0.083404 0.279384 0.350875
O O3 0.000000 0.349854 0.250000
O O4 0.003097 0.401086 0.404178
O O5 0.367119 0.337417 0.712907
O O6 0.294201 0.300414 0.900657
O O7 0.016860 0.360127 0.892848
O O8 0.270306 0.421380 0.884851
O O9 0.327216 0.566802 0.538201
O O10 0.432362 0.683366 0.509249
O O11 0.669425 0.599936 0.473011
O O12 0.601204 0.980746 0.555310
O O13 0.000000 0.424818 0.750000
#
# Coordination Sequence:
#
# PCOD9273302 Si02
#       6
#     8   8   8   8   8   8
#     4  10  20  37  64  91 117 155 212 251 289 347
#     4  10  21  38  61  90 117 159 200 249 299 349
#     4  10  22  38  63  93 118 166 197 248 306 353
#     4  10  23  38  64  91 120 161 203 249 295 356
#     4  10  20  39  64  87 115 160 211 245 290 364
#     4  12  22  40  61  91 131 154 200 246 309 364
#
# _framework density 22.492259000000001
#
# number of rings (size 3 to 8) (size 9 to 14) (size 15 to 20)
#    0.000    1.667    3.333    2.500    2.333    2.000 
#    0.000    1.667    3.667    0.000    0.000    0.000 
#    0.000    0.000    0.000    0.000    0.000    0.000 
#
# Total GULP energy -134003.944335 kJ/mol
# GULP energy per Si atom -5583.497681 kJ/mol
# Density = 2.244107 g / cm^3
# Si number density = 22.492259 Si / 1000 Ang^3
#
#
#
# Elastic Constant Matrix: (Units=GPa)
#
#
# Indices 1 2 3 4 5 6 
#
# 1 67.0820 33.8448 43.2883 0.0000 -28.2777 0.0000
# 2 33.8448 103.0163 38.6947 0.0000 -18.2050 0.0000
# 3 43.2883 38.6947 127.5611 0.0000 -36.5843 0.0000
# 4 0.0000 0.0000 0.0000 26.6456 0.0000 -5.6612
# 5 -28.2777 -18.2050 -36.5843 0.0000 37.2999 0.0000
# 6 0.0000 0.0000 0.0000 -5.6612 0.0000 8.8550
#
#
#
# Elastic Compliance Matrix: (Units=1/GPa)
#
#
# Indices 1 2 3 4 5 6 
#
# 1 0.025027 -0.004622 -0.003195 0.000000 0.013584 0.000000
# 2 -0.004622 0.012040 -0.001953 0.000000 0.000457 0.000000
# 3 -0.003195 -0.001953 0.011894 0.000000 0.008290 0.000000
# 4 0.000000 0.000000 0.000000 0.043429 0.000000 0.027765
# 5 0.013584 0.000457 0.008290 0.000000 0.045462 0.000000
# 6 0.000000 0.000000 0.000000 0.027765 0.000000 0.130681
#
#
# Mechanical properties :
#
#
# Convention : Reuss Voigt Hill
#
# Bulk Modulus (GPa) = 33.98907 58.81278 46.40092
# Shear Modulus (GPa) = 16.78540 26.68222 21.73381
#
# Velocity S-wave (km/s) = 2.73477 3.44798 3.11188
# Velocity P-wave (km/s) = 5.01161 6.48508 5.79536
#
# Compressibility (1/GPa) = 0.02942122
#
# Stress axis : x y z
#
# Youngs Moduli (GPa) = 39.95720 83.05749 84.07898
#
# Poissons Ratio (x) = 0.38386 0.26865
# Poissons Ratio (y) = 0.18467 0.16418
# Poissons Ratio (z) = 0.12767 0.16218
#
# Static dielectric constant tensor:
#      x y z
#    x 1.894170 0.000000 0.004010 
#    y 0.000000 1.818890 0.000000 
#    z 0.004010 0.000000 1.905390 
# 
# From -- ./inp_files/191940.got.cif
#   From: 2010.05.17/outbox.cif.g08.bks.cpg/sg15_96_cif.got.tgz:191940.got - 2010.06.03 18:47:42.
