data_PCOD9273570
_publ_section_title
;
Structure prediction by ZEFSAII (Michael W. Deem and Ramdas Pophale) SiO2 
 PCOD9273570
Probable space group: C 2/C
;
_chemical_formula_sum "Si O2"
_cell_formula_units_Z 40
_cell_length_a 12.263514
_cell_length_b 14.190301
_cell_length_c 9.581403
_cell_angle_alpha 90.000000
_cell_angle_beta 100.128920
_cell_angle_gamma 90.000000
_cell_volume 1641.397113
_symmetry_space_group_name_H-M "C 2/C"
_symmetry_group_IT_number 15
_symmetry_cell_setting 'monoclinic'
loop_
_space_group_symop_operation_xyz
x,y,z
-x,y,1/2-z
-x,-y,-z
x,-y,1/2+z
1/2+x,1/2+y,z
1/2-x,1/2+y,1/2-z
1/2-x,1/2-y,-z
1/2+x,1/2-y,1/2+z
loop_
_atom_site_type_symbol
_atom_site_label
_atom_site_fract_x
_atom_site_fract_y
_atom_site_fract_z
Si Si1 0.877551 0.665716 0.211324
Si Si2 0.746434 0.513968 0.735323
Si Si3 0.103658 0.958562 0.943435
Si Si4 0.878539 0.754726 0.494348
Si Si5 0.057009 0.600462 0.556582
O O1 0.786873 0.594409 0.247890
O O2 0.884622 0.751112 0.323755
O O3 0.000000 0.620017 0.250000
O O4 0.871962 0.661967 0.043071
O O5 0.708391 0.537278 0.571989
O O6 0.850434 0.574531 0.809448
O O7 0.642422 0.514945 0.816547
O O8 0.077660 0.848719 0.923336
O O9 0.000000 0.000000 0.000000
O O10 0.750000 0.750000 0.500000
O O11 0.953579 0.668295 0.562184
O O12 0.000000 0.500000 0.500000
#
# Coordination Sequence:
#
# PCOD9273570 Si02
#       5
#     8   8   8   8   8
#     4  10  20  37  73 102 144 178 238 297 362 428
#     4  12  23  45  74 102 143 195 247 298 372 440
#     4  12  28  49  72 102 150 198 245 309 384 447
#     4  11  23  45  71 106 150 192 241 302 370 449
#     4  11  21  41  73 110 141 183 241 308 362 431
#
# _framework density 24.369484
#
# number of rings (size 3 to 8) (size 9 to 14) (size 15 to 20)
#    0.000    0.800    8.000    0.600    0.000    4.800 
#    3.600    2.000    0.000    0.000    0.000    0.000 
#    0.000    0.000    0.000    0.000    0.000    0.000 
#
# Total GULP energy -111665.092791 kJ/mol
# GULP energy per Si atom -5583.254640 kJ/mol
# Density = 2.431402 g / cm^3
# Si number density = 24.369484 Si / 1000 Ang^3
#
#
#
# Elastic Constant Matrix: (Units=GPa)
#
#
# Indices 1 2 3 4 5 6 
#
# 1 117.2784 29.4754 -2.0059 0.0000 -20.8449 0.0000
# 2 29.4754 102.5097 -3.2227 0.0000 -0.7132 0.0000
# 3 -2.0059 -3.2227 90.7493 0.0000 -6.5942 0.0000
# 4 0.0000 0.0000 0.0000 20.3301 0.0000 -11.7347
# 5 -20.8449 -0.7132 -6.5942 0.0000 47.4081 0.0000
# 6 0.0000 0.0000 0.0000 -11.7347 0.0000 37.0571
#
#
#
# Elastic Compliance Matrix: (Units=1/GPa)
#
#
# Indices 1 2 3 4 5 6 
#
# 1 0.010036 -0.002841 0.000443 0.000000 0.004432 0.000000
# 2 -0.002841 0.010572 0.000236 0.000000 -0.001057 0.000000
# 3 0.000443 0.000236 0.011165 0.000000 0.001751 0.000000
# 4 0.000000 0.000000 0.000000 0.060190 0.000000 0.019060
# 5 0.004432 -0.001057 0.001751 0.000000 0.023270 0.000000
# 6 0.000000 0.000000 0.000000 0.019060 0.000000 0.033021
#
#
# Mechanical properties :
#
#
# Convention : Reuss Voigt Hill
#
# Bulk Modulus (GPa) = 36.43186 39.89234 38.16210
# Shear Modulus (GPa) = 30.91626 40.04510 35.48068
#
# Velocity S-wave (km/s) = 3.56567 4.05810 3.81983
# Velocity P-wave (km/s) = 5.65104 6.19378 5.92862
#
# Compressibility (1/GPa) = 0.02744850
#
# Stress axis : x y z
#
# Youngs Moduli (GPa) = 99.64149 94.58841 89.56728
#
# Poissons Ratio (x) = 0.26872 -0.03967
# Poissons Ratio (y) = 0.28308 -0.02112
# Poissons Ratio (z) = -0.04414 -0.02230
#
# Static dielectric constant tensor:
#      x y z
#    x 1.912290 0.000000 -0.047250 
#    y 0.000000 1.996750 0.000000 
#    z -0.047250 0.000000 2.157130 
# 
# From -- ./inp_files/85741.got.cif
#   From: 2010.05.17/outbox.cif.g08.bks.cpg/sg15_43_cif.got.tgz:85741.got - 2010.06.03 18:47:42.
