data_PCOD9273037
_publ_section_title
;
Structure prediction by ZEFSAII (Michael W. Deem and Ramdas Pophale) SiO2 
 PCOD9273037
Probable space group: C 2/C
;
_chemical_formula_sum "Si O2"
_cell_formula_units_Z 44
_cell_length_a 10.043030
_cell_length_b 13.689712
_cell_length_c 13.667286
_cell_angle_alpha 90.000000
_cell_angle_beta 76.441106
_cell_angle_gamma 90.000000
_cell_volume 1826.692535
_symmetry_space_group_name_H-M "C 2/C"
_symmetry_group_IT_number 15
_symmetry_cell_setting 'monoclinic'
loop_
_space_group_symop_operation_xyz
x,y,z
-x,y,1/2-z
-x,-y,-z
x,-y,1/2+z
1/2+x,1/2+y,z
1/2-x,1/2+y,1/2-z
1/2-x,1/2-y,-z
1/2+x,1/2-y,1/2+z
loop_
_atom_site_type_symbol
_atom_site_label
_atom_site_fract_x
_atom_site_fract_y
_atom_site_fract_z
Si Si1 0.053410 0.324364 0.601232
Si Si2 0.405343 0.438365 0.941647
Si Si3 0.397839 0.032809 0.929545
Si Si4 0.039563 0.271700 0.383053
Si Si5 0.682284 0.269762 0.264500
Si Si6 0.000000 0.061216 0.750000
O O1 0.099497 0.431396 0.628966
O O2 0.094349 0.299370 0.483618
O O3 0.123189 0.253407 0.666483
O O4 0.891084 0.302852 0.646025
O O5 0.458570 0.328458 0.915223
O O6 0.415491 0.495269 0.838246
O O7 0.500000 0.500000 0.000000
O O8 0.251857 0.443532 0.006612
O O9 0.453912 0.131307 0.873283
O O10 0.500000 0.000000 0.000000
O O11 0.157795 0.259548 0.281933
O O12 0.613316 0.375669 0.291571
#
# Coordination Sequence:
#
# PCOD9273037 Si02
#       6
#     8   8   8   8   8   4
#     4   9  19  38  61  88 120 164 213 250 301 373
#     4  12  24  41  66  94 125 168 212 257 311 373
#     4  10  22  41  64  87 125 169 204 254 321 372
#     4  11  22  37  61  91 127 160 199 259 321 370
#     4  10  20  37  62  89 119 164 213 257 296 365
#     4  10  22  40  62  92 128 166 212 258 306 374
#
# _framework density 24.087249
#
# number of rings (size 3 to 8) (size 9 to 14) (size 15 to 20)
#    0.000    1.818    0.000    6.545    0.000    4.364 
#    0.000    7.273    0.000    0.000    0.000    0.000 
#    0.000    0.000    0.000    0.000    0.000    0.000 
#
# Total GULP energy -122990.186469 kJ/mol
# GULP energy per Si atom -5590.463021 kJ/mol
# Density = 2.403243 g / cm^3
# Si number density = 24.087249 Si / 1000 Ang^3
#
#
#
# Elastic Constant Matrix: (Units=GPa)
#
#
# Indices 1 2 3 4 5 6 
#
# 1 96.6984 40.9231 37.1718 0.0000 -46.6497 0.0000
# 2 40.9231 174.8824 36.7923 0.0000 -41.2369 0.0000
# 3 37.1718 36.7923 91.8821 0.0000 -37.4531 0.0000
# 4 0.0000 0.0000 0.0000 27.9487 0.0000 -4.5791
# 5 -46.6497 -41.2369 -37.4531 0.0000 68.0478 0.0000
# 6 0.0000 0.0000 0.0000 -4.5791 0.0000 18.3171
#
#
#
# Elastic Compliance Matrix: (Units=1/GPa)
#
#
# Indices 1 2 3 4 5 6 
#
# 1 0.016095 -0.001136 -0.002372 0.000000 0.009040 0.000000
# 2 -0.001136 0.006878 -0.001177 0.000000 0.002742 0.000000
# 3 -0.002372 -0.001177 0.014647 0.000000 0.005722 0.000000
# 4 0.000000 0.000000 0.000000 0.037308 0.000000 0.009327
# 5 0.009040 0.002742 0.005722 0.000000 0.025704 0.000000
# 6 0.000000 0.000000 0.000000 0.009327 0.000000 0.056925
#
#
# Mechanical properties :
#
#
# Convention : Reuss Voigt Hill
#
# Bulk Modulus (GPa) = 35.39705 65.91527 50.65616
# Shear Modulus (GPa) = 28.35386 39.43446 33.89416
#
# Velocity S-wave (km/s) = 3.43466 4.05056 3.75526
# Velocity P-wave (km/s) = 5.51873 7.02144 6.31495
#
# Compressibility (1/GPa) = 0.02825094
#
# Stress axis : x y z
#
# Youngs Moduli (GPa) = 62.13126 145.39116 68.27383
#
# Poissons Ratio (x) = 0.16512 0.16192
# Poissons Ratio (y) = 0.07056 0.08037
# Poissons Ratio (z) = 0.14735 0.17115
#
# Static dielectric constant tensor:
#      x y z
#    x 3.191880 0.000000 0.093420 
#    y 0.000000 2.233600 0.000000 
#    z 0.093420 0.000000 1.942490 
# 
# From -- ./inp_files/196441.got.cif
#   From: 2010.05.17/outbox.cif.g08.bks.cpg/sg15_99_cif.got.tgz:196441.got - 2010.06.03 18:47:42.
