data_PCOD9273429
_publ_section_title
;
Structure prediction by ZEFSAII (Michael W. Deem and Ramdas Pophale) SiO2 
 PCOD9273429
Probable space group: C 2/C
;
_chemical_formula_sum "Si O2"
_cell_formula_units_Z 64
_cell_length_a 21.859576
_cell_length_b 16.731412
_cell_length_c 17.795177
_cell_angle_alpha 90.000000
_cell_angle_beta 27.803751
_cell_angle_gamma 90.000000
_cell_volume 3035.824511
_symmetry_space_group_name_H-M "C 2/C"
_symmetry_group_IT_number 15
_symmetry_cell_setting 'monoclinic'
loop_
_space_group_symop_operation_xyz
x,y,z
-x,y,1/2-z
-x,-y,-z
x,-y,1/2+z
1/2+x,1/2+y,z
1/2-x,1/2+y,1/2-z
1/2-x,1/2-y,-z
1/2+x,1/2-y,1/2+z
loop_
_atom_site_type_symbol
_atom_site_label
_atom_site_fract_x
_atom_site_fract_y
_atom_site_fract_z
Si Si1 0.134900 0.667150 0.430376
Si Si2 0.047435 0.948434 0.807270
Si Si3 0.389239 0.244223 0.309114
Si Si4 0.807398 0.605582 0.289502
Si Si5 0.770021 0.042152 0.534778
Si Si6 0.081737 0.793077 0.862735
Si Si7 0.144340 0.316708 0.091497
Si Si8 0.001093 0.883109 0.404106
O O1 0.146967 0.605105 0.347665
O O2 0.267613 0.721451 0.276633
O O3 0.145251 0.644591 0.506762
O O4 0.001279 0.716362 0.567970
O O5 0.145188 0.974270 0.633524
O O6 0.087561 0.862317 0.793952
O O7 0.894255 0.937366 0.952421
O O8 0.048859 0.025962 0.859208
O O9 0.500000 0.223690 0.250000
O O10 0.250000 0.250000 0.500000
O O11 0.378844 0.178363 0.254415
O O12 0.420170 0.330754 0.240857
O O13 0.813972 0.526883 0.333946
O O14 0.650258 0.618544 0.458111
O O15 0.673283 0.113335 0.618684
O O16 0.001361 0.836220 0.015881
O O17 0.000000 0.278852 0.250000
O O18 0.250000 0.250000 0.000000
#
# Coordination Sequence:
#
# PCOD9273429 Si02
#       8
#     8   8   8   8   8   8   8   8
#     4  11  23  41  67  99 136 174 222 286 341 404
#     4  10  20  37  65  94 128 173 227 281 329 399
#     4  12  22  36  61  92 128 176 227 272 331 404
#     4  10  22  42  64  94 138 177 218 283 342 407
#     4  10  22  41  64  94 134 174 222 279 342 401
#     4  11  21  39  64  97 132 169 226 278 342 396
#     4  12  26  44  72 102 135 177 228 285 346 411
#     4  10  21  37  61  94 130 173 224 280 333 397
#
# _framework density 21.081586999999999
#
# number of rings (size 3 to 8) (size 9 to 14) (size 15 to 20)
#    0.000    1.250    3.750    2.625    3.500    0.500 
#    0.000    0.625    0.000    0.000    0.000    0.000 
#    0.000    0.000    0.000    0.000    0.000    0.000 
#
# Total GULP energy -178421.003183 kJ/mol
# GULP energy per Si atom -5575.656349 kJ/mol
# Density = 2.103360 g / cm^3
# Si number density = 21.081587 Si / 1000 Ang^3
#
#
#
# Elastic Constant Matrix: (Units=GPa)
#
#
# Indices 1 2 3 4 5 6 
#
# 1 76.2296 36.2393 25.4771 -0.0001 11.0055 0.0001
# 2 36.2393 88.7958 24.6014 0.0000 2.9947 0.0000
# 3 25.4771 24.6014 76.0495 0.0000 -1.5037 0.0000
# 4 -0.0001 0.0000 0.0000 18.6722 0.0001 6.7596
# 5 11.0055 2.9947 -1.5037 0.0001 36.8638 -0.0001
# 6 0.0001 0.0000 0.0000 6.7596 -0.0001 36.4268
#
#
#
# Elastic Compliance Matrix: (Units=1/GPa)
#
#
# Indices 1 2 3 4 5 6 
#
# 1 0.018148 -0.006066 -0.004218 0.000000 -0.005097 0.000000
# 2 -0.006066 0.014449 -0.002631 0.000000 0.000530 0.000000
# 3 -0.004218 -0.002631 0.015455 0.000000 0.002103 0.000000
# 4 0.000000 0.000000 0.000000 0.057412 0.000000 -0.010654
# 5 -0.005097 0.000530 0.002103 0.000000 0.028691 0.000000
# 6 0.000000 0.000000 0.000000 -0.010654 0.000000 0.029429
#
#
# Mechanical properties :
#
#
# Convention : Reuss Voigt Hill
#
# Bulk Modulus (GPa) = 45.00308 45.96783 45.48545
# Shear Modulus (GPa) = 25.40365 28.70969 27.05667
#
# Velocity S-wave (km/s) = 3.47510 3.69431 3.58638
# Velocity P-wave (km/s) = 6.12333 6.32845 6.22674
#
# Compressibility (1/GPa) = 0.02222070
#
# Stress axis : x y z
#
# Youngs Moduli (GPa) = 55.10371 69.21110 64.70290
#
# Poissons Ratio (x) = 0.41982 0.27292
# Poissons Ratio (y) = 0.33425 0.17026
# Poissons Ratio (z) = 0.23243 0.18212
#
# Static dielectric constant tensor:
#      x y z
#    x 1.804820 0.000000 0.050770 
#    y 0.000000 1.757220 0.000000 
#    z 0.050770 0.000000 1.807790 
# 
# From -- ./inp_files/216150.got.cif
#   From: 2010.05.17/outbox.cif.g08.bks.cpg/sg15_109_cif.got.tgz:216150.got - 2010.06.03 18:47:42.
