data_PCOD9273808
_publ_section_title
;
Structure prediction by ZEFSAII (Michael W. Deem and Ramdas Pophale) SiO2 
 PCOD9273808
Probable space group: C 2/C
;
_chemical_formula_sum "Si O2"
_cell_formula_units_Z 56
_cell_length_a 10.545740
_cell_length_b 23.335830
_cell_length_c 11.989982
_cell_angle_alpha 90.000000
_cell_angle_beta 87.137232
_cell_angle_gamma 90.000000
_cell_volume 2946.975431
_symmetry_space_group_name_H-M "C 2/C"
_symmetry_group_IT_number 15
_symmetry_cell_setting 'monoclinic'
loop_
_space_group_symop_operation_xyz
x,y,z
-x,y,1/2-z
-x,-y,-z
x,-y,1/2+z
1/2+x,1/2+y,z
1/2-x,1/2+y,1/2-z
1/2-x,1/2-y,-z
1/2+x,1/2-y,1/2+z
loop_
_atom_site_type_symbol
_atom_site_label
_atom_site_fract_x
_atom_site_fract_y
_atom_site_fract_z
Si Si1 0.219267 0.702593 0.411065
Si Si2 0.621180 0.584620 0.093106
Si Si3 0.064877 0.302021 0.489273
Si Si4 0.459482 0.075752 0.623282
Si Si5 0.310830 0.997303 0.486911
Si Si6 0.282303 0.283088 0.657896
Si Si7 0.163854 0.917475 0.847990
O O1 0.250000 0.750000 0.500000
O O2 0.311256 0.647088 0.420936
O O3 0.242658 0.728210 0.286932
O O4 0.071457 0.690840 0.444756
O O5 0.471131 0.579259 0.084296
O O6 0.648084 0.566140 0.219634
O O7 0.688971 0.541390 0.008279
O O8 0.082164 0.363942 0.429446
O O9 0.161990 0.280579 0.580481
O O10 0.099615 0.255273 0.391094
O O11 0.500000 0.082386 0.750000
O O12 0.578770 0.046067 0.555631
O O13 0.350268 0.029674 0.599085
O O14 0.275441 0.046418 0.399834
O O15 0.312812 0.349989 0.653320
#
# Coordination Sequence:
#
# PCOD9273808 Si02
#       7
#     8   8   8   8   8   8   8
#     4  11  23  39  62  92 122 159 208 260 316 376
#     4  10  21  36  59  89 120 159 207 247 302 366
#     4  11  22  42  63  87 125 161 207 261 316 376
#     4  11  24  38  61  93 122 159 210 260 316 368
#     4  11  21  40  59  88 123 167 201 255 306 373
#     4  10  23  40  63  89 121 165 207 256 318 378
#     4  10  20  38  59  87 122 159 205 249 300 370
#
# _framework density 19.002533
#
# number of rings (size 3 to 8) (size 9 to 14) (size 15 to 20)
#    0.000    1.429    2.857    2.571    2.000    1.143 
#    0.000    0.000    0.000    0.000    0.000    0.000 
#    0.000    0.000    0.000    0.000    0.000    0.000 
#
# Total GULP energy -155983.836411 kJ/mol
# GULP energy per Si atom -5570.851300 kJ/mol
# Density = 1.895928 g / cm^3
# Si number density = 19.002533 Si / 1000 Ang^3
#
#
#
# Elastic Constant Matrix: (Units=GPa)
#
#
# Indices 1 2 3 4 5 6 
#
# 1 29.8239 2.5527 -6.2979 0.0000 -4.9555 0.0000
# 2 2.5527 76.1585 34.7610 0.0000 -3.1430 0.0000
# 3 -6.2979 34.7610 85.8314 0.0000 3.3515 0.0000
# 4 0.0000 0.0000 0.0000 20.3332 0.0000 -0.3184
# 5 -4.9555 -3.1430 3.3515 0.0000 29.5658 0.0000
# 6 0.0000 0.0000 0.0000 -0.3184 0.0000 33.3227
#
#
#
# Elastic Compliance Matrix: (Units=1/GPa)
#
#
# Indices 1 2 3 4 5 6 
#
# 1 0.035342 -0.002523 0.003409 0.000000 0.005269 0.000000
# 2 -0.002523 0.016469 -0.006937 0.000000 0.002114 0.000000
# 3 0.003409 -0.006937 0.014782 0.000000 -0.001842 0.000000
# 4 0.000000 0.000000 0.000000 0.049188 0.000000 0.000470
# 5 0.005269 0.002114 -0.001842 0.000000 0.035140 0.000000
# 6 0.000000 0.000000 0.000000 0.000470 0.000000 0.030014
#
#
# Mechanical properties :
#
#
# Convention : Reuss Voigt Hill
#
# Bulk Modulus (GPa) = 18.35198 28.20504 23.27851
# Shear Modulus (GPa) = 23.67421 27.36421 25.51921
#
# Velocity S-wave (km/s) = 3.53348 3.79889 3.66859
# Velocity P-wave (km/s) = 5.13088 5.84098 5.49741
#
# Compressibility (1/GPa) = 0.05449005
#
# Stress axis : x y z
#
# Youngs Moduli (GPa) = 28.29532 60.72099 67.64795
#
# Poissons Ratio (x) = 0.15322 -0.23064
# Poissons Ratio (y) = 0.07140 0.46930
# Poissons Ratio (z) = -0.09647 0.42125
#
# Static dielectric constant tensor:
#      x y z
#    x 1.822530 0.000000 0.040470 
#    y 0.000000 1.672370 0.000000 
#    z 0.040470 0.000000 1.683540 
# 
# From -- ./inp_files/88906.got.cif
#   From: 2010.05.17/outbox.cif.g08.bks.cpg/sg15_45_cif.got.tgz:88906.got - 2010.06.03 18:47:42.
