data_PCOD9273994
_publ_section_title
;
Structure prediction by ZEFSAII (Michael W. Deem and Ramdas Pophale) SiO2 
 PCOD9273994
Probable space group: C 2/C
;
_chemical_formula_sum "Si O2"
_cell_formula_units_Z 52
_cell_length_a 14.126160
_cell_length_b 5.195866
_cell_length_c 29.374033
_cell_angle_alpha 90.000000
_cell_angle_beta 107.674792
_cell_angle_gamma 90.000000
_cell_volume 2054.211615
_symmetry_space_group_name_H-M "C 2/C"
_symmetry_group_IT_number 15
_symmetry_cell_setting 'monoclinic'
loop_
_space_group_symop_operation_xyz
x,y,z
-x,y,1/2-z
-x,-y,-z
x,-y,1/2+z
1/2+x,1/2+y,z
1/2-x,1/2+y,1/2-z
1/2-x,1/2-y,-z
1/2+x,1/2-y,1/2+z
loop_
_atom_site_type_symbol
_atom_site_label
_atom_site_fract_x
_atom_site_fract_y
_atom_site_fract_z
Si Si1 0.641703 0.782028 0.333519
Si Si2 0.000000 0.061616 0.750000
Si Si3 0.163253 0.457026 0.607260
Si Si4 0.052631 0.837891 0.165469
Si Si5 0.568540 0.750859 0.505839
Si Si6 0.765747 0.104412 0.282153
Si Si7 0.469264 0.270396 0.595814
O O1 0.577392 0.626050 0.287040
O O2 0.719345 0.573621 0.366833
O O3 0.574875 0.878016 0.366574
O O4 0.699108 0.010149 0.315142
O O5 0.973000 0.247979 0.787958
O O6 0.125991 0.336557 0.648903
O O7 0.142414 0.286362 0.559019
O O8 0.080681 0.688698 0.594064
O O9 0.119214 0.092236 0.186833
O O10 0.976267 0.942066 0.117059
O O11 0.500000 0.500000 0.500000
O O12 0.602519 0.750240 0.458196
O O13 0.500000 0.000000 0.500000
O O14 0.743754 0.376790 0.256608
#
# Coordination Sequence:
#
# PCOD9273994 Si02
#       7
#     8   4   8   8   8   8   8
#     4  10  23  41  64 101 131 181 231 280 344 413
#     4  10  20  38  60  94 132 170 224 280 326 400
#     4  10  22  40  66  92 131 180 220 279 344 409
#     4  10  21  35  61  88 126 172 216 267 331 398
#     4  10  20  41  71  99 132 176 221 283 348 411
#     4  11  24  41  62  91 128 176 223 270 331 399
#     4  10  22  41  65  95 137 167 227 280 343 407
#
# _framework density 25.313848
#
# number of rings (size 3 to 8) (size 9 to 14) (size 15 to 20)
#    0.000    1.846    3.077    0.000    4.308    1.846 
#    0.000    0.769    0.000    3.692    0.000    0.000 
#    0.000    0.000    0.000    0.000    0.000    0.000 
#
# Total GULP energy -144980.242208 kJ/mol
# GULP energy per Si atom -5576.163162 kJ/mol
# Density = 2.525623 g / cm^3
# Si number density = 25.313848 Si / 1000 Ang^3
#
#
#
# Elastic Constant Matrix: (Units=GPa)
#
#
# Indices 1 2 3 4 5 6 
#
# 1 89.7768 8.3753 36.1412 0.0000 -4.1121 0.0000
# 2 8.3753 89.1923 32.2008 0.0000 2.6230 0.0000
# 3 36.1412 32.2008 193.6848 0.0000 -9.2708 0.0000
# 4 0.0000 0.0000 0.0000 42.3188 0.0000 -2.1486
# 5 -4.1121 2.6230 -9.2708 0.0000 49.0751 0.0000
# 6 0.0000 0.0000 0.0000 -2.1486 0.0000 21.7068
#
#
#
# Elastic Compliance Matrix: (Units=1/GPa)
#
#
# Indices 1 2 3 4 5 6 
#
# 1 0.012072 -0.000372 -0.002161 0.000000 0.000623 0.000000
# 2 -0.000372 0.011990 -0.001974 0.000000 -0.001045 0.000000
# 3 -0.002161 -0.001974 0.005945 0.000000 0.001047 0.000000
# 4 0.000000 0.000000 0.000000 0.023750 0.000000 0.002351
# 5 0.000623 -0.001045 0.001047 0.000000 0.020683 0.000000
# 6 0.000000 0.000000 0.000000 0.002351 0.000000 0.046301
#
#
# Mechanical properties :
#
#
# Convention : Reuss Voigt Hill
#
# Bulk Modulus (GPa) = 47.63477 58.45427 53.04452
# Shear Modulus (GPa) = 36.56273 42.34925 39.45599
#
# Velocity S-wave (km/s) = 3.80462 4.09463 3.95229
# Velocity P-wave (km/s) = 6.17727 6.74512 6.46743
#
# Compressibility (1/GPa) = 0.02099307
#
# Stress axis : x y z
#
# Youngs Moduli (GPa) = 82.83704 83.40250 168.22031
#
# Poissons Ratio (x) = 0.03100 0.36352
# Poissons Ratio (y) = 0.03079 0.33207
# Poissons Ratio (z) = 0.17901 0.16464
#
# Static dielectric constant tensor:
#      x y z
#    x 2.218640 0.000000 0.031660 
#    y 0.000000 2.077050 0.000000 
#    z 0.031660 0.000000 2.084540 
# 
# From -- ./inp_files/312413.got.cif
#   From: 2010.05.17/outbox.cif.g08.bks.cpg/sg15_157_cif.got.tgz:312413.got - 2010.06.03 18:47:42.
