data_PCOD9273898
_publ_section_title
;
Structure prediction by ZEFSAII (Michael W. Deem and Ramdas Pophale) SiO2 
 PCOD9273898
Probable space group: C 2/C
;
_chemical_formula_sum "Si O2"
_cell_formula_units_Z 56
_cell_length_a 14.925611
_cell_length_b 13.517136
_cell_length_c 28.496147
_cell_angle_alpha 90.000000
_cell_angle_beta 149.493722
_cell_angle_gamma 90.000000
_cell_volume 2918.452267
_symmetry_space_group_name_H-M "C 2/C"
_symmetry_group_IT_number 15
_symmetry_cell_setting 'monoclinic'
loop_
_space_group_symop_operation_xyz
x,y,z
-x,y,1/2-z
-x,-y,-z
x,-y,1/2+z
1/2+x,1/2+y,z
1/2-x,1/2+y,1/2-z
1/2-x,1/2-y,-z
1/2+x,1/2-y,1/2+z
loop_
_atom_site_type_symbol
_atom_site_label
_atom_site_fract_x
_atom_site_fract_y
_atom_site_fract_z
Si Si1 0.477694 0.304198 0.006297
Si Si2 0.031061 0.097073 0.095624
Si Si3 0.802459 0.455957 0.995784
Si Si4 0.464213 0.197957 0.849596
Si Si5 0.107531 0.896610 0.159953
Si Si6 0.665133 0.694039 0.360182
Si Si7 0.230951 0.172783 0.948429
O O1 0.512134 0.366432 0.068704
O O2 0.653754 0.237718 0.078814
O O3 0.454512 0.379075 0.952590
O O4 0.310872 0.231978 0.940435
O O5 0.062692 0.202198 0.133759
O O6 0.838994 0.058805 0.025987
O O7 0.151401 0.012076 0.172782
O O8 0.712692 0.406866 0.909312
O O9 0.840113 0.571372 0.005776
O O10 0.964097 0.387281 0.083953
O O11 0.284289 0.163996 0.745407
O O12 0.603761 0.228089 0.872504
O O13 0.970341 0.867668 0.139464
O O14 0.500000 0.683193 0.250000
O O15 0.250000 0.250000 0.000000
#
# Coordination Sequence:
#
# PCOD9273898 Si02
#       7
#     8   8   8   8   8   8   8
#     4  11  19  38  62  83 120 154 197 249 299 356
#     4  10  20  38  60  86 115 159 199 246 306 354
#     4  10  20  39  61  85 119 157 194 246 309 355
#     4  11  20  37  62  86 117 150 201 251 294 352
#     4  10  22  36  59  86 121 158 197 246 302 361
#     4  11  20  36  62  93 114 143 200 259 290 343
#     4   9  22  40  56  83 120 163 194 237 305 370
#
# _framework density 19.188251999999999
#
# number of rings (size 3 to 8) (size 9 to 14) (size 15 to 20)
#    0.000    1.714    4.286    1.286    0.000    2.857 
#    2.571    0.714    3.143    0.000    0.000    0.000 
#    0.000    0.000    0.000    0.000    0.000    0.000 
#
# Total GULP energy -156064.619480 kJ/mol
# GULP energy per Si atom -5573.736410 kJ/mol
# Density = 1.914458 g / cm^3
# Si number density = 19.188252 Si / 1000 Ang^3
#
#
#
# Elastic Constant Matrix: (Units=GPa)
#
#
# Indices 1 2 3 4 5 6 
#
# 1 60.3660 2.3920 6.4657 0.0000 11.0682 0.0000
# 2 2.3920 92.4588 12.1699 -0.0001 9.5378 0.0000
# 3 6.4657 12.1699 29.6092 -0.0002 -5.6157 -0.0001
# 4 0.0000 -0.0001 -0.0002 -11.0655 0.0000 0.1376
# 5 11.0682 9.5378 -5.6157 0.0000 20.5011 0.0000
# 6 0.0000 0.0000 -0.0001 0.1376 0.0000 24.3522
#
#
#
# Elastic Compliance Matrix: (Units=1/GPa)
#
#
# Indices 1 2 3 4 5 6 
#
# 1 0.019831 0.001918 -0.007719 0.000000 -0.013713 0.000000
# 2 0.001918 0.012649 -0.007310 0.000000 -0.008922 0.000000
# 3 -0.007719 -0.007310 0.042085 -0.000001 0.019096 0.000000
# 4 0.000000 0.000000 -0.000001 -0.090364 -0.000001 0.000511
# 5 -0.013713 -0.008922 0.019096 -0.000001 0.065563 0.000000
# 6 0.000000 0.000000 0.000000 0.000511 0.000000 0.041061
#
#
# Mechanical properties :
#
#
# Convention : Reuss Voigt Hill
#
# Bulk Modulus (GPa) = 20.68611 24.94323 22.81467
# Shear Modulus (GPa) = 37.54848 17.51799 27.53323
#
# Velocity S-wave (km/s) = 4.42843 3.02479 3.79212
# Velocity P-wave (km/s) = 6.07881 5.02261 5.57578
#
# Compressibility (1/GPa) = 0.04834162
#
# Stress axis : x y z
#
# Youngs Moduli (GPa) = 50.42680 79.06047 23.76129
#
# Poissons Ratio (x) = -0.15161 0.18342
# Poissons Ratio (y) = -0.09670 0.17369
# Poissons Ratio (z) = 0.38926 0.57791
#
# Static dielectric constant tensor:
#      x y z
#    x 1.715320 0.000000 0.011480 
#    y 0.000000 1.702440 0.000000 
#    z 0.011480 0.000000 1.649160 
# 
# From -- ./inp_files/313908.got.cif
#   From: 2010.05.17/outbox.cif.g08.bks.cpg/sg15_157_cif.got.tgz:313908.got - 2010.06.03 18:47:42.
