data_PCOD9273014
_publ_section_title
;
Structure prediction by ZEFSAII (Michael W. Deem and Ramdas Pophale) SiO2 
 PCOD9273014
Probable space group: C 2/C
;
_chemical_formula_sum "Si O2"
_cell_formula_units_Z 36
_cell_length_a 13.981150
_cell_length_b 7.469848
_cell_length_c 25.090801
_cell_angle_alpha 90.000000
_cell_angle_beta 150.242115
_cell_angle_gamma 90.000000
_cell_volume 1300.603578
_symmetry_space_group_name_H-M "C 2/C"
_symmetry_group_IT_number 15
_symmetry_cell_setting 'monoclinic'
loop_
_space_group_symop_operation_xyz
x,y,z
-x,y,1/2-z
-x,-y,-z
x,-y,1/2+z
1/2+x,1/2+y,z
1/2-x,1/2+y,1/2-z
1/2-x,1/2-y,-z
1/2+x,1/2-y,1/2+z
loop_
_atom_site_type_symbol
_atom_site_label
_atom_site_fract_x
_atom_site_fract_y
_atom_site_fract_z
Si Si1 0.194487 0.255951 0.813547
Si Si2 0.186483 0.530914 0.973715
Si Si3 0.601149 0.172577 0.747349
Si Si4 0.500000 0.000000 0.000000
Si Si5 0.954291 0.180188 0.863880
O O1 0.178109 0.469033 0.796187
O O2 0.188981 0.150076 0.754884
O O3 0.000000 0.204985 0.750000
O O4 0.376074 0.186209 0.932869
O O5 0.065891 0.666076 0.878116
O O6 0.134929 0.550301 0.010705
O O7 0.085762 0.342584 0.909153
O O8 0.406565 0.488440 0.062283
O O9 0.500000 0.247960 0.750000
O O10 0.807673 0.261946 0.836414
#
# Coordination Sequence:
#
# PCOD9273014 Si02
#       5
#     8   8   8   4   8
#     4  10  20  37  62  87 117 159 198 245 302 361
#     4  10  22  37  64  88 116 164 198 239 310 358
#     4  10  22  40  60  88 121 158 202 250 298 354
#     4  12  20  38  64  92 112 160 204 246 292 374
#     4  10  20  40  61  87 122 156 199 248 299 360
#
# _framework density 27.679455999999998
#
# number of rings (size 3 to 8) (size 9 to 14) (size 15 to 20)
#    0.000    1.778    4.444    0.000    3.111    0.889 
#    0.000    6.667    0.000    0.000    0.000    0.000 
#    0.000    0.000    0.000    0.000    0.000    0.000 
#
# Total GULP energy -100212.502935 kJ/mol
# GULP energy per Si atom -5567.361274 kJ/mol
# Density = 2.761646 g / cm^3
# Si number density = 27.679456 Si / 1000 Ang^3
#
#
#
# Elastic Constant Matrix: (Units=GPa)
#
#
# Indices 1 2 3 4 5 6 
#
# 1 125.3648 -39.5812 25.0740 0.0000 20.0522 0.0000
# 2 -39.5812 99.1729 -1.4689 0.0000 9.4751 0.0000
# 3 25.0740 -1.4689 23.8116 0.0001 -4.2403 0.0000
# 4 0.0000 0.0000 0.0001 11.9388 0.0000 5.4889
# 5 20.0522 9.4751 -4.2403 0.0000 40.2127 0.0000
# 6 0.0000 0.0000 0.0000 5.4889 0.0000 20.6550
#
#
#
# Elastic Compliance Matrix: (Units=1/GPa)
#
#
# Indices 1 2 3 4 5 6 
#
# 1 0.015632 0.007057 -0.018048 0.000000 -0.011361 0.000000
# 2 0.007057 0.013502 -0.007940 0.000000 -0.007538 0.000000
# 3 -0.018048 -0.007940 0.063643 -0.000001 0.017582 0.000000
# 4 0.000000 0.000000 -0.000001 0.095418 0.000000 -0.025356
# 5 -0.011361 -0.007538 0.017582 0.000000 0.034163 0.000000
# 6 0.000000 0.000000 0.000000 -0.025356 0.000000 0.055153
#
#
# Mechanical properties :
#
#
# Convention : Reuss Voigt Hill
#
# Bulk Modulus (GPa) = 18.21053 24.04412 21.12732
# Shear Modulus (GPa) = 14.98449 32.18300 23.58375
#
# Velocity S-wave (km/s) = 2.32923 3.41354 2.92212
# Velocity P-wave (km/s) = 3.71849 4.92360 4.36285
#
# Compressibility (1/GPa) = 0.05491328
#
# Stress axis : x y z
#
# Youngs Moduli (GPa) = 63.97241 74.06048 15.71277
#
# Poissons Ratio (x) = -0.52264 0.28359
# Poissons Ratio (y) = -0.45145 0.12477
# Poissons Ratio (z) = 1.15459 0.58807
#
# Static dielectric constant tensor:
#      x y z
#    x 2.380150 0.000000 -0.049810 
#    y 0.000000 2.169000 0.000000 
#    z -0.049810 0.000000 2.376270 
# 
# From -- ./inp_files/94723.got.cif
#   From: 2010.05.17/outbox.cif.g08.bks.cpg/sg15_48_cif.got.tgz:94723.got - 2010.06.03 18:47:42.
