data_PCOD9273975
_publ_section_title
;
Structure prediction by ZEFSAII (Michael W. Deem and Ramdas Pophale) SiO2 
 PCOD9273975
Probable space group: C 2/C
;
_chemical_formula_sum "Si O2"
_cell_formula_units_Z 64
_cell_length_a 28.146246
_cell_length_b 15.565487
_cell_length_c 11.926123
_cell_angle_alpha 90.000000
_cell_angle_beta 148.263451
_cell_angle_gamma 90.000000
_cell_volume 2748.400432
_symmetry_space_group_name_H-M "C 2/C"
_symmetry_group_IT_number 15
_symmetry_cell_setting 'monoclinic'
loop_
_space_group_symop_operation_xyz
x,y,z
-x,y,1/2-z
-x,-y,-z
x,-y,1/2+z
1/2+x,1/2+y,z
1/2-x,1/2+y,1/2-z
1/2-x,1/2-y,-z
1/2+x,1/2-y,1/2+z
loop_
_atom_site_type_symbol
_atom_site_label
_atom_site_fract_x
_atom_site_fract_y
_atom_site_fract_z
Si Si1 0.446569 0.374125 0.315464
Si Si2 0.194854 0.378593 0.661817
Si Si3 0.213531 0.001172 0.968934
Si Si4 0.326904 0.136004 0.774781
Si Si5 0.126450 0.830364 0.577143
Si Si6 0.107643 0.286445 0.660233
Si Si7 0.347661 0.082313 0.071922
Si Si8 0.447744 0.921794 0.310038
O O1 0.553186 0.380270 0.505104
O O2 0.428919 0.305831 0.378915
O O3 0.385887 0.458222 0.216075
O O4 0.410656 0.332829 0.125757
O O5 0.223865 0.446755 0.814577
O O6 0.277030 0.372445 0.742124
O O7 0.176660 0.291253 0.695261
O O8 0.109362 0.399769 0.415849
O O9 0.261453 0.031235 0.949504
O O10 0.230365 0.902206 0.038228
O O11 0.351953 0.235925 0.834024
O O12 0.392230 0.100888 0.809863
O O13 0.343545 0.099919 0.932657
O O14 0.150635 0.328661 0.857295
O O15 0.032348 0.357848 0.477549
O O16 0.437721 0.025866 0.282172
#
# Coordination Sequence:
#
# PCOD9273975 Si02
#       8
#     8   8   8   8   8   8   8   8
#     4  10  20  38  60  93 120 161 216 260 314 370
#     4  10  22  38  57  89 120 167 203 254 322 380
#     4   9  21  37  61  87 123 166 202 255 317 382
#     4  11  20  37  60  91 122 160 205 259 317 370
#     4  10  21  37  63  91 118 161 213 273 305 371
#     4  11  21  36  58  89 125 160 202 255 318 378
#     4  10  21  35  58  89 126 159 201 252 311 385
#     4  11  22  38  55  90 127 160 196 252 328 383
#
# _framework density 23.286273000000001
#
# number of rings (size 3 to 8) (size 9 to 14) (size 15 to 20)
#    0.000    1.750    3.750    0.750    1.750    2.500 
#    2.250    0.000    0.000    3.000   16.250    0.000 
#    0.000    0.000    0.000    0.000    0.000    0.000 
#
# Total GULP energy -178628.339463 kJ/mol
# GULP energy per Si atom -5582.135608 kJ/mol
# Density = 2.323327 g / cm^3
# Si number density = 23.286273 Si / 1000 Ang^3
#
#
#
# Elastic Constant Matrix: (Units=GPa)
#
#
# Indices 1 2 3 4 5 6 
#
# 1 120.7462 47.4608 42.0359 0.0000 2.1131 0.0000
# 2 47.4608 65.2457 38.0721 0.0000 3.3438 0.0000
# 3 42.0359 38.0721 56.7270 0.0000 11.7847 0.0000
# 4 0.0000 0.0000 0.0000 22.3876 0.0000 -4.0291
# 5 2.1131 3.3438 11.7847 0.0000 39.9445 0.0000
# 6 0.0000 0.0000 0.0000 -4.0291 0.0000 8.4414
#
#
#
# Elastic Compliance Matrix: (Units=1/GPa)
#
#
# Indices 1 2 3 4 5 6 
#
# 1 0.012541 -0.005910 -0.005637 0.000000 0.001494 0.000000
# 2 -0.005910 0.028335 -0.015138 0.000000 0.002407 0.000000
# 3 -0.005637 -0.015138 0.033706 0.000000 -0.008379 0.000000
# 4 0.000000 0.000000 0.000000 0.048865 0.000000 0.023324
# 5 0.001494 0.002407 -0.008379 0.000000 0.027226 0.000000
# 6 0.000000 0.000000 0.000000 0.023324 0.000000 0.129597
#
#
# Mechanical properties :
#
#
# Convention : Reuss Voigt Hill
#
# Bulk Modulus (GPa) = 47.14200 55.31740 51.22970
# Shear Modulus (GPa) = 14.67515 21.83137 18.25326
#
# Velocity S-wave (km/s) = 2.51311 3.06522 2.80279
# Velocity P-wave (km/s) = 5.35812 6.02780 5.70280
#
# Compressibility (1/GPa) = 0.02121251
#
# Stress axis : x y z
#
# Youngs Moduli (GPa) = 79.73752 35.29149 29.66808
#
# Poissons Ratio (x) = 0.20856 0.16725
# Poissons Ratio (y) = 0.47122 0.44912
# Poissons Ratio (z) = 0.44952 0.53424
#
# Static dielectric constant tensor:
#      x y z
#    x 1.871940 0.000000 0.028810 
#    y 0.000000 1.949060 0.000000 
#    z 0.028810 0.000000 1.955670 
# 
# From -- ./inp_files/127324.got.cif
#   From: 2010.05.17/outbox.cif.g08.bks.cpg/sg15_64_cif.got.tgz:127324.got - 2010.06.03 18:47:42.
