data_PCOD9273871
_publ_section_title
;
Structure prediction by ZEFSAII (Michael W. Deem and Ramdas Pophale) SiO2 
 PCOD9273871
Probable space group: C 2/C
;
_chemical_formula_sum "Si O2"
_cell_formula_units_Z 40
_cell_length_a 11.688603
_cell_length_b 13.404685
_cell_length_c 17.224430
_cell_angle_alpha 90.000000
_cell_angle_beta 145.327483
_cell_angle_gamma 90.000000
_cell_volume 1535.283703
_symmetry_space_group_name_H-M "C 2/C"
_symmetry_group_IT_number 15
_symmetry_cell_setting 'monoclinic'
loop_
_space_group_symop_operation_xyz
x,y,z
-x,y,1/2-z
-x,-y,-z
x,-y,1/2+z
1/2+x,1/2+y,z
1/2-x,1/2+y,1/2-z
1/2-x,1/2-y,-z
1/2+x,1/2-y,1/2+z
loop_
_atom_site_type_symbol
_atom_site_label
_atom_site_fract_x
_atom_site_fract_y
_atom_site_fract_z
Si Si1 0.623848 0.341952 0.884289
Si Si2 0.249046 0.481652 0.654152
Si Si3 0.673786 0.999680 0.281138
Si Si4 0.776794 0.797231 0.100299
Si Si5 0.534955 0.658035 0.504963
O O1 0.500000 0.280311 0.750000
O O2 0.463215 0.436821 0.805045
O O3 0.638806 0.311365 0.981045
O O4 0.799614 0.398067 0.937545
O O5 0.120451 0.479570 0.661516
O O6 0.273156 0.587278 0.625583
O O7 0.500000 0.001752 0.250000
O O8 0.791247 0.893801 0.348156
O O9 0.847438 0.079754 0.399453
O O10 0.580112 0.753084 0.030174
O O11 0.000000 0.761355 0.250000
O O12 0.750000 0.750000 0.000000
#
# Coordination Sequence:
#
# PCOD9273871 Si02
#       5
#     8   8   8   8   8
#     4   7  15  35  59  78 116 167 189 253 315 367
#     4   8  17  36  58  81 119 164 199 241 328 366
#     4  10  20  38  60  83 121 170 205 256 325 382
#     4  12  23  38  64  98 128 163 212 274 316 371
#     4  10  21  34  61  92 120 151 226 264 296 379
#
# _framework density 26.053816999999999
#
# number of rings (size 3 to 8) (size 9 to 14) (size 15 to 20)
#    1.200    1.200    2.000    1.800    5.600    0.000 
#    0.000    5.000    0.000    0.000    0.000    0.000 
#    0.000    0.000    0.000    0.000    0.000    0.000 
#
# Total GULP energy -111409.266346 kJ/mol
# GULP energy per Si atom -5570.463317 kJ/mol
# Density = 2.599452 g / cm^3
# Si number density = 26.053817 Si / 1000 Ang^3
#
#
#
# Elastic Constant Matrix: (Units=GPa)
#
#
# Indices 1 2 3 4 5 6 
#
# 1 205.5832 22.3991 53.6825 0.0000 9.3455 0.0000
# 2 22.3991 57.0111 -7.2006 0.0001 7.0288 0.0000
# 3 53.6825 -7.2006 77.7569 0.0001 11.9893 0.0000
# 4 0.0000 0.0001 0.0001 20.3846 0.0000 13.3150
# 5 9.3455 7.0288 11.9893 0.0000 42.1942 0.0000
# 6 0.0000 0.0000 0.0000 13.3150 0.0000 41.8035
#
#
#
# Elastic Compliance Matrix: (Units=1/GPa)
#
#
# Indices 1 2 3 4 5 6 
#
# 1 0.006451 -0.003202 -0.004824 0.000000 0.000475 0.000000
# 2 -0.003202 0.019870 0.004656 0.000000 -0.003924 0.000000
# 3 -0.004824 0.004656 0.017336 0.000000 -0.004633 0.000000
# 4 0.000000 0.000000 0.000000 0.061944 0.000000 -0.019730
# 5 0.000475 -0.003924 -0.004633 0.000000 0.025565 0.000000
# 6 0.000000 0.000000 0.000000 -0.019730 0.000000 0.030206
#
#
# Mechanical properties :
#
#
# Convention : Reuss Voigt Hill
#
# Bulk Modulus (GPa) = 27.08718 53.12370 40.10544
# Shear Modulus (GPa) = 27.71337 38.97448 33.34393
#
# Velocity S-wave (km/s) = 3.26498 3.87191 3.58132
# Velocity P-wave (km/s) = 4.96313 6.35792 5.70332
#
# Compressibility (1/GPa) = 0.03691784
#
# Stress axis : x y z
#
# Youngs Moduli (GPa) = 155.01311 50.32601 57.68244
#
# Poissons Ratio (x) = 0.16116 0.27824
# Poissons Ratio (y) = 0.49641 -0.26857
# Poissons Ratio (z) = 0.74772 -0.23432
#
# Static dielectric constant tensor:
#      x y z
#    x 2.239250 0.000000 0.074900 
#    y 0.000000 2.227650 0.000000 
#    z 0.074900 0.000000 2.222720 
# 
# From -- ./inp_files/239908.got.cif
#   From: 2010.05.17/outbox.cif.g08.bks.cpg/sg15_120_cif.got.tgz:239908.got - 2010.06.03 18:47:42.
