data_PCOD9273132
_publ_section_title
;
Structure prediction by ZEFSAII (Michael W. Deem and Ramdas Pophale) SiO2 
 PCOD9273132
Probable space group: C 2/C
;
_chemical_formula_sum "Si O2"
_cell_formula_units_Z 48
_cell_length_a 10.490168
_cell_length_b 26.378636
_cell_length_c 9.295170
_cell_angle_alpha 90.000000
_cell_angle_beta 121.063556
_cell_angle_gamma 90.000000
_cell_volume 2203.270830
_symmetry_space_group_name_H-M "C 2/C"
_symmetry_group_IT_number 15
_symmetry_cell_setting 'monoclinic'
loop_
_space_group_symop_operation_xyz
x,y,z
-x,y,1/2-z
-x,-y,-z
x,-y,1/2+z
1/2+x,1/2+y,z
1/2-x,1/2+y,1/2-z
1/2-x,1/2-y,-z
1/2+x,1/2-y,1/2+z
loop_
_atom_site_type_symbol
_atom_site_label
_atom_site_fract_x
_atom_site_fract_y
_atom_site_fract_z
Si Si1 0.891537 0.544431 0.886137
Si Si2 0.968586 0.946306 0.901823
Si Si3 0.410911 0.352337 0.347382
Si Si4 0.079021 0.243898 0.448590
Si Si5 0.443363 0.154551 0.879236
Si Si6 0.327599 0.036267 0.143994
O O1 0.978076 0.596849 0.938682
O O2 0.834010 0.522608 0.701277
O O3 0.774327 0.544173 0.948784
O O4 0.000000 0.500000 0.000000
O O5 0.791485 0.937344 0.823785
O O6 0.000000 0.947953 0.750000
O O7 0.055685 0.901661 0.035542
O O8 0.000000 0.000000 0.000000
O O9 0.500000 0.355189 0.250000
O O10 0.449918 0.302906 0.463609
O O11 0.234897 0.346043 0.215050
O O12 0.250000 0.250000 0.500000
O O13 0.017942 0.295529 0.488277
O O14 0.000000 0.234531 0.250000
O O15 0.500000 0.159034 0.750000
O O16 0.500000 0.054906 0.250000
#
# Coordination Sequence:
#
# PCOD9273132 Si02
#       6
#     8   8   8   8   8   8
#     4  10  20  37  62  95 133 177 227 282 343 419
#     4  12  25  43  68 105 147 193 241 297 366 441
#     4  12  26  46  72 103 146 187 237 309 369 433
#     4  11  23  50  76 107 137 185 251 303 367 442
#     4  11  22  42  72  97 135 186 236 292 365 421
#     4  10  21  39  59  91 135 175 230 278 336 419
#
# _framework density 21.785791
#
# number of rings (size 3 to 8) (size 9 to 14) (size 15 to 20)
#    0.000    1.000    3.333    5.500    0.000    3.333 
#    6.000    2.500    0.000    0.000    0.000    0.000 
#    0.000    0.000    0.000    0.000    0.000    0.000 
#
# Total GULP energy -133898.817117 kJ/mol
# GULP energy per Si atom -5579.117380 kJ/mol
# Density = 2.173621 g / cm^3
# Si number density = 21.785791 Si / 1000 Ang^3
#
#
#
# Elastic Constant Matrix: (Units=GPa)
#
#
# Indices 1 2 3 4 5 6 
#
# 1 157.2526 24.8793 33.7632 0.0000 -3.0030 0.0000
# 2 24.8793 198.2769 43.2559 0.0000 -1.5741 0.0000
# 3 33.7632 43.2559 81.6383 0.0000 -21.8890 0.0000
# 4 0.0000 0.0000 0.0000 39.6972 0.0000 0.9275
# 5 -3.0030 -1.5741 -21.8890 0.0000 51.6070 0.0000
# 6 0.0000 0.0000 0.0000 0.9275 0.0000 31.1626
#
#
#
# Elastic Compliance Matrix: (Units=1/GPa)
#
#
# Indices 1 2 3 4 5 6 
#
# 1 0.007027 -0.000230 -0.003020 0.000000 -0.000879 0.000000
# 2 -0.000230 0.005782 -0.003300 0.000000 -0.001237 0.000000
# 3 -0.003020 -0.003300 0.017120 0.000000 0.006985 0.000000
# 4 0.000000 0.000000 0.000000 0.025208 0.000000 -0.000750
# 5 -0.000879 -0.001237 0.006985 0.000000 0.022251 0.000000
# 6 0.000000 0.000000 0.000000 -0.000750 0.000000 0.032112
#
#
# Mechanical properties :
#
#
# Convention : Reuss Voigt Hill
#
# Bulk Modulus (GPa) = 59.42280 71.21830 65.32055
# Shear Modulus (GPa) = 38.99820 46.84465 42.92142
#
# Velocity S-wave (km/s) = 4.23552 4.64210 4.44346
# Velocity P-wave (km/s) = 7.15923 7.84177 7.50826
#
# Compressibility (1/GPa) = 0.01682856
#
# Stress axis : x y z
#
# Youngs Moduli (GPa) = 142.30367 172.93585 58.41219
#
# Poissons Ratio (x) = 0.03975 0.17641
# Poissons Ratio (y) = 0.03271 0.19278
# Poissons Ratio (z) = 0.42978 0.57076
#
# Static dielectric constant tensor:
#      x y z
#    x 1.802080 0.000000 -0.043300 
#    y 0.000000 1.904100 0.000000 
#    z -0.043300 0.000000 1.826270 
# 
# From -- ./inp_files/32650.got.cif
#   From: 2010.05.17/outbox.cif.g08.bks.cpg/sg15_17_cif.got.tgz:32650.got - 2010.06.03 18:47:42.
