data_PCOD9273772
_publ_section_title
;
Structure prediction by ZEFSAII (Michael W. Deem and Ramdas Pophale) SiO2 
 PCOD9273772
Probable space group: C 2/C
;
_chemical_formula_sum "Si O2"
_cell_formula_units_Z 40
_cell_length_a 8.553103
_cell_length_b 25.395272
_cell_length_c 15.870552
_cell_angle_alpha 90.000000
_cell_angle_beta 33.894159
_cell_angle_gamma 90.000000
_cell_volume 1922.376637
_symmetry_space_group_name_H-M "C 2/C"
_symmetry_group_IT_number 15
_symmetry_cell_setting 'monoclinic'
loop_
_space_group_symop_operation_xyz
x,y,z
-x,y,1/2-z
-x,-y,-z
x,-y,1/2+z
1/2+x,1/2+y,z
1/2-x,1/2+y,1/2-z
1/2-x,1/2-y,-z
1/2+x,1/2-y,1/2+z
loop_
_atom_site_type_symbol
_atom_site_label
_atom_site_fract_x
_atom_site_fract_y
_atom_site_fract_z
Si Si1 0.830002 0.552967 0.089934
Si Si2 0.100032 0.378673 0.616753
Si Si3 0.731156 0.338930 0.569018
Si Si4 0.196740 0.832924 0.391465
Si Si5 0.036534 0.274549 0.902385
O O1 0.500000 0.540773 0.250000
O O2 0.821730 0.600030 0.024679
O O3 0.986896 0.582435 0.096475
O O4 0.000000 0.500000 0.000000
O O5 0.430823 0.364809 0.473460
O O6 0.937236 0.323421 0.673178
O O7 0.000000 0.400496 0.750000
O O8 0.500000 0.334959 0.750000
O O9 0.647628 0.322239 0.513032
O O10 0.970704 0.302451 0.502626
O O11 0.500000 0.859984 0.250000
O O12 0.225449 0.777132 0.329223
O O13 0.750000 0.250000 0.000000
#
# Coordination Sequence:
#
# PCOD9273772 Si02
#       5
#     8   8   8   8   8
#     4  10  22  41  64  88 113 152 201 256 313 370
#     4  10  21  41  63  86 120 165 206 241 301 383
#     4  10  20  38  59  81 118 167 205 240 299 373
#     4  11  22  35  57  94 127 157 203 260 300 339
#     4   9  19  33  54  85 122 163 202 243 290 353
#
# _framework density 20.807577999999999
#
# number of rings (size 3 to 8) (size 9 to 14) (size 15 to 20)
#    0.000    2.000    0.000    4.800    0.000    5.600 
#    0.000   14.000    0.000    0.000    0.000    0.000 
#    0.000    0.000    0.000    0.000    0.000    0.000 
#
# Total GULP energy -111342.489695 kJ/mol
# GULP energy per Si atom -5567.124485 kJ/mol
# Density = 2.076022 g / cm^3
# Si number density = 20.807578 Si / 1000 Ang^3
#
#
#
# Elastic Constant Matrix: (Units=GPa)
#
#
# Indices 1 2 3 4 5 6 
#
# 1 128.9808 33.1060 54.3987 0.0000 -24.0663 0.0000
# 2 33.1060 114.7668 36.2418 0.0000 -13.6040 0.0000
# 3 54.3987 36.2418 99.9931 0.0000 -32.7909 0.0000
# 4 0.0000 0.0000 0.0000 11.3134 0.0000 -12.7216
# 5 -24.0663 -13.6040 -32.7909 0.0000 44.6989 0.0000
# 6 0.0000 0.0000 0.0000 -12.7216 0.0000 25.1292
#
#
#
# Elastic Compliance Matrix: (Units=1/GPa)
#
#
# Indices 1 2 3 4 5 6 
#
# 1 0.010356 -0.001333 -0.004550 0.000000 0.001832 0.000000
# 2 -0.001333 0.010020 -0.002820 0.000000 0.000263 0.000000
# 3 -0.004550 -0.002820 0.016345 0.000000 0.008683 0.000000
# 4 0.000000 0.000000 0.000000 0.205204 0.000000 0.103884
# 5 0.001832 0.000263 0.008683 0.000000 0.029808 0.000000
# 6 0.000000 0.000000 0.000000 0.103884 0.000000 0.092385
#
#
# Mechanical properties :
#
#
# Convention : Reuss Voigt Hill
#
# Bulk Modulus (GPa) = 51.77378 65.69262 58.73320
# Shear Modulus (GPa) = 12.88780 30.89458 21.89119
#
# Velocity S-wave (km/s) = 2.49144 3.85746 3.24709
# Velocity P-wave (km/s) = 5.76303 7.17496 6.50740
#
# Compressibility (1/GPa) = 0.01931480
#
# Stress axis : x y z
#
# Youngs Moduli (GPa) = 96.56085 99.80422 61.17919
#
# Poissons Ratio (x) = 0.13308 0.27836
# Poissons Ratio (y) = 0.12875 0.17252
# Poissons Ratio (z) = 0.43934 0.28144
#
# Static dielectric constant tensor:
#      x y z
#    x -0.654980 0.000000 0.966520 
#    y 0.000000 1.765760 0.000000 
#    z 0.966520 0.000000 1.411740 
# 
# From -- ./inp_files/193655.got.cif
#   From: 2010.05.17/outbox.cif.g08.bks.cpg/sg15_97_cif.got.tgz:193655.got - 2010.06.03 18:47:42.
