data_PCOD9273595
_publ_section_title
;
Structure prediction by ZEFSAII (Michael W. Deem and Ramdas Pophale) SiO2 
 PCOD9273595
Probable space group: C 2/C
;
_chemical_formula_sum "Si O2"
_cell_formula_units_Z 56
_cell_length_a 26.525820
_cell_length_b 10.941730
_cell_length_c 9.357243
_cell_angle_alpha 90.000000
_cell_angle_beta 122.274818
_cell_angle_gamma 90.000000
_cell_volume 2296.225775
_symmetry_space_group_name_H-M "C 2/C"
_symmetry_group_IT_number 15
_symmetry_cell_setting 'monoclinic'
loop_
_space_group_symop_operation_xyz
x,y,z
-x,y,1/2-z
-x,-y,-z
x,-y,1/2+z
1/2+x,1/2+y,z
1/2-x,1/2+y,1/2-z
1/2-x,1/2-y,-z
1/2+x,1/2-y,1/2+z
loop_
_atom_site_type_symbol
_atom_site_label
_atom_site_fract_x
_atom_site_fract_y
_atom_site_fract_z
Si Si1 0.213242 0.502492 0.094193
Si Si2 0.085230 0.294028 0.134991
Si Si3 0.798714 0.012712 0.978232
Si Si4 0.672468 0.758555 0.613718
Si Si5 0.921014 0.415000 0.874975
Si Si6 0.000000 0.684857 0.250000
Si Si7 0.000000 0.677299 0.750000
Si Si8 0.187488 0.755192 0.597413
O O1 0.236750 0.490934 0.292323
O O2 0.174329 0.622707 0.013430
O O3 0.179641 0.376962 0.011266
O O4 0.274046 0.521544 0.099795
O O5 0.094111 0.441767 0.143214
O O6 0.052212 0.258626 0.233513
O O7 0.149200 0.242858 0.184182
O O8 0.040747 0.254587 0.936471
O O9 0.827824 0.879891 0.006544
O O10 0.834856 0.127617 0.971789
O O11 0.626554 0.807860 0.660974
O O12 0.740872 0.755215 0.772964
O O13 0.952905 0.387624 0.774871
O O14 0.967105 0.396340 0.075729
#
# Coordination Sequence:
#
# PCOD9273595 Si02
#       8
#     8   8   8   8   8   4   4   8
#     4  10  20  38  54  85 118 163 198 244 291 364
#     4  11  20  38  61  90 122 156 201 259 306 359
#     4  10  22  36  56  81 126 157 200 236 295 370
#     4  10  22  39  61  92 126 164 202 249 312 369
#     4  11  20  38  61  90 122 156 201 259 306 359
#     4  10  23  38  62  91 118 155 210 261 308 347
#     4  10  23  38  62  91 118 155 210 261 308 347
#     4  10  22  39  61  92 126 164 202 249 312 369
#
# _framework density 24.387846
#
# number of rings (size 3 to 8) (size 9 to 14) (size 15 to 20)
#    0.000    1.714    1.429    4.286    0.000    9.143 
#    0.000    0.000    0.000    5.143    0.000    0.000 
#    0.000    0.000    0.000    0.000    0.000    0.000 
#
# Total GULP energy -156349.630091 kJ/mol
# GULP energy per Si atom -5583.915360 kJ/mol
# Density = 2.433234 g / cm^3
# Si number density = 24.387846 Si / 1000 Ang^3
#
#
#
# Elastic Constant Matrix: (Units=GPa)
#
#
# Indices 1 2 3 4 5 6 
#
# 1 180.3579 47.8067 21.7030 0.0000 -30.2617 0.0000
# 2 47.8067 165.8104 3.5906 0.0000 -14.7622 0.0000
# 3 21.7030 3.5906 89.4758 0.0000 -11.3037 0.0000
# 4 0.0000 0.0000 0.0000 15.1614 0.0000 -2.4214
# 5 -30.2617 -14.7622 -11.3037 0.0000 42.1579 0.0000
# 6 0.0000 0.0000 0.0000 -2.4214 0.0000 34.8682
#
#
#
# Elastic Compliance Matrix: (Units=1/GPa)
#
#
# Indices 1 2 3 4 5 6 
#
# 1 0.006763 -0.001569 -0.001070 0.000000 0.004019 0.000000
# 2 -0.001569 0.006589 0.000275 0.000000 0.001255 0.000000
# 3 -0.001070 0.000275 0.011737 0.000000 0.002475 0.000000
# 4 0.000000 0.000000 0.000000 0.066697 0.000000 0.004632
# 5 0.004019 0.001255 0.002475 0.000000 0.027708 0.000000
# 6 0.000000 0.000000 0.000000 0.004632 0.000000 0.029001
#
#
# Mechanical properties :
#
#
# Convention : Reuss Voigt Hill
#
# Bulk Modulus (GPa) = 49.11254 64.64940 56.88097
# Shear Modulus (GPa) = 31.24780 42.60711 36.92745
#
# Velocity S-wave (km/s) = 3.58339 4.18432 3.89546
# Velocity P-wave (km/s) = 6.10760 7.06478 6.60356
#
# Compressibility (1/GPa) = 0.02036140
#
# Stress axis : x y z
#
# Youngs Moduli (GPa) = 147.85327 151.76489 85.19774
#
# Poissons Ratio (x) = 0.23813 0.09115
# Poissons Ratio (y) = 0.23200 -0.02340
# Poissons Ratio (z) = 0.15819 -0.04169
#
# Static dielectric constant tensor:
#      x y z
#    x 1.981520 0.000000 0.055440 
#    y 0.000000 1.978640 0.000000 
#    z 0.055440 0.000000 2.032520 
# 
# From -- ./inp_files/65571.got.cif
#   From: 2010.05.17/outbox.cif.g08.bks.cpg/sg15_33_cif.got.tgz:65571.got - 2010.06.03 18:47:42.
