data_PCOD9273681
_publ_section_title
;
Structure prediction by ZEFSAII (Michael W. Deem and Ramdas Pophale) SiO2 
 PCOD9273681
Probable space group: C 2/C
;
_chemical_formula_sum "Si O2"
_cell_formula_units_Z 48
_cell_length_a 15.838149
_cell_length_b 31.894888
_cell_length_c 15.588266
_cell_angle_alpha 90.000000
_cell_angle_beta 161.673806
_cell_angle_gamma 90.000000
_cell_volume 2475.953127
_symmetry_space_group_name_H-M "C 2/C"
_symmetry_group_IT_number 15
_symmetry_cell_setting 'monoclinic'
loop_
_space_group_symop_operation_xyz
x,y,z
-x,y,1/2-z
-x,-y,-z
x,-y,1/2+z
1/2+x,1/2+y,z
1/2-x,1/2+y,1/2-z
1/2-x,1/2-y,-z
1/2+x,1/2-y,1/2+z
loop_
_atom_site_type_symbol
_atom_site_label
_atom_site_fract_x
_atom_site_fract_y
_atom_site_fract_z
Si Si1 0.112027 0.887923 0.702363
Si Si2 0.382325 0.158205 0.727792
Si Si3 0.750616 0.469691 0.746624
Si Si4 0.152117 0.222121 0.642457
Si Si5 0.402952 0.641860 0.813400
Si Si6 0.602610 0.904475 0.756461
O O1 0.201775 0.935724 0.775112
O O2 0.854958 0.876300 0.512484
O O3 0.003099 0.873760 0.503733
O O4 0.371517 0.861586 0.981050
O O5 0.500000 0.171375 0.750000
O O6 0.252226 0.196154 0.655931
O O7 0.500000 0.500000 0.500000
O O8 0.792677 0.442651 0.700650
O O9 0.000000 0.500000 0.000000
O O10 0.164105 0.190294 0.734399
O O11 0.851092 0.238785 0.343419
O O12 0.141318 0.617259 0.530107
O O13 0.656538 0.629143 0.000120
O O14 0.500000 0.918309 0.750000
#
# Coordination Sequence:
#
# PCOD9273681 Si02
#       6
#     8   8   8   8   8   8
#     4  10  20  38  58  79 109 156 201 227 270 341
#     4  11  22  37  56  82 117 154 196 238 277 330
#     4  11  21  37  60  85 116 149 185 232 285 341
#     4  11  21  35  58  85 113 148 190 236 286 340
#     4  10  20  38  61  82 110 150 193 230 274 342
#     4  11  22  39  63  88 113 146 193 239 278 329
#
# _framework density 19.386474
#
# number of rings (size 3 to 8) (size 9 to 14) (size 15 to 20)
#    0.000    1.333    0.000   11.000    0.000    0.667 
#    0.000    5.000    0.000   10.000    0.000    0.000 
#    0.000    0.000    0.000    0.000    0.000    0.000 
#
# Total GULP energy -133985.096078 kJ/mol
# GULP energy per Si atom -5582.712337 kJ/mol
# Density = 1.934235 g / cm^3
# Si number density = 19.386474 Si / 1000 Ang^3
#
#
#
# Elastic Constant Matrix: (Units=GPa)
#
#
# Indices 1 2 3 4 5 6 
#
# 1 84.8109 30.0235 14.3440 -0.0016 14.8716 0.0000
# 2 30.0235 87.0159 26.2830 -0.0073 4.0510 0.0028
# 3 14.3440 26.2830 114.1079 -0.0032 12.4008 0.0015
# 4 -0.0016 -0.0073 -0.0032 46.7463 0.0012 11.8010
# 5 14.8716 4.0510 12.4008 0.0012 31.2601 -0.0006
# 6 0.0000 0.0028 0.0015 11.8010 -0.0006 20.7897
#
#
#
# Elastic Compliance Matrix: (Units=1/GPa)
#
#
# Indices 1 2 3 4 5 6 
#
# 1 0.014576 -0.004717 -0.000061 0.000000 -0.006299 0.000001
# 2 -0.004717 0.013886 -0.002773 0.000003 0.001545 -0.000003
# 3 -0.000061 -0.002773 0.009790 0.000001 -0.003495 -0.000001
# 4 0.000000 0.000003 0.000001 0.024970 -0.000002 -0.014174
# 5 -0.006299 0.001545 -0.003495 -0.000002 0.036172 0.000002
# 6 0.000001 -0.000003 -0.000001 -0.014174 0.000002 0.056147
#
#
# Mechanical properties :
#
#
# Convention : Reuss Voigt Hill
#
# Bulk Modulus (GPa) = 43.20101 47.47064 45.33583
# Shear Modulus (GPa) = 28.03318 34.11149 31.07234
#
# Velocity S-wave (km/s) = 3.80678 4.19925 4.00782
# Velocity P-wave (km/s) = 6.45403 6.93190 6.69723
#
# Compressibility (1/GPa) = 0.02314761
#
# Stress axis : x y z
#
# Youngs Moduli (GPa) = 68.60715 72.01726 102.14576
#
# Poissons Ratio (x) = 0.33974 0.00625
# Poissons Ratio (y) = 0.32365 0.28327
# Poissons Ratio (z) = 0.00420 0.19972
#
# Static dielectric constant tensor:
#      x y z
#    x 1.715510 0.000000 0.022000 
#    y 0.000000 1.698630 -0.000010 
#    z 0.022000 -0.000010 1.669190 
# 
# From -- ./inp_files/157704.got.cif
#   From: 2010.05.17/outbox.cif.g08.bks.cpg/sg15_79_cif.got.tgz:157704.got - 2010.06.03 18:47:42.
