data_PCOD9273646
_publ_section_title
;
Structure prediction by ZEFSAII (Michael W. Deem and Ramdas Pophale) SiO2 
 PCOD9273646
Probable space group: C 2/C
;
_chemical_formula_sum "Si O2"
_cell_formula_units_Z 48
_cell_length_a 6.033385
_cell_length_b 29.843173
_cell_length_c 15.829648
_cell_angle_alpha 90.000000
_cell_angle_beta 120.290708
_cell_angle_gamma 90.000000
_cell_volume 2461.094270
_symmetry_space_group_name_H-M "C 2/C"
_symmetry_group_IT_number 15
_symmetry_cell_setting 'monoclinic'
loop_
_space_group_symop_operation_xyz
x,y,z
-x,y,1/2-z
-x,-y,-z
x,-y,1/2+z
1/2+x,1/2+y,z
1/2-x,1/2+y,1/2-z
1/2-x,1/2-y,-z
1/2+x,1/2-y,1/2+z
loop_
_atom_site_type_symbol
_atom_site_label
_atom_site_fract_x
_atom_site_fract_y
_atom_site_fract_z
Si Si1 0.390641 0.936098 0.029465
Si Si2 0.135460 0.003205 0.853847
Si Si3 0.207126 0.088232 0.664095
Si Si4 0.595569 0.285137 0.527216
Si Si5 0.257528 0.853828 0.431758
Si Si6 0.007188 0.280856 0.353957
O O1 0.601597 0.969270 0.112924
O O2 0.219666 0.912501 0.066042
O O3 0.558605 0.896741 0.021081
O O4 0.216614 0.967330 0.938430
O O5 0.000000 0.979274 0.750000
O O6 0.928002 0.041407 0.837744
O O7 0.500000 0.093438 0.750000
O O8 0.015628 0.127398 0.653121
O O9 0.750000 0.250000 0.500000
O O10 0.717977 0.330793 0.515471
O O11 0.302492 0.284874 0.439329
O O12 0.596423 0.265786 0.623073
O O13 0.365132 0.820236 0.380211
O O14 0.000000 0.282843 0.250000
#
# Coordination Sequence:
#
# PCOD9273646 Si02
#       6
#     8   8   8   8   8   8
#     4  10  21  35  57  84 116 162 200 250 309 356
#     4  10  20  38  57  80 117 157 206 250 300 367
#     4  11  21  35  57  87 121 155 198 256 308 358
#     4   9  20  38  60  86 121 155 195 245 300 371
#     4  10  22  36  56  89 125 154 200 255 310 362
#     4  10  21  39  63  89 120 160 197 247 308 371
#
# _framework density 19.503520000000002
#
# number of rings (size 3 to 8) (size 9 to 14) (size 15 to 20)
#    0.000    2.000    1.667    1.500    0.000    6.667 
#    0.000    0.000    0.000   24.000    0.000    0.000 
#    0.000    0.000    0.000    0.000    0.000    0.000 
#
# Total GULP energy -133735.245653 kJ/mol
# GULP energy per Si atom -5572.301902 kJ/mol
# Density = 1.945913 g / cm^3
# Si number density = 19.503520 Si / 1000 Ang^3
#
#
#
# Elastic Constant Matrix: (Units=GPa)
#
#
# Indices 1 2 3 4 5 6 
#
# 1 112.3321 39.5445 51.9339 0.0000 5.5001 0.0000
# 2 39.5445 79.7148 57.4414 0.0000 -0.2617 0.0000
# 3 51.9339 57.4414 87.5933 0.0000 8.3271 0.0000
# 4 0.0000 0.0000 0.0000 9.0371 0.0000 3.3353
# 5 5.5001 -0.2617 8.3271 0.0000 31.1364 0.0000
# 6 0.0000 0.0000 0.0000 3.3353 0.0000 3.6124
#
#
#
# Elastic Compliance Matrix: (Units=1/GPa)
#
#
# Indices 1 2 3 4 5 6 
#
# 1 0.012381 -0.001691 -0.006180 0.000000 -0.000549 0.000000
# 2 -0.001691 0.024641 -0.015601 0.000000 0.004678 0.000000
# 3 -0.006180 -0.015601 0.025878 0.000000 -0.005960 0.000000
# 4 0.000000 0.000000 0.000000 0.167853 0.000000 -0.154977
# 5 -0.000549 0.004678 -0.005960 0.000000 0.033847 0.000000
# 6 0.000000 0.000000 0.000000 -0.154977 0.000000 0.419916
#
#
# Mechanical properties :
#
#
# Convention : Reuss Voigt Hill
#
# Bulk Modulus (GPa) = 62.67057 64.16443 63.41750
# Shear Modulus (GPa) = 6.78631 17.47186 12.12908
#
# Velocity S-wave (km/s) = 1.86737 2.99629 2.49648
# Velocity P-wave (km/s) = 6.07060 6.70378 6.39503
#
# Compressibility (1/GPa) = 0.01595645
#
# Stress axis : x y z
#
# Youngs Moduli (GPa) = 80.76636 40.58325 38.64282
#
# Poissons Ratio (x) = 0.06861 0.23882
# Poissons Ratio (y) = 0.13654 0.60287
# Poissons Ratio (z) = 0.49915 0.63314
#
# Static dielectric constant tensor:
#      x y z
#    x 1.736630 0.000000 -0.035530 
#    y 0.000000 1.737160 0.000000 
#    z -0.035530 0.000000 1.693990 
# 
# From -- ./inp_files/130308.got.cif
#   From: 2010.05.17/outbox.cif.g08.bks.cpg/sg15_66_cif.got.tgz:130308.got - 2010.06.03 18:47:42.
