data_PCOD9273056
_publ_section_title
;
Structure prediction by ZEFSAII (Michael W. Deem and Ramdas Pophale) SiO2 
 PCOD9273056
Probable space group: C 2/C
;
_chemical_formula_sum "Si O2"
_cell_formula_units_Z 48
_cell_length_a 29.542055
_cell_length_b 15.928058
_cell_length_c 14.324882
_cell_angle_alpha 90.000000
_cell_angle_beta 22.776573
_cell_angle_gamma 90.000000
_cell_volume 2609.522744
_symmetry_space_group_name_H-M "C 2/C"
_symmetry_group_IT_number 15
_symmetry_cell_setting 'monoclinic'
loop_
_space_group_symop_operation_xyz
x,y,z
-x,y,1/2-z
-x,-y,-z
x,-y,1/2+z
1/2+x,1/2+y,z
1/2-x,1/2+y,1/2-z
1/2-x,1/2-y,-z
1/2+x,1/2-y,1/2+z
loop_
_atom_site_type_symbol
_atom_site_label
_atom_site_fract_x
_atom_site_fract_y
_atom_site_fract_z
Si Si1 0.141757 0.196585 0.746466
Si Si2 0.525625 0.601235 0.809624
Si Si3 0.451123 0.835528 0.447485
Si Si4 0.608375 0.062020 0.774473
Si Si5 0.195526 0.984390 0.229591
Si Si6 0.235521 0.510205 0.192659
O O1 0.250000 0.250000 0.500000
O O2 0.053510 0.176783 0.828126
O O3 0.172255 0.105234 0.728155
O O4 0.098083 0.249985 0.917437
O O5 0.500000 0.626410 0.750000
O O6 0.643253 0.544693 0.580489
O O7 0.418497 0.544429 0.050291
O O8 0.500000 0.829731 0.250000
O O9 0.551234 0.859589 0.332034
O O10 0.353317 0.909913 0.634922
O O11 0.699943 0.024637 0.527481
O O12 0.678222 0.062267 0.738544
O O13 0.500000 0.000000 0.000000
O O14 0.237844 0.977691 0.255378
#
# Coordination Sequence:
#
# PCOD9273056 Si02
#       6
#     8   8   8   8   8   8
#     4  12  23  42  64  95 128 167 206 262 325 372
#     4  10  22  41  69  91 124 168 214 259 310 381
#     4  11  22  39  62  90 133 159 203 266 324 367
#     4  10  20  37  62  90 119 166 207 252 306 379
#     4  11  22  40  70  89 122 165 217 254 301 394
#     4  10  20  40  66  92 118 167 212 256 310 374
#
# _framework density 18.394168000000001
#
# number of rings (size 3 to 8) (size 9 to 14) (size 15 to 20)
#    0.000    1.333    5.000    1.500    0.000    2.000 
#    3.000    0.833    0.000    0.000    0.000    0.000 
#    0.000    0.000    0.000    0.000    0.000    0.000 
#
# Total GULP energy -133839.518559 kJ/mol
# GULP energy per Si atom -5576.646607 kJ/mol
# Density = 1.835230 g / cm^3
# Si number density = 18.394168 Si / 1000 Ang^3
#
#
#
# Elastic Constant Matrix: (Units=GPa)
#
#
# Indices 1 2 3 4 5 6 
#
# 1 114.9599 14.4795 29.9013 0.0000 -10.3252 0.0000
# 2 14.4795 34.2508 13.9111 0.0000 2.0741 0.0000
# 3 29.9013 13.9111 119.1981 0.0000 12.1743 0.0000
# 4 0.0000 0.0000 0.0000 11.3113 0.0000 2.2121
# 5 -10.3252 2.0741 12.1743 0.0000 27.9412 0.0000
# 6 0.0000 0.0000 0.0000 2.2121 0.0000 25.7377
#
#
#
# Elastic Compliance Matrix: (Units=1/GPa)
#
#
# Indices 1 2 3 4 5 6 
#
# 1 0.010328 -0.003584 -0.002710 0.000000 0.005263 0.000000
# 2 -0.003584 0.031908 -0.002562 0.000000 -0.002577 0.000000
# 3 -0.002710 -0.002562 0.009891 0.000000 -0.005121 0.000000
# 4 0.000000 0.000000 0.000000 0.089919 0.000000 -0.007728
# 5 0.005263 -0.002577 -0.005121 0.000000 0.040157 0.000000
# 6 0.000000 0.000000 0.000000 -0.007728 0.000000 0.039518
#
#
# Mechanical properties :
#
#
# Convention : Reuss Voigt Hill
#
# Bulk Modulus (GPa) = 29.05660 42.77694 35.91677
# Shear Modulus (GPa) = 19.92798 27.00583 23.46691
#
# Velocity S-wave (km/s) = 3.29505 3.83583 3.57568
# Velocity P-wave (km/s) = 5.50522 6.55167 6.05111
#
# Compressibility (1/GPa) = 0.03441559
#
# Stress axis : x y z
#
# Youngs Moduli (GPa) = 96.82680 31.34009 101.10003
#
# Poissons Ratio (x) = 0.11233 0.27398
# Poissons Ratio (y) = 0.34703 0.25897
# Poissons Ratio (z) = 0.26240 0.08028
#
# Static dielectric constant tensor:
#      x y z
#    x 1.680350 0.000000 -0.021630 
#    y 0.000000 1.590720 0.000000 
#    z -0.021630 0.000000 1.644920 
# 
# From -- ./inp_files/143758.got.cif
#   From: 2010.05.17/outbox.cif.g08.bks.cpg/sg15_72_cif.got.tgz:143758.got - 2010.06.03 18:47:42.
