data_PCOD9273363
_publ_section_title
;
Structure prediction by ZEFSAII (Michael W. Deem and Ramdas Pophale) SiO2 
 PCOD9273363
Probable space group: C 2/C
;
_chemical_formula_sum "Si O2"
_cell_formula_units_Z 32
_cell_length_a 12.338038
_cell_length_b 8.479764
_cell_length_c 26.254584
_cell_angle_alpha 90.000000
_cell_angle_beta 150.819944
_cell_angle_gamma 90.000000
_cell_volume 1339.242786
_symmetry_space_group_name_H-M "C 2/C"
_symmetry_group_IT_number 15
_symmetry_cell_setting 'monoclinic'
loop_
_space_group_symop_operation_xyz
x,y,z
-x,y,1/2-z
-x,-y,-z
x,-y,1/2+z
1/2+x,1/2+y,z
1/2-x,1/2+y,1/2-z
1/2-x,1/2-y,-z
1/2+x,1/2-y,1/2+z
loop_
_atom_site_type_symbol
_atom_site_label
_atom_site_fract_x
_atom_site_fract_y
_atom_site_fract_z
Si Si1 0.169430 0.722762 0.595287
Si Si2 0.203447 0.140127 0.367569
Si Si3 0.464864 0.765479 0.622648
Si Si4 0.371462 0.576479 0.318313
O O1 0.228839 0.536056 0.623936
O O2 0.364419 0.780365 0.638133
O O3 0.932588 0.732953 0.468717
O O4 0.150012 0.820100 0.639428
O O5 0.352026 0.100697 0.306342
O O6 0.000000 0.202983 0.250000
O O7 0.090957 0.124714 0.376997
O O8 0.250000 0.750000 0.500000
O O9 0.601215 0.608881 0.665284
#
# Coordination Sequence:
#
# PCOD9273363 Si02
#       4
#     8   8   8   8
#     4  10  21  39  63  95 136 178 226 284 340 404
#     4  10  20  37  64  96 130 177 231 279 338 406
#     4  11  25  44  67 100 140 181 231 287 344 411
#     4  11  23  42  69  97 136 183 228 284 348 408
#
# _framework density 23.894100999999999
#
# number of rings (size 3 to 8) (size 9 to 14) (size 15 to 20)
#    0.000    1.500    0.000    6.000    0.000    7.000 
#    0.000    5.000    0.000    0.000    0.000    0.000 
#    0.000    0.000    0.000    0.000    0.000    0.000 
#
# Total GULP energy -89468.436932 kJ/mol
# GULP energy per Si atom -5591.777308 kJ/mol
# Density = 2.383972 g / cm^3
# Si number density = 23.894101 Si / 1000 Ang^3
#
#
#
# Elastic Constant Matrix: (Units=GPa)
#
#
# Indices 1 2 3 4 5 6 
#
# 1 154.8775 63.3714 54.5285 0.0000 -18.2647 0.0000
# 2 63.3714 57.0755 59.5976 0.0000 4.9944 0.0000
# 3 54.5285 59.5976 147.8438 0.0001 38.6549 0.0001
# 4 0.0000 0.0000 0.0001 27.1427 0.0001 -7.7142
# 5 -18.2647 4.9944 38.6549 0.0001 58.9171 0.0000
# 6 0.0000 0.0000 0.0001 -7.7142 0.0000 41.8626
#
#
#
# Elastic Compliance Matrix: (Units=1/GPa)
#
#
# Indices 1 2 3 4 5 6 
#
# 1 0.013376 -0.014933 -0.000397 0.000000 0.005673 0.000000
# 2 -0.014933 0.049188 -0.014509 0.000000 0.000720 0.000000
# 3 -0.000397 -0.014509 0.015051 0.000000 -0.008768 0.000000
# 4 0.000000 0.000000 0.000000 0.038878 0.000000 0.007164
# 5 0.005673 0.000720 -0.008768 0.000000 0.024423 0.000000
# 6 0.000000 0.000000 0.000000 0.007164 0.000000 0.025208
#
#
# Mechanical properties :
#
#
# Convention : Reuss Voigt Hill
#
# Bulk Modulus (GPa) = 55.74870 79.42134 67.58502
# Shear Modulus (GPa) = 21.57210 37.73778 29.65494
#
# Velocity S-wave (km/s) = 3.00796 3.97845 3.52675
# Velocity P-wave (km/s) = 5.95365 7.37666 6.70303
#
# Compressibility (1/GPa) = 0.01793764
#
# Stress axis : x y z
#
# Youngs Moduli (GPa) = 74.76303 20.33013 66.43936
#
# Poissons Ratio (x) = 0.30360 0.02635
# Poissons Ratio (y) = 1.11646 0.96395
# Poissons Ratio (z) = 0.02965 0.29497
#
# Static dielectric constant tensor:
#      x y z
#    x 1.887260 0.000000 -0.071840 
#    y 0.000000 1.981110 0.000000 
#    z -0.071840 0.000000 2.041120 
# 
# From -- ./inp_files/84295.got.cif
#   From: 2010.05.17/outbox.cif.g08.bks.cpg/sg15_43_cif.got.tgz:84295.got - 2010.06.03 18:47:42.
