data_PCOD9273213
_publ_section_title
;
Structure prediction by ZEFSAII (Michael W. Deem and Ramdas Pophale) SiO2 
 PCOD9273213
Probable space group: C 2/C
;
_chemical_formula_sum "Si O2"
_cell_formula_units_Z 52
_cell_length_a 7.875797
_cell_length_b 13.364852
_cell_length_c 32.546022
_cell_angle_alpha 90.000000
_cell_angle_beta 37.863063
_cell_angle_gamma 90.000000
_cell_volume 2102.648834
_symmetry_space_group_name_H-M "C 2/C"
_symmetry_group_IT_number 15
_symmetry_cell_setting 'monoclinic'
loop_
_space_group_symop_operation_xyz
x,y,z
-x,y,1/2-z
-x,-y,-z
x,-y,1/2+z
1/2+x,1/2+y,z
1/2-x,1/2+y,1/2-z
1/2-x,1/2-y,-z
1/2+x,1/2-y,1/2+z
loop_
_atom_site_type_symbol
_atom_site_label
_atom_site_fract_x
_atom_site_fract_y
_atom_site_fract_z
Si Si1 0.960521 0.872049 0.897881
Si Si2 0.900464 0.655061 0.450745
Si Si3 0.733519 0.253067 0.322819
Si Si4 0.000000 0.975822 0.250000
Si Si5 0.811866 0.428989 0.468840
Si Si6 0.002120 0.326342 0.143991
Si Si7 0.033625 0.049885 0.653567
O O1 0.673750 0.861866 0.926709
O O2 0.124385 0.774868 0.851838
O O3 0.079649 0.977881 0.860477
O O4 0.873605 0.876999 0.961484
O O5 0.750000 0.750000 0.500000
O O6 0.754213 0.547360 0.478284
O O7 0.998661 0.680104 0.385358
O O8 0.619193 0.343815 0.317286
O O9 0.000000 0.204742 0.250000
O O10 0.844438 0.301915 0.343569
O O11 0.728694 0.907443 0.303878
O O12 0.999010 0.012404 0.297679
O O13 0.797846 0.370736 0.428919
O O14 0.142616 0.425162 0.416517
#
# Coordination Sequence:
#
# PCOD9273213 Si02
#       7
#     8   8   8   4   8   8   8
#     4  10  20  38  61  90 120 158 200 249 304 360
#     4  10  20  37  63  92 120 160 211 246 299 366
#     4  11  21  39  59  89 125 158 200 259 310 359
#     4  10  20  40  56  82 116 158 204 244 298 368
#     4  10  20  39  64  90 119 159 203 246 301 363
#     4  10  22  39  57  90 119 158 200 248 300 365
#     4  10  20  38  62  83 119 158 198 246 303 361
#
# _framework density 24.730710999999999
#
# number of rings (size 3 to 8) (size 9 to 14) (size 15 to 20)
#    0.000    1.846    1.538    4.154    0.000    0.000 
#   23.538   11.538    0.000    0.000    0.000    0.000 
#    0.000    0.000    0.000    0.000    0.000    0.000 
#
# Total GULP energy -145363.981986 kJ/mol
# GULP energy per Si atom -5590.922384 kJ/mol
# Density = 2.467442 g / cm^3
# Si number density = 24.730711 Si / 1000 Ang^3
#
#
#
# Elastic Constant Matrix: (Units=GPa)
#
#
# Indices 1 2 3 4 5 6 
#
# 1 32.6442 7.4163 17.2824 -0.0149 17.0754 0.0239
# 2 7.4163 49.1335 -2.4642 -0.0021 4.0097 0.0045
# 3 17.2824 -2.4642 104.2264 0.0024 30.2734 -0.0082
# 4 -0.0149 -0.0021 0.0024 29.6890 0.0062 26.6381
# 5 17.0754 4.0097 30.2734 0.0062 35.8112 -0.0086
# 6 0.0239 0.0045 -0.0082 26.6381 -0.0086 11.0437
#
#
#
# Elastic Compliance Matrix: (Units=1/GPa)
#
#
# Indices 1 2 3 4 5 6 
#
# 1 0.042155 -0.004994 -0.001898 -0.000102 -0.017936 0.000141
# 2 -0.004994 0.021318 0.001768 0.000002 -0.001500 -0.000004
# 3 -0.001898 0.001768 0.012917 0.000004 -0.010213 -0.000004
# 4 -0.000102 0.000002 0.000004 -0.028931 0.000067 0.069785
# 5 -0.017936 -0.001500 -0.010213 0.000067 0.045278 -0.000094
# 6 0.000141 -0.000004 -0.000004 0.069785 -0.000094 -0.077777
#
#
# Mechanical properties :
#
#
# Convention : Reuss Voigt Hill
#
# Bulk Modulus (GPa) = 15.11939 25.60812 20.36376
# Shear Modulus (GPa) = 105.80794 26.22674 66.01734
#
# Velocity S-wave (km/s) = 6.54805 3.26005 5.17228
# Velocity P-wave (km/s) = 7.95588 4.95458 6.62737
#
# Compressibility (1/GPa) = 0.06614022
#
# Stress axis : x y z
#
# Youngs Moduli (GPa) = 23.72208 46.90951 77.41473
#
# Poissons Ratio (x) = 0.23428 0.14696
# Poissons Ratio (y) = 0.11848 -0.13686
# Poissons Ratio (z) = 0.04503 -0.08293
#
# Static dielectric constant tensor:
#      x y z
#    x 2.067340 -0.000010 -0.048580 
#    y -0.000010 2.075600 0.000020 
#    z -0.048580 0.000020 1.991920 
# 
# From -- ./inp_files/308196.got.cif
#   From: 2010.05.17/outbox.cif.g08.bks.cpg/sg15_155_cif.got.tgz:308196.got - 2010.06.03 18:47:42.
