data_PCOD9273317
_publ_section_title
;
Structure prediction by ZEFSAII (Michael W. Deem and Ramdas Pophale) SiO2 
 PCOD9273317
Probable space group: C 2/C
;
_chemical_formula_sum "Si O2"
_cell_formula_units_Z 28
_cell_length_a 20.514853
_cell_length_b 15.007262
_cell_length_c 7.953301
_cell_angle_alpha 90.000000
_cell_angle_beta 146.492786
_cell_angle_gamma 90.000000
_cell_volume 1351.728259
_symmetry_space_group_name_H-M "C 2/C"
_symmetry_group_IT_number 15
_symmetry_cell_setting 'monoclinic'
loop_
_space_group_symop_operation_xyz
x,y,z
-x,y,1/2-z
-x,-y,-z
x,-y,1/2+z
1/2+x,1/2+y,z
1/2-x,1/2+y,1/2-z
1/2-x,1/2-y,-z
1/2+x,1/2-y,1/2+z
loop_
_atom_site_type_symbol
_atom_site_label
_atom_site_fract_x
_atom_site_fract_y
_atom_site_fract_z
Si Si1 0.192225 0.080460 0.708393
Si Si2 0.406132 0.209108 0.197253
Si Si3 0.000000 0.786524 0.750000
Si Si4 0.374737 0.595911 0.572600
O O1 0.116079 0.071529 0.713414
O O2 0.109507 0.149549 0.428586
O O3 0.208299 0.981124 0.676620
O O4 0.314166 0.129190 0.008272
O O5 0.500000 0.192699 0.250000
O O6 0.460950 0.231284 0.499500
O O7 0.338763 0.300541 0.996199
O O8 0.500000 0.590964 0.750000
#
# Coordination Sequence:
#
# PCOD9273317 Si02
#       4
#     8   8   4   8
#     4  11  22  39  63  97 122 156 210 257 305 365
#     4  10  24  42  64  90 126 166 207 247 308 370
#     4  10  20  38  66  92 122 158 206 260 306 354
#     4  10  20  37  64  92 120 156 204 260 303 355
#
# _framework density 20.714220999999998
#
# number of rings (size 3 to 8) (size 9 to 14) (size 15 to 20)
#    0.000    1.714    1.429    4.286    8.000    1.143 
#    5.143    1.429    3.143    0.000    0.000    0.000 
#    0.000    0.000    0.000    0.000    0.000    0.000 
#
# Total GULP energy -78039.758211 kJ/mol
# GULP energy per Si atom -5574.268444 kJ/mol
# Density = 2.066707 g / cm^3
# Si number density = 20.714221 Si / 1000 Ang^3
#
#
#
# Elastic Constant Matrix: (Units=GPa)
#
#
# Indices 1 2 3 4 5 6 
#
# 1 92.8806 46.9059 52.7690 0.0000 -8.2529 0.0000
# 2 46.9059 116.5688 49.7004 0.0000 -11.8909 0.0000
# 3 52.7690 49.7004 46.6290 0.0000 -2.3535 0.0000
# 4 0.0000 0.0000 0.0000 17.9628 0.0000 -2.7620
# 5 -8.2529 -11.8909 -2.3535 0.0000 10.7180 0.0000
# 6 0.0000 0.0000 0.0000 -2.7620 0.0000 10.3664
#
#
#
# Elastic Compliance Matrix: (Units=1/GPa)
#
#
# Indices 1 2 3 4 5 6 
#
# 1 0.037702 0.009742 -0.051612 0.000000 0.028506 0.000000
# 2 0.009742 0.020604 -0.031806 0.000000 0.023376 0.000000
# 3 -0.051612 -0.031806 0.111201 0.000000 -0.050611 0.000000
# 4 0.000000 0.000000 0.000000 0.058049 0.000000 0.015466
# 5 0.028506 0.023376 -0.050611 0.000000 0.130072 0.000000
# 6 0.000000 0.000000 0.000000 0.015466 0.000000 0.100587
#
#
# Mechanical properties :
#
#
# Convention : Reuss Voigt Hill
#
# Bulk Modulus (GPa) = 45.13648 61.64767 53.39208
# Shear Modulus (GPa) = 8.15726 14.92296 11.54011
#
# Velocity S-wave (km/s) = 1.98659 2.68698 2.36288
# Velocity P-wave (km/s) = 5.20571 6.28109 5.76852
#
# Compressibility (1/GPa) = 0.02215503
#
# Stress axis : x y z
#
# Youngs Moduli (GPa) = 26.52371 48.53434 8.99274
#
# Poissons Ratio (x) = -0.47283 0.46413
# Poissons Ratio (y) = -0.25840 0.28603
# Poissons Ratio (z) = 1.36894 1.54370
#
# Static dielectric constant tensor:
#      x y z
#    x 1.760740 0.000000 -0.032770 
#    y 0.000000 1.801390 0.000000 
#    z -0.032770 0.000000 1.759430 
# 
# From -- ./inp_files/27277.got.cif
#   From: 2010.05.17/outbox.cif.g08.bks.cpg/sg15_14_cif.got.tgz:27277.got - 2010.06.03 18:47:42.
