data_PCOD9273781
_publ_section_title
;
Structure prediction by ZEFSAII (Michael W. Deem and Ramdas Pophale) SiO2 
 PCOD9273781
Probable space group: C 2/C
;
_chemical_formula_sum "Si O2"
_cell_formula_units_Z 56
_cell_length_a 19.337028
_cell_length_b 7.665399
_cell_length_c 18.731368
_cell_angle_alpha 90.000000
_cell_angle_beta 115.986340
_cell_angle_gamma 90.000000
_cell_volume 2495.770574
_symmetry_space_group_name_H-M "C 2/C"
_symmetry_group_IT_number 15
_symmetry_cell_setting 'monoclinic'
loop_
_space_group_symop_operation_xyz
x,y,z
-x,y,1/2-z
-x,-y,-z
x,-y,1/2+z
1/2+x,1/2+y,z
1/2-x,1/2+y,1/2-z
1/2-x,1/2-y,-z
1/2+x,1/2-y,1/2+z
loop_
_atom_site_type_symbol
_atom_site_label
_atom_site_fract_x
_atom_site_fract_y
_atom_site_fract_z
Si Si1 0.990319 0.860427 0.326005
Si Si2 0.565899 0.829090 0.473276
Si Si3 0.128454 0.064980 0.985585
Si Si4 0.067731 0.460602 0.634646
Si Si5 0.230995 0.436516 0.526071
Si Si6 0.729901 0.151755 0.184746
Si Si7 0.851862 0.969534 0.847662
O O1 0.955182 0.666613 0.311810
O O2 0.929662 0.976912 0.342504
O O3 0.000000 0.924367 0.250000
O O4 0.069568 0.846686 0.405196
O O5 0.594970 0.633439 0.474902
O O6 0.551964 0.861253 0.551304
O O7 0.638437 0.952538 0.484385
O O8 0.489191 0.876963 0.395841
O O9 0.214000 0.064671 0.992185
O O10 0.131083 0.121742 0.069081
O O11 0.159194 0.471125 0.677535
O O12 0.250000 0.250000 0.500000
O O13 0.255472 0.420794 0.619639
O O14 0.694213 0.346307 0.159508
O O15 0.797381 0.140731 0.271826
#
# Coordination Sequence:
#
# PCOD9273781 Si02
#       7
#     8   8   8   8   8   8   8
#     4  11  23  40  57  85 123 149 183 240 297 344
#     4   9  17  35  64  82 107 147 196 231 278 335
#     4  11  20  38  62  85 113 150 198 237 283 341
#     4   9  19  38  58  82 114 152 183 236 288 336
#     4   9  16  35  59  82 110 146 189 238 279 325
#     4  10  20  38  59  83 117 151 190 236 286 334
#     4  11  22  39  56  84 116 155 192 238 283 338
#
# _framework density 22.437958999999999
#
# number of rings (size 3 to 8) (size 9 to 14) (size 15 to 20)
#    0.000    2.000    5.714    1.286    0.000    1.143 
#   10.286    1.429    0.000    0.000    0.000    0.000 
#    0.000    0.000    0.000    0.000    0.000    0.000 
#
# Total GULP energy -156437.405621 kJ/mol
# GULP energy per Si atom -5587.050201 kJ/mol
# Density = 2.238689 g / cm^3
# Si number density = 22.437959 Si / 1000 Ang^3
#
#
#
# Elastic Constant Matrix: (Units=GPa)
#
#
# Indices 1 2 3 4 5 6 
#
# 1 89.0275 8.9870 46.5746 0.0000 -19.1300 0.0000
# 2 8.9870 42.5240 7.4208 0.0000 2.4248 0.0000
# 3 46.5746 7.4208 127.3687 0.0000 -1.9532 0.0000
# 4 0.0000 0.0000 0.0000 25.7497 0.0000 9.6269
# 5 -19.1300 2.4248 -1.9532 0.0000 38.9971 0.0000
# 6 0.0000 0.0000 0.0000 9.6269 0.0000 11.1915
#
#
#
# Elastic Compliance Matrix: (Units=1/GPa)
#
#
# Indices 1 2 3 4 5 6 
#
# 1 0.016139 -0.002877 -0.005614 0.000000 0.007815 0.000000
# 2 -0.002877 0.024364 -0.000413 0.000000 -0.002947 0.000000
# 3 -0.005614 -0.000413 0.009894 0.000000 -0.002233 0.000000
# 4 0.000000 0.000000 0.000000 0.057246 0.000000 -0.049243
# 5 0.007815 -0.002947 -0.002233 0.000000 0.029548 0.000000
# 6 0.000000 0.000000 0.000000 -0.049243 0.000000 0.131712
#
#
# Mechanical properties :
#
#
# Convention : Reuss Voigt Hill
#
# Bulk Modulus (GPa) = 30.68426 42.76499 36.72463
# Shear Modulus (GPa) = 16.80256 28.25017 22.52637
#
# Velocity S-wave (km/s) = 2.73947 3.55214 3.17194
# Velocity P-wave (km/s) = 4.86941 5.99368 5.46055
#
# Compressibility (1/GPa) = 0.03259000
#
# Stress axis : x y z
#
# Youngs Moduli (GPa) = 61.96134 41.04389 101.07218
#
# Poissons Ratio (x) = 0.11807 0.56743
# Poissons Ratio (y) = 0.17825 0.04172
# Poissons Ratio (z) = 0.34786 0.01694
#
# Static dielectric constant tensor:
#      x y z
#    x 1.833880 0.000000 0.008380 
#    y 0.000000 1.919700 0.000000 
#    z 0.008380 0.000000 1.810620 
# 
# From -- ./inp_files/209528.got.cif
#   From: 2010.05.17/outbox.cif.g08.bks.cpg/sg15_105_cif.got.tgz:209528.got - 2010.06.03 18:47:42.
