data_PCOD9273712
_publ_section_title
;
Structure prediction by ZEFSAII (Michael W. Deem and Ramdas Pophale) SiO2 
 PCOD9273712
Probable space group: C 2/C
;
_chemical_formula_sum "Si O2"
_cell_formula_units_Z 60
_cell_length_a 20.432139
_cell_length_b 26.861202
_cell_length_c 7.961439
_cell_angle_alpha 90.000000
_cell_angle_beta 134.790675
_cell_angle_gamma 90.000000
_cell_volume 3100.964002
_symmetry_space_group_name_H-M "C 2/C"
_symmetry_group_IT_number 15
_symmetry_cell_setting 'monoclinic'
loop_
_space_group_symop_operation_xyz
x,y,z
-x,y,1/2-z
-x,-y,-z
x,-y,1/2+z
1/2+x,1/2+y,z
1/2-x,1/2+y,1/2-z
1/2-x,1/2-y,-z
1/2+x,1/2-y,1/2+z
loop_
_atom_site_type_symbol
_atom_site_label
_atom_site_fract_x
_atom_site_fract_y
_atom_site_fract_z
Si Si1 0.197968 0.182682 0.600964
Si Si2 0.630303 0.874021 0.259121
Si Si3 0.894042 0.082026 0.054228
Si Si4 0.324220 0.831057 0.624511
Si Si5 0.898389 0.720843 0.588616
Si Si6 0.500000 0.135799 0.250000
Si Si7 0.759330 0.955745 0.610112
Si Si8 0.731320 0.438602 0.490748
O O1 0.281628 0.153513 0.664063
O O2 0.117475 0.141789 0.454088
O O3 0.164844 0.234046 0.461300
O O4 0.240401 0.191297 0.863368
O O5 0.584134 0.828160 0.269835
O O6 0.674175 0.917725 0.444797
O O7 0.557471 0.893969 0.992646
O O8 0.834003 0.058758 0.099899
O O9 0.000000 0.066532 0.250000
O O10 0.849430 0.069348 0.792498
O O11 0.419679 0.832169 0.692614
O O12 0.293603 0.888729 0.599211
O O13 0.346759 0.801225 0.832717
O O14 0.000000 0.743113 0.750000
O O15 0.724194 0.010874 0.501379
O O16 0.797296 0.949728 0.868311
#
# Coordination Sequence:
#
# PCOD9273712 Si02
#       8
#     8   8   8   8   8   4   8   8
#     4   9  21  37  59  81 114 161 185 229 299 358
#     4  10  21  38  60  82 119 151 194 244 289 351
#     4  10  22  40  60  88 124 155 191 251 301 346
#     4  10  21  38  60  82 119 151 194 244 289 351
#     4  12  20  34  59  88 114 145 194 245 282 345
#     4  10  20  38  58  86 116 156 192 242 304 334
#     4  11  22  40  63  87 117 161 201 240 300 361
#     4  11  22  40  63  87 117 161 201 240 300 361
#
# _framework density 19.348822999999999
#
# number of rings (size 3 to 8) (size 9 to 14) (size 15 to 20)
#    0.000    1.600    4.000    2.000    0.000    1.067 
#    0.000    0.667    2.933    0.000    0.000    0.000 
#    0.000    0.000    0.000    0.000    0.000    0.000 
#
# Total GULP energy -167058.529490 kJ/mol
# GULP energy per Si atom -5568.617650 kJ/mol
# Density = 1.930478 g / cm^3
# Si number density = 19.348823 Si / 1000 Ang^3
#
#
#
# Elastic Constant Matrix: (Units=GPa)
#
#
# Indices 1 2 3 4 5 6 
#
# 1 48.9339 14.4899 28.5895 0.0000 -3.5707 0.0000
# 2 14.4899 97.8173 35.1013 0.0000 4.7718 0.0000
# 3 28.5895 35.1013 84.0642 0.0000 -7.6114 0.0000
# 4 0.0000 0.0000 0.0000 8.2245 0.0000 6.3326
# 5 -3.5707 4.7718 -7.6114 0.0000 30.9101 0.0000
# 6 0.0000 0.0000 0.0000 6.3326 0.0000 1.5735
#
#
#
# Elastic Compliance Matrix: (Units=1/GPa)
#
#
# Indices 1 2 3 4 5 6 
#
# 1 0.025588 -0.000887 -0.008235 0.000000 0.001065 0.000000
# 2 -0.000887 0.012366 -0.005159 0.000000 -0.003282 0.000000
# 3 -0.008235 -0.005159 0.017220 0.000000 0.004085 0.000000
# 4 0.000000 0.000000 0.000000 -0.057933 0.000000 0.233152
# 5 0.001065 -0.003282 0.004085 0.000000 0.033988 0.000000
# 6 0.000000 0.000000 0.000000 0.233152 0.000000 -0.302804
#
#
# Mechanical properties :
#
#
# Convention : Reuss Voigt Hill
#
# Bulk Modulus (GPa) = 37.57789 43.01964 40.29877
# Shear Modulus (GPa) = -21.35448 18.31727 -1.51860
#
# Velocity S-wave (km/s) = -3.32574 3.08017 -0.88688
# Velocity P-wave (km/s) = 2.17165 5.91032 4.45241
#
# Compressibility (1/GPa) = 0.02661139
#
# Stress axis : x y z
#
# Youngs Moduli (GPa) = 39.08145 80.86765 58.07058
#
# Poissons Ratio (x) = 0.07174 0.47823
# Poissons Ratio (y) = 0.03467 0.29958
# Poissons Ratio (z) = 0.32185 0.41718
#
# Static dielectric constant tensor:
#      x y z
#    x 1.735020 0.000000 -0.037990 
#    y 0.000000 1.683090 0.000000 
#    z -0.037990 0.000000 1.700820 
# 
# From -- ./inp_files/42225.got.cif
#   From: 2010.05.17/outbox.cif.g08.bks.cpg/sg15_22_cif.got.tgz:42225.got - 2010.06.03 18:47:42.
