data_PCOD9273155
_publ_section_title
;
Structure prediction by ZEFSAII (Michael W. Deem and Ramdas Pophale) SiO2 
 PCOD9273155
Probable space group: C 2/C
;
_chemical_formula_sum "Si O2"
_cell_formula_units_Z 48
_cell_length_a 9.343622
_cell_length_b 13.885492
_cell_length_c 23.799700
_cell_angle_alpha 90.000000
_cell_angle_beta 48.342704
_cell_angle_gamma 90.000000
_cell_volume 2306.993617
_symmetry_space_group_name_H-M "C 2/C"
_symmetry_group_IT_number 15
_symmetry_cell_setting 'monoclinic'
loop_
_space_group_symop_operation_xyz
x,y,z
-x,y,1/2-z
-x,-y,-z
x,-y,1/2+z
1/2+x,1/2+y,z
1/2-x,1/2+y,1/2-z
1/2-x,1/2-y,-z
1/2+x,1/2-y,1/2+z
loop_
_atom_site_type_symbol
_atom_site_label
_atom_site_fract_x
_atom_site_fract_y
_atom_site_fract_z
Si Si1 0.455605 0.302825 0.828376
Si Si2 0.823829 0.057304 0.519288
Si Si3 0.472831 0.902808 0.190372
Si Si4 0.033027 0.245166 0.976383
Si Si5 0.425185 0.493422 0.206884
Si Si6 0.806162 0.886119 0.444117
O O1 0.500000 0.306766 0.750000
O O2 0.559771 0.206332 0.822465
O O3 0.229106 0.288152 0.899054
O O4 0.531616 0.403243 0.832117
O O5 0.658332 0.061743 0.609188
O O6 0.897044 0.168243 0.494288
O O7 0.753945 0.988819 0.486937
O O8 0.000000 0.000000 0.500000
O O9 0.500000 0.896242 0.250000
O O10 0.296741 0.972585 0.229610
O O11 0.918592 0.180545 0.960092
O O12 0.880701 0.329343 0.029632
O O13 0.500000 0.493884 0.250000
O O14 0.538071 0.412410 0.143269
#
# Coordination Sequence:
#
# PCOD9273155 Si02
#       6
#     8   8   8   8   8   8
#     4   9  19  36  59  81 121 162 202 238 314 374
#     4   9  18  35  61  92 114 156 218 258 309 376
#     4  10  20  41  65  85 121 166 211 256 300 378
#     4   9  19  37  62  89 116 169 209 259 313 381
#     4  11  24  40  58  93 127 162 202 254 322 376
#     4  10  20  37  63  86 126 161 214 263 314 372
#
# _framework density 20.8063
#
# number of rings (size 3 to 8) (size 9 to 14) (size 15 to 20)
#    0.000    2.333    0.000    4.000    4.667    0.667 
#    6.000    2.500    0.000    0.000    0.000    0.000 
#    0.000    0.000    0.000    0.000    0.000    0.000 
#
# Total GULP energy -133850.361810 kJ/mol
# GULP energy per Si atom -5577.098409 kJ/mol
# Density = 2.075894 g / cm^3
# Si number density = 20.806300 Si / 1000 Ang^3
#
#
#
# Elastic Constant Matrix: (Units=GPa)
#
#
# Indices 1 2 3 4 5 6 
#
# 1 38.0280 37.6699 15.6182 0.0000 -14.1604 0.0000
# 2 37.6699 118.8661 50.3897 0.0000 -25.4990 0.0000
# 3 15.6182 50.3897 105.1406 0.0000 -22.3081 0.0002
# 4 0.0000 0.0000 0.0000 27.9981 0.0000 2.9032
# 5 -14.1604 -25.4990 -22.3081 0.0000 31.8585 0.0000
# 6 0.0000 0.0000 0.0002 2.9032 0.0000 23.0494
#
#
#
# Elastic Compliance Matrix: (Units=1/GPa)
#
#
# Indices 1 2 3 4 5 6 
#
# 1 0.040692 -0.011397 0.001550 0.000000 0.010050 0.000000
# 2 -0.011397 0.014735 -0.004629 0.000000 0.003487 0.000000
# 3 0.001550 -0.004629 0.012754 0.000000 0.005915 0.000000
# 4 0.000000 0.000000 0.000000 0.036189 0.000000 -0.004558
# 5 0.010050 0.003487 0.005915 0.000000 0.042788 0.000000
# 6 0.000000 0.000000 0.000000 -0.004558 0.000000 0.043959
#
#
# Mechanical properties :
#
#
# Convention : Reuss Voigt Hill
#
# Bulk Modulus (GPa) = 25.49155 52.15450 38.82303
# Shear Modulus (GPa) = 21.44584 27.13834 24.29209
#
# Velocity S-wave (km/s) = 3.21399 3.61547 3.42063
# Velocity P-wave (km/s) = 5.10406 6.52303 5.85668
#
# Compressibility (1/GPa) = 0.03922868
#
# Stress axis : x y z
#
# Youngs Moduli (GPa) = 24.57515 67.86631 78.40448
#
# Poissons Ratio (x) = 0.77345 -0.12151
# Poissons Ratio (y) = 0.28007 0.36295
# Poissons Ratio (z) = -0.03809 0.31416
#
# Static dielectric constant tensor:
#      x y z
#    x 1.738770 0.000000 0.026720 
#    y 0.000000 1.842520 0.000000 
#    z 0.026720 0.000000 1.703590 
# 
# From -- ./inp_files/288990.got.cif
#   From: 2010.05.17/outbox.cif.g08.bks.cpg/sg15_145_cif.got.tgz:288990.got - 2010.06.03 18:47:42.
