data_PCOD9273814
_publ_section_title
;
Structure prediction by ZEFSAII (Michael W. Deem and Ramdas Pophale) SiO2 
 PCOD9273814
Probable space group: C 2/C
;
_chemical_formula_sum "Si O2"
_cell_formula_units_Z 44
_cell_length_a 6.378000
_cell_length_b 18.334635
_cell_length_c 18.535571
_cell_angle_alpha 90.000000
_cell_angle_beta 131.020544
_cell_angle_gamma 90.000000
_cell_volume 1635.336766
_symmetry_space_group_name_H-M "C 2/C"
_symmetry_group_IT_number 15
_symmetry_cell_setting 'monoclinic'
loop_
_space_group_symop_operation_xyz
x,y,z
-x,y,1/2-z
-x,-y,-z
x,-y,1/2+z
1/2+x,1/2+y,z
1/2-x,1/2+y,1/2-z
1/2-x,1/2-y,-z
1/2+x,1/2-y,1/2+z
loop_
_atom_site_type_symbol
_atom_site_label
_atom_site_fract_x
_atom_site_fract_y
_atom_site_fract_z
Si Si1 0.751166 0.595605 0.979867
Si Si2 0.665052 0.796221 0.549429
Si Si3 0.500000 0.225511 0.750000
Si Si4 0.500000 0.008106 0.750000
Si Si5 0.220960 0.492744 0.156143
Si Si6 0.619548 0.384146 0.599250
Si Si7 0.500000 0.244575 0.250000
O O1 0.855012 0.676595 0.985917
O O2 0.982317 0.546990 0.074599
O O3 0.537550 0.604582 0.996988
O O4 0.697668 0.557723 0.892327
O O5 0.750000 0.750000 0.500000
O O6 0.788999 0.761587 0.647807
O O7 0.835679 0.870613 0.575717
O O8 0.237239 0.212254 0.755441
O O9 0.265695 0.953691 0.666873
O O10 0.399763 0.048190 0.799454
O O11 0.500000 0.530024 0.250000
O O12 0.820789 0.314318 0.659982
#
# Coordination Sequence:
#
# PCOD9273814 Si02
#       7
#     8   8   4   4   8   8   4
#     4  10  21  38  58  91 121 156 210 256 321 390
#     4  11  23  38  61  88 123 163 214 266 319 390
#     4  10  20  38  59  88 119 166 212 278 318 374
#     4   9  18  34  61  92 112 157 210 248 313 374
#     4  10  21  36  61  89 122 159 199 263 324 384
#     4   9  18  34  58  87 118 155 204 262 308 369
#     4   9  16  32  60  86 115 153 216 262 315 368
#
# _framework density 26.905771000000001
#
# number of rings (size 3 to 8) (size 9 to 14) (size 15 to 20)
#    0.000    2.182    1.818    1.091    3.818    2.182 
#    0.000    8.182    4.000    0.000    0.000    0.000 
#    0.000    0.000    0.000    0.000    0.000    0.000 
#
# Total GULP energy -122563.552410 kJ/mol
# GULP energy per Si atom -5571.070564 kJ/mol
# Density = 2.684453 g / cm^3
# Si number density = 26.905771 Si / 1000 Ang^3
#
#
#
# Elastic Constant Matrix: (Units=GPa)
#
#
# Indices 1 2 3 4 5 6 
#
# 1 123.1300 27.9993 67.4028 0.0000 -30.2376 0.0000
# 2 27.9993 75.7707 38.6820 0.0000 -8.9356 0.0000
# 3 67.4028 38.6820 122.7565 0.0000 -46.3898 0.0000
# 4 0.0000 0.0000 0.0000 20.9274 0.0000 -4.7103
# 5 -30.2376 -8.9356 -46.3898 0.0000 58.9164 0.0000
# 6 0.0000 0.0000 0.0000 -4.7103 0.0000 26.7017
#
#
#
# Elastic Compliance Matrix: (Units=1/GPa)
#
#
# Indices 1 2 3 4 5 6 
#
# 1 0.011807 -0.001394 -0.005457 0.000000 0.001551 0.000000
# 2 -0.001394 0.016088 -0.005199 0.000000 -0.002369 0.000000
# 3 -0.005457 -0.005199 0.016264 0.000000 0.009217 0.000000
# 4 0.000000 0.000000 0.000000 0.049760 0.000000 0.008778
# 5 0.001551 -0.002369 0.009217 0.000000 0.024667 0.000000
# 6 0.000000 0.000000 0.000000 0.008778 0.000000 0.038999
#
#
# Mechanical properties :
#
#
# Convention : Reuss Voigt Hill
#
# Bulk Modulus (GPa) = 49.85778 65.53615 57.69696
# Shear Modulus (GPa) = 26.54315 33.81396 30.17856
#
# Velocity S-wave (km/s) = 3.14430 3.54892 3.35272
# Velocity P-wave (km/s) = 5.63497 6.41901 6.03973
#
# Compressibility (1/GPa) = 0.02005705
#
# Stress axis : x y z
#
# Youngs Moduli (GPa) = 84.69643 62.15891 61.48481
#
# Poissons Ratio (x) = 0.08664 0.33555
# Poissons Ratio (y) = 0.11806 0.31969
# Poissons Ratio (z) = 0.46223 0.32320
#
# Static dielectric constant tensor:
#      x y z
#    x 2.311430 0.000000 0.063120 
#    y 0.000000 2.162770 0.000000 
#    z 0.063120 0.000000 2.097320 
# 
# From -- ./inp_files/129426.got.cif
#   From: 2010.05.17/outbox.cif.g08.bks.cpg/sg15_65_cif.got.tgz:129426.got - 2010.06.03 18:47:42.
