data_PCOD9273780
_publ_section_title
;
Structure prediction by ZEFSAII (Michael W. Deem and Ramdas Pophale) SiO2 
 PCOD9273780
Probable space group: C 2/C
;
_chemical_formula_sum "Si O2"
_cell_formula_units_Z 60
_cell_length_a 30.120058
_cell_length_b 11.637827
_cell_length_c 8.625701
_cell_angle_alpha 90.000000
_cell_angle_beta 80.348343
_cell_angle_gamma 90.000000
_cell_volume 2980.786442
_symmetry_space_group_name_H-M "C 2/C"
_symmetry_group_IT_number 15
_symmetry_cell_setting 'monoclinic'
loop_
_space_group_symop_operation_xyz
x,y,z
-x,y,1/2-z
-x,-y,-z
x,-y,1/2+z
1/2+x,1/2+y,z
1/2-x,1/2+y,1/2-z
1/2-x,1/2-y,-z
1/2+x,1/2-y,1/2+z
loop_
_atom_site_type_symbol
_atom_site_label
_atom_site_fract_x
_atom_site_fract_y
_atom_site_fract_z
Si Si1 0.196213 0.356300 0.685794
Si Si2 0.744845 0.960655 0.943484
Si Si3 0.954471 0.081494 0.216886
Si Si4 0.591516 0.143636 0.269509
Si Si5 0.700987 0.612775 0.803578
Si Si6 0.952368 0.513128 0.942775
Si Si7 0.404782 0.383935 0.065194
Si Si8 0.500000 0.208318 0.750000
O O1 0.222051 0.432087 0.545023
O O2 0.143103 0.361713 0.688269
O O3 0.208361 0.222844 0.690606
O O4 0.208877 0.403596 0.849771
O O5 0.766189 0.884306 0.067157
O O6 0.784856 0.003920 0.807844
O O7 0.923191 0.119008 0.379342
O O8 0.977146 0.200985 0.143563
O O9 0.000000 0.017973 0.250000
O O10 0.927020 0.998338 0.123614
O O11 0.584170 0.051469 0.411205
O O12 0.581672 0.269868 0.345094
O O13 0.560503 0.097608 0.148802
O O14 0.649337 0.609349 0.889416
O O15 0.961248 0.624020 0.830288
O O16 0.000000 0.500000 0.000000
#
# Coordination Sequence:
#
# PCOD9273780 Si02
#       8
#     8   8   8   8   8   8   8   4
#     4  10  21  37  59  85 115 149 190 235 284 340
#     4  10  20  38  59  83 115 151 188 230 290 341
#     4  10  22  38  59  79 119 151 192 236 284 334
#     4  11  23  38  60  87 118 150 194 241 285 340
#     4  10  21  36  60  84 116 148 189 237 281 342
#     4  12  22  40  60  85 117 154 193 236 288 340
#     4  11  22  39  58  89 115 152 194 238 287 339
#     4  10  22  38  58  80 114 154 194 236 276 338
#
# _framework density 20.128914999999999
#
# number of rings (size 3 to 8) (size 9 to 14) (size 15 to 20)
#    0.400    1.067    2.667    2.800    0.000    2.133 
#    0.000    0.000    2.933    0.000    0.000    0.000 
#    0.000    0.000    0.000    0.000    0.000    0.000 
#
# Total GULP energy -167270.085429 kJ/mol
# GULP energy per Si atom -5575.669514 kJ/mol
# Density = 2.008310 g / cm^3
# Si number density = 20.128915 Si / 1000 Ang^3
#
#
#
# Elastic Constant Matrix: (Units=GPa)
#
#
# Indices 1 2 3 4 5 6 
#
# 1 68.7589 20.7465 8.2912 0.0000 4.6175 0.0000
# 2 20.7465 60.1625 -1.3078 0.0000 8.1943 0.0000
# 3 8.2912 -1.3078 37.4722 0.0000 -3.6908 0.0000
# 4 0.0000 0.0000 0.0000 29.7306 0.0000 2.9572
# 5 4.6175 8.1943 -3.6908 0.0000 31.0236 0.0000
# 6 0.0000 0.0000 0.0000 2.9572 0.0000 31.1449
#
#
#
# Elastic Compliance Matrix: (Units=1/GPa)
#
#
# Indices 1 2 3 4 5 6 
#
# 1 0.016854 -0.005698 -0.004075 0.000000 -0.001488 0.000000
# 2 -0.005698 0.019169 0.001533 0.000000 -0.004033 0.000000
# 3 -0.004075 0.001533 0.027989 0.000000 0.003531 0.000000
# 4 0.000000 0.000000 0.000000 0.033956 0.000000 -0.003224
# 5 -0.001488 -0.004033 0.003531 0.000000 0.033940 0.000000
# 6 0.000000 0.000000 0.000000 -0.003224 0.000000 0.032414
#
#
# Mechanical properties :
#
#
# Convention : Reuss Voigt Hill
#
# Bulk Modulus (GPa) = 21.03817 24.65037 22.84427
# Shear Modulus (GPa) = 25.42625 27.62405 26.52515
#
# Velocity S-wave (km/s) = 3.55797 3.70855 3.63404
# Velocity P-wave (km/s) = 5.23003 5.53269 5.38349
#
# Compressibility (1/GPa) = 0.04753265
#
# Stress axis : x y z
#
# Youngs Moduli (GPa) = 59.33293 52.16737 35.72786
#
# Poissons Ratio (x) = 0.29724 0.14558
# Poissons Ratio (y) = 0.33807 -0.05475
# Poissons Ratio (z) = 0.24176 -0.07995
#
# Static dielectric constant tensor:
#      x y z
#    x 1.703590 0.000000 0.006860 
#    y 0.000000 1.729000 0.000000 
#    z 0.006860 0.000000 1.749810 
# 
# From -- ./inp_files/69078.got.cif
#   From: 2010.05.17/outbox.cif.g08.bks.cpg/sg15_35_cif.got.tgz:69078.got - 2010.06.03 18:47:42.
