data_PCOD9273782
_publ_section_title
;
Structure prediction by ZEFSAII (Michael W. Deem and Ramdas Pophale) SiO2 
 PCOD9273782
Probable space group: C 2/C
;
_chemical_formula_sum "Si O2"
_cell_formula_units_Z 44
_cell_length_a 22.891149
_cell_length_b 5.564122
_cell_length_c 21.697993
_cell_angle_alpha 90.000000
_cell_angle_beta 37.366231
_cell_angle_gamma 90.000000
_cell_volume 1677.282906
_symmetry_space_group_name_H-M "C 2/C"
_symmetry_group_IT_number 15
_symmetry_cell_setting 'monoclinic'
loop_
_space_group_symop_operation_xyz
x,y,z
-x,y,1/2-z
-x,-y,-z
x,-y,1/2+z
1/2+x,1/2+y,z
1/2-x,1/2+y,1/2-z
1/2-x,1/2-y,-z
1/2+x,1/2-y,1/2+z
loop_
_atom_site_type_symbol
_atom_site_label
_atom_site_fract_x
_atom_site_fract_y
_atom_site_fract_z
Si Si1 0.380575 0.658210 0.941203
Si Si2 0.043722 0.937183 0.375216
Si Si3 0.000000 0.810457 0.750000
Si Si4 0.258369 0.525175 0.781976
Si Si5 0.070539 0.324423 0.975468
Si Si6 0.307884 0.938963 0.409120
O O1 0.462954 0.743932 0.919292
O O2 0.443749 0.477208 0.845759
O O3 0.344585 0.860768 0.925797
O O4 0.283293 0.545509 0.052984
O O5 0.146006 0.939203 0.257130
O O6 0.986393 0.186043 0.424760
O O7 0.082496 0.879178 0.411517
O O8 0.090739 0.660046 0.702217
O O9 0.232996 0.777161 0.767584
O O10 0.171627 0.449367 0.899640
O O11 0.000000 0.500000 0.000000
O O12 0.250000 0.750000 0.500000
#
# Coordination Sequence:
#
# PCOD9273782 Si02
#       6
#     8   8   4   8   8   8
#     4  10  21  39  62  90 123 161 215 261 324 390
#     4  10  22  37  60  93 118 168 214 260 315 391
#     4  10  20  38  64  84 120 160 198 266 328 374
#     4  10  20  38  62  88 129 169 211 267 319 374
#     4  10  20  38  59  83 130 166 207 262 321 376
#     4   9  20  39  61  87 125 159 197 266 324 382
#
# _framework density 26.232904999999999
#
# number of rings (size 3 to 8) (size 9 to 14) (size 15 to 20)
#    0.000    2.182    1.818    0.545    0.000    4.364 
#    0.000    5.455    0.000    0.000    0.000    0.000 
#    0.000    0.000    0.000    0.000    0.000    0.000 
#
# Total GULP energy -122705.920083 kJ/mol
# GULP energy per Si atom -5577.541822 kJ/mol
# Density = 2.617320 g / cm^3
# Si number density = 26.232905 Si / 1000 Ang^3
#
#
#
# Elastic Constant Matrix: (Units=GPa)
#
#
# Indices 1 2 3 4 5 6 
#
# 1 92.5061 24.6716 52.3167 0.0004 -39.1237 -0.0336
# 2 24.6716 113.5565 59.8527 0.0707 -13.9598 -0.1452
# 3 52.3167 59.8527 204.1162 -0.0443 -71.5319 0.0091
# 4 0.0004 0.0707 -0.0443 60.4268 0.0126 -11.0460
# 5 -39.1237 -13.9598 -71.5319 0.0126 57.6832 0.0295
# 6 -0.0336 -0.1452 0.0091 -11.0460 0.0295 31.1006
#
#
#
# Elastic Compliance Matrix: (Units=1/GPa)
#
#
# Indices 1 2 3 4 5 6 
#
# 1 0.015667 -0.002288 0.000328 0.000000 0.010479 -0.000004
# 2 -0.002288 0.010917 -0.003949 -0.000005 -0.003807 0.000051
# 3 0.000328 -0.003949 0.010109 0.000004 0.011803 -0.000031
# 4 0.000000 -0.000005 0.000004 0.017698 -0.000004 0.006286
# 5 0.010479 -0.003807 0.011803 -0.000004 0.038159 -0.000047
# 6 -0.000004 0.000051 -0.000031 0.006286 -0.000047 0.034387
#
#
# Mechanical properties :
#
#
# Convention : Reuss Voigt Hill
#
# Bulk Modulus (GPa) = 40.20232 75.98455 58.09344
# Shear Modulus (GPa) = 34.00287 48.06464 41.03375
#
# Velocity S-wave (km/s) = 3.60417 4.28510 3.95930
# Velocity P-wave (km/s) = 5.71651 7.31512 6.56466
#
# Compressibility (1/GPa) = 0.02487418
#
# Stress axis : x y z
#
# Youngs Moduli (GPa) = 63.82922 91.60291 98.91735
#
# Poissons Ratio (x) = 0.20962 -0.03241
# Poissons Ratio (y) = 0.14606 0.39059
# Poissons Ratio (z) = -0.02091 0.36171
#
# Static dielectric constant tensor:
#      x y z
#    x 2.686890 0.001680 -0.465570 
#    y 0.001680 2.169370 -0.001780 
#    z -0.465570 -0.001780 2.748950 
# 
# From -- ./inp_files/170859.got.cif
#   From: 2010.05.17/outbox.cif.g08.bks.cpg/sg15_86_cif.got.tgz:170859.got - 2010.06.03 18:47:42.
