data_PCOD9273067
_publ_section_title
;
Structure prediction by ZEFSAII (Michael W. Deem and Ramdas Pophale) SiO2 
 PCOD9273067
Probable space group: C 2/C
;
_chemical_formula_sum "Si O2"
_cell_formula_units_Z 56
_cell_length_a 15.344029
_cell_length_b 16.423104
_cell_length_c 13.176195
_cell_angle_alpha 90.000000
_cell_angle_beta 134.336959
_cell_angle_gamma 90.000000
_cell_volume 2374.858384
_symmetry_space_group_name_H-M "C 2/C"
_symmetry_group_IT_number 15
_symmetry_cell_setting 'monoclinic'
loop_
_space_group_symop_operation_xyz
x,y,z
-x,y,1/2-z
-x,-y,-z
x,-y,1/2+z
1/2+x,1/2+y,z
1/2-x,1/2+y,1/2-z
1/2-x,1/2-y,-z
1/2+x,1/2-y,1/2+z
loop_
_atom_site_type_symbol
_atom_site_label
_atom_site_fract_x
_atom_site_fract_y
_atom_site_fract_z
Si Si1 0.137075 0.857757 0.322139
Si Si2 0.367278 0.527152 0.857873
Si Si3 0.807530 0.643336 0.561985
Si Si4 0.898155 0.227305 0.999081
Si Si5 0.692287 0.964640 0.891128
Si Si6 0.359597 0.364734 0.764624
Si Si7 0.847233 0.688616 0.254802
O O1 0.141909 0.889568 0.209946
O O2 0.231449 0.908109 0.468517
O O3 0.158185 0.760924 0.331242
O O4 0.000000 0.872940 0.250000
O O5 0.282237 0.506076 0.882168
O O6 0.339202 0.460742 0.749884
O O7 0.500000 0.500000 0.000000
O O8 0.905267 0.702933 0.590992
O O9 0.734947 0.682279 0.599024
O O10 0.855630 0.550331 0.602647
O O11 0.699431 0.654450 0.390610
O O12 0.919967 0.275364 0.910840
O O13 0.003053 0.162519 0.107215
O O14 0.613920 0.897436 0.764176
O O15 0.282857 0.329345 0.797097
#
# Coordination Sequence:
#
# PCOD9273067 Si02
#       7
#     8   8   8   8   8   8   8
#     4  12  23  37  62  92 126 168 216 261 326 378
#     4  11  20  33  57  93 122 155 202 266 324 370
#     4  10  20  37  62  98 123 162 210 273 322 377
#     4  10  21  37  63  96 128 164 210 267 329 376
#     4  11  22  38  61  88 134 164 208 266 317 380
#     4  10  20  37  62  90 126 161 210 265 321 375
#     4  10  24  39  56  92 129 173 208 259 315 393
#
# _framework density 23.580352999999999
#
# number of rings (size 3 to 8) (size 9 to 14) (size 15 to 20)
#    0.000    1.429    2.857    3.429    2.000    0.000 
#    0.000    0.000    0.000    9.429    0.000    0.000 
#    0.000    0.000    0.000    0.000    0.000    0.000 
#
# Total GULP energy -156132.026888 kJ/mol
# GULP energy per Si atom -5576.143817 kJ/mol
# Density = 2.352668 g / cm^3
# Si number density = 23.580353 Si / 1000 Ang^3
#
#
#
# Elastic Constant Matrix: (Units=GPa)
#
#
# Indices 1 2 3 4 5 6 
#
# 1 48.4454 7.6894 4.3935 0.0000 -16.6047 0.0000
# 2 7.6894 174.6980 11.6265 0.0000 -17.2837 0.0000
# 3 4.3935 11.6265 61.4863 0.0000 -21.5615 0.0000
# 4 0.0000 0.0000 0.0000 38.2024 0.0000 -9.5488
# 5 -16.6047 -17.2837 -21.5615 0.0000 25.6447 0.0000
# 6 0.0000 0.0000 0.0000 -9.5488 0.0000 24.6275
#
#
#
# Elastic Compliance Matrix: (Units=1/GPa)
#
#
# Indices 1 2 3 4 5 6 
#
# 1 0.028187 0.000717 0.006268 0.000000 0.024004 0.000000
# 2 0.000717 0.006159 0.000571 0.000000 0.005095 0.000000
# 3 0.006268 0.000571 0.024485 0.000000 0.025030 0.000000
# 4 0.000000 0.000000 0.000000 0.028985 0.000000 0.011239
# 5 0.024004 0.005095 0.025030 0.000000 0.079015 0.000000
# 6 0.000000 0.000000 0.000000 0.011239 0.000000 0.044963
#
#
# Mechanical properties :
#
#
# Convention : Reuss Voigt Hill
#
# Bulk Modulus (GPa) = 13.52412 36.89427 25.20919
# Shear Modulus (GPa) = 22.59077 35.08961 28.84019
#
# Velocity S-wave (km/s) = 3.09857 3.86176 3.50102
# Velocity P-wave (km/s) = 4.30689 5.96359 5.20162
#
# Compressibility (1/GPa) = 0.07394197
#
# Stress axis : x y z
#
# Youngs Moduli (GPa) = 35.47750 162.37234 40.84116
#
# Poissons Ratio (x) = -0.11643 -0.25598
# Poissons Ratio (y) = -0.02544 -0.02332
# Poissons Ratio (z) = -0.22236 -0.09270
#
# Static dielectric constant tensor:
#      x y z
#    x 1.918590 0.000000 -0.024920 
#    y 0.000000 1.833810 0.000000 
#    z -0.024920 0.000000 1.931490 
# 
# From -- ./inp_files/162310.got.cif
#   From: 2010.05.17/outbox.cif.g08.bks.cpg/sg15_82_cif.got.tgz:162310.got - 2010.06.03 18:47:42.
