data_PCOD9273465
_publ_section_title
;
Structure prediction by ZEFSAII (Michael W. Deem and Ramdas Pophale) SiO2 
 PCOD9273465
Probable space group: C 2/C
;
_chemical_formula_sum "Si O2"
_cell_formula_units_Z 64
_cell_length_a 15.580995
_cell_length_b 13.045875
_cell_length_c 17.594985
_cell_angle_alpha 90.000000
_cell_angle_beta 54.777122
_cell_angle_gamma 90.000000
_cell_volume 2921.689064
_symmetry_space_group_name_H-M "C 2/C"
_symmetry_group_IT_number 15
_symmetry_cell_setting 'monoclinic'
loop_
_space_group_symop_operation_xyz
x,y,z
-x,y,1/2-z
-x,-y,-z
x,-y,1/2+z
1/2+x,1/2+y,z
1/2-x,1/2+y,1/2-z
1/2-x,1/2-y,-z
1/2+x,1/2-y,1/2+z
loop_
_atom_site_type_symbol
_atom_site_label
_atom_site_fract_x
_atom_site_fract_y
_atom_site_fract_z
Si Si1 0.399404 0.620357 0.172851
Si Si2 0.040965 0.055183 0.649483
Si Si3 0.722216 0.482244 0.376227
Si Si4 0.241047 0.371896 0.504935
Si Si5 0.318153 0.853205 0.652289
Si Si6 0.086432 0.519865 0.518666
Si Si7 0.932680 0.496433 0.215051
Si Si8 0.959063 0.837433 0.036096
O O1 0.490900 0.559073 0.170284
O O2 0.333606 0.526395 0.169465
O O3 0.302724 0.674057 0.265757
O O4 0.453642 0.678425 0.073907
O O5 0.009383 0.110747 0.585718
O O6 0.000000 0.101280 0.750000
O O7 0.164947 0.073592 0.588575
O O8 0.749726 0.577035 0.416743
O O9 0.833865 0.433437 0.298277
O O10 0.631147 0.410282 0.454941
O O11 0.250000 0.250000 0.500000
O O12 0.133977 0.413469 0.523774
O O13 0.325421 0.914981 0.568931
O O14 0.375612 0.920204 0.689609
O O15 0.394275 0.758300 0.598863
O O16 0.000000 0.500000 0.500000
O O17 0.018831 0.565785 0.622432
O O18 0.000000 0.542475 0.250000
#
# Coordination Sequence:
#
# PCOD9273465 Si02
#       8
#     8   8   8   8   8   8   8   8
#     4  10  20  43  65  90 136 186 221 275 338 406
#     4  11  23  40  67  99 136 173 228 287 340 388
#     4  10  20  39  63  92 129 179 222 267 335 407
#     4  12  24  39  67 102 131 169 230 280 337 406
#     4  10  24  39  66  98 130 181 230 271 334 419
#     4  10  23  42  61  95 141 174 211 276 348 392
#     4  10  20  37  66  87 132 178 216 271 343 388
#     4  11  22  41  68  94 134 182 225 273 341 405
#
# _framework density 21.905137
#
# number of rings (size 3 to 8) (size 9 to 14) (size 15 to 20)
#    0.000    1.500    3.750    1.500    3.500    4.500 
#    0.000    1.875    0.000    0.000    0.000    0.000 
#    0.000    0.000    0.000    0.000    0.000    0.000 
#
# Total GULP energy -178203.770917 kJ/mol
# GULP energy per Si atom -5568.867841 kJ/mol
# Density = 2.185528 g / cm^3
# Si number density = 21.905137 Si / 1000 Ang^3
#
#
#
# Elastic Constant Matrix: (Units=GPa)
#
#
# Indices 1 2 3 4 5 6 
#
# 1 80.8217 21.2601 37.3375 0.0000 -14.7555 0.0000
# 2 21.2601 32.5167 16.4885 0.0000 -3.8601 0.0000
# 3 37.3375 16.4885 187.2522 0.0000 -27.5216 0.0000
# 4 0.0000 0.0000 0.0000 13.8659 0.0000 -0.7917
# 5 -14.7555 -3.8601 -27.5216 0.0000 39.8767 0.0000
# 6 0.0000 0.0000 0.0000 -0.7917 0.0000 21.3043
#
#
#
# Elastic Compliance Matrix: (Units=1/GPa)
#
#
# Indices 1 2 3 4 5 6 
#
# 1 0.016396 -0.009307 -0.001881 0.000000 0.003868 0.000000
# 2 -0.009307 0.037534 -0.001582 0.000000 -0.000902 0.000000
# 3 -0.001881 -0.001582 0.006377 0.000000 0.003552 0.000000
# 4 0.000000 0.000000 0.000000 0.072273 0.000000 0.002686
# 5 0.003868 -0.000902 0.003552 0.000000 0.028872 0.000000
# 6 0.000000 0.000000 0.000000 0.002686 0.000000 0.047039
#
#
# Mechanical properties :
#
#
# Convention : Reuss Voigt Hill
#
# Bulk Modulus (GPa) = 28.76362 50.08476 39.42419
# Shear Modulus (GPa) = 20.35662 30.04301 25.19981
#
# Velocity S-wave (km/s) = 3.05176 3.70740 3.39544
# Velocity P-wave (km/s) = 5.05739 6.42187 5.78004
#
# Compressibility (1/GPa) = 0.03476614
#
# Stress axis : x y z
#
# Youngs Moduli (GPa) = 60.98885 26.64276 156.81718
#
# Poissons Ratio (x) = 0.24797 0.29503
# Poissons Ratio (y) = 0.56763 0.24806
# Poissons Ratio (z) = 0.11474 0.04214
#
# Static dielectric constant tensor:
#      x y z
#    x 1.821460 0.000000 -0.023480 
#    y 0.000000 1.800050 0.000000 
#    z -0.023480 0.000000 1.936980 
# 
# From -- ./inp_files/205711.got.cif
#   From: 2010.05.17/outbox.cif.g08.bks.cpg/sg15_103_cif.got.tgz:205711.got - 2010.06.03 18:47:42.
