data_PCOD9273914
_publ_section_title
;
Structure prediction by ZEFSAII (Michael W. Deem and Ramdas Pophale) SiO2 
 PCOD9273914
Probable space group: C 2/C
;
_chemical_formula_sum "Si O2"
_cell_formula_units_Z 40
_cell_length_a 10.857885
_cell_length_b 6.969601
_cell_length_c 24.675416
_cell_angle_alpha 90.000000
_cell_angle_beta 78.700997
_cell_angle_gamma 90.000000
_cell_volume 1831.123042
_symmetry_space_group_name_H-M "C 2/C"
_symmetry_group_IT_number 15
_symmetry_cell_setting 'monoclinic'
loop_
_space_group_symop_operation_xyz
x,y,z
-x,y,1/2-z
-x,-y,-z
x,-y,1/2+z
1/2+x,1/2+y,z
1/2-x,1/2+y,1/2-z
1/2-x,1/2-y,-z
1/2+x,1/2-y,1/2+z
loop_
_atom_site_type_symbol
_atom_site_label
_atom_site_fract_x
_atom_site_fract_y
_atom_site_fract_z
Si Si1 0.878200 0.243129 0.023765
Si Si2 0.265292 0.454040 0.828973
Si Si3 0.640774 0.086914 0.730710
Si Si4 0.543772 0.133276 0.423056
Si Si5 0.701814 0.150120 0.124336
O O1 0.910277 0.449492 0.046778
O O2 0.830002 0.122403 0.079355
O O3 0.750000 0.250000 0.000000
O O4 0.992161 0.211903 0.971560
O O5 0.358066 0.299290 0.794999
O O6 0.204508 0.564597 0.783287
O O7 0.158098 0.337649 0.871562
O O8 0.318171 0.621950 0.862668
O O9 0.500000 0.015476 0.750000
O O10 0.707311 0.955329 0.680662
O O11 0.419837 0.080450 0.398677
#
# Coordination Sequence:
#
# PCOD9273914 Si02
#       5
#     8   8   8   8   8
#     4   8  16  32  62  92 117 161 199 244 313 358
#     4  11  23  38  59  86 118 160 203 244 304 366
#     4  12  24  38  58  86 119 160 203 250 303 359
#     4   9  17  35  61  87 122 158 196 254 305 353
#     4  10  20  38  60  87 121 157 200 250 302 360
#
# _framework density 21.844518999999998
#
# number of rings (size 3 to 8) (size 9 to 14) (size 15 to 20)
#    0.000    2.000    4.000    0.000    0.000    2.400 
#    0.000    1.000    0.000   40.800    0.000    0.000 
#    0.000    0.000    0.000    0.000    0.000    0.000 
#
# Total GULP energy -111415.115149 kJ/mol
# GULP energy per Si atom -5570.755757 kJ/mol
# Density = 2.179480 g / cm^3
# Si number density = 21.844519 Si / 1000 Ang^3
#
#
#
# Elastic Constant Matrix: (Units=GPa)
#
#
# Indices 1 2 3 4 5 6 
#
# 1 59.5613 25.9578 42.7390 0.0000 -7.5791 0.0000
# 2 25.9578 63.9460 32.7650 0.0000 -6.3711 0.0000
# 3 42.7390 32.7650 146.2335 0.0000 -21.2835 0.0000
# 4 0.0000 0.0000 0.0000 38.2699 0.0000 -4.3601
# 5 -7.5791 -6.3711 -21.2835 0.0000 33.5700 0.0000
# 6 0.0000 0.0000 0.0000 -4.3601 0.0000 19.4196
#
#
#
# Elastic Compliance Matrix: (Units=1/GPa)
#
#
# Indices 1 2 3 4 5 6 
#
# 1 0.023639 -0.006822 -0.005279 0.000000 0.000695 0.000000
# 2 -0.006822 0.019661 -0.002305 0.000000 0.000730 0.000000
# 3 -0.005279 -0.002305 0.009541 0.000000 0.004420 0.000000
# 4 0.000000 0.000000 0.000000 0.026816 0.000000 0.006021
# 5 0.000695 0.000730 0.004420 0.000000 0.032886 0.000000
# 6 0.000000 0.000000 0.000000 0.006021 0.000000 0.052846
#
#
# Mechanical properties :
#
#
# Convention : Reuss Voigt Hill
#
# Bulk Modulus (GPa) = 41.61636 52.51826 47.06731
# Shear Modulus (GPa) = 24.72655 29.47050 27.09852
#
# Velocity S-wave (km/s) = 3.36807 3.67700 3.52592
# Velocity P-wave (km/s) = 5.84959 6.49008 6.17814
#
# Compressibility (1/GPa) = 0.02402901
#
# Stress axis : x y z
#
# Youngs Moduli (GPa) = 42.30294 50.86153 104.80948
#
# Poissons Ratio (x) = 0.34696 0.55331
# Poissons Ratio (y) = 0.28857 0.24162
# Poissons Ratio (z) = 0.22333 0.11725
#
# Static dielectric constant tensor:
#      x y z
#    x 1.750330 0.000000 -0.039870 
#    y 0.000000 1.826470 0.000000 
#    z -0.039870 0.000000 1.853680 
# 
# From -- ./inp_files/262470.got.cif
#   From: 2010.05.17/outbox.cif.g08.bks.cpg/sg15_132_cif.got.tgz:262470.got - 2010.06.03 18:47:42.
