data_PCOD9273624
_publ_section_title
;
Structure prediction by ZEFSAII (Michael W. Deem and Ramdas Pophale) SiO2 
 PCOD9273624
Probable space group: C 2/C
;
_chemical_formula_sum "Si O2"
_cell_formula_units_Z 44
_cell_length_a 22.397776
_cell_length_b 19.182172
_cell_length_c 5.658268
_cell_angle_alpha 90.000000
_cell_angle_beta 118.531116
_cell_angle_gamma 90.000000
_cell_volume 2135.780193
_symmetry_space_group_name_H-M "C 2/C"
_symmetry_group_IT_number 15
_symmetry_cell_setting 'monoclinic'
loop_
_space_group_symop_operation_xyz
x,y,z
-x,y,1/2-z
-x,-y,-z
x,-y,1/2+z
1/2+x,1/2+y,z
1/2-x,1/2+y,1/2-z
1/2-x,1/2-y,-z
1/2+x,1/2-y,1/2+z
loop_
_atom_site_type_symbol
_atom_site_label
_atom_site_fract_x
_atom_site_fract_y
_atom_site_fract_z
Si Si1 0.744490 0.811778 0.797996
Si Si2 0.000000 0.768064 0.750000
Si Si3 0.365244 0.255193 0.732038
Si Si4 0.564412 0.837270 0.741127
Si Si5 0.247467 0.974168 0.616058
Si Si6 0.403242 0.022044 0.423464
O O1 0.807914 0.803783 0.738300
O O2 0.675217 0.792051 0.532074
O O3 0.748424 0.890385 0.899608
O O4 0.609817 0.798335 0.018917
O O5 0.930756 0.795925 0.746508
O O6 0.967185 0.720798 0.485926
O O7 0.250000 0.250000 0.000000
O O8 0.500000 0.870967 0.750000
O O9 0.597499 0.898008 0.655399
O O10 0.324818 0.003670 0.787853
O O11 0.216764 0.005509 0.315385
O O12 0.432143 0.015836 0.743304
#
# Coordination Sequence:
#
# PCOD9273624 Si02
#       6
#     8   4   8   8   8   8
#     4  11  23  38  63  91 123 157 210 258 307 365
#     4  10  20  38  56  80 116 152 194 250 314 362
#     4  10  22  36  60  87 117 154 202 254 310 359
#     4  10  22  36  53  76 112 154 198 250 298 350
#     4  10  23  38  58  86 122 163 199 250 313 372
#     4  10  22  34  52  75 110 156 206 245 289 349
#
# _framework density 20.601369999999999
#
# number of rings (size 3 to 8) (size 9 to 14) (size 15 to 20)
#    0.000    1.818    0.000    3.273   17.818    0.727 
#    0.000    0.000    0.000    0.000    0.000    1.273 
#    0.000    0.000    0.000    0.000    0.000    0.000 
#
# Total GULP energy -122662.153553 kJ/mol
# GULP energy per Si atom -5575.552434 kJ/mol
# Density = 2.055448 g / cm^3
# Si number density = 20.601370 Si / 1000 Ang^3
#
#
#
# Elastic Constant Matrix: (Units=GPa)
#
#
# Indices 1 2 3 4 5 6 
#
# 1 113.5468 1.9365 6.4710 0.0000 -17.2854 0.0000
# 2 1.9365 74.1386 37.7988 0.0000 -5.1889 0.0000
# 3 6.4710 37.7988 164.9497 0.0000 3.0151 0.0000
# 4 0.0000 0.0000 0.0000 6.9254 0.0000 -16.3901
# 5 -17.2854 -5.1889 3.0151 0.0000 34.0629 0.0000
# 6 0.0000 0.0000 0.0000 -16.3901 0.0000 20.0116
#
#
#
# Elastic Compliance Matrix: (Units=1/GPa)
#
#
# Indices 1 2 3 4 5 6 
#
# 1 0.009589 0.000380 -0.000554 0.000000 0.004973 0.000000
# 2 0.000380 0.015528 -0.003626 0.000000 0.002879 0.000000
# 3 -0.000554 -0.003626 0.006942 0.000000 -0.001448 0.000000
# 4 0.000000 0.000000 0.000000 -0.153879 0.000000 -0.126032
# 5 0.004973 0.002879 -0.001448 0.000000 0.032448 0.000000
# 6 0.000000 0.000000 0.000000 -0.126032 0.000000 -0.053253
#
#
# Mechanical properties :
#
#
# Convention : Reuss Voigt Hill
#
# Bulk Modulus (GPa) = 40.88451 49.44974 45.16712
# Shear Modulus (GPa) = -39.41001 32.62856 -3.39073
#
# Velocity S-wave (km/s) = -4.37851 3.98402 -1.28431
# Velocity P-wave (km/s) = 2.38184 6.72447 4.44665
#
# Compressibility (1/GPa) = 0.02445914
#
# Stress axis : x y z
#
# Youngs Moduli (GPa) = 104.28519 64.39774 144.05972
#
# Poissons Ratio (x) = -0.02448 0.07984
# Poissons Ratio (y) = -0.03964 0.52235
# Poissons Ratio (z) = 0.05779 0.23350
#
# Static dielectric constant tensor:
#      x y z
#    x 1.840500 0.000000 -0.057500 
#    y 0.000000 1.699780 0.000000 
#    z -0.057500 0.000000 1.766500 
# 
# From -- ./inp_files/10552.got.cif
#   From: 2010.05.17/outbox.cif.g08.bks.cpg/sg15_6_cif.got.tgz:10552.got - 2010.06.03 18:47:42.
