data_PCOD9273771
_publ_section_title
;
Structure prediction by ZEFSAII (Michael W. Deem and Ramdas Pophale) SiO2 
 PCOD9273771
Probable space group: C 2/C
;
_chemical_formula_sum "Si O2"
_cell_formula_units_Z 64
_cell_length_a 21.250685
_cell_length_b 18.997302
_cell_length_c 15.421457
_cell_angle_alpha 90.000000
_cell_angle_beta 26.147445
_cell_angle_gamma 90.000000
_cell_volume 2743.571104
_symmetry_space_group_name_H-M "C 2/C"
_symmetry_group_IT_number 15
_symmetry_cell_setting 'monoclinic'
loop_
_space_group_symop_operation_xyz
x,y,z
-x,y,1/2-z
-x,-y,-z
x,-y,1/2+z
1/2+x,1/2+y,z
1/2-x,1/2+y,1/2-z
1/2-x,1/2-y,-z
1/2+x,1/2-y,1/2+z
loop_
_atom_site_type_symbol
_atom_site_label
_atom_site_fract_x
_atom_site_fract_y
_atom_site_fract_z
Si Si1 0.671124 0.959571 0.707947
Si Si2 0.825530 0.794670 0.805561
Si Si3 0.438308 0.473163 0.485067
Si Si4 0.173372 0.945535 0.623767
Si Si5 0.519740 0.685928 0.571068
Si Si6 0.539898 0.179817 0.567942
Si Si7 0.575567 0.980942 0.069361
Si Si8 0.309452 0.804186 0.803928
O O1 0.768207 0.964833 0.675665
O O2 0.694434 0.879866 0.645040
O O3 0.744437 0.018232 0.556714
O O4 0.501114 0.974074 0.911090
O O5 0.826414 0.861749 0.867128
O O6 0.922395 0.813096 0.600273
O O7 0.897947 0.725034 0.752423
O O8 0.666948 0.784816 0.965357
O O9 0.500000 0.500000 0.500000
O O10 0.512312 0.528119 0.329604
O O11 0.502553 0.396293 0.383982
O O12 0.261931 0.973761 0.599447
O O13 0.386446 0.737086 0.749573
O O14 0.650986 0.712255 0.467215
O O15 0.528333 0.099786 0.612153
O O16 0.594896 0.179517 0.400657
O O17 0.500000 0.009171 0.250000
#
# Coordination Sequence:
#
# PCOD9273771 Si02
#       8
#     8   8   8   8   8   8   8   8
#     4  10  22  38  57  85 118 153 195 238 292 352
#     4   9  17  33  54  79 113 152 188 238 291 344
#     4  11  21  37  59  86 116 150 197 247 294 347
#     4  10  20  38  59  81 118 156 190 244 298 350
#     4   9  18  35  55  82 114 145 190 242 292 338
#     4   9  18  33  54  81 114 149 194 239 288 343
#     4   9  20  38  55  79 118 155 191 239 291 348
#     4   9  19  35  57  82 114 146 189 246 287 345
#
# _framework density 23.327262999999999
#
# number of rings (size 3 to 8) (size 9 to 14) (size 15 to 20)
#    0.000    2.500    1.250    0.375    1.750    2.500 
#    4.500    7.500    0.000    3.000    0.000    0.000 
#    0.000    0.000    0.000    0.000    0.000    0.000 
#
# Total GULP energy -178585.902324 kJ/mol
# GULP energy per Si atom -5580.809448 kJ/mol
# Density = 2.327417 g / cm^3
# Si number density = 23.327263 Si / 1000 Ang^3
#
#
#
# Elastic Constant Matrix: (Units=GPa)
#
#
# Indices 1 2 3 4 5 6 
#
# 1 67.9539 29.7841 8.9758 0.0005 -18.3316 -0.0004
# 2 29.7841 90.4617 44.8343 0.0004 -44.0982 -0.0005
# 3 8.9758 44.8343 62.7296 0.0007 -28.7150 -0.0004
# 4 0.0005 0.0004 0.0007 42.9754 -0.0006 -13.4790
# 5 -18.3316 -44.0982 -28.7150 -0.0006 35.0535 0.0003
# 6 -0.0004 -0.0005 -0.0004 -13.4790 0.0003 33.1059
#
#
#
# Elastic Compliance Matrix: (Units=1/GPa)
#
#
# Indices 1 2 3 4 5 6 
#
# 1 0.018028 -0.004399 0.003755 0.000000 0.006970 0.000000
# 2 -0.004399 0.031331 -0.007638 0.000000 0.030857 0.000000
# 3 0.003755 -0.007638 0.027781 0.000000 0.015112 0.000000
# 4 0.000000 0.000000 0.000000 0.026676 0.000001 0.010861
# 5 0.006970 0.030857 0.015112 0.000001 0.083372 0.000000
# 6 0.000000 0.000000 0.000000 0.010861 0.000000 0.034628
#
#
# Mechanical properties :
#
#
# Convention : Reuss Voigt Hill
#
# Bulk Modulus (GPa) = 16.50825 43.14818 29.82821
# Shear Modulus (GPa) = 19.33700 31.39703 25.36701
#
# Velocity S-wave (km/s) = 2.88226 3.67268 3.30121
# Velocity P-wave (km/s) = 4.26248 6.04333 5.22927
#
# Compressibility (1/GPa) = 0.06057579
#
# Stress axis : x y z
#
# Youngs Moduli (GPa) = 55.46855 31.91761 35.99565
#
# Poissons Ratio (x) = 0.14041 -0.13517
# Poissons Ratio (y) = 0.24401 0.27494
# Poissons Ratio (z) = -0.20829 0.24379
#
# Static dielectric constant tensor:
#      x y z
#    x 1.964170 0.000000 0.045240 
#    y 0.000000 1.805120 0.000000 
#    z 0.045240 0.000000 1.922280 
# 
# From -- ./inp_files/216149.got.cif
#   From: 2010.05.17/outbox.cif.g08.bks.cpg/sg15_109_cif.got.tgz:216149.got - 2010.06.03 18:47:42.
