data_PCOD9273723
_publ_section_title
;
Structure prediction by ZEFSAII (Michael W. Deem and Ramdas Pophale) SiO2 
 PCOD9273723
Probable space group: C 2/C
;
_chemical_formula_sum "Si O2"
_cell_formula_units_Z 44
_cell_length_a 9.644017
_cell_length_b 10.638409
_cell_length_c 23.184566
_cell_angle_alpha 90.000000
_cell_angle_beta 41.459437
_cell_angle_gamma 90.000000
_cell_volume 1574.890712
_symmetry_space_group_name_H-M "C 2/C"
_symmetry_group_IT_number 15
_symmetry_cell_setting 'monoclinic'
loop_
_space_group_symop_operation_xyz
x,y,z
-x,y,1/2-z
-x,-y,-z
x,-y,1/2+z
1/2+x,1/2+y,z
1/2-x,1/2+y,1/2-z
1/2-x,1/2-y,-z
1/2+x,1/2-y,1/2+z
loop_
_atom_site_type_symbol
_atom_site_label
_atom_site_fract_x
_atom_site_fract_y
_atom_site_fract_z
Si Si1 0.365354 0.121048 0.404948
Si Si2 0.699207 0.304191 0.272775
Si Si3 0.928710 0.142358 0.373231
Si Si4 0.500000 0.976068 0.250000
Si Si5 0.830537 0.445775 0.117833
Si Si6 0.448842 0.300285 0.998585
O O1 0.477122 0.255986 0.363483
O O2 0.404653 0.059353 0.330424
O O3 0.492902 0.039009 0.410911
O O4 0.116251 0.133922 0.487281
O O5 0.815359 0.393623 0.280832
O O6 0.717902 0.374012 0.205772
O O7 0.843227 0.178660 0.221035
O O8 0.827409 0.027347 0.371170
O O9 0.782427 0.266199 0.407811
O O10 0.932329 0.132978 0.441356
O O11 0.952179 0.336633 0.046157
#
# Coordination Sequence:
#
# PCOD9273723 Si02
#       6
#     8   8   8   4   8   8
#     4  11  23  39  61  88 117 151 196 242 285 343
#     4  10  22  38  59  87 117 151 194 240 288 345
#     4  10  21  41  61  83 121 156 189 240 293 342
#     4  10  20  38  58  88 120 148 192 240 292 346
#     4  10  22  39  61  88 115 153 199 235 288 350
#     4  10  23  41  59  86 121 153 192 242 289 342
#
# _framework density 27.938445000000002
#
# number of rings (size 3 to 8) (size 9 to 14) (size 15 to 20)
#    0.000    1.818    0.000    3.818    0.000    6.545 
#    0.000   16.364    0.000    0.000    0.000    0.000 
#    0.000    0.000    0.000    0.000    0.000    0.000 
#
# Total GULP energy -123732.112110 kJ/mol
# GULP energy per Si atom -5624.186914 kJ/mol
# Density = 2.787486 g / cm^3
# Si number density = 27.938445 Si / 1000 Ang^3
#
#
#
# Elastic Constant Matrix: (Units=GPa)
#
#
# Indices 1 2 3 4 5 6 
#
# 1 144.7555 84.5966 47.8198 0.0002 -16.0075 -0.0001
# 2 84.5966 126.0971 25.1882 0.0001 11.0847 -0.0001
# 3 47.8198 25.1882 75.8852 0.0003 -8.0293 -0.0002
# 4 0.0002 0.0001 0.0003 36.4064 -0.0001 -0.2027
# 5 -16.0075 11.0847 -8.0293 -0.0001 56.2162 0.0001
# 6 -0.0001 -0.0001 -0.0002 -0.2027 0.0001 56.2563
#
#
#
# Elastic Compliance Matrix: (Units=1/GPa)
#
#
# Indices 1 2 3 4 5 6 
#
# 1 0.014747 -0.009216 -0.005683 0.000000 0.005205 0.000000
# 2 -0.009216 0.014506 0.000418 0.000000 -0.005425 0.000000
# 3 -0.005683 0.000418 0.016693 0.000000 0.000683 0.000000
# 4 0.000000 0.000000 0.000000 0.027468 0.000000 0.000099
# 5 0.005205 -0.005425 0.000683 0.000000 0.020438 0.000000
# 6 0.000000 0.000000 0.000000 0.000099 0.000000 0.017776
#
#
# Mechanical properties :
#
#
# Convention : Reuss Voigt Hill
#
# Bulk Modulus (GPa) = 58.87688 73.54968 66.21328
# Shear Modulus (GPa) = 34.18773 42.38467 38.28620
#
# Velocity S-wave (km/s) = 3.50191 3.89919 3.70588
# Velocity P-wave (km/s) = 6.12133 6.83040 6.48556
#
# Compressibility (1/GPa) = 0.01698460
#
# Stress axis : x y z
#
# Youngs Moduli (GPa) = 67.81023 68.93487 59.90666
#
# Poissons Ratio (x) = 0.63529 0.34047
# Poissons Ratio (y) = 0.62493 -0.02506
# Poissons Ratio (z) = 0.38539 -0.02884
#
# Static dielectric constant tensor:
#      x y z
#    x 2.141730 0.000000 -0.027270 
#    y 0.000000 2.155240 0.000000 
#    z -0.027270 0.000000 2.123390 
# 
# From -- ./inp_files/287853.got.cif
#   From: 2010.05.17/outbox.cif.g08.bks.cpg/sg15_144_cif.got.tgz:287853.got - 2010.06.03 18:47:42.
