data_PCOD9273368
_publ_section_title
;
Structure prediction by ZEFSAII (Michael W. Deem and Ramdas Pophale) SiO2 
 PCOD9273368
Probable space group: C 2/C
;
_chemical_formula_sum "Si O2"
_cell_formula_units_Z 40
_cell_length_a 15.816622
_cell_length_b 17.444737
_cell_length_c 12.986013
_cell_angle_alpha 90.000000
_cell_angle_beta 151.034276
_cell_angle_gamma 90.000000
_cell_volume 1735.226567
_symmetry_space_group_name_H-M "C 2/C"
_symmetry_group_IT_number 15
_symmetry_cell_setting 'monoclinic'
loop_
_space_group_symop_operation_xyz
x,y,z
-x,y,1/2-z
-x,-y,-z
x,-y,1/2+z
1/2+x,1/2+y,z
1/2-x,1/2+y,1/2-z
1/2-x,1/2-y,-z
1/2+x,1/2-y,1/2+z
loop_
_atom_site_type_symbol
_atom_site_label
_atom_site_fract_x
_atom_site_fract_y
_atom_site_fract_z
Si Si1 0.350458 0.991816 0.248367
Si Si2 0.163094 0.161951 0.621181
Si Si3 0.800176 0.796399 0.655790
Si Si4 0.710148 0.965625 0.559082
Si Si5 0.014403 0.921096 0.386682
O O1 0.561221 0.001104 0.474180
O O2 0.321413 0.987580 0.092685
O O3 0.277919 0.909719 0.207660
O O4 0.213184 0.059309 0.130786
O O5 0.998447 0.175159 0.370663
O O6 0.270823 0.239741 0.720812
O O7 0.079268 0.141513 0.641891
O O8 0.750000 0.750000 0.500000
O O9 0.692200 0.874489 0.547489
O O10 0.900260 0.001265 0.783296
O O11 0.000000 0.902535 0.250000
#
# Coordination Sequence:
#
# PCOD9273368 Si02
#       5
#     8   8   8   8   8
#     4  10  20  37  64  97 129 167 216 271 335 394
#     4  12  24  41  63  97 135 177 222 271 338 408
#     4  12  24  38  62  98 137 172 213 271 345 407
#     4  10  21  39  65  97 133 172 213 279 337 393
#     4  10  23  45  67  92 130 178 228 277 326 387
#
# _framework density 23.051742999999998
#
# number of rings (size 3 to 8) (size 9 to 14) (size 15 to 20)
#    0.000    1.200    4.000    2.400    2.800    0.800 
#    3.600    1.000    0.000    0.000    0.000    0.000 
#    0.000    0.000    0.000    0.000    0.000    0.000 
#
# Total GULP energy -111862.348695 kJ/mol
# GULP energy per Si atom -5593.117435 kJ/mol
# Density = 2.299928 g / cm^3
# Si number density = 23.051743 Si / 1000 Ang^3
#
#
#
# Elastic Constant Matrix: (Units=GPa)
#
#
# Indices 1 2 3 4 5 6 
#
# 1 139.0340 44.1135 4.1228 0.0000 27.7627 0.0000
# 2 44.1135 99.1052 21.4485 0.0000 6.3532 0.0000
# 3 4.1228 21.4485 118.5000 0.0000 20.9718 0.0000
# 4 0.0000 0.0000 0.0000 32.8257 0.0000 -0.7628
# 5 27.7627 6.3532 20.9718 0.0000 27.1774 0.0000
# 6 0.0000 0.0000 0.0000 -0.7628 0.0000 28.7260
#
#
#
# Elastic Compliance Matrix: (Units=1/GPa)
#
#
# Indices 1 2 3 4 5 6 
#
# 1 0.011045 -0.004702 0.002628 0.000000 -0.012211 0.000000
# 2 -0.004702 0.012534 -0.002822 0.000000 0.004051 0.000000
# 3 0.002628 -0.002822 0.010674 0.000000 -0.010262 0.000000
# 4 0.000000 0.000000 0.000000 0.030483 0.000000 0.000809
# 5 -0.012211 0.004051 -0.010262 0.000000 0.056241 0.000000
# 6 0.000000 0.000000 0.000000 0.000809 0.000000 0.034833
#
#
# Mechanical properties :
#
#
# Convention : Reuss Voigt Hill
#
# Bulk Modulus (GPa) = 40.88145 55.11209 47.99677
# Shear Modulus (GPa) = 28.77581 36.87613 32.82597
#
# Velocity S-wave (km/s) = 3.53698 4.00398 3.77770
# Velocity P-wave (km/s) = 5.86971 6.73318 6.31621
#
# Compressibility (1/GPa) = 0.02446097
#
# Stress axis : x y z
#
# Youngs Moduli (GPa) = 90.53942 79.78052 93.68304
#
# Poissons Ratio (x) = 0.37515 -0.24620
# Poissons Ratio (y) = 0.42574 0.26438
# Poissons Ratio (z) = -0.23794 0.22515
#
# Static dielectric constant tensor:
#      x y z
#    x 1.996460 0.000000 -0.052350 
#    y 0.000000 1.832390 0.000000 
#    z -0.052350 0.000000 2.009660 
# 
# From -- ./inp_files/155619.got.cif
#   From: 2010.05.17/outbox.cif.g08.bks.cpg/sg15_78_cif.got.tgz:155619.got - 2010.06.03 18:47:42.
