data_PCOD9273337
_publ_section_title
;
Structure prediction by ZEFSAII (Michael W. Deem and Ramdas Pophale) SiO2 
 PCOD9273337
Probable space group: C 2/C
;
_chemical_formula_sum "Si O2"
_cell_formula_units_Z 40
_cell_length_a 7.103014
_cell_length_b 25.064664
_cell_length_c 10.915664
_cell_angle_alpha 90.000000
_cell_angle_beta 114.115172
_cell_angle_gamma 90.000000
_cell_volume 1773.761188
_symmetry_space_group_name_H-M "C 2/C"
_symmetry_group_IT_number 15
_symmetry_cell_setting 'monoclinic'
loop_
_space_group_symop_operation_xyz
x,y,z
-x,y,1/2-z
-x,-y,-z
x,-y,1/2+z
1/2+x,1/2+y,z
1/2-x,1/2+y,1/2-z
1/2-x,1/2-y,-z
1/2+x,1/2-y,1/2+z
loop_
_atom_site_type_symbol
_atom_site_label
_atom_site_fract_x
_atom_site_fract_y
_atom_site_fract_z
Si Si1 0.367554 0.987253 0.340646
Si Si2 0.296515 0.103916 0.351365
Si Si3 0.762148 0.759474 0.149044
Si Si4 0.438283 0.655790 0.410424
Si Si5 0.268040 0.875727 0.403426
O O1 0.500000 0.983422 0.250000
O O2 0.247364 0.931729 0.327518
O O3 0.500000 0.000000 0.500000
O O4 0.246143 0.042618 0.305401
O O5 0.258458 0.133040 0.214177
O O6 0.519548 0.114957 0.466321
O O7 0.136130 0.127893 0.405994
O O8 0.582170 0.717652 0.134119
O O9 0.714906 0.820926 0.168432
O O10 0.000000 0.747860 0.250000
O O11 0.750000 0.750000 0.000000
O O12 0.406730 0.639083 0.542908
#
# Coordination Sequence:
#
# PCOD9273337 Si02
#       5
#     8   8   8   8   8
#     4  10  21  41  64  94 134 176 221 283 346 402
#     4  10  20  37  64  94 123 173 232 272 330 411
#     4  10  21  41  64  94 134 176 221 283 346 402
#     4  10  20  37  64  94 123 173 232 272 330 411
#     4  10  21  40  62  90 136 174 217 284 348 396
#
# _framework density 22.550948999999999
#
# number of rings (size 3 to 8) (size 9 to 14) (size 15 to 20)
#    0.000    2.000    0.000    5.400    0.000    1.600 
#   21.600    0.000    0.000    0.000    0.000    0.000 
#    0.000    0.000    0.000    0.000    0.000    0.000 
#
# Total GULP energy -111403.172211 kJ/mol
# GULP energy per Si atom -5570.158611 kJ/mol
# Density = 2.249962 g / cm^3
# Si number density = 22.550949 Si / 1000 Ang^3
#
#
#
# Elastic Constant Matrix: (Units=GPa)
#
#
# Indices 1 2 3 4 5 6 
#
# 1 101.9427 42.2441 24.9784 0.0000 -28.1874 0.0000
# 2 42.2441 214.5162 8.1896 0.0000 -37.2545 0.0000
# 3 24.9784 8.1896 68.3857 0.0000 -7.0014 0.0000
# 4 0.0000 0.0000 0.0000 9.9913 0.0000 -6.6238
# 5 -28.1874 -37.2545 -7.0014 0.0000 35.5778 0.0000
# 6 0.0000 0.0000 0.0000 -6.6238 0.0000 38.4518
#
#
#
# Elastic Compliance Matrix: (Units=1/GPa)
#
#
# Indices 1 2 3 4 5 6 
#
# 1 0.013682 -0.000973 -0.003955 0.000000 0.009043 0.000000
# 2 -0.000973 0.005767 0.000208 0.000000 0.005309 0.000000
# 3 -0.003955 0.000208 0.016068 0.000000 0.000247 0.000000
# 4 0.000000 0.000000 0.000000 0.112991 0.000000 0.019464
# 5 0.009043 0.005309 0.000247 0.000000 0.040880 0.000000
# 6 0.000000 0.000000 0.000000 0.019464 0.000000 0.029359
#
#
# Mechanical properties :
#
#
# Convention : Reuss Voigt Hill
#
# Bulk Modulus (GPa) = 38.34694 59.51875 48.93284
# Shear Modulus (GPa) = 21.10779 37.43302 29.27040
#
# Velocity S-wave (km/s) = 3.06274 4.07864 3.60664
# Velocity P-wave (km/s) = 5.43587 6.97358 6.25218
#
# Compressibility (1/GPa) = 0.02607770
#
# Stress axis : x y z
#
# Youngs Moduli (GPa) = 73.08832 173.38967 62.23592
#
# Poissons Ratio (x) = 0.16870 0.24615
# Poissons Ratio (y) = 0.07111 -0.01296
# Poissons Ratio (z) = 0.28908 -0.03611
#
# Static dielectric constant tensor:
#      x y z
#    x 1.820240 0.000000 0.082130 
#    y 0.000000 2.057680 0.000000 
#    z 0.082130 0.000000 1.501290 
# 
# From -- ./inp_files/78795.got.cif
#   From: 2010.05.17/outbox.cif.g08.bks.cpg/sg15_40_cif.got.tgz:78795.got - 2010.06.03 18:47:42.
