data_PCOD9273457
_publ_section_title
;
Structure prediction by ZEFSAII (Michael W. Deem and Ramdas Pophale) SiO2 
 PCOD9273457
Probable space group: C 2/C
;
_chemical_formula_sum "Si O2"
_cell_formula_units_Z 44
_cell_length_a 8.364658
_cell_length_b 19.663960
_cell_length_c 11.724436
_cell_angle_alpha 90.000000
_cell_angle_beta 81.722712
_cell_angle_gamma 90.000000
_cell_volume 1908.373285
_symmetry_space_group_name_H-M "C 2/C"
_symmetry_group_IT_number 15
_symmetry_cell_setting 'monoclinic'
loop_
_space_group_symop_operation_xyz
x,y,z
-x,y,1/2-z
-x,-y,-z
x,-y,1/2+z
1/2+x,1/2+y,z
1/2-x,1/2+y,1/2-z
1/2-x,1/2-y,-z
1/2+x,1/2-y,1/2+z
loop_
_atom_site_type_symbol
_atom_site_label
_atom_site_fract_x
_atom_site_fract_y
_atom_site_fract_z
Si Si1 0.830352 0.672951 0.707009
Si Si2 0.990101 0.224608 0.034089
Si Si3 0.500000 0.501105 0.250000
Si Si4 0.318169 0.924217 0.796278
Si Si5 0.843142 0.088158 0.946950
Si Si6 0.800564 0.712099 0.158600
O O1 0.770059 0.608516 0.647097
O O2 0.703712 0.708319 0.803836
O O3 0.000000 0.660297 0.750000
O O4 0.856584 0.736756 0.620402
O O5 0.133536 0.203333 0.106192
O O6 0.055446 0.284923 0.946370
O O7 0.925940 0.157726 0.980914
O O8 0.334046 0.543082 0.254417
O O9 0.525952 0.459813 0.128532
O O10 0.500000 0.950292 0.750000
O O11 0.319427 0.846112 0.749881
O O12 0.266059 0.933477 0.933924
#
# Coordination Sequence:
#
# PCOD9273457 Si02
#       6
#     8   8   4   8   8   8
#     4  10  21  37  63 104 140 170 215 288 356 428
#     4  10  20  37  66 104 140 178 215 286 363 431
#     4  12  30  50  68 100 142 196 252 304 344 406
#     4  12  27  46  73 102 139 196 245 298 349 426
#     4  12  24  45  74 100 141 190 240 295 359 438
#     4  10  21  37  62 101 146 173 219 285 358 419
#
# _framework density 23.056287000000001
#
# number of rings (size 3 to 8) (size 9 to 14) (size 15 to 20)
#    0.000    1.091    1.818    4.364    3.818    1.455 
#    0.000    1.818    0.000    0.000    0.000    0.000 
#    0.000    0.000    0.000    0.000    0.000    0.000 
#
# Total GULP energy -122858.247733 kJ/mol
# GULP energy per Si atom -5584.465806 kJ/mol
# Density = 2.300381 g / cm^3
# Si number density = 23.056287 Si / 1000 Ang^3
#
#
#
# Elastic Constant Matrix: (Units=GPa)
#
#
# Indices 1 2 3 4 5 6 
#
# 1 108.4884 36.5503 30.2627 0.0000 -13.5968 0.0000
# 2 36.5503 41.1367 17.6767 0.0000 -2.9256 0.0000
# 3 30.2627 17.6767 87.4658 0.0000 -10.1008 0.0000
# 4 0.0000 0.0000 0.0000 40.8568 0.0000 -46.0005
# 5 -13.5968 -2.9256 -10.1008 0.0000 37.7268 0.0000
# 6 0.0000 0.0000 0.0000 -46.0005 0.0000 156.8457
#
#
#
# Elastic Compliance Matrix: (Units=1/GPa)
#
#
# Indices 1 2 3 4 5 6 
#
# 1 0.014095 -0.011334 -0.002168 0.000000 0.003620 0.000000
# 2 -0.011334 0.035750 -0.003565 0.000000 -0.002267 0.000000
# 3 -0.002168 -0.003565 0.013189 0.000000 0.002473 0.000000
# 4 0.000000 0.000000 0.000000 0.036542 0.000000 0.010717
# 5 0.003620 -0.002267 0.002473 0.000000 0.028298 0.000000
# 6 0.000000 0.000000 0.000000 0.010717 0.000000 0.009519
#
#
# Mechanical properties :
#
#
# Convention : Reuss Voigt Hill
#
# Bulk Modulus (GPa) = 34.60267 45.11893 39.86080
# Shear Modulus (GPa) = 27.59973 57.25928 42.42951
#
# Velocity S-wave (km/s) = 3.46361 4.98884 4.29448
# Velocity P-wave (km/s) = 5.57099 7.26610 6.47426
#
# Compressibility (1/GPa) = 0.02889950
#
# Stress axis : x y z
#
# Youngs Moduli (GPa) = 70.94931 27.97170 75.81880
#
# Poissons Ratio (x) = 0.31703 0.16437
# Poissons Ratio (y) = 0.80414 0.27032
# Poissons Ratio (z) = 0.15382 0.09973
#
# Static dielectric constant tensor:
#      x y z
#    x 1.853320 0.000000 0.029740 
#    y 0.000000 1.862070 0.000000 
#    z 0.029740 0.000000 1.908320 
# 
# From -- ./inp_files/78210.got.cif
#   From: 2010.05.17/outbox.cif.g08.bks.cpg/sg15_40_cif.got.tgz:78210.got - 2010.06.03 18:47:42.
