data_PCOD9273053
_publ_section_title
;
Structure prediction by ZEFSAII (Michael W. Deem and Ramdas Pophale) SiO2 
 PCOD9273053
Probable space group: C 2/C
;
_chemical_formula_sum "Si O2"
_cell_formula_units_Z 44
_cell_length_a 24.276047
_cell_length_b 17.758202
_cell_length_c 14.551798
_cell_angle_alpha 90.000000
_cell_angle_beta 159.355055
_cell_angle_gamma 90.000000
_cell_volume 2211.801482
_symmetry_space_group_name_H-M "C 2/C"
_symmetry_group_IT_number 15
_symmetry_cell_setting 'monoclinic'
loop_
_space_group_symop_operation_xyz
x,y,z
-x,y,1/2-z
-x,-y,-z
x,-y,1/2+z
1/2+x,1/2+y,z
1/2-x,1/2+y,1/2-z
1/2-x,1/2-y,-z
1/2+x,1/2-y,1/2+z
loop_
_atom_site_type_symbol
_atom_site_label
_atom_site_fract_x
_atom_site_fract_y
_atom_site_fract_z
Si Si1 0.045813 0.444110 0.991400
Si Si2 0.006173 0.156006 0.867472
Si Si3 0.764187 0.387382 0.431597
Si Si4 0.500000 0.368649 0.750000
Si Si5 0.614498 0.485994 0.061294
Si Si6 0.809656 0.301053 0.307749
O O1 0.214313 0.472679 0.218382
O O2 0.077359 0.358202 0.070515
O O3 0.000000 0.500000 0.000000
O O4 0.911042 0.430579 0.705325
O O5 0.836172 0.157825 0.649967
O O6 0.000000 0.171914 0.750000
O O7 0.070533 0.071693 0.979659
O O8 0.121750 0.218366 0.088868
O O9 0.649050 0.452815 0.215040
O O10 0.803229 0.333866 0.403987
O O11 0.507890 0.428684 0.678157
O O12 0.356847 0.315789 0.498458
#
# Coordination Sequence:
#
# PCOD9273053 Si02
#       6
#     8   8   8   4   8   8
#     4  10  20  37  62  90 118 166 208 252 307 376
#     4  12  23  37  64  96 122 159 216 262 309 374
#     4  10  22  40  62  88 125 167 204 264 314 364
#     4   8  18  42  62  78 128 172 194 248 316 372
#     4  10  20  39  63  87 124 167 214 250 303 385
#     4  10  23  41  61  89 131 160 203 266 322 360
#
# _framework density 19.893287000000001
#
# number of rings (size 3 to 8) (size 9 to 14) (size 15 to 20)
#    0.000    2.182    0.909    4.909    2.545    4.364 
#    3.273    3.636    0.000    0.000    0.000    0.000 
#    0.000    0.000    0.000    0.000    0.000    0.000 
#
# Total GULP energy -122560.024875 kJ/mol
# GULP energy per Si atom -5570.910222 kJ/mol
# Density = 1.984801 g / cm^3
# Si number density = 19.893287 Si / 1000 Ang^3
#
#
#
# Elastic Constant Matrix: (Units=GPa)
#
#
# Indices 1 2 3 4 5 6 
#
# 1 85.1507 19.3058 30.1481 0.0000 7.8103 0.0000
# 2 19.3058 103.6708 33.8105 0.0000 6.5945 0.0000
# 3 30.1481 33.8105 114.2056 0.0000 -17.8646 0.0000
# 4 0.0000 0.0000 0.0000 31.0999 0.0000 1.9569
# 5 7.8103 6.5945 -17.8646 0.0000 20.1210 0.0000
# 6 0.0000 0.0000 0.0000 1.9569 0.0000 6.7278
#
#
#
# Elastic Compliance Matrix: (Units=1/GPa)
#
#
# Indices 1 2 3 4 5 6 
#
# 1 0.014685 -0.000307 -0.005413 0.000000 -0.010405 0.000000
# 2 -0.000307 0.011701 -0.004603 0.000000 -0.007803 0.000000
# 3 -0.005413 -0.004603 0.014066 0.000000 0.016099 0.000000
# 4 0.000000 0.000000 0.000000 0.032754 0.000000 -0.009527
# 5 -0.010405 -0.007803 0.016099 0.000000 0.070589 0.000000
# 6 0.000000 0.000000 0.000000 -0.009527 0.000000 0.151409
#
#
# Mechanical properties :
#
#
# Convention : Reuss Voigt Hill
#
# Bulk Modulus (GPa) = 50.49537 52.17287 51.33412
# Shear Modulus (GPa) = 15.50617 26.24058 20.87337
#
# Velocity S-wave (km/s) = 2.79492 3.63584 3.24275
# Velocity P-wave (km/s) = 5.98779 6.62639 6.31517
#
# Compressibility (1/GPa) = 0.01980380
#
# Stress axis : x y z
#
# Youngs Moduli (GPa) = 68.09891 85.46409 71.09250
#
# Poissons Ratio (x) = 0.02626 0.38483
# Poissons Ratio (y) = 0.02093 0.32727
# Poissons Ratio (z) = 0.36863 0.39343
#
# Static dielectric constant tensor:
#      x y z
#    x 1.785910 0.000000 0.011650 
#    y 0.000000 1.716240 0.000000 
#    z 0.011650 0.000000 1.743720 
# 
# From -- ./inp_files/178812.got.cif
#   From: 2010.05.17/outbox.cif.g08.bks.cpg/sg15_90_cif.got.tgz:178812.got - 2010.06.03 18:47:42.
