data_PCOD9273561
_publ_section_title
;
Structure prediction by ZEFSAII (Michael W. Deem and Ramdas Pophale) SiO2 
 PCOD9273561
Probable space group: C 2/C
;
_chemical_formula_sum "Si O2"
_cell_formula_units_Z 56
_cell_length_a 20.599931
_cell_length_b 20.792748
_cell_length_c 8.607977
_cell_angle_alpha 90.000000
_cell_angle_beta 33.571794
_cell_angle_gamma 90.000000
_cell_volume 2038.868955
_symmetry_space_group_name_H-M "C 2/C"
_symmetry_group_IT_number 15
_symmetry_cell_setting 'monoclinic'
loop_
_space_group_symop_operation_xyz
x,y,z
-x,y,1/2-z
-x,-y,-z
x,-y,1/2+z
1/2+x,1/2+y,z
1/2-x,1/2+y,1/2-z
1/2-x,1/2-y,-z
1/2+x,1/2-y,1/2+z
loop_
_atom_site_type_symbol
_atom_site_label
_atom_site_fract_x
_atom_site_fract_y
_atom_site_fract_z
Si Si1 0.874810 0.867290 0.151150
Si Si2 0.667474 0.964538 0.057884
Si Si3 0.055211 0.939113 0.971964
Si Si4 0.187081 0.589212 0.846951
Si Si5 0.174224 0.746088 0.853546
Si Si6 0.670355 0.144140 0.318403
Si Si7 0.525994 0.247862 0.465045
O O1 0.827938 0.912697 0.107531
O O2 0.770691 0.870150 0.487640
O O3 0.903096 0.793588 0.056330
O O4 0.998263 0.883508 0.982879
O O5 0.808216 0.950950 0.785695
O O6 0.634137 0.918942 0.982105
O O7 0.639881 0.038382 0.069888
O O8 0.635582 0.939196 0.291313
O O9 0.000000 0.929609 0.250000
O O10 0.000000 0.000000 0.000000
O O11 0.179403 0.667213 0.856165
O O12 0.269247 0.803318 0.686726
O O13 0.096232 0.758432 0.163866
O O14 0.106546 0.757371 0.825898
O O15 0.559402 0.177313 0.457367
#
# Coordination Sequence:
#
# PCOD9273561 Si02
#       7
#     8   8   8   8   8   8   8
#     4  11  20  38  64  93 132 165 208 260 323 386
#     4  12  26  39  64  92 133 170 212 262 331 384
#     4  12  23  36  57  90 127 162 209 253 309 392
#     4  12  24  43  62  93 131 174 209 270 326 390
#     4  10  21  39  68  98 129 167 224 264 318 385
#     4  11  20  42  66  97 126 172 214 270 322 382
#     4  10  20  37  70  97 121 170 219 267 314 384
#
# _framework density 27.46621
#
# number of rings (size 3 to 8) (size 9 to 14) (size 15 to 20)
#    0.000    0.857    5.714    3.429    2.000    0.571 
#    0.000    1.429    0.000    0.000    0.000    0.000 
#    0.000    0.000    0.000    0.000    0.000    0.000 
#
# Total GULP energy -156446.271113 kJ/mol
# GULP energy per Si atom -5587.366825 kJ/mol
# Density = 2.740370 g / cm^3
# Si number density = 27.466210 Si / 1000 Ang^3
#
#
#
# Elastic Constant Matrix: (Units=GPa)
#
#
# Indices 1 2 3 4 5 6 
#
# 1 98.2416 34.7564 10.4530 0.0000 2.5892 0.0000
# 2 34.7564 164.4257 1.5753 0.0000 7.4853 0.0000
# 3 10.4530 1.5753 76.3957 0.0000 3.1272 0.0000
# 4 0.0000 0.0000 0.0000 15.2266 0.0000 8.3847
# 5 2.5892 7.4853 3.1272 0.0000 36.8568 0.0000
# 6 0.0000 0.0000 0.0000 8.3847 0.0000 58.1269
#
#
#
# Elastic Compliance Matrix: (Units=1/GPa)
#
#
# Indices 1 2 3 4 5 6 
#
# 1 0.011168 -0.002338 -0.001472 0.000000 -0.000185 0.000000
# 2 -0.002338 0.006628 0.000232 0.000000 -0.001202 0.000000
# 3 -0.001472 0.000232 0.013330 0.000000 -0.001075 0.000000
# 4 0.000000 0.000000 0.000000 0.071341 0.000000 -0.010291
# 5 -0.000185 -0.001202 -0.001075 0.000000 0.027480 0.000000
# 6 0.000000 0.000000 0.000000 -0.010291 0.000000 0.018688
#
#
# Mechanical properties :
#
#
# Convention : Reuss Voigt Hill
#
# Bulk Modulus (GPa) = 41.71766 48.07027 44.89397
# Shear Modulus (GPa) = 30.52828 41.52726 36.02777
#
# Velocity S-wave (km/s) = 3.33751 3.89259 3.62569
# Velocity P-wave (km/s) = 5.48395 6.14350 5.82307
#
# Compressibility (1/GPa) = 0.02397066
#
# Stress axis : x y z
#
# Youngs Moduli (GPa) = 89.54398 150.86402 75.01649
#
# Poissons Ratio (x) = 0.35274 0.11044
# Poissons Ratio (y) = 0.20936 -0.01744
# Poissons Ratio (z) = 0.13183 -0.03506
#
# Static dielectric constant tensor:
#      x y z
#    x 2.026010 0.000000 -0.057930 
#    y 0.000000 2.507430 0.000000 
#    z -0.057930 0.000000 2.286120 
# 
# From -- ./inp_files/57799.got.cif
#   From: 2010.05.17/outbox.cif.g08.bks.cpg/sg15_29_cif.got.tgz:57799.got - 2010.06.03 18:47:42.
