data_PCOD9273073
_publ_section_title
;
Structure prediction by ZEFSAII (Michael W. Deem and Ramdas Pophale) SiO2 
 PCOD9273073
Probable space group: C 2/C
;
_chemical_formula_sum "Si O2"
_cell_formula_units_Z 48
_cell_length_a 13.942892
_cell_length_b 29.123821
_cell_length_c 7.450141
_cell_angle_alpha 90.000000
_cell_angle_beta 40.253491
_cell_angle_gamma 90.000000
_cell_volume 1954.847231
_symmetry_space_group_name_H-M "C 2/C"
_symmetry_group_IT_number 15
_symmetry_cell_setting 'monoclinic'
loop_
_space_group_symop_operation_xyz
x,y,z
-x,y,1/2-z
-x,-y,-z
x,-y,1/2+z
1/2+x,1/2+y,z
1/2-x,1/2+y,1/2-z
1/2-x,1/2-y,-z
1/2+x,1/2-y,1/2+z
loop_
_atom_site_type_symbol
_atom_site_label
_atom_site_fract_x
_atom_site_fract_y
_atom_site_fract_z
Si Si1 0.765326 0.135227 0.585533
Si Si2 0.667018 0.730491 0.944963
Si Si3 0.420527 0.561109 0.578043
Si Si4 0.469652 0.084952 0.087670
Si Si5 0.202165 0.964915 0.860525
Si Si6 0.851799 0.327964 0.590352
O O1 0.750339 0.183237 0.717227
O O2 0.882907 0.107263 0.532261
O O3 0.774043 0.153401 0.367799
O O4 0.626137 0.100464 0.784121
O O5 0.500000 0.719040 0.250000
O O6 0.750000 0.750000 0.000000
O O7 0.667854 0.775585 0.817596
O O8 0.346815 0.517836 0.580812
O O9 0.596390 0.556169 0.359072
O O10 0.349855 0.556320 0.875990
O O11 0.500000 0.071630 0.250000
O O12 0.375472 0.047132 0.113434
O O13 0.377595 0.132788 0.200009
O O14 0.000000 0.325742 0.250000
#
# Coordination Sequence:
#
# PCOD9273073 Si02
#       6
#     8   8   8   8   8   8
#     4  10  20  37  62  91 116 154 205 248 299 359
#     4   9  18  36  60  91 122 155 201 256 294 347
#     4  10  22  41  60  85 117 155 200 249 305 365
#     4  11  21  39  59  85 124 161 192 250 302 355
#     4  10  23  41  59  83 121 157 198 251 301 366
#     4   8  18  35  60  87 118 152 200 245 291 352
#
# _framework density 24.554348000000001
#
# number of rings (size 3 to 8) (size 9 to 14) (size 15 to 20)
#    0.000    2.333    1.667    1.000    2.333    3.333 
#    3.000    0.833    3.667    0.000    0.000    0.000 
#    0.000    0.000    0.000    0.000    0.000    0.000 
#
# Total GULP energy -133942.838276 kJ/mol
# GULP energy per Si atom -5580.951595 kJ/mol
# Density = 2.449846 g / cm^3
# Si number density = 24.554348 Si / 1000 Ang^3
#
#
#
# Elastic Constant Matrix: (Units=GPa)
#
#
# Indices 1 2 3 4 5 6 
#
# 1 138.1921 82.0669 29.7230 0.0000 -24.7588 0.0000
# 2 82.0669 157.1454 16.1513 0.0000 -13.2344 0.0000
# 3 29.7230 16.1513 52.3219 0.0000 -7.4788 0.0000
# 4 0.0000 0.0000 0.0000 16.5888 0.0000 -9.1475
# 5 -24.7588 -13.2344 -7.4788 0.0000 32.0271 0.0000
# 6 0.0000 0.0000 0.0000 -9.1475 0.0000 45.3061
#
#
#
# Elastic Compliance Matrix: (Units=1/GPa)
#
#
# Indices 1 2 3 4 5 6 
#
# 1 0.012714 -0.005628 -0.004565 0.000000 0.006437 0.000000
# 2 -0.005628 0.009235 0.000280 0.000000 -0.000470 0.000000
# 3 -0.004565 0.000280 0.021861 0.000000 0.001691 0.000000
# 4 0.000000 0.000000 0.000000 0.067834 0.000000 0.013696
# 5 0.006437 -0.000470 0.001691 0.000000 0.036400 0.000000
# 6 0.000000 0.000000 0.000000 0.013696 0.000000 0.024837
#
#
# Mechanical properties :
#
#
# Convention : Reuss Voigt Hill
#
# Bulk Modulus (GPa) = 41.69783 67.06021 54.37902
# Shear Modulus (GPa) = 24.91242 33.43226 29.17234
#
# Velocity S-wave (km/s) = 3.18871 3.69394 3.45058
# Velocity P-wave (km/s) = 5.52954 6.75010 6.17007
#
# Compressibility (1/GPa) = 0.02398206
#
# Stress axis : x y z
#
# Youngs Moduli (GPa) = 78.65439 108.28889 45.74312
#
# Poissons Ratio (x) = 0.60949 0.20882
# Poissons Ratio (y) = 0.44269 -0.01279
# Poissons Ratio (z) = 0.35906 -0.03027
#
# Static dielectric constant tensor:
#      x y z
#    x 2.010220 0.000000 -0.081340 
#    y 0.000000 2.007780 0.000000 
#    z -0.081340 0.000000 2.059490 
# 
# From -- ./inp_files/43835.got.cif
#   From: 2010.05.17/outbox.cif.g08.bks.cpg/sg15_22_cif.got.tgz:43835.got - 2010.06.03 18:47:42.
