data_PCOD9273008
_publ_section_title
;
Structure prediction by ZEFSAII (Michael W. Deem and Ramdas Pophale) SiO2 
 PCOD9273008
Probable space group: C 2/C
;
_chemical_formula_sum "Si O2"
_cell_formula_units_Z 60
_cell_length_a 9.622900
_cell_length_b 21.170942
_cell_length_c 15.137110
_cell_angle_alpha 90.000000
_cell_angle_beta 125.349602
_cell_angle_gamma 90.000000
_cell_volume 2515.278349
_symmetry_space_group_name_H-M "C 2/C"
_symmetry_group_IT_number 15
_symmetry_cell_setting 'monoclinic'
loop_
_space_group_symop_operation_xyz
x,y,z
-x,y,1/2-z
-x,-y,-z
x,-y,1/2+z
1/2+x,1/2+y,z
1/2-x,1/2+y,1/2-z
1/2-x,1/2-y,-z
1/2+x,1/2-y,1/2+z
loop_
_atom_site_type_symbol
_atom_site_label
_atom_site_fract_x
_atom_site_fract_y
_atom_site_fract_z
Si Si1 0.343207 0.954697 0.625498
Si Si2 0.739899 0.340090 0.200026
Si Si3 0.197106 0.012369 0.410705
Si Si4 0.848594 0.152060 0.031771
Si Si5 0.188944 0.799353 0.808282
Si Si6 0.175568 0.974061 0.213134
Si Si7 0.241078 0.177321 0.145662
Si Si8 0.000000 0.215621 0.750000
O O1 0.500000 0.963170 0.750000
O O2 0.296196 0.881179 0.607315
O O3 0.341015 0.984143 0.527585
O O4 0.200597 0.991407 0.629510
O O5 0.832035 0.272061 0.235668
O O6 0.781387 0.408594 0.254649
O O7 0.568713 0.323089 0.191846
O O8 0.735205 0.352220 0.094251
O O9 0.147168 0.081693 0.426541
O O10 0.232047 0.013995 0.319185
O O11 0.029504 0.967653 0.356739
O O12 0.748006 0.193640 0.068455
O O13 0.036744 0.179265 0.077790
O O14 0.290267 0.834004 0.768041
O O15 0.000000 0.827142 0.750000
O O16 0.345075 0.239747 0.160153
#
# Coordination Sequence:
#
# PCOD9273008 Si02
#       8
#     8   8   8   8   8   8   8   4
#     4  12  23  39  63  94 128 165 204 261 325 375
#     4  11  22  39  60  88 132 159 200 261 314 374
#     4  11  23  40  67  96 121 165 219 259 313 375
#     4  11  20  38  66  93 114 159 220 264 301 365
#     4   9  21  38  63  89 116 165 209 254 309 366
#     4  11  23  41  65  93 128 165 211 263 311 380
#     4  10  20  37  62  86 122 155 207 254 304 376
#     4  10  22  40  56  88 124 168 194 246 326 374
#
# _framework density 23.854217999999999
#
# number of rings (size 3 to 8) (size 9 to 14) (size 15 to 20)
#    0.000    1.333    3.333    3.200    3.733    1.600 
#    0.000    2.667    0.000    0.000    0.000    0.000 
#    0.000    0.000    0.000    0.000    0.000    0.000 
#
# Total GULP energy -167292.403084 kJ/mol
# GULP energy per Si atom -5576.413436 kJ/mol
# Density = 2.379993 g / cm^3
# Si number density = 23.854218 Si / 1000 Ang^3
#
#
#
# Elastic Constant Matrix: (Units=GPa)
#
#
# Indices 1 2 3 4 5 6 
#
# 1 31.5098 -7.9641 -9.2016 0.0000 -10.4505 0.0000
# 2 -7.9641 101.8786 6.2091 0.0000 -6.0983 0.0000
# 3 -9.2016 6.2091 71.0875 0.0000 -15.3214 0.0000
# 4 0.0000 0.0000 0.0000 28.1303 0.0000 -4.8181
# 5 -10.4505 -6.0983 -15.3214 0.0000 34.5235 0.0000
# 6 0.0000 0.0000 0.0000 -4.8181 0.0000 28.2184
#
#
#
# Elastic Compliance Matrix: (Units=1/GPa)
#
#
# Indices 1 2 3 4 5 6 
#
# 1 0.040730 0.003666 0.008568 0.000000 0.016779 0.000000
# 2 0.003666 0.010269 0.000230 0.000000 0.003026 0.000000
# 3 0.008568 0.000230 0.017387 0.000000 0.010351 0.000000
# 4 0.000000 0.000000 0.000000 0.036620 0.000000 0.006253
# 5 0.016779 0.003026 0.010351 0.000000 0.039173 0.000000
# 6 0.000000 0.000000 0.000000 0.006253 0.000000 0.036506
#
#
# Mechanical properties :
#
#
# Convention : Reuss Voigt Hill
#
# Bulk Modulus (GPa) = 10.71640 20.28472 15.50056
# Shear Modulus (GPa) = 26.75782 32.53660 29.64721
#
# Velocity S-wave (km/s) = 3.35285 3.69721 3.52923
# Velocity P-wave (km/s) = 4.41486 5.17184 4.80827
#
# Compressibility (1/GPa) = 0.09331493
#
# Stress axis : x y z
#
# Youngs Moduli (GPa) = 24.55191 97.37748 57.51398
#
# Poissons Ratio (x) = -0.35700 -0.49280
# Poissons Ratio (y) = -0.09001 -0.01321
# Poissons Ratio (z) = -0.21037 -0.02237
#
# Static dielectric constant tensor:
#      x y z
#    x 1.951350 0.000000 0.030340 
#    y 0.000000 1.935230 0.000000 
#    z 0.030340 0.000000 2.007220 
# 
# From -- ./inp_files/147175.got.cif
#   From: 2010.05.17/outbox.cif.g08.bks.cpg/sg15_74_cif.got.tgz:147175.got - 2010.06.03 18:47:42.
