data_PCOD9273542
_publ_section_title
;
Structure prediction by ZEFSAII (Michael W. Deem and Ramdas Pophale) SiO2 
 PCOD9273542
Probable space group: C 2/C
;
_chemical_formula_sum "Si O2"
_cell_formula_units_Z 48
_cell_length_a 19.640123
_cell_length_b 7.388473
_cell_length_c 19.197241
_cell_angle_alpha 90.000000
_cell_angle_beta 42.408951
_cell_angle_gamma 90.000000
_cell_volume 1878.740074
_symmetry_space_group_name_H-M "C 2/C"
_symmetry_group_IT_number 15
_symmetry_cell_setting 'monoclinic'
loop_
_space_group_symop_operation_xyz
x,y,z
-x,y,1/2-z
-x,-y,-z
x,-y,1/2+z
1/2+x,1/2+y,z
1/2-x,1/2+y,1/2-z
1/2-x,1/2-y,-z
1/2+x,1/2-y,1/2+z
loop_
_atom_site_type_symbol
_atom_site_label
_atom_site_fract_x
_atom_site_fract_y
_atom_site_fract_z
Si Si1 0.706999 0.992337 0.695533
Si Si2 0.036526 0.874847 0.122257
Si Si3 0.582955 0.631105 0.970901
Si Si4 0.678873 0.078108 0.555105
Si Si5 0.993460 0.519267 0.909773
Si Si6 0.170145 0.135609 0.656278
O O1 0.715752 0.776341 0.677777
O O2 0.807077 0.095081 0.642966
O O3 0.678867 0.030918 0.636197
O O4 0.612529 0.045789 0.813433
O O5 0.105056 0.809721 0.135628
O O6 0.022895 0.697171 0.084589
O O7 0.925913 0.946878 0.229346
O O8 0.091027 0.036175 0.041126
O O9 0.552357 0.841297 0.999223
O O10 0.500000 0.500000 0.000000
O O11 0.750000 0.250000 0.500000
O O12 0.564688 0.090462 0.615356
O O13 0.735649 0.959555 0.452084
#
# Coordination Sequence:
#
# PCOD9273542 Si02
#       6
#     8   8   8   8   8   8
#     4  11  22  42  64  97 132 167 215 272 338 393
#     4  10  21  41  66 101 134 169 216 269 338 395
#     4  12  27  47  65  90 133 180 229 270 318 399
#     4  12  20  34  66 105 135 167 207 270 345 403
#     4  11  24  41  67  97 127 171 221 276 334 396
#     4  10  20  37  68 102 137 166 206 280 342 396
#
# _framework density 25.549037999999999
#
# number of rings (size 3 to 8) (size 9 to 14) (size 15 to 20)
#    0.000    1.000    5.000    2.000    2.333    0.667 
#    6.000    0.000    0.000    0.000    0.000    0.000 
#    0.000    0.000    0.000    0.000    0.000    0.000 
#
# Total GULP energy -133942.071698 kJ/mol
# GULP energy per Si atom -5580.919654 kJ/mol
# Density = 2.549089 g / cm^3
# Si number density = 25.549038 Si / 1000 Ang^3
#
#
#
# Elastic Constant Matrix: (Units=GPa)
#
#
# Indices 1 2 3 4 5 6 
#
# 1 71.2120 7.9613 34.4707 0.0000 -3.4529 -0.0007
# 2 7.9613 83.1879 50.4408 -0.0002 -14.1413 -0.0010
# 3 34.4707 50.4408 135.4820 0.0002 -41.0384 -0.0006
# 4 0.0000 -0.0002 0.0002 28.0023 0.0000 -2.1908
# 5 -3.4529 -14.1413 -41.0384 0.0000 44.1081 0.0004
# 6 -0.0007 -0.0010 -0.0006 -2.1908 0.0004 20.4651
#
#
#
# Elastic Compliance Matrix: (Units=1/GPa)
#
#
# Indices 1 2 3 4 5 6 
#
# 1 0.016531 0.001316 -0.005815 0.000000 -0.003694 0.000001
# 2 0.001316 0.015640 -0.006416 0.000000 -0.000852 0.000001
# 3 -0.005815 -0.006416 0.014604 0.000000 0.011075 0.000000
# 4 0.000000 0.000000 0.000000 0.036013 0.000000 0.003855
# 5 -0.003694 -0.000852 0.011075 0.000000 0.032414 0.000000
# 6 0.000001 0.000001 0.000000 0.003855 0.000000 0.049276
#
#
# Mechanical properties :
#
#
# Convention : Reuss Voigt Hill
#
# Bulk Modulus (GPa) = 40.08718 52.84751 46.46735
# Shear Modulus (GPa) = 25.69056 31.64905 28.66980
#
# Velocity S-wave (km/s) = 3.17446 3.52342 3.35348
# Velocity P-wave (km/s) = 5.40006 6.10592 5.76381
#
# Compressibility (1/GPa) = 0.02494563
#
# Stress axis : x y z
#
# Youngs Moduli (GPa) = 60.49205 63.93659 68.47413
#
# Poissons Ratio (x) = -0.08413 0.39817
# Poissons Ratio (y) = -0.07959 0.43932
# Poissons Ratio (z) = 0.35176 0.41021
#
# Static dielectric constant tensor:
#      x y z
#    x 1.016270 0.000080 -0.421420 
#    y 0.000080 0.721850 0.000030 
#    z -0.421420 0.000030 1.834560 
# 
# From -- ./inp_files/251772.got.cif
#   From: 2010.05.17/outbox.cif.g08.bks.cpg/sg15_126_cif.got.tgz:251772.got - 2010.06.03 18:47:42.
