data_PCOD9273947
_publ_section_title
;
Structure prediction by ZEFSAII (Michael W. Deem and Ramdas Pophale) SiO2 
 PCOD9273947
Probable space group: C 2/C
;
_chemical_formula_sum "Si O2"
_cell_formula_units_Z 48
_cell_length_a 21.471356
_cell_length_b 11.034954
_cell_length_c 20.036637
_cell_angle_alpha 90.000000
_cell_angle_beta 147.646776
_cell_angle_gamma 90.000000
_cell_volume 2540.505048
_symmetry_space_group_name_H-M "C 2/C"
_symmetry_group_IT_number 15
_symmetry_cell_setting 'monoclinic'
loop_
_space_group_symop_operation_xyz
x,y,z
-x,y,1/2-z
-x,-y,-z
x,-y,1/2+z
1/2+x,1/2+y,z
1/2-x,1/2+y,1/2-z
1/2-x,1/2-y,-z
1/2+x,1/2-y,1/2+z
loop_
_atom_site_type_symbol
_atom_site_label
_atom_site_fract_x
_atom_site_fract_y
_atom_site_fract_z
Si Si1 0.475212 0.483467 0.800643
Si Si2 0.690485 0.544069 0.162355
Si Si3 0.521622 0.668213 0.474239
Si Si4 0.899431 0.557241 0.453982
Si Si5 0.709873 0.622885 0.038249
Si Si6 0.278708 0.089276 0.955306
O O1 0.500000 0.428440 0.750000
O O2 0.489479 0.390406 0.873839
O O3 0.347728 0.541112 0.682543
O O4 0.576067 0.583273 0.903585
O O5 0.593854 0.649286 0.085818
O O6 0.782905 0.549372 0.304299
O O7 0.746996 0.562367 0.141110
O O8 0.619590 0.417974 0.096111
O O9 0.566232 0.803046 0.505159
O O10 0.873533 0.484277 0.498670
O O11 0.000000 0.500000 0.500000
O O12 0.716168 0.766909 0.051482
O O13 0.781153 0.577985 0.038107
#
# Coordination Sequence:
#
# PCOD9273947 Si02
#       6
#     8   8   8   8   8   8
#     4   9  18  38  64  88 114 160 202 241 309 371
#     4  10  22  40  62  87 120 163 211 247 307 374
#     4  10  22  40  63  88 120 165 202 251 312 365
#     4  12  26  38  61  93 126 158 209 258 311 361
#     4   9  20  36  63  91 116 161 204 250 311 365
#     4  10  20  38  60  89 127 156 200 260 303 370
#
# _framework density 18.893879999999999
#
# number of rings (size 3 to 8) (size 9 to 14) (size 15 to 20)
#    0.000    2.000    1.667    1.000    4.667    1.333 
#    0.000   11.667    0.000    0.000    0.000    0.000 
#    0.000    0.000    0.000    0.000    0.000    0.000 
#
# Total GULP energy -133952.347390 kJ/mol
# GULP energy per Si atom -5581.347808 kJ/mol
# Density = 1.885088 g / cm^3
# Si number density = 18.893880 Si / 1000 Ang^3
#
#
#
# Elastic Constant Matrix: (Units=GPa)
#
#
# Indices 1 2 3 4 5 6 
#
# 1 147.5832 64.6119 40.6757 0.0000 0.1708 0.0000
# 2 64.6119 105.0786 40.5811 0.0000 -3.3095 0.0000
# 3 40.6757 40.5811 48.8571 0.0000 -11.3261 0.0000
# 4 0.0000 0.0000 0.0000 3.1287 0.0000 2.1327
# 5 0.1708 -3.3095 -11.3261 0.0000 24.7675 0.0000
# 6 0.0000 0.0000 0.0000 2.1327 0.0000 33.1289
#
#
#
# Elastic Compliance Matrix: (Units=1/GPa)
#
#
# Indices 1 2 3 4 5 6 
#
# 1 0.010187 -0.004120 -0.005821 0.000000 -0.003283 0.000000
# 2 -0.004120 0.016015 -0.010481 0.000000 -0.002624 0.000000
# 3 -0.005821 -0.010481 0.037700 0.000000 0.015880 0.000000
# 4 0.000000 0.000000 0.000000 0.334287 0.000000 -0.021520
# 5 -0.003283 -0.002624 0.015880 0.000000 0.047309 0.000000
# 6 0.000000 0.000000 0.000000 -0.021520 0.000000 0.031571
#
#
# Mechanical properties :
#
#
# Convention : Reuss Voigt Hill
#
# Bulk Modulus (GPa) = 43.36360 65.91739 54.64049
# Shear Modulus (GPa) = 9.51297 22.58170 16.04734
#
# Velocity S-wave (km/s) = 2.24630 3.46090 2.91751
# Velocity P-wave (km/s) = 5.45241 7.13683 6.35072
#
# Compressibility (1/GPa) = 0.02306082
#
# Stress axis : x y z
#
# Youngs Moduli (GPa) = 98.15991 62.44248 26.52492
#
# Poissons Ratio (x) = 0.25724 0.15439
# Poissons Ratio (y) = 0.40438 0.27800
# Poissons Ratio (z) = 0.57136 0.65443
#
# Static dielectric constant tensor:
#      x y z
#    x 1.708690 0.000000 -0.004630 
#    y 0.000000 1.622780 0.000000 
#    z -0.004630 0.000000 1.650430 
# 
# From -- ./inp_files/252606.got.cif
#   From: 2010.05.17/outbox.cif.g08.bks.cpg/sg15_127_cif.got.tgz:252606.got - 2010.06.03 18:47:42.
