data_PCOD9273581
_publ_section_title
;
Structure prediction by ZEFSAII (Michael W. Deem and Ramdas Pophale) SiO2 
 PCOD9273581
Probable space group: C 2/C
;
_chemical_formula_sum "Si O2"
_cell_formula_units_Z 64
_cell_length_a 9.085244
_cell_length_b 23.811935
_cell_length_c 23.390779
_cell_angle_alpha 90.000000
_cell_angle_beta 146.126626
_cell_angle_gamma 90.000000
_cell_volume 2820.403514
_symmetry_space_group_name_H-M "C 2/C"
_symmetry_group_IT_number 15
_symmetry_cell_setting 'monoclinic'
loop_
_space_group_symop_operation_xyz
x,y,z
-x,y,1/2-z
-x,-y,-z
x,-y,1/2+z
1/2+x,1/2+y,z
1/2-x,1/2+y,1/2-z
1/2-x,1/2-y,-z
1/2+x,1/2-y,1/2+z
loop_
_atom_site_type_symbol
_atom_site_label
_atom_site_fract_x
_atom_site_fract_y
_atom_site_fract_z
Si Si1 0.889456 0.786687 0.657546
Si Si2 0.699045 0.817431 0.454284
Si Si3 0.177434 0.315833 0.980929
Si Si4 0.088771 0.475162 0.840795
Si Si5 0.669508 0.437769 0.994469
Si Si6 0.691011 0.185316 0.358545
Si Si7 0.941815 0.909774 0.798962
Si Si8 0.175832 0.815889 0.356563
O O1 0.860812 0.734533 0.606073
O O2 0.617210 0.814772 0.590523
O O3 0.061292 0.841581 0.698119
O O4 0.000000 0.758712 0.750000
O O5 0.699095 0.881986 0.436160
O O6 0.476959 0.815750 0.431483
O O7 0.010209 0.811182 0.567272
O O8 0.202237 0.339369 0.925874
O O9 0.250000 0.250000 0.000000
O O10 0.345933 0.341324 0.087308
O O11 0.363771 0.443843 0.914569
O O12 0.000000 0.501908 0.750000
O O13 0.838257 0.437885 0.777699
O O14 0.168975 0.512967 0.921849
O O15 0.642163 0.430270 0.915625
O O16 0.500000 0.159093 0.250000
O O17 0.594601 0.250142 0.335507
O O18 0.000000 0.922230 0.750000
O O19 0.000000 0.841908 0.250000
#
# Coordination Sequence:
#
# PCOD9273581 Si02
#       8
#     8   8   8   8   8   8   8   8
#     4  11  25  38  63  96 148 178 227 272 330 417
#     4  12  24  39  62  98 138 183 224 269 339 406
#     4  10  20  38  51  81 123 177 216 260 308 381
#     4   9  21  48  71  99 130 168 235 292 344 407
#     4  10  23  41  73  99 130 174 225 295 344 400
#     4  10  23  36  60  83 124 184 221 259 317 393
#     4  10  23  42  68 103 132 177 224 279 343 413
#     4  10  22  37  56  80 124 176 215 264 313 387
#
# _framework density 22.691789
#
# number of rings (size 3 to 8) (size 9 to 14) (size 15 to 20)
#    0.000    1.750    2.500    1.125    7.000    5.500 
#    0.000    0.625    0.000    3.000    0.000    0.000 
#    0.000    0.000    0.000    0.000    0.000    0.000 
#
# Total GULP energy -178351.036501 kJ/mol
# GULP energy per Si atom -5573.469891 kJ/mol
# Density = 2.264014 g / cm^3
# Si number density = 22.691789 Si / 1000 Ang^3
#
#
#
# Elastic Constant Matrix: (Units=GPa)
#
#
# Indices 1 2 3 4 5 6 
#
# 1 145.6096 41.8719 100.6955 0.0000 -47.5266 0.0002
# 2 41.8719 83.0169 43.6593 -0.0004 -12.9149 0.0000
# 3 100.6955 43.6593 158.4188 -0.0008 -43.7925 -0.0002
# 4 0.0000 -0.0004 -0.0008 34.5309 -0.0004 -2.4754
# 5 -47.5266 -12.9149 -43.7925 -0.0004 45.9419 0.0000
# 6 0.0002 0.0000 -0.0002 -2.4754 0.0000 23.6343
#
#
#
# Elastic Compliance Matrix: (Units=1/GPa)
#
#
# Indices 1 2 3 4 5 6 
#
# 1 0.014809 -0.002844 -0.006266 0.000000 0.008547 0.000000
# 2 -0.002844 0.014638 -0.002583 0.000000 -0.001289 0.000000
# 3 -0.006266 -0.002583 0.012240 0.000000 0.004459 0.000000
# 4 0.000000 0.000000 0.000000 0.029179 0.000000 0.003056
# 5 0.008547 -0.001289 0.004459 0.000000 0.034496 0.000000
# 6 0.000000 0.000000 0.000000 0.003056 0.000000 0.042631
#
#
# Mechanical properties :
#
#
# Convention : Reuss Voigt Hill
#
# Bulk Modulus (GPa) = 54.64462 84.38874 69.51668
# Shear Modulus (GPa) = 28.17247 34.20934 31.19091
#
# Velocity S-wave (km/s) = 3.52735 3.88695 3.71151
# Velocity P-wave (km/s) = 6.38147 7.57723 7.00491
#
# Compressibility (1/GPa) = 0.01830006
#
# Stress axis : x y z
#
# Youngs Moduli (GPa) = 67.52837 68.31564 81.70108
#
# Poissons Ratio (x) = 0.19429 0.51197
# Poissons Ratio (y) = 0.19205 0.21101
# Poissons Ratio (z) = 0.42316 0.17644
#
# Static dielectric constant tensor:
#      x y z
#    x 1.831480 0.000000 -0.057400 
#    y 0.000000 1.835860 0.000000 
#    z -0.057400 0.000000 1.976900 
# 
# From -- ./inp_files/266758.got.cif
#   From: 2010.05.17/outbox.cif.g08.bks.cpg/sg15_134_cif.got.tgz:266758.got - 2010.06.03 18:47:42.
