data_PCOD9273667
_publ_section_title
;
Structure prediction by ZEFSAII (Michael W. Deem and Ramdas Pophale) SiO2 
 PCOD9273667
Probable space group: C 2/C
;
_chemical_formula_sum "Si O2"
_cell_formula_units_Z 44
_cell_length_a 5.401965
_cell_length_b 30.399030
_cell_length_c 13.687317
_cell_angle_alpha 90.000000
_cell_angle_beta 108.238302
_cell_angle_gamma 90.000000
_cell_volume 2134.740477
_symmetry_space_group_name_H-M "C 2/C"
_symmetry_group_IT_number 15
_symmetry_cell_setting 'monoclinic'
loop_
_space_group_symop_operation_xyz
x,y,z
-x,y,1/2-z
-x,-y,-z
x,-y,1/2+z
1/2+x,1/2+y,z
1/2-x,1/2+y,1/2-z
1/2-x,1/2-y,-z
1/2+x,1/2-y,1/2+z
loop_
_atom_site_type_symbol
_atom_site_label
_atom_site_fract_x
_atom_site_fract_y
_atom_site_fract_z
Si Si1 0.143512 0.381136 0.640254
Si Si2 0.660235 0.465059 0.456903
Si Si3 0.961762 0.874775 0.986653
Si Si4 0.500000 0.303940 0.750000
Si Si5 0.473581 0.274530 0.965066
Si Si6 0.123958 0.474956 0.667300
O O1 0.304638 0.385632 0.559138
O O2 0.260809 0.336786 0.698589
O O3 0.217693 0.425937 0.706055
O O4 0.832809 0.375777 0.593458
O O5 0.500000 0.500000 0.500000
O O6 0.545160 0.415992 0.440016
O O7 0.695521 0.488702 0.358429
O O8 0.926032 0.463400 0.553746
O O9 0.001012 0.823487 0.015166
O O10 0.426571 0.279560 0.841860
O O11 0.250000 0.250000 0.000000
O O12 0.750000 0.250000 0.000000
O O13 0.000000 0.493400 0.750000
#
# Coordination Sequence:
#
# PCOD9273667 Si02
#       6
#     8   8   8   4   8   8
#     4  10  21  34  60  97 126 159 202 270 333 371
#     4  10  20  38  57  87 128 174 201 254 318 382
#     4  10  21  39  62  90 127 168 213 257 319 387
#     4  10  24  40  68 100 128 160 214 278 334 386
#     4  11  24  42  65  97 128 169 215 272 332 388
#     4  10  22  34  56  90 130 163 212 256 314 379
#
# _framework density 20.611405000000001
#
# number of rings (size 3 to 8) (size 9 to 14) (size 15 to 20)
#    0.000    1.818    1.818    2.182   10.182    4.364 
#    0.000    0.000    2.000    2.182    0.000    0.000 
#    0.000    0.000    0.000    0.000    0.000    0.000 
#
# Total GULP energy -122596.742150 kJ/mol
# GULP energy per Si atom -5572.579189 kJ/mol
# Density = 2.056449 g / cm^3
# Si number density = 20.611405 Si / 1000 Ang^3
#
#
#
# Elastic Constant Matrix: (Units=GPa)
#
#
# Indices 1 2 3 4 5 6 
#
# 1 123.7531 62.9200 38.6884 0.0000 -26.6604 0.0000
# 2 62.9200 175.5191 44.6142 0.0000 -35.3085 0.0000
# 3 38.6884 44.6142 83.7642 0.0000 -36.7075 0.0000
# 4 0.0000 0.0000 0.0000 20.0479 0.0000 -12.9645
# 5 -26.6604 -35.3085 -36.7075 0.0000 50.2208 0.0000
# 6 0.0000 0.0000 0.0000 -12.9645 0.0000 40.2008
#
#
#
# Elastic Compliance Matrix: (Units=1/GPa)
#
#
# Indices 1 2 3 4 5 6 
#
# 1 0.010728 -0.002809 -0.002690 0.000000 0.001754 0.000000
# 2 -0.002809 0.007657 -0.001582 0.000000 0.002736 0.000000
# 3 -0.002690 -0.001582 0.018994 0.000000 0.011343 0.000000
# 4 0.000000 0.000000 0.000000 0.063024 0.000000 0.020325
# 5 0.001754 0.002736 0.011343 0.000000 0.031057 0.000000
# 6 0.000000 0.000000 0.000000 0.020325 0.000000 0.031430
#
#
# Mechanical properties :
#
#
# Convention : Reuss Voigt Hill
#
# Bulk Modulus (GPa) = 43.07292 75.05350 59.06321
# Shear Modulus (GPa) = 27.05765 37.88148 32.46957
#
# Velocity S-wave (km/s) = 3.62712 4.29171 3.97334
# Velocity P-wave (km/s) = 6.20357 7.81352 7.05462
#
# Compressibility (1/GPa) = 0.02321645
#
# Stress axis : x y z
#
# Youngs Moduli (GPa) = 93.21722 130.60285 52.64811
#
# Poissons Ratio (x) = 0.36687 0.14163
# Poissons Ratio (y) = 0.26185 0.08328
# Poissons Ratio (z) = 0.25077 0.20659
#
# Static dielectric constant tensor:
#      x y z
#    x 1.821380 0.000000 0.053300 
#    y 0.000000 1.823510 0.000000 
#    z 0.053300 0.000000 1.823610 
# 
# From -- ./inp_files/130224.got.cif
#   From: 2010.05.17/outbox.cif.g08.bks.cpg/sg15_66_cif.got.tgz:130224.got - 2010.06.03 18:47:42.
