data_PCOD9273978
_publ_section_title
;
Structure prediction by ZEFSAII (Michael W. Deem and Ramdas Pophale) SiO2 
 PCOD9273978
Probable space group: C 2/C
;
_chemical_formula_sum "Si O2"
_cell_formula_units_Z 56
_cell_length_a 13.610353
_cell_length_b 10.214595
_cell_length_c 19.940134
_cell_angle_alpha 90.000000
_cell_angle_beta 65.103982
_cell_angle_gamma 90.000000
_cell_volume 2514.554105
_symmetry_space_group_name_H-M "C 2/C"
_symmetry_group_IT_number 15
_symmetry_cell_setting 'monoclinic'
loop_
_space_group_symop_operation_xyz
x,y,z
-x,y,1/2-z
-x,-y,-z
x,-y,1/2+z
1/2+x,1/2+y,z
1/2-x,1/2+y,1/2-z
1/2-x,1/2-y,-z
1/2+x,1/2-y,1/2+z
loop_
_atom_site_type_symbol
_atom_site_label
_atom_site_fract_x
_atom_site_fract_y
_atom_site_fract_z
Si Si1 0.785494 0.464316 0.943514
Si Si2 0.765950 0.813539 0.749120
Si Si3 0.420197 0.876659 0.019998
Si Si4 0.081284 0.874943 0.914805
Si Si5 0.394326 0.179772 0.826074
Si Si6 0.113418 0.943712 0.593814
Si Si7 0.776890 0.079326 0.820216
O O1 0.688245 0.409123 0.926556
O O2 0.860783 0.550847 0.874834
O O3 0.860930 0.367117 0.964973
O O4 0.721945 0.546922 0.018674
O O5 0.869096 0.834449 0.671362
O O6 0.799695 0.730487 0.804293
O O7 0.740167 0.960143 0.781694
O O8 0.692937 0.712832 0.727193
O O9 0.474777 0.742592 0.027870
O O10 0.325564 0.894925 0.102240
O O11 0.500000 0.000000 0.000000
O O12 0.989538 0.980150 0.922456
O O13 0.500000 0.162907 0.750000
O O14 0.405707 0.296706 0.875838
O O15 0.130279 0.028138 0.656255
#
# Coordination Sequence:
#
# PCOD9273978 Si02
#       7
#     8   8   8   8   8   8   8
#     4  11  23  38  62  94 122 161 213 271 317 368
#     4  10  20  38  60  93 125 166 206 260 324 374
#     4  10  22  40  63  89 124 166 210 262 316 378
#     4  11  21  38  63  91 128 160 210 261 321 378
#     4  11  21  37  63  88 121 167 217 258 306 386
#     4  10  21  40  62  92 121 167 211 259 313 382
#     4   9  21  37  64  93 127 164 214 263 315 378
#
# _framework density 22.270350000000001
#
# number of rings (size 3 to 8) (size 9 to 14) (size 15 to 20)
#    0.000    1.714    1.429    3.000    2.000    2.286 
#    0.000    1.429    0.000    5.143    0.000    0.000 
#    0.000    0.000    0.000    0.000    0.000    0.000 
#
# Total GULP energy -156256.495303 kJ/mol
# GULP energy per Si atom -5580.589118 kJ/mol
# Density = 2.221966 g / cm^3
# Si number density = 22.270350 Si / 1000 Ang^3
#
#
#
# Elastic Constant Matrix: (Units=GPa)
#
#
# Indices 1 2 3 4 5 6 
#
# 1 88.8409 16.7097 3.7631 0.0000 26.9887 0.0000
# 2 16.7097 72.6805 26.7050 0.0000 10.3802 0.0000
# 3 3.7631 26.7050 78.5473 0.0000 15.2829 0.0000
# 4 0.0000 0.0000 0.0000 30.7978 0.0000 6.9837
# 5 26.9887 10.3802 15.2829 0.0000 22.1470 0.0000
# 6 0.0000 0.0000 0.0000 6.9837 0.0000 27.8295
#
#
#
# Elastic Compliance Matrix: (Units=1/GPa)
#
#
# Indices 1 2 3 4 5 6 
#
# 1 0.019384 -0.002596 0.004982 0.000000 -0.025843 0.000000
# 2 -0.002596 0.016425 -0.005288 0.000000 -0.000886 0.000000
# 3 0.004982 -0.005288 0.017314 0.000000 -0.015541 0.000000
# 4 0.000000 0.000000 0.000000 0.034429 0.000000 -0.008640
# 5 -0.025843 -0.000886 -0.015541 0.000000 0.087785 0.000000
# 6 0.000000 0.000000 0.000000 -0.008640 0.000000 0.038101
#
#
# Mechanical properties :
#
#
# Convention : Reuss Voigt Hill
#
# Bulk Modulus (GPa) = 21.13263 37.15824 29.14544
# Shear Modulus (GPa) = 21.27519 29.01425 25.14472
#
# Velocity S-wave (km/s) = 3.09417 3.61338 3.36380
# Velocity P-wave (km/s) = 4.71963 5.84208 5.31060
#
# Compressibility (1/GPa) = 0.04732020
#
# Stress axis : x y z
#
# Youngs Moduli (GPa) = 51.58838 60.88256 57.75657
#
# Poissons Ratio (x) = 0.15807 -0.28776
# Poissons Ratio (y) = 0.13394 0.30539
# Poissons Ratio (z) = -0.25703 0.32192
#
# Static dielectric constant tensor:
#      x y z
#    x 1.882260 0.000000 0.048830 
#    y 0.000000 1.860520 0.000000 
#    z 0.048830 0.000000 1.800350 
# 
# From -- ./inp_files/237545.got.cif
#   From: 2010.05.17/outbox.cif.g08.bks.cpg/sg15_119_cif.got.tgz:237545.got - 2010.06.03 18:47:42.
