data_PCOD9273974
_publ_section_title
;
Structure prediction by ZEFSAII (Michael W. Deem and Ramdas Pophale) SiO2 
 PCOD9273974
Probable space group: C 2/C
;
_chemical_formula_sum "Si O2"
_cell_formula_units_Z 40
_cell_length_a 28.957062
_cell_length_b 7.280053
_cell_length_c 8.561543
_cell_angle_alpha 90.000000
_cell_angle_beta 101.482169
_cell_angle_gamma 90.000000
_cell_volume 1768.728859
_symmetry_space_group_name_H-M "C 2/C"
_symmetry_group_IT_number 15
_symmetry_cell_setting 'monoclinic'
loop_
_space_group_symop_operation_xyz
x,y,z
-x,y,1/2-z
-x,-y,-z
x,-y,1/2+z
1/2+x,1/2+y,z
1/2-x,1/2+y,1/2-z
1/2-x,1/2-y,-z
1/2+x,1/2-y,1/2+z
loop_
_atom_site_type_symbol
_atom_site_label
_atom_site_fract_x
_atom_site_fract_y
_atom_site_fract_z
Si Si1 0.457283 0.272681 0.799817
Si Si2 0.623454 0.829612 0.680199
Si Si3 0.064996 0.420232 0.921319
Si Si4 0.304385 0.710354 0.559119
Si Si5 0.856506 0.941922 0.808678
O O1 0.500000 0.385759 0.750000
O O2 0.466893 0.196395 0.982101
O O3 0.405517 0.361351 0.778054
O O4 0.453912 0.097465 0.681950
O O5 0.628732 0.635338 0.598702
O O6 0.604673 0.989035 0.559723
O O7 0.586731 0.799437 0.797928
O O8 0.671746 0.860131 0.808592
O O9 0.250000 0.750000 0.500000
O O10 0.318939 0.520651 0.657907
O O11 0.330638 0.690476 0.411841
#
# Coordination Sequence:
#
# PCOD9273974 Si02
#       5
#     8   8   8   8   8
#     4  11  21  38  64  94 130 171 212 256 317 377
#     4   9  21  38  63  87 128 163 211 257 319 367
#     4  10  20  38  60  92 130 170 203 260 312 374
#     4  10  22  41  63  90 124 160 211 263 321 367
#     4  10  21  43  62  93 128 162 216 261 306 382
#
# _framework density 22.615110999999999
#
# number of rings (size 3 to 8) (size 9 to 14) (size 15 to 20)
#    1.200    0.800    2.000    1.800    0.000    1.600 
#    0.000   14.000    0.000    0.000    0.000    0.000 
#    0.000    0.000    0.000    0.000    0.000    0.000 
#
# Total GULP energy -111368.439633 kJ/mol
# GULP energy per Si atom -5568.421982 kJ/mol
# Density = 2.256364 g / cm^3
# Si number density = 22.615111 Si / 1000 Ang^3
#
#
#
# Elastic Constant Matrix: (Units=GPa)
#
#
# Indices 1 2 3 4 5 6 
#
# 1 143.4653 37.7159 39.4887 0.0000 -6.0597 0.0000
# 2 37.7159 47.7289 15.7984 0.0000 -5.9726 0.0000
# 3 39.4887 15.7984 90.9903 0.0000 -6.6484 0.0000
# 4 0.0000 0.0000 0.0000 30.3169 0.0000 2.7138
# 5 -6.0597 -5.9726 -6.6484 0.0000 28.2383 0.0000
# 6 0.0000 0.0000 0.0000 2.7138 0.0000 20.4221
#
#
#
# Elastic Compliance Matrix: (Units=1/GPa)
#
#
# Indices 1 2 3 4 5 6 
#
# 1 0.009510 -0.006528 -0.002997 0.000000 -0.000046 0.000000
# 2 -0.006528 0.027132 -0.001588 0.000000 0.003964 0.000000
# 3 -0.002997 -0.001588 0.012714 0.000000 0.002014 0.000000
# 4 0.000000 0.000000 0.000000 0.033382 0.000000 -0.004436
# 5 -0.000046 0.003964 0.002014 0.000000 0.036716 0.000000
# 6 0.000000 0.000000 0.000000 -0.004436 0.000000 0.049556
#
#
# Mechanical properties :
#
#
# Convention : Reuss Voigt Hill
#
# Bulk Modulus (GPa) = 36.86109 52.02120 44.44115
# Shear Modulus (GPa) = 24.96525 28.40755 26.68640
#
# Velocity S-wave (km/s) = 3.32613 3.54804 3.43888
# Velocity P-wave (km/s) = 5.57544 6.31170 5.95496
#
# Compressibility (1/GPa) = 0.02712887
#
# Stress axis : x y z
#
# Youngs Moduli (GPa) = 105.15784 36.85678 78.65529
#
# Poissons Ratio (x) = 0.24061 0.23572
# Poissons Ratio (y) = 0.68650 0.12491
# Poissons Ratio (z) = 0.31514 0.05853
#
# Static dielectric constant tensor:
#      x y z
#    x 1.888570 0.000000 0.014130 
#    y 0.000000 1.860260 0.000000 
#    z 0.014130 0.000000 1.876830 
# 
# From -- ./inp_files/64601.got.cif
#   From: 2010.05.17/outbox.cif.g08.bks.cpg/sg15_33_cif.got.tgz:64601.got - 2010.06.03 18:47:42.
