data_PCOD9273265
_publ_section_title
;
Structure prediction by ZEFSAII (Michael W. Deem and Ramdas Pophale) SiO2 
 PCOD9273265
Probable space group: C 2/C
;
_chemical_formula_sum "Si O2"
_cell_formula_units_Z 60
_cell_length_a 18.674455
_cell_length_b 8.903281
_cell_length_c 17.201155
_cell_angle_alpha 90.000000
_cell_angle_beta 59.279158
_cell_angle_gamma 90.000000
_cell_volume 2458.587270
_symmetry_space_group_name_H-M "C 2/C"
_symmetry_group_IT_number 15
_symmetry_cell_setting 'monoclinic'
loop_
_space_group_symop_operation_xyz
x,y,z
-x,y,1/2-z
-x,-y,-z
x,-y,1/2+z
1/2+x,1/2+y,z
1/2-x,1/2+y,1/2-z
1/2-x,1/2-y,-z
1/2+x,1/2-y,1/2+z
loop_
_atom_site_type_symbol
_atom_site_label
_atom_site_fract_x
_atom_site_fract_y
_atom_site_fract_z
Si Si1 0.591031 0.943238 0.662713
Si Si2 0.838505 0.702611 0.154335
Si Si3 0.949405 0.354654 0.456851
Si Si4 0.254052 0.602681 0.797636
Si Si5 0.342977 0.619696 0.900614
Si Si6 0.889226 0.302052 0.218646
Si Si7 0.189818 0.857059 0.483955
Si Si8 0.000000 0.056464 0.250000
O O1 0.500000 0.905584 0.750000
O O2 0.644642 0.796023 0.617345
O O3 0.584507 0.016917 0.581035
O O4 0.621324 0.070447 0.707998
O O5 0.789673 0.551996 0.202628
O O6 0.842344 0.824762 0.220469
O O7 0.921521 0.648639 0.062142
O O8 0.794751 0.804352 0.111940
O O9 0.903229 0.205878 0.450190
O O10 0.044529 0.349305 0.383550
O O11 0.271143 0.578318 0.878320
O O12 0.190710 0.719833 0.792237
O O13 0.311806 0.531671 0.994907
O O14 0.433669 0.548563 0.831626
O O15 0.935713 0.164128 0.236582
O O16 0.250000 0.750000 0.500000
#
# Coordination Sequence:
#
# PCOD9273265 Si02
#       8
#     8   8   8   8   8   8   8   4
#     4  10  20  37  64 105 133 167 239 300 333 394
#     4  10  24  44  64  99 138 192 228 293 351 443
#     4   9  20  41  67  96 127 187 243 278 336 436
#     4  12  25  42  66 104 150 179 230 300 381 407
#     4  12  22  40  67 108 139 182 233 313 345 416
#     4  11  21  40  72 103 137 196 233 287 358 446
#     4  10  20  42  68  95 132 188 244 278 349 441
#     4  12  20  38  74  96 136 192 250 262 352 442
#
# _framework density 24.404259
#
# number of rings (size 3 to 8) (size 9 to 14) (size 15 to 20)
#    0.800    0.533    5.333    1.600    1.867    0.533 
#    2.400    1.333    0.000    2.400    0.000    0.000 
#    0.000    0.000    0.000    0.000    0.000    0.000 
#
# Total GULP energy -167066.881368 kJ/mol
# GULP energy per Si atom -5568.896046 kJ/mol
# Density = 2.434871 g / cm^3
# Si number density = 24.404259 Si / 1000 Ang^3
#
#
#
# Elastic Constant Matrix: (Units=GPa)
#
#
# Indices 1 2 3 4 5 6 
#
# 1 69.2737 4.8781 -2.6261 0.0000 -4.3682 0.0000
# 2 4.8781 82.3321 41.9826 0.0000 -22.1135 0.0000
# 3 -2.6261 41.9826 84.7873 0.0000 -5.6426 0.0000
# 4 0.0000 0.0000 0.0000 43.1796 0.0000 -5.9964
# 5 -4.3682 -22.1135 -5.6426 0.0000 23.7510 0.0000
# 6 0.0000 0.0000 0.0000 -5.9964 0.0000 11.4291
#
#
#
# Elastic Compliance Matrix: (Units=1/GPa)
#
#
# Indices 1 2 3 4 5 6 
#
# 1 0.014667 -0.000780 0.000987 0.000000 0.002206 0.000000
# 2 -0.000780 0.021982 -0.009710 0.000000 0.018017 0.000000
# 3 0.000987 -0.009710 0.016301 0.000000 -0.004986 0.000000
# 4 0.000000 0.000000 0.000000 0.024979 0.000000 0.013106
# 5 0.002206 0.018017 -0.004986 0.000000 0.058099 0.000000
# 6 0.000000 0.000000 0.000000 0.013106 0.000000 0.094372
#
#
# Mechanical properties :
#
#
# Convention : Reuss Voigt Hill
#
# Bulk Modulus (GPa) = 29.45931 36.09582 32.77757
# Shear Modulus (GPa) = 19.17768 28.48252 23.83010
#
# Velocity S-wave (km/s) = 2.80631 3.42001 3.12825
# Velocity P-wave (km/s) = 4.75375 5.51527 5.14861
#
# Compressibility (1/GPa) = 0.03394512
#
# Stress axis : x y z
#
# Youngs Moduli (GPa) = 68.18062 45.49102 61.34670
#
# Poissons Ratio (x) = 0.03548 -0.06057
# Poissons Ratio (y) = 0.05318 0.59566
# Poissons Ratio (z) = -0.06731 0.44171
#
# Static dielectric constant tensor:
#      x y z
#    x 2.040180 0.000000 -0.025690 
#    y 0.000000 1.979010 0.000000 
#    z -0.025690 0.000000 2.249540 
# 
# From -- ./inp_files/247412.got.cif
#   From: 2010.05.17/outbox.cif.g08.bks.cpg/sg15_124_cif.got.tgz:247412.got - 2010.06.03 18:47:42.
