data_PCOD9273144
_publ_section_title
;
Structure prediction by ZEFSAII (Michael W. Deem and Ramdas Pophale) SiO2 
 PCOD9273144
Probable space group: C 2/C
;
_chemical_formula_sum "Si O2"
_cell_formula_units_Z 52
_cell_length_a 16.978542
_cell_length_b 12.905808
_cell_length_c 10.816282
_cell_angle_alpha 90.000000
_cell_angle_beta 125.096221
_cell_angle_gamma 90.000000
_cell_volume 1939.172794
_symmetry_space_group_name_H-M "C 2/C"
_symmetry_group_IT_number 15
_symmetry_cell_setting 'monoclinic'
loop_
_space_group_symop_operation_xyz
x,y,z
-x,y,1/2-z
-x,-y,-z
x,-y,1/2+z
1/2+x,1/2+y,z
1/2-x,1/2+y,1/2-z
1/2-x,1/2-y,-z
1/2+x,1/2-y,1/2+z
loop_
_atom_site_type_symbol
_atom_site_label
_atom_site_fract_x
_atom_site_fract_y
_atom_site_fract_z
Si Si1 0.832442 0.501881 0.248166
Si Si2 0.362011 0.464289 0.076413
Si Si3 0.156805 0.677841 0.056715
Si Si4 0.576991 0.725381 0.991887
Si Si5 0.116776 0.813757 0.804374
Si Si6 0.000000 0.402958 0.750000
Si Si7 0.762921 0.168394 0.694495
O O1 0.864544 0.570521 0.395204
O O2 0.811657 0.387565 0.278890
O O3 0.910601 0.527226 0.214031
O O4 0.726826 0.529146 0.100736
O O5 0.400767 0.577969 0.141416
O O6 0.313636 0.414968 0.154752
O O7 0.438081 0.384494 0.087672
O O8 0.269499 0.674265 0.122545
O O9 0.156671 0.767282 0.160809
O O10 0.104684 0.719095 0.888640
O O11 0.566725 0.704887 0.128074
O O12 0.689836 0.752583 0.063429
O O13 0.524672 0.823300 0.883634
#
# Coordination Sequence:
#
# PCOD9273144 Si02
#       7
#     8   8   8   8   8   4   8
#     4  12  23  41  68 102 138 184 220 284 340 415
#     4  12  19  39  70 103 124 164 240 288 336 384
#     4  10  20  37  63 102 131 164 222 292 340 385
#     4  11  24  43  65  97 136 183 227 283 337 407
#     4  10  21  37  67 103 129 163 226 302 341 384
#     4  12  28  46  62  96 152 192 224 260 352 434
#     4  11  20  35  66  97 132 166 227 282 338 392
#
# _framework density 26.815556000000001
#
# number of rings (size 3 to 8) (size 9 to 14) (size 15 to 20)
#    0.000    0.923    7.692    1.385    0.000    0.615 
#    0.000    1.538    0.000    0.000    0.000    0.000 
#    0.000    0.000    0.000    0.000    0.000    0.000 
#
# Total GULP energy -145730.889782 kJ/mol
# GULP energy per Si atom -5605.034222 kJ/mol
# Density = 2.675452 g / cm^3
# Si number density = 26.815556 Si / 1000 Ang^3
#
#
#
# Elastic Constant Matrix: (Units=GPa)
#
#
# Indices 1 2 3 4 5 6 
#
# 1 104.1136 22.0267 23.6247 0.0000 -3.5488 0.0000
# 2 22.0267 139.3184 26.5246 0.0000 -11.4149 0.0000
# 3 23.6247 26.5246 120.8483 0.0000 1.7263 0.0000
# 4 0.0000 0.0000 0.0000 35.7880 0.0000 -24.1948
# 5 -3.5488 -11.4149 1.7263 0.0000 23.6842 0.0000
# 6 0.0000 0.0000 0.0000 -24.1948 0.0000 31.0250
#
#
#
# Elastic Compliance Matrix: (Units=1/GPa)
#
#
# Indices 1 2 3 4 5 6 
#
# 1 0.010297 -0.001203 -0.001765 0.000000 0.001092 0.000000
# 2 -0.001203 0.007976 -0.001570 0.000000 0.003779 0.000000
# 3 -0.001765 -0.001570 0.008988 0.000000 -0.001676 0.000000
# 4 0.000000 0.000000 0.000000 0.059103 0.000000 0.046091
# 5 0.001092 0.003779 -0.001676 0.000000 0.044329 0.000000
# 6 0.000000 0.000000 0.000000 0.046091 0.000000 0.068176
#
#
# Mechanical properties :
#
#
# Convention : Reuss Voigt Hill
#
# Bulk Modulus (GPa) = 54.98121 56.51471 55.74796
# Shear Modulus (GPa) = 23.36386 37.57307 30.46846
#
# Velocity S-wave (km/s) = 2.95495 3.74728 3.37445
# Velocity P-wave (km/s) = 5.67365 6.31220 6.00142
#
# Compressibility (1/GPa) = 0.01818803
#
# Stress axis : x y z
#
# Youngs Moduli (GPa) = 97.11626 125.37054 111.25642
#
# Poissons Ratio (x) = 0.15077 0.19632
# Poissons Ratio (y) = 0.11679 0.17463
# Poissons Ratio (z) = 0.17137 0.19678
#
# Static dielectric constant tensor:
#      x y z
#    x 2.077080 0.000000 -0.003280 
#    y 0.000000 2.057300 0.000000 
#    z -0.003280 0.000000 2.094880 
# 
# From -- ./inp_files/111742.got.cif
#   From: 2010.05.17/outbox.cif.g08.bks.cpg/sg15_56_cif.got.tgz:111742.got - 2010.06.03 18:47:42.
