data_PCOD9273518
_publ_section_title
;
Structure prediction by ZEFSAII (Michael W. Deem and Ramdas Pophale) SiO2 
 PCOD9273518
Probable space group: C 2/C
;
_chemical_formula_sum "Si O2"
_cell_formula_units_Z 60
_cell_length_a 11.387856
_cell_length_b 15.391734
_cell_length_c 18.113717
_cell_angle_alpha 90.000000
_cell_angle_beta 69.060253
_cell_angle_gamma 90.000000
_cell_volume 2965.267455
_symmetry_space_group_name_H-M "C 2/C"
_symmetry_group_IT_number 15
_symmetry_cell_setting 'monoclinic'
loop_
_space_group_symop_operation_xyz
x,y,z
-x,y,1/2-z
-x,-y,-z
x,-y,1/2+z
1/2+x,1/2+y,z
1/2-x,1/2+y,1/2-z
1/2-x,1/2-y,-z
1/2+x,1/2-y,1/2+z
loop_
_atom_site_type_symbol
_atom_site_label
_atom_site_fract_x
_atom_site_fract_y
_atom_site_fract_z
Si Si1 0.187726 0.641297 0.156924
Si Si2 0.500804 0.607590 0.540000
Si Si3 0.218584 0.017662 0.953378
Si Si4 0.280514 0.849532 0.688045
Si Si5 0.056221 0.756450 0.905108
Si Si6 0.926715 0.591304 0.009650
Si Si7 0.020006 0.776722 0.323846
Si Si8 0.000000 0.203833 0.250000
O O1 0.208373 0.562145 0.098080
O O2 0.196076 0.605676 0.238330
O O3 0.297489 0.714346 0.124588
O O4 0.059441 0.688807 0.167707
O O5 0.360705 0.573637 0.587010
O O6 0.601614 0.530036 0.520459
O O7 0.497089 0.660880 0.463428
O O8 0.536745 0.673657 0.595210
O O9 0.311348 0.075450 0.979570
O O10 0.360448 0.884665 0.601860
O O11 0.338079 0.753007 0.691015
O O12 0.131272 0.847371 0.709301
O O13 0.019071 0.750507 0.826515
O O14 0.013500 0.669821 0.958510
O O15 0.000000 0.500000 0.000000
O O16 0.000000 0.823567 0.250000
#
# Coordination Sequence:
#
# PCOD9273518 Si02
#       8
#     8   8   8   8   8   8   8   4
#     4   9  21  42  64  88 125 173 208 260 315 382
#     4  10  21  40  63  89 123 167 210 259 317 382
#     4  10  23  38  59  93 128 160 207 262 322 373
#     4  10  21  41  64  90 127 168 213 259 331 381
#     4  10  22  40  67  89 127 167 212 258 319 386
#     4  12  25  40  63  99 131 170 214 271 323 389
#     4  10  20  37  67  89 116 165 221 258 306 382
#     4  10  22  40  66  96 120 164 220 262 320 396
#
# _framework density 20.234262000000001
#
# number of rings (size 3 to 8) (size 9 to 14) (size 15 to 20)
#    0.000    1.867    1.333    1.600    3.733    3.200 
#    4.800    0.000    2.933    0.000    0.000    0.000 
#    0.000    0.000    0.000    0.000    0.000    0.000 
#
# Total GULP energy -167107.634328 kJ/mol
# GULP energy per Si atom -5570.254478 kJ/mol
# Density = 2.018821 g / cm^3
# Si number density = 20.234262 Si / 1000 Ang^3
#
#
#
# Elastic Constant Matrix: (Units=GPa)
#
#
# Indices 1 2 3 4 5 6 
#
# 1 80.8894 25.2767 35.1354 0.0000 -4.6837 0.0000
# 2 25.2767 71.9158 33.2490 0.0000 -3.3918 0.0000
# 3 35.1354 33.2490 103.5169 0.0000 -3.4108 0.0000
# 4 0.0000 0.0000 0.0000 3.6642 0.0000 6.8968
# 5 -4.6837 -3.3918 -3.4108 0.0000 25.2577 0.0000
# 6 0.0000 0.0000 0.0000 6.8968 0.0000 18.4406
#
#
#
# Elastic Compliance Matrix: (Units=1/GPa)
#
#
# Indices 1 2 3 4 5 6 
#
# 1 0.015289 -0.003425 -0.004029 0.000000 0.001831 0.000000
# 2 -0.003425 0.017153 -0.004311 0.000000 0.001086 0.000000
# 3 -0.004029 -0.004311 0.012424 0.000000 0.000352 0.000000
# 4 0.000000 0.000000 0.000000 0.921819 0.000000 -0.344762
# 5 0.001831 0.001086 0.000352 0.000000 0.040125 0.000000
# 6 0.000000 0.000000 0.000000 -0.344762 0.000000 0.183170
#
#
# Mechanical properties :
#
#
# Convention : Reuss Voigt Hill
#
# Bulk Modulus (GPa) = 46.86833 49.29381 48.08107
# Shear Modulus (GPa) = 4.09627 20.31657 12.20642
#
# Velocity S-wave (km/s) = 1.42437 3.17214 2.45879
# Velocity P-wave (km/s) = 5.09100 6.15070 5.64576
#
# Compressibility (1/GPa) = 0.02133637
#
# Stress axis : x y z
#
# Youngs Moduli (GPa) = 65.40757 58.29770 80.48846
#
# Poissons Ratio (x) = 0.19964 0.32429
# Poissons Ratio (y) = 0.22399 0.34702
# Poissons Ratio (z) = 0.26353 0.25134
#
# Static dielectric constant tensor:
#      x y z
#    x 1.757200 0.000000 -0.007040 
#    y 0.000000 1.730280 0.000000 
#    z -0.007040 0.000000 1.773730 
# 
# From -- ./inp_files/198302.got.cif
#   From: 2010.05.17/outbox.cif.g08.bks.cpg/sg15_100_cif.got.tgz:198302.got - 2010.06.03 18:47:42.
