data_PCOD9273298
_publ_section_title
;
Structure prediction by ZEFSAII (Michael W. Deem and Ramdas Pophale) SiO2 
 PCOD9273298
Probable space group: C 2/C
;
_chemical_formula_sum "Si O2"
_cell_formula_units_Z 64
_cell_length_a 26.452597
_cell_length_b 11.435442
_cell_length_c 13.121060
_cell_angle_alpha 90.000000
_cell_angle_beta 56.917573
_cell_angle_gamma 90.000000
_cell_volume 3325.639845
_symmetry_space_group_name_H-M "C 2/C"
_symmetry_group_IT_number 15
_symmetry_cell_setting 'monoclinic'
loop_
_space_group_symop_operation_xyz
x,y,z
-x,y,1/2-z
-x,-y,-z
x,-y,1/2+z
1/2+x,1/2+y,z
1/2-x,1/2+y,1/2-z
1/2-x,1/2-y,-z
1/2+x,1/2-y,1/2+z
loop_
_atom_site_type_symbol
_atom_site_label
_atom_site_fract_x
_atom_site_fract_y
_atom_site_fract_z
Si Si1 0.860031 0.302896 0.499908
Si Si2 0.165148 0.495186 0.803480
Si Si3 0.293643 0.616877 0.684360
Si Si4 0.479027 0.328744 0.944505
Si Si5 0.977026 0.101230 0.887073
Si Si6 0.651782 0.631098 0.386506
Si Si7 0.104341 0.296187 0.271117
Si Si8 0.727097 0.207622 0.132729
O O1 0.848658 0.417775 0.581174
O O2 0.806611 0.210187 0.581244
O O3 0.919188 0.238575 0.478663
O O4 0.870082 0.320412 0.369329
O O5 0.225747 0.569603 0.756073
O O6 0.113720 0.585525 0.826274
O O7 0.183967 0.404393 0.692994
O O8 0.337490 0.506834 0.633148
O O9 0.305144 0.686252 0.775231
O O10 0.479807 0.459986 0.897563
O O11 0.536500 0.253683 0.843118
O O12 0.485568 0.345757 0.059285
O O13 0.000000 0.132225 0.750000
O O14 0.908684 0.145509 0.980754
O O15 0.640512 0.694577 0.291651
O O16 0.712364 0.679365 0.370114
O O17 0.750000 0.250000 0.000000
#
# Coordination Sequence:
#
# PCOD9273298 Si02
#       8
#     8   8   8   8   8   8   8   8
#     4  11  23  41  65  87 129 166 202 262 311 362
#     4  10  24  40  57  91 121 160 214 249 298 379
#     4  10  21  41  57  90 123 154 209 256 300 372
#     4  10  22  40  60  97 122 155 215 255 300 381
#     4  10  20  37  64  90 125 160 201 259 315 360
#     4  10  21  38  61  93 123 158 205 260 298 381
#     4  11  23  40  67  89 124 169 206 254 317 370
#     4  10  22  39  61  85 125 163 201 258 306 357
#
# _framework density 19.244416999999999
#
# number of rings (size 3 to 8) (size 9 to 14) (size 15 to 20)
#    0.000    1.750    2.500    1.125    1.750    5.000 
#    0.000    1.250    0.000    0.000    0.000    0.000 
#    0.000    0.000    0.000    0.000    0.000    0.000 
#
# Total GULP energy -178612.565898 kJ/mol
# GULP energy per Si atom -5581.642684 kJ/mol
# Density = 1.920062 g / cm^3
# Si number density = 19.244417 Si / 1000 Ang^3
#
#
#
# Elastic Constant Matrix: (Units=GPa)
#
#
# Indices 1 2 3 4 5 6 
#
# 1 54.2828 13.6559 14.7256 0.0000 -9.4111 0.0000
# 2 13.6559 89.7563 44.3940 0.0000 2.2593 0.0000
# 3 14.7256 44.3940 127.8975 0.0000 8.3885 0.0000
# 4 0.0000 0.0000 0.0000 10.0396 0.0000 1.8450
# 5 -9.4111 2.2593 8.3885 0.0000 17.3192 0.0000
# 6 0.0000 0.0000 0.0000 1.8450 0.0000 8.3166
#
#
#
# Elastic Compliance Matrix: (Units=1/GPa)
#
#
# Indices 1 2 3 4 5 6 
#
# 1 0.022088 -0.002419 -0.002594 0.000000 0.013574 0.000000
# 2 -0.002419 0.013720 -0.004421 0.000000 -0.000963 0.000000
# 3 -0.002594 -0.004421 0.010025 0.000000 -0.005688 0.000000
# 4 0.000000 0.000000 0.000000 0.103839 0.000000 -0.023036
# 5 0.013574 -0.000963 -0.005688 0.000000 0.067996 0.000000
# 6 0.000000 0.000000 0.000000 -0.023036 0.000000 0.125352
#
#
# Mechanical properties :
#
#
# Convention : Reuss Voigt Hill
#
# Bulk Modulus (GPa) = 37.08450 46.38751 41.73600
# Shear Modulus (GPa) = 13.48163 20.41249 16.94706
#
# Velocity S-wave (km/s) = 2.64966 3.26037 2.97075
# Velocity P-wave (km/s) = 5.35472 6.19113 5.78805
#
# Compressibility (1/GPa) = 0.02696545
#
# Stress axis : x y z
#
# Youngs Moduli (GPa) = 45.27431 72.88600 99.75211
#
# Poissons Ratio (x) = 0.17634 0.25871
# Poissons Ratio (y) = 0.10954 0.44096
# Poissons Ratio (z) = 0.11742 0.32220
#
# Static dielectric constant tensor:
#      x y z
#    x 1.670200 0.000000 -0.009300 
#    y 0.000000 1.722910 0.000000 
#    z -0.009300 0.000000 1.687220 
# 
# From -- ./inp_files/118001.got.cif
#   From: 2010.05.17/outbox.cif.g08.bks.cpg/sg15_60_cif.got.tgz:118001.got - 2010.06.03 18:47:42.
