data_PCOD9273045
_publ_section_title
;
Structure prediction by ZEFSAII (Michael W. Deem and Ramdas Pophale) SiO2 
 PCOD9273045
Probable space group: C 2/C
;
_chemical_formula_sum "Si O2"
_cell_formula_units_Z 56
_cell_length_a 14.492321
_cell_length_b 7.757814
_cell_length_c 25.571878
_cell_angle_alpha 90.000000
_cell_angle_beta 52.758748
_cell_angle_gamma 90.000000
_cell_volume 2288.782405
_symmetry_space_group_name_H-M "C 2/C"
_symmetry_group_IT_number 15
_symmetry_cell_setting 'monoclinic'
loop_
_space_group_symop_operation_xyz
x,y,z
-x,y,1/2-z
-x,-y,-z
x,-y,1/2+z
1/2+x,1/2+y,z
1/2-x,1/2+y,1/2-z
1/2-x,1/2-y,-z
1/2+x,1/2-y,1/2+z
loop_
_atom_site_type_symbol
_atom_site_label
_atom_site_fract_x
_atom_site_fract_y
_atom_site_fract_z
Si Si1 0.211992 0.309276 0.393186
Si Si2 0.508870 0.090895 0.905161
Si Si3 0.864752 0.959506 0.043434
Si Si4 0.338684 0.250000 0.156942
Si Si5 0.253682 0.954216 0.013845
Si Si6 0.395722 0.738782 0.746751
Si Si7 0.916353 0.341922 0.231252
O O1 0.074011 0.320859 0.431114
O O2 0.222813 0.115608 0.410975
O O3 0.259903 0.444080 0.418892
O O4 0.279523 0.318537 0.315913
O O5 0.590520 0.924047 0.872169
O O6 0.380416 0.029437 0.959682
O O7 0.523991 0.188893 0.845217
O O8 0.833151 0.937721 0.992998
O O9 0.842254 0.828775 0.098081
O O10 0.000000 0.000000 0.000000
O O11 0.401063 0.337336 0.186329
O O12 0.205543 0.245856 0.220605
O O13 0.250000 0.750000 0.000000
O O14 0.500000 0.693422 0.750000
O O15 0.394598 0.949215 0.743086
O O16 0.000000 0.294496 0.250000
#
# Coordination Sequence:
#
# PCOD9273045 Si02
#       7
#     8   8   8   8   8   8   8
#     4  11  22  42  63  92 128 165 209 257 318 370
#     4  11  23  40  63  93 125 162 203 259 319 370
#     4  11  24  41  65  92 122 164 216 259 303 366
#     4  11  21  38  64  93 126 155 214 255 309 373
#     4  10  23  40  66  90 118 167 217 247 300 381
#     4  10  22  36  65  92 123 168 208 254 309 377
#     4  10  20  37  62  89 124 164 205 249 308 374
#
# _framework density 24.467158999999999
#
# number of rings (size 3 to 8) (size 9 to 14) (size 15 to 20)
#    0.000    1.429    2.857    3.000   12.000    0.000 
#    0.000    5.000    0.000    0.000    0.000    0.000 
#    0.000    0.000    0.000    0.000    0.000    0.000 
#
# Total GULP energy -156458.802723 kJ/mol
# GULP energy per Si atom -5587.814383 kJ/mol
# Density = 2.441147 g / cm^3
# Si number density = 24.467159 Si / 1000 Ang^3
#
#
#
# Elastic Constant Matrix: (Units=GPa)
#
#
# Indices 1 2 3 4 5 6 
#
# 1 126.6820 19.9537 1.4709 0.0000 26.4638 0.0000
# 2 19.9537 40.3982 29.7882 0.0000 9.5690 0.0000
# 3 1.4709 29.7882 74.5257 0.0000 23.8360 0.0000
# 4 0.0000 0.0000 0.0000 22.2089 0.0000 -10.7549
# 5 26.4638 9.5690 23.8360 0.0000 49.9897 0.0000
# 6 0.0000 0.0000 0.0000 -10.7549 0.0000 20.7552
#
#
#
# Elastic Compliance Matrix: (Units=1/GPa)
#
#
# Indices 1 2 3 4 5 6 
#
# 1 0.010248 -0.006957 0.004587 0.000000 -0.006281 0.000000
# 2 -0.006957 0.039820 -0.017132 0.000000 0.004229 0.000000
# 3 0.004587 -0.017132 0.023484 0.000000 -0.010347 0.000000
# 4 0.000000 0.000000 0.000000 0.060111 0.000000 0.031148
# 5 -0.006281 0.004229 -0.010347 0.000000 0.027453 0.000000
# 6 0.000000 0.000000 0.000000 0.031148 0.000000 0.064321
#
#
# Mechanical properties :
#
#
# Convention : Reuss Voigt Hill
#
# Bulk Modulus (GPa) = 28.94268 38.22572 33.58420
# Shear Modulus (GPa) = 18.11876 31.28362 24.70119
#
# Velocity S-wave (km/s) = 2.72423 3.57963 3.18081
# Velocity P-wave (km/s) = 4.66370 5.72208 5.21978
#
# Compressibility (1/GPa) = 0.03455105
#
# Stress axis : x y z
#
# Youngs Moduli (GPa) = 97.57688 25.11297 42.58128
#
# Poissons Ratio (x) = 0.17470 -0.19533
# Poissons Ratio (y) = 0.67880 0.72948
# Poissons Ratio (z) = -0.44760 0.43022
#
# Static dielectric constant tensor:
#      x y z
#    x 2.001810 0.000000 0.111260 
#    y 0.000000 2.082130 0.000000 
#    z 0.111260 0.000000 1.996970 
# 
# From -- ./inp_files/273079.got.cif
#   From: 2010.05.17/outbox.cif.g08.bks.cpg/sg15_137_cif.got.tgz:273079.got - 2010.06.03 18:47:42.
