data_PCOD9273130
_publ_section_title
;
Structure prediction by ZEFSAII (Michael W. Deem and Ramdas Pophale) SiO2 
 PCOD9273130
Probable space group: C 2/C
;
_chemical_formula_sum "Si O2"
_cell_formula_units_Z 56
_cell_length_a 8.720446
_cell_length_b 23.868640
_cell_length_c 13.982540
_cell_angle_alpha 90.000000
_cell_angle_beta 113.891994
_cell_angle_gamma 90.000000
_cell_volume 2661.007975
_symmetry_space_group_name_H-M "C 2/C"
_symmetry_group_IT_number 15
_symmetry_cell_setting 'monoclinic'
loop_
_space_group_symop_operation_xyz
x,y,z
-x,y,1/2-z
-x,-y,-z
x,-y,1/2+z
1/2+x,1/2+y,z
1/2-x,1/2+y,1/2-z
1/2-x,1/2-y,-z
1/2+x,1/2-y,1/2+z
loop_
_atom_site_type_symbol
_atom_site_label
_atom_site_fract_x
_atom_site_fract_y
_atom_site_fract_z
Si Si1 0.286764 0.049193 0.373894
Si Si2 0.500000 0.018934 0.250000
Si Si3 0.520327 0.720820 0.089323
Si Si4 0.558251 0.075435 0.892754
Si Si5 0.731684 0.189524 0.878144
Si Si6 0.686893 0.576438 0.839409
Si Si7 0.000000 0.134694 0.250000
Si Si8 0.188541 0.799487 0.323176
O O1 0.416978 0.065644 0.488886
O O2 0.141551 0.094737 0.329883
O O3 0.379315 0.049062 0.294607
O O4 0.215063 0.987388 0.384107
O O5 0.388912 0.979330 0.152385
O O6 0.391946 0.763283 0.110725
O O7 0.562809 0.673709 0.178811
O O8 0.685798 0.754505 0.100542
O O9 0.412865 0.697819 0.973214
O O10 0.657530 0.130128 0.890071
O O11 0.359934 0.080337 0.822702
O O12 0.739929 0.192157 0.766486
O O13 0.500000 0.573888 0.750000
O O14 0.687205 0.640816 0.879347
O O15 0.000000 0.780880 0.250000
#
# Coordination Sequence:
#
# PCOD9273130 Si02
#       8
#     8   4   8   8   8   8   4   8
#     4  11  23  42  65  97 134 179 217 267 334 393
#     4  10  22  39  64  98 129 168 220 268 326 386
#     4  11  23  40  66  94 123 171 222 266 315 390
#     4  11  21  39  71  94 130 179 223 269 328 396
#     4  11  21  39  66  97 122 167 227 263 319 391
#     4  10  20  37  62  95 130 166 212 270 324 380
#     4  12  22  43  66  92 133 178 216 264 324 392
#     4  11  23  40  65  96 132 170 211 276 334 379
#
# _framework density 21.044656
#
# number of rings (size 3 to 8) (size 9 to 14) (size 15 to 20)
#    0.000    1.143    5.000    3.429    0.000    0.571 
#    1.286    6.429    0.000    0.000    0.000    0.000 
#    0.000    0.000    0.000    0.000    0.000    0.000 
#
# Total GULP energy -156030.232730 kJ/mol
# GULP energy per Si atom -5572.508312 kJ/mol
# Density = 2.099676 g / cm^3
# Si number density = 21.044656 Si / 1000 Ang^3
#
#
#
# Elastic Constant Matrix: (Units=GPa)
#
#
# Indices 1 2 3 4 5 6 
#
# 1 76.9104 31.1743 25.0675 0.0000 17.3894 0.0000
# 2 31.1743 100.1898 14.1782 0.0000 13.8556 0.0000
# 3 25.0675 14.1782 69.0916 0.0000 2.5015 0.0000
# 4 0.0000 0.0000 0.0000 16.5394 0.0000 9.6273
# 5 17.3894 13.8556 2.5015 0.0000 36.3551 0.0000
# 6 0.0000 0.0000 0.0000 9.6273 0.0000 28.5359
#
#
#
# Elastic Compliance Matrix: (Units=1/GPa)
#
#
# Indices 1 2 3 4 5 6 
#
# 1 0.017854 -0.003859 -0.005443 0.000000 -0.006695 0.000000
# 2 -0.003859 0.011660 -0.000901 0.000000 -0.002536 0.000000
# 3 -0.005443 -0.000901 0.016568 0.000000 0.001807 0.000000
# 4 0.000000 0.000000 0.000000 0.075237 0.000000 -0.025383
# 5 -0.006695 -0.002536 0.001807 0.000000 0.031551 0.000000
# 6 0.000000 0.000000 0.000000 -0.025383 0.000000 0.043607
#
#
# Mechanical properties :
#
#
# Convention : Reuss Voigt Hill
#
# Bulk Modulus (GPa) = 38.94787 43.00353 40.97570
# Shear Modulus (GPa) = 22.17859 28.00420 25.09140
#
# Velocity S-wave (km/s) = 3.24988 3.65184 3.45671
# Velocity P-wave (km/s) = 5.71224 6.18547 5.95356
#
# Compressibility (1/GPa) = 0.02567535
#
# Stress axis : x y z
#
# Youngs Moduli (GPa) = 56.00886 85.76304 60.35758
#
# Poissons Ratio (x) = 0.33098 0.32856
# Poissons Ratio (y) = 0.21615 0.05437
# Poissons Ratio (z) = 0.30488 0.07725
#
# Static dielectric constant tensor:
#      x y z
#    x 1.771580 0.000000 -0.004220 
#    y 0.000000 1.813400 0.000000 
#    z -0.004220 0.000000 1.757460 
# 
# From -- ./inp_files/138005.got.cif
#   From: 2010.05.17/outbox.cif.g08.bks.cpg/sg15_70_cif.got.tgz:138005.got - 2010.06.03 18:47:42.
