data_PCOD9273585
_publ_section_title
;
Structure prediction by ZEFSAII (Michael W. Deem and Ramdas Pophale) SiO2 
 PCOD9273585
Probable space group: C 2/C
;
_chemical_formula_sum "Si O2"
_cell_formula_units_Z 44
_cell_length_a 21.174867
_cell_length_b 5.589942
_cell_length_c 15.029044
_cell_angle_alpha 90.000000
_cell_angle_beta 74.098826
_cell_angle_gamma 90.000000
_cell_volume 1710.862411
_symmetry_space_group_name_H-M "C 2/C"
_symmetry_group_IT_number 15
_symmetry_cell_setting 'monoclinic'
loop_
_space_group_symop_operation_xyz
x,y,z
-x,y,1/2-z
-x,-y,-z
x,-y,1/2+z
1/2+x,1/2+y,z
1/2-x,1/2+y,1/2-z
1/2-x,1/2-y,-z
1/2+x,1/2-y,1/2+z
loop_
_atom_site_type_symbol
_atom_site_label
_atom_site_fract_x
_atom_site_fract_y
_atom_site_fract_z
Si Si1 0.756638 0.670329 0.865372
Si Si2 0.920920 0.019162 0.043563
Si Si3 0.500000 0.184636 0.750000
Si Si4 0.254099 0.834698 0.153462
Si Si5 0.443869 0.982697 0.597305
Si Si6 0.626714 0.556174 0.134947
O O1 0.726990 0.415189 0.897479
O O2 0.767098 0.669679 0.754036
O O3 0.826286 0.709833 0.884966
O O4 0.720125 0.919323 0.898521
O O5 0.904457 0.267709 0.099384
O O6 0.907378 0.770915 0.101072
O O7 0.892240 0.021528 0.955925
O O8 0.000000 0.000000 0.000000
O O9 0.480976 0.015622 0.675601
O O10 0.439088 0.358705 0.792766
O O11 0.174961 0.871370 0.167400
O O12 0.500000 0.000000 0.500000
#
# Coordination Sequence:
#
# PCOD9273585 Si02
#       6
#     8   8   4   8   8   8
#     4   8  16  31  50  81 109 142 195 246 274 336
#     4  10  20  38  54  76 121 149 200 229 279 359
#     4  12  22  40  58  92 122 162 188 242 300 358
#     4   8  16  31  51  78 113 138 199 245 273 334
#     4  10  22  40  53  79 120 158 197 230 275 362
#     4  10  21  32  61  86 117 156 192 239 302 344
#
# _framework density 25.718024
#
# number of rings (size 3 to 8) (size 9 to 14) (size 15 to 20)
#    1.091    1.455    3.636    0.000    2.545    0.727 
#    3.273    0.000    0.000    0.000    0.000    7.636 
#    0.000    0.000    0.000    0.000    0.000    0.000 
#
# Total GULP energy -122940.529435 kJ/mol
# GULP energy per Si atom -5588.205883 kJ/mol
# Density = 2.565949 g / cm^3
# Si number density = 25.718024 Si / 1000 Ang^3
#
#
#
# Elastic Constant Matrix: (Units=GPa)
#
#
# Indices 1 2 3 4 5 6 
#
# 1 74.5445 20.6055 43.5133 0.0000 26.2064 0.0000
# 2 20.6055 220.4423 13.3835 0.0000 -5.4201 0.0000
# 3 43.5133 13.3835 136.4806 0.0000 34.7902 0.0000
# 4 0.0000 0.0000 0.0000 20.3335 0.0000 4.5290
# 5 26.2064 -5.4201 34.7902 0.0000 43.5820 0.0000
# 6 0.0000 0.0000 0.0000 4.5290 0.0000 25.1793
#
#
#
# Elastic Compliance Matrix: (Units=1/GPa)
#
#
# Indices 1 2 3 4 5 6 
#
# 1 0.019153 -0.001782 -0.003690 0.000000 -0.008793 0.000000
# 2 -0.001782 0.004777 -0.000408 0.000000 0.001991 0.000000
# 3 -0.003690 -0.000408 0.010032 0.000000 -0.005840 0.000000
# 4 0.000000 0.000000 0.000000 0.051232 0.000000 -0.009215
# 5 -0.008793 0.001991 -0.005840 0.000000 0.033142 0.000000
# 6 0.000000 0.000000 0.000000 -0.009215 0.000000 0.041373
#
#
# Mechanical properties :
#
#
# Convention : Reuss Voigt Hill
#
# Bulk Modulus (GPa) = 45.04329 65.16354 55.10341
# Shear Modulus (GPa) = 27.95327 41.41664 34.68495
#
# Velocity S-wave (km/s) = 3.30041 4.01735 3.67640
# Velocity P-wave (km/s) = 5.66356 6.84920 6.28440
#
# Compressibility (1/GPa) = 0.02220087
#
# Stress axis : x y z
#
# Youngs Moduli (GPa) = 52.21213 209.35140 99.67814
#
# Poissons Ratio (x) = 0.37315 0.36783
# Poissons Ratio (y) = 0.09306 0.04064
# Poissons Ratio (z) = 0.19267 0.08536
#
# Static dielectric constant tensor:
#      x y z
#    x 1.986340 0.000000 0.022980 
#    y 0.000000 2.103660 0.000000 
#    z 0.022980 0.000000 1.927250 
# 
# From -- ./inp_files/179470.got.cif
#   From: 2010.05.17/outbox.cif.g08.bks.cpg/sg15_90_cif.got.tgz:179470.got - 2010.06.03 18:47:42.
