data_PCOD9273893
_publ_section_title
;
Structure prediction by ZEFSAII (Michael W. Deem and Ramdas Pophale) SiO2 
 PCOD9273893
Probable space group: C 2/C
;
_chemical_formula_sum "Si O2"
_cell_formula_units_Z 48
_cell_length_a 11.153900
_cell_length_b 26.426678
_cell_length_c 7.048556
_cell_angle_alpha 90.000000
_cell_angle_beta 122.921760
_cell_angle_gamma 90.000000
_cell_volume 1743.995787
_symmetry_space_group_name_H-M "C 2/C"
_symmetry_group_IT_number 15
_symmetry_cell_setting 'monoclinic'
loop_
_space_group_symop_operation_xyz
x,y,z
-x,y,1/2-z
-x,-y,-z
x,-y,1/2+z
1/2+x,1/2+y,z
1/2-x,1/2+y,1/2-z
1/2-x,1/2-y,-z
1/2+x,1/2-y,1/2+z
loop_
_atom_site_type_symbol
_atom_site_label
_atom_site_fract_x
_atom_site_fract_y
_atom_site_fract_z
Si Si1 0.296936 0.810798 0.918127
Si Si2 0.284444 0.155192 0.847996
Si Si3 0.455446 0.910297 0.990564
Si Si4 0.402991 0.429685 0.379525
Si Si5 0.805724 0.037839 0.205652
Si Si6 0.561360 0.747274 0.992993
O O1 0.212833 0.676781 0.866850
O O2 0.153533 0.788964 0.704913
O O3 0.344735 0.863889 0.871656
O O4 0.427812 0.772504 0.988553
O O5 0.402112 0.110813 0.981989
O O6 0.140923 0.123740 0.743307
O O7 0.339388 0.205665 0.996792
O O8 0.500000 0.914970 0.250000
O O9 0.355243 0.957375 0.855630
O O10 0.349513 0.479494 0.225079
O O11 0.569646 0.436122 0.565386
O O12 0.323122 0.436188 0.514733
O O13 0.500000 0.722807 0.750000
#
# Coordination Sequence:
#
# PCOD9273893 Si02
#       6
#     8   8   8   8   8   8
#     4  10  21  40  64  87 124 164 206 251 300 375
#     4  10  21  41  60  90 122 162 209 248 300 366
#     4   9  17  36  59  83 114 154 196 252 284 353
#     4  10  21  38  60  87 119 161 200 254 304 361
#     4  10  20  38  60  85 123 152 204 251 304 360
#     4  11  23  40  61  92 129 158 202 259 315 360
#
# _framework density 27.523002000000002
#
# number of rings (size 3 to 8) (size 9 to 14) (size 15 to 20)
#    0.000    2.000    3.333    2.500    0.000    2.000 
#    6.000    0.000    3.667    0.000    0.000    0.000 
#    0.000    0.000    0.000    0.000    0.000    0.000 
#
# Total GULP energy -134512.033858 kJ/mol
# GULP energy per Si atom -5604.668077 kJ/mol
# Density = 2.746036 g / cm^3
# Si number density = 27.523002 Si / 1000 Ang^3
#
#
#
# Elastic Constant Matrix: (Units=GPa)
#
#
# Indices 1 2 3 4 5 6 
#
# 1 93.7267 44.9650 54.3535 0.0000 3.1844 0.0000
# 2 44.9650 92.9934 78.3814 0.0000 17.1705 0.0000
# 3 54.3535 78.3814 171.3429 0.0000 26.6603 0.0000
# 4 0.0000 0.0000 0.0000 48.4908 0.0000 17.9133
# 5 3.1844 17.1705 26.6603 0.0000 33.9489 0.0000
# 6 0.0000 0.0000 0.0000 17.9133 0.0000 40.2147
#
#
#
# Elastic Compliance Matrix: (Units=1/GPa)
#
#
# Indices 1 2 3 4 5 6 
#
# 1 0.014764 -0.005501 -0.002716 0.000000 0.003531 0.000000
# 2 -0.005501 0.019810 -0.006651 0.000000 -0.004280 0.000000
# 3 -0.002716 -0.006651 0.010455 0.000000 -0.004592 0.000000
# 4 0.000000 0.000000 0.000000 0.024684 0.000000 -0.010995
# 5 0.003531 -0.004280 -0.004592 0.000000 0.034895 0.000000
# 6 0.000000 0.000000 0.000000 -0.010995 0.000000 0.029764
#
#
# Mechanical properties :
#
#
# Convention : Reuss Voigt Hill
#
# Bulk Modulus (GPa) = 65.39548 79.27365 72.33456
# Shear Modulus (GPa) = 29.54982 36.55509 33.05245
#
# Velocity S-wave (km/s) = 3.28020 3.64835 3.46916
# Velocity P-wave (km/s) = 6.17723 6.82734 6.51040
#
# Compressibility (1/GPa) = 0.01529158
#
# Stress axis : x y z
#
# Youngs Moduli (GPa) = 67.73385 50.48063 95.65007
#
# Poissons Ratio (x) = 0.27770 0.25980
# Poissons Ratio (y) = 0.37262 0.63616
# Poissons Ratio (z) = 0.18397 0.33574
#
# Static dielectric constant tensor:
#      x y z
#    x 2.267650 0.000000 -0.040010 
#    y 0.000000 2.096720 0.000000 
#    z -0.040010 0.000000 2.124460 
# 
# From -- ./inp_files/108297.got.cif
#   From: 2010.05.17/outbox.cif.g08.bks.cpg/sg15_55_cif.got.tgz:108297.got - 2010.06.03 18:47:42.
