data_PCOD9273932
_publ_section_title
;
Structure prediction by ZEFSAII (Michael W. Deem and Ramdas Pophale) SiO2 
 PCOD9273932
Probable space group: C 2/C
;
_chemical_formula_sum "Si O2"
_cell_formula_units_Z 60
_cell_length_a 9.059122
_cell_length_b 24.803110
_cell_length_c 14.581613
_cell_angle_alpha 90.000000
_cell_angle_beta 106.382364
_cell_angle_gamma 90.000000
_cell_volume 3143.387399
_symmetry_space_group_name_H-M "C 2/C"
_symmetry_group_IT_number 15
_symmetry_cell_setting 'monoclinic'
loop_
_space_group_symop_operation_xyz
x,y,z
-x,y,1/2-z
-x,-y,-z
x,-y,1/2+z
1/2+x,1/2+y,z
1/2-x,1/2+y,1/2-z
1/2-x,1/2-y,-z
1/2+x,1/2-y,1/2+z
loop_
_atom_site_type_symbol
_atom_site_label
_atom_site_fract_x
_atom_site_fract_y
_atom_site_fract_z
Si Si1 0.884956 0.919185 0.586539
Si Si2 0.297654 0.300119 0.572971
Si Si3 0.969287 0.334925 0.519972
Si Si4 0.435343 0.771512 0.324562
Si Si5 0.433505 0.050786 0.541053
Si Si6 0.669335 0.190700 0.318338
Si Si7 0.787365 0.926983 0.783424
Si Si8 0.000000 0.508844 0.750000
O O1 0.868805 0.856642 0.550807
O O2 0.752042 0.948040 0.504388
O O3 0.832755 0.924975 0.683915
O O4 0.062821 0.937289 0.625507
O O5 0.250000 0.250000 0.500000
O O6 0.433144 0.274429 0.653753
O O7 0.136189 0.316941 0.587928
O O8 0.944610 0.305039 0.419592
O O9 0.846247 0.317293 0.574006
O O10 0.993443 0.397211 0.497282
O O11 0.500000 0.806164 0.250000
O O12 0.275460 0.739838 0.303850
O O13 0.518202 0.955513 0.344757
O O14 0.500000 0.000000 0.500000
O O15 0.500000 0.199135 0.250000
O O16 0.731813 0.133135 0.296343
O O17 0.649897 0.969749 0.771591
#
# Coordination Sequence:
#
# PCOD9273932 Si02
#       8
#     8   8   8   8   8   8   8   4
#     4  10  20  38  60  88 123 158 194 270 308 371
#     4   9  18  34  55  86 113 152 196 240 302 366
#     4  10  23  38  59  85 122 160 200 249 306 377
#     4  11  21  36  59  88 123 160 196 244 305 375
#     4  11  22  42  64  88 123 162 211 261 320 358
#     4  12  21  35  61  92 123 155 203 255 309 361
#     4  11  21  35  62  93 118 152 215 257 317 358
#     4  12  24  38  64  92 116 168 212 262 314 384
#
# _framework density 19.087688
#
# number of rings (size 3 to 8) (size 9 to 14) (size 15 to 20)
#    0.000    1.333    3.333    4.400    0.933    0.533 
#    0.000    0.000    0.000    1.600    0.000    0.000 
#    0.000    0.000    0.000    0.000    0.000    0.000 
#
# Total GULP energy -167112.477410 kJ/mol
# GULP energy per Si atom -5570.415914 kJ/mol
# Density = 1.904424 g / cm^3
# Si number density = 19.087688 Si / 1000 Ang^3
#
#
#
# Elastic Constant Matrix: (Units=GPa)
#
#
# Indices 1 2 3 4 5 6 
#
# 1 107.4597 35.3881 47.0282 0.0000 13.6828 0.0000
# 2 35.3881 76.1239 28.2924 0.0000 5.0586 0.0000
# 3 47.0282 28.2924 118.4275 0.0000 0.0695 0.0000
# 4 0.0000 0.0000 0.0000 24.3002 0.0000 1.5743
# 5 13.6828 5.0586 0.0695 0.0000 43.3857 0.0000
# 6 0.0000 0.0000 0.0000 1.5743 0.0000 13.2582
#
#
#
# Elastic Compliance Matrix: (Units=1/GPa)
#
#
# Indices 1 2 3 4 5 6 
#
# 1 0.012973 -0.004256 -0.004133 0.000000 -0.003589 0.000000
# 2 -0.004256 0.015936 -0.002117 0.000000 -0.000512 0.000000
# 3 -0.004133 -0.002117 0.010590 0.000000 0.001533 0.000000
# 4 0.000000 0.000000 0.000000 0.041471 0.000000 -0.004924
# 5 -0.003589 -0.000512 0.001533 0.000000 0.024238 0.000000
# 6 0.000000 0.000000 0.000000 -0.004924 0.000000 0.076010
#
#
# Mechanical properties :
#
#
# Convention : Reuss Voigt Hill
#
# Bulk Modulus (GPa) = 54.09076 58.15873 56.12475
# Shear Modulus (GPa) = 23.99333 28.94231 26.46782
#
# Velocity S-wave (km/s) = 3.54927 3.89817 3.72781
# Velocity P-wave (km/s) = 6.72280 7.12716 6.92793
#
# Compressibility (1/GPa) = 0.01848745
#
# Stress axis : x y z
#
# Youngs Moduli (GPa) = 77.08280 62.75156 94.43007
#
# Poissons Ratio (x) = 0.26710 0.39025
# Poissons Ratio (y) = 0.32810 0.19986
# Poissons Ratio (z) = 0.31856 0.13282
#
# Static dielectric constant tensor:
#      x y z
#    x 1.767460 0.000000 -0.128570 
#    y 0.000000 1.687740 0.000000 
#    z -0.128570 0.000000 1.977380 
# 
# From -- ./inp_files/137406.got.cif
#   From: 2010.05.17/outbox.cif.g08.bks.cpg/sg15_69_cif.got.tgz:137406.got - 2010.06.03 18:47:42.
