data_PCOD9273744
_publ_section_title
;
Structure prediction by ZEFSAII (Michael W. Deem and Ramdas Pophale) SiO2 
 PCOD9273744
Probable space group: C 2/C
;
_chemical_formula_sum "Si O2"
_cell_formula_units_Z 60
_cell_length_a 11.961854
_cell_length_b 23.277805
_cell_length_c 15.506882
_cell_angle_alpha 90.000000
_cell_angle_beta 141.689058
_cell_angle_gamma 90.000000
_cell_volume 2676.744276
_symmetry_space_group_name_H-M "C 2/C"
_symmetry_group_IT_number 15
_symmetry_cell_setting 'monoclinic'
loop_
_space_group_symop_operation_xyz
x,y,z
-x,y,1/2-z
-x,-y,-z
x,-y,1/2+z
1/2+x,1/2+y,z
1/2-x,1/2+y,1/2-z
1/2-x,1/2-y,-z
1/2+x,1/2-y,1/2+z
loop_
_atom_site_type_symbol
_atom_site_label
_atom_site_fract_x
_atom_site_fract_y
_atom_site_fract_z
Si Si1 0.551398 0.188526 0.401474
Si Si2 0.000000 0.637747 0.750000
Si Si3 0.278042 0.270050 0.877224
Si Si4 0.903977 0.542580 0.561176
Si Si5 0.528695 0.072692 0.074671
Si Si6 0.038389 0.974464 0.929908
Si Si7 0.369810 0.416609 0.247773
Si Si8 0.098981 0.145529 0.545991
O O1 0.660466 0.208535 0.550979
O O2 0.386194 0.232662 0.288453
O O3 0.686339 0.195956 0.402872
O O4 0.459087 0.126883 0.356032
O O5 0.992326 0.594794 0.664391
O O6 0.801035 0.665294 0.639087
O O7 0.451181 0.304816 0.952092
O O8 0.032428 0.487994 0.624803
O O9 0.741667 0.519017 0.519654
O O10 0.845352 0.567323 0.432586
O O11 0.330582 0.079865 0.911886
O O12 0.028152 0.905825 0.939689
O O13 0.927474 0.017429 0.802241
O O14 0.000000 0.000000 0.000000
O O15 0.500000 0.394290 0.250000
O O16 0.390296 0.381002 0.349703
#
# Coordination Sequence:
#
# PCOD9273744 Si02
#       8
#     8   4   8   8   8   8   8   8
#     4  10  24  43  65  95 127 160 212 271 327 382
#     4  10  20  38  58  90 128 174 214 248 306 378
#     4  10  23  44  66  94 123 165 213 269 326 379
#     4  10  21  36  53  87 128 170 203 250 304 374
#     4  11  22  36  57  89 127 164 202 260 315 376
#     4   9  20  35  53  84 122 162 210 242 293 367
#     4  11  19  33  55  89 121 164 207 250 310 369
#     4  10  21  37  63  87 126 167 209 259 309 374
#
# _framework density 22.415289999999999
#
# number of rings (size 3 to 8) (size 9 to 14) (size 15 to 20)
#    0.000    1.867    2.667    0.800    3.733    3.200 
#    2.400    0.000    0.000    7.200    0.000    0.000 
#    0.000    0.000    0.000    0.000    0.000    0.000 
#
# Total GULP energy -167456.581316 kJ/mol
# GULP energy per Si atom -5581.886044 kJ/mol
# Density = 2.236427 g / cm^3
# Si number density = 22.415290 Si / 1000 Ang^3
#
#
#
# Elastic Constant Matrix: (Units=GPa)
#
#
# Indices 1 2 3 4 5 6 
#
# 1 115.1087 20.1876 8.5645 0.0001 17.5760 0.0000
# 2 20.1876 47.6462 -3.4275 0.0000 10.8471 0.0000
# 3 8.5645 -3.4275 58.8491 0.0002 16.5129 0.0001
# 4 0.0001 0.0000 0.0002 -0.8061 0.0001 -6.9754
# 5 17.5760 10.8471 16.5129 0.0001 33.4296 0.0001
# 6 0.0000 0.0000 0.0001 -6.9754 0.0001 19.2925
#
#
#
# Elastic Compliance Matrix: (Units=1/GPa)
#
#
# Indices 1 2 3 4 5 6 
#
# 1 0.009905 -0.003363 -0.000560 0.000000 -0.003840 0.000000
# 2 -0.003363 0.024614 0.004258 0.000000 -0.008322 0.000000
# 3 -0.000560 0.004258 0.020463 0.000001 -0.011195 0.000000
# 4 0.000000 0.000000 0.000001 -0.300476 0.000001 -0.108640
# 5 -0.003840 -0.008322 -0.011195 0.000001 0.040163 0.000000
# 6 0.000000 0.000000 0.000000 -0.108640 0.000000 0.012554
#
#
# Mechanical properties :
#
#
# Convention : Reuss Voigt Hill
#
# Bulk Modulus (GPa) = 17.96853 30.25035 24.10944
# Shear Modulus (GPa) = -28.58843 23.46851 -2.55996
#
# Velocity S-wave (km/s) = -3.57515 3.23923 -1.06983
# Velocity P-wave (km/s) = 3.00144 5.24546 3.04189
#
# Compressibility (1/GPa) = 0.05565287
#
# Stress axis : x y z
#
# Youngs Moduli (GPa) = 100.95701 40.62780 48.86759
#
# Poissons Ratio (x) = 0.13663 0.02736
# Poissons Ratio (y) = 0.33951 -0.20808
# Poissons Ratio (z) = 0.05653 -0.17299
#
# Static dielectric constant tensor:
#      x y z
#    x 1.870240 0.000000 0.050320 
#    y 0.000000 1.818290 0.000000 
#    z 0.050320 0.000000 2.078090 
# 
# From -- ./inp_files/200957.got.cif
#   From: 2010.05.17/outbox.cif.g08.bks.cpg/sg15_101_cif.got.tgz:200957.got - 2010.06.03 18:47:42.
