data_PCOD9273636
_publ_section_title
;
Structure prediction by ZEFSAII (Michael W. Deem and Ramdas Pophale) SiO2 
 PCOD9273636
Probable space group: C 2/C
;
_chemical_formula_sum "Si O2"
_cell_formula_units_Z 56
_cell_length_a 23.695232
_cell_length_b 16.754966
_cell_length_c 9.455199
_cell_angle_alpha 90.000000
_cell_angle_beta 136.567503
_cell_angle_gamma 90.000000
_cell_volume 2580.759743
_symmetry_space_group_name_H-M "C 2/C"
_symmetry_group_IT_number 15
_symmetry_cell_setting 'monoclinic'
loop_
_space_group_symop_operation_xyz
x,y,z
-x,y,1/2-z
-x,-y,-z
x,-y,1/2+z
1/2+x,1/2+y,z
1/2-x,1/2+y,1/2-z
1/2-x,1/2-y,-z
1/2+x,1/2-y,1/2+z
loop_
_atom_site_type_symbol
_atom_site_label
_atom_site_fract_x
_atom_site_fract_y
_atom_site_fract_z
Si Si1 0.143640 0.602872 0.626186
Si Si2 0.583218 0.451507 0.942531
Si Si3 0.675181 0.049036 0.996765
Si Si4 0.213329 0.850012 0.294368
Si Si5 0.410844 0.282575 0.015723
Si Si6 0.767703 0.669984 0.180991
Si Si7 0.865536 0.074139 0.270727
O O1 0.135688 0.527693 0.503438
O O2 0.236024 0.632310 0.755565
O O3 0.094780 0.686006 0.514010
O O4 0.138883 0.570997 0.777697
O O5 0.500000 0.410549 0.750000
O O6 0.627042 0.459595 0.872503
O O7 0.631166 0.397858 0.138557
O O8 0.572078 0.533462 0.004794
O O9 0.676355 0.122780 0.107951
O O10 0.775099 0.046742 0.158667
O O11 0.196204 0.757265 0.273391
O O12 0.265914 0.873394 0.527016
O O13 0.500000 0.299114 0.250000
O O14 0.328761 0.312946 0.953428
O O15 0.389575 0.332575 0.832811
#
# Coordination Sequence:
#
# PCOD9273636 Si02
#       7
#     8   8   8   8   8   8   8
#     4  11  22  39  66  89 122 158 205 262 299 361
#     4  12  25  36  59  89 129 163 203 239 304 364
#     4  11  20  37  63  91 115 153 210 252 303 345
#     4  10  20  38  56  90 120 160 202 250 301 354
#     4  10  24  41  63  90 125 164 202 244 313 367
#     4   9  22  36  63  87 123 158 200 256 302 357
#     4  11  23  39  61  86 128 163 199 248 292 370
#
# _framework density 21.699037000000001
#
# number of rings (size 3 to 8) (size 9 to 14) (size 15 to 20)
#    0.000    1.429    2.857    1.714    8.000    1.714 
#    0.000    0.714    0.000    0.857    0.000    0.000 
#    0.000    0.000    0.000    0.000    0.000    0.000 
#
# Total GULP energy -155962.008928 kJ/mol
# GULP energy per Si atom -5570.071747 kJ/mol
# Density = 2.164965 g / cm^3
# Si number density = 21.699037 Si / 1000 Ang^3
#
#
#
# Elastic Constant Matrix: (Units=GPa)
#
#
# Indices 1 2 3 4 5 6 
#
# 1 24.0371 23.6105 18.7158 0.0000 -20.9966 0.0000
# 2 23.6105 109.4570 46.8449 0.0000 -16.6666 0.0000
# 3 18.7158 46.8449 69.8198 0.0000 -27.2873 0.0000
# 4 0.0000 0.0000 0.0000 -11.6595 0.0000 6.9517
# 5 -20.9966 -16.6666 -27.2873 0.0000 39.4957 0.0000
# 6 0.0000 0.0000 0.0000 6.9517 0.0000 14.1983
#
#
#
# Elastic Compliance Matrix: (Units=1/GPa)
#
#
# Indices 1 2 3 4 5 6 
#
# 1 0.093189 -0.014149 0.002111 0.000000 0.045029 0.000000
# 2 -0.014149 0.014980 -0.009215 0.000000 -0.007567 0.000000
# 3 0.002111 -0.009215 0.025834 0.000000 0.015082 0.000000
# 4 0.000000 0.000000 0.000000 -0.066387 0.000000 0.032504
# 5 0.045029 -0.007567 0.015082 0.000000 0.056485 0.000000
# 6 0.000000 0.000000 0.000000 0.032504 0.000000 0.054517
#
#
# Mechanical properties :
#
#
# Convention : Reuss Voigt Hill
#
# Bulk Modulus (GPa) = 10.92922 42.40627 26.66774
# Shear Modulus (GPa) = 19.87111 16.01640 17.94375
#
# Velocity S-wave (km/s) = 3.02944 2.71978 2.87877
# Velocity P-wave (km/s) = 4.15744 5.42663 4.83387
#
# Compressibility (1/GPa) = 0.09149785
#
# Stress axis : x y z
#
# Youngs Moduli (GPa) = 10.73083 66.75734 38.70862
#
# Poissons Ratio (x) = 0.94453 -0.08173
# Poissons Ratio (y) = 0.15183 0.35671
# Poissons Ratio (z) = -0.02266 0.61519
#
# Static dielectric constant tensor:
#      x y z
#    x 1.906050 0.000000 -0.020250 
#    y 0.000000 1.851330 0.000000 
#    z -0.020250 0.000000 1.798130 
# 
# From -- ./inp_files/70528.got.cif
#   From: 2010.05.17/outbox.cif.g08.bks.cpg/sg15_36_cif.got.tgz:70528.got - 2010.06.03 18:47:42.
