data_PCOD9273290
_publ_section_title
;
Structure prediction by ZEFSAII (Michael W. Deem and Ramdas Pophale) SiO2 
 PCOD9273290
Probable space group: C 2/C
;
_chemical_formula_sum "Si O2"
_cell_formula_units_Z 64
_cell_length_a 13.376562
_cell_length_b 19.727167
_cell_length_c 21.299274
_cell_angle_alpha 90.000000
_cell_angle_beta 35.894959
_cell_angle_gamma 90.000000
_cell_volume 3295.298241
_symmetry_space_group_name_H-M "C 2/C"
_symmetry_group_IT_number 15
_symmetry_cell_setting 'monoclinic'
loop_
_space_group_symop_operation_xyz
x,y,z
-x,y,1/2-z
-x,-y,-z
x,-y,1/2+z
1/2+x,1/2+y,z
1/2-x,1/2+y,1/2-z
1/2-x,1/2-y,-z
1/2+x,1/2-y,1/2+z
loop_
_atom_site_type_symbol
_atom_site_label
_atom_site_fract_x
_atom_site_fract_y
_atom_site_fract_z
Si Si1 0.098432 0.505806 0.133688
Si Si2 0.281120 0.673417 0.625418
Si Si3 0.894107 0.128026 0.866635
Si Si4 0.553691 0.149661 0.625740
Si Si5 0.691290 0.233293 0.129199
Si Si6 0.588532 0.600025 0.509485
Si Si7 0.983874 0.301769 0.493929
Si Si8 0.043704 0.441592 0.528922
O O1 0.099694 0.429568 0.106999
O O2 0.286431 0.535795 0.053091
O O3 0.006928 0.544535 0.121505
O O4 0.000000 0.507855 0.250000
O O5 0.179757 0.681983 0.612251
O O6 0.425922 0.614688 0.548643
O O7 0.380734 0.743686 0.582735
O O8 0.138723 0.658369 0.750057
O O9 0.828104 0.205034 0.910560
O O10 0.000000 0.131317 0.750000
O O11 0.988135 0.106156 0.881461
O O12 0.745207 0.074340 0.929683
O O13 0.573083 0.180248 0.547181
O O14 0.500000 0.218791 0.250000
O O15 0.780243 0.162874 0.066704
O O16 0.823416 0.271460 0.108982
O O17 0.972214 0.370753 0.539466
O O18 0.000000 0.500000 0.500000
#
# Coordination Sequence:
#
# PCOD9273290 Si02
#       8
#     8   8   8   8   8   8   8   8
#     4  11  22  41  62  90 127 166 201 253 321 381
#     4  10  23  40  63  92 118 164 216 255 307 367
#     4   9  19  32  54  83 118 156 194 244 303 361
#     4  11  22  42  67  85 122 171 205 253 310 367
#     4   9  18  33  54  89 120 152 193 250 310 360
#     4  10  21  35  57  89 124 156 202 255 302 370
#     4  10  21  40  65  91 122 162 210 255 301 368
#     4  10  20  37  64  89 121 163 202 249 307 374
#
# _framework density 19.421610999999999
#
# number of rings (size 3 to 8) (size 9 to 14) (size 15 to 20)
#    0.000    2.000    2.500    1.125    5.250    1.500 
#    4.500    0.000    2.750    0.000    0.000    0.000 
#    0.000    0.000    0.000    0.000    0.000    0.000 
#
# Total GULP energy -178147.376192 kJ/mol
# GULP energy per Si atom -5567.105506 kJ/mol
# Density = 1.937741 g / cm^3
# Si number density = 19.421611 Si / 1000 Ang^3
#
#
#
# Elastic Constant Matrix: (Units=GPa)
#
#
# Indices 1 2 3 4 5 6 
#
# 1 49.0663 15.4341 15.2638 0.0008 -5.7914 -0.0021
# 2 15.4341 95.2288 22.7646 0.0007 -8.6891 -0.0014
# 3 15.2638 22.7646 44.7501 0.0010 -9.5577 -0.0063
# 4 0.0008 0.0007 0.0010 17.2572 0.0006 2.9174
# 5 -5.7914 -8.6891 -9.5577 0.0006 31.3252 0.0009
# 6 -0.0021 -0.0014 -0.0063 2.9174 0.0009 9.3761
#
#
#
# Elastic Compliance Matrix: (Units=1/GPa)
#
#
# Indices 1 2 3 4 5 6 
#
# 1 0.023259 -0.002053 -0.006517 -0.000001 0.001742 0.000001
# 2 -0.002053 0.012208 -0.005207 0.000000 0.001418 -0.000002
# 3 -0.006517 -0.005207 0.028510 -0.000004 0.006050 0.000018
# 4 -0.000001 0.000000 -0.000004 0.061164 -0.000002 -0.019031
# 5 0.001742 0.001418 0.006050 -0.000002 0.034484 0.000002
# 6 0.000001 -0.000002 0.000018 -0.019031 0.000002 0.112576
#
#
# Mechanical properties :
#
#
# Convention : Reuss Voigt Hill
#
# Bulk Modulus (GPa) = 27.45503 32.88559 30.17031
# Shear Modulus (GPa) = 16.03090 20.63052 18.33071
#
# Velocity S-wave (km/s) = 2.87612 3.26275 3.07552
# Velocity P-wave (km/s) = 5.01961 5.58241 5.30847
#
# Compressibility (1/GPa) = 0.03642320
#
# Stress axis : x y z
#
# Youngs Moduli (GPa) = 42.99342 81.91419 35.07513
#
# Poissons Ratio (x) = 0.16816 0.22859
# Poissons Ratio (y) = 0.08826 0.18264
# Poissons Ratio (z) = 0.28019 0.42654
#
# Static dielectric constant tensor:
#      x y z
#    x 1.731060 0.000000 -0.001830 
#    y 0.000000 1.716780 0.000000 
#    z -0.001830 0.000000 1.688500 
# 
# From -- ./inp_files/240420.got.cif
#   From: 2010.05.17/outbox.cif.g08.bks.cpg/sg15_121_cif.got.tgz:240420.got - 2010.06.03 18:47:42.
