data_PCOD9273414
_publ_section_title
;
Structure prediction by ZEFSAII (Michael W. Deem and Ramdas Pophale) SiO2 
 PCOD9273414
Probable space group: C 2/C
;
_chemical_formula_sum "Si O2"
_cell_formula_units_Z 52
_cell_length_a 24.396792
_cell_length_b 14.870939
_cell_length_c 7.821473
_cell_angle_alpha 90.000000
_cell_angle_beta 60.439018
_cell_angle_gamma 90.000000
_cell_volume 2468.280981
_symmetry_space_group_name_H-M "C 2/C"
_symmetry_group_IT_number 15
_symmetry_cell_setting 'monoclinic'
loop_
_space_group_symop_operation_xyz
x,y,z
-x,y,1/2-z
-x,-y,-z
x,-y,1/2+z
1/2+x,1/2+y,z
1/2-x,1/2+y,1/2-z
1/2-x,1/2-y,-z
1/2+x,1/2-y,1/2+z
loop_
_atom_site_type_symbol
_atom_site_label
_atom_site_fract_x
_atom_site_fract_y
_atom_site_fract_z
Si Si1 0.357385 0.697425 0.089103
Si Si2 0.000000 0.225395 0.250000
Si Si3 0.068250 0.463847 0.059732
Si Si4 0.771200 0.329942 0.846283
Si Si5 0.481202 0.599970 0.974095
Si Si6 0.864232 0.685344 0.897985
Si Si7 0.611763 0.127781 0.152332
O O1 0.296105 0.641924 0.125168
O O2 0.339332 0.769363 0.264580
O O3 0.407913 0.628139 0.086600
O O4 0.387696 0.766292 0.900111
O O5 0.935333 0.277749 0.315406
O O6 0.987525 0.165327 0.436057
O O7 0.121961 0.420195 0.098601
O O8 0.086760 0.568936 0.032477
O O9 0.000000 0.456193 0.250000
O O10 0.071051 0.408468 0.877483
O O11 0.816269 0.294510 0.625558
O O12 0.816818 0.390743 0.892512
O O13 0.750000 0.250000 0.000000
O O14 0.500000 0.614191 0.750000
O O15 0.500000 0.500000 0.000000
#
# Coordination Sequence:
#
# PCOD9273414 Si02
#       7
#     8   4   8   8   8   8   8
#     4  10  22  40  65  89 118 168 211 255 319 368
#     4  10  22  40  64  98 122 170 204 258 326 378
#     4  11  21  35  57  89 133 161 202 254 310 374
#     4   9  20  38  60  88 122 162 213 253 298 371
#     4  11  24  41  65  90 129 160 212 271 321 369
#     4  10  20  37  65  92 126 159 207 250 312 377
#     4  10  22  37  57  89 124 167 208 255 307 373
#
# _framework density 21.067292999999999
#
# number of rings (size 3 to 8) (size 9 to 14) (size 15 to 20)
#    0.000    1.846    1.538    1.846    6.462    0.615 
#    0.000    3.077    3.385    0.000    0.000    0.000 
#    0.000    0.000    0.000    0.000    0.000    0.000 
#
# Total GULP energy -144816.541197 kJ/mol
# GULP energy per Si atom -5569.866969 kJ/mol
# Density = 2.101934 g / cm^3
# Si number density = 21.067293 Si / 1000 Ang^3
#
#
#
# Elastic Constant Matrix: (Units=GPa)
#
#
# Indices 1 2 3 4 5 6 
#
# 1 88.1262 26.5590 7.6707 0.0000 -7.0325 0.0000
# 2 26.5590 70.8193 20.3322 0.0000 -10.9689 0.0000
# 3 7.6707 20.3322 103.9819 0.0000 6.5153 0.0000
# 4 0.0000 0.0000 0.0000 13.2585 0.0000 -7.1500
# 5 -7.0325 -10.9689 6.5153 0.0000 37.4207 0.0000
# 6 0.0000 0.0000 0.0000 -7.1500 0.0000 24.2074
#
#
#
# Elastic Compliance Matrix: (Units=1/GPa)
#
#
# Indices 1 2 3 4 5 6 
#
# 1 0.012834 -0.004614 -0.000112 0.000000 0.001079 0.000000
# 2 -0.004614 0.017584 -0.003404 0.000000 0.004880 0.000000
# 3 -0.000112 -0.003404 0.010469 0.000000 -0.002842 0.000000
# 4 0.000000 0.000000 0.000000 0.089713 0.000000 0.026498
# 5 0.001079 0.004880 -0.002842 0.000000 0.028851 0.000000
# 6 0.000000 0.000000 0.000000 0.026498 0.000000 0.049136
#
#
# Mechanical properties :
#
#
# Convention : Reuss Voigt Hill
#
# Bulk Modulus (GPa) = 40.60536 41.33903 40.97219
# Shear Modulus (GPa) = 21.45419 28.86836 25.16128
#
# Velocity S-wave (km/s) = 3.19464 3.70576 3.45966
# Velocity P-wave (km/s) = 5.73791 6.16240 5.95394
#
# Compressibility (1/GPa) = 0.02462729
#
# Stress axis : x y z
#
# Youngs Moduli (GPa) = 77.92010 56.87105 95.52087
#
# Poissons Ratio (x) = 0.26238 0.01072
# Poissons Ratio (y) = 0.35949 0.32512
# Poissons Ratio (z) = 0.00874 0.19357
#
# Static dielectric constant tensor:
#      x y z
#    x 1.832860 0.000000 0.031240 
#    y 0.000000 1.808630 0.000000 
#    z 0.031240 0.000000 1.809840 
# 
# From -- ./inp_files/66142.got.cif
#   From: 2010.05.17/outbox.cif.g08.bks.cpg/sg15_34_cif.got.tgz:66142.got - 2010.06.03 18:47:42.
