data_PCOD9273167
_publ_section_title
;
Structure prediction by ZEFSAII (Michael W. Deem and Ramdas Pophale) SiO2 
 PCOD9273167
Probable space group: C 2/C
;
_chemical_formula_sum "Si O2"
_cell_formula_units_Z 48
_cell_length_a 19.749458
_cell_length_b 20.749609
_cell_length_c 12.240012
_cell_angle_alpha 90.000000
_cell_angle_beta 159.815025
_cell_angle_gamma 90.000000
_cell_volume 1730.739052
_symmetry_space_group_name_H-M "C 2/C"
_symmetry_group_IT_number 15
_symmetry_cell_setting 'monoclinic'
loop_
_space_group_symop_operation_xyz
x,y,z
-x,y,1/2-z
-x,-y,-z
x,-y,1/2+z
1/2+x,1/2+y,z
1/2-x,1/2+y,1/2-z
1/2-x,1/2-y,-z
1/2+x,1/2-y,1/2+z
loop_
_atom_site_type_symbol
_atom_site_label
_atom_site_fract_x
_atom_site_fract_y
_atom_site_fract_z
Si Si1 0.584376 0.233018 0.052923
Si Si2 0.235864 0.668746 0.808494
Si Si3 0.853727 0.074841 0.642244
Si Si4 0.840843 0.411234 0.891190
Si Si5 0.000000 0.807479 0.250000
Si Si6 0.771868 0.940545 0.544051
Si Si7 0.500000 0.109565 0.250000
O O1 0.588101 0.296823 0.987942
O O2 0.589185 0.163323 0.000882
O O3 0.797932 0.231706 0.435874
O O4 0.388448 0.227076 0.825824
O O5 0.285752 0.613128 0.970435
O O6 0.082894 0.643008 0.485537
O O7 0.754281 0.076614 0.370459
O O8 0.697791 0.077784 0.503463
O O9 0.963861 0.144031 0.798056
O O10 0.916211 0.000078 0.742211
O O11 0.711299 0.421679 0.802994
O O12 0.036364 0.454894 0.185137
#
# Coordination Sequence:
#
# PCOD9273167 Si02
#       7
#     8   8   8   8   4   8   4
#     4  10  22  41  58  90 125 160 210 250 311 359
#     4  11  24  38  63  95 121 165 206 257 306 364
#     4  11  22  37  63  94 122 160 204 255 311 363
#     4   9  19  39  59  86 123 162 197 258 302 355
#     4  10  21  42  58  86 134 161 194 260 322 348
#     4  10  20  37  63  88 122 160 211 245 302 374
#     4  12  21  36  62  98 116 157 210 250 312 368
#
# _framework density 27.733816999999998
#
# number of rings (size 3 to 8) (size 9 to 14) (size 15 to 20)
#    0.000    1.667    5.000    2.000    4.667    2.000 
#    0.000    5.000    0.000    0.000    0.000    0.000 
#    0.000    0.000    0.000    0.000    0.000    0.000 
#
# Total GULP energy -134100.966718 kJ/mol
# GULP energy per Si atom -5587.540280 kJ/mol
# Density = 2.767069 g / cm^3
# Si number density = 27.733817 Si / 1000 Ang^3
#
#
#
# Elastic Constant Matrix: (Units=GPa)
#
#
# Indices 1 2 3 4 5 6 
#
# 1 143.9189 39.7741 2.6838 0.0000 7.6033 0.0000
# 2 39.7741 93.4435 3.8074 0.0000 3.5555 0.0000
# 3 2.6838 3.8074 60.6372 0.0000 -10.7737 0.0000
# 4 0.0000 0.0000 0.0000 35.0718 0.0000 11.4769
# 5 7.6033 3.5555 -10.7737 0.0000 56.3206 0.0000
# 6 0.0000 0.0000 0.0000 11.4769 0.0000 41.8548
#
#
#
# Elastic Compliance Matrix: (Units=1/GPa)
#
#
# Indices 1 2 3 4 5 6 
#
# 1 0.007921 -0.003324 -0.000305 0.000000 -0.000918 0.000000
# 2 -0.003324 0.012162 -0.000697 0.000000 -0.000452 0.000000
# 3 -0.000305 -0.000697 0.017147 0.000000 0.003365 0.000000
# 4 0.000000 0.000000 0.000000 0.031324 0.000000 -0.008589
# 5 -0.000918 -0.000452 0.003365 0.000000 0.018552 0.000000
# 6 0.000000 0.000000 0.000000 -0.008589 0.000000 0.026247
#
#
# Mechanical properties :
#
#
# Convention : Reuss Voigt Hill
#
# Bulk Modulus (GPa) = 34.99210 43.39224 39.19217
# Shear Modulus (GPa) = 38.01380 43.43173 40.72277
#
# Velocity S-wave (km/s) = 3.70627 3.96159 3.83605
# Velocity P-wave (km/s) = 5.56415 6.05025 5.81228
#
# Compressibility (1/GPa) = 0.02857788
#
# Stress axis : x y z
#
# Youngs Moduli (GPa) = 126.24253 82.22161 58.32033
#
# Poissons Ratio (x) = 0.27333 0.01778
# Poissons Ratio (y) = 0.41967 0.04064
# Poissons Ratio (z) = 0.03850 0.05730
#
# Static dielectric constant tensor:
#      x y z
#    x 2.150610 0.000000 0.044790 
#    y 0.000000 2.138100 0.000000 
#    z 0.044790 0.000000 2.422110 
# 
# From -- ./inp_files/108158.got.cif
#   From: 2010.05.17/outbox.cif.g08.bks.cpg/sg15_55_cif.got.tgz:108158.got - 2010.06.03 18:47:42.
