data_PCOD9273605
_publ_section_title
;
Structure prediction by ZEFSAII (Michael W. Deem and Ramdas Pophale) SiO2 
 PCOD9273605
Probable space group: C 2/C
;
_chemical_formula_sum "Si O2"
_cell_formula_units_Z 60
_cell_length_a 18.424439
_cell_length_b 21.039297
_cell_length_c 9.774692
_cell_angle_alpha 90.000000
_cell_angle_beta 122.589006
_cell_angle_gamma 90.000000
_cell_volume 3192.472992
_symmetry_space_group_name_H-M "C 2/C"
_symmetry_group_IT_number 15
_symmetry_cell_setting 'monoclinic'
loop_
_space_group_symop_operation_xyz
x,y,z
-x,y,1/2-z
-x,-y,-z
x,-y,1/2+z
1/2+x,1/2+y,z
1/2-x,1/2+y,1/2-z
1/2-x,1/2-y,-z
1/2+x,1/2-y,1/2+z
loop_
_atom_site_type_symbol
_atom_site_label
_atom_site_fract_x
_atom_site_fract_y
_atom_site_fract_z
Si Si1 0.050890 0.735330 0.167437
Si Si2 0.935159 0.704639 0.811171
Si Si3 0.633704 0.020952 0.385027
Si Si4 0.313762 0.684644 0.804628
Si Si5 0.720662 0.889923 0.415221
Si Si6 0.208366 0.196582 0.274801
Si Si7 0.000000 0.500000 0.000000
Si Si8 0.281425 0.156410 0.070659
O O1 0.088717 0.796517 0.127356
O O2 0.132501 0.694213 0.298570
O O3 0.000000 0.754097 0.250000
O O4 0.991590 0.694769 0.004801
O O5 0.867159 0.647920 0.717086
O O6 0.881269 0.769184 0.780925
O O7 0.000000 0.708100 0.750000
O O8 0.688247 0.085361 0.429465
O O9 0.695428 0.960657 0.425279
O O10 0.566235 0.018869 0.191320
O O11 0.582760 0.012963 0.476193
O O12 0.288604 0.622428 0.862671
O O13 0.276075 0.744601 0.850775
O O14 0.261291 0.683498 0.609689
O O15 0.760740 0.855096 0.586748
O O16 0.216545 0.167290 0.131580
#
# Coordination Sequence:
#
# PCOD9273605 Si02
#       8
#     8   8   8   8   8   8   4   8
#     4  11  21  33  55  85 112 143 183 230 292 330
#     4  11  21  33  55  85 112 143 183 230 292 330
#     4  11  24  38  58  80 116 155 196 215 278 328
#     4  10  20  38  55  78 111 147 188 238 274 329
#     4  11  22  37  57  80 114 153 187 225 273 335
#     4  10  20  38  55  78 111 147 188 238 274 329
#     4  10  24  38  48  78 124 144 188 232 252 312
#     4  11  22  37  57  80 114 153 187 225 273 335
#
# _framework density 18.794208000000001
#
# number of rings (size 3 to 8) (size 9 to 14) (size 15 to 20)
#    0.000    1.333    0.000    9.600    5.600    0.000 
#    0.000    0.000    0.000    0.000    0.000   18.667 
#    0.000    0.000    0.000    0.000    0.000    0.000 
#
# Total GULP energy -167092.946739 kJ/mol
# GULP energy per Si atom -5569.764891 kJ/mol
# Density = 1.875143 g / cm^3
# Si number density = 18.794208 Si / 1000 Ang^3
#
#
#
# Elastic Constant Matrix: (Units=GPa)
#
#
# Indices 1 2 3 4 5 6 
#
# 1 104.9889 38.2871 3.6642 0.0000 -26.9445 0.0000
# 2 38.2871 100.0073 9.3154 0.0000 0.0258 0.0000
# 3 3.6642 9.3154 65.3685 0.0000 -8.1496 0.0000
# 4 0.0000 0.0000 0.0000 3.1989 0.0000 -6.4065
# 5 -26.9445 0.0258 -8.1496 0.0000 30.8183 0.0000
# 6 0.0000 0.0000 0.0000 -6.4065 0.0000 2.3942
#
#
#
# Elastic Compliance Matrix: (Units=1/GPa)
#
#
# Indices 1 2 3 4 5 6 
#
# 1 0.015160 -0.005967 0.001710 0.000000 0.013712 0.000000
# 2 -0.005967 0.012487 -0.002168 0.000000 -0.005801 0.000000
# 3 0.001710 -0.002168 0.016233 0.000000 0.005789 0.000000
# 4 0.000000 0.000000 0.000000 -0.071718 0.000000 -0.191903
# 5 0.013712 -0.005801 0.005789 0.000000 0.045972 0.000000
# 6 0.000000 0.000000 0.000000 -0.191903 0.000000 -0.095823
#
#
# Mechanical properties :
#
#
# Convention : Reuss Voigt Hill
#
# Bulk Modulus (GPa) = 32.22690 41.43313 36.83001
# Shear Modulus (GPa) = -91.75119 21.88883 -34.93118
#
# Velocity S-wave (km/s) = -6.99463 3.41641 -4.31584
# Velocity P-wave (km/s) = 6.93171 6.13645 2.27954
#
# Compressibility (1/GPa) = 0.03102998
#
# Stress axis : x y z
#
# Youngs Moduli (GPa) = 65.96295 80.08300 61.60367
#
# Poissons Ratio (x) = 0.47783 -0.10534
# Poissons Ratio (y) = 0.39358 0.13357
# Poissons Ratio (z) = -0.11279 0.17363
#
# Static dielectric constant tensor:
#      x y z
#    x 1.684800 0.000000 -0.019680 
#    y 0.000000 1.655450 0.000000 
#    z -0.019680 0.000000 1.665420 
# 
# From -- ./inp_files/50693.got.cif
#   From: 2010.05.17/outbox.cif.g08.bks.cpg/sg15_26_cif.got.tgz:50693.got - 2010.06.03 18:47:42.
