data_PCOD9273856
_publ_section_title
;
Structure prediction by ZEFSAII (Michael W. Deem and Ramdas Pophale) SiO2 
 PCOD9273856
Probable space group: C 2/C
;
_chemical_formula_sum "Si O2"
_cell_formula_units_Z 60
_cell_length_a 16.700531
_cell_length_b 10.775685
_cell_length_c 14.159519
_cell_angle_alpha 90.000000
_cell_angle_beta 83.502812
_cell_angle_gamma 90.000000
_cell_volume 2531.776573
_symmetry_space_group_name_H-M "C 2/C"
_symmetry_group_IT_number 15
_symmetry_cell_setting 'monoclinic'
loop_
_space_group_symop_operation_xyz
x,y,z
-x,y,1/2-z
-x,-y,-z
x,-y,1/2+z
1/2+x,1/2+y,z
1/2-x,1/2+y,1/2-z
1/2-x,1/2-y,-z
1/2+x,1/2-y,1/2+z
loop_
_atom_site_type_symbol
_atom_site_label
_atom_site_fract_x
_atom_site_fract_y
_atom_site_fract_z
Si Si1 0.401434 0.160461 0.989451
Si Si2 0.204842 0.755911 0.884416
Si Si3 0.500000 0.521052 0.250000
Si Si4 0.863127 0.381335 0.808517
Si Si5 0.355681 0.302513 0.814471
Si Si6 0.582941 0.116970 0.004384
Si Si7 0.616919 0.655954 0.834770
Si Si8 0.745473 0.019466 0.793347
O O1 0.383239 0.270574 0.066579
O O2 0.381062 0.019500 0.025380
O O3 0.362569 0.201002 0.895191
O O4 0.498319 0.146415 0.967586
O O5 0.275565 0.855838 0.870523
O O6 0.155302 0.761256 0.792715
O O7 0.140836 0.733640 0.974491
O O8 0.249453 0.624523 0.870831
O O9 0.566894 0.608264 0.193546
O O10 0.457590 0.434955 0.176869
O O11 0.884909 0.263745 0.743238
O O12 0.840935 0.492210 0.741583
O O13 0.927523 0.396428 0.881548
O O14 0.278236 0.392095 0.833108
O O15 0.695086 0.573310 0.796804
#
# Coordination Sequence:
#
# PCOD9273856 Si02
#       8
#     8   8   4   8   8   8   8   8
#     4  11  24  38  57  87 118 154 194 236 285 339
#     4  10  20  38  60  83 115 151 191 241 289 340
#     4  10  20  38  60  82 112 152 192 232 288 344
#     4  10  20  38  60  83 115 151 191 241 289 340
#     4  10  21  38  59  85 117 150 191 239 287 343
#     4  11  23  37  57  85 116 155 198 234 284 342
#     4  10  21  38  59  85 117 150 191 239 287 343
#     4   9  20  37  60  85 112 151 190 236 296 343
#
# _framework density 23.698772999999999
#
# number of rings (size 3 to 8) (size 9 to 14) (size 15 to 20)
#    0.000    1.867    0.000    3.600    0.000    1.600 
#    0.000   18.000    0.000    0.000    0.000    0.000 
#    0.000    0.000    0.000    0.000    0.000    0.000 
#
# Total GULP energy -167442.151081 kJ/mol
# GULP energy per Si atom -5581.405036 kJ/mol
# Density = 2.364483 g / cm^3
# Si number density = 23.698773 Si / 1000 Ang^3
#
#
#
# Elastic Constant Matrix: (Units=GPa)
#
#
# Indices 1 2 3 4 5 6 
#
# 1 41.6517 8.7184 16.7965 0.0000 9.3620 0.0000
# 2 8.7184 70.5382 4.5169 0.0000 7.4915 0.0000
# 3 16.7965 4.5169 80.7843 0.0000 26.3807 0.0000
# 4 0.0000 0.0000 0.0000 35.2464 0.0000 9.8917
# 5 9.3620 7.4915 26.3807 0.0000 29.8116 0.0000
# 6 0.0000 0.0000 0.0000 9.8917 0.0000 28.8863
#
#
#
# Elastic Compliance Matrix: (Units=1/GPa)
#
#
# Indices 1 2 3 4 5 6 
#
# 1 0.027174 -0.002646 -0.004124 0.000000 -0.004219 0.000000
# 2 -0.002646 0.014840 0.000938 0.000000 -0.003728 0.000000
# 3 -0.004124 0.000938 0.018055 0.000000 -0.014918 0.000000
# 4 0.000000 0.000000 0.000000 0.031388 0.000000 -0.010748
# 5 -0.004219 -0.003728 -0.014918 0.000000 0.049007 0.000000
# 6 0.000000 0.000000 0.000000 -0.010748 0.000000 0.038299
#
#
# Mechanical properties :
#
#
# Convention : Reuss Voigt Hill
#
# Bulk Modulus (GPa) = 20.65970 28.11530 24.38750
# Shear Modulus (GPa) = 24.20569 29.65169 26.92869
#
# Velocity S-wave (km/s) = 3.19939 3.54106 3.37455
# Velocity P-wave (km/s) = 4.73124 5.34866 5.04939
#
# Compressibility (1/GPa) = 0.04840342
#
# Stress axis : x y z
#
# Youngs Moduli (GPa) = 36.79987 67.38690 55.38567
#
# Poissons Ratio (x) = 0.17834 0.22842
# Poissons Ratio (y) = 0.09739 -0.05195
# Poissons Ratio (z) = 0.15177 -0.06320
#
# Static dielectric constant tensor:
#      x y z
#    x 1.938570 0.000000 -0.025400 
#    y 0.000000 1.928620 0.000000 
#    z -0.025400 0.000000 1.911130 
# 
# From -- ./inp_files/160929.got.cif
#   From: 2010.05.17/outbox.cif.g08.bks.cpg/sg15_81_cif.got.tgz:160929.got - 2010.06.03 18:47:42.
