data_PCOD9273075
_publ_section_title
;
Structure prediction by ZEFSAII (Michael W. Deem and Ramdas Pophale) SiO2 
 PCOD9273075
Probable space group: C 2/C
;
_chemical_formula_sum "Si O2"
_cell_formula_units_Z 28
_cell_length_a 12.114883
_cell_length_b 11.856053
_cell_length_c 10.009672
_cell_angle_alpha 90.000000
_cell_angle_beta 64.222549
_cell_angle_gamma 90.000000
_cell_volume 1294.667040
_symmetry_space_group_name_H-M "C 2/C"
_symmetry_group_IT_number 15
_symmetry_cell_setting 'monoclinic'
loop_
_space_group_symop_operation_xyz
x,y,z
-x,y,1/2-z
-x,-y,-z
x,-y,1/2+z
1/2+x,1/2+y,z
1/2-x,1/2+y,1/2-z
1/2-x,1/2-y,-z
1/2+x,1/2-y,1/2+z
loop_
_atom_site_type_symbol
_atom_site_label
_atom_site_fract_x
_atom_site_fract_y
_atom_site_fract_z
Si Si1 0.000000 0.422934 0.250000
Si Si2 0.060856 0.839628 0.084522
Si Si3 0.631794 0.769454 0.971738
Si Si4 0.180620 0.623739 0.161503
O O1 0.039822 0.349630 0.102543
O O2 0.112655 0.506342 0.215553
O O3 0.106041 0.711266 0.103972
O O4 0.000000 0.888775 0.250000
O O5 0.185259 0.894092 0.968725
O O6 0.955840 0.832607 0.028371
O O7 0.750000 0.750000 0.000000
O O8 0.681302 0.818661 0.805920
#
# Coordination Sequence:
#
# PCOD9273075 Si02
#       4
#     4   8   8   8
#     4  12  22  38  64  92 118 158 214 248 296 364
#     4   9  19  39  62  87 123 160 198 245 310 360
#     4  11  22  38  60  92 126 160 197 254 313 362
#     4  10  20  37  62  91 117 160 209 245 294 363
#
# _framework density 21.627182999999999
#
# number of rings (size 3 to 8) (size 9 to 14) (size 15 to 20)
#    0.000    1.714    4.286    2.571    0.000    0.000 
#    0.000    1.429    3.143    0.000    0.000    0.000 
#    0.000    0.000    0.000    0.000    0.000    0.000 
#
# Total GULP energy -78200.219824 kJ/mol
# GULP energy per Si atom -5585.729987 kJ/mol
# Density = 2.157796 g / cm^3
# Si number density = 21.627183 Si / 1000 Ang^3
#
#
#
# Elastic Constant Matrix: (Units=GPa)
#
#
# Indices 1 2 3 4 5 6 
#
# 1 167.8782 20.4344 77.2377 0.0000 -13.9220 0.0000
# 2 20.4344 22.9310 19.1000 0.0000 -6.8725 0.0000
# 3 77.2377 19.1000 111.1302 0.0000 -36.5186 0.0000
# 4 0.0000 0.0000 0.0000 17.9601 0.0000 -17.2876
# 5 -13.9220 -6.8725 -36.5186 0.0000 60.9417 0.0000
# 6 0.0000 0.0000 0.0000 -17.2876 0.0000 -6.9635
#
#
#
# Elastic Compliance Matrix: (Units=1/GPa)
#
#
# Indices 1 2 3 4 5 6 
#
# 1 0.009191 -0.003416 -0.006522 0.000000 -0.002194 0.000000
# 2 -0.003416 0.052183 -0.006123 0.000000 0.001435 0.000000
# 3 -0.006522 -0.006123 0.017267 0.000000 0.008167 0.000000
# 4 0.000000 0.000000 0.000000 0.016426 0.000000 -0.040780
# 5 -0.002194 0.001435 0.008167 0.000000 0.020964 0.000000
# 6 0.000000 0.000000 0.000000 -0.040780 0.000000 -0.042366
#
#
# Mechanical properties :
#
#
# Convention : Reuss Voigt Hill
#
# Bulk Modulus (GPa) = 21.49596 59.49816 40.49706
# Shear Modulus (GPa) = 41.22236 26.73215 33.97726
#
# Velocity S-wave (km/s) = 4.37056 3.51956 3.96794
# Velocity P-wave (km/s) = 5.95231 6.63980 6.30543
#
# Compressibility (1/GPa) = 0.04652038
#
# Stress axis : x y z
#
# Youngs Moduli (GPa) = 108.80093 19.16327 57.91278
#
# Poissons Ratio (x) = 0.06545 0.37770
# Poissons Ratio (y) = 0.37162 0.35461
# Poissons Ratio (z) = 0.70958 0.11734
#
# Static dielectric constant tensor:
#      x y z
#    x 1.809200 0.000000 -0.000300 
#    y 0.000000 1.848910 0.000000 
#    z -0.000300 0.000000 1.776970 
# 
# From -- ./inp_files/27547.got.cif
#   From: 2010.05.17/outbox.cif.g08.bks.cpg/sg15_14_cif.got.tgz:27547.got - 2010.06.03 18:47:42.
