data_PCOD9273126
_publ_section_title
;
Structure prediction by ZEFSAII (Michael W. Deem and Ramdas Pophale) SiO2 
 PCOD9273126
Probable space group: C 2/C
;
_chemical_formula_sum "Si O2"
_cell_formula_units_Z 44
_cell_length_a 14.920017
_cell_length_b 28.532551
_cell_length_c 7.950485
_cell_angle_alpha 90.000000
_cell_angle_beta 139.947271
_cell_angle_gamma 90.000000
_cell_volume 2177.945026
_symmetry_space_group_name_H-M "C 2/C"
_symmetry_group_IT_number 15
_symmetry_cell_setting 'monoclinic'
loop_
_space_group_symop_operation_xyz
x,y,z
-x,y,1/2-z
-x,-y,-z
x,-y,1/2+z
1/2+x,1/2+y,z
1/2-x,1/2+y,1/2-z
1/2-x,1/2-y,-z
1/2+x,1/2-y,1/2+z
loop_
_atom_site_type_symbol
_atom_site_label
_atom_site_fract_x
_atom_site_fract_y
_atom_site_fract_z
Si Si1 0.197418 0.192948 0.778374
Si Si2 0.000000 0.857691 0.750000
Si Si3 0.728906 0.849319 0.766460
Si Si4 0.367502 0.568143 0.288795
Si Si5 0.094064 0.238827 0.095006
Si Si6 0.000000 0.702728 0.750000
Si Si7 0.000000 0.000024 0.250000
O O1 0.130754 0.169988 0.514916
O O2 0.328741 0.223867 0.912541
O O3 0.069705 0.225790 0.659546
O O4 0.238398 0.157349 0.988031
O O5 0.960645 0.890431 0.848799
O O6 0.751020 0.901085 0.719067
O O7 0.830458 0.810761 0.825146
O O8 0.578954 0.829572 0.497459
O O9 0.371838 0.532664 0.133742
O O10 0.440985 0.534945 0.527153
O O11 0.098101 0.262924 0.284259
#
# Coordination Sequence:
#
# PCOD9273126 Si02
#       7
#     8   4   8   8   8   4   4
#     4  12  26  39  62  90 135 182 226 263 313 365
#     4  11  21  36  62  92 130 174 212 264 318 386
#     4  12  25  40  63  91 131 173 220 270 312 385
#     4  10  20  37  62  95 125 160 207 265 342 386
#     4  12  25  41  57  93 130 185 219 267 308 366
#     4  12  27  41  64  88 134 176 234 259 316 367
#     4   9  20  37  64  96 130 154 200 277 346 405
#
# _framework density 20.202528999999998
#
# number of rings (size 3 to 8) (size 9 to 14) (size 15 to 20)
#    0.000    0.727    3.636    4.364    2.545    0.000 
#    0.000    0.000    0.000    1.091    0.000    0.000 
#    0.000    0.000    0.000    0.000    0.000    0.000 
#
# Total GULP energy -122541.232598 kJ/mol
# GULP energy per Si atom -5570.056027 kJ/mol
# Density = 2.015655 g / cm^3
# Si number density = 20.202529 Si / 1000 Ang^3
#
#
#
# Elastic Constant Matrix: (Units=GPa)
#
#
# Indices 1 2 3 4 5 6 
#
# 1 81.6601 39.3789 23.4643 0.0000 -0.3449 0.0000
# 2 39.3789 110.7298 28.4353 0.0000 -13.7603 0.0000
# 3 23.4643 28.4353 71.4337 0.0000 -19.4062 0.0000
# 4 0.0000 0.0000 0.0000 20.8633 0.0000 -31.2375
# 5 -0.3449 -13.7603 -19.4062 0.0000 27.0877 0.0000
# 6 0.0000 0.0000 0.0000 -31.2375 0.0000 -30.3733
#
#
#
# Elastic Compliance Matrix: (Units=1/GPa)
#
#
# Indices 1 2 3 4 5 6 
#
# 1 0.016129 -0.005232 -0.004820 0.000000 -0.005905 0.000000
# 2 -0.005232 0.011928 -0.001740 0.000000 0.004746 0.000000
# 3 -0.004820 -0.001740 0.019889 0.000000 0.013304 0.000000
# 4 0.000000 0.000000 0.000000 0.018872 0.000000 -0.019409
# 5 -0.005905 0.004746 0.013304 0.000000 0.048784 0.000000
# 6 0.000000 0.000000 0.000000 -0.019409 0.000000 -0.012963
#
#
# Mechanical properties :
#
#
# Convention : Reuss Voigt Hill
#
# Bulk Modulus (GPa) = 41.04685 49.59785 45.32235
# Shear Modulus (GPa) = 37.21799 15.01852 26.11825
#
# Velocity S-wave (km/s) = 4.29679 2.72949 3.59948
# Velocity P-wave (km/s) = 6.70659 5.87683 6.30537
#
# Compressibility (1/GPa) = 0.02436240
#
# Stress axis : x y z
#
# Youngs Moduli (GPa) = 62.00065 83.83353 50.27909
#
# Poissons Ratio (x) = 0.43863 0.24232
# Poissons Ratio (y) = 0.32439 0.08750
# Poissons Ratio (z) = 0.29881 0.14590
#
# Static dielectric constant tensor:
#      x y z
#    x 1.826150 0.000000 -0.034440 
#    y 0.000000 1.716960 0.000000 
#    z -0.034440 0.000000 1.771250 
# 
# From -- ./inp_files/43738.got.cif
#   From: 2010.05.17/outbox.cif.g08.bks.cpg/sg15_22_cif.got.tgz:43738.got - 2010.06.03 18:47:42.
