data_PCOD9273911
_publ_section_title
;
Structure prediction by ZEFSAII (Michael W. Deem and Ramdas Pophale) SiO2 
 PCOD9273911
Probable space group: C 2/C
;
_chemical_formula_sum "Si O2"
_cell_formula_units_Z 44
_cell_length_a 13.480867
_cell_length_b 23.856060
_cell_length_c 8.714088
_cell_angle_alpha 90.000000
_cell_angle_beta 128.368912
_cell_angle_gamma 90.000000
_cell_volume 2197.208999
_symmetry_space_group_name_H-M "C 2/C"
_symmetry_group_IT_number 15
_symmetry_cell_setting 'monoclinic'
loop_
_space_group_symop_operation_xyz
x,y,z
-x,y,1/2-z
-x,-y,-z
x,-y,1/2+z
1/2+x,1/2+y,z
1/2-x,1/2+y,1/2-z
1/2-x,1/2-y,-z
1/2+x,1/2-y,1/2+z
loop_
_atom_site_type_symbol
_atom_site_label
_atom_site_fract_x
_atom_site_fract_y
_atom_site_fract_z
Si Si1 0.500000 0.044475 0.250000
Si Si2 0.780225 0.544003 0.618948
Si Si3 0.363484 0.625847 0.542523
Si Si4 0.121684 0.751372 0.476282
Si Si5 0.355419 0.870357 0.404981
Si Si6 0.367496 0.525351 0.317021
O O1 0.537429 0.087735 0.422473
O O2 0.613654 0.001061 0.325022
O O3 0.825845 0.605727 0.707479
O O4 0.665001 0.541828 0.387492
O O5 0.729875 0.523189 0.734138
O O6 0.500000 0.614630 0.750000
O O7 0.375457 0.684693 0.462483
O O8 0.258449 0.628046 0.576537
O O9 0.335679 0.576979 0.396876
O O10 0.250000 0.750000 0.500000
O O11 0.113145 0.695797 0.570615
O O12 0.000000 0.748324 0.250000
O O13 0.500000 0.500000 0.500000
#
# Coordination Sequence:
#
# PCOD9273911 Si02
#       6
#     4   8   8   8   8   8
#     4  12  22  38  58  84 122 148 198 232 298 350
#     4  12  24  37  57  87 120 154 190 244 293 353
#     4  10  20  38  60  87 115 148 197 240 285 350
#     4   9  19  35  60  86 112 151 197 243 287 347
#     4  11  21  38  61  86 116 152 191 243 294 346
#     4  12  23  38  58  86 117 156 194 240 297 349
#
# _framework density 20.025404999999999
#
# number of rings (size 3 to 8) (size 9 to 14) (size 15 to 20)
#    0.000    1.091    4.545    3.273    0.000    0.000 
#    0.000    0.909    0.000    0.000    4.727    0.000 
#    0.000    0.000    0.000    0.000    0.000    0.000 
#
# Total GULP energy -122569.559845 kJ/mol
# GULP energy per Si atom -5571.343629 kJ/mol
# Density = 1.997983 g / cm^3
# Si number density = 20.025405 Si / 1000 Ang^3
#
#
#
# Elastic Constant Matrix: (Units=GPa)
#
#
# Indices 1 2 3 4 5 6 
#
# 1 33.7511 5.7731 18.8154 0.0000 14.7724 0.0000
# 2 5.7731 146.6978 35.9282 0.0000 -2.3071 0.0000
# 3 18.8154 35.9282 99.9764 0.0000 4.6687 0.0000
# 4 0.0000 0.0000 0.0000 30.8165 0.0000 -1.3494
# 5 14.7724 -2.3071 4.6687 0.0000 28.7798 0.0000
# 6 0.0000 0.0000 0.0000 -1.3494 0.0000 21.2769
#
#
#
# Elastic Compliance Matrix: (Units=1/GPa)
#
#
# Indices 1 2 3 4 5 6 
#
# 1 0.042653 -0.000304 -0.006947 0.000000 -0.020791 0.000000
# 2 -0.000304 0.007508 -0.002697 0.000000 0.001195 0.000000
# 3 -0.006947 -0.002697 0.012215 0.000000 0.001368 0.000000
# 4 0.000000 0.000000 0.000000 0.032541 0.000000 0.002064
# 5 -0.020791 0.001195 0.001368 0.000000 0.045292 0.000000
# 6 0.000000 0.000000 0.000000 0.002064 0.000000 0.047130
#
#
# Mechanical properties :
#
#
# Convention : Reuss Voigt Hill
#
# Bulk Modulus (GPa) = 23.54016 44.60650 34.07333
# Shear Modulus (GPa) = 22.58402 30.83522 26.70962
#
# Velocity S-wave (km/s) = 3.36187 3.92829 3.65607
# Velocity P-wave (km/s) = 5.18172 6.54970 5.90546
#
# Compressibility (1/GPa) = 0.04248060
#
# Stress axis : x y z
#
# Youngs Moduli (GPa) = 23.44474 133.19198 81.86652
#
# Poissons Ratio (x) = 0.04050 0.56874
# Poissons Ratio (y) = 0.00713 0.22077
# Poissons Ratio (z) = 0.16287 0.35918
#
# Static dielectric constant tensor:
#      x y z
#    x 1.745900 0.000000 0.030350 
#    y 0.000000 1.738990 0.000000 
#    z 0.030350 0.000000 1.707570 
# 
# From -- ./inp_files/42366.got.cif
#   From: 2010.05.17/outbox.cif.g08.bks.cpg/sg15_22_cif.got.tgz:42366.got - 2010.06.03 18:47:42.
