data_PCOD9273525
_publ_section_title
;
Structure prediction by ZEFSAII (Michael W. Deem and Ramdas Pophale) SiO2 
 PCOD9273525
Probable space group: C 2/C
;
_chemical_formula_sum "Si O2"
_cell_formula_units_Z 28
_cell_length_a 5.202041
_cell_length_b 28.797303
_cell_length_c 9.283365
_cell_angle_alpha 90.000000
_cell_angle_beta 51.776549
_cell_angle_gamma 90.000000
_cell_volume 1092.532943
_symmetry_space_group_name_H-M "C 2/C"
_symmetry_group_IT_number 15
_symmetry_cell_setting 'monoclinic'
loop_
_space_group_symop_operation_xyz
x,y,z
-x,y,1/2-z
-x,-y,-z
x,-y,1/2+z
1/2+x,1/2+y,z
1/2-x,1/2+y,1/2-z
1/2-x,1/2-y,-z
1/2+x,1/2-y,1/2+z
loop_
_atom_site_type_symbol
_atom_site_label
_atom_site_fract_x
_atom_site_fract_y
_atom_site_fract_z
Si Si1 0.756716 0.195463 0.968608
Si Si2 0.757374 0.356439 0.472114
Si Si3 0.000000 0.484532 0.750000
Si Si4 0.173238 0.562532 0.915205
O O1 0.404631 0.178024 0.039892
O O2 0.000000 0.190985 0.750000
O O3 0.910070 0.162398 0.038908
O O4 0.750000 0.250000 0.000000
O O5 0.000000 0.353864 0.250000
O O6 0.845182 0.407512 0.504064
O O7 0.834618 0.518764 0.691160
O O8 0.203466 0.452534 0.570344
O O9 0.500000 0.588830 0.750000
#
# Coordination Sequence:
#
# PCOD9273525 Si02
#       4
#     8   8   4   8
#     4  10  21  39  65  92 127 168 219 271 347 412
#     4  10  20  37  67  91 125 179 220 270 340 416
#     4  10  24  38  66  98 134 186 240 288 346 414
#     4  11  21  41  65  95 139 183 238 285 352 405
#
# _framework density 25.628519000000001
#
# number of rings (size 3 to 8) (size 9 to 14) (size 15 to 20)
#    0.000    1.714    1.429    4.286    0.000    0.000 
#    2.571    0.000   12.571    0.000    0.000    0.000 
#    0.000    0.000    0.000    0.000    0.000    0.000 
#
# Total GULP energy -78275.217764 kJ/mol
# GULP energy per Si atom -5591.086983 kJ/mol
# Density = 2.557019 g / cm^3
# Si number density = 25.628519 Si / 1000 Ang^3
#
#
#
# Elastic Constant Matrix: (Units=GPa)
#
#
# Indices 1 2 3 4 5 6 
#
# 1 137.4981 47.3985 20.6565 0.0000 27.1859 0.0000
# 2 47.3985 153.1237 36.6792 0.0000 21.3408 0.0000
# 3 20.6565 36.6792 144.0325 0.0000 27.2046 0.0000
# 4 0.0000 0.0000 0.0000 20.2544 0.0000 9.3696
# 5 27.1859 21.3408 27.2046 0.0000 25.8734 0.0000
# 6 0.0000 0.0000 0.0000 9.3696 0.0000 34.6671
#
#
#
# Elastic Compliance Matrix: (Units=1/GPa)
#
#
# Indices 1 2 3 4 5 6 
#
# 1 0.009676 -0.001877 0.000896 0.000000 -0.009560 0.000000
# 2 -0.001877 0.007840 -0.001096 0.000000 -0.003342 0.000000
# 3 0.000896 -0.001096 0.008860 0.000000 -0.009354 0.000000
# 4 0.000000 0.000000 0.000000 0.056427 0.000000 -0.015251
# 5 -0.009560 -0.003342 -0.009354 0.000000 0.061286 0.000000
# 6 0.000000 0.000000 0.000000 -0.015251 0.000000 0.032968
#
#
# Mechanical properties :
#
#
# Convention : Reuss Voigt Hill
#
# Bulk Modulus (GPa) = 45.00194 71.56916 58.28555
# Shear Modulus (GPa) = 26.50860 38.15365 32.33113
#
# Velocity S-wave (km/s) = 3.21960 3.86258 3.55565
# Velocity P-wave (km/s) = 5.60523 6.91946 6.29672
#
# Compressibility (1/GPa) = 0.02222127
#
# Stress axis : x y z
#
# Youngs Moduli (GPa) = 103.35299 127.55021 112.86443
#
# Poissons Ratio (x) = 0.23945 -0.10115
# Poissons Ratio (y) = 0.19402 0.12372
# Poissons Ratio (z) = -0.09262 0.13982
#
# Static dielectric constant tensor:
#      x y z
#    x 2.004740 0.000000 -0.027490 
#    y 0.000000 2.056140 0.000000 
#    z -0.027490 0.000000 2.042590 
# 
# From -- ./inp_files/19780.got.cif
#   From: 2010.05.17/outbox.cif.g08.bks.cpg/sg15_10_cif.got.tgz:19780.got - 2010.06.03 18:47:42.
