data_PCOD9273870
_publ_section_title
;
Structure prediction by ZEFSAII (Michael W. Deem and Ramdas Pophale) SiO2 
 PCOD9273870
Probable space group: C 2/C
;
_chemical_formula_sum "Si O2"
_cell_formula_units_Z 56
_cell_length_a 14.300290
_cell_length_b 24.611247
_cell_length_c 8.662801
_cell_angle_alpha 90.000000
_cell_angle_beta 66.001232
_cell_angle_gamma 90.000000
_cell_volume 2785.294502
_symmetry_space_group_name_H-M "C 2/C"
_symmetry_group_IT_number 15
_symmetry_cell_setting 'monoclinic'
loop_
_space_group_symop_operation_xyz
x,y,z
-x,y,1/2-z
-x,-y,-z
x,-y,1/2+z
1/2+x,1/2+y,z
1/2-x,1/2+y,1/2-z
1/2-x,1/2-y,-z
1/2+x,1/2-y,1/2+z
loop_
_atom_site_type_symbol
_atom_site_label
_atom_site_fract_x
_atom_site_fract_y
_atom_site_fract_z
Si Si1 0.462926 0.333981 0.597994
Si Si2 0.405351 0.126480 0.212421
Si Si3 0.722880 0.808473 0.446201
Si Si4 0.658483 0.384753 0.352583
Si Si5 0.582253 0.509109 0.812079
Si Si6 0.212193 0.099697 0.164681
Si Si7 0.523415 0.211377 0.915163
O O1 0.500000 0.332904 0.750000
O O2 0.538591 0.374724 0.463752
O O3 0.347759 0.355346 0.690602
O O4 0.484470 0.273714 0.522672
O O5 0.500000 0.101451 0.250000
O O6 0.337124 0.157599 0.384407
O O7 0.324419 0.091934 0.164333
O O8 0.455308 0.170763 0.062586
O O9 0.750000 0.750000 0.500000
O O10 0.809545 0.843641 0.303866
O O11 0.641553 0.801241 0.363221
O O12 0.668044 0.446811 0.293311
O O13 0.712409 0.380195 0.485610
O O14 0.500000 0.532758 0.750000
O O15 0.639423 0.453795 0.721740
O O16 0.500000 0.500000 0.000000
O O17 0.500000 0.207904 0.750000
#
# Coordination Sequence:
#
# PCOD9273870 Si02
#       7
#     8   8   8   8   8   8   8
#     4   9  18  32  56  88 121 157 200 250 306 380
#     4  10  23  39  58  84 120 162 212 266 308 363
#     4  11  23  37  58  90 124 162 211 260 318 370
#     4  11  23  38  62  93 127 165 202 254 320 386
#     4  12  23  40  64  98 130 161 204 258 322 385
#     4  11  21  40  62  88 127 166 211 254 317 379
#     4  10  20  38  60  83 119 166 213 255 309 374
#
# _framework density 20.105592000000001
#
# number of rings (size 3 to 8) (size 9 to 14) (size 15 to 20)
#    0.000    1.429    2.857    3.000    2.000    1.143 
#    0.000    5.714    0.000    8.571    0.000    0.000 
#    0.000    0.000    0.000    0.000    0.000    0.000 
#
# Total GULP energy -155995.741519 kJ/mol
# GULP energy per Si atom -5571.276483 kJ/mol
# Density = 2.005983 g / cm^3
# Si number density = 20.105592 Si / 1000 Ang^3
#
#
#
# Elastic Constant Matrix: (Units=GPa)
#
#
# Indices 1 2 3 4 5 6 
#
# 1 120.1280 10.6704 21.1221 0.0000 9.1815 0.0000
# 2 10.6704 65.4160 27.7287 0.0000 -3.4638 0.0000
# 3 21.1221 27.7287 90.4348 0.0000 3.1947 0.0000
# 4 0.0000 0.0000 0.0000 22.1111 0.0000 3.7088
# 5 9.1815 -3.4638 3.1947 0.0000 25.9816 0.0000
# 6 0.0000 0.0000 0.0000 3.7088 0.0000 15.9762
#
#
#
# Elastic Compliance Matrix: (Units=1/GPa)
#
#
# Indices 1 2 3 4 5 6 
#
# 1 0.008938 -0.000898 -0.001704 0.000000 -0.003069 0.000000
# 2 -0.000898 0.017899 -0.005397 0.000000 0.003367 0.000000
# 3 -0.001704 -0.005397 0.013172 0.000000 -0.001737 0.000000
# 4 0.000000 0.000000 0.000000 0.047058 0.000000 -0.010924
# 5 -0.003069 0.003367 -0.001737 0.000000 0.040236 0.000000
# 6 0.000000 0.000000 0.000000 -0.010924 0.000000 0.065129
#
#
# Mechanical properties :
#
#
# Convention : Reuss Voigt Hill
#
# Bulk Modulus (GPa) = 41.64797 43.89124 42.76961
# Shear Modulus (GPa) = 23.10154 27.24430 25.17292
#
# Velocity S-wave (km/s) = 3.39338 3.68511 3.54225
# Velocity P-wave (km/s) = 6.00941 6.32333 6.16836
#
# Compressibility (1/GPa) = 0.02401078
#
# Stress axis : x y z
#
# Youngs Moduli (GPa) = 111.87697 55.86759 75.91904
#
# Poissons Ratio (x) = 0.05018 0.12935
# Poissons Ratio (y) = 0.10050 0.40977
# Poissons Ratio (z) = 0.19062 0.30154
#
# Static dielectric constant tensor:
#      x y z
#    x 1.761770 0.000000 0.007440 
#    y 0.000000 1.751890 0.000000 
#    z 0.007440 0.000000 1.667590 
# 
# From -- ./inp_files/42527.got.cif
#   From: 2010.05.17/outbox.cif.g08.bks.cpg/sg15_22_cif.got.tgz:42527.got - 2010.06.03 18:47:42.
