data_PCOD9273252
_publ_section_title
;
Structure prediction by ZEFSAII (Michael W. Deem and Ramdas Pophale) SiO2 
 PCOD9273252
Probable space group: C 2/C
;
_chemical_formula_sum "Si O2"
_cell_formula_units_Z 52
_cell_length_a 24.829223
_cell_length_b 7.615166
_cell_length_c 12.484502
_cell_angle_alpha 90.000000
_cell_angle_beta 62.482105
_cell_angle_gamma 90.000000
_cell_volume 2093.495412
_symmetry_space_group_name_H-M "C 2/C"
_symmetry_group_IT_number 15
_symmetry_cell_setting 'monoclinic'
loop_
_space_group_symop_operation_xyz
x,y,z
-x,y,1/2-z
-x,-y,-z
x,-y,1/2+z
1/2+x,1/2+y,z
1/2-x,1/2+y,1/2-z
1/2-x,1/2-y,-z
1/2+x,1/2-y,1/2+z
loop_
_atom_site_type_symbol
_atom_site_label
_atom_site_fract_x
_atom_site_fract_y
_atom_site_fract_z
Si Si1 0.077608 0.311155 0.479613
Si Si2 0.000000 0.841138 0.750000
Si Si3 0.621870 0.291018 0.711684
Si Si4 0.849798 0.403981 0.884063
Si Si5 0.752399 0.952611 0.883327
Si Si6 0.454426 0.782359 0.514066
Si Si7 0.829042 0.204558 0.680391
O O1 0.114404 0.228627 0.346854
O O2 0.111672 0.305641 0.560413
O O3 0.068789 0.517727 0.456416
O O4 0.008548 0.239853 0.546675
O O5 0.932845 0.912300 0.782732
O O6 0.013545 0.733410 0.629919
O O7 0.688241 0.361498 0.623247
O O8 0.619418 0.093780 0.666631
O O9 0.842953 0.303664 0.779313
O O10 0.783692 0.436699 0.996159
O O11 0.703019 0.824600 0.877610
O O12 0.780265 0.060365 0.758471
O O13 0.396039 0.658568 0.576273
#
# Coordination Sequence:
#
# PCOD9273252 Si02
#       7
#     8   4   8   8   8   8   8
#     4  10  20  37  63  98 123 160 212 259 312 357
#     4  10  20  38  66  96 122 164 212 258 312 380
#     4  11  22  39  64  92 129 164 212 260 312 372
#     4  12  21  40  66  95 125 168 215 258 304 375
#     4  12  26  43  62  93 127 173 207 262 312 376
#     4  10  20  38  64  98 126 160 207 265 306 367
#     4  12  25  43  62  92 130 164 214 258 317 370
#
# _framework density 24.838843000000001
#
# number of rings (size 3 to 8) (size 9 to 14) (size 15 to 20)
#    0.000    0.923    4.615    2.769    0.000    1.846 
#    0.000    4.615    0.000    0.000    0.000    0.000 
#    0.000    0.000    0.000    0.000    0.000    0.000 
#
# Total GULP energy -145508.710576 kJ/mol
# GULP energy per Si atom -5596.488868 kJ/mol
# Density = 2.478231 g / cm^3
# Si number density = 24.838843 Si / 1000 Ang^3
#
#
#
# Elastic Constant Matrix: (Units=GPa)
#
#
# Indices 1 2 3 4 5 6 
#
# 1 191.1649 13.9049 53.6282 0.0000 -6.6809 0.0000
# 2 13.9049 29.1499 20.2579 0.0000 -2.9463 0.0000
# 3 53.6282 20.2579 122.0899 0.0000 -13.1772 0.0000
# 4 0.0000 0.0000 0.0000 15.9994 0.0000 -2.2451
# 5 -6.6809 -2.9463 -13.1772 0.0000 45.6325 0.0000
# 6 0.0000 0.0000 0.0000 -2.2451 0.0000 13.0604
#
#
#
# Elastic Compliance Matrix: (Units=1/GPa)
#
#
# Indices 1 2 3 4 5 6 
#
# 1 0.006002 -0.001162 -0.002432 0.000000 0.000101 0.000000
# 2 -0.001162 0.039022 -0.005894 0.000000 0.000647 0.000000
# 3 -0.002432 -0.005894 0.010484 0.000000 0.002291 0.000000
# 4 0.000000 0.000000 0.000000 0.064047 0.000000 0.011010
# 5 0.000101 0.000647 0.002291 0.000000 0.022632 0.000000
# 6 0.000000 0.000000 0.000000 0.011010 0.000000 0.078460
#
#
# Mechanical properties :
#
#
# Convention : Reuss Voigt Hill
#
# Bulk Modulus (GPa) = 27.37502 57.55407 42.46454
# Shear Modulus (GPa) = 19.85692 31.91271 25.88482
#
# Velocity S-wave (km/s) = 2.83049 3.58829 3.23168
# Velocity P-wave (km/s) = 4.66124 6.35524 5.57298
#
# Compressibility (1/GPa) = 0.03652966
#
# Stress axis : x y z
#
# Youngs Moduli (GPa) = 166.62405 25.62685 95.37962
#
# Poissons Ratio (x) = 0.02978 0.23200
# Poissons Ratio (y) = 0.19364 0.56220
# Poissons Ratio (z) = 0.40530 0.15105
#
# Static dielectric constant tensor:
#      x y z
#    x 2.000690 0.000000 -0.016720 
#    y 0.000000 2.029800 0.000000 
#    z -0.016720 0.000000 1.906410 
# 
# From -- ./inp_files/121806.got.cif
#   From: 2010.05.17/outbox.cif.g08.bks.cpg/sg15_61_cif.got.tgz:121806.got - 2010.06.03 18:47:42.
