data_PCOD9273185
_publ_section_title
;
Structure prediction by ZEFSAII (Michael W. Deem and Ramdas Pophale) SiO2 
 PCOD9273185
Probable space group: C 2/C
;
_chemical_formula_sum "Si O2"
_cell_formula_units_Z 56
_cell_length_a 7.481741
_cell_length_b 12.989681
_cell_length_c 31.201142
_cell_angle_alpha 90.000000
_cell_angle_beta 126.939947
_cell_angle_gamma 90.000000
_cell_volume 2423.610925
_symmetry_space_group_name_H-M "C 2/C"
_symmetry_group_IT_number 15
_symmetry_cell_setting 'monoclinic'
loop_
_space_group_symop_operation_xyz
x,y,z
-x,y,1/2-z
-x,-y,-z
x,-y,1/2+z
1/2+x,1/2+y,z
1/2-x,1/2+y,1/2-z
1/2-x,1/2-y,-z
1/2+x,1/2-y,1/2+z
loop_
_atom_site_type_symbol
_atom_site_label
_atom_site_fract_x
_atom_site_fract_y
_atom_site_fract_z
Si Si1 0.010438 0.014759 0.159835
Si Si2 0.062864 0.179953 0.510431
Si Si3 0.964294 0.005656 0.437481
Si Si4 0.748652 0.085344 0.230798
Si Si5 0.050561 0.711230 0.584724
Si Si6 0.979816 0.786284 0.196033
Si Si7 0.453539 0.012352 0.377192
O O1 0.024870 0.011430 0.111367
O O2 0.218948 0.067524 0.214040
O O3 0.770305 0.067955 0.137462
O O4 0.015805 0.897672 0.179466
O O5 0.291023 0.236675 0.556488
O O6 0.116789 0.087869 0.483896
O O7 0.915425 0.256120 0.459926
O O8 0.984854 0.109929 0.538747
O O9 0.713014 0.041275 0.415687
O O10 0.653680 0.198144 0.208160
O O11 0.603374 0.005144 0.181896
O O12 0.000000 0.073775 0.250000
O O13 0.239854 0.753554 0.643580
O O14 0.056956 0.591255 0.596795
O O15 0.000000 0.799164 0.250000
#
# Coordination Sequence:
#
# PCOD9273185 Si02
#       7
#     8   8   8   8   8   8   8
#     4  10  22  41  60  91 129 164 210 259 321 375
#     4   9  19  36  59  96 125 161 216 263 302 373
#     4  10  20  37  63  90 122 169 215 257 315 371
#     4  10  22  41  58  92 126 159 211 265 312 383
#     4   9  18  37  62  86 127 166 198 256 321 363
#     4  11  23  41  64  92 125 167 205 257 323 380
#     4   9  19  38  59  86 127 162 202 266 309 373
#
# _framework density 23.106017000000001
#
# number of rings (size 3 to 8) (size 9 to 14) (size 15 to 20)
#    0.000    2.286    0.000    3.000    4.000    0.000 
#   10.286   15.714    0.000    0.000    0.000    0.000 
#    0.000    0.000    0.000    0.000    0.000    0.000 
#
# Total GULP energy -155944.102787 kJ/mol
# GULP energy per Si atom -5569.432242 kJ/mol
# Density = 2.305343 g / cm^3
# Si number density = 23.106017 Si / 1000 Ang^3
#
#
#
# Elastic Constant Matrix: (Units=GPa)
#
#
# Indices 1 2 3 4 5 6 
#
# 1 43.5058 17.7320 41.6232 0.0000 -7.1829 0.0000
# 2 17.7320 57.8526 19.3631 0.0000 4.3231 0.0000
# 3 41.6232 19.3631 165.8396 0.0000 5.8225 0.0000
# 4 0.0000 0.0000 0.0000 38.9341 0.0000 -4.8007
# 5 -7.1829 4.3231 5.8225 0.0000 22.7246 0.0000
# 6 0.0000 0.0000 0.0000 -4.8007 0.0000 22.8152
#
#
#
# Elastic Compliance Matrix: (Units=1/GPa)
#
#
# Indices 1 2 3 4 5 6 
#
# 1 0.038405 -0.009964 -0.009050 0.000000 0.016354 0.000000
# 2 -0.009964 0.020766 0.000328 0.000000 -0.007184 0.000000
# 3 -0.009050 0.000328 0.008441 0.000000 -0.005086 0.000000
# 4 0.000000 0.000000 0.000000 0.026369 0.000000 0.005548
# 5 0.016354 -0.007184 -0.005086 0.000000 0.051844 0.000000
# 6 0.000000 0.000000 0.000000 0.005548 0.000000 0.044998
#
#
# Mechanical properties :
#
#
# Convention : Reuss Voigt Hill
#
# Bulk Modulus (GPa) = 33.06721 47.18164 40.12442
# Shear Modulus (GPa) = 20.98416 29.46010 25.22213
#
# Velocity S-wave (km/s) = 3.01685 3.57458 3.30750
# Velocity P-wave (km/s) = 5.14561 6.12379 5.65589
#
# Compressibility (1/GPa) = 0.03024144
#
# Stress axis : x y z
#
# Youngs Moduli (GPa) = 26.03836 48.15494 118.46251
#
# Poissons Ratio (x) = 0.47983 1.07206
# Poissons Ratio (y) = 0.25945 -0.03891
# Poissons Ratio (z) = 0.23564 -0.01582
#
# Static dielectric constant tensor:
#      x y z
#    x 1.938570 0.000000 0.033910 
#    y 0.000000 1.887860 0.000000 
#    z 0.033910 0.000000 1.953750 
# 
# From -- ./inp_files/308064.got.cif
#   From: 2010.05.17/outbox.cif.g08.bks.cpg/sg15_155_cif.got.tgz:308064.got - 2010.06.03 18:47:42.
