data_PCOD9273737
_publ_section_title
;
Structure prediction by ZEFSAII (Michael W. Deem and Ramdas Pophale) SiO2 
 PCOD9273737
Probable space group: C 2/C
;
_chemical_formula_sum "Si O2"
_cell_formula_units_Z 56
_cell_length_a 8.296113
_cell_length_b 23.297734
_cell_length_c 19.428215
_cell_angle_alpha 90.000000
_cell_angle_beta 134.088408
_cell_angle_gamma 90.000000
_cell_volume 2697.163065
_symmetry_space_group_name_H-M "C 2/C"
_symmetry_group_IT_number 15
_symmetry_cell_setting 'monoclinic'
loop_
_space_group_symop_operation_xyz
x,y,z
-x,y,1/2-z
-x,-y,-z
x,-y,1/2+z
1/2+x,1/2+y,z
1/2-x,1/2+y,1/2-z
1/2-x,1/2-y,-z
1/2+x,1/2-y,1/2+z
loop_
_atom_site_type_symbol
_atom_site_label
_atom_site_fract_x
_atom_site_fract_y
_atom_site_fract_z
Si Si1 0.612915 0.539588 0.627169
Si Si2 0.864051 0.494015 0.062060
Si Si3 0.484573 0.871810 0.044894
Si Si4 0.477798 0.354423 0.165704
Si Si5 0.331325 0.061214 0.262995
Si Si6 0.518297 0.336381 0.837188
Si Si7 0.400254 0.789038 0.297144
O O1 0.362408 0.517060 0.539304
O O2 0.770157 0.530374 0.607512
O O3 0.596426 0.604164 0.646909
O O4 0.709644 0.499300 0.715024
O O5 0.973787 0.440348 0.055434
O O6 0.026346 0.548053 0.126125
O O7 0.502103 0.837911 0.123101
O O8 0.712905 0.852479 0.074365
O O9 0.260198 0.853731 0.938278
O O10 0.500000 0.379422 0.250000
O O11 0.630934 0.297950 0.212950
O O12 0.500000 0.069810 0.250000
O O13 0.155135 0.111973 0.202866
O O14 0.500000 0.329366 0.750000
O O15 0.453339 0.273288 0.844761
O O16 0.500000 0.794218 0.250000
#
# Coordination Sequence:
#
# PCOD9273737 Si02
#       7
#     8   8   8   8   8   8   8
#     4  10  20  38  58  90 122 158 207 245 298 375
#     4  10  21  36  63  89 123 162 206 244 303 370
#     4  11  22  41  65  96 122 163 203 261 315 367
#     4  10  22  37  63  93 118 153 206 255 311 363
#     4  10  21  38  59  87 123 165 204 254 300 360
#     4  11  25  42  60  90 129 164 203 258 316 366
#     4  10  22  44  66  88 117 164 212 259 309 370
#
# _framework density 20.762554999999999
#
# number of rings (size 3 to 8) (size 9 to 14) (size 15 to 20)
#    0.000    1.714    1.429    3.000    2.000    5.143 
#    0.000    2.857    0.000    0.000    0.000    0.000 
#    0.000    0.000    0.000    0.000    0.000    0.000 
#
# Total GULP energy -156272.330968 kJ/mol
# GULP energy per Si atom -5581.154677 kJ/mol
# Density = 2.071530 g / cm^3
# Si number density = 20.762555 Si / 1000 Ang^3
#
#
#
# Elastic Constant Matrix: (Units=GPa)
#
#
# Indices 1 2 3 4 5 6 
#
# 1 52.8689 16.1027 29.4429 0.0000 18.3957 0.0000
# 2 16.1027 78.4582 32.9781 0.0000 24.4312 0.0000
# 3 29.4429 32.9781 118.9266 0.0000 34.8267 0.0000
# 4 0.0000 0.0000 0.0000 29.1569 0.0000 7.6135
# 5 18.3957 24.4312 34.8267 0.0000 29.1249 0.0000
# 6 0.0000 0.0000 0.0000 7.6135 0.0000 11.1910
#
#
#
# Elastic Compliance Matrix: (Units=1/GPa)
#
#
# Indices 1 2 3 4 5 6 
#
# 1 0.024673 -0.000132 -0.002371 0.000000 -0.012638 0.000000
# 2 -0.000132 0.017307 -0.000830 0.000000 -0.013442 0.000000
# 3 -0.002371 -0.000830 0.013209 0.000000 -0.013601 0.000000
# 4 0.000000 0.000000 0.000000 0.041706 0.000000 -0.028374
# 5 -0.012638 -0.013442 -0.013601 0.000000 0.069856 0.000000
# 6 0.000000 0.000000 0.000000 -0.028374 0.000000 0.108661
#
#
# Mechanical properties :
#
#
# Convention : Reuss Voigt Hill
#
# Bulk Modulus (GPa) = 20.60891 45.25569 32.93230
# Shear Modulus (GPa) = 16.76433 25.34320 21.05377
#
# Velocity S-wave (km/s) = 2.84462 3.49753 3.18783
# Velocity P-wave (km/s) = 4.55375 6.17692 5.42637
#
# Compressibility (1/GPa) = 0.04852271
#
# Stress axis : x y z
#
# Youngs Moduli (GPa) = 40.53088 57.77865 75.70875
#
# Poissons Ratio (x) = 0.00762 0.17948
# Poissons Ratio (y) = 0.00535 0.06286
# Poissons Ratio (z) = 0.09609 0.04797
#
# Static dielectric constant tensor:
#      x y z
#    x 1.781020 0.000000 -0.004380 
#    y 0.000000 1.761170 0.000000 
#    z -0.004380 0.000000 1.749210 
# 
# From -- ./inp_files/192251.got.cif
#   From: 2010.05.17/outbox.cif.g08.bks.cpg/sg15_97_cif.got.tgz:192251.got - 2010.06.03 18:47:42.
