data_PCOD9273084
_publ_section_title
;
Structure prediction by ZEFSAII (Michael W. Deem and Ramdas Pophale) SiO2 
 PCOD9273084
Probable space group: C 2/C
;
_chemical_formula_sum "Si O2"
_cell_formula_units_Z 52
_cell_length_a 11.325545
_cell_length_b 8.401802
_cell_length_c 23.644100
_cell_angle_alpha 90.000000
_cell_angle_beta 100.340006
_cell_angle_gamma 90.000000
_cell_volume 2213.316282
_symmetry_space_group_name_H-M "C 2/C"
_symmetry_group_IT_number 15
_symmetry_cell_setting 'monoclinic'
loop_
_space_group_symop_operation_xyz
x,y,z
-x,y,1/2-z
-x,-y,-z
x,-y,1/2+z
1/2+x,1/2+y,z
1/2-x,1/2+y,1/2-z
1/2-x,1/2-y,-z
1/2+x,1/2-y,1/2+z
loop_
_atom_site_type_symbol
_atom_site_label
_atom_site_fract_x
_atom_site_fract_y
_atom_site_fract_z
Si Si1 0.077746 0.867747 0.475583
Si Si2 0.802649 0.190581 0.792506
Si Si3 0.785863 0.336450 0.416067
Si Si4 0.004230 0.452999 0.565899
Si Si5 0.000000 0.590742 0.250000
Si Si6 0.896165 0.647666 0.647778
Si Si7 0.142011 0.826436 0.683108
O O1 0.147819 0.769911 0.530418
O O2 0.175533 0.919777 0.437847
O O3 0.003645 0.735610 0.434233
O O4 0.000000 0.000000 0.500000
O O5 0.731727 0.217922 0.845285
O O6 0.849249 0.009875 0.799045
O O7 0.696896 0.220762 0.737748
O O8 0.908692 0.303036 0.779353
O O9 0.772781 0.216411 0.362904
O O10 0.874358 0.471563 0.400638
O O11 0.900453 0.548492 0.589810
O O12 0.000000 0.500000 0.500000
O O13 0.932052 0.481043 0.198796
O O14 0.005029 0.775888 0.657411
#
# Coordination Sequence:
#
# PCOD9273084 Si02
#       7
#     8   8   8   8   4   8   8
#     4  10  20  37  62  91 122 161 206 251 307 372
#     4  12  24  40  62  91 125 164 212 259 312 381
#     4   9  21  40  59  88 124 160 203 257 309 367
#     4   9  20  40  65  88 121 162 199 254 314 361
#     4  12  26  38  62  94 120 172 212 254 324 374
#     4  11  22  44  64  89 129 164 208 264 314 375
#     4  11  22  42  64  88 129 167 208 266 319 370
#
# _framework density 23.494157000000001
#
# number of rings (size 3 to 8) (size 9 to 14) (size 15 to 20)
#    0.000    1.538    3.077    0.923    2.154    1.846 
#    0.000    9.231    0.000    0.000    0.000    0.000 
#    0.000    0.000    0.000    0.000    0.000    0.000 
#
# Total GULP energy -145305.703150 kJ/mol
# GULP energy per Si atom -5588.680890 kJ/mol
# Density = 2.344068 g / cm^3
# Si number density = 23.494157 Si / 1000 Ang^3
#
#
#
# Elastic Constant Matrix: (Units=GPa)
#
#
# Indices 1 2 3 4 5 6 
#
# 1 107.4521 28.5177 14.1836 0.0000 -41.2506 0.0000
# 2 28.5177 41.5559 1.5182 0.0000 -2.9314 0.0000
# 3 14.1836 1.5182 71.9949 0.0000 -27.1873 0.0000
# 4 0.0000 0.0000 0.0000 29.4067 0.0000 -5.4139
# 5 -41.2506 -2.9314 -27.1873 0.0000 43.5047 0.0000
# 6 0.0000 0.0000 0.0000 -5.4139 0.0000 43.0694
#
#
#
# Elastic Compliance Matrix: (Units=1/GPa)
#
#
# Indices 1 2 3 4 5 6 
#
# 1 0.020017 -0.012425 0.004149 0.000000 0.020735 0.000000
# 2 -0.012425 0.031893 -0.002437 0.000000 -0.011156 0.000000
# 3 0.004149 -0.002437 0.019041 0.000000 0.015669 0.000000
# 4 0.000000 0.000000 0.000000 0.034811 0.000000 0.004376
# 5 0.020735 -0.011156 0.015669 0.000000 0.051686 0.000000
# 6 0.000000 0.000000 0.000000 0.004376 0.000000 0.023768
#
#
# Mechanical properties :
#
#
# Convention : Reuss Voigt Hill
#
# Bulk Modulus (GPa) = 20.19289 34.38242 27.28765
# Shear Modulus (GPa) = 22.81524 34.98173 28.89848
#
# Velocity S-wave (km/s) = 3.11963 3.86288 3.51098
# Velocity P-wave (km/s) = 4.64647 5.87895 5.29867
#
# Compressibility (1/GPa) = 0.04952239
#
# Stress axis : x y z
#
# Youngs Moduli (GPa) = 49.95878 31.35500 52.51863
#
# Poissons Ratio (x) = 0.38959 -0.21788
# Poissons Ratio (y) = 0.62075 0.12800
# Poissons Ratio (z) = -0.20726 0.07642
#
# Static dielectric constant tensor:
#      x y z
#    x 1.962170 0.000000 0.005830 
#    y 0.000000 1.929940 0.000000 
#    z 0.005830 0.000000 1.924330 
# 
# From -- ./inp_files/291195.got.cif
#   From: 2010.05.17/outbox.cif.g08.bks.cpg/sg15_146_cif.got.tgz:291195.got - 2010.06.03 18:47:42.
