data_PCOD9273736
_publ_section_title
;
Structure prediction by ZEFSAII (Michael W. Deem and Ramdas Pophale) SiO2 
 PCOD9273736
Probable space group: C 2/C
;
_chemical_formula_sum "Si O2"
_cell_formula_units_Z 36
_cell_length_a 19.916334
_cell_length_b 11.446352
_cell_length_c 9.481597
_cell_angle_alpha 90.000000
_cell_angle_beta 45.882171
_cell_angle_gamma 90.000000
_cell_volume 1551.771672
_symmetry_space_group_name_H-M "C 2/C"
_symmetry_group_IT_number 15
_symmetry_cell_setting 'monoclinic'
loop_
_space_group_symop_operation_xyz
x,y,z
-x,y,1/2-z
-x,-y,-z
x,-y,1/2+z
1/2+x,1/2+y,z
1/2-x,1/2+y,1/2-z
1/2-x,1/2-y,-z
1/2+x,1/2-y,1/2+z
loop_
_atom_site_type_symbol
_atom_site_label
_atom_site_fract_x
_atom_site_fract_y
_atom_site_fract_z
Si Si1 0.977163 0.890727 0.943285
Si Si2 0.500000 0.981093 0.750000
Si Si3 0.206952 0.391029 0.711501
Si Si4 0.757802 0.130596 0.806682
Si Si5 0.480939 0.853352 0.045741
O O1 0.000000 0.914091 0.750000
O O2 0.869146 0.867401 0.126318
O O3 0.037573 0.779723 0.901436
O O4 0.000000 0.000000 0.000000
O O5 0.451876 0.896053 0.933619
O O6 0.443532 0.068436 0.729692
O O7 0.260208 0.272480 0.691730
O O8 0.230402 0.515548 0.752038
O O9 0.229937 0.393477 0.510423
O O10 0.094041 0.372084 0.889967
#
# Coordination Sequence:
#
# PCOD9273736 Si02
#       5
#     8   4   8   8   8
#     4  11  23  40  59  86 121 156 199 241 289 350
#     4  10  20  38  58  90 116 156 192 236 304 338
#     4  10  21  40  60  89 118 153 195 243 292 347
#     4  10  22  40  61  86 120 154 196 244 290 348
#     4  10  21  38  61  86 121 151 195 244 287 355
#
# _framework density 23.199289
#
# number of rings (size 3 to 8) (size 9 to 14) (size 15 to 20)
#    0.000    1.778    1.111    2.667    1.556    0.889 
#    8.000    0.000    0.000    0.000    0.000    0.000 
#    0.000    0.000    0.000    0.000    0.000    0.000 
#
# Total GULP energy -100352.813647 kJ/mol
# GULP energy per Si atom -5575.156314 kJ/mol
# Density = 2.314649 g / cm^3
# Si number density = 23.199289 Si / 1000 Ang^3
#
#
#
# Elastic Constant Matrix: (Units=GPa)
#
#
# Indices 1 2 3 4 5 6 
#
# 1 56.6572 64.2353 39.0558 0.0000 17.1808 0.0000
# 2 64.2353 236.4095 54.2016 0.0000 53.2236 0.0000
# 3 39.0558 54.2016 127.9413 0.0000 36.4990 0.0000
# 4 0.0000 0.0000 0.0000 54.4194 0.0000 33.5754
# 5 17.1808 53.2236 36.4990 0.0000 47.4443 0.0000
# 6 0.0000 0.0000 0.0000 33.5754 0.0000 79.1955
#
#
#
# Elastic Compliance Matrix: (Units=1/GPa)
#
#
# Indices 1 2 3 4 5 6 
#
# 1 0.029507 -0.007005 -0.006705 0.000000 0.002331 0.000000
# 2 -0.007005 0.007379 0.000833 0.000000 -0.006382 0.000000
# 3 -0.006705 0.000833 0.011638 0.000000 -0.007460 0.000000
# 4 0.000000 0.000000 0.000000 0.024885 0.000000 -0.010550
# 5 0.002331 -0.006382 -0.007460 0.000000 0.033131 0.000000
# 6 0.000000 0.000000 0.000000 -0.010550 0.000000 0.017100
#
#
# Mechanical properties :
#
#
# Convention : Reuss Voigt Hill
#
# Bulk Modulus (GPa) = 43.91668 81.77705 62.84686
# Shear Modulus (GPa) = 31.85042 53.77951 42.81497
#
# Velocity S-wave (km/s) = 3.70929 4.81994 4.30062
# Velocity P-wave (km/s) = 6.10872 8.14261 7.19787
#
# Compressibility (1/GPa) = 0.02277039
#
# Stress axis : x y z
#
# Youngs Moduli (GPa) = 33.89045 135.51732 85.92540
#
# Poissons Ratio (x) = 0.94929 0.57611
# Poissons Ratio (y) = 0.23740 -0.07157
# Poissons Ratio (z) = 0.22723 -0.11287
#
# Static dielectric constant tensor:
#      x y z
#    x 1.962380 0.000000 -0.037540 
#    y 0.000000 2.273880 0.000000 
#    z -0.037540 0.000000 1.841780 
# 
# From -- ./inp_files/45866.got.cif
#   From: 2010.05.17/outbox.cif.g08.bks.cpg/sg15_23_cif.got.tgz:45866.got - 2010.06.03 18:47:42.
