data_PCOD9273935
_publ_section_title
;
Structure prediction by ZEFSAII (Michael W. Deem and Ramdas Pophale) SiO2 
 PCOD9273935
Probable space group: C 2/C
;
_chemical_formula_sum "Si O2"
_cell_formula_units_Z 44
_cell_length_a 14.347700
_cell_length_b 8.261552
_cell_length_c 16.973450
_cell_angle_alpha 90.000000
_cell_angle_beta 66.668494
_cell_angle_gamma 90.000000
_cell_volume 1847.416995
_symmetry_space_group_name_H-M "C 2/C"
_symmetry_group_IT_number 15
_symmetry_cell_setting 'monoclinic'
loop_
_space_group_symop_operation_xyz
x,y,z
-x,y,1/2-z
-x,-y,-z
x,-y,1/2+z
1/2+x,1/2+y,z
1/2-x,1/2+y,1/2-z
1/2-x,1/2-y,-z
1/2+x,1/2-y,1/2+z
loop_
_atom_site_type_symbol
_atom_site_label
_atom_site_fract_x
_atom_site_fract_y
_atom_site_fract_z
Si Si1 0.821380 0.036384 0.397405
Si Si2 0.000000 0.845003 0.250000
Si Si3 0.900429 0.108515 0.022452
Si Si4 0.024254 0.611591 0.113896
Si Si5 0.349767 0.130955 0.647521
Si Si6 0.380497 0.869879 0.312929
O O1 0.916622 0.952506 0.320930
O O2 0.827840 0.985452 0.486409
O O3 0.725854 0.963350 0.384261
O O4 0.835071 0.226168 0.379657
O O5 0.959621 0.726337 0.194567
O O6 0.931951 0.271990 0.966041
O O7 0.858485 0.182127 0.117528
O O8 0.000000 0.000000 0.000000
O O9 0.956697 0.464440 0.106424
O O10 0.111066 0.533038 0.139440
O O11 0.323347 0.120646 0.748861
O O12 0.500000 0.834289 0.250000
#
# Coordination Sequence:
#
# PCOD9273935 Si02
#       6
#     8   4   8   8   8   8
#     4  11  24  38  63  92 129 164 217 265 319 377
#     4  10  20  38  60  88 124 166 202 254 320 374
#     4  11  24  43  65  88 130 175 210 260 331 389
#     4  10  21  41  65  89 125 166 212 256 327 385
#     4  11  23  39  63  99 125 164 220 269 315 381
#     4  10  20  41  65  90 128 168 213 260 325 388
#
# _framework density 23.817038
#
# number of rings (size 3 to 8) (size 9 to 14) (size 15 to 20)
#    0.000    1.455    3.636    3.273    5.091    0.000 
#    0.000    7.273    0.000    0.000    0.000    0.000 
#    0.000    0.000    0.000    0.000    0.000    0.000 
#
# Total GULP energy -123080.204998 kJ/mol
# GULP energy per Si atom -5594.554773 kJ/mol
# Density = 2.376283 g / cm^3
# Si number density = 23.817038 Si / 1000 Ang^3
#
#
#
# Elastic Constant Matrix: (Units=GPa)
#
#
# Indices 1 2 3 4 5 6 
#
# 1 71.8773 12.2565 35.1011 0.0000 24.8340 0.0000
# 2 12.2565 114.4239 47.3070 0.0000 12.5290 0.0000
# 3 35.1011 47.3070 83.5512 0.0000 25.6767 0.0000
# 4 0.0000 0.0000 0.0000 48.9901 0.0000 -3.0844
# 5 24.8340 12.5290 25.6767 0.0000 42.6574 0.0000
# 6 0.0000 0.0000 0.0000 -3.0844 0.0000 22.3040
#
#
#
# Elastic Compliance Matrix: (Units=1/GPa)
#
#
# Indices 1 2 3 4 5 6 
#
# 1 0.019636 0.001527 -0.006703 0.000000 -0.007845 0.000000
# 2 0.001527 0.011544 -0.007193 0.000000 0.000050 0.000000
# 3 -0.006703 -0.007193 0.020870 0.000000 -0.006547 0.000000
# 4 0.000000 0.000000 0.000000 0.020592 0.000000 0.002848
# 5 -0.007845 0.000050 -0.006547 0.000000 0.031936 0.000000
# 6 0.000000 0.000000 0.000000 0.002848 0.000000 0.045229
#
#
# Mechanical properties :
#
#
# Convention : Reuss Voigt Hill
#
# Bulk Modulus (GPa) = 36.61474 51.02018 43.81746
# Shear Modulus (GPa) = 27.22576 34.46946 30.84761
#
# Velocity S-wave (km/s) = 3.38468 3.80842 3.60278
# Velocity P-wave (km/s) = 5.53908 6.38803 5.97864
#
# Compressibility (1/GPa) = 0.02731140
#
# Stress axis : x y z
#
# Youngs Moduli (GPa) = 50.92614 86.62214 47.91646
#
# Poissons Ratio (x) = -0.13227 0.32119
# Poissons Ratio (y) = -0.07776 0.34468
# Poissons Ratio (z) = 0.34136 0.62311
#
# Static dielectric constant tensor:
#      x y z
#    x 1.929330 0.000000 -0.029130 
#    y 0.000000 1.894550 0.000000 
#    z -0.029130 0.000000 1.994230 
# 
# From -- ./inp_files/202693.got.cif
#   From: 2010.05.17/outbox.cif.g08.bks.cpg/sg15_102_cif.got.tgz:202693.got - 2010.06.03 18:47:42.
