data_PCOD9273937
_publ_section_title
;
Structure prediction by ZEFSAII (Michael W. Deem and Ramdas Pophale) SiO2 
 PCOD9273937
Probable space group: C 2/C
;
_chemical_formula_sum "Si O2"
_cell_formula_units_Z 52
_cell_length_a 9.327913
_cell_length_b 30.529357
_cell_length_c 14.031285
_cell_angle_alpha 90.000000
_cell_angle_beta 40.898712
_cell_angle_gamma 90.000000
_cell_volume 2616.120435
_symmetry_space_group_name_H-M "C 2/C"
_symmetry_group_IT_number 15
_symmetry_cell_setting 'monoclinic'
loop_
_space_group_symop_operation_xyz
x,y,z
-x,y,1/2-z
-x,-y,-z
x,-y,1/2+z
1/2+x,1/2+y,z
1/2-x,1/2+y,1/2-z
1/2-x,1/2-y,-z
1/2+x,1/2-y,1/2+z
loop_
_atom_site_type_symbol
_atom_site_label
_atom_site_fract_x
_atom_site_fract_y
_atom_site_fract_z
Si Si1 0.192106 0.108759 0.074104
Si Si2 0.000000 0.266220 0.750000
Si Si3 0.000000 0.029440 0.750000
Si Si4 0.927744 0.966253 0.614817
Si Si5 0.144755 0.302615 0.472571
Si Si6 0.205743 0.205253 0.077692
Si Si7 0.500000 0.080903 0.250000
Si Si8 0.364028 0.897998 0.024894
O O1 0.189068 0.158147 0.031991
O O2 0.421573 0.098062 0.013360
O O3 0.000000 0.109556 0.250000
O O4 0.109026 0.071324 0.044064
O O5 0.082582 0.292170 0.614518
O O6 0.206441 0.233348 0.655370
O O7 0.197539 0.061578 0.619090
O O8 0.094904 0.996110 0.780458
O O9 0.704167 0.946171 0.688216
O O10 0.000000 0.000000 0.500000
O O11 0.241764 0.350580 0.404540
O O12 0.911304 0.302512 0.541122
O O13 0.000000 0.210841 0.250000
O O14 0.250000 0.250000 0.000000
O O15 0.569647 0.105679 0.119485
#
# Coordination Sequence:
#
# PCOD9273937 Si02
#       8
#     8   4   4   8   8   8   4   8
#     4  10  21  42  64  88 125 168 211 257 317 377
#     4  10  20  38  60  88 126 164 200 269 311 380
#     4  12  25  42  64  91 138 167 206 269 326 366
#     4  12  25  42  63  97 126 168 216 263 321 380
#     4  10  21  38  60  90 123 162 212 251 320 372
#     4  10  21  39  64  90 120 160 208 253 309 375
#     4  12  23  40  66  91 124 165 218 256 309 390
#     4  11  23  40  63  93 126 171 209 265 318 382
#
# _framework density 19.876759
#
# number of rings (size 3 to 8) (size 9 to 14) (size 15 to 20)
#    0.000    1.231    3.846    1.846    2.154    1.231 
#    5.538    3.077    0.000    0.000    0.000    0.000 
#    0.000    0.000    0.000    0.000    0.000    0.000 
#
# Total GULP energy -144840.123074 kJ/mol
# GULP energy per Si atom -5570.773964 kJ/mol
# Density = 1.983152 g / cm^3
# Si number density = 19.876759 Si / 1000 Ang^3
#
#
#
# Elastic Constant Matrix: (Units=GPa)
#
#
# Indices 1 2 3 4 5 6 
#
# 1 90.5558 54.2189 18.6927 0.0000 -9.6779 0.0000
# 2 54.2189 155.9586 24.6851 0.0000 -6.1568 0.0000
# 3 18.6927 24.6851 57.8198 0.0000 -18.4643 0.0000
# 4 0.0000 0.0000 0.0000 110.2306 0.0000 -29.6032
# 5 -9.6779 -6.1568 -18.4643 0.0000 30.2130 0.0000
# 6 0.0000 0.0000 0.0000 -29.6032 0.0000 63.2256
#
#
#
# Elastic Compliance Matrix: (Units=1/GPa)
#
#
# Indices 1 2 3 4 5 6 
#
# 1 0.014479 -0.004634 -0.001892 0.000000 0.002537 0.000000
# 2 -0.004634 0.008366 -0.002489 0.000000 -0.001301 0.000000
# 3 -0.001892 -0.002489 0.023127 0.000000 0.013021 0.000000
# 4 0.000000 0.000000 0.000000 0.010377 0.000000 0.004859
# 5 0.002537 -0.001301 0.013021 0.000000 0.041604 0.000000
# 6 0.000000 0.000000 0.000000 0.004859 0.000000 0.018091
#
#
# Mechanical properties :
#
#
# Convention : Reuss Voigt Hill
#
# Bulk Modulus (GPa) = 35.78834 55.50308 45.64571
# Shear Modulus (GPa) = 34.87044 54.51634 44.69339
#
# Velocity S-wave (km/s) = 4.19302 5.24278 4.74701
# Velocity P-wave (km/s) = 6.44097 8.03948 7.28420
#
# Compressibility (1/GPa) = 0.02794206
#
# Stress axis : x y z
#
# Youngs Moduli (GPa) = 69.06433 119.53805 43.23858
#
# Poissons Ratio (x) = 0.55394 0.08182
# Poissons Ratio (y) = 0.32005 0.10761
# Poissons Ratio (z) = 0.13070 0.29749
#
# Static dielectric constant tensor:
#      x y z
#    x 1.695780 0.000000 0.049590 
#    y 0.000000 1.625060 0.000000 
#    z 0.049590 0.000000 1.725270 
# 
# From -- ./inp_files/139769.got.cif
#   From: 2010.05.17/outbox.cif.g08.bks.cpg/sg15_70_cif.got.tgz:139769.got - 2010.06.03 18:47:42.
