data_PCOD9273731
_publ_section_title
;
Structure prediction by ZEFSAII (Michael W. Deem and Ramdas Pophale) SiO2 
 PCOD9273731
Probable space group: C 2/C
;
_chemical_formula_sum "Si O2"
_cell_formula_units_Z 40
_cell_length_a 23.015089
_cell_length_b 7.358670
_cell_length_c 9.303754
_cell_angle_alpha 90.000000
_cell_angle_beta 107.459242
_cell_angle_gamma 90.000000
_cell_volume 1503.096952
_symmetry_space_group_name_H-M "C 2/C"
_symmetry_group_IT_number 15
_symmetry_cell_setting 'monoclinic'
loop_
_space_group_symop_operation_xyz
x,y,z
-x,y,1/2-z
-x,-y,-z
x,-y,1/2+z
1/2+x,1/2+y,z
1/2-x,1/2+y,1/2-z
1/2-x,1/2-y,-z
1/2+x,1/2-y,1/2+z
loop_
_atom_site_type_symbol
_atom_site_label
_atom_site_fract_x
_atom_site_fract_y
_atom_site_fract_z
Si Si1 0.676902 0.584793 0.434605
Si Si2 0.260264 0.008406 0.763656
Si Si3 0.534979 0.752304 0.924850
Si Si4 0.661063 0.165412 0.423957
Si Si5 0.450195 0.662167 0.088981
O O1 0.708822 0.570299 0.612399
O O2 0.723120 0.632410 0.341202
O O3 0.658248 0.378193 0.382201
O O4 0.616773 0.705866 0.402143
O O5 0.313742 0.934328 0.699035
O O6 0.290732 0.129747 0.912181
O O7 0.500000 0.744127 0.750000
O O8 0.594746 0.870987 0.941902
O O9 0.556352 0.544117 0.980068
O O10 0.482121 0.793257 0.999219
O O11 0.500000 0.652130 0.250000
#
# Coordination Sequence:
#
# PCOD9273731 Si02
#       5
#     8   8   8   8   8
#     4  10  22  37  62  91 128 150 203 258 303 351
#     4  10  20  38  58  89 123 169 192 240 304 367
#     4   9  19  36  62  85 115 158 194 250 307 349
#     4  10  22  41  61  88 129 157 206 250 300 359
#     4   9  19  34  58  92 119 145 194 255 313 352
#
# _framework density 26.611725
#
# number of rings (size 3 to 8) (size 9 to 14) (size 15 to 20)
#    0.000    2.400    0.000    2.400   14.000    0.000 
#    0.000   21.000    0.000    0.000    0.000    0.000 
#    0.000    0.000    0.000    0.000    0.000    0.000 
#
# Total GULP energy -111856.434072 kJ/mol
# GULP energy per Si atom -5592.821704 kJ/mol
# Density = 2.655116 g / cm^3
# Si number density = 26.611725 Si / 1000 Ang^3
#
#
#
# Elastic Constant Matrix: (Units=GPa)
#
#
# Indices 1 2 3 4 5 6 
#
# 1 235.9329 42.7372 65.2498 0.0000 -43.7795 0.0000
# 2 42.7372 63.8828 12.3710 0.0000 -13.5867 0.0000
# 3 65.2498 12.3710 152.0675 0.0000 -40.0096 0.0000
# 4 0.0000 0.0000 0.0000 429.8760 0.0000 414.3684
# 5 -43.7795 -13.5867 -40.0096 0.0000 45.0733 0.0000
# 6 0.0000 0.0000 0.0000 414.3684 0.0000 474.9449
#
#
#
# Elastic Compliance Matrix: (Units=1/GPa)
#
#
# Indices 1 2 3 4 5 6 
#
# 1 0.005783 -0.002851 -0.001302 0.000000 0.003603 0.000000
# 2 -0.002851 0.018131 0.000597 0.000000 0.003227 0.000000
# 3 -0.001302 0.000597 0.008873 0.000000 0.006792 0.000000
# 4 0.000000 0.000000 0.000000 0.014629 0.000000 -0.012763
# 5 0.003603 0.003227 0.006792 0.000000 0.032687 0.000000
# 6 0.000000 0.000000 0.000000 -0.012763 0.000000 0.013241
#
#
# Mechanical properties :
#
#
# Convention : Reuss Voigt Hill
#
# Bulk Modulus (GPa) = 38.94563 76.95549 57.95056
# Shear Modulus (GPa) = 45.86580 212.08053 128.97316
#
# Velocity S-wave (km/s) = 4.15603 8.93686 6.96922
# Velocity P-wave (km/s) = 6.13976 11.63918 9.30503
#
# Compressibility (1/GPa) = 0.02567682
#
# Stress axis : x y z
#
# Youngs Moduli (GPa) = 172.90891 55.15295 112.70193
#
# Poissons Ratio (x) = 0.15723 0.14672
# Poissons Ratio (y) = 0.49292 -0.06730
# Poissons Ratio (z) = 0.22510 -0.03293
#
# Static dielectric constant tensor:
#      x y z
#    x 2.183020 0.000000 -0.062210 
#    y 0.000000 2.249810 0.000000 
#    z -0.062210 0.000000 1.930960 
# 
# From -- ./inp_files/60071.got.cif
#   From: 2010.05.17/outbox.cif.g08.bks.cpg/sg15_31_cif.got.tgz:60071.got - 2010.06.03 18:47:42.
