data_PCOD9273247
_publ_section_title
;
Structure prediction by ZEFSAII (Michael W. Deem and Ramdas Pophale) SiO2 
 PCOD9273247
Probable space group: C 2/C
;
_chemical_formula_sum "Si O2"
_cell_formula_units_Z 60
_cell_length_a 8.045823
_cell_length_b 23.027207
_cell_length_c 19.847210
_cell_angle_alpha 90.000000
_cell_angle_beta 46.373181
_cell_angle_gamma 90.000000
_cell_volume 2661.700426
_symmetry_space_group_name_H-M "C 2/C"
_symmetry_group_IT_number 15
_symmetry_cell_setting 'monoclinic'
loop_
_space_group_symop_operation_xyz
x,y,z
-x,y,1/2-z
-x,-y,-z
x,-y,1/2+z
1/2+x,1/2+y,z
1/2-x,1/2+y,1/2-z
1/2-x,1/2-y,-z
1/2+x,1/2-y,1/2+z
loop_
_atom_site_type_symbol
_atom_site_label
_atom_site_fract_x
_atom_site_fract_y
_atom_site_fract_z
Si Si1 0.266002 0.367954 0.194292
Si Si2 0.564461 0.905945 0.378500
Si Si3 0.635495 0.131471 0.429703
Si Si4 0.736830 0.965212 0.800684
Si Si5 0.052452 0.933190 0.468459
Si Si6 0.000000 0.290106 0.750000
Si Si7 0.999313 0.250388 0.602104
Si Si8 0.141615 0.110863 0.349975
O O1 0.237480 0.369395 0.282801
O O2 0.428939 0.417237 0.115500
O O3 0.353099 0.308495 0.136499
O O4 0.000000 0.379107 0.250000
O O5 0.542164 0.880069 0.459619
O O6 0.300554 0.911640 0.426375
O O7 0.646347 0.971981 0.345574
O O8 0.603707 0.082883 0.381439
O O9 0.621067 0.194237 0.399106
O O10 0.889016 0.120952 0.389751
O O11 0.744132 0.943526 0.721335
O O12 0.000000 0.963597 0.750000
O O13 0.875247 0.899008 0.565423
O O14 0.000000 0.000000 0.500000
O O15 0.034544 0.256170 0.671967
O O16 0.786759 0.332324 0.796038
O O17 0.250000 0.250000 0.500000
#
# Coordination Sequence:
#
# PCOD9273247 Si02
#       8
#     8   8   8   8   8   4   8   8
#     4  10  24  44  66  95 131 178 219 266 338 395
#     4  10  22  39  63  96 129 175 220 269 327 396
#     4  10  23  44  65  94 134 177 218 265 339 396
#     4  10  20  37  63  96 130 172 218 260 324 390
#     4  10  21  39  64  97 137 169 215 267 330 389
#     4  12  26  42  68 100 126 168 230 272 324 384
#     4  12  28  45  68  98 134 169 225 281 330 394
#     4  10  22  40  65  99 128 175 222 265 324 397
#
# _framework density 22.541981
#
# number of rings (size 3 to 8) (size 9 to 14) (size 15 to 20)
#    0.000    1.600    1.333    2.000    5.600    2.133 
#    0.000    2.667    0.000    0.000    0.000    0.000 
#    0.000    0.000    0.000    0.000    0.000    0.000 
#
# Total GULP energy -167568.183763 kJ/mol
# GULP energy per Si atom -5585.606125 kJ/mol
# Density = 2.249067 g / cm^3
# Si number density = 22.541981 Si / 1000 Ang^3
#
#
#
# Elastic Constant Matrix: (Units=GPa)
#
#
# Indices 1 2 3 4 5 6 
#
# 1 47.9758 -4.5886 33.6134 0.0000 3.5136 0.0000
# 2 -4.5886 88.1300 46.1462 0.0000 12.3196 0.0000
# 3 33.6134 46.1462 184.9096 0.0000 35.0207 0.0000
# 4 0.0000 0.0000 0.0000 35.8888 0.0000 2.4834
# 5 3.5136 12.3196 35.0207 0.0000 16.5947 0.0000
# 6 0.0000 0.0000 0.0000 2.4834 0.0000 17.0602
#
#
#
# Elastic Compliance Matrix: (Units=1/GPa)
#
#
# Indices 1 2 3 4 5 6 
#
# 1 0.025541 0.004053 -0.006764 0.000000 0.005857 0.000000
# 2 0.004053 0.013918 -0.003483 0.000000 -0.003841 0.000000
# 3 -0.006764 -0.003483 0.011237 0.000000 -0.019697 0.000000
# 4 0.000000 0.000000 0.000000 0.028147 0.000000 -0.004097
# 5 0.005857 -0.003841 -0.019697 0.000000 0.103439 0.000000
# 6 0.000000 0.000000 0.000000 -0.004097 0.000000 0.059212
#
#
# Mechanical properties :
#
#
# Convention : Reuss Voigt Hill
#
# Bulk Modulus (GPa) = 26.10326 52.37304 39.23815
# Shear Modulus (GPa) = 18.75100 30.29838 24.52469
#
# Velocity S-wave (km/s) = 2.88727 3.67016 3.30200
# Velocity P-wave (km/s) = 4.76656 6.42215 5.65527
#
# Compressibility (1/GPa) = 0.03830940
#
# Stress axis : x y z
#
# Youngs Moduli (GPa) = 39.15221 71.84720 88.99046
#
# Poissons Ratio (x) = -0.29117 0.60190
# Poissons Ratio (y) = -0.15867 0.30993
# Poissons Ratio (z) = 0.26481 0.25022
#
# Static dielectric constant tensor:
#      x y z
#    x 1.897890 0.000000 0.037300 
#    y 0.000000 1.685300 0.000000 
#    z 0.037300 0.000000 1.863610 
# 
# From -- ./inp_files/234549.got.cif
#   From: 2010.05.17/outbox.cif.g08.bks.cpg/sg15_118_cif.got.tgz:234549.got - 2010.06.03 18:47:42.
