data_PCOD9273405
_publ_section_title
;
Structure prediction by ZEFSAII (Michael W. Deem and Ramdas Pophale) SiO2 
 PCOD9273405
Probable space group: C 2/C
;
_chemical_formula_sum "Si O2"
_cell_formula_units_Z 56
_cell_length_a 5.673560
_cell_length_b 28.328608
_cell_length_c 19.800519
_cell_angle_alpha 90.000000
_cell_angle_beta 118.854002
_cell_angle_gamma 90.000000
_cell_volume 2787.329440
_symmetry_space_group_name_H-M "C 2/C"
_symmetry_group_IT_number 15
_symmetry_cell_setting 'monoclinic'
loop_
_space_group_symop_operation_xyz
x,y,z
-x,y,1/2-z
-x,-y,-z
x,-y,1/2+z
1/2+x,1/2+y,z
1/2-x,1/2+y,1/2-z
1/2-x,1/2-y,-z
1/2+x,1/2-y,1/2+z
loop_
_atom_site_type_symbol
_atom_site_label
_atom_site_fract_x
_atom_site_fract_y
_atom_site_fract_z
Si Si1 0.541844 0.216331 0.932433
Si Si2 0.324704 0.518031 0.162357
Si Si3 0.871517 0.122042 0.125131
Si Si4 0.197570 0.015392 0.588144
Si Si5 0.149516 0.117231 0.535341
Si Si6 0.732753 0.293761 0.671083
Si Si7 0.833251 0.676422 0.032027
O O1 0.675370 0.165423 0.934235
O O2 0.443297 0.245823 0.854111
O O3 0.750000 0.250000 0.000000
O O4 0.327850 0.206272 0.962756
O O5 0.500000 0.501409 0.250000
O O6 0.328811 0.575147 0.160977
O O7 0.512253 0.499671 0.126299
O O8 0.005131 0.504634 0.122889
O O9 0.116227 0.155953 0.179704
O O10 0.628761 0.158800 0.089833
O O11 0.876142 0.105407 0.047700
O O12 0.237888 0.071924 0.588657
O O13 0.000000 0.000000 0.500000
O O14 0.847175 0.131605 0.511476
O O15 0.000000 0.284990 0.750000
O O16 0.746493 0.302125 0.591648
#
# Coordination Sequence:
#
# PCOD9273405 Si02
#       7
#     8   8   8   8   8   8   8
#     4  11  20  40  62  94 126 167 227 261 329 397
#     4  12  28  45  71 102 146 182 222 288 368 419
#     4  10  22  39  61 100 130 167 217 271 342 407
#     4  12  25  46  73 105 135 182 241 289 335 419
#     4  10  22  38  69  96 123 173 232 280 321 392
#     4  11  24  37  59  96 135 168 211 269 339 403
#     4  10  20  37  65  90 126 172 209 275 325 393
#
# _framework density 20.090916
#
# number of rings (size 3 to 8) (size 9 to 14) (size 15 to 20)
#    0.000    1.143    5.714    2.143    8.000    0.000 
#    0.000    0.714    3.143    0.000    0.000    0.000 
#    0.000    0.000    0.000    0.000    0.000    0.000 
#
# Total GULP energy -155887.699013 kJ/mol
# GULP energy per Si atom -5567.417822 kJ/mol
# Density = 2.004519 g / cm^3
# Si number density = 20.090916 Si / 1000 Ang^3
#
#
#
# Elastic Constant Matrix: (Units=GPa)
#
#
# Indices 1 2 3 4 5 6 
#
# 1 75.0606 13.8600 38.2866 0.0000 8.3851 0.0000
# 2 13.8600 120.3540 44.7197 0.0000 11.9070 0.0000
# 3 38.2866 44.7197 113.6698 0.0000 21.7526 0.0000
# 4 0.0000 0.0000 0.0000 20.8640 0.0000 3.5615
# 5 8.3851 11.9070 21.7526 0.0000 31.2522 0.0000
# 6 0.0000 0.0000 0.0000 3.5615 0.0000 28.1048
#
#
#
# Elastic Compliance Matrix: (Units=1/GPa)
#
#
# Indices 1 2 3 4 5 6 
#
# 1 0.016101 0.000210 -0.005381 0.000000 -0.000655 0.000000
# 2 0.000210 0.009773 -0.003683 0.000000 -0.001216 0.000000
# 3 -0.005381 -0.003683 0.013283 0.000000 -0.006399 0.000000
# 4 0.000000 0.000000 0.000000 0.048989 0.000000 -0.006208
# 5 -0.000655 -0.001216 -0.006399 0.000000 0.037091 0.000000
# 6 0.000000 0.000000 0.000000 -0.006208 0.000000 0.036368
#
#
# Mechanical properties :
#
#
# Convention : Reuss Voigt Hill
#
# Bulk Modulus (GPa) = 46.61846 55.86857 51.24352
# Shear Modulus (GPa) = 26.81491 30.19206 28.50349
#
# Velocity S-wave (km/s) = 3.65729 3.88077 3.77068
# Velocity P-wave (km/s) = 6.41003 6.92450 6.67222
#
# Compressibility (1/GPa) = 0.02145073
#
# Stress axis : x y z
#
# Youngs Moduli (GPa) = 62.10605 102.31779 75.28349
#
# Poissons Ratio (x) = -0.02146 0.40507
# Poissons Ratio (y) = -0.01303 0.27726
# Poissons Ratio (z) = 0.33416 0.37683
#
# Static dielectric constant tensor:
#      x y z
#    x 1.829710 0.000000 0.010960 
#    y 0.000000 1.796190 0.000000 
#    z 0.010960 0.000000 1.649640 
# 
# From -- ./inp_files/262018.got.cif
#   From: 2010.05.17/outbox.cif.g08.bks.cpg/sg15_132_cif.got.tgz:262018.got - 2010.06.03 18:47:42.
