data_PCOD9273855
_publ_section_title
;
Structure prediction by ZEFSAII (Michael W. Deem and Ramdas Pophale) SiO2 
 PCOD9273855
Probable space group: C 2/C
;
_chemical_formula_sum "Si O2"
_cell_formula_units_Z 48
_cell_length_a 30.643176
_cell_length_b 16.043414
_cell_length_c 15.432954
_cell_angle_alpha 90.000000
_cell_angle_beta 18.829772
_cell_angle_gamma 90.000000
_cell_volume 2448.815338
_symmetry_space_group_name_H-M "C 2/C"
_symmetry_group_IT_number 15
_symmetry_cell_setting 'monoclinic'
loop_
_space_group_symop_operation_xyz
x,y,z
-x,y,1/2-z
-x,-y,-z
x,-y,1/2+z
1/2+x,1/2+y,z
1/2-x,1/2+y,1/2-z
1/2-x,1/2-y,-z
1/2+x,1/2-y,1/2+z
loop_
_atom_site_type_symbol
_atom_site_label
_atom_site_fract_x
_atom_site_fract_y
_atom_site_fract_z
Si Si1 0.605679 0.790979 0.287096
Si Si2 0.786688 0.048501 0.762876
Si Si3 0.061759 0.983536 0.288152
Si Si4 0.457836 0.068516 0.730597
Si Si5 0.679553 0.068074 0.774761
Si Si6 0.645470 0.323976 0.213439
O O1 0.562943 0.850884 0.288577
O O2 0.614418 0.850861 0.354338
O O3 0.497436 0.718704 0.500967
O O4 0.750000 0.750000 0.000000
O O5 0.723862 0.079285 0.790909
O O6 0.808249 0.123026 0.790039
O O7 0.930461 0.002792 0.476935
O O8 0.681382 0.983332 0.002132
O O9 0.122838 0.890608 0.178566
O O10 0.000000 0.000000 0.500000
O O11 0.186010 0.043090 0.030915
O O12 0.500000 0.088777 0.750000
O O13 0.572062 0.007574 0.476358
O O14 0.750000 0.250000 0.000000
#
# Coordination Sequence:
#
# PCOD9273855 Si02
#       6
#     8   8   8   8   8   8
#     4  12  23  36  57  86 119 150 183 237 298 345
#     4  10  21  40  61  84 113 153 200 240 281 345
#     4  10  20  38  60  82 111 151 197 234 277 345
#     4  10  22  40  62  84 111 151 199 238 277 343
#     4  11  22  39  62  83 112 156 198 238 284 344
#     4  11  22  37  59  87 120 151 185 239 298 346
#
# _framework density 19.601313999999999
#
# number of rings (size 3 to 8) (size 9 to 14) (size 15 to 20)
#    0.000    1.333    0.000    8.000    0.000    1.333 
#    0.000    3.333    0.000    0.000    0.000    0.000 
#    0.000    0.000    0.000    0.000    0.000    0.000 
#
# Total GULP energy -134146.047620 kJ/mol
# GULP energy per Si atom -5589.418651 kJ/mol
# Density = 1.955670 g / cm^3
# Si number density = 19.601314 Si / 1000 Ang^3
#
#
#
# Elastic Constant Matrix: (Units=GPa)
#
#
# Indices 1 2 3 4 5 6 
#
# 1 73.6773 35.5784 -2.0389 0.0000 -15.7158 0.0001
# 2 35.5784 83.3897 -6.0940 0.0000 -15.0679 0.0000
# 3 -2.0389 -6.0940 64.8325 0.0001 -13.9421 -0.0001
# 4 0.0000 0.0000 0.0001 44.3167 0.0000 -13.5413
# 5 -15.7158 -15.0679 -13.9421 0.0000 27.6468 0.0000
# 6 0.0001 0.0000 -0.0001 -13.5413 0.0000 13.4630
#
#
#
# Elastic Compliance Matrix: (Units=1/GPa)
#
#
# Indices 1 2 3 4 5 6 
#
# 1 0.018323 -0.006279 0.001671 0.000000 0.007836 0.000000
# 2 -0.006279 0.016054 0.002720 0.000000 0.006552 0.000000
# 3 0.001671 0.002720 0.018233 0.000000 0.011627 0.000000
# 4 0.000000 0.000000 0.000000 0.032577 0.000000 0.032767
# 5 0.007836 0.006552 0.011627 0.000000 0.050059 0.000000
# 6 0.000000 0.000000 0.000000 0.032767 0.000000 0.107235
#
#
# Mechanical properties :
#
#
# Convention : Reuss Voigt Hill
#
# Bulk Modulus (GPa) = 20.47763 30.75448 25.61606
# Shear Modulus (GPa) = 19.04511 30.04889 24.54700
#
# Velocity S-wave (km/s) = 3.12047 3.91961 3.54264
# Velocity P-wave (km/s) = 4.84282 6.01735 5.46175
#
# Compressibility (1/GPa) = 0.04883377
#
# Stress axis : x y z
#
# Youngs Moduli (GPa) = 54.57721 62.29091 54.84535
#
# Poissons Ratio (x) = 0.39115 -0.09165
# Poissons Ratio (y) = 0.34271 -0.14921
# Poissons Ratio (z) = -0.09120 -0.16946
#
# Static dielectric constant tensor:
#      x y z
#    x 1.715160 0.000000 0.007050 
#    y 0.000000 1.658760 0.000000 
#    z 0.007050 0.000000 1.684000 
# 
# From -- ./inp_files/182457.got.cif
#   From: 2010.05.17/outbox.cif.g08.bks.cpg/sg15_92_cif.got.tgz:182457.got - 2010.06.03 18:47:42.
