data_PCOD9273501
_publ_section_title
;
Structure prediction by ZEFSAII (Michael W. Deem and Ramdas Pophale) SiO2 
 PCOD9273501
Probable space group: C 2/C
;
_chemical_formula_sum "Si O2"
_cell_formula_units_Z 52
_cell_length_a 13.748426
_cell_length_b 8.749660
_cell_length_c 24.337327
_cell_angle_alpha 90.000000
_cell_angle_beta 63.880865
_cell_angle_gamma 90.000000
_cell_volume 2628.667303
_symmetry_space_group_name_H-M "C 2/C"
_symmetry_group_IT_number 15
_symmetry_cell_setting 'monoclinic'
loop_
_space_group_symop_operation_xyz
x,y,z
-x,y,1/2-z
-x,-y,-z
x,-y,1/2+z
1/2+x,1/2+y,z
1/2-x,1/2+y,1/2-z
1/2-x,1/2-y,-z
1/2+x,1/2-y,1/2+z
loop_
_atom_site_type_symbol
_atom_site_label
_atom_site_fract_x
_atom_site_fract_y
_atom_site_fract_z
Si Si1 0.580431 0.275454 0.842524
Si Si2 0.783562 0.914367 0.333336
Si Si3 0.632173 0.152022 0.430718
Si Si4 0.721022 0.803777 0.568304
Si Si5 0.930899 0.533084 0.941721
Si Si6 0.592712 0.500108 0.931033
Si Si7 0.000000 0.092294 0.250000
O O1 0.701785 0.197148 0.817958
O O2 0.503887 0.163163 0.896884
O O3 0.569200 0.440014 0.875752
O O4 0.530763 0.301185 0.794622
O O5 0.816950 0.825453 0.380710
O O6 0.710385 0.055647 0.372425
O O7 0.893294 0.984440 0.281686
O O8 0.643510 0.102971 0.491561
O O9 0.642164 0.331292 0.419292
O O10 0.510169 0.096008 0.447336
O O11 0.750000 0.750000 0.500000
O O12 0.829106 0.868422 0.567339
O O13 0.639395 0.944109 0.584795
O O14 0.500000 0.500000 0.000000
#
# Coordination Sequence:
#
# PCOD9273501 Si02
#       7
#     8   8   8   8   8   8   4
#     4  10  25  47  66  99 134 173 236 278 335 419
#     4  10  25  47  66  99 133 178 233 282 332 409
#     4  10  20  37  66  97 137 166 204 286 344 395
#     4  11  22  37  64 101 135 166 215 276 345 417
#     4  10  20  38  63  99 133 166 210 274 349 411
#     4  11  22  36  65 101 135 168 213 279 348 408
#     4  12  28  48  76  86 140 198 236 276 340 404
#
# _framework density 19.781887000000001
#
# number of rings (size 3 to 8) (size 9 to 14) (size 15 to 20)
#    0.000    1.538    3.077    0.923    6.462    1.846 
#    5.538    0.000    0.000    0.000    0.000    0.000 
#    0.000    0.000    0.000    0.000    0.000    0.000 
#
# Total GULP energy -144998.412569 kJ/mol
# GULP energy per Si atom -5576.862022 kJ/mol
# Density = 1.973686 g / cm^3
# Si number density = 19.781887 Si / 1000 Ang^3
#
#
#
# Elastic Constant Matrix: (Units=GPa)
#
#
# Indices 1 2 3 4 5 6 
#
# 1 58.1185 4.3342 31.4093 0.0000 4.1382 0.0000
# 2 4.3342 86.6849 27.5442 0.0000 2.8640 0.0000
# 3 31.4093 27.5442 54.4661 0.0000 5.4535 0.0000
# 4 0.0000 0.0000 0.0000 20.2458 0.0000 5.6629
# 5 4.1382 2.8640 5.4535 0.0000 42.0129 0.0000
# 6 0.0000 0.0000 0.0000 5.6629 0.0000 30.8632
#
#
#
# Elastic Compliance Matrix: (Units=1/GPa)
#
#
# Indices 1 2 3 4 5 6 
#
# 1 0.026214 0.004162 -0.017158 0.000000 -0.000639 0.000000
# 2 0.004162 0.014406 -0.009672 0.000000 -0.000137 0.000000
# 3 -0.017158 -0.009672 0.033344 0.000000 -0.001979 0.000000
# 4 0.000000 0.000000 0.000000 0.052065 0.000000 -0.009553
# 5 -0.000639 -0.000137 -0.001979 0.000000 0.024131 0.000000
# 6 0.000000 0.000000 0.000000 -0.009553 0.000000 0.034154
#
#
# Mechanical properties :
#
#
# Convention : Reuss Voigt Hill
#
# Bulk Modulus (GPa) = 34.92990 36.20499 35.56745
# Shear Modulus (GPa) = 20.90370 27.68982 24.29676
#
# Velocity S-wave (km/s) = 3.25423 3.74539 3.50842
# Velocity P-wave (km/s) = 5.64056 6.08652 5.86778
#
# Compressibility (1/GPa) = 0.02862877
#
# Stress axis : x y z
#
# Youngs Moduli (GPa) = 38.14735 69.41719 29.99040
#
# Poissons Ratio (x) = -0.28894 0.51458
# Poissons Ratio (y) = -0.15878 0.29006
# Poissons Ratio (z) = 0.65454 0.67139
#
# Static dielectric constant tensor:
#      x y z
#    x 1.743900 0.000000 0.059230 
#    y 0.000000 1.727270 0.000000 
#    z 0.059230 0.000000 1.731170 
# 
# From -- ./inp_files/272580.got.cif
#   From: 2010.05.17/outbox.cif.g08.bks.cpg/sg15_137_cif.got.tgz:272580.got - 2010.06.03 18:47:42.
