data_PCOD9273708
_publ_section_title
;
Structure prediction by ZEFSAII (Michael W. Deem and Ramdas Pophale) SiO2 
 PCOD9273708
Probable space group: C 2/C
;
_chemical_formula_sum "Si O2"
_cell_formula_units_Z 64
_cell_length_a 27.675904
_cell_length_b 20.422842
_cell_length_c 11.753286
_cell_angle_alpha 90.000000
_cell_angle_beta 33.075715
_cell_angle_gamma 90.000000
_cell_volume 3625.505169
_symmetry_space_group_name_H-M "C 2/C"
_symmetry_group_IT_number 15
_symmetry_cell_setting 'monoclinic'
loop_
_space_group_symop_operation_xyz
x,y,z
-x,y,1/2-z
-x,-y,-z
x,-y,1/2+z
1/2+x,1/2+y,z
1/2-x,1/2+y,1/2-z
1/2-x,1/2-y,-z
1/2+x,1/2-y,1/2+z
loop_
_atom_site_type_symbol
_atom_site_label
_atom_site_fract_x
_atom_site_fract_y
_atom_site_fract_z
Si Si1 0.757116 0.051593 0.602318
Si Si2 0.031998 0.634616 0.310215
Si Si3 0.626572 0.122638 0.693970
Si Si4 0.600678 0.622823 0.021834
Si Si5 0.357891 0.007588 0.470151
Si Si6 0.301294 0.438274 0.369021
Si Si7 0.190724 0.313234 0.643863
Si Si8 0.896314 0.721162 0.950169
O O1 0.710515 0.098903 0.602520
O O2 0.822564 0.092221 0.552202
O O3 0.816547 0.994261 0.430680
O O4 0.675912 0.018115 0.833920
O O5 0.070784 0.562311 0.205981
O O6 0.112373 0.676106 0.206275
O O7 0.000000 0.660577 0.250000
O O8 0.954165 0.630398 0.557312
O O9 0.639049 0.188695 0.596213
O O10 0.611323 0.063685 0.632447
O O11 0.500000 0.606139 0.250000
O O12 0.611246 0.700790 0.017670
O O13 0.620586 0.593319 0.858075
O O14 0.269757 0.026579 0.573640
O O15 0.251098 0.377040 0.521060
O O16 0.250000 0.250000 0.500000
O O17 0.149994 0.308616 0.848714
O O18 0.000000 0.704769 0.750000
#
# Coordination Sequence:
#
# PCOD9273708 Si02
#       8
#     8   8   8   8   8   8   8   8
#     4  10  20  38  58  85 118 151 194 252 301 355
#     4  11  21  35  56  87 124 160 199 238 291 352
#     4  11  21  34  57  88 122 155 196 245 292 358
#     4  10  22  39  59  81 111 153 203 253 301 353
#     4   9  19  33  52  83 121 156 185 230 299 356
#     4   9  19  35  58  83 108 149 199 237 298 354
#     4  11  21  38  62  83 119 167 195 238 296 357
#     4  11  22  37  56  87 118 153 204 239 290 359
#
# _framework density 17.652712000000001
#
# number of rings (size 3 to 8) (size 9 to 14) (size 15 to 20)
#    0.000    1.750    3.750    1.125    0.000    1.500 
#    0.000    0.000    0.000    0.750    0.000    0.000 
#    0.000    0.000    0.000    0.000    0.000    0.000 
#
# Total GULP energy -178365.538361 kJ/mol
# GULP energy per Si atom -5573.923074 kJ/mol
# Density = 1.761253 g / cm^3
# Si number density = 17.652712 Si / 1000 Ang^3
#
#
#
# Elastic Constant Matrix: (Units=GPa)
#
#
# Indices 1 2 3 4 5 6 
#
# 1 53.6861 8.8639 27.3699 0.0000 6.2239 0.0000
# 2 8.8639 56.3614 42.4755 0.0000 5.2101 0.0000
# 3 27.3699 42.4755 134.3827 0.0000 18.2048 0.0000
# 4 0.0000 0.0000 0.0000 -20.1644 0.0000 9.1447
# 5 6.2239 5.2101 18.2048 0.0000 27.0112 0.0000
# 6 0.0000 0.0000 0.0000 9.1447 0.0000 23.6485
#
#
#
# Elastic Compliance Matrix: (Units=1/GPa)
#
#
# Indices 1 2 3 4 5 6 
#
# 1 0.020898 -0.000131 -0.003924 0.000000 -0.002145 0.000000
# 2 -0.000131 0.023298 -0.007409 0.000000 0.000530 0.000000
# 3 -0.003924 -0.007409 0.011298 0.000000 -0.005281 0.000000
# 4 0.000000 0.000000 0.000000 -0.042193 0.000000 0.016316
# 5 -0.002145 0.000530 -0.005281 0.000000 0.040973 0.000000
# 6 0.000000 0.000000 0.000000 0.016316 0.000000 0.035977
#
#
# Mechanical properties :
#
#
# Convention : Reuss Voigt Hill
#
# Bulk Modulus (GPa) = 30.70759 44.64987 37.67873
# Shear Modulus (GPa) = 40.31148 17.14712 28.72930
#
# Velocity S-wave (km/s) = 4.78387 3.12004 4.03857
# Velocity P-wave (km/s) = 6.92438 6.19096 6.56792
#
# Compressibility (1/GPa) = 0.03256524
#
# Stress axis : x y z
#
# Youngs Moduli (GPa) = 47.85205 42.92218 88.51111
#
# Poissons Ratio (x) = 0.00561 0.34735
# Poissons Ratio (y) = 0.00626 0.65579
# Poissons Ratio (z) = 0.18779 0.31802
#
# Static dielectric constant tensor:
#      x y z
#    x 1.597690 0.000000 -0.009470 
#    y 0.000000 1.597480 0.000000 
#    z -0.009470 0.000000 1.544830 
# 
# From -- ./inp_files/124251.got.cif
#   From: 2010.05.17/outbox.cif.g08.bks.cpg/sg15_63_cif.got.tgz:124251.got - 2010.06.03 18:47:42.
