data_PCOD9273999
_publ_section_title
;
Structure prediction by ZEFSAII (Michael W. Deem and Ramdas Pophale) SiO2 
 PCOD9273999
Probable space group: C 2/C
;
_chemical_formula_sum "Si O2"
_cell_formula_units_Z 36
_cell_length_a 21.411131
_cell_length_b 8.787338
_cell_length_c 8.887249
_cell_angle_alpha 90.000000
_cell_angle_beta 92.985468
_cell_angle_gamma 90.000000
_cell_volume 1669.838437
_symmetry_space_group_name_H-M "C 2/C"
_symmetry_group_IT_number 15
_symmetry_cell_setting 'monoclinic'
loop_
_space_group_symop_operation_xyz
x,y,z
-x,y,1/2-z
-x,-y,-z
x,-y,1/2+z
1/2+x,1/2+y,z
1/2-x,1/2+y,1/2-z
1/2-x,1/2-y,-z
1/2+x,1/2-y,1/2+z
loop_
_atom_site_type_symbol
_atom_site_label
_atom_site_fract_x
_atom_site_fract_y
_atom_site_fract_z
Si Si1 0.068443 0.704983 0.291608
Si Si2 0.421726 0.906259 0.037751
Si Si3 0.000000 0.820858 0.750000
Si Si4 0.874196 0.010450 0.798671
Si Si5 0.683835 0.696043 0.430170
O O1 0.065912 0.579168 0.418561
O O2 0.114482 0.845635 0.311375
O O3 0.000000 0.770763 0.250000
O O4 0.083071 0.613975 0.140535
O O5 0.471270 0.789481 0.118420
O O6 0.356635 0.848042 0.097081
O O7 0.059317 0.918589 0.693728
O O8 0.821487 0.901019 0.722996
O O9 0.852767 0.091595 0.950109
O O10 0.750000 0.750000 0.500000
#
# Coordination Sequence:
#
# PCOD9273999 Si02
#       5
#     8   8   4   8   8
#     4  11  21  35  56  92 123 157 196 244 311 365
#     4  10  23  35  59  88 128 158 201 253 303 364
#     4  10  20  38  60  96 124 158 200 258 318 364
#     4  10  23  39  68  89 124 162 205 257 307 370
#     4  10  24  44  61  90 122 166 212 251 301 363
#
# _framework density 21.558972000000001
#
# number of rings (size 3 to 8) (size 9 to 14) (size 15 to 20)
#    0.000    1.778    2.222    0.667    3.111    8.000 
#    0.000    2.222    0.000    0.000    0.000    0.000 
#    0.000    0.000    0.000    0.000    0.000    0.000 
#
# Total GULP energy -100474.220149 kJ/mol
# GULP energy per Si atom -5581.901119 kJ/mol
# Density = 2.150990 g / cm^3
# Si number density = 21.558972 Si / 1000 Ang^3
#
#
#
# Elastic Constant Matrix: (Units=GPa)
#
#
# Indices 1 2 3 4 5 6 
#
# 1 82.8631 46.0334 16.1513 0.0000 26.6127 0.0000
# 2 46.0334 67.9218 9.3180 0.0000 7.8707 0.0000
# 3 16.1513 9.3180 30.3577 0.0000 -0.2450 0.0000
# 4 0.0000 0.0000 0.0000 32.3347 0.0000 7.1063
# 5 26.6127 7.8707 -0.2450 0.0000 27.4417 0.0000
# 6 0.0000 0.0000 0.0000 7.1063 0.0000 31.0394
#
#
#
# Elastic Compliance Matrix: (Units=1/GPa)
#
#
# Indices 1 2 3 4 5 6 
#
# 1 0.032783 -0.017411 -0.012315 0.000000 -0.026909 0.000000
# 2 -0.017411 0.025180 0.001612 0.000000 0.009677 0.000000
# 3 -0.012315 0.001612 0.039093 0.000000 0.011829 0.000000
# 4 0.000000 0.000000 0.000000 0.032565 0.000000 -0.007456
# 5 -0.026909 0.009677 0.011829 0.000000 0.059867 0.000000
# 6 0.000000 0.000000 0.000000 -0.007456 0.000000 0.033924
#
#
# Mechanical properties :
#
#
# Convention : Reuss Voigt Hill
#
# Bulk Modulus (GPa) = 24.49181 36.01644 30.25412
# Shear Modulus (GPa) = 17.05042 25.47248 21.26145
#
# Velocity S-wave (km/s) = 2.81530 3.44106 3.14379
# Velocity P-wave (km/s) = 4.68539 5.70352 5.21934
#
# Compressibility (1/GPa) = 0.04082998
#
# Stress axis : x y z
#
# Youngs Moduli (GPa) = 30.50378 39.71379 25.58003
#
# Poissons Ratio (x) = 0.69144 0.31501
# Poissons Ratio (y) = 0.53109 -0.04124
# Poissons Ratio (z) = 0.37564 -0.06403
#
# Static dielectric constant tensor:
#      x y z
#    x 1.803480 0.000000 -0.034090 
#    y 0.000000 1.767020 0.000000 
#    z -0.034090 0.000000 1.804930 
# 
# From -- ./inp_files/53598.got.cif
#   From: 2010.05.17/outbox.cif.g08.bks.cpg/sg15_27_cif.got.tgz:53598.got - 2010.06.03 18:47:42.
