data_PCOD9273875
_publ_section_title
;
Structure prediction by ZEFSAII (Michael W. Deem and Ramdas Pophale) SiO2 
 PCOD9273875
Probable space group: C 2/C
;
_chemical_formula_sum "Si O2"
_cell_formula_units_Z 48
_cell_length_a 9.557056
_cell_length_b 10.308721
_cell_length_c 23.870433
_cell_angle_alpha 90.000000
_cell_angle_beta 83.451458
_cell_angle_gamma 90.000000
_cell_volume 2336.395790
_symmetry_space_group_name_H-M "C 2/C"
_symmetry_group_IT_number 15
_symmetry_cell_setting 'monoclinic'
loop_
_space_group_symop_operation_xyz
x,y,z
-x,y,1/2-z
-x,-y,-z
x,-y,1/2+z
1/2+x,1/2+y,z
1/2-x,1/2+y,1/2-z
1/2-x,1/2-y,-z
1/2+x,1/2-y,1/2+z
loop_
_atom_site_type_symbol
_atom_site_label
_atom_site_fract_x
_atom_site_fract_y
_atom_site_fract_z
Si Si1 0.655428 0.211069 0.717020
Si Si2 0.457449 0.165604 0.548917
Si Si3 0.783037 0.108550 0.115015
Si Si4 0.242701 0.673046 0.588680
Si Si5 0.504873 0.874816 0.921232
Si Si6 0.658424 0.523694 0.261682
O O1 0.500000 0.210408 0.750000
O O2 0.659372 0.175590 0.651692
O O3 0.712496 0.356807 0.721917
O O4 0.748503 0.104442 0.744122
O O5 0.366162 0.273753 0.583515
O O6 0.623362 0.200165 0.548341
O O7 0.428298 0.152889 0.484351
O O8 0.441358 0.022870 0.576841
O O9 0.615515 0.137205 0.120211
O O10 0.836873 0.078289 0.174956
O O11 0.800022 0.973381 0.080179
O O12 0.368050 0.774555 0.588616
O O13 0.500000 0.494041 0.250000
#
# Coordination Sequence:
#
# PCOD9273875 Si02
#       6
#     8   8   8   8   8   8
#     4  10  22  39  58  82 113 147 187 234 281 333
#     4  10  20  38  60  84 117 151 186 228 278 335
#     4  10  22  38  56  84 116 146 189 234 276 336
#     4  10  22  38  57  86 116 146 190 233 278 336
#     4  10  22  37  58  87 115 150 189 228 279 335
#     4  10  22  38  57  83 111 145 190 232 281 336
#
# _framework density 20.544464999999999
#
# number of rings (size 3 to 8) (size 9 to 14) (size 15 to 20)
#    0.000    2.000    0.000    3.000    0.000   10.667 
#    0.000    0.000    0.000    0.000    0.000    0.000 
#    0.000    0.000    0.000    0.000    0.000    0.000 
#
# Total GULP energy -134063.388113 kJ/mol
# GULP energy per Si atom -5585.974505 kJ/mol
# Density = 2.049770 g / cm^3
# Si number density = 20.544465 Si / 1000 Ang^3
#
#
#
# Elastic Constant Matrix: (Units=GPa)
#
#
# Indices 1 2 3 4 5 6 
#
# 1 90.0824 52.4310 16.8053 0.0000 20.2476 0.0000
# 2 52.4310 83.3006 -20.2885 0.0000 -9.7908 0.0000
# 3 16.8053 -20.2885 37.6707 0.0000 16.0867 0.0000
# 4 0.0000 0.0000 0.0000 18.2643 0.0000 6.4814
# 5 20.2476 -9.7908 16.0867 0.0000 33.4134 0.0000
# 6 0.0000 0.0000 0.0000 6.4814 0.0000 26.5861
#
#
#
# Elastic Compliance Matrix: (Units=1/GPa)
#
#
# Indices 1 2 3 4 5 6 
#
# 1 0.043597 -0.037395 -0.029744 0.000000 -0.023057 0.000000
# 2 -0.037395 0.045902 0.032708 0.000000 0.020364 0.000000
# 3 -0.029744 0.032708 0.057453 0.000000 -0.000052 0.000000
# 4 0.000000 0.000000 0.000000 0.059937 0.000000 -0.014612
# 5 -0.023057 0.020364 -0.000052 0.000000 0.049892 0.000000
# 6 0.000000 0.000000 0.000000 -0.014612 0.000000 0.041176
#
#
# Mechanical properties :
#
#
# Convention : Reuss Voigt Hill
#
# Bulk Modulus (GPa) = 12.80564 34.32769 23.56667
# Shear Modulus (GPa) = 12.72755 26.45984 19.59369
#
# Velocity S-wave (km/s) = 2.49170 3.59267 3.09159
# Velocity P-wave (km/s) = 3.81114 5.82709 4.92340
#
# Compressibility (1/GPa) = 0.07809059
#
# Stress axis : x y z
#
# Youngs Moduli (GPa) = 22.93710 21.78562 17.40558
#
# Poissons Ratio (x) = 0.81468 0.51770
# Poissons Ratio (y) = 0.85774 -0.56930
# Poissons Ratio (z) = 0.68223 -0.71257
#
# Static dielectric constant tensor:
#      x y z
#    x 1.714790 0.000000 0.016930 
#    y 0.000000 1.740530 0.000000 
#    z 0.016930 0.000000 1.756450 
# 
# From -- ./inp_files/263089.got.cif
#   From: 2010.05.17/outbox.cif.g08.bks.cpg/sg15_132_cif.got.tgz:263089.got - 2010.06.03 18:47:42.
