data_PCOD9273172
_publ_section_title
;
Structure prediction by ZEFSAII (Michael W. Deem and Ramdas Pophale) SiO2 
 PCOD9273172
Probable space group: C 2/C
;
_chemical_formula_sum "Si O2"
_cell_formula_units_Z 48
_cell_length_a 25.965575
_cell_length_b 15.045439
_cell_length_c 12.036365
_cell_angle_alpha 90.000000
_cell_angle_beta 28.907183
_cell_angle_gamma 90.000000
_cell_volume 2272.991107
_symmetry_space_group_name_H-M "C 2/C"
_symmetry_group_IT_number 15
_symmetry_cell_setting 'monoclinic'
loop_
_space_group_symop_operation_xyz
x,y,z
-x,y,1/2-z
-x,-y,-z
x,-y,1/2+z
1/2+x,1/2+y,z
1/2-x,1/2+y,1/2-z
1/2-x,1/2-y,-z
1/2+x,1/2-y,1/2+z
loop_
_atom_site_type_symbol
_atom_site_label
_atom_site_fract_x
_atom_site_fract_y
_atom_site_fract_z
Si Si1 0.000000 0.021694 0.250000
Si Si2 0.266886 0.178227 0.838624
Si Si3 0.882670 0.115658 0.807891
Si Si4 0.795284 0.062227 0.742312
Si Si5 0.567517 0.274659 0.838437
Si Si6 0.000000 0.671510 0.750000
Si Si7 0.767778 0.631891 0.206177
O O1 0.944191 0.962128 0.259726
O O2 0.912829 0.080542 0.473453
O O3 0.275315 0.114318 0.715792
O O4 0.373653 0.193664 0.707435
O O5 0.244350 0.277932 0.838818
O O6 0.163865 0.160559 0.112545
O O7 0.806975 0.088138 0.847975
O O8 0.977777 0.178400 0.583080
O O9 0.799688 0.151293 0.055698
O O10 0.778220 0.956971 0.762069
O O11 0.515658 0.232365 0.828004
O O12 0.106267 0.616481 0.523212
#
# Coordination Sequence:
#
# PCOD9273172 Si02
#       7
#     4   8   8   8   8   4   8
#     4  10  22  35  58  95 126 150 192 259 310 343
#     4  10  22  39  59  88 125 159 196 246 302 357
#     4  11  21  38  64  91 120 154 202 256 302 351
#     4  11  22  38  62  90 120 161 202 241 301 361
#     4  10  20  37  63  89 119 158 199 245 303 361
#     4  10  22  41  60  83 122 166 200 241 302 363
#     4  10  24  42  59  88 123 154 200 255 300 352
#
# _framework density 21.117547999999999
#
# number of rings (size 3 to 8) (size 9 to 14) (size 15 to 20)
#    0.000    1.667    0.000    5.500    0.000   12.667 
#    0.000    5.000    0.000    0.000    0.000    0.000 
#    0.000    0.000    0.000    0.000    0.000    0.000 
#
# Total GULP energy -133891.377763 kJ/mol
# GULP energy per Si atom -5578.807407 kJ/mol
# Density = 2.106948 g / cm^3
# Si number density = 21.117548 Si / 1000 Ang^3
#
#
#
# Elastic Constant Matrix: (Units=GPa)
#
#
# Indices 1 2 3 4 5 6 
#
# 1 109.7197 17.1531 37.2037 0.0000 15.6881 0.0000
# 2 17.1531 57.4315 23.7242 0.0000 8.2165 0.0000
# 3 37.2037 23.7242 130.6030 0.0000 6.4971 0.0000
# 4 0.0000 0.0000 0.0000 19.6631 0.0000 -3.2815
# 5 15.6881 8.2165 6.4971 0.0000 25.7399 0.0000
# 6 0.0000 0.0000 0.0000 -3.2815 0.0000 26.7141
#
#
#
# Elastic Compliance Matrix: (Units=1/GPa)
#
#
# Indices 1 2 3 4 5 6 
#
# 1 0.011020 -0.001414 -0.002603 0.000000 -0.005608 0.000000
# 2 -0.001414 0.019722 -0.002947 0.000000 -0.004690 0.000000
# 3 -0.002603 -0.002947 0.008920 0.000000 0.000276 0.000000
# 4 0.000000 0.000000 0.000000 0.051921 0.000000 0.006378
# 5 -0.005608 -0.004690 0.000276 0.000000 0.043696 0.000000
# 6 0.000000 0.000000 0.000000 0.006378 0.000000 0.038217
#
#
# Mechanical properties :
#
#
# Convention : Reuss Voigt Hill
#
# Bulk Modulus (GPa) = 38.85739 50.43512 44.64626
# Shear Modulus (GPa) = 25.51005 29.06830 27.28917
#
# Velocity S-wave (km/s) = 3.47940 3.71415 3.59869
# Velocity P-wave (km/s) = 5.88066 6.50600 6.20122
#
# Compressibility (1/GPa) = 0.02573513
#
# Stress axis : x y z
#
# Youngs Moduli (GPa) = 90.74647 50.70356 112.10861
#
# Poissons Ratio (x) = 0.07167 0.29186
# Poissons Ratio (y) = 0.12827 0.33034
# Poissons Ratio (z) = 0.23624 0.14940
#
# Static dielectric constant tensor:
#      x y z
#    x 1.869570 0.000000 -0.038670 
#    y 0.000000 1.760800 0.000000 
#    z -0.038670 0.000000 1.795620 
# 
# From -- ./inp_files/123458.got.cif
#   From: 2010.05.17/outbox.cif.g08.bks.cpg/sg15_62_cif.got.tgz:123458.got - 2010.06.03 18:47:42.
