data_PCOD9273336
_publ_section_title
;
Structure prediction by ZEFSAII (Michael W. Deem and Ramdas Pophale) SiO2 
 PCOD9273336
Probable space group: C 2/C
;
_chemical_formula_sum "Si O2"
_cell_formula_units_Z 64
_cell_length_a 20.544148
_cell_length_b 9.017345
_cell_length_c 26.547336
_cell_angle_alpha 90.000000
_cell_angle_beta 137.346489
_cell_angle_gamma 90.000000
_cell_volume 3332.249751
_symmetry_space_group_name_H-M "C 2/C"
_symmetry_group_IT_number 15
_symmetry_cell_setting 'monoclinic'
loop_
_space_group_symop_operation_xyz
x,y,z
-x,y,1/2-z
-x,-y,-z
x,-y,1/2+z
1/2+x,1/2+y,z
1/2-x,1/2+y,1/2-z
1/2-x,1/2-y,-z
1/2+x,1/2-y,1/2+z
loop_
_atom_site_type_symbol
_atom_site_label
_atom_site_fract_x
_atom_site_fract_y
_atom_site_fract_z
Si Si1 0.853860 0.080142 0.288440
Si Si2 0.768383 0.768433 0.202787
Si Si3 0.109357 0.811917 0.801305
Si Si4 0.137619 0.465057 0.386808
Si Si5 0.711990 0.722889 0.059100
Si Si6 0.520548 0.814211 0.702690
Si Si7 0.771881 0.034289 0.047992
Si Si8 0.947792 0.939713 0.087822
O O1 0.793410 0.178115 0.292361
O O2 0.874513 0.169540 0.248658
O O3 0.797413 0.930350 0.240075
O O4 0.955820 0.027829 0.370009
O O5 0.716853 0.773362 0.119474
O O6 0.868289 0.684130 0.247629
O O7 0.119362 0.649983 0.831728
O O8 0.000000 0.866031 0.750000
O O9 0.191846 0.901068 0.878577
O O10 0.208742 0.595669 0.407801
O O11 0.187958 0.398563 0.465331
O O12 0.037225 0.538979 0.344357
O O13 0.738320 0.865278 0.039988
O O14 0.608984 0.652548 0.986802
O O15 0.500000 0.789847 0.750000
O O16 0.477147 0.677601 0.647366
O O17 0.866631 0.039802 0.067324
#
# Coordination Sequence:
#
# PCOD9273336 Si02
#       8
#     8   8   8   8   8   8   8   8
#     4  11  26  43  63  90 129 173 222 264 323 378
#     4  11  25  40  65  89 127 174 215 269 314 383
#     4  12  25  39  63  95 133 167 207 266 328 373
#     4  11  22  35  63  99 133 159 205 263 313 396
#     4  11  20  39  69  94 125 168 216 260 316 388
#     4  11  19  35  63  96 121 158 210 264 309 370
#     4  11  19  40  64 100 127 165 208 262 327 379
#     4  10  20  37  64  94 123 162 212 262 310 387
#
# _framework density 19.206244999999999
#
# number of rings (size 3 to 8) (size 9 to 14) (size 15 to 20)
#    0.000    1.000    6.250    1.500    3.500    0.500 
#    0.000    0.000    0.000    3.750    0.000    0.000 
#    0.000    0.000    0.000    0.000    0.000    0.000 
#
# Total GULP energy -178704.845222 kJ/mol
# GULP energy per Si atom -5584.526413 kJ/mol
# Density = 1.916253 g / cm^3
# Si number density = 19.206245 Si / 1000 Ang^3
#
#
#
# Elastic Constant Matrix: (Units=GPa)
#
#
# Indices 1 2 3 4 5 6 
#
# 1 119.3936 35.3331 50.1118 0.0000 -3.8467 0.0000
# 2 35.3331 68.0411 22.9146 0.0000 6.1873 0.0000
# 3 50.1118 22.9146 109.9819 0.0000 10.6419 0.0000
# 4 0.0000 0.0000 0.0000 30.6398 0.0000 -5.4352
# 5 -3.8467 6.1873 10.6419 0.0000 21.3606 0.0000
# 6 0.0000 0.0000 0.0000 -5.4352 0.0000 27.8659
#
#
#
# Elastic Compliance Matrix: (Units=1/GPa)
#
#
# Indices 1 2 3 4 5 6 
#
# 1 0.012266 -0.005219 -0.005108 0.000000 0.006265 0.000000
# 2 -0.005219 0.018223 -0.000858 0.000000 -0.005791 0.000000
# 3 -0.005108 -0.000858 0.012254 0.000000 -0.006776 0.000000
# 4 0.000000 0.000000 0.000000 0.033807 0.000000 0.006594
# 5 0.006265 -0.005791 -0.006776 0.000000 0.052997 0.000000
# 6 0.000000 0.000000 0.000000 0.006594 0.000000 0.037172
#
#
# Mechanical properties :
#
#
# Convention : Reuss Voigt Hill
#
# Bulk Modulus (GPa) = 49.08544 57.12618 53.10581
# Shear Modulus (GPa) = 25.52585 28.57708 27.05146
#
# Velocity S-wave (km/s) = 3.64955 3.86152 3.75703
# Velocity P-wave (km/s) = 6.58570 7.04911 6.82134
#
# Compressibility (1/GPa) = 0.02037264
#
# Stress axis : x y z
#
# Youngs Moduli (GPa) = 81.52743 54.87595 81.60520
#
# Poissons Ratio (x) = 0.28641 0.41681
# Poissons Ratio (y) = 0.42550 0.07005
# Poissons Ratio (z) = 0.41641 0.04710
#
# Static dielectric constant tensor:
#      x y z
#    x 1.623630 0.000000 0.021740 
#    y 0.000000 1.707020 0.000000 
#    z 0.021740 0.000000 1.719690 
# 
# From -- ./inp_files/279608.got.cif
#   From: 2010.05.17/outbox.cif.g08.bks.cpg/sg15_140_cif.got.tgz:279608.got - 2010.06.03 18:47:42.
