data_PCOD9273205
_publ_section_title
;
Structure prediction by ZEFSAII (Michael W. Deem and Ramdas Pophale) SiO2 
 PCOD9273205
Probable space group: C 2/C
;
_chemical_formula_sum "Si O2"
_cell_formula_units_Z 60
_cell_length_a 7.950878
_cell_length_b 22.252775
_cell_length_c 25.102434
_cell_angle_alpha 90.000000
_cell_angle_beta 43.127241
_cell_angle_gamma 90.000000
_cell_volume 3036.200163
_symmetry_space_group_name_H-M "C 2/C"
_symmetry_group_IT_number 15
_symmetry_cell_setting 'monoclinic'
loop_
_space_group_symop_operation_xyz
x,y,z
-x,y,1/2-z
-x,-y,-z
x,-y,1/2+z
1/2+x,1/2+y,z
1/2-x,1/2+y,1/2-z
1/2-x,1/2-y,-z
1/2+x,1/2-y,1/2+z
loop_
_atom_site_type_symbol
_atom_site_label
_atom_site_fract_x
_atom_site_fract_y
_atom_site_fract_z
Si Si1 0.726375 0.838750 0.825279
Si Si2 0.072526 0.258416 0.384282
Si Si3 0.597323 0.921369 0.286176
Si Si4 0.000000 0.159366 0.750000
Si Si5 0.775147 0.864060 0.050754
Si Si6 0.719910 0.940791 0.738921
Si Si7 0.125575 0.868271 0.595062
Si Si8 0.285561 0.711794 0.044107
O O1 0.720860 0.898106 0.790125
O O2 0.706328 0.854165 0.892726
O O3 0.482735 0.801021 0.869045
O O4 0.000000 0.811673 0.750000
O O5 0.319540 0.295718 0.321652
O O6 0.048300 0.249184 0.452883
O O7 0.871756 0.301846 0.404781
O O8 0.052099 0.190845 0.367068
O O9 0.500000 0.903708 0.250000
O O10 0.826887 0.881575 0.252876
O O11 0.372605 0.911889 0.379859
O O12 0.683245 0.990303 0.263080
O O13 0.764173 0.875707 0.989492
O O14 0.058208 0.849627 0.999813
O O15 0.500000 0.923929 0.750000
O O16 0.966696 0.925677 0.649250
O O17 0.250000 0.750000 0.000000
#
# Coordination Sequence:
#
# PCOD9273205 Si02
#       8
#     8   8   8   4   8   8   8   8
#     4  10  22  36  60  97 124 164 215 267 322 388
#     4  10  21  36  58  92 126 166 206 264 324 393
#     4  10  24  45  65  92 129 175 224 269 315 398
#     4  10  24  38  66  88 130 174 212 260 328 386
#     4  10  21  41  61  89 132 167 208 268 331 391
#     4  10  21  40  65  89 122 165 220 273 314 376
#     4  10  20  37  63  91 126 160 212 269 329 377
#     4  11  21  35  59  90 128 168 204 262 325 396
#
# _framework density 19.761544000000001
#
# number of rings (size 3 to 8) (size 9 to 14) (size 15 to 20)
#    0.000    1.867    0.000    4.800    9.333    0.000 
#    0.000    6.667    0.000    0.000    0.000    0.000 
#    0.000    0.000    0.000    0.000    0.000    0.000 
#
# Total GULP energy -167245.700710 kJ/mol
# GULP energy per Si atom -5574.856690 kJ/mol
# Density = 1.971657 g / cm^3
# Si number density = 19.761544 Si / 1000 Ang^3
#
#
#
# Elastic Constant Matrix: (Units=GPa)
#
#
# Indices 1 2 3 4 5 6 
#
# 1 88.2122 27.5071 18.5557 0.0002 11.6708 -0.0004
# 2 27.5071 80.7715 43.1347 0.0000 4.2597 0.0000
# 3 18.5557 43.1347 94.6015 0.0002 2.8765 0.0000
# 4 0.0002 0.0000 0.0002 28.0278 -0.0002 5.1847
# 5 11.6708 4.2597 2.8765 -0.0002 41.0649 0.0004
# 6 -0.0004 0.0000 0.0000 5.1847 0.0004 7.4692
#
#
#
# Elastic Compliance Matrix: (Units=1/GPa)
#
#
# Indices 1 2 3 4 5 6 
#
# 1 0.013142 -0.003938 -0.000682 0.000000 -0.003279 0.000001
# 2 -0.003938 0.017603 -0.007248 0.000000 -0.000199 0.000000
# 3 -0.000682 -0.007248 0.014010 0.000000 -0.000036 0.000000
# 4 0.000000 0.000000 0.000000 0.040935 0.000001 -0.028415
# 5 -0.003279 -0.000199 -0.000036 0.000001 0.025307 -0.000002
# 6 0.000001 0.000000 0.000000 -0.028415 -0.000002 0.153608
#
#
# Mechanical properties :
#
#
# Convention : Reuss Voigt Hill
#
# Bulk Modulus (GPa) = 47.57760 49.10891 48.34326
# Shear Modulus (GPa) = 16.92925 26.93822 21.93373
#
# Velocity S-wave (km/s) = 2.93008 3.69611 3.33516
# Velocity P-wave (km/s) = 5.96450 6.56656 6.27276
#
# Compressibility (1/GPa) = 0.02101830
#
# Stress axis : x y z
#
# Youngs Moduli (GPa) = 76.09409 56.80928 71.37627
#
# Poissons Ratio (x) = 0.22372 0.04870
# Poissons Ratio (y) = 0.29967 0.51731
# Poissons Ratio (z) = 0.05192 0.41174
#
# Static dielectric constant tensor:
#      x y z
#    x 1.747360 0.000000 -0.065010 
#    y 0.000000 1.674840 0.000000 
#    z -0.065010 0.000000 1.891080 
# 
# From -- ./inp_files/290213.got.cif
#   From: 2010.05.17/outbox.cif.g08.bks.cpg/sg15_146_cif.got.tgz:290213.got - 2010.06.03 18:47:42.
