data_PCOD9273899
_publ_section_title
;
Structure prediction by ZEFSAII (Michael W. Deem and Ramdas Pophale) SiO2 
 PCOD9273899
Probable space group: C 2/C
;
_chemical_formula_sum "Si O2"
_cell_formula_units_Z 52
_cell_length_a 14.274412
_cell_length_b 26.807925
_cell_length_c 8.684490
_cell_angle_alpha 90.000000
_cell_angle_beta 124.300685
_cell_angle_gamma 90.000000
_cell_volume 2745.326046
_symmetry_space_group_name_H-M "C 2/C"
_symmetry_group_IT_number 15
_symmetry_cell_setting 'monoclinic'
loop_
_space_group_symop_operation_xyz
x,y,z
-x,y,1/2-z
-x,-y,-z
x,-y,1/2+z
1/2+x,1/2+y,z
1/2-x,1/2+y,1/2-z
1/2-x,1/2-y,-z
1/2+x,1/2-y,1/2+z
loop_
_atom_site_type_symbol
_atom_site_label
_atom_site_fract_x
_atom_site_fract_y
_atom_site_fract_z
Si Si1 0.373374 0.553097 0.104052
Si Si2 0.500000 0.230885 0.250000
Si Si3 0.154972 0.334022 0.665797
Si Si4 0.890808 0.223446 0.360053
Si Si5 0.231179 0.488838 0.196505
Si Si6 0.000000 0.148832 0.250000
Si Si7 0.000000 0.692862 0.750000
Si Si8 0.626936 0.934849 0.813622
O O1 0.500000 0.531819 0.250000
O O2 0.294457 0.532736 0.164332
O O3 0.393809 0.612108 0.129941
O O4 0.318804 0.536403 0.894530
O O5 0.420106 0.197527 0.283407
O O6 0.578045 0.262573 0.437490
O O7 0.267476 0.301693 0.735039
O O8 0.077961 0.338010 0.440498
O O9 0.175425 0.387225 0.766628
O O10 0.979434 0.182900 0.377648
O O11 0.916688 0.271318 0.274651
O O12 0.136043 0.516489 0.211302
O O13 0.191393 0.450195 0.029952
O O14 0.500000 0.923781 0.750000
#
# Coordination Sequence:
#
# PCOD9273899 Si02
#       8
#     8   4   8   8   8   4   4   8
#     4   9  19  36  58  87 116 149 188 232 280 343
#     4  10  22  38  60  86 116 144 192 234 288 338
#     4  11  21  41  59  87 114 150 192 239 283 340
#     4  10  20  38  60  86 117 152 182 232 288 342
#     4  10  21  39  61  82 113 160 188 234 295 326
#     4   9  20  34  54  87 120 143 192 222 274 351
#     4   9  22  40  62  85 114 151 194 230 288 343
#     4  11  23  41  57  84 117 149 199 239 280 340
#
# _framework density 18.941284
#
# number of rings (size 3 to 8) (size 9 to 14) (size 15 to 20)
#    0.462    1.538    0.769    2.769    0.000    1.231 
#    9.692    1.538    0.000    0.000    0.000    0.000 
#    0.000    0.000    0.000    0.000    0.000    0.000 
#
# Total GULP energy -144934.647192 kJ/mol
# GULP energy per Si atom -5574.409507 kJ/mol
# Density = 1.889817 g / cm^3
# Si number density = 18.941284 Si / 1000 Ang^3
#
#
#
# Elastic Constant Matrix: (Units=GPa)
#
#
# Indices 1 2 3 4 5 6 
#
# 1 52.3367 -0.2667 21.6042 0.0000 -2.8030 0.0000
# 2 -0.2667 64.7737 44.4472 0.0000 -4.6090 0.0000
# 3 21.6042 44.4472 133.8918 0.0000 -18.2715 0.0000
# 4 0.0000 0.0000 0.0000 18.9876 0.0000 0.8456
# 5 -2.8030 -4.6090 -18.2715 0.0000 25.2217 0.0000
# 6 0.0000 0.0000 0.0000 0.8456 0.0000 17.4307
#
#
#
# Elastic Compliance Matrix: (Units=1/GPa)
#
#
# Indices 1 2 3 4 5 6 
#
# 1 0.020947 0.003125 -0.004463 0.000000 -0.000334 0.000000
# 2 0.003125 0.020496 -0.007490 0.000000 -0.001333 0.000000
# 3 -0.004463 -0.007490 0.011564 0.000000 0.006513 0.000000
# 4 0.000000 0.000000 0.000000 0.052780 0.000000 -0.002561
# 5 -0.000334 -0.001333 0.006513 0.000000 0.044086 0.000000
# 6 0.000000 0.000000 0.000000 -0.002561 0.000000 0.057494
#
#
# Mechanical properties :
#
#
# Convention : Reuss Voigt Hill
#
# Bulk Modulus (GPa) = 28.28766 42.50797 35.39781
# Shear Modulus (GPa) = 21.11421 24.67582 22.89502
#
# Velocity S-wave (km/s) = 3.34236 3.61328 3.48046
# Velocity P-wave (km/s) = 5.46461 6.31652 5.90595
#
# Compressibility (1/GPa) = 0.03535110
#
# Stress axis : x y z
#
# Youngs Moduli (GPa) = 47.73876 48.78999 86.47500
#
# Poissons Ratio (x) = -0.15246 0.38593
# Poissons Ratio (y) = -0.14918 0.64771
# Poissons Ratio (z) = 0.21305 0.36544
#
# Static dielectric constant tensor:
#      x y z
#    x 1.661280 0.000000 0.002180 
#    y 0.000000 1.664980 0.000000 
#    z 0.002180 0.000000 1.665270 
# 
# From -- ./inp_files/42351.got.cif
#   From: 2010.05.17/outbox.cif.g08.bks.cpg/sg15_22_cif.got.tgz:42351.got - 2010.06.03 18:47:42.
