data_PCOD9273506
_publ_section_title
;
Structure prediction by ZEFSAII (Michael W. Deem and Ramdas Pophale) SiO2 
 PCOD9273506
Probable space group: C 2/C
;
_chemical_formula_sum "Si O2"
_cell_formula_units_Z 52
_cell_length_a 8.950591
_cell_length_b 17.623818
_cell_length_c 16.722312
_cell_angle_alpha 90.000000
_cell_angle_beta 64.891881
_cell_angle_gamma 90.000000
_cell_volume 2388.584728
_symmetry_space_group_name_H-M "C 2/C"
_symmetry_group_IT_number 15
_symmetry_cell_setting 'monoclinic'
loop_
_space_group_symop_operation_xyz
x,y,z
-x,y,1/2-z
-x,-y,-z
x,-y,1/2+z
1/2+x,1/2+y,z
1/2-x,1/2+y,1/2-z
1/2-x,1/2-y,-z
1/2+x,1/2-y,1/2+z
loop_
_atom_site_type_symbol
_atom_site_label
_atom_site_fract_x
_atom_site_fract_y
_atom_site_fract_z
Si Si1 0.263510 0.019307 0.603949
Si Si2 0.521894 0.599371 0.093631
Si Si3 0.000000 0.907924 0.250000
Si Si4 0.533400 0.888162 0.552523
Si Si5 0.247509 0.272801 0.907879
Si Si6 0.180916 0.459443 0.669681
Si Si7 0.361768 0.380007 0.112474
O O1 0.164268 0.042427 0.704085
O O2 0.354497 0.093075 0.549171
O O3 0.128948 0.978311 0.577875
O O4 0.400452 0.956252 0.585953
O O5 0.612088 0.663144 0.126486
O O6 0.340713 0.583311 0.168957
O O7 0.537325 0.620167 0.995259
O O8 0.973213 0.872498 0.167765
O O9 0.427251 0.812443 0.573140
O O10 0.646449 0.905139 0.601782
O O11 0.256386 0.193771 0.859936
O O12 0.250000 0.250000 0.000000
O O13 0.251807 0.543343 0.634705
O O14 0.000000 0.465345 0.750000
#
# Coordination Sequence:
#
# PCOD9273506 Si02
#       7
#     8   8   4   8   8   8   8
#     4  10  20  37  66  99 128 169 220 269 323 381
#     4  10  20  44  72  94 129 179 224 272 325 397
#     4  12  22  36  64 100 140 164 214 274 334 386
#     4  10  21  39  67  96 128 170 224 266 313 400
#     4   9  22  44  70  93 128 175 223 265 335 396
#     4  12  23  39  68 101 127 166 227 278 322 383
#     4  11  22  42  69 100 131 175 219 271 335 394
#
# _framework density 21.770215
#
# number of rings (size 3 to 8) (size 9 to 14) (size 15 to 20)
#    0.000    1.538    3.077    2.308    2.154    0.000 
#    1.385    8.462    0.000    0.000    0.000    0.000 
#    0.000    0.000    0.000    0.000    0.000    0.000 
#
# Total GULP energy -144876.387927 kJ/mol
# GULP energy per Si atom -5572.168766 kJ/mol
# Density = 2.172066 g / cm^3
# Si number density = 21.770215 Si / 1000 Ang^3
#
#
#
# Elastic Constant Matrix: (Units=GPa)
#
#
# Indices 1 2 3 4 5 6 
#
# 1 116.4964 40.0387 20.6598 0.0000 -10.9065 0.0000
# 2 40.0387 103.4286 6.4416 0.0000 -1.3327 0.0000
# 3 20.6598 6.4416 55.7387 0.0000 -4.2658 0.0000
# 4 0.0000 0.0000 0.0000 5.2370 0.0000 9.3395
# 5 -10.9065 -1.3327 -4.2658 0.0000 50.4835 0.0000
# 6 0.0000 0.0000 0.0000 9.3395 0.0000 22.9759
#
#
#
# Elastic Compliance Matrix: (Units=1/GPa)
#
#
# Indices 1 2 3 4 5 6 
#
# 1 0.010705 -0.003910 -0.003369 0.000000 0.001925 0.000000
# 2 -0.003910 0.011168 0.000117 0.000000 -0.000540 0.000000
# 3 -0.003369 0.000117 0.019245 0.000000 0.000901 0.000000
# 4 0.000000 0.000000 0.000000 0.694144 0.000000 -0.282163
# 5 0.001925 -0.000540 0.000901 0.000000 0.020286 0.000000
# 6 0.000000 0.000000 0.000000 -0.282163 0.000000 0.158220
#
#
# Mechanical properties :
#
#
# Convention : Reuss Voigt Hill
#
# Bulk Modulus (GPa) = 37.31973 45.54933 41.43453
# Shear Modulus (GPa) = 5.33605 29.64085 17.48845
#
# Velocity S-wave (km/s) = 1.56729 3.69390 2.83736
# Velocity P-wave (km/s) = 4.52272 6.25790 5.45969
#
# Compressibility (1/GPa) = 0.02679548
#
# Stress axis : x y z
#
# Youngs Moduli (GPa) = 93.41185 89.54392 51.96166
#
# Poissons Ratio (x) = 0.35008 0.17505
# Poissons Ratio (y) = 0.36520 -0.00609
# Poissons Ratio (z) = 0.31469 -0.01049
#
# Static dielectric constant tensor:
#      x y z
#    x 1.857500 0.000000 0.037550 
#    y 0.000000 1.802940 0.000000 
#    z 0.037550 0.000000 1.851500 
# 
# From -- ./inp_files/190351.got.cif
#   From: 2010.05.17/outbox.cif.g08.bks.cpg/sg15_96_cif.got.tgz:190351.got - 2010.06.03 18:47:42.
