data_PCOD9273082
_publ_section_title
;
Structure prediction by ZEFSAII (Michael W. Deem and Ramdas Pophale) SiO2 
 PCOD9273082
Probable space group: C 2/C
;
_chemical_formula_sum "Si O2"
_cell_formula_units_Z 56
_cell_length_a 13.359155
_cell_length_b 13.349589
_cell_length_c 15.983625
_cell_angle_alpha 90.000000
_cell_angle_beta 69.958694
_cell_angle_gamma 90.000000
_cell_volume 2677.897177
_symmetry_space_group_name_H-M "C 2/C"
_symmetry_group_IT_number 15
_symmetry_cell_setting 'monoclinic'
loop_
_space_group_symop_operation_xyz
x,y,z
-x,y,1/2-z
-x,-y,-z
x,-y,1/2+z
1/2+x,1/2+y,z
1/2-x,1/2+y,1/2-z
1/2-x,1/2-y,-z
1/2+x,1/2-y,1/2+z
loop_
_atom_site_type_symbol
_atom_site_label
_atom_site_fract_x
_atom_site_fract_y
_atom_site_fract_z
Si Si1 0.104409 0.257868 0.165649
Si Si2 0.623186 0.979998 0.441850
Si Si3 0.432654 0.321223 0.009065
Si Si4 0.630642 0.225722 0.008563
Si Si5 0.889872 0.376203 0.812129
Si Si6 0.238608 0.454134 0.077616
Si Si7 0.685790 0.832293 0.832979
O O1 0.166075 0.360380 0.126289
O O2 0.190316 0.189385 0.189170
O O3 0.000000 0.275251 0.250000
O O4 0.076583 0.206572 0.085389
O O5 0.631696 0.859943 0.436659
O O6 0.500000 0.000000 0.500000
O O7 0.699312 0.015647 0.496117
O O8 0.656316 0.051180 0.356410
O O9 0.554983 0.316196 0.002839
O O10 0.360304 0.418366 0.045754
O O11 0.375475 0.231891 0.078552
O O12 0.585410 0.176131 0.106731
O O13 0.750000 0.250000 0.000000
O O14 0.795032 0.453226 0.855833
O O15 0.852629 0.303534 0.748627
O O16 0.000000 0.425419 0.750000
#
# Coordination Sequence:
#
# PCOD9273082 Si02
#       7
#     8   8   8   8   8   8   8
#     4  11  22  35  62  96 125 154 208 268 319 363
#     4  11  18  38  65  89 116 164 214 256 304 373
#     4  11  20  42  64  89 128 166 204 265 327 371
#     4  11  25  40  62  95 130 169 207 255 326 392
#     4  11  22  40  62  94 126 164 219 261 310 372
#     4  10  20  37  62  91 120 164 211 259 319 372
#     4  11  20  39  62  89 124 161 209 267 306 366
#
# _framework density 20.911930000000002
#
# number of rings (size 3 to 8) (size 9 to 14) (size 15 to 20)
#    0.000    1.143    5.714    2.143    2.000    1.143 
#    2.571    4.286    0.000    0.000    0.000    0.000 
#    0.000    0.000    0.000    0.000    0.000    0.000 
#
# Total GULP energy -156398.333519 kJ/mol
# GULP energy per Si atom -5585.654769 kJ/mol
# Density = 2.086433 g / cm^3
# Si number density = 20.911930 Si / 1000 Ang^3
#
#
#
# Elastic Constant Matrix: (Units=GPa)
#
#
# Indices 1 2 3 4 5 6 
#
# 1 132.7719 22.7722 1.7712 0.0000 -12.4928 0.0000
# 2 22.7722 36.6060 2.8538 0.0000 -6.5792 0.0000
# 3 1.7712 2.8538 46.9639 0.0000 5.5332 0.0000
# 4 0.0000 0.0000 0.0000 11.8211 0.0000 -2.0385
# 5 -12.4928 -6.5792 5.5332 0.0000 34.2654 0.0000
# 6 0.0000 0.0000 0.0000 -2.0385 0.0000 36.6189
#
#
#
# Elastic Compliance Matrix: (Units=1/GPa)
#
#
# Indices 1 2 3 4 5 6 
#
# 1 0.008589 -0.004920 -0.000288 0.000000 0.002234 0.000000
# 2 -0.004920 0.031381 -0.002263 0.000000 0.004597 0.000000
# 3 -0.000288 -0.002263 0.021922 0.000000 -0.004080 0.000000
# 4 0.000000 0.000000 0.000000 0.085414 0.000000 0.004755
# 5 0.002234 0.004597 -0.004080 0.000000 0.031540 0.000000
# 6 0.000000 0.000000 0.000000 0.004755 0.000000 0.027573
#
#
# Mechanical properties :
#
#
# Convention : Reuss Voigt Hill
#
# Bulk Modulus (GPa) = 21.29876 30.12623 25.71249
# Shear Modulus (GPa) = 21.09607 29.13739 25.11673
#
# Velocity S-wave (km/s) = 3.17962 3.73679 3.46941
# Velocity P-wave (km/s) = 4.86693 5.74941 5.32648
#
# Compressibility (1/GPa) = 0.04695110
#
# Stress axis : x y z
#
# Youngs Moduli (GPa) = 116.42143 31.86649 45.61628
#
# Poissons Ratio (x) = 0.15677 0.01314
# Poissons Ratio (y) = 0.57274 0.10323
# Poissons Ratio (z) = 0.03355 0.07211
#
# Static dielectric constant tensor:
#      x y z
#    x 1.774670 0.000000 -0.004620 
#    y 0.000000 1.780760 0.000000 
#    z -0.004620 0.000000 1.775100 
# 
# From -- ./inp_files/197769.got.cif
#   From: 2010.05.17/outbox.cif.g08.bks.cpg/sg15_99_cif.got.tgz:197769.got - 2010.06.03 18:47:42.
