data_PCOD9273971
_publ_section_title
;
Structure prediction by ZEFSAII (Michael W. Deem and Ramdas Pophale) SiO2 
 PCOD9273971
Probable space group: C 2/C
;
_chemical_formula_sum "Si O2"
_cell_formula_units_Z 60
_cell_length_a 28.054555
_cell_length_b 18.429414
_cell_length_c 11.998117
_cell_angle_alpha 90.000000
_cell_angle_beta 27.564879
_cell_angle_gamma 90.000000
_cell_volume 2870.628476
_symmetry_space_group_name_H-M "C 2/C"
_symmetry_group_IT_number 15
_symmetry_cell_setting 'monoclinic'
loop_
_space_group_symop_operation_xyz
x,y,z
-x,y,1/2-z
-x,-y,-z
x,-y,1/2+z
1/2+x,1/2+y,z
1/2-x,1/2+y,1/2-z
1/2-x,1/2-y,-z
1/2+x,1/2-y,1/2+z
loop_
_atom_site_type_symbol
_atom_site_label
_atom_site_fract_x
_atom_site_fract_y
_atom_site_fract_z
Si Si1 0.709709 0.672414 0.470646
Si Si2 0.000000 0.647134 0.750000
Si Si3 0.123288 0.043458 0.499384
Si Si4 0.265939 0.605877 0.666697
Si Si5 0.735783 0.889752 0.973446
Si Si6 0.164076 0.736821 0.496020
Si Si7 0.491687 0.077831 0.568502
Si Si8 0.858173 0.328981 0.872635
O O1 0.659072 0.601873 0.519416
O O2 0.791126 0.706066 0.213440
O O3 0.768142 0.658197 0.465937
O O4 0.632781 0.741511 0.640587
O O5 0.051238 0.703071 0.730009
O O6 0.055800 0.592703 0.548606
O O7 0.174344 0.965235 0.416761
O O8 0.170421 0.073447 0.285366
O O9 0.000000 0.038996 0.750000
O O10 0.227546 0.593637 0.620525
O O11 0.336242 0.677576 0.504892
O O12 0.181311 0.633675 0.931370
O O13 0.627682 0.917412 0.147816
O O14 0.731733 0.804545 0.948598
O O15 0.537106 0.133767 0.384719
O O16 0.500000 0.000000 0.500000
#
# Coordination Sequence:
#
# PCOD9273971 Si02
#       8
#     8   4   8   8   8   8   8   8
#     4   9  20  43  68  89 133 165 224 268 313 391
#     4  10  20  38  60  92 128 164 216 264 314 384
#     4  11  26  46  66  94 129 176 215 274 336 374
#     4  11  24  40  66  93 132 168 221 265 318 391
#     4  10  24  44  61  95 132 168 210 271 324 382
#     4   9  19  40  66  89 125 171 210 269 317 379
#     4  11  23  37  66  99 132 166 208 262 333 384
#     4  10  21  42  68  99 124 180 213 260 327 392
#
# _framework density 20.901346
#
# number of rings (size 3 to 8) (size 9 to 14) (size 15 to 20)
#    0.000    1.867    1.333    1.200    4.667    2.133 
#   12.000    0.000    0.000    0.000    0.000    0.000 
#    0.000    0.000    0.000    0.000    0.000    0.000 
#
# Total GULP energy -167101.439807 kJ/mol
# GULP energy per Si atom -5570.047994 kJ/mol
# Density = 2.085377 g / cm^3
# Si number density = 20.901346 Si / 1000 Ang^3
#
#
#
# Elastic Constant Matrix: (Units=GPa)
#
#
# Indices 1 2 3 4 5 6 
#
# 1 74.4242 19.3778 18.1796 0.0000 19.7308 0.0000
# 2 19.3778 135.0895 28.6367 0.0000 1.3003 0.0000
# 3 18.1796 28.6367 83.5263 0.0000 13.3445 0.0000
# 4 0.0000 0.0000 0.0000 25.4085 0.0000 3.8762
# 5 19.7308 1.3003 13.3445 0.0000 27.7666 0.0000
# 6 0.0000 0.0000 0.0000 3.8762 0.0000 26.6165
#
#
#
# Elastic Compliance Matrix: (Units=1/GPa)
#
#
# Indices 1 2 3 4 5 6 
#
# 1 0.017376 -0.002129 -0.001187 0.000000 -0.011678 0.000000
# 2 -0.002129 0.008270 -0.002764 0.000000 0.002454 0.000000
# 3 -0.001187 -0.002764 0.014106 0.000000 -0.005807 0.000000
# 4 0.000000 0.000000 0.000000 0.040251 0.000000 -0.005862
# 5 -0.011678 0.002454 -0.005807 0.000000 0.046988 0.000000
# 6 0.000000 0.000000 0.000000 -0.005862 0.000000 0.038424
#
#
# Mechanical properties :
#
#
# Convention : Reuss Voigt Hill
#
# Bulk Modulus (GPa) = 36.23984 47.26980 41.75482
# Shear Modulus (GPa) = 26.77048 31.08138 28.92593
#
# Velocity S-wave (km/s) = 3.58271 3.86041 3.72415
# Velocity P-wave (km/s) = 5.87287 6.52190 6.20587
#
# Compressibility (1/GPa) = 0.02759394
#
# Stress axis : x y z
#
# Youngs Moduli (GPa) = 57.54911 120.91658 70.89235
#
# Poissons Ratio (x) = 0.25739 0.08412
# Poissons Ratio (y) = 0.12250 0.19595
# Poissons Ratio (z) = 0.06829 0.33423
#
# Static dielectric constant tensor:
#      x y z
#    x 1.887420 0.000000 -0.048700 
#    y 0.000000 1.792400 0.000000 
#    z -0.048700 0.000000 1.842430 
# 
# From -- ./inp_files/123978.got.cif
#   From: 2010.05.17/outbox.cif.g08.bks.cpg/sg15_62_cif.got.tgz:123978.got - 2010.06.03 18:47:42.
