data_PCOD9273177
_publ_section_title
;
Structure prediction by ZEFSAII (Michael W. Deem and Ramdas Pophale) SiO2 
 PCOD9273177
Probable space group: C 2/C
;
_chemical_formula_sum "Si O2"
_cell_formula_units_Z 36
_cell_length_a 10.557559
_cell_length_b 17.056919
_cell_length_c 11.462952
_cell_angle_alpha 90.000000
_cell_angle_beta 124.868488
_cell_angle_gamma 90.000000
_cell_volume 1693.641129
_symmetry_space_group_name_H-M "C 2/C"
_symmetry_group_IT_number 15
_symmetry_cell_setting 'monoclinic'
loop_
_space_group_symop_operation_xyz
x,y,z
-x,y,1/2-z
-x,-y,-z
x,-y,1/2+z
1/2+x,1/2+y,z
1/2-x,1/2+y,1/2-z
1/2-x,1/2-y,-z
1/2+x,1/2-y,1/2+z
loop_
_atom_site_type_symbol
_atom_site_label
_atom_site_fract_x
_atom_site_fract_y
_atom_site_fract_z
Si Si1 0.427723 0.275902 0.581903
Si Si2 0.812898 0.510295 0.516059
Si Si3 0.500000 0.499952 0.250000
Si Si4 0.359385 0.413414 0.382049
Si Si5 0.082449 0.373744 0.081041
O O1 0.500000 0.276701 0.750000
O O2 0.250000 0.250000 0.500000
O O3 0.433757 0.358878 0.519469
O O4 0.509297 0.211787 0.541868
O O5 0.670807 0.535916 0.355241
O O6 0.743968 0.521034 0.607830
O O7 0.866729 0.423833 0.505495
O O8 0.953774 0.570181 0.573118
O O9 0.480793 0.448746 0.356613
O O10 0.234526 0.366585 0.240443
#
# Coordination Sequence:
#
# PCOD9273177 Si02
#       5
#     8   8   4   8   8
#     4  12  22  39  68  96 128 173 219 259 323 404
#     4  10  20  37  63  89 126 164 215 261 333 378
#     4  10  24  40  62  94 132 170 210 286 322 384
#     4  11  22  41  65  91 134 170 220 271 333 381
#     4  10  21  39  62  93 128 170 208 273 324 389
#
# _framework density 21.255977999999999
#
# number of rings (size 3 to 8) (size 9 to 14) (size 15 to 20)
#    0.000    1.333    4.444    1.333    1.556    0.000 
#    0.000    6.667   14.667    0.000    0.000    0.000 
#    0.000    0.000    0.000    0.000    0.000    0.000 
#
# Total GULP energy -100438.265163 kJ/mol
# GULP energy per Si atom -5579.903620 kJ/mol
# Density = 2.120760 g / cm^3
# Si number density = 21.255978 Si / 1000 Ang^3
#
#
#
# Elastic Constant Matrix: (Units=GPa)
#
#
# Indices 1 2 3 4 5 6 
#
# 1 104.7414 37.8422 14.7079 0.0000 -18.6660 0.0000
# 2 37.8422 85.1379 15.3616 0.0000 -21.4857 0.0000
# 3 14.7079 15.3616 60.7701 0.0000 10.3555 0.0000
# 4 0.0000 0.0000 0.0000 35.0456 0.0000 1.3371
# 5 -18.6660 -21.4857 10.3555 0.0000 51.4727 0.0000
# 6 0.0000 0.0000 0.0000 1.3371 0.0000 38.2185
#
#
#
# Elastic Compliance Matrix: (Units=1/GPa)
#
#
# Indices 1 2 3 4 5 6 
#
# 1 0.011907 -0.004084 -0.002376 0.000000 0.003092 0.000000
# 2 -0.004084 0.015775 -0.004006 0.000000 0.005910 0.000000
# 3 -0.002376 -0.004006 0.019131 0.000000 -0.006383 0.000000
# 4 0.000000 0.000000 0.000000 0.028572 0.000000 -0.001000
# 5 0.003092 0.005910 -0.006383 0.000000 0.024300 0.000000
# 6 0.000000 0.000000 0.000000 -0.001000 0.000000 0.026200
#
#
# Mechanical properties :
#
#
# Convention : Reuss Voigt Hill
#
# Bulk Modulus (GPa) = 38.63900 42.94142 40.79021
# Shear Modulus (GPa) = 32.16551 37.12987 34.64769
#
# Velocity S-wave (km/s) = 3.89427 4.18400 4.04173
# Velocity P-wave (km/s) = 6.19982 6.60205 6.40410
#
# Compressibility (1/GPa) = 0.02588059
#
# Stress axis : x y z
#
# Youngs Moduli (GPa) = 83.98175 63.39104 52.27105
#
# Poissons Ratio (x) = 0.25886 0.12422
# Poissons Ratio (y) = 0.34295 0.20942
# Poissons Ratio (z) = 0.19958 0.25397
#
# Static dielectric constant tensor:
#      x y z
#    x 1.775910 0.000000 0.015370 
#    y 0.000000 1.804520 0.000000 
#    z 0.015370 0.000000 1.806440 
# 
# From -- ./inp_files/87035.got.cif
#   From: 2010.05.17/outbox.cif.g08.bks.cpg/sg15_44_cif.got.tgz:87035.got - 2010.06.03 18:47:42.
