data_PCOD9273703
_publ_section_title
;
Structure prediction by ZEFSAII (Michael W. Deem and Ramdas Pophale) SiO2 
 PCOD9273703
Probable space group: C 2/C
;
_chemical_formula_sum "Si O2"
_cell_formula_units_Z 52
_cell_length_a 15.766395
_cell_length_b 25.977110
_cell_length_c 11.971665
_cell_angle_alpha 90.000000
_cell_angle_beta 32.662881
_cell_angle_gamma 90.000000
_cell_volume 2646.221629
_symmetry_space_group_name_H-M "C 2/C"
_symmetry_group_IT_number 15
_symmetry_cell_setting 'monoclinic'
loop_
_space_group_symop_operation_xyz
x,y,z
-x,y,1/2-z
-x,-y,-z
x,-y,1/2+z
1/2+x,1/2+y,z
1/2-x,1/2+y,1/2-z
1/2-x,1/2-y,-z
1/2+x,1/2-y,1/2+z
loop_
_atom_site_type_symbol
_atom_site_label
_atom_site_fract_x
_atom_site_fract_y
_atom_site_fract_z
Si Si1 0.500000 0.601486 0.750000
Si Si2 0.786548 0.816194 0.844985
Si Si3 0.537282 0.946412 0.896333
Si Si4 0.500000 0.251488 0.750000
Si Si5 0.738043 0.039091 0.950337
Si Si6 0.153654 0.422237 0.999972
Si Si7 0.500000 0.776968 0.750000
Si Si8 0.774790 0.811199 0.594382
O O1 0.592267 0.564878 0.733598
O O2 0.628063 0.639303 0.554241
O O3 0.767281 0.811530 0.734722
O O4 0.943882 0.788616 0.712619
O O5 0.642649 0.785068 0.058476
O O6 0.768828 0.875493 0.900610
O O7 0.377229 0.932094 0.009171
O O8 0.661571 0.955415 0.658967
O O9 0.598437 0.913520 0.932499
O O10 0.500000 0.000000 0.000000
O O11 0.731216 0.978598 0.927552
O O12 0.000000 0.421708 0.250000
O O13 0.606570 0.808887 0.718613
O O14 0.623728 0.739200 0.551927
#
# Coordination Sequence:
#
# PCOD9273703 Si02
#       8
#     4   8   8   4   8   8   4   8
#     4  11  24  37  54  96 126 157 190 253 298 356
#     4  11  22  41  61  88 115 159 190 253 291 368
#     4   9  17  36  61  81 106 155 203 244 290 343
#     4  10  24  41  60  84 120 147 202 238 312 344
#     4  10  20  38  58  84 124 154 200 249 291 354
#     4  11  20  37  61  86 112 154 206 241 288 360
#     4   9  20  40  68  92 118 160 192 255 292 380
#     4  10  21  40  63  92 125 151 204 238 315 352
#
# _framework density 19.650659000000001
#
# number of rings (size 3 to 8) (size 9 to 14) (size 15 to 20)
#    0.000    1.846    3.846    1.846    0.000    3.077 
#    2.769    8.462    0.000    0.000    0.000    0.000 
#    0.000    0.000    0.000    0.000    0.000    0.000 
#
# Total GULP energy -145078.257056 kJ/mol
# GULP energy per Si atom -5579.932964 kJ/mol
# Density = 1.960593 g / cm^3
# Si number density = 19.650659 Si / 1000 Ang^3
#
#
#
# Elastic Constant Matrix: (Units=GPa)
#
#
# Indices 1 2 3 4 5 6 
#
# 1 130.6520 45.9129 30.0360 0.0000 -1.6283 -0.0001
# 2 45.9129 89.8522 15.5179 0.0001 -9.0467 0.0000
# 3 30.0360 15.5179 27.6292 0.0002 0.7817 -0.0001
# 4 0.0000 0.0001 0.0002 9.6564 -0.0001 -9.5598
# 5 -1.6283 -9.0467 0.7817 -0.0001 35.6334 0.0001
# 6 -0.0001 0.0000 -0.0001 -9.5598 0.0001 27.4046
#
#
#
# Elastic Compliance Matrix: (Units=1/GPa)
#
#
# Indices 1 2 3 4 5 6 
#
# 1 0.011418 -0.004123 -0.010089 0.000000 -0.000304 0.000000
# 2 -0.004123 0.014210 -0.003598 0.000000 0.003498 0.000000
# 3 -0.010089 -0.003598 0.049252 -0.000001 -0.002455 0.000000
# 4 0.000000 0.000000 -0.000001 0.158188 0.000000 0.055182
# 5 -0.000304 0.003498 -0.002455 0.000000 0.028992 0.000000
# 6 0.000000 0.000000 0.000000 0.055182 0.000000 0.055740
#
#
# Mechanical properties :
#
#
# Convention : Reuss Voigt Hill
#
# Bulk Modulus (GPa) = 25.47091 47.89634 36.68362
# Shear Modulus (GPa) = 13.64238 24.98331 19.31284
#
# Velocity S-wave (km/s) = 2.63771 3.56950 3.13838
# Velocity P-wave (km/s) = 4.71876 6.43547 5.64278
#
# Compressibility (1/GPa) = 0.03926048
#
# Stress axis : x y z
#
# Youngs Moduli (GPa) = 87.57899 70.37491 20.30392
#
# Poissons Ratio (x) = 0.29014 0.20484
# Poissons Ratio (y) = 0.36106 0.07305
# Poissons Ratio (z) = 0.88357 0.25321
#
# Static dielectric constant tensor:
#      x y z
#    x 1.694800 0.000000 -0.015230 
#    y 0.000000 1.719390 0.000000 
#    z -0.015230 0.000000 1.673980 
# 
# From -- ./inp_files/100953.got.cif
#   From: 2010.05.17/outbox.cif.g08.bks.cpg/sg15_51_cif.got.tgz:100953.got - 2010.06.03 18:47:42.
