data_PCOD9273642
_publ_section_title
;
Structure prediction by ZEFSAII (Michael W. Deem and Ramdas Pophale) SiO2 
 PCOD9273642
Probable space group: C 2/C
;
_chemical_formula_sum "Si O2"
_cell_formula_units_Z 60
_cell_length_a 21.602443
_cell_length_b 11.907253
_cell_length_c 25.216192
_cell_angle_alpha 90.000000
_cell_angle_beta 152.262738
_cell_angle_gamma 90.000000
_cell_volume 3018.817799
_symmetry_space_group_name_H-M "C 2/C"
_symmetry_group_IT_number 15
_symmetry_cell_setting 'monoclinic'
loop_
_space_group_symop_operation_xyz
x,y,z
-x,y,1/2-z
-x,-y,-z
x,-y,1/2+z
1/2+x,1/2+y,z
1/2-x,1/2+y,1/2-z
1/2-x,1/2-y,-z
1/2+x,1/2-y,1/2+z
loop_
_atom_site_type_symbol
_atom_site_label
_atom_site_fract_x
_atom_site_fract_y
_atom_site_fract_z
Si Si1 0.680307 0.241321 0.699000
Si Si2 0.254992 0.350335 0.962375
Si Si3 0.537984 0.605436 0.679747
Si Si4 0.677035 0.932539 0.292733
Si Si5 0.000000 0.504953 0.750000
Si Si6 0.798535 0.331968 0.407119
Si Si7 0.982119 0.945337 0.543917
Si Si8 0.576625 0.848537 0.659441
O O1 0.671226 0.155466 0.740384
O O2 0.683728 0.187579 0.642477
O O3 0.560058 0.329129 0.607697
O O4 0.822029 0.306310 0.808837
O O5 0.121974 0.423702 0.860112
O O6 0.280478 0.286379 0.925247
O O7 0.250000 0.250000 0.000000
O O8 0.386430 0.417434 0.080332
O O9 0.665418 0.594286 0.813825
O O10 0.550387 0.530986 0.636695
O O11 0.546170 0.738357 0.671805
O O12 0.823358 0.931786 0.430037
O O13 0.562737 0.922052 0.250320
O O14 0.649792 0.054253 0.246444
O O15 0.933657 0.386534 0.530357
O O16 0.000000 0.000000 0.500000
#
# Coordination Sequence:
#
# PCOD9273642 Si02
#       8
#     8   8   8   8   4   8   8   8
#     4  11  23  39  65  96 127 176 218 271 341 388
#     4  11  20  36  63  92 130 175 215 271 333 397
#     4  10  21  35  60  93 127 170 206 265 334 384
#     4  12  25  43  66  98 130 179 223 273 333 406
#     4  12  22  40  64  92 134 178 226 266 320 400
#     4  10  20  38  56  98 133 157 209 274 334 389
#     4  12  21  42  67  93 130 169 222 271 336 397
#     4  10  21  37  62  98 133 162 213 274 337 389
#
# _framework density 19.875330999999999
#
# number of rings (size 3 to 8) (size 9 to 14) (size 15 to 20)
#    0.000    1.067    2.667    8.000    1.867    0.533 
#    2.400    0.667    0.000    0.000    0.000    0.000 
#    0.000    0.000    0.000    0.000    0.000    0.000 
#
# Total GULP energy -167428.590442 kJ/mol
# GULP energy per Si atom -5580.953015 kJ/mol
# Density = 1.983009 g / cm^3
# Si number density = 19.875331 Si / 1000 Ang^3
#
#
#
# Elastic Constant Matrix: (Units=GPa)
#
#
# Indices 1 2 3 4 5 6 
#
# 1 101.8497 23.1814 26.5862 0.0004 10.4811 0.0000
# 2 23.1814 51.3285 27.0618 0.0015 0.2201 0.0001
# 3 26.5862 27.0618 151.8310 0.0019 30.4492 0.0001
# 4 0.0004 0.0015 0.0019 27.3893 0.0001 -3.6205
# 5 10.4811 0.2201 30.4492 0.0001 36.8210 -0.0001
# 6 0.0000 0.0001 0.0001 -3.6205 -0.0001 33.4429
#
#
#
# Elastic Compliance Matrix: (Units=1/GPa)
#
#
# Indices 1 2 3 4 5 6 
#
# 1 0.011344 -0.004803 -0.000586 0.000000 -0.002716 0.000000
# 2 -0.004803 0.023953 -0.004404 -0.000001 0.004866 0.000000
# 3 -0.000586 -0.004404 0.008913 0.000000 -0.007178 0.000000
# 4 0.000000 -0.000001 0.000000 0.037041 0.000000 0.004010
# 5 -0.002716 0.004866 -0.007178 0.000000 0.033838 0.000000
# 6 0.000000 0.000000 0.000000 0.004010 0.000000 0.030336
#
#
# Mechanical properties :
#
#
# Convention : Reuss Voigt Hill
#
# Bulk Modulus (GPa) = 40.60964 50.96310 45.78637
# Shear Modulus (GPa) = 28.86542 34.74261 31.80401
#
# Velocity S-wave (km/s) = 3.81507 4.18548 4.00456
# Velocity P-wave (km/s) = 6.31529 7.00390 6.66849
#
# Compressibility (1/GPa) = 0.02462469
#
# Stress axis : x y z
#
# Youngs Moduli (GPa) = 88.15313 41.74928 112.19232
#
# Poissons Ratio (x) = 0.20051 0.06570
# Poissons Ratio (y) = 0.42338 0.49410
# Poissons Ratio (z) = 0.05163 0.18387
#
# Static dielectric constant tensor:
#      x y z
#    x 1.770650 0.000000 0.025230 
#    y 0.000000 1.685850 0.000000 
#    z 0.025230 0.000000 1.772120 
# 
# From -- ./inp_files/280111.got.cif
#   From: 2010.05.17/outbox.cif.g08.bks.cpg/sg15_141_cif.got.tgz:280111.got - 2010.06.03 18:47:42.
