data_PCOD9273342
_publ_section_title
;
Structure prediction by ZEFSAII (Michael W. Deem and Ramdas Pophale) SiO2 
 PCOD9273342
Probable space group: C 2/C
;
_chemical_formula_sum "Si O2"
_cell_formula_units_Z 40
_cell_length_a 12.934224
_cell_length_b 4.991559
_cell_length_c 29.042377
_cell_angle_alpha 90.000000
_cell_angle_beta 118.515557
_cell_angle_gamma 90.000000
_cell_volume 1647.567455
_symmetry_space_group_name_H-M "C 2/C"
_symmetry_group_IT_number 15
_symmetry_cell_setting 'monoclinic'
loop_
_space_group_symop_operation_xyz
x,y,z
-x,y,1/2-z
-x,-y,-z
x,-y,1/2+z
1/2+x,1/2+y,z
1/2-x,1/2+y,1/2-z
1/2-x,1/2-y,-z
1/2+x,1/2-y,1/2+z
loop_
_atom_site_type_symbol
_atom_site_label
_atom_site_fract_x
_atom_site_fract_y
_atom_site_fract_z
Si Si1 0.310149 0.157742 0.780938
Si Si2 0.699716 0.544678 0.125953
Si Si3 0.044144 0.250397 0.904488
Si Si4 0.913909 0.247050 0.487399
Si Si5 0.932897 0.752327 0.651262
O O1 0.223257 0.350667 0.733877
O O2 0.294625 0.253529 0.830077
O O3 0.444740 0.220931 0.795471
O O4 0.586377 0.353891 0.110046
O O5 0.678550 0.703163 0.073335
O O6 0.816572 0.365246 0.149241
O O7 0.045553 0.553854 0.887670
O O8 0.080071 0.050615 0.870982
O O9 0.122155 0.234547 0.966897
O O10 0.000000 0.500000 0.500000
O O11 0.000000 0.000000 0.500000
#
# Coordination Sequence:
#
# PCOD9273342 Si02
#       5
#     8   8   8   8   8
#     4  11  24  45  65  87 124 163 211 274 324 373
#     4  10  24  43  67  94 129 168 213 263 316 379
#     4  10  22  41  63  97 135 164 205 257 311 382
#     4  10  20  37  64  94 132 174 205 250 315 377
#     4  11  24  42  67  95 125 167 213 260 321 383
#
# _framework density 24.278217000000001
#
# number of rings (size 3 to 8) (size 9 to 14) (size 15 to 20)
#    0.000    1.600    0.000    6.000    0.000   12.000 
#    0.000    6.000    0.000    0.000    0.000    0.000 
#    0.000    0.000    0.000    0.000    0.000    0.000 
#
# Total GULP energy -111975.947191 kJ/mol
# GULP energy per Si atom -5598.797360 kJ/mol
# Density = 2.422296 g / cm^3
# Si number density = 24.278217 Si / 1000 Ang^3
#
#
#
# Elastic Constant Matrix: (Units=GPa)
#
#
# Indices 1 2 3 4 5 6 
#
# 1 107.3053 1.8339 26.0564 0.0000 31.7040 0.0000
# 2 1.8339 80.1028 5.5870 -0.0001 15.4174 0.0001
# 3 26.0564 5.5870 106.5778 0.0000 10.2042 0.0000
# 4 0.0000 -0.0001 0.0000 40.8227 0.0000 -3.1457
# 5 31.7040 15.4174 10.2042 0.0000 40.7394 0.0000
# 6 0.0000 0.0001 0.0000 -3.1457 0.0000 43.8965
#
#
#
# Elastic Compliance Matrix: (Units=1/GPa)
#
#
# Indices 1 2 3 4 5 6 
#
# 1 0.012820 0.001807 -0.002263 0.000000 -0.010094 0.000000
# 2 0.001807 0.013725 -0.000542 0.000000 -0.006464 0.000000
# 3 -0.002263 -0.000542 0.010016 0.000000 -0.000543 0.000000
# 4 0.000000 0.000000 0.000000 0.024632 0.000000 0.001765
# 5 -0.010094 -0.006464 -0.000543 0.000000 0.034984 0.000000
# 6 0.000000 0.000000 0.000000 0.001765 0.000000 0.022907
#
#
# Mechanical properties :
#
#
# Convention : Reuss Voigt Hill
#
# Bulk Modulus (GPa) = 28.93070 40.10449 34.51759
# Shear Modulus (GPa) = 37.70686 42.45894 40.08290
#
# Velocity S-wave (km/s) = 3.94523 4.18646 4.06764
# Velocity P-wave (km/s) = 5.71798 6.31848 6.02572
#
# Compressibility (1/GPa) = 0.03456536
#
# Stress axis : x y z
#
# Youngs Moduli (GPa) = 78.00300 72.86181 99.83649
#
# Poissons Ratio (x) = -0.13167 0.22589
# Poissons Ratio (y) = -0.14096 0.05414
# Poissons Ratio (z) = 0.17649 0.03952
#
# Static dielectric constant tensor:
#      x y z
#    x 1.968470 0.000000 -0.006780 
#    y 0.000000 1.845750 0.000000 
#    z -0.006780 0.000000 1.989010 
# 
# From -- ./inp_files/312187.got.cif
#   From: 2010.05.17/outbox.cif.g08.bks.cpg/sg15_157_cif.got.tgz:312187.got - 2010.06.03 18:47:42.
