data_PCOD9273554
_publ_section_title
;
Structure prediction by ZEFSAII (Michael W. Deem and Ramdas Pophale) SiO2 
 PCOD9273554
Probable space group: C 2/C
;
_chemical_formula_sum "Si O2"
_cell_formula_units_Z 52
_cell_length_a 26.940297
_cell_length_b 13.908849
_cell_length_c 20.009844
_cell_angle_alpha 90.000000
_cell_angle_beta 160.674440
_cell_angle_gamma 90.000000
_cell_volume 2481.306961
_symmetry_space_group_name_H-M "C 2/C"
_symmetry_group_IT_number 15
_symmetry_cell_setting 'monoclinic'
loop_
_space_group_symop_operation_xyz
x,y,z
-x,y,1/2-z
-x,-y,-z
x,-y,1/2+z
1/2+x,1/2+y,z
1/2-x,1/2+y,1/2-z
1/2-x,1/2-y,-z
1/2+x,1/2-y,1/2+z
loop_
_atom_site_type_symbol
_atom_site_label
_atom_site_fract_x
_atom_site_fract_y
_atom_site_fract_z
Si Si1 0.950239 0.237477 0.825651
Si Si2 0.836229 0.525590 0.519329
Si Si3 0.719199 0.393537 0.490249
Si Si4 0.749526 0.857935 0.185260
Si Si5 0.395892 0.334611 0.505761
Si Si6 0.000000 0.037512 0.250000
Si Si7 0.809079 0.771650 0.649809
O O1 0.843136 0.329826 0.682491
O O2 0.905388 0.173770 0.703799
O O3 0.881796 0.180930 0.803163
O O4 0.120643 0.276433 0.035712
O O5 0.788081 0.456160 0.518476
O O6 0.825417 0.452237 0.443347
O O7 0.733994 0.619687 0.382940
O O8 0.000000 0.561044 0.750000
O O9 0.641784 0.469652 0.439329
O O10 0.821286 0.883377 0.347547
O O11 0.503575 0.399528 0.688517
O O12 0.274209 0.294587 0.402427
O O13 0.512295 0.256372 0.624819
O O14 0.750000 0.750000 0.500000
#
# Coordination Sequence:
#
# PCOD9273554 Si02
#       7
#     8   8   8   8   8   4   8
#     4  10  21  41  65  95 129 166 207 253 322 382
#     4  11  21  39  67  92 126 161 214 255 315 376
#     4  10  20  37  69  91 123 165 210 256 308 380
#     4  11  24  41  62  98 131 167 204 265 321 381
#     4  12  25  43  66  91 130 165 217 262 323 372
#     4  12  22  42  62  96 120 164 220 270 306 372
#     4  12  23  45  70  91 120 176 220 263 309 377
#
# _framework density 20.956697999999999
#
# number of rings (size 3 to 8) (size 9 to 14) (size 15 to 20)
#    0.000    0.923    4.615    2.769    0.000    0.615 
#    5.538    0.769    0.000    0.000    0.000    0.000 
#    0.000    0.000    0.000    0.000    0.000    0.000 
#
# Total GULP energy -145085.558774 kJ/mol
# GULP energy per Si atom -5580.213799 kJ/mol
# Density = 2.090900 g / cm^3
# Si number density = 20.956698 Si / 1000 Ang^3
#
#
#
# Elastic Constant Matrix: (Units=GPa)
#
#
# Indices 1 2 3 4 5 6 
#
# 1 91.0836 17.5347 22.0277 0.0001 9.1955 0.0000
# 2 17.5347 49.5877 -11.4362 0.0000 0.8342 0.0000
# 3 22.0277 -11.4362 46.7481 0.0001 10.1290 0.0000
# 4 0.0001 0.0000 0.0001 24.2212 0.0000 12.8398
# 5 9.1955 0.8342 10.1290 0.0000 26.5634 0.0000
# 6 0.0000 0.0000 0.0000 12.8398 0.0000 17.6821
#
#
#
# Elastic Compliance Matrix: (Units=1/GPa)
#
#
# Indices 1 2 3 4 5 6 
#
# 1 0.014462 -0.006966 -0.008155 0.000000 -0.001678 0.000000
# 2 -0.006966 0.024935 0.009843 0.000000 -0.002125 0.000000
# 3 -0.008155 0.009843 0.029538 0.000000 -0.008749 0.000000
# 4 0.000000 0.000000 0.000000 0.067125 0.000000 -0.048743
# 5 -0.001678 -0.002125 -0.008749 0.000000 0.041630 0.000000
# 6 0.000000 0.000000 0.000000 -0.048743 0.000000 0.091949
#
#
# Mechanical properties :
#
#
# Convention : Reuss Voigt Hill
#
# Bulk Modulus (GPa) = 17.12973 27.07463 22.10218
# Shear Modulus (GPa) = 16.68591 24.31288 20.49940
#
# Velocity S-wave (km/s) = 2.82478 3.40979 3.13098
# Velocity P-wave (km/s) = 4.33944 5.33382 4.86212
#
# Compressibility (1/GPa) = 0.05837804
#
# Stress axis : x y z
#
# Youngs Moduli (GPa) = 69.14852 40.10356 33.85524
#
# Poissons Ratio (x) = 0.27937 0.27609
# Poissons Ratio (y) = 0.48171 -0.33324
# Poissons Ratio (z) = 0.56391 -0.39474
#
# Static dielectric constant tensor:
#      x y z
#    x 1.766230 0.000000 0.035910 
#    y 0.000000 1.753600 0.000000 
#    z 0.035910 0.000000 1.797350 
# 
# From -- ./inp_files/249134.got.cif
#   From: 2010.05.17/outbox.cif.g08.bks.cpg/sg15_125_cif.got.tgz:249134.got - 2010.06.03 18:47:42.
