data_PCOD9273551
_publ_section_title
;
Structure prediction by ZEFSAII (Michael W. Deem and Ramdas Pophale) SiO2 
 PCOD9273551
Probable space group: C 2/C
;
_chemical_formula_sum "Si O2"
_cell_formula_units_Z 60
_cell_length_a 17.966243
_cell_length_b 20.901373
_cell_length_c 9.785341
_cell_angle_alpha 90.000000
_cell_angle_beta 54.693507
_cell_angle_gamma 90.000000
_cell_volume 2998.724581
_symmetry_space_group_name_H-M "C 2/C"
_symmetry_group_IT_number 15
_symmetry_cell_setting 'monoclinic'
loop_
_space_group_symop_operation_xyz
x,y,z
-x,y,1/2-z
-x,-y,-z
x,-y,1/2+z
1/2+x,1/2+y,z
1/2-x,1/2+y,1/2-z
1/2-x,1/2-y,-z
1/2+x,1/2-y,1/2+z
loop_
_atom_site_type_symbol
_atom_site_label
_atom_site_fract_x
_atom_site_fract_y
_atom_site_fract_z
Si Si1 0.680960 0.535050 0.442386
Si Si2 0.795905 0.461326 0.093519
Si Si3 0.121057 0.126218 0.277953
Si Si4 0.919448 0.416396 0.447595
Si Si5 0.052273 0.268755 0.342106
Si Si6 0.785586 0.676971 0.965509
Si Si7 0.967760 0.374523 0.937945
Si Si8 0.000000 0.028824 0.250000
O O1 0.735435 0.483713 0.288764
O O2 0.733519 0.549647 0.526986
O O3 0.669997 0.597195 0.358082
O O4 0.580850 0.510708 0.593188
O O5 0.858876 0.521858 0.987494
O O6 0.865658 0.403678 0.047214
O O7 0.079097 0.196189 0.345382
O O8 0.194565 0.135197 0.076525
O O9 0.046967 0.075194 0.310295
O O10 0.851101 0.355479 0.510045
O O11 0.000000 0.410634 0.250000
O O12 0.968414 0.421140 0.540517
O O13 0.009922 0.306085 0.513991
O O14 0.000000 0.267223 0.250000
O O15 0.140497 0.314822 0.230604
O O16 0.750000 0.750000 0.000000
O O17 0.000000 0.373004 0.750000
#
# Coordination Sequence:
#
# PCOD9273551 Si02
#       8
#     8   8   8   8   8   8   8   4
#     4  12  25  45  67  99 138 171 225 278 336 410
#     4  12  26  41  67  97 139 180 215 276 345 394
#     4  11  24  43  72  97 131 166 235 278 334 389
#     4  12  20  41  69  97 132 176 233 270 320 409
#     4  11  22  44  71  96 125 178 231 275 321 398
#     4  10  20  37  68  99 123 169 224 282 317 380
#     4  12  25  40  63 100 143 173 215 271 342 404
#     4  12  24  44  72 104 124 178 220 284 340 394
#
# _framework density 20.008507000000002
#
# number of rings (size 3 to 8) (size 9 to 14) (size 15 to 20)
#    0.000    0.533    6.000    2.800    1.867    0.000 
#    1.200    0.667    0.000    0.000    0.000    0.000 
#    0.000    0.000    0.000    0.000    0.000    0.000 
#
# Total GULP energy -167158.596297 kJ/mol
# GULP energy per Si atom -5571.953210 kJ/mol
# Density = 1.996297 g / cm^3
# Si number density = 20.008507 Si / 1000 Ang^3
#
#
#
# Elastic Constant Matrix: (Units=GPa)
#
#
# Indices 1 2 3 4 5 6 
#
# 1 115.6053 57.9823 46.8589 0.0000 8.0523 0.0000
# 2 57.9823 108.4437 61.5165 0.0000 6.0411 0.0000
# 3 46.8589 61.5165 71.5323 0.0000 -3.3598 0.0000
# 4 0.0000 0.0000 0.0000 24.2294 0.0000 -6.1572
# 5 8.0523 6.0411 -3.3598 0.0000 38.4938 0.0000
# 6 0.0000 0.0000 0.0000 -6.1572 0.0000 27.9305
#
#
#
# Elastic Compliance Matrix: (Units=1/GPa)
#
#
# Indices 1 2 3 4 5 6 
#
# 1 0.012855 -0.003678 -0.005379 0.000000 -0.002581 0.000000
# 2 -0.003678 0.019758 -0.014752 0.000000 -0.003619 0.000000
# 3 -0.005379 -0.014752 0.030476 0.000000 0.006100 0.000000
# 4 0.000000 0.000000 0.000000 0.043721 0.000000 0.009638
# 5 -0.002581 -0.003619 0.006100 0.000000 0.027619 0.000000
# 6 0.000000 0.000000 0.000000 0.009638 0.000000 0.037928
#
#
# Mechanical properties :
#
#
# Convention : Reuss Voigt Hill
#
# Bulk Modulus (GPa) = 64.63753 69.81076 67.22414
# Shear Modulus (GPa) = 22.20914 26.74566 24.47740
#
# Velocity S-wave (km/s) = 3.33526 3.66008 3.50144
# Velocity P-wave (km/s) = 6.87074 7.26828 7.07230
#
# Compressibility (1/GPa) = 0.01547089
#
# Stress axis : x y z
#
# Youngs Moduli (GPa) = 77.79047 50.61280 32.81226
#
# Poissons Ratio (x) = 0.18616 0.17650
# Poissons Ratio (y) = 0.28612 0.48405
# Poissons Ratio (z) = 0.41845 0.74664
#
# Static dielectric constant tensor:
#      x y z
#    x 1.728050 0.000000 -0.028680 
#    y 0.000000 1.716450 0.000000 
#    z -0.028680 0.000000 1.732830 
# 
# From -- ./inp_files/50621.got.cif
#   From: 2010.05.17/outbox.cif.g08.bks.cpg/sg15_26_cif.got.tgz:50621.got - 2010.06.03 18:47:42.
