data_PCOD9273118
_publ_section_title
;
Structure prediction by ZEFSAII (Michael W. Deem and Ramdas Pophale) SiO2 
 PCOD9273118
Probable space group: C 2/C
;
_chemical_formula_sum "Si O2"
_cell_formula_units_Z 60
_cell_length_a 17.948791
_cell_length_b 16.094481
_cell_length_c 12.551580
_cell_angle_alpha 90.000000
_cell_angle_beta 42.298998
_cell_angle_gamma 90.000000
_cell_volume 2440.199691
_symmetry_space_group_name_H-M "C 2/C"
_symmetry_group_IT_number 15
_symmetry_cell_setting 'monoclinic'
loop_
_space_group_symop_operation_xyz
x,y,z
-x,y,1/2-z
-x,-y,-z
x,-y,1/2+z
1/2+x,1/2+y,z
1/2-x,1/2+y,1/2-z
1/2-x,1/2-y,-z
1/2+x,1/2-y,1/2+z
loop_
_atom_site_type_symbol
_atom_site_label
_atom_site_fract_x
_atom_site_fract_y
_atom_site_fract_z
Si Si1 0.628601 0.873723 0.526479
Si Si2 0.500000 0.000000 0.000000
Si Si3 0.446334 0.723817 0.192492
Si Si4 0.996827 0.212699 0.903245
Si Si5 0.331744 0.567389 0.403443
Si Si6 0.199383 0.378841 0.227041
Si Si7 0.838751 0.877282 0.427646
Si Si8 0.587230 0.936914 0.070556
O O1 0.542467 0.801730 0.599045
O O2 0.712696 0.866787 0.338467
O O3 0.706455 0.871337 0.547157
O O4 0.565145 0.962340 0.571646
O O5 0.614190 0.042544 0.815622
O O6 0.431742 0.085632 0.030645
O O7 0.500000 0.745057 0.250000
O O8 0.401581 0.631499 0.262242
O O9 0.354080 0.794693 0.265115
O O10 0.514452 0.718743 0.010679
O O11 0.890662 0.153616 0.984101
O O12 0.097060 0.178536 0.727070
O O13 0.309040 0.600330 0.546339
O O14 0.368310 0.472787 0.371958
O O15 0.209246 0.570023 0.481940
O O16 0.500000 0.911419 0.250000
#
# Coordination Sequence:
#
# PCOD9273118 Si02
#       8
#     8   4   8   8   8   8   8   8
#     4   9  21  40  64  98 129 169 216 285 343 392
#     4  10  20  38  68  96 130 168 212 280 338 400
#     4  11  27  45  68  96 138 187 224 284 341 408
#     4  10  23  45  65  99 134 175 232 272 345 421
#     4  11  24  43  67  99 134 180 228 281 340 416
#     4  10  22  43  66  99 132 170 229 273 340 410
#     4  10  23  41  70  98 132 180 222 290 343 409
#     4  10  20  37  62  94 127 167 217 278 338 393
#
# _framework density 24.588151
#
# number of rings (size 3 to 8) (size 9 to 14) (size 15 to 20)
#    0.000    1.867    1.333    0.800    7.467    3.733 
#    0.000    0.000    0.000    0.000    0.000    0.000 
#    0.000    0.000    0.000    0.000    0.000    0.000 
#
# Total GULP energy -167156.604844 kJ/mol
# GULP energy per Si atom -5571.886828 kJ/mol
# Density = 2.453219 g / cm^3
# Si number density = 24.588151 Si / 1000 Ang^3
#
#
#
# Elastic Constant Matrix: (Units=GPa)
#
#
# Indices 1 2 3 4 5 6 
#
# 1 126.0887 10.8680 6.7099 0.0000 8.1193 0.0000
# 2 10.8680 160.0049 20.4029 0.0000 -3.8859 0.0000
# 3 6.7099 20.4029 65.1781 0.0000 19.3328 0.0000
# 4 0.0000 0.0000 0.0000 440.6774 0.0000 106.3789
# 5 8.1193 -3.8859 19.3328 0.0000 37.9196 0.0000
# 6 0.0000 0.0000 0.0000 106.3789 0.0000 50.7171
#
#
#
# Elastic Compliance Matrix: (Units=1/GPa)
#
#
# Indices 1 2 3 4 5 6 
#
# 1 0.008099 -0.000573 -0.000144 0.000000 -0.001719 0.000000
# 2 -0.000573 0.006683 -0.002677 0.000000 0.002173 0.000000
# 3 -0.000144 -0.002677 0.019166 0.000000 -0.010015 0.000000
# 4 0.000000 0.000000 0.000000 0.004597 0.000000 -0.009642
# 5 -0.001719 0.002173 -0.010015 0.000000 0.032068 0.000000
# 6 0.000000 0.000000 0.000000 -0.009642 0.000000 0.039940
#
#
# Mechanical properties :
#
#
# Convention : Reuss Voigt Hill
#
# Bulk Modulus (GPa) = 36.82203 47.47037 42.14620
# Shear Modulus (GPa) = 39.55823 126.74890 83.15356
#
# Velocity S-wave (km/s) = 4.01538 7.18754 5.82168
# Velocity P-wave (km/s) = 6.04199 9.39303 7.89730
#
# Compressibility (1/GPa) = 0.02715766
#
# Stress axis : x y z
#
# Youngs Moduli (GPa) = 123.47598 149.63498 52.17521
#
# Poissons Ratio (x) = 0.08581 0.00753
# Poissons Ratio (y) = 0.07081 0.13969
# Poissons Ratio (z) = 0.01781 0.40063
#
# Static dielectric constant tensor:
#      x y z
#    x -6.607960 0.000000 -3.612140 
#    y 0.000000 2.004160 0.000000 
#    z -3.612140 0.000000 0.502440 
# 
# From -- ./inp_files/168623.got.cif
#   From: 2010.05.17/outbox.cif.g08.bks.cpg/sg15_85_cif.got.tgz:168623.got - 2010.06.03 18:47:42.
