data_PCOD9273321
_publ_section_title
;
Structure prediction by ZEFSAII (Michael W. Deem and Ramdas Pophale) SiO2 
 PCOD9273321
Probable space group: C 2/C
;
_chemical_formula_sum "Si O2"
_cell_formula_units_Z 52
_cell_length_a 28.216399
_cell_length_b 9.884915
_cell_length_c 14.525987
_cell_angle_alpha 90.000000
_cell_angle_beta 37.184074
_cell_angle_gamma 90.000000
_cell_volume 2448.660641
_symmetry_space_group_name_H-M "C 2/C"
_symmetry_group_IT_number 15
_symmetry_cell_setting 'monoclinic'
loop_
_space_group_symop_operation_xyz
x,y,z
-x,y,1/2-z
-x,-y,-z
x,-y,1/2+z
1/2+x,1/2+y,z
1/2-x,1/2+y,1/2-z
1/2-x,1/2-y,-z
1/2+x,1/2-y,1/2+z
loop_
_atom_site_type_symbol
_atom_site_label
_atom_site_fract_x
_atom_site_fract_y
_atom_site_fract_z
Si Si1 0.164337 0.831167 0.544210
Si Si2 0.980167 0.148907 0.623377
Si Si3 0.000000 0.070026 0.250000
Si Si4 0.627113 0.439126 0.803429
Si Si5 0.735662 0.090277 0.136963
Si Si6 0.203656 0.438696 0.887631
Si Si7 0.857075 0.326992 0.902519
O O1 0.151929 0.869848 0.669590
O O2 0.190613 0.682389 0.479184
O O3 0.080334 0.848970 0.625199
O O4 0.227473 0.941212 0.414045
O O5 0.940925 0.272149 0.738457
O O6 0.995356 0.028149 0.670760
O O7 0.063953 0.162613 0.445883
O O8 0.916806 0.081050 0.652037
O O9 0.703595 0.470877 0.744696
O O10 0.691162 0.109896 0.302377
O O11 0.684437 0.111287 0.124474
O O12 0.807267 0.196091 0.012755
O O13 0.151409 0.563699 0.003440
#
# Coordination Sequence:
#
# PCOD9273321 Si02
#       7
#     8   8   4   8   8   8   8
#     4  11  22  41  64  94 130 172 218 276 323 401
#     4  10  21  39  67  97 125 174 218 274 327 393
#     4  10  20  40  64  88 124 166 226 258 318 416
#     4  10  20  37  64  92 128 171 221 262 325 397
#     4  11  22  40  65  95 131 173 221 267 327 398
#     4  12  24  39  67  98 134 171 220 277 340 387
#     4  11  22  42  64 101 135 165 221 284 327 390
#
# _framework density 21.236098999999999
#
# number of rings (size 3 to 8) (size 9 to 14) (size 15 to 20)
#    0.000    1.231    4.615    3.231    0.000    3.692 
#    0.000    1.538    0.000    0.000    0.000    0.000 
#    0.000    0.000    0.000    0.000    0.000    0.000 
#
# Total GULP energy -145283.543429 kJ/mol
# GULP energy per Si atom -5587.828593 kJ/mol
# Density = 2.118776 g / cm^3
# Si number density = 21.236099 Si / 1000 Ang^3
#
#
#
# Elastic Constant Matrix: (Units=GPa)
#
#
# Indices 1 2 3 4 5 6 
#
# 1 55.7834 -3.1874 9.2858 0.0000 -2.2893 0.0000
# 2 -3.1874 61.3897 25.0709 0.0001 -3.8595 -0.0001
# 3 9.2858 25.0709 102.7907 0.0000 9.0613 0.0000
# 4 0.0000 0.0001 0.0000 24.0589 0.0000 0.1755
# 5 -2.2893 -3.8595 9.0613 0.0000 32.4621 0.0000
# 6 0.0000 -0.0001 0.0000 0.1755 0.0000 9.9484
#
#
#
# Elastic Compliance Matrix: (Units=1/GPa)
#
#
# Indices 1 2 3 4 5 6 
#
# 1 0.018531 0.002071 -0.002375 0.000000 0.002216 0.000000
# 2 0.002071 0.018712 -0.005085 0.000000 0.003790 0.000000
# 3 -0.002375 -0.005085 0.011535 0.000000 -0.003992 0.000000
# 4 0.000000 0.000000 0.000000 0.041570 0.000000 -0.000733
# 5 0.002216 0.003790 -0.003992 0.000000 0.032526 0.000000
# 6 0.000000 0.000000 0.000000 -0.000733 0.000000 0.100531
#
#
# Mechanical properties :
#
#
# Convention : Reuss Voigt Hill
#
# Bulk Modulus (GPa) = 26.31494 31.36693 28.84094
# Shear Modulus (GPa) = 20.25525 25.88020 23.06773
#
# Velocity S-wave (km/s) = 3.09174 3.49476 3.29941
# Velocity P-wave (km/s) = 5.01633 5.57558 5.30333
#
# Compressibility (1/GPa) = 0.03800122
#
# Stress axis : x y z
#
# Youngs Moduli (GPa) = 53.96353 53.44196 86.69130
#
# Poissons Ratio (x) = -0.11069 0.20585
# Poissons Ratio (y) = -0.11177 0.44083
# Poissons Ratio (z) = 0.12814 0.27176
#
# Static dielectric constant tensor:
#      x y z
#    x 1.846180 0.000000 -0.017630 
#    y 0.000000 1.753560 0.000000 
#    z -0.017630 0.000000 1.847320 
# 
# From -- ./inp_files/181046.got.cif
#   From: 2010.05.17/outbox.cif.g08.bks.cpg/sg15_91_cif.got.tgz:181046.got - 2010.06.03 18:47:42.
