data_PCOD9273804
_publ_section_title
;
Structure prediction by ZEFSAII (Michael W. Deem and Ramdas Pophale) SiO2 
 PCOD9273804
Probable space group: C 2/C
;
_chemical_formula_sum "Si O2"
_cell_formula_units_Z 48
_cell_length_a 20.351832
_cell_length_b 22.444449
_cell_length_c 9.191518
_cell_angle_alpha 90.000000
_cell_angle_beta 35.582102
_cell_angle_gamma 90.000000
_cell_volume 2443.007943
_symmetry_space_group_name_H-M "C 2/C"
_symmetry_group_IT_number 15
_symmetry_cell_setting 'monoclinic'
loop_
_space_group_symop_operation_xyz
x,y,z
-x,y,1/2-z
-x,-y,-z
x,-y,1/2+z
1/2+x,1/2+y,z
1/2-x,1/2+y,1/2-z
1/2-x,1/2-y,-z
1/2+x,1/2-y,1/2+z
loop_
_atom_site_type_symbol
_atom_site_label
_atom_site_fract_x
_atom_site_fract_y
_atom_site_fract_z
Si Si1 0.245333 0.239237 0.760937
Si Si2 0.150409 0.948041 0.113940
Si Si3 0.304203 0.838184 0.871750
Si Si4 0.480069 0.772184 0.956590
Si Si5 0.936067 0.825111 0.735920
Si Si6 0.390293 0.432058 0.653158
O O1 0.263722 0.195333 0.590738
O O2 0.242217 0.303588 0.687903
O O3 0.344961 0.225432 0.696232
O O4 0.132009 0.223667 0.049215
O O5 0.028127 0.928647 0.399646
O O6 0.157438 0.015009 0.161388
O O7 0.251944 0.903813 0.972949
O O8 0.142881 0.944277 0.952948
O O9 0.439853 0.825390 0.631829
O O10 0.500000 0.763076 0.750000
O O11 0.510920 0.712547 0.988516
O O12 0.859082 0.869346 0.781660
O O13 0.000000 0.860118 0.750000
#
# Coordination Sequence:
#
# PCOD9273804 Si02
#       6
#     8   8   8   8   8   8
#     4  10  21  35  59  90 122 160 199 248 312 366
#     4  10  22  40  58  83 121 158 210 243 307 368
#     4  10  20  38  59  86 121 164 198 251 308 367
#     4  10  22  37  57  88 121 163 199 238 314 371
#     4  12  22  35  59  91 128 153 201 255 305 374
#     4  10  24  36  59  87 117 163 196 259 305 355
#
# _framework density 19.64791
#
# number of rings (size 3 to 8) (size 9 to 14) (size 15 to 20)
#    0.000    1.667    1.667    2.500   14.000    0.000 
#    0.000    0.000    0.000    1.000    0.000    0.000 
#    0.000    0.000    0.000    0.000    0.000    0.000 
#
# Total GULP energy -133716.562933 kJ/mol
# GULP energy per Si atom -5571.523456 kJ/mol
# Density = 1.960319 g / cm^3
# Si number density = 19.647910 Si / 1000 Ang^3
#
#
#
# Elastic Constant Matrix: (Units=GPa)
#
#
# Indices 1 2 3 4 5 6 
#
# 1 120.6741 41.3806 31.5672 0.0000 1.7974 0.0000
# 2 41.3806 101.2216 32.1314 0.0000 9.5605 0.0000
# 3 31.5672 32.1314 36.3079 0.0000 2.3202 0.0000
# 4 0.0000 0.0000 0.0000 33.8852 0.0000 -0.9850
# 5 1.7974 9.5605 2.3202 0.0000 35.2448 0.0000
# 6 0.0000 0.0000 0.0000 -0.9850 0.0000 25.0111
#
#
#
# Elastic Compliance Matrix: (Units=1/GPa)
#
#
# Indices 1 2 3 4 5 6 
#
# 1 0.011029 -0.002090 -0.007772 0.000000 0.000516 0.000000
# 2 -0.002090 0.014445 -0.010768 0.000000 -0.003103 0.000000
# 3 -0.007772 -0.010768 0.043801 0.000000 0.000434 0.000000
# 4 0.000000 0.000000 0.000000 0.029545 0.000000 0.001164
# 5 0.000516 -0.003103 0.000434 0.000000 0.029160 0.000000
# 6 0.000000 0.000000 0.000000 0.001164 0.000000 0.040028
#
#
# Mechanical properties :
#
#
# Convention : Reuss Voigt Hill
#
# Bulk Modulus (GPa) = 35.69560 52.04023 43.86791
# Shear Modulus (GPa) = 22.87220 29.03652 25.95436
#
# Velocity S-wave (km/s) = 3.41560 3.84844 3.63846
# Velocity P-wave (km/s) = 5.81052 6.80377 6.32667
#
# Compressibility (1/GPa) = 0.02801466
#
# Stress axis : x y z
#
# Youngs Moduli (GPa) = 90.66998 69.22814 22.83071
#
# Poissons Ratio (x) = 0.14472 0.17744
# Poissons Ratio (y) = 0.18954 0.24583
# Poissons Ratio (z) = 0.70468 0.74542
#
# Static dielectric constant tensor:
#      x y z
#    x 1.798200 0.000000 -0.051720 
#    y 0.000000 1.690860 0.000000 
#    z -0.051720 0.000000 1.737910 
# 
# From -- ./inp_files/57721.got.cif
#   From: 2010.05.17/outbox.cif.g08.bks.cpg/sg15_29_cif.got.tgz:57721.got - 2010.06.03 18:47:42.
