data_PCOD9273951
_publ_section_title
;
Structure prediction by ZEFSAII (Michael W. Deem and Ramdas Pophale) SiO2 
 PCOD9273951
Probable space group: C 2/C
;
_chemical_formula_sum "Si O2"
_cell_formula_units_Z 56
_cell_length_a 9.510354
_cell_length_b 10.615013
_cell_length_c 30.255951
_cell_angle_alpha 90.000000
_cell_angle_beta 106.951047
_cell_angle_gamma 90.000000
_cell_volume 2921.713366
_symmetry_space_group_name_H-M "C 2/C"
_symmetry_group_IT_number 15
_symmetry_cell_setting 'monoclinic'
loop_
_space_group_symop_operation_xyz
x,y,z
-x,y,1/2-z
-x,-y,-z
x,-y,1/2+z
1/2+x,1/2+y,z
1/2-x,1/2+y,1/2-z
1/2-x,1/2-y,-z
1/2+x,1/2-y,1/2+z
loop_
_atom_site_type_symbol
_atom_site_label
_atom_site_fract_x
_atom_site_fract_y
_atom_site_fract_z
Si Si1 0.000000 0.633645 0.250000
Si Si2 0.773906 0.621147 0.474889
Si Si3 0.954679 0.274081 0.912107
Si Si4 0.764039 0.625583 0.031960
Si Si5 0.311448 0.460890 0.813707
Si Si6 0.040407 0.032577 0.081866
Si Si7 0.694538 0.245166 0.189507
Si Si8 0.500000 0.352626 0.750000
O O1 0.859470 0.567853 0.213210
O O2 0.913887 0.705479 0.280991
O O3 0.750000 0.750000 0.500000
O O4 0.895536 0.659134 0.450554
O O5 0.808436 0.499607 0.508527
O O6 0.625804 0.581202 0.435517
O O7 0.855489 0.312930 0.861446
O O8 0.116310 0.330831 0.921162
O O9 0.956991 0.121478 0.918349
O O10 0.618922 0.585633 0.045177
O O11 0.750000 0.750000 0.000000
O O12 0.375312 0.415823 0.866775
O O13 0.323963 0.608632 0.818103
O O14 0.417213 0.422448 0.782693
O O15 0.863729 0.220563 0.216206
#
# Coordination Sequence:
#
# PCOD9273951 Si02
#       8
#     4   8   8   8   8   8   8   4
#     4  10  20  38  60  90 114 156 200 234 298 358
#     4  12  23  41  65  87 123 162 203 250 303 356
#     4  11  23  40  60  91 122 159 203 253 300 357
#     4  12  23  41  65  87 123 162 203 250 303 356
#     4  10  21  37  62  85 123 154 192 246 299 353
#     4  11  23  41  59  91 124 160 199 254 304 353
#     4  10  21  37  61  86 121 153 196 245 295 356
#     4  10  20  38  60  90 114 156 200 234 298 358
#
# _framework density 19.166834999999999
#
# number of rings (size 3 to 8) (size 9 to 14) (size 15 to 20)
#    0.000    1.143    2.857    4.286    0.000    0.000 
#    0.000    0.000   12.571    0.000    0.000    0.000 
#    0.000    0.000    0.000    0.000    0.000    0.000 
#
# Total GULP energy -156063.049346 kJ/mol
# GULP energy per Si atom -5573.680334 kJ/mol
# Density = 1.912321 g / cm^3
# Si number density = 19.166835 Si / 1000 Ang^3
#
#
#
# Elastic Constant Matrix: (Units=GPa)
#
#
# Indices 1 2 3 4 5 6 
#
# 1 95.6517 17.7234 15.1574 0.0000 12.5535 0.0000
# 2 17.7234 83.0756 30.8939 0.0000 0.7940 0.0000
# 3 15.1574 30.8939 97.1039 0.0000 19.2168 0.0000
# 4 0.0000 0.0000 0.0000 31.9908 0.0000 3.9870
# 5 12.5535 0.7940 19.2168 0.0000 43.2939 0.0000
# 6 0.0000 0.0000 0.0000 3.9870 0.0000 18.6226
#
#
#
# Elastic Compliance Matrix: (Units=1/GPa)
#
#
# Indices 1 2 3 4 5 6 
#
# 1 0.011338 -0.002218 -0.000462 0.000000 -0.003042 0.000000
# 2 -0.002218 0.014221 -0.004664 0.000000 0.002452 0.000000
# 3 -0.000462 -0.004664 0.012948 0.000000 -0.005528 0.000000
# 4 0.000000 0.000000 0.000000 0.032116 0.000000 -0.006876
# 5 -0.003042 0.002452 -0.005528 0.000000 0.026388 0.000000
# 6 0.000000 0.000000 0.000000 -0.006876 0.000000 0.055170
#
#
# Mechanical properties :
#
#
# Convention : Reuss Voigt Hill
#
# Bulk Modulus (GPa) = 41.98184 44.82006 43.40095
# Shear Modulus (GPa) = 28.60256 32.91858 30.76057
#
# Velocity S-wave (km/s) = 3.86721 4.14874 4.01045
# Velocity P-wave (km/s) = 6.47236 6.81060 6.64363
#
# Compressibility (1/GPa) = 0.02381982
#
# Stress axis : x y z
#
# Youngs Moduli (GPa) = 88.19899 70.31729 77.23158
#
# Poissons Ratio (x) = 0.15596 0.03570
# Poissons Ratio (y) = 0.19562 0.36018
# Poissons Ratio (z) = 0.04077 0.32794
#
# Static dielectric constant tensor:
#      x y z
#    x 1.628030 0.000000 0.027140 
#    y 0.000000 1.638130 0.000000 
#    z 0.027140 0.000000 1.709670 
# 
# From -- ./inp_files/307098.got.cif
#   From: 2010.05.17/outbox.cif.g08.bks.cpg/sg15_154_cif.got.tgz:307098.got - 2010.06.03 18:47:42.
