data_PCOD9273416
_publ_section_title
;
Structure prediction by ZEFSAII (Michael W. Deem and Ramdas Pophale) SiO2 
 PCOD9273416
Probable space group: C 2/C
;
_chemical_formula_sum "Si O2"
_cell_formula_units_Z 48
_cell_length_a 5.749370
_cell_length_b 25.116403
_cell_length_c 15.591120
_cell_angle_alpha 90.000000
_cell_angle_beta 64.540267
_cell_angle_gamma 90.000000
_cell_volume 2032.772207
_symmetry_space_group_name_H-M "C 2/C"
_symmetry_group_IT_number 15
_symmetry_cell_setting 'monoclinic'
loop_
_space_group_symop_operation_xyz
x,y,z
-x,y,1/2-z
-x,-y,-z
x,-y,1/2+z
1/2+x,1/2+y,z
1/2-x,1/2+y,1/2-z
1/2-x,1/2-y,-z
1/2+x,1/2-y,1/2+z
loop_
_atom_site_type_symbol
_atom_site_label
_atom_site_fract_x
_atom_site_fract_y
_atom_site_fract_z
Si Si1 0.665884 0.450687 0.045454
Si Si2 0.500000 0.904825 0.750000
Si Si3 0.263407 0.133048 0.838940
Si Si4 0.452114 0.131451 0.069000
Si Si5 0.500000 0.714604 0.750000
Si Si6 0.504746 0.443794 0.622811
Si Si7 0.000453 0.715591 0.565400
O O1 0.430996 0.413391 0.109532
O O2 0.679100 0.503520 0.100475
O O3 0.621508 0.456051 0.950263
O O4 0.916248 0.414533 0.008815
O O5 0.478219 0.871917 0.841455
O O6 0.756929 0.939472 0.722164
O O7 0.500000 0.108920 0.750000
O O8 0.382333 0.166968 0.897353
O O9 0.123724 0.176989 0.802436
O O10 0.154739 0.112471 0.106306
O O11 0.564725 0.186134 0.013591
O O12 0.755843 0.738618 0.659067
O O13 0.250000 0.750000 0.500000
#
# Coordination Sequence:
#
# PCOD9273416 Si02
#       7
#     8   4   8   8   4   8   8
#     4  10  20  37  65  92 127 179 212 264 330 380
#     4  10  24  40  61  94 142 180 222 269 324 404
#     4  10  21  40  65  96 129 163 216 268 326 391
#     4  11  21  43  64  94 136 174 220 277 328 395
#     4  10  22  46  65 100 132 158 216 277 330 408
#     4  10  21  38  59  94 132 172 226 261 315 393
#     4  11  24  44  74  96 127 173 219 281 343 397
#
# _framework density 23.613073
#
# number of rings (size 3 to 8) (size 9 to 14) (size 15 to 20)
#    0.000    1.667    3.333    1.000    1.167    0.667 
#    3.000    6.667    0.000    0.000    0.000    0.000 
#    0.000    0.000    0.000    0.000    0.000    0.000 
#
# Total GULP energy -133754.779564 kJ/mol
# GULP energy per Si atom -5573.115815 kJ/mol
# Density = 2.355933 g / cm^3
# Si number density = 23.613073 Si / 1000 Ang^3
#
#
#
# Elastic Constant Matrix: (Units=GPa)
#
#
# Indices 1 2 3 4 5 6 
#
# 1 53.1441 1.8967 25.9172 0.0000 -17.7405 0.0000
# 2 1.8967 46.4693 49.3013 0.0000 -14.8325 0.0000
# 3 25.9172 49.3013 144.9517 0.0000 -28.2659 0.0000
# 4 0.0000 0.0000 0.0000 2.2934 0.0000 -4.3049
# 5 -17.7405 -14.8325 -28.2659 0.0000 61.9197 0.0000
# 6 0.0000 0.0000 0.0000 -4.3049 0.0000 30.7825
#
#
#
# Elastic Compliance Matrix: (Units=1/GPa)
#
#
# Indices 1 2 3 4 5 6 
#
# 1 0.023033 0.006379 -0.005163 0.000000 0.005770 0.000000
# 2 0.006379 0.035992 -0.012453 0.000000 0.004765 0.000000
# 3 -0.005163 -0.012453 0.012281 0.000000 0.001144 0.000000
# 4 0.000000 0.000000 0.000000 0.591248 0.000000 0.082685
# 5 0.005770 0.004765 0.001144 0.000000 0.019467 0.000000
# 6 0.000000 0.000000 0.000000 0.082685 0.000000 0.044049
#
#
# Mechanical properties :
#
#
# Convention : Reuss Voigt Hill
#
# Bulk Modulus (GPa) = 20.47827 44.31061 32.39444
# Shear Modulus (GPa) = 6.53748 30.16244 18.34996
#
# Velocity S-wave (km/s) = 1.66571 3.57790 2.79069
# Velocity P-wave (km/s) = 3.52004 5.98953 4.91249
#
# Compressibility (1/GPa) = 0.04883225
#
# Stress axis : x y z
#
# Youngs Moduli (GPa) = 43.41573 27.78381 81.42935
#
# Poissons Ratio (x) = -0.17724 0.42040
# Poissons Ratio (y) = -0.27695 1.01406
# Poissons Ratio (z) = 0.22414 0.34600
#
# Static dielectric constant tensor:
#      x y z
#    x 1.908060 0.000000 -0.012770 
#    y 0.000000 2.002960 0.000000 
#    z -0.012770 0.000000 2.010220 
# 
# From -- ./inp_files/130626.got.cif
#   From: 2010.05.17/outbox.cif.g08.bks.cpg/sg15_66_cif.got.tgz:130626.got - 2010.06.03 18:47:42.
