data_PCOD9273346
_publ_section_title
;
Structure prediction by ZEFSAII (Michael W. Deem and Ramdas Pophale) SiO2 
 PCOD9273346
Probable space group: C 2/C
;
_chemical_formula_sum "Si O2"
_cell_formula_units_Z 32
_cell_length_a 14.056567
_cell_length_b 4.893654
_cell_length_c 23.970757
_cell_angle_alpha 90.000000
_cell_angle_beta 132.880828
_cell_angle_gamma 90.000000
_cell_volume 1208.265387
_symmetry_space_group_name_H-M "C 2/C"
_symmetry_group_IT_number 15
_symmetry_cell_setting 'monoclinic'
loop_
_space_group_symop_operation_xyz
x,y,z
-x,y,1/2-z
-x,-y,-z
x,-y,1/2+z
1/2+x,1/2+y,z
1/2-x,1/2+y,1/2-z
1/2-x,1/2-y,-z
1/2+x,1/2-y,1/2+z
loop_
_atom_site_type_symbol
_atom_site_label
_atom_site_fract_x
_atom_site_fract_y
_atom_site_fract_z
Si Si1 0.748106 0.172269 0.397745
Si Si2 0.985093 0.545930 0.840521
Si Si3 0.105936 0.348850 0.504948
Si Si4 0.618012 0.446359 0.251398
O O1 0.775425 0.431043 0.449196
O O2 0.737287 0.319064 0.333251
O O3 0.613342 0.015629 0.354960
O O4 0.851337 0.936081 0.451213
O O5 0.918133 0.250792 0.814339
O O6 0.042688 0.671640 0.919331
O O7 0.884166 0.747740 0.770979
O O8 0.000000 0.500000 0.500000
O O9 0.500000 0.443896 0.250000
#
# Coordination Sequence:
#
# PCOD9273346 Si02
#       4
#     8   8   8   8
#     4  11  22  41  66  92 123 165 209 257 311 369
#     4  11  21  39  66  94 121 158 207 259 309 367
#     4  12  25  41  61  93 131 169 207 253 307 371
#     4  10  20  37  64  95 120 152 206 265 309 359
#
# _framework density 26.484248000000001
#
# number of rings (size 3 to 8) (size 9 to 14) (size 15 to 20)
#    0.000    1.000    0.000   10.500    0.000    0.000 
#    0.000    5.000    0.000    6.000    0.000    0.000 
#    0.000    0.000    0.000    0.000    0.000    0.000 
#
# Total GULP energy -89619.777768 kJ/mol
# GULP energy per Si atom -5601.236110 kJ/mol
# Density = 2.642397 g / cm^3
# Si number density = 26.484248 Si / 1000 Ang^3
#
#
#
# Elastic Constant Matrix: (Units=GPa)
#
#
# Indices 1 2 3 4 5 6 
#
# 1 58.6037 17.1636 16.4136 -0.0001 10.4284 0.0001
# 2 17.1636 171.5720 56.8231 -0.0003 6.8063 0.0005
# 3 16.4136 56.8231 140.7170 0.0000 -4.7780 0.0001
# 4 -0.0001 -0.0003 0.0000 78.4688 0.0000 10.6309
# 5 10.4284 6.8063 -4.7780 0.0000 30.8678 -0.0001
# 6 0.0001 0.0005 0.0001 10.6309 -0.0001 7.8806
#
#
#
# Elastic Compliance Matrix: (Units=1/GPa)
#
#
# Indices 1 2 3 4 5 6 
#
# 1 0.019090 -0.000968 -0.002058 0.000000 -0.006555 0.000000
# 2 -0.000968 0.006892 -0.002725 0.000000 -0.001614 -0.000001
# 3 -0.002058 -0.002725 0.008536 0.000000 0.002618 0.000000
# 4 0.000000 0.000000 0.000000 0.015594 0.000000 -0.021036
# 5 -0.006555 -0.001614 0.002618 0.000000 0.035372 0.000001
# 6 0.000000 -0.000001 0.000000 -0.021036 0.000001 0.155271
#
#
# Mechanical properties :
#
#
# Convention : Reuss Voigt Hill
#
# Bulk Modulus (GPa) = 43.44958 61.29926 52.37442
# Shear Modulus (GPa) = 19.23603 42.14293 30.68948
#
# Velocity S-wave (km/s) = 2.69796 3.99337 3.40778
# Velocity P-wave (km/s) = 5.11339 6.66772 5.94160
#
# Compressibility (1/GPa) = 0.02301518
#
# Stress axis : x y z
#
# Youngs Moduli (GPa) = 52.38299 145.10013 117.15391
#
# Poissons Ratio (x) = 0.14045 0.24115
# Poissons Ratio (y) = 0.05071 0.31923
# Poissons Ratio (z) = 0.10783 0.39538
#
# Static dielectric constant tensor:
#      x y z
#    x 2.195240 0.000000 0.055090 
#    y 0.000000 1.979180 0.000000 
#    z 0.055090 0.000000 2.090400 
# 
# From -- ./inp_files/271793.got.cif
#   From: 2010.05.17/outbox.cif.g08.bks.cpg/sg15_136_cif.got.tgz:271793.got - 2010.06.03 18:47:42.
