data_PCOD9273640
_publ_section_title
;
Structure prediction by ZEFSAII (Michael W. Deem and Ramdas Pophale) SiO2 
 PCOD9273640
Probable space group: C 2/C
;
_chemical_formula_sum "Si O2"
_cell_formula_units_Z 52
_cell_length_a 8.104996
_cell_length_b 20.981441
_cell_length_c 19.788025
_cell_angle_alpha 90.000000
_cell_angle_beta 137.304122
_cell_angle_gamma 90.000000
_cell_volume 2281.858262
_symmetry_space_group_name_H-M "C 2/C"
_symmetry_group_IT_number 15
_symmetry_cell_setting 'monoclinic'
loop_
_space_group_symop_operation_xyz
x,y,z
-x,y,1/2-z
-x,-y,-z
x,-y,1/2+z
1/2+x,1/2+y,z
1/2-x,1/2+y,1/2-z
1/2-x,1/2-y,-z
1/2+x,1/2-y,1/2+z
loop_
_atom_site_type_symbol
_atom_site_label
_atom_site_fract_x
_atom_site_fract_y
_atom_site_fract_z
Si Si1 0.421873 0.987968 0.399191
Si Si2 0.500000 0.412130 0.750000
Si Si3 0.713033 0.852751 0.892678
Si Si4 0.500000 0.613165 0.750000
Si Si5 0.656538 0.689096 0.200815
Si Si6 0.035754 0.875346 0.109423
Si Si7 0.733555 0.999646 0.366835
Si Si8 0.000000 0.299991 0.250000
O O1 0.243085 0.928620 0.334423
O O2 0.648903 0.981041 0.416910
O O3 0.500000 0.000000 0.500000
O O4 0.243478 0.045495 0.321680
O O5 0.510741 0.366178 0.817919
O O6 0.853229 0.807361 0.882620
O O7 0.431103 0.833907 0.802086
O O8 0.770695 0.924302 0.882148
O O9 0.810888 0.851693 0.997772
O O10 0.477234 0.644399 0.816337
O O11 0.592738 0.753499 0.219233
O O12 0.070605 0.951535 0.107064
O O13 0.283364 0.843794 0.157736
O O14 0.500000 0.990240 0.250000
#
# Coordination Sequence:
#
# PCOD9273640 Si02
#       8
#     8   4   8   4   8   8   8   4
#     4  11  22  34  60  95 138 177 216 264 334 411
#     4  10  20  38  56  92 132 172 214 278 316 389
#     4  11  23  42  74 104 131 179 222 285 342 411
#     4  11  24  39  58 100 133 174 219 270 344 408
#     4  10  23  43  67  95 128 171 233 282 328 387
#     4  12  26  44  70  99 140 182 221 282 353 409
#     4  12  20  42  65 102 143 175 208 272 351 412
#     4  11  26  49  66  92 137 182 229 288 330 401
#
# _framework density 22.788443000000001
#
# number of rings (size 3 to 8) (size 9 to 14) (size 15 to 20)
#    0.000    0.923    5.385    1.385    4.308    2.462 
#    0.000    0.000    0.000    0.000    0.000    0.000 
#    0.000    0.000    0.000    0.000    0.000    0.000 
#
# Total GULP energy -145332.191791 kJ/mol
# GULP energy per Si atom -5589.699684 kJ/mol
# Density = 2.273658 g / cm^3
# Si number density = 22.788443 Si / 1000 Ang^3
#
#
#
# Elastic Constant Matrix: (Units=GPa)
#
#
# Indices 1 2 3 4 5 6 
#
# 1 69.5355 19.9147 14.1755 0.0000 -27.7544 0.0000
# 2 19.9147 66.9567 5.6074 0.0000 -1.0572 0.0000
# 3 14.1755 5.6074 142.0153 -0.0001 -25.9551 0.0001
# 4 0.0000 0.0000 -0.0001 -4.8984 -0.0001 8.3467
# 5 -27.7544 -1.0572 -25.9551 -0.0001 41.3450 0.0000
# 6 0.0000 0.0000 0.0001 8.3467 0.0000 21.1464
#
#
#
# Elastic Compliance Matrix: (Units=1/GPa)
#
#
# Indices 1 2 3 4 5 6 
#
# 1 0.022114 -0.006406 0.000823 0.000000 0.015198 0.000000
# 2 -0.006406 0.016840 -0.000828 0.000000 -0.004389 0.000000
# 3 0.000823 -0.000828 0.008008 0.000000 0.005559 0.000000
# 4 0.000000 0.000000 0.000000 -0.122057 -0.000001 0.048177
# 5 0.015198 -0.004389 0.005559 -0.000001 0.037766 0.000000
# 6 0.000000 0.000000 0.000000 0.048177 0.000000 0.028273
#
#
# Mechanical properties :
#
#
# Convention : Reuss Voigt Hill
#
# Bulk Modulus (GPa) = 29.29036 39.76695 34.52865
# Shear Modulus (GPa) = 330.08950 27.43926 178.76438
#
# Velocity S-wave (km/s) = 12.04840 3.47376 8.86654
# Velocity P-wave (km/s) = 14.36778 5.79463 10.95470
#
# Compressibility (1/GPa) = 0.03414092
#
# Stress axis : x y z
#
# Youngs Moduli (GPa) = 45.21982 59.38082 124.87657
#
# Poissons Ratio (x) = 0.38041 -0.10280
# Poissons Ratio (y) = 0.28969 0.10336
# Poissons Ratio (z) = -0.03723 0.04915
#
# Static dielectric constant tensor:
#      x y z
#    x 1.918390 0.000000 -0.021340 
#    y 0.000000 1.844360 0.000000 
#    z -0.021340 0.000000 1.828590 
# 
# From -- ./inp_files/136162.got.cif
#   From: 2010.05.17/outbox.cif.g08.bks.cpg/sg15_69_cif.got.tgz:136162.got - 2010.06.03 18:47:42.
