data_PCOD9273858
_publ_section_title
;
Structure prediction by ZEFSAII (Michael W. Deem and Ramdas Pophale) SiO2 
 PCOD9273858
Probable space group: C 2/C
;
_chemical_formula_sum "Si O2"
_cell_formula_units_Z 48
_cell_length_a 17.225672
_cell_length_b 8.909784
_cell_length_c 28.042255
_cell_angle_alpha 90.000000
_cell_angle_beta 148.157876
_cell_angle_gamma 90.000000
_cell_volume 2270.622909
_symmetry_space_group_name_H-M "C 2/C"
_symmetry_group_IT_number 15
_symmetry_cell_setting 'monoclinic'
loop_
_space_group_symop_operation_xyz
x,y,z
-x,y,1/2-z
-x,-y,-z
x,-y,1/2+z
1/2+x,1/2+y,z
1/2-x,1/2+y,1/2-z
1/2-x,1/2-y,-z
1/2+x,1/2-y,1/2+z
loop_
_atom_site_type_symbol
_atom_site_label
_atom_site_fract_x
_atom_site_fract_y
_atom_site_fract_z
Si Si1 0.369397 0.352676 0.304156
Si Si2 0.380988 0.135544 0.053467
Si Si3 0.922180 0.906056 0.757784
Si Si4 0.840230 0.693341 0.189193
Si Si5 0.838855 0.465488 0.433180
Si Si6 0.591083 0.071497 0.724396
O O1 0.486154 0.249045 0.392871
O O2 0.444545 0.493769 0.316453
O O3 0.326021 0.250813 0.236173
O O4 0.224733 0.403604 0.256671
O O5 0.458305 0.032073 0.134625
O O6 0.250000 0.250000 0.000000
O O7 0.331436 0.019960 0.986418
O O8 0.960590 0.735992 0.788466
O O9 0.000000 0.958276 0.750000
O O10 0.756989 0.934231 0.653032
O O11 0.717450 0.792848 0.100272
O O12 0.837401 0.515169 0.193171
O O13 0.000000 0.727846 0.250000
O O14 0.000000 0.500000 0.500000
#
# Coordination Sequence:
#
# PCOD9273858 Si02
#       6
#     8   8   8   8   8   8
#     4  10  20  38  61  85 116 162 203 233 289 369
#     4  11  22  39  62  89 119 158 203 249 293 351
#     4  11  22  39  60  86 118 155 193 239 297 356
#     4  10  20  38  60  82 113 160 200 231 290 375
#     4  11  21  37  59  86 115 151 196 250 295 340
#     4  11  22  39  61  88 119 158 198 242 298 365
#
# _framework density 21.139572999999999
#
# number of rings (size 3 to 8) (size 9 to 14) (size 15 to 20)
#    0.000    1.333    0.000   10.500    0.000    0.000 
#    0.000   10.000    0.000    0.000    0.000    0.000 
#    0.000    0.000    0.000    0.000    0.000    0.000 
#
# Total GULP energy -133665.799532 kJ/mol
# GULP energy per Si atom -5569.408314 kJ/mol
# Density = 2.109146 g / cm^3
# Si number density = 21.139573 Si / 1000 Ang^3
#
#
#
# Elastic Constant Matrix: (Units=GPa)
#
#
# Indices 1 2 3 4 5 6 
#
# 1 84.4090 -0.8451 -0.5349 0.0000 11.9397 0.0000
# 2 -0.8451 100.3910 3.4053 0.0000 -8.5927 0.0000
# 3 -0.5349 3.4053 65.3789 0.0001 -0.3305 0.0000
# 4 0.0000 0.0000 0.0001 21.9025 0.0000 3.8778
# 5 11.9397 -8.5927 -0.3305 0.0000 33.6072 0.0000
# 6 0.0000 0.0000 0.0000 3.8778 0.0000 43.5837
#
#
#
# Elastic Compliance Matrix: (Units=1/GPa)
#
#
# Indices 1 2 3 4 5 6 
#
# 1 0.012482 -0.000284 0.000094 0.000000 -0.004506 0.000000
# 2 -0.000284 0.010208 -0.000520 0.000000 0.002706 0.000000
# 3 0.000094 -0.000520 0.015323 0.000000 -0.000016 0.000000
# 4 0.000000 0.000000 0.000000 0.046388 0.000000 -0.004127
# 5 -0.004506 0.002706 -0.000016 0.000000 0.032048 0.000000
# 6 0.000000 0.000000 0.000000 -0.004127 0.000000 0.023312
#
#
# Mechanical properties :
#
#
# Convention : Reuss Voigt Hill
#
# Bulk Modulus (GPa) = 27.32735 28.24771 27.78753
# Shear Modulus (GPa) = 32.59911 36.36226 34.48068
#
# Velocity S-wave (km/s) = 3.93120 4.15191 4.04306
# Velocity P-wave (km/s) = 5.79319 6.03125 5.91342
#
# Compressibility (1/GPa) = 0.03659338
#
# Stress axis : x y z
#
# Youngs Moduli (GPa) = 80.11385 97.96335 65.26029
#
# Poissons Ratio (x) = 0.02780 -0.00614
# Poissons Ratio (y) = 0.02274 0.03396
# Poissons Ratio (z) = -0.00754 0.05097
#
# Static dielectric constant tensor:
#      x y z
#    x 1.507120 0.000000 -0.217090 
#    y 0.000000 1.816430 0.000000 
#    z -0.217090 0.000000 1.585040 
# 
# From -- ./inp_files/224695.got.cif
#   From: 2010.05.17/outbox.cif.g08.bks.cpg/sg15_113_cif.got.tgz:224695.got - 2010.06.03 18:47:42.
