data_PCOD9273124
_publ_section_title
;
Structure prediction by ZEFSAII (Michael W. Deem and Ramdas Pophale) SiO2 
 PCOD9273124
Probable space group: C 2/C
;
_chemical_formula_sum "Si O2"
_cell_formula_units_Z 44
_cell_length_a 19.677620
_cell_length_b 15.484095
_cell_length_c 11.889796
_cell_angle_alpha 90.000000
_cell_angle_beta 43.945448
_cell_angle_gamma 90.000000
_cell_volume 2514.059063
_symmetry_space_group_name_H-M "C 2/C"
_symmetry_group_IT_number 15
_symmetry_cell_setting 'monoclinic'
loop_
_space_group_symop_operation_xyz
x,y,z
-x,y,1/2-z
-x,-y,-z
x,-y,1/2+z
1/2+x,1/2+y,z
1/2-x,1/2+y,1/2-z
1/2-x,1/2-y,-z
1/2+x,1/2-y,1/2+z
loop_
_atom_site_type_symbol
_atom_site_label
_atom_site_fract_x
_atom_site_fract_y
_atom_site_fract_z
Si Si1 0.680468 0.382208 0.812657
Si Si2 0.286754 0.848598 0.464883
Si Si3 0.527788 0.319309 0.501567
Si Si4 0.212498 0.923085 0.326662
Si Si5 0.000000 0.299571 0.250000
Si Si6 0.281337 0.730192 0.835472
O O1 0.716602 0.388712 0.641397
O O2 0.709292 0.474495 0.827694
O O3 0.734301 0.302809 0.810609
O O4 0.565322 0.361025 0.947099
O O5 0.250000 0.750000 0.500000
O O6 0.273101 0.890989 0.360744
O O7 0.398471 0.850938 0.372794
O O8 0.600082 0.390244 0.470105
O O9 0.495649 0.257789 0.641942
O O10 0.601344 0.270528 0.327700
O O11 0.247979 0.865747 0.176488
O O12 0.250000 0.750000 0.000000
#
# Coordination Sequence:
#
# PCOD9273124 Si02
#       6
#     8   8   8   8   4   8
#     4  12  22  39  66  90 125 162 202 263 311 359
#     4  12  20  40  64  91 122 161 208 261 298 369
#     4  10  20  37  62  95 121 153 208 254 312 359
#     4  10  23  38  61  97 121 161 205 255 313 361
#     4  12  18  38  70  92 116 162 214 258 308 348
#     4  10  23  41  54  89 129 164 196 244 318 370
#
# _framework density 17.501579
#
# number of rings (size 3 to 8) (size 9 to 14) (size 15 to 20)
#    1.091    0.000    7.273    0.545    2.545    0.727 
#    0.000    2.727    0.000    0.000    0.000    0.000 
#    0.000    0.000    0.000    0.000    0.000    0.000 
#
# Total GULP energy -122514.600545 kJ/mol
# GULP energy per Si atom -5568.845479 kJ/mol
# Density = 1.746174 g / cm^3
# Si number density = 17.501579 Si / 1000 Ang^3
#
#
#
# Elastic Constant Matrix: (Units=GPa)
#
#
# Indices 1 2 3 4 5 6 
#
# 1 78.1126 33.3090 14.6764 0.0000 -6.0911 0.0000
# 2 33.3090 75.6274 5.4180 0.0000 -7.4695 0.0000
# 3 14.6764 5.4180 72.2461 0.0000 6.6115 0.0000
# 4 0.0000 0.0000 0.0000 0.2878 0.0000 6.8754
# 5 -6.0911 -7.4695 6.6115 0.0000 35.2907 0.0000
# 6 0.0000 0.0000 0.0000 6.8754 0.0000 27.3986
#
#
#
# Elastic Compliance Matrix: (Units=1/GPa)
#
#
# Indices 1 2 3 4 5 6 
#
# 1 0.016431 -0.006828 -0.003004 0.000000 0.001953 0.000000
# 2 -0.006828 0.016463 -0.000060 0.000000 0.002317 0.000000
# 3 -0.003004 -0.000060 0.014758 0.000000 -0.003296 0.000000
# 4 0.000000 0.000000 0.000000 -0.695657 0.000000 0.174568
# 5 0.001953 0.002317 -0.003296 0.000000 0.029781 0.000000
# 6 0.000000 0.000000 0.000000 0.174568 0.000000 -0.007308
#
#
# Mechanical properties :
#
#
# Convention : Reuss Voigt Hill
#
# Bulk Modulus (GPa) = 35.88464 36.97698 36.43081
# Shear Modulus (GPa) = -8.38283 24.10093 7.85905
#
# Velocity S-wave (km/s) = -2.19093 3.71492 2.12137
# Velocity P-wave (km/s) = 3.76138 6.29083 5.18278
#
# Compressibility (1/GPa) = 0.02786708
#
# Stress axis : x y z
#
# Youngs Moduli (GPa) = 60.86172 60.74095 67.75984
#
# Poissons Ratio (x) = 0.41477 0.20358
# Poissons Ratio (y) = 0.41559 0.00403
# Poissons Ratio (z) = 0.18286 0.00362
#
# Static dielectric constant tensor:
#      x y z
#    x 1.569320 0.000000 -0.024000 
#    y 0.000000 1.620090 0.000000 
#    z -0.024000 0.000000 1.568160 
# 
# From -- ./inp_files/105179.got.cif
#   From: 2010.05.17/outbox.cif.g08.bks.cpg/sg15_53_cif.got.tgz:105179.got - 2010.06.03 18:47:42.
