data_PCOD9273217
_publ_section_title
;
Structure prediction by ZEFSAII (Michael W. Deem and Ramdas Pophale) SiO2 
 PCOD9273217
Probable space group: C 2/C
;
_chemical_formula_sum "Si O2"
_cell_formula_units_Z 48
_cell_length_a 6.841023
_cell_length_b 17.251244
_cell_length_c 18.048572
_cell_angle_alpha 90.000000
_cell_angle_beta 112.769193
_cell_angle_gamma 90.000000
_cell_volume 1964.033343
_symmetry_space_group_name_H-M "C 2/C"
_symmetry_group_IT_number 15
_symmetry_cell_setting 'monoclinic'
loop_
_space_group_symop_operation_xyz
x,y,z
-x,y,1/2-z
-x,-y,-z
x,-y,1/2+z
1/2+x,1/2+y,z
1/2-x,1/2+y,1/2-z
1/2-x,1/2-y,-z
1/2+x,1/2-y,1/2+z
loop_
_atom_site_type_symbol
_atom_site_label
_atom_site_fract_x
_atom_site_fract_y
_atom_site_fract_z
Si Si1 0.290667 0.688304 0.622292
Si Si2 0.921215 0.432091 0.320476
Si Si3 0.985743 0.413292 0.532419
Si Si4 0.098327 0.899396 0.077025
Si Si5 0.316134 0.633256 0.393595
Si Si6 0.602485 0.458201 0.861823
O O1 0.213209 0.646402 0.685411
O O2 0.522491 0.664490 0.626096
O O3 0.137452 0.647240 0.537393
O O4 0.255066 0.778756 0.622394
O O5 0.741623 0.493005 0.323449
O O6 0.000000 0.449075 0.250000
O O7 0.151873 0.414864 0.392374
O O8 0.505045 0.374209 0.515483
O O9 0.226229 0.395781 0.585231
O O10 0.000000 0.500000 0.500000
O O11 0.869613 0.414872 0.594349
O O12 0.977252 0.976407 0.090590
O O13 0.393268 0.594643 0.328372
#
# Coordination Sequence:
#
# PCOD9273217 Si02
#       6
#     8   8   8   8   8   8
#     4  10  23  38  60  98 129 158 198 254 326 371
#     4  11  24  42  63  85 116 172 225 255 294 366
#     4  11  18  35  60  93 125 155 193 240 311 376
#     4  10  20  37  63  92 124 157 199 258 307 374
#     4  11  22  35  62 101 134 151 190 260 329 382
#     4  11  22  34  61  95 123 159 201 251 307 362
#
# _framework density 24.439503999999999
#
# number of rings (size 3 to 8) (size 9 to 14) (size 15 to 20)
#    0.000    1.333    5.000    4.500    0.000    6.667 
#    0.000    0.000    7.333    0.000    0.000    0.000 
#    0.000    0.000    0.000    0.000    0.000    0.000 
#
# Total GULP energy -133800.314381 kJ/mol
# GULP energy per Si atom -5575.013099 kJ/mol
# Density = 2.438388 g / cm^3
# Si number density = 24.439504 Si / 1000 Ang^3
#
#
#
# Elastic Constant Matrix: (Units=GPa)
#
#
# Indices 1 2 3 4 5 6 
#
# 1 182.0042 71.5661 46.8722 0.0000 -60.1324 0.0000
# 2 71.5661 167.6120 18.6517 0.0000 -27.3055 0.0000
# 3 46.8722 18.6517 55.9673 0.0000 -24.1784 0.0000
# 4 0.0000 0.0000 0.0000 15.3214 0.0000 -8.8906
# 5 -60.1324 -27.3055 -24.1784 0.0000 50.1125 0.0000
# 6 0.0000 0.0000 0.0000 -8.8906 0.0000 29.0314
#
#
#
# Elastic Compliance Matrix: (Units=1/GPa)
#
#
# Indices 1 2 3 4 5 6 
#
# 1 0.010656 -0.002564 -0.003979 0.000000 0.009470 0.000000
# 2 -0.002564 0.007194 0.000144 0.000000 0.000912 0.000000
# 3 -0.003979 0.000144 0.024159 0.000000 0.006961 0.000000
# 4 0.000000 0.000000 0.000000 0.079373 0.000000 0.024307
# 5 0.009470 0.000912 0.006961 0.000000 0.035174 0.000000
# 6 0.000000 0.000000 0.000000 0.024307 0.000000 0.041889
#
#
# Mechanical properties :
#
#
# Convention : Reuss Voigt Hill
#
# Bulk Modulus (GPa) = 34.23384 75.52930 54.88157
# Shear Modulus (GPa) = 22.62654 36.79260 29.70957
#
# Velocity S-wave (km/s) = 3.04603 3.88423 3.49038
# Velocity P-wave (km/s) = 5.13897 7.14759 6.22483
#
# Compressibility (1/GPa) = 0.02921086
#
# Stress axis : x y z
#
# Youngs Moduli (GPa) = 93.84268 139.01160 41.39302
#
# Poissons Ratio (x) = 0.35649 0.16469
# Poissons Ratio (y) = 0.24065 -0.00598
# Poissons Ratio (z) = 0.37338 -0.02008
#
# Static dielectric constant tensor:
#      x y z
#    x 1.970750 0.000000 0.053930 
#    y 0.000000 1.919510 0.000000 
#    z 0.053930 0.000000 2.267290 
# 
# From -- ./inp_files/227332.got.cif
#   From: 2010.05.17/outbox.cif.g08.bks.cpg/sg15_114_cif.got.tgz:227332.got - 2010.06.03 18:47:42.
