data_PCOD9273924
_publ_section_title
;
Structure prediction by ZEFSAII (Michael W. Deem and Ramdas Pophale) SiO2 
 PCOD9273924
Probable space group: C 2/C
;
_chemical_formula_sum "Si O2"
_cell_formula_units_Z 64
_cell_length_a 22.049333
_cell_length_b 7.874086
_cell_length_c 30.264762
_cell_angle_alpha 90.000000
_cell_angle_beta 32.471548
_cell_angle_gamma 90.000000
_cell_volume 2821.049388
_symmetry_space_group_name_H-M "C 2/C"
_symmetry_group_IT_number 15
_symmetry_cell_setting 'monoclinic'
loop_
_space_group_symop_operation_xyz
x,y,z
-x,y,1/2-z
-x,-y,-z
x,-y,1/2+z
1/2+x,1/2+y,z
1/2-x,1/2+y,1/2-z
1/2-x,1/2-y,-z
1/2+x,1/2-y,1/2+z
loop_
_atom_site_type_symbol
_atom_site_label
_atom_site_fract_x
_atom_site_fract_y
_atom_site_fract_z
Si Si1 0.407709 0.636532 0.616264
Si Si2 0.710179 0.618630 0.261506
Si Si3 0.079330 0.352982 0.972153
Si Si4 0.045817 0.194198 0.178283
Si Si5 0.571526 0.767791 0.583741
Si Si6 0.319042 0.525978 0.807927
Si Si7 0.317877 0.632394 0.897278
Si Si8 0.497451 0.135360 0.621619
O O1 0.333099 0.466981 0.667073
O O2 0.328936 0.795234 0.679668
O O3 0.439024 0.688372 0.547262
O O4 0.512173 0.634869 0.586721
O O5 0.700031 0.460171 0.232808
O O6 0.621444 0.767440 0.304472
O O7 0.208250 0.417471 0.889415
O O8 0.000000 0.500000 0.000000
O O9 0.049004 0.329573 0.041848
O O10 0.000000 0.293358 0.250000
O O11 0.937192 0.072807 0.237906
O O12 0.066324 0.295947 0.121294
O O13 0.150289 0.067780 0.121448
O O14 0.599736 0.709771 0.616141
O O15 0.691805 0.823144 0.489275
O O16 0.495508 0.935245 0.630560
O O17 0.329193 0.674248 0.838090
#
# Coordination Sequence:
#
# PCOD9273924 Si02
#       8
#     8   8   8   8   8   8   8   8
#     4  11  22  41  62  94 124 170 216 263 324 391
#     4  10  23  38  67  91 132 170 214 266 327 396
#     4  11  21  37  64  90 127 167 210 269 328 383
#     4   9  20  39  61  83 122 164 210 249 315 386
#     4  11  21  35  62  90 124 155 213 268 312 373
#     4   9  18  38  60  86 115 169 209 250 320 384
#     4  10  20  38  60  88 116 167 212 260 313 385
#     4  11  21  39  60  97 123 163 207 266 326 385
#
# _framework density 22.686592999999998
#
# number of rings (size 3 to 8) (size 9 to 14) (size 15 to 20)
#    0.000    1.750    2.500    2.250    1.750    1.000 
#    0.000    3.125    2.750    0.000    0.000    0.000 
#    0.000    0.000    0.000    0.000    0.000    0.000 
#
# Total GULP energy -178387.091243 kJ/mol
# GULP energy per Si atom -5574.596601 kJ/mol
# Density = 2.263496 g / cm^3
# Si number density = 22.686593 Si / 1000 Ang^3
#
#
#
# Elastic Constant Matrix: (Units=GPa)
#
#
# Indices 1 2 3 4 5 6 
#
# 1 99.1624 16.2179 42.3430 -0.0007 11.4784 0.0486
# 2 16.2179 36.4192 7.9719 -0.0086 10.8940 0.0148
# 3 42.3430 7.9719 82.9360 0.0050 15.1477 -0.0031
# 4 -0.0007 -0.0086 0.0050 33.3948 0.0023 7.9506
# 5 11.4784 10.8940 15.1477 0.0023 46.3523 -0.0044
# 6 0.0486 0.0148 -0.0031 7.9506 -0.0044 35.2919
#
#
#
# Elastic Compliance Matrix: (Units=1/GPa)
#
#
# Indices 1 2 3 4 5 6 
#
# 1 0.013624 -0.004596 -0.006482 0.000004 -0.000175 -0.000018
# 2 -0.004596 0.031304 0.000503 0.000011 -0.006384 -0.000010
# 3 -0.006482 0.000503 0.016002 -0.000005 -0.003743 0.000011
# 4 0.000004 0.000011 -0.000005 0.031642 -0.000004 -0.007128
# 5 -0.000175 -0.006384 -0.003743 -0.000004 0.024341 0.000007
# 6 -0.000018 -0.000010 0.000011 -0.007128 0.000007 0.029941
#
#
# Mechanical properties :
#
#
# Convention : Reuss Voigt Hill
#
# Bulk Modulus (GPa) = 25.13743 39.06480 32.10111
# Shear Modulus (GPa) = 27.58417 33.14013 30.36215
#
# Velocity S-wave (km/s) = 3.49073 3.82616 3.66229
# Velocity P-wave (km/s) = 5.22985 6.06433 5.66248
#
# Compressibility (1/GPa) = 0.03978132
#
# Stress axis : x y z
#
# Youngs Moduli (GPa) = 73.39823 31.94487 62.49176
#
# Poissons Ratio (x) = 0.14681 0.40508
# Poissons Ratio (y) = 0.33732 -0.03145
# Poissons Ratio (z) = 0.47578 -0.01608
#
# Static dielectric constant tensor:
#      x y z
#    x 1.971590 -0.000010 0.062790 
#    y -0.000010 1.871450 0.000000 
#    z 0.062790 0.000000 1.853230 
# 
# From -- ./inp_files/318608.got.cif
#   From: 2010.05.17/outbox.cif.g08.bks.cpg/sg15_160_cif.got.tgz:318608.got - 2010.06.03 18:47:42.
