data_PCOD9273665
_publ_section_title
;
Structure prediction by ZEFSAII (Michael W. Deem and Ramdas Pophale) SiO2 
 PCOD9273665
Probable space group: C 2/C
;
_chemical_formula_sum "Si O2"
_cell_formula_units_Z 52
_cell_length_a 11.905352
_cell_length_b 20.254112
_cell_length_c 15.082548
_cell_angle_alpha 90.000000
_cell_angle_beta 45.644767
_cell_angle_gamma 90.000000
_cell_volume 2600.445914
_symmetry_space_group_name_H-M "C 2/C"
_symmetry_group_IT_number 15
_symmetry_cell_setting 'monoclinic'
loop_
_space_group_symop_operation_xyz
x,y,z
-x,y,1/2-z
-x,-y,-z
x,-y,1/2+z
1/2+x,1/2+y,z
1/2-x,1/2+y,1/2-z
1/2-x,1/2-y,-z
1/2+x,1/2-y,1/2+z
loop_
_atom_site_type_symbol
_atom_site_label
_atom_site_fract_x
_atom_site_fract_y
_atom_site_fract_z
Si Si1 0.534578 0.104524 0.976884
Si Si2 0.500000 0.399740 0.750000
Si Si3 0.653059 0.234416 0.932563
Si Si4 0.635385 0.546473 0.461100
Si Si5 0.919624 0.831182 0.389777
Si Si6 0.794228 0.512808 0.022092
Si Si7 0.757401 0.851361 0.742679
O O1 0.436766 0.061624 0.961897
O O2 0.406346 0.129893 0.120239
O O3 0.594913 0.173685 0.905440
O O4 0.663275 0.053825 0.946032
O O5 0.365576 0.448836 0.862666
O O6 0.401272 0.355033 0.734503
O O7 0.745517 0.192487 0.957349
O O8 0.742163 0.286193 0.819681
O O9 0.536347 0.280289 0.055372
O O10 0.500000 0.500000 0.500000
O O11 0.572352 0.597055 0.571273
O O12 0.771974 0.506263 0.433164
O O13 0.703356 0.589537 0.345286
O O14 0.000000 0.827052 0.250000
#
# Coordination Sequence:
#
# PCOD9273665 Si02
#       7
#     8   4   8   8   8   8   8
#     4  10  21  39  61  87 121 159 197 249 306 360
#     4  10  20  40  62  86 120 162 200 240 310 370
#     4  10  20  38  57  87 116 154 204 241 299 354
#     4  11  21  36  59  91 116 152 204 248 293 366
#     4  10  21  34  58  84 114 151 194 250 295 351
#     4  10  21  37  61  89 118 157 198 246 304 359
#     4  10  22  37  63  85 120 161 200 250 302 358
#
# _framework density 19.996570999999999
#
# number of rings (size 3 to 8) (size 9 to 14) (size 15 to 20)
#    0.000    1.846    3.077    0.923    1.077    0.615 
#    0.000    3.077    3.385    0.000    0.000    0.000 
#    0.000    0.000    0.000    0.000    0.000    0.000 
#
# Total GULP energy -144782.786459 kJ/mol
# GULP energy per Si atom -5568.568710 kJ/mol
# Density = 1.995106 g / cm^3
# Si number density = 19.996571 Si / 1000 Ang^3
#
#
#
# Elastic Constant Matrix: (Units=GPa)
#
#
# Indices 1 2 3 4 5 6 
#
# 1 89.6249 32.8800 -2.6587 0.0000 8.0485 -0.0001
# 2 32.8800 133.2404 8.5217 0.0000 5.3722 0.0000
# 3 -2.6587 8.5217 21.9218 0.0003 5.0470 -0.0001
# 4 0.0000 0.0000 0.0003 12.9923 -0.0002 5.6100
# 5 8.0485 5.3722 5.0470 -0.0002 24.3487 0.0001
# 6 -0.0001 0.0000 -0.0001 5.6100 0.0001 31.1337
#
#
#
# Elastic Compliance Matrix: (Units=1/GPa)
#
#
# Indices 1 2 3 4 5 6 
#
# 1 0.012847 -0.003240 0.003813 0.000000 -0.004322 0.000000
# 2 -0.003240 0.008543 -0.003703 0.000000 -0.000046 0.000000
# 3 0.003813 -0.003703 0.050007 -0.000002 -0.010809 0.000000
# 4 0.000000 0.000000 -0.000002 0.083463 0.000001 -0.015039
# 5 -0.004322 -0.000046 -0.010809 0.000001 0.044749 0.000000
# 6 0.000000 0.000000 0.000000 -0.015039 0.000000 0.034829
#
#
# Mechanical properties :
#
#
# Convention : Reuss Voigt Hill
#
# Bulk Modulus (GPa) = 15.35226 35.80813 25.58019
# Shear Modulus (GPa) = 19.05391 27.43120 23.24256
#
# Velocity S-wave (km/s) = 3.09019 3.70779 3.41299
# Velocity P-wave (km/s) = 4.51957 6.02298 5.32460
#
# Compressibility (1/GPa) = 0.06513700
#
# Stress axis : x y z
#
# Youngs Moduli (GPa) = 77.83619 117.04811 19.99707
#
# Poissons Ratio (x) = 0.37923 -0.07624
# Poissons Ratio (y) = 0.25219 0.07406
# Poissons Ratio (z) = -0.29677 0.43347
#
# Static dielectric constant tensor:
#      x y z
#    x 1.856900 0.000000 -0.089050 
#    y 0.000000 1.759520 0.000000 
#    z -0.089050 0.000000 1.780260 
# 
# From -- ./inp_files/147054.got.cif
#   From: 2010.05.17/outbox.cif.g08.bks.cpg/sg15_74_cif.got.tgz:147054.got - 2010.06.03 18:47:42.
