data_PCOD9273791
_publ_section_title
;
Structure prediction by ZEFSAII (Michael W. Deem and Ramdas Pophale) SiO2 
 PCOD9273791
Probable space group: C 2/C
;
_chemical_formula_sum "Si O2"
_cell_formula_units_Z 40
_cell_length_a 23.177069
_cell_length_b 12.833099
_cell_length_c 10.061305
_cell_angle_alpha 90.000000
_cell_angle_beta 36.047026
_cell_angle_gamma 90.000000
_cell_volume 1760.975232
_symmetry_space_group_name_H-M "C 2/C"
_symmetry_group_IT_number 15
_symmetry_cell_setting 'monoclinic'
loop_
_space_group_symop_operation_xyz
x,y,z
-x,y,1/2-z
-x,-y,-z
x,-y,1/2+z
1/2+x,1/2+y,z
1/2-x,1/2+y,1/2-z
1/2-x,1/2-y,-z
1/2+x,1/2-y,1/2+z
loop_
_atom_site_type_symbol
_atom_site_label
_atom_site_fract_x
_atom_site_fract_y
_atom_site_fract_z
Si Si1 0.277510 0.601630 0.537980
Si Si2 0.557879 0.434755 0.283111
Si Si3 0.228641 0.688282 0.343186
Si Si4 0.098334 0.724259 0.156131
Si Si5 0.114833 0.479635 0.523287
O O1 0.342419 0.499105 0.426089
O O2 0.273597 0.644564 0.396674
O O3 0.320592 0.699509 0.539606
O O4 0.168247 0.579414 0.800253
O O5 0.500000 0.431579 0.250000
O O6 0.500000 0.500000 0.500000
O O7 0.570668 0.315019 0.310583
O O8 0.160253 0.593553 0.432448
O O9 0.316417 0.715794 0.081316
O O10 0.134776 0.605134 0.106541
O O11 0.000000 0.710606 0.250000
O O12 0.000000 0.496982 0.750000
#
# Coordination Sequence:
#
# PCOD9273791 Si02
#       5
#     8   8   8   8   8
#     4  10  21  37  60  86 117 164 204 250 310 371
#     4  11  22  38  65  94 124 160 209 259 310 369
#     4  10  20  38  59  84 123 160 204 252 310 370
#     4   9  18  36  59  86 117 158 198 243 309 371
#     4  10  21  37  59  84 118 159 204 251 305 366
#
# _framework density 22.714687000000001
#
# number of rings (size 3 to 8) (size 9 to 14) (size 15 to 20)
#    0.000    2.000    2.000    2.400    0.000    3.200 
#    0.000    3.000    0.000    0.000    0.000    0.000 
#    0.000    0.000    0.000    0.000    0.000    0.000 
#
# Total GULP energy -111360.595374 kJ/mol
# GULP energy per Si atom -5568.029769 kJ/mol
# Density = 2.266299 g / cm^3
# Si number density = 22.714687 Si / 1000 Ang^3
#
#
#
# Elastic Constant Matrix: (Units=GPa)
#
#
# Indices 1 2 3 4 5 6 
#
# 1 12.1104 -4.4060 8.9026 0.0000 -0.7198 0.0000
# 2 -4.4060 111.4173 40.2109 0.0000 -23.5789 0.0000
# 3 8.9026 40.2109 110.5456 0.0000 -18.9668 0.0000
# 4 0.0000 0.0000 0.0000 -64.0009 0.0000 35.4405
# 5 -0.7198 -23.5789 -18.9668 0.0000 21.0426 0.0000
# 6 0.0000 0.0000 0.0000 35.4405 0.0000 6.3886
#
#
#
# Elastic Compliance Matrix: (Units=1/GPa)
#
#
# Indices 1 2 3 4 5 6 
#
# 1 0.092830 0.007878 -0.009797 0.000000 0.003173 0.000000
# 2 0.007878 0.012991 -0.003331 0.000000 0.011824 0.000000
# 3 -0.009797 -0.003331 0.012242 0.000000 0.006966 0.000000
# 4 0.000000 0.000000 0.000000 -0.003837 0.000000 0.021287
# 5 0.003173 0.011824 0.006966 0.000000 0.067159 0.000000
# 6 0.000000 0.000000 0.000000 0.021287 0.000000 0.038441
#
#
# Mechanical properties :
#
#
# Convention : Reuss Voigt Hill
#
# Bulk Modulus (GPa) = 9.29686 35.94315 22.62001
# Shear Modulus (GPa) = 18.78411 5.31046 12.04729
#
# Velocity S-wave (km/s) = 2.87881 1.53068 2.30548
# Velocity P-wave (km/s) = 3.89253 4.35684 4.13122
#
# Compressibility (1/GPa) = 0.10756316
#
# Stress axis : x y z
#
# Youngs Moduli (GPa) = 10.77233 76.97392 81.68540
#
# Poissons Ratio (x) = -0.60643 0.80030
# Poissons Ratio (y) = -0.08487 0.27213
# Poissons Ratio (z) = 0.10554 0.25643
#
# Static dielectric constant tensor:
#      x y z
#    x 1.923750 0.000000 0.023150 
#    y 0.000000 1.954750 0.000000 
#    z 0.023150 0.000000 1.882660 
# 
# From -- ./inp_files/94593.got.cif
#   From: 2010.05.17/outbox.cif.g08.bks.cpg/sg15_48_cif.got.tgz:94593.got - 2010.06.03 18:47:42.
