data_PCOD9273910
_publ_section_title
;
Structure prediction by ZEFSAII (Michael W. Deem and Ramdas Pophale) SiO2 
 PCOD9273910
Probable space group: C 2/C
;
_chemical_formula_sum "Si O2"
_cell_formula_units_Z 60
_cell_length_a 21.014008
_cell_length_b 7.268624
_cell_length_c 16.129687
_cell_angle_alpha 90.000000
_cell_angle_beta 99.791508
_cell_angle_gamma 90.000000
_cell_volume 2427.807168
_symmetry_space_group_name_H-M "C 2/C"
_symmetry_group_IT_number 15
_symmetry_cell_setting 'monoclinic'
loop_
_space_group_symop_operation_xyz
x,y,z
-x,y,1/2-z
-x,-y,-z
x,-y,1/2+z
1/2+x,1/2+y,z
1/2-x,1/2+y,1/2-z
1/2-x,1/2-y,-z
1/2+x,1/2-y,1/2+z
loop_
_atom_site_type_symbol
_atom_site_label
_atom_site_fract_x
_atom_site_fract_y
_atom_site_fract_z
Si Si1 0.424501 0.392407 0.522814
Si Si2 0.100544 0.855884 0.797707
Si Si3 0.663280 0.970163 0.154744
Si Si4 0.784174 0.416175 0.167720
Si Si5 0.808049 0.392639 0.005679
Si Si6 0.355710 0.538128 0.355981
Si Si7 0.000000 0.470202 0.250000
Si Si8 0.477386 0.126409 0.418551
O O1 0.430286 0.431521 0.622577
O O2 0.376108 0.214165 0.519298
O O3 0.386805 0.528595 0.453892
O O4 0.478618 0.320816 0.468070
O O5 0.173011 0.771993 0.828021
O O6 0.102847 0.994171 0.719312
O O7 0.059374 0.675668 0.761285
O O8 0.693986 0.028422 0.247654
O O9 0.660300 0.750859 0.158511
O O10 0.594916 0.067515 0.124492
O O11 0.702799 0.005686 0.081393
O O12 0.803155 0.515111 0.086445
O O13 0.706913 0.408181 0.156120
O O14 0.750000 0.250000 0.000000
O O15 0.010905 0.586752 0.337229
O O16 0.500000 0.000000 0.500000
#
# Coordination Sequence:
#
# PCOD9273910 Si02
#       8
#     8   8   8   8   8   8   4   8
#     4  10  22  40  64  94 129 169 217 271 338 392
#     4  10  23  41  68  93 129 184 214 270 345 389
#     4  10  24  38  61  96 129 166 223 261 337 394
#     4  10  21  36  60  93 130 170 212 259 325 395
#     4  10  20  38  60  86 125 177 211 257 321 390
#     4  11  22  40  62 100 135 171 216 274 333 402
#     4  12  20  46  70  96 124 172 234 272 330 404
#     4  11  22  41  69  94 120 172 223 279 322 401
#
# _framework density 24.713657999999999
#
# number of rings (size 3 to 8) (size 9 to 14) (size 15 to 20)
#    0.000    1.600    5.333    0.000    5.600    0.533 
#    0.000    7.333    0.000    0.000    0.000    0.000 
#    0.000    0.000    0.000    0.000    0.000    0.000 
#
# Total GULP energy -167185.618857 kJ/mol
# GULP energy per Si atom -5572.853962 kJ/mol
# Density = 2.465741 g / cm^3
# Si number density = 24.713658 Si / 1000 Ang^3
#
#
#
# Elastic Constant Matrix: (Units=GPa)
#
#
# Indices 1 2 3 4 5 6 
#
# 1 53.5095 2.7966 33.8986 0.0000 0.7408 0.0000
# 2 2.7966 33.3033 25.4662 0.0000 -9.9007 0.0000
# 3 33.8986 25.4662 263.7518 0.0000 -30.4098 0.0000
# 4 0.0000 0.0000 0.0000 41.9986 0.0000 -9.6056
# 5 0.7408 -9.9007 -30.4098 0.0000 46.4547 0.0000
# 6 0.0000 0.0000 0.0000 -9.6056 0.0000 26.9381
#
#
#
# Elastic Compliance Matrix: (Units=1/GPa)
#
#
# Indices 1 2 3 4 5 6 
#
# 1 0.020556 -0.000192 -0.002884 0.000000 -0.002256 0.000000
# 2 -0.000192 0.033655 -0.002593 0.000000 0.005478 0.000000
# 3 -0.002884 -0.002593 0.004709 0.000000 0.002576 0.000000
# 4 0.000000 0.000000 0.000000 0.025925 0.000000 0.009244
# 5 -0.002256 0.005478 0.002576 0.000000 0.024416 0.000000
# 6 0.000000 0.000000 0.000000 0.009244 0.000000 0.040418
#
#
# Mechanical properties :
#
#
# Convention : Reuss Voigt Hill
#
# Bulk Modulus (GPa) = 21.01590 52.76524 36.89057
# Shear Modulus (GPa) = 28.26801 42.30514 35.28658
#
# Velocity S-wave (km/s) = 3.38571 4.14189 3.78275
# Velocity P-wave (km/s) = 4.87917 6.65362 5.83425
#
# Compressibility (1/GPa) = 0.04758303
#
# Stress axis : x y z
#
# Youngs Moduli (GPa) = 48.64680 29.71351 212.33829
#
# Poissons Ratio (x) = 0.00570 0.61230
# Poissons Ratio (y) = 0.00934 0.55063
# Poissons Ratio (z) = 0.14028 0.07705
#
# Static dielectric constant tensor:
#      x y z
#    x 2.109130 0.000000 -0.076270 
#    y 0.000000 1.995460 0.000000 
#    z -0.076270 0.000000 2.182670 
# 
# From -- ./inp_files/171893.got.cif
#   From: 2010.05.17/outbox.cif.g08.bks.cpg/sg15_86_cif.got.tgz:171893.got - 2010.06.03 18:47:42.
