data_PCOD9273559
_publ_section_title
;
Structure prediction by ZEFSAII (Michael W. Deem and Ramdas Pophale) SiO2 
 PCOD9273559
Probable space group: C 2/C
;
_chemical_formula_sum "Si O2"
_cell_formula_units_Z 56
_cell_length_a 14.538559
_cell_length_b 17.844017
_cell_length_c 12.606134
_cell_angle_alpha 90.000000
_cell_angle_beta 118.731640
_cell_angle_gamma 90.000000
_cell_volume 2867.718325
_symmetry_space_group_name_H-M "C 2/C"
_symmetry_group_IT_number 15
_symmetry_cell_setting 'monoclinic'
loop_
_space_group_symop_operation_xyz
x,y,z
-x,y,1/2-z
-x,-y,-z
x,-y,1/2+z
1/2+x,1/2+y,z
1/2-x,1/2+y,1/2-z
1/2-x,1/2-y,-z
1/2+x,1/2-y,1/2+z
loop_
_atom_site_type_symbol
_atom_site_label
_atom_site_fract_x
_atom_site_fract_y
_atom_site_fract_z
Si Si1 0.207408 0.601206 0.412869
Si Si2 0.500000 0.808835 0.750000
Si Si3 0.894634 0.178589 0.389748
Si Si4 0.292772 0.154591 0.841401
Si Si5 0.125916 0.438505 0.315615
Si Si6 0.082615 0.215238 0.622511
Si Si7 0.500000 0.295977 0.750000
Si Si8 0.848169 0.699538 0.525837
O O1 0.104857 0.643544 0.311423
O O2 0.308714 0.631919 0.406643
O O3 0.210786 0.620247 0.541535
O O4 0.186716 0.514942 0.373122
O O5 0.499102 0.753073 0.651864
O O6 0.855059 0.265687 0.374807
O O7 0.915243 0.161465 0.276145
O O8 0.009892 0.166228 0.505519
O O9 0.344043 0.100256 0.780480
O O10 0.175384 0.173498 0.734673
O O11 0.157752 0.381652 0.427701
O O12 0.000000 0.450201 0.250000
O O13 0.132442 0.285395 0.586239
O O14 0.442638 0.240016 0.638665
O O15 0.750000 0.750000 0.500000
#
# Coordination Sequence:
#
# PCOD9273559 Si02
#       8
#     8   4   8   8   8   8   4   8
#     4  12  27  42  65 102 143 179 215 280 352 409
#     4  12  22  39  62 101 130 176 220 272 338 413
#     4  11  21  42  70 101 134 175 233 280 331 402
#     4  12  23  44  66  99 138 179 229 281 332 404
#     4  12  25  44  66 101 145 174 221 281 351 403
#     4  11  22  37  70  96 128 173 237 280 323 384
#     4  10  20  37  70 103 126 168 230 282 320 383
#     4  11  20  39  67  97 127 173 221 270 325 388
#
# _framework density 19.527719000000001
#
# number of rings (size 3 to 8) (size 9 to 14) (size 15 to 20)
#    0.000    0.571    7.143    2.143    0.000    1.714 
#    0.000    0.714    0.000    0.857    0.000    0.000 
#    0.000    0.000    0.000    0.000    0.000    0.000 
#
# Total GULP energy -156180.664837 kJ/mol
# GULP energy per Si atom -5577.880887 kJ/mol
# Density = 1.948327 g / cm^3
# Si number density = 19.527719 Si / 1000 Ang^3
#
#
#
# Elastic Constant Matrix: (Units=GPa)
#
#
# Indices 1 2 3 4 5 6 
#
# 1 120.4305 58.1013 35.4381 0.0000 -14.4893 0.0000
# 2 58.1013 98.5470 49.2072 0.0000 -11.4596 0.0000
# 3 35.4381 49.2072 86.4180 0.0000 -2.7240 0.0000
# 4 0.0000 0.0000 0.0000 21.9373 0.0000 2.3725
# 5 -14.4893 -11.4596 -2.7240 0.0000 50.5665 0.0000
# 6 0.0000 0.0000 0.0000 2.3725 0.0000 16.3388
#
#
#
# Elastic Compliance Matrix: (Units=1/GPa)
#
#
# Indices 1 2 3 4 5 6 
#
# 1 0.011878 -0.006113 -0.001329 0.000000 0.001947 0.000000
# 2 -0.006113 0.017727 -0.007528 0.000000 0.001860 0.000000
# 3 -0.001329 -0.007528 0.016365 0.000000 -0.001205 0.000000
# 4 0.000000 0.000000 0.000000 0.046312 0.000000 -0.006725
# 5 0.001947 0.001860 -0.001205 0.000000 0.020690 0.000000
# 6 0.000000 0.000000 0.000000 -0.006725 0.000000 0.062180
#
#
# Mechanical properties :
#
#
# Convention : Reuss Voigt Hill
#
# Bulk Modulus (GPa) = 62.38381 65.65430 64.01906
# Shear Modulus (GPa) = 23.76008 28.61179 26.18593
#
# Velocity S-wave (km/s) = 3.49196 3.83193 3.66589
# Velocity P-wave (km/s) = 6.94795 7.29879 7.12553
#
# Compressibility (1/GPa) = 0.01602980
#
# Stress axis : x y z
#
# Youngs Moduli (GPa) = 84.18906 56.41045 61.10490
#
# Poissons Ratio (x) = 0.34485 0.08118
# Poissons Ratio (y) = 0.51467 0.46003
# Poissons Ratio (z) = 0.11185 0.42469
#
# Static dielectric constant tensor:
#      x y z
#    x 1.694420 0.000000 -0.038120 
#    y 0.000000 1.663050 0.000000 
#    z -0.038120 0.000000 1.747970 
# 
# From -- ./inp_files/98428.got.cif
#   From: 2010.05.17/outbox.cif.g08.bks.cpg/sg15_50_cif.got.tgz:98428.got - 2010.06.03 18:47:42.
