data_PCOD9273210
_publ_section_title
;
Structure prediction by ZEFSAII (Michael W. Deem and Ramdas Pophale) SiO2 
 PCOD9273210
Probable space group: C 2/C
;
_chemical_formula_sum "Si O2"
_cell_formula_units_Z 64
_cell_length_a 21.439728
_cell_length_b 9.036944
_cell_length_c 15.837973
_cell_angle_alpha 90.000000
_cell_angle_beta 79.030578
_cell_angle_gamma 90.000000
_cell_volume 3012.534476
_symmetry_space_group_name_H-M "C 2/C"
_symmetry_group_IT_number 15
_symmetry_cell_setting 'monoclinic'
loop_
_space_group_symop_operation_xyz
x,y,z
-x,y,1/2-z
-x,-y,-z
x,-y,1/2+z
1/2+x,1/2+y,z
1/2-x,1/2+y,1/2-z
1/2-x,1/2-y,-z
1/2+x,1/2-y,1/2+z
loop_
_atom_site_type_symbol
_atom_site_label
_atom_site_fract_x
_atom_site_fract_y
_atom_site_fract_z
Si Si1 0.282550 0.198515 0.193661
Si Si2 0.954476 0.138587 0.492504
Si Si3 0.076995 0.374286 0.123798
Si Si4 0.705445 0.953121 0.991352
Si Si5 0.338486 0.101681 0.737421
Si Si6 0.676528 0.451721 0.418030
Si Si7 0.018070 0.626578 0.062658
Si Si8 0.356747 0.217236 0.559011
O O1 0.276388 0.121694 0.102411
O O2 0.218341 0.278252 0.240892
O O3 0.325191 0.343350 0.161882
O O4 0.309649 0.066488 0.245906
O O5 0.963086 0.238050 0.405458
O O6 0.882354 0.087577 0.507388
O O7 0.963907 0.251927 0.568614
O O8 0.000000 0.000000 0.500000
O O9 0.111486 0.358740 0.203513
O O10 0.036532 0.526073 0.136529
O O11 0.136233 0.401603 0.042838
O O12 0.697457 0.127155 0.975891
O O13 0.758027 0.926748 0.048642
O O14 0.370617 0.119835 0.638165
O O15 0.665729 0.623713 0.405454
O O16 0.080637 0.713849 0.014375
O O17 0.000000 0.500000 0.000000
#
# Coordination Sequence:
#
# PCOD9273210 Si02
#       8
#     8   8   8   8   8   8   8   8
#     4  11  22  38  57  89 128 158 193 244 314 383
#     4  11  21  37  63  92 112 154 207 258 299 331
#     4  10  20  40  64  86 119 157 206 255 295 376
#     4  10  20  37  63  92 115 157 206 244 312 357
#     4  11  23  38  58  90 125 164 193 240 327 373
#     4  12  20  36  63  88 124 153 202 259 294 365
#     4   9  20  39  62  84 115 158 211 253 288 353
#     4  10  22  37  59  93 123 159 194 252 308 372
#
# _framework density 21.24457
#
# number of rings (size 3 to 8) (size 9 to 14) (size 15 to 20)
#    0.000    1.500    3.750    2.250    1.750    0.000 
#    2.250    3.750    0.000    1.500    0.000    0.000 
#    0.000    0.000    0.000    0.000    0.000    0.000 
#
# Total GULP energy -178383.896038 kJ/mol
# GULP energy per Si atom -5574.496751 kJ/mol
# Density = 2.119622 g / cm^3
# Si number density = 21.244570 Si / 1000 Ang^3
#
#
#
# Elastic Constant Matrix: (Units=GPa)
#
#
# Indices 1 2 3 4 5 6 
#
# 1 59.1852 33.6016 6.2568 0.0000 18.7860 0.0000
# 2 33.6016 145.9146 9.9328 0.0000 17.7169 0.0000
# 3 6.2568 9.9328 45.0839 0.0000 10.7156 0.0000
# 4 0.0000 0.0000 0.0000 23.6722 0.0000 -0.4777
# 5 18.7860 17.7169 10.7156 0.0000 24.9981 0.0000
# 6 0.0000 0.0000 0.0000 -0.4777 0.0000 39.0208
#
#
#
# Elastic Compliance Matrix: (Units=1/GPa)
#
#
# Indices 1 2 3 4 5 6 
#
# 1 0.023885 -0.003656 0.001271 0.000000 -0.015903 0.000000
# 2 -0.003656 0.008066 -0.000628 0.000000 -0.002700 0.000000
# 3 0.001271 -0.000628 0.024790 0.000000 -0.011136 0.000000
# 4 0.000000 0.000000 0.000000 0.042254 0.000000 0.000517
# 5 -0.015903 -0.002700 -0.011136 0.000000 0.058642 0.000000
# 6 0.000000 0.000000 0.000000 0.000517 0.000000 0.025634
#
#
# Mechanical properties :
#
#
# Convention : Reuss Voigt Hill
#
# Bulk Modulus (GPa) = 19.71831 38.86292 29.29061
# Shear Modulus (GPa) = 24.24815 30.89772 27.57294
#
# Velocity S-wave (km/s) = 3.38210 3.81777 3.60652
# Velocity P-wave (km/s) = 4.95512 6.14546 5.58211
#
# Compressibility (1/GPa) = 0.05071428
#
# Stress axis : x y z
#
# Youngs Moduli (GPa) = 41.86678 123.98060 40.33927
#
# Poissons Ratio (x) = 0.45326 -0.05125
# Poissons Ratio (y) = 0.15306 0.02533
# Poissons Ratio (z) = -0.05320 0.07785
#
# Static dielectric constant tensor:
#      x y z
#    x 1.816630 0.000000 -0.021030 
#    y 0.000000 1.836790 0.000000 
#    z -0.021030 0.000000 1.778810 
# 
# From -- ./inp_files/218274.got.cif
#   From: 2010.05.17/outbox.cif.g08.bks.cpg/sg15_110_cif.got.tgz:218274.got - 2010.06.03 18:47:42.
