data_PCOD9273366
_publ_section_title
;
Structure prediction by ZEFSAII (Michael W. Deem and Ramdas Pophale) SiO2 
 PCOD9273366
Probable space group: C 2/C
;
_chemical_formula_sum "Si O2"
_cell_formula_units_Z 40
_cell_length_a 17.172212
_cell_length_b 11.386528
_cell_length_c 10.357941
_cell_angle_alpha 90.000000
_cell_angle_beta 107.203781
_cell_angle_gamma 90.000000
_cell_volume 1934.693002
_symmetry_space_group_name_H-M "C 2/C"
_symmetry_group_IT_number 15
_symmetry_cell_setting 'monoclinic'
loop_
_space_group_symop_operation_xyz
x,y,z
-x,y,1/2-z
-x,-y,-z
x,-y,1/2+z
1/2+x,1/2+y,z
1/2-x,1/2+y,1/2-z
1/2-x,1/2-y,-z
1/2+x,1/2-y,1/2+z
loop_
_atom_site_type_symbol
_atom_site_label
_atom_site_fract_x
_atom_site_fract_y
_atom_site_fract_z
Si Si1 0.000000 0.692276 0.250000
Si Si2 0.000000 0.295310 0.250000
Si Si3 0.980875 0.087913 0.876603
Si Si4 0.873685 0.507829 0.754173
Si Si5 0.719980 0.928232 0.549631
Si Si6 0.367059 0.679661 0.003244
O O1 0.974121 0.786016 0.125846
O O2 0.069754 0.607681 0.230088
O O3 0.064172 0.381938 0.209250
O O4 0.053348 0.222304 0.378543
O O5 0.000000 0.028191 0.750000
O O6 0.891028 0.127524 0.875892
O O7 0.000000 0.000000 0.000000
O O8 0.811768 0.498348 0.842484
O O9 0.823603 0.520582 0.598059
O O10 0.685468 0.795992 0.547469
O O11 0.814899 0.911101 0.563489
#
# Coordination Sequence:
#
# PCOD9273366 Si02
#       6
#     4   4   8   8   8   8
#     4   9  20  37  64  86 124 155 218 265 306 352
#     4   9  22  35  68  96 124 159 222 247 312 372
#     4  10  22  37  57  82 116 165 207 252 303 364
#     4  10  20  37  64  97 121 164 206 264 307 377
#     4  10  21  38  63  89 130 159 203 255 325 362
#     4  10  21  40  61  88 126 168 200 259 312 373
#
# _framework density 20.675115000000002
#
# number of rings (size 3 to 8) (size 9 to 14) (size 15 to 20)
#    0.600    1.600    2.000    0.000    4.200    4.000 
#    0.000    0.000    0.000    4.800    0.000    0.000 
#    0.000    0.000    0.000    0.000    0.000    0.000 
#
# Total GULP energy -111378.437203 kJ/mol
# GULP energy per Si atom -5568.921860 kJ/mol
# Density = 2.062806 g / cm^3
# Si number density = 20.675115 Si / 1000 Ang^3
#
#
#
# Elastic Constant Matrix: (Units=GPa)
#
#
# Indices 1 2 3 4 5 6 
#
# 1 88.8622 33.4371 63.8540 0.0000 -35.7937 0.0000
# 2 33.4371 79.5418 40.5454 0.0000 -7.7067 0.0000
# 3 63.8540 40.5454 119.5612 0.0000 -45.6205 0.0000
# 4 0.0000 0.0000 0.0000 15.5111 0.0000 -6.3574
# 5 -35.7937 -7.7067 -45.6205 0.0000 42.2977 0.0000
# 6 0.0000 0.0000 0.0000 -6.3574 0.0000 18.0586
#
#
#
# Elastic Compliance Matrix: (Units=1/GPa)
#
#
# Indices 1 2 3 4 5 6 
#
# 1 0.021837 -0.005289 -0.005413 0.000000 0.011677 0.000000
# 2 -0.005289 0.017061 -0.005918 0.000000 -0.007750 0.000000
# 3 -0.005413 -0.005918 0.018867 0.000000 0.014690 0.000000
# 4 0.000000 0.000000 0.000000 0.075341 0.000000 0.026523
# 5 0.011677 -0.007750 0.014690 0.000000 0.047955 0.000000
# 6 0.000000 0.000000 0.000000 0.026523 0.000000 0.064712
#
#
# Mechanical properties :
#
#
# Convention : Reuss Voigt Hill
#
# Bulk Modulus (GPa) = 40.77630 62.62647 51.70139
# Shear Modulus (GPa) = 17.41007 25.18205 21.29606
#
# Velocity S-wave (km/s) = 2.90501 3.49376 3.21290
# Velocity P-wave (km/s) = 5.56932 6.82873 6.23093
#
# Compressibility (1/GPa) = 0.02452405
#
# Stress axis : x y z
#
# Youngs Moduli (GPa) = 45.79436 58.61251 53.00156
#
# Poissons Ratio (x) = 0.30999 0.28692
# Poissons Ratio (y) = 0.24220 0.31369
# Poissons Ratio (z) = 0.24790 0.34689
#
# Static dielectric constant tensor:
#      x y z
#    x 1.776470 0.000000 -0.031040 
#    y 0.000000 1.788960 0.000000 
#    z -0.031040 0.000000 1.751300 
# 
# From -- ./inp_files/46306.got.cif
#   From: 2010.05.17/outbox.cif.g08.bks.cpg/sg15_24_cif.got.tgz:46306.got - 2010.06.03 18:47:42.
