data_PCOD9273065
_publ_section_title
;
Structure prediction by ZEFSAII (Michael W. Deem and Ramdas Pophale) SiO2 
 PCOD9273065
Probable space group: C 2/C
;
_chemical_formula_sum "Si O2"
_cell_formula_units_Z 48
_cell_length_a 15.127408
_cell_length_b 12.437908
_cell_length_c 14.000235
_cell_angle_alpha 90.000000
_cell_angle_beta 66.814550
_cell_angle_gamma 90.000000
_cell_volume 2421.441063
_symmetry_space_group_name_H-M "C 2/C"
_symmetry_group_IT_number 15
_symmetry_cell_setting 'monoclinic'
loop_
_space_group_symop_operation_xyz
x,y,z
-x,y,1/2-z
-x,-y,-z
x,-y,1/2+z
1/2+x,1/2+y,z
1/2-x,1/2+y,1/2-z
1/2-x,1/2-y,-z
1/2+x,1/2-y,1/2+z
loop_
_atom_site_type_symbol
_atom_site_label
_atom_site_fract_x
_atom_site_fract_y
_atom_site_fract_z
Si Si1 0.898925 0.862033 0.178667
Si Si2 0.612931 0.952253 0.184960
Si Si3 0.614067 0.315610 0.094448
Si Si4 0.182732 0.409338 0.491755
Si Si5 0.246486 0.252256 0.115621
Si Si6 0.256888 0.971708 0.715027
O O1 0.884038 0.808200 0.290242
O O2 0.845046 0.796206 0.119724
O O3 0.012176 0.867964 0.113445
O O4 0.842393 0.974377 0.209069
O O5 0.500000 0.950384 0.250000
O O6 0.663729 0.837418 0.179274
O O7 0.636512 0.993347 0.069134
O O8 0.669185 0.036871 0.229078
O O9 0.625892 0.199533 0.040459
O O10 0.706621 0.385459 0.025400
O O11 0.191216 0.444034 0.378665
O O12 0.233813 0.135740 0.167514
O O13 0.250000 0.250000 0.000000
#
# Coordination Sequence:
#
# PCOD9273065 Si02
#       6
#     8   8   8   8   8   8
#     4   9  20  38  64  92 119 165 210 256 314 370
#     4  11  25  41  62  96 124 169 216 258 317 375
#     4   9  19  37  63  95 118 156 213 264 309 367
#     4  10  20  37  62  90 125 157 206 262 309 377
#     4  11  22  42  60  89 133 166 206 260 320 377
#     4  10  22  41  64  87 128 168 208 258 316 377
#
# _framework density 19.822908000000002
#
# number of rings (size 3 to 8) (size 9 to 14) (size 15 to 20)
#    0.000    2.000    1.667    1.000    4.667    3.333 
#    6.000    3.333    0.000    0.000    0.000    0.000 
#    0.000    0.000    0.000    0.000    0.000    0.000 
#
# Total GULP energy -133966.999450 kJ/mol
# GULP energy per Si atom -5581.958310 kJ/mol
# Density = 1.977779 g / cm^3
# Si number density = 19.822908 Si / 1000 Ang^3
#
#
#
# Elastic Constant Matrix: (Units=GPa)
#
#
# Indices 1 2 3 4 5 6 
#
# 1 120.7493 22.4863 50.3845 0.0000 -13.3311 0.0000
# 2 22.4863 65.7206 17.0410 0.0000 -7.0618 0.0000
# 3 50.3845 17.0410 66.3685 0.0000 -14.6076 0.0000
# 4 0.0000 0.0000 0.0000 17.8536 0.0000 5.7092
# 5 -13.3311 -7.0618 -14.6076 0.0000 32.6671 0.0000
# 6 0.0000 0.0000 0.0000 5.7092 0.0000 7.6850
#
#
#
# Elastic Compliance Matrix: (Units=1/GPa)
#
#
# Indices 1 2 3 4 5 6 
#
# 1 0.012359 -0.001885 -0.008738 0.000000 0.000729 0.000000
# 2 -0.001885 0.016688 -0.002473 0.000000 0.001733 0.000000
# 3 -0.008738 -0.002473 0.023773 0.000000 0.006530 0.000000
# 4 0.000000 0.000000 0.000000 0.073464 0.000000 -0.054576
# 5 0.000729 0.001733 0.006530 0.000000 0.034204 0.000000
# 6 0.000000 0.000000 0.000000 -0.054576 0.000000 0.170668
#
#
# Mechanical properties :
#
#
# Convention : Reuss Voigt Hill
#
# Bulk Modulus (GPa) = 37.55273 48.07356 42.81314
# Shear Modulus (GPa) = 13.65285 22.50291 18.07788
#
# Velocity S-wave (km/s) = 2.62724 3.37292 3.02316
# Velocity P-wave (km/s) = 5.30927 6.28275 5.81642
#
# Compressibility (1/GPa) = 0.02662922
#
# Stress axis : x y z
#
# Youngs Moduli (GPa) = 80.91097 59.92291 42.06373
#
# Poissons Ratio (x) = 0.11293 0.36757
# Poissons Ratio (y) = 0.15248 0.10402
# Poissons Ratio (z) = 0.70703 0.14818
#
# Static dielectric constant tensor:
#      x y z
#    x 1.672460 0.000000 0.018440 
#    y 0.000000 1.709010 0.000000 
#    z 0.018440 0.000000 1.686370 
# 
# From -- ./inp_files/152430.got.cif
#   From: 2010.05.17/outbox.cif.g08.bks.cpg/sg15_77_cif.got.tgz:152430.got - 2010.06.03 18:47:42.
