data_PCOD9273184
_publ_section_title
;
Structure prediction by ZEFSAII (Michael W. Deem and Ramdas Pophale) SiO2 
 PCOD9273184
Probable space group: C 2/C
;
_chemical_formula_sum "Si O2"
_cell_formula_units_Z 40
_cell_length_a 29.225977
_cell_length_b 7.800159
_cell_length_c 14.774321
_cell_angle_alpha 90.000000
_cell_angle_beta 145.354510
_cell_angle_gamma 90.000000
_cell_volume 1914.733230
_symmetry_space_group_name_H-M "C 2/C"
_symmetry_group_IT_number 15
_symmetry_cell_setting 'monoclinic'
loop_
_space_group_symop_operation_xyz
x,y,z
-x,y,1/2-z
-x,-y,-z
x,-y,1/2+z
1/2+x,1/2+y,z
1/2-x,1/2+y,1/2-z
1/2-x,1/2-y,-z
1/2+x,1/2-y,1/2+z
loop_
_atom_site_type_symbol
_atom_site_label
_atom_site_fract_x
_atom_site_fract_y
_atom_site_fract_z
Si Si1 0.976405 0.198549 0.462396
Si Si2 0.637780 0.870115 0.654761
Si Si3 0.279523 0.816746 0.449295
Si Si4 0.580133 0.156296 0.437897
Si Si5 0.672955 0.133511 0.865628
O O1 0.943498 0.247107 0.507908
O O2 0.907893 0.255249 0.278807
O O3 0.056275 0.307093 0.570186
O O4 0.000000 0.000000 0.500000
O O5 0.701391 0.713943 0.759187
O O6 0.614708 0.972492 0.527552
O O7 0.676331 0.016873 0.781014
O O8 0.250000 0.750000 0.500000
O O9 0.354184 0.739833 0.514572
O O10 0.317136 0.000186 0.536597
O O11 0.500000 0.132370 0.250000
O O12 0.750000 0.250000 0.000000
#
# Coordination Sequence:
#
# PCOD9273184 Si02
#       5
#     8   8   8   8   8
#     4  11  23  42  65  93 127 166 211 262 311 371
#     4  10  22  40  62  90 124 161 205 257 311 370
#     4  10  21  39  63  91 126 166 207 256 310 371
#     4  11  22  40  65  92 125 168 209 256 316 376
#     4  10  20  37  63  90 121 161 203 253 312 366
#
# _framework density 20.890639
#
# number of rings (size 3 to 8) (size 9 to 14) (size 15 to 20)
#    0.000    1.600    0.000    7.200    0.000    6.400 
#    0.000    5.000    0.000    0.000    0.000    0.000 
#    0.000    0.000    0.000    0.000    0.000    0.000 
#
# Total GULP energy -111458.113823 kJ/mol
# GULP energy per Si atom -5572.905691 kJ/mol
# Density = 2.084309 g / cm^3
# Si number density = 20.890639 Si / 1000 Ang^3
#
#
#
# Elastic Constant Matrix: (Units=GPa)
#
#
# Indices 1 2 3 4 5 6 
#
# 1 157.0003 36.3194 59.2261 0.0000 7.7677 0.0000
# 2 36.3194 85.3848 68.1944 0.0000 -12.6661 0.0000
# 3 59.2261 68.1944 173.0481 0.0000 28.8972 0.0000
# 4 0.0000 0.0000 0.0000 52.7285 0.0000 7.5439
# 5 7.7677 -12.6661 28.8972 0.0000 22.8667 0.0000
# 6 0.0000 0.0000 0.0000 7.5439 0.0000 8.0914
#
#
#
# Elastic Compliance Matrix: (Units=1/GPa)
#
#
# Indices 1 2 3 4 5 6 
#
# 1 0.007542 -0.002895 -0.000944 0.000000 -0.002973 0.000000
# 2 -0.002895 0.038932 -0.022962 0.000000 0.051566 0.000000
# 3 -0.000944 -0.022962 0.021827 0.000000 -0.039982 0.000000
# 4 0.000000 0.000000 0.000000 0.021884 0.000000 -0.020403
# 5 -0.002973 0.051566 -0.039982 0.000000 0.123830 0.000000
# 6 0.000000 0.000000 0.000000 -0.020403 0.000000 0.142611
#
#
# Mechanical properties :
#
#
# Convention : Reuss Voigt Hill
#
# Bulk Modulus (GPa) = 68.03430 82.54589 75.29010
# Shear Modulus (GPa) = 12.04444 33.51688 22.78066
#
# Velocity S-wave (km/s) = 2.40375 4.00984 3.30581
# Velocity P-wave (km/s) = 6.35150 7.81265 7.11966
#
# Compressibility (1/GPa) = 0.01469847
#
# Stress axis : x y z
#
# Youngs Moduli (GPa) = 132.58405 25.68597 45.81440
#
# Poissons Ratio (x) = 0.07437 0.04325
# Poissons Ratio (y) = 0.38387 1.05200
# Poissons Ratio (z) = 0.12515 0.58980
#
# Static dielectric constant tensor:
#      x y z
#    x 1.819290 0.000000 0.002640 
#    y 0.000000 1.815280 0.000000 
#    z 0.002640 0.000000 1.760270 
# 
# From -- ./inp_files/159477.got.cif
#   From: 2010.05.17/outbox.cif.g08.bks.cpg/sg15_80_cif.got.tgz:159477.got - 2010.06.03 18:47:42.
