data_PCOD9273981
_publ_section_title
;
Structure prediction by ZEFSAII (Michael W. Deem and Ramdas Pophale) SiO2 
 PCOD9273981
Probable space group: C 2/C
;
_chemical_formula_sum "Si O2"
_cell_formula_units_Z 52
_cell_length_a 8.421716
_cell_length_b 27.922685
_cell_length_c 15.868673
_cell_angle_alpha 90.000000
_cell_angle_beta 42.130600
_cell_angle_gamma 90.000000
_cell_volume 2503.261321
_symmetry_space_group_name_H-M "C 2/C"
_symmetry_group_IT_number 15
_symmetry_cell_setting 'monoclinic'
loop_
_space_group_symop_operation_xyz
x,y,z
-x,y,1/2-z
-x,-y,-z
x,-y,1/2+z
1/2+x,1/2+y,z
1/2-x,1/2+y,1/2-z
1/2-x,1/2-y,-z
1/2+x,1/2-y,1/2+z
loop_
_atom_site_type_symbol
_atom_site_label
_atom_site_fract_x
_atom_site_fract_y
_atom_site_fract_z
Si Si1 0.527042 0.863210 0.116911
Si Si2 0.517059 0.590158 0.984400
Si Si3 0.000000 0.714225 0.750000
Si Si4 0.190922 0.060168 0.251263
Si Si5 0.261599 0.805411 0.620765
Si Si6 0.191348 0.046524 0.748611
Si Si7 0.444142 0.144535 0.369135
O O1 0.741338 0.883088 0.088638
O O2 0.401214 0.820259 0.216718
O O3 0.365279 0.909040 0.163909
O O4 0.643797 0.837252 0.991820
O O5 0.573559 0.553576 0.886948
O O6 0.423252 0.568834 0.110576
O O7 0.324806 0.627321 0.023302
O O8 0.802750 0.749656 0.867023
O O9 0.394464 0.099782 0.163855
O O10 0.000000 0.063682 0.250000
O O11 0.299479 0.006740 0.205087
O O12 0.457862 0.811666 0.615449
O O13 0.000000 0.824576 0.750000
O O14 0.000000 0.047611 0.750000
O O15 0.500000 0.153680 0.250000
#
# Coordination Sequence:
#
# PCOD9273981 Si02
#       7
#     8   8   4   8   8   8   8
#     4  12  22  45  66  93 129 173 209 274 321 384
#     4  11  22  37  65  87 135 167 214 260 323 380
#     4  10  24  42  70  92 124 164 226 260 338 374
#     4  10  22  39  62  96 127 172 219 261 315 384
#     4  10  22  40  69  92 122 166 214 267 323 381
#     4  11  24  40  62  92 132 172 216 261 323 381
#     4  10  20  38  60  93 129 161 211 264 313 377
#
# _framework density 20.772902999999999
#
# number of rings (size 3 to 8) (size 9 to 14) (size 15 to 20)
#    0.462    0.923    1.538    5.077    0.000    4.923 
#    0.000    5.385    0.000    0.000    0.000    0.000 
#    0.000    0.000    0.000    0.000    0.000    0.000 
#
# Total GULP energy -145079.854287 kJ/mol
# GULP energy per Si atom -5579.994396 kJ/mol
# Density = 2.072562 g / cm^3
# Si number density = 20.772903 Si / 1000 Ang^3
#
#
#
# Elastic Constant Matrix: (Units=GPa)
#
#
# Indices 1 2 3 4 5 6 
#
# 1 100.1328 23.1574 8.3845 0.0000 4.4978 0.0000
# 2 23.1574 106.7258 18.7305 0.0000 2.5006 0.0000
# 3 8.3845 18.7305 56.0299 0.0000 10.4331 0.0000
# 4 0.0000 0.0000 0.0000 26.2487 0.0000 -10.4311
# 5 4.4978 2.5006 10.4331 0.0000 32.4776 0.0000
# 6 0.0000 0.0000 0.0000 -10.4311 0.0000 13.1474
#
#
#
# Elastic Compliance Matrix: (Units=1/GPa)
#
#
# Indices 1 2 3 4 5 6 
#
# 1 0.010590 -0.002156 -0.000661 0.000000 -0.001088 0.000000
# 2 -0.002156 0.010396 -0.003254 0.000000 0.000543 0.000000
# 3 -0.000661 -0.003254 0.020178 0.000000 -0.006140 0.000000
# 4 0.000000 0.000000 0.000000 0.055640 0.000000 0.044144
# 5 -0.001088 0.000543 -0.006140 0.000000 0.032872 0.000000
# 6 0.000000 0.000000 0.000000 0.044144 0.000000 0.111085
#
#
# Mechanical properties :
#
#
# Convention : Reuss Voigt Hill
#
# Bulk Modulus (GPa) = 34.45829 40.38148 37.41989
# Shear Modulus (GPa) = 19.04214 28.54913 23.79564
#
# Velocity S-wave (km/s) = 3.03096 3.71124 3.38821
# Velocity P-wave (km/s) = 5.37337 6.15192 5.77577
#
# Compressibility (1/GPa) = 0.02902059
#
# Stress axis : x y z
#
# Youngs Moduli (GPa) = 94.43192 96.19102 49.55996
#
# Poissons Ratio (x) = 0.20741 0.03277
# Poissons Ratio (y) = 0.20361 0.16126
# Poissons Ratio (z) = 0.06244 0.31299
#
# Static dielectric constant tensor:
#      x y z
#    x 1.607600 0.000000 -0.056600 
#    y 0.000000 1.759170 0.000000 
#    z -0.056600 0.000000 1.713780 
# 
# From -- ./inp_files/193991.got.cif
#   From: 2010.05.17/outbox.cif.g08.bks.cpg/sg15_97_cif.got.tgz:193991.got - 2010.06.03 18:47:42.
