data_PCOD9273244
_publ_section_title
;
Structure prediction by ZEFSAII (Michael W. Deem and Ramdas Pophale) SiO2 
 PCOD9273244
Probable space group: C 2/C
;
_chemical_formula_sum "Si O2"
_cell_formula_units_Z 64
_cell_length_a 8.879387
_cell_length_b 18.374523
_cell_length_c 19.022025
_cell_angle_alpha 90.000000
_cell_angle_beta 76.796472
_cell_angle_gamma 90.000000
_cell_volume 3021.486706
_symmetry_space_group_name_H-M "C 2/C"
_symmetry_group_IT_number 15
_symmetry_cell_setting 'monoclinic'
loop_
_space_group_symop_operation_xyz
x,y,z
-x,y,1/2-z
-x,-y,-z
x,-y,1/2+z
1/2+x,1/2+y,z
1/2-x,1/2+y,1/2-z
1/2-x,1/2-y,-z
1/2+x,1/2-y,1/2+z
loop_
_atom_site_type_symbol
_atom_site_label
_atom_site_fract_x
_atom_site_fract_y
_atom_site_fract_z
Si Si1 0.714725 0.314107 0.558944
Si Si2 0.661501 0.007029 0.632196
Si Si3 0.314928 0.880756 0.769603
Si Si4 0.387947 0.568569 0.867320
Si Si5 0.288124 0.403549 0.229669
Si Si6 0.438893 0.420073 0.023069
Si Si7 0.844439 0.445992 0.614405
Si Si8 0.328967 0.753894 0.284851
O O1 0.750000 0.250000 0.500000
O O2 0.584870 0.364199 0.536751
O O3 0.847875 0.372808 0.567273
O O4 0.668670 0.280141 0.638100
O O5 0.721610 0.929403 0.657852
O O6 0.506698 0.986933 0.606957
O O7 0.652344 0.053648 0.705093
O O8 0.772350 0.058802 0.574536
O O9 0.500000 0.865803 0.750000
O O10 0.290604 0.925449 0.699556
O O11 0.221263 0.807071 0.766352
O O12 0.556030 0.555524 0.813446
O O13 0.288545 0.600660 0.813784
O O14 0.441410 0.610557 0.931201
O O15 0.288487 0.498873 0.900074
O O16 0.288731 0.320848 0.203876
O O17 0.500000 0.500000 0.000000
O O18 0.500000 0.781585 0.250000
#
# Coordination Sequence:
#
# PCOD9273244 Si02
#       8
#     8   8   8   8   8   8   8   8
#     4  11  24  47  66  91 140 184 223 271 350 420
#     4  10  21  37  64  95 132 162 220 286 333 390
#     4   9  20  37  59  91 131 168 207 278 344 392
#     4  10  20  37  63  96 127 164 219 276 326 401
#     4  10  22  38  63  98 129 169 212 286 346 387
#     4  11  23  40  64  93 129 184 229 270 330 414
#     4  10  20  38  65 100 122 170 218 274 339 396
#     4  11  26  41  67  98 129 177 230 280 345 417
#
# _framework density 21.181625
#
# number of rings (size 3 to 8) (size 9 to 14) (size 15 to 20)
#    0.000    1.750    2.500    1.500    5.250    1.500 
#    2.250    0.000    0.000    1.500    0.000    0.000 
#    0.000    0.000    0.000    0.000    0.000    0.000 
#
# Total GULP energy -178257.939565 kJ/mol
# GULP energy per Si atom -5570.560611 kJ/mol
# Density = 2.113342 g / cm^3
# Si number density = 21.181625 Si / 1000 Ang^3
#
#
#
# Elastic Constant Matrix: (Units=GPa)
#
#
# Indices 1 2 3 4 5 6 
#
# 1 73.0178 35.2153 26.1310 0.0000 19.2698 0.0000
# 2 35.2153 99.5001 37.0417 0.0000 15.7124 0.0000
# 3 26.1310 37.0417 79.7220 0.0000 34.2526 0.0000
# 4 0.0000 0.0000 0.0000 37.1176 0.0000 5.4249
# 5 19.2698 15.7124 34.2526 0.0000 33.2543 0.0000
# 6 0.0000 0.0000 0.0000 5.4249 0.0000 19.7931
#
#
#
# Elastic Compliance Matrix: (Units=1/GPa)
#
#
# Indices 1 2 3 4 5 6 
#
# 1 0.018368 -0.005170 -0.000170 0.000000 -0.008025 0.000000
# 2 -0.005170 0.013608 -0.005656 0.000000 0.002392 0.000000
# 3 -0.000170 -0.005656 0.025180 0.000000 -0.023165 0.000000
# 4 0.000000 0.000000 0.000000 0.028066 0.000000 -0.007692
# 5 -0.008025 0.002392 -0.023165 0.000000 0.057452 0.000000
# 6 0.000000 0.000000 0.000000 -0.007692 0.000000 0.052631
#
#
# Mechanical properties :
#
#
# Convention : Reuss Voigt Hill
#
# Bulk Modulus (GPa) = 28.43841 49.89063 39.16452
# Shear Modulus (GPa) = 21.83242 28.28980 25.06111
#
# Velocity S-wave (km/s) = 3.21397 3.65853 3.44343
# Velocity P-wave (km/s) = 5.21804 6.43827 5.86000
#
# Compressibility (1/GPa) = 0.03516371
#
# Stress axis : x y z
#
# Youngs Moduli (GPa) = 54.44392 73.48716 39.71394
#
# Poissons Ratio (x) = 0.37993 0.00676
# Poissons Ratio (y) = 0.28148 0.22461
# Poissons Ratio (z) = 0.00927 0.41562
#
# Static dielectric constant tensor:
#      x y z
#    x 1.821640 0.000000 0.003760 
#    y 0.000000 1.789950 0.000000 
#    z 0.003760 0.000000 1.844500 
# 
# From -- ./inp_files/232703.got.cif
#   From: 2010.05.17/outbox.cif.g08.bks.cpg/sg15_117_cif.got.tgz:232703.got - 2010.06.03 18:47:42.
