data_PCOD9273755
_publ_section_title
;
Structure prediction by ZEFSAII (Michael W. Deem and Ramdas Pophale) SiO2 
 PCOD9273755
Probable space group: C 2/C
;
_chemical_formula_sum "Si O2"
_cell_formula_units_Z 48
_cell_length_a 5.267544
_cell_length_b 26.344556
_cell_length_c 16.071837
_cell_angle_alpha 90.000000
_cell_angle_beta 97.619917
_cell_angle_gamma 90.000000
_cell_volume 2210.611917
_symmetry_space_group_name_H-M "C 2/C"
_symmetry_group_IT_number 15
_symmetry_cell_setting 'monoclinic'
loop_
_space_group_symop_operation_xyz
x,y,z
-x,y,1/2-z
-x,-y,-z
x,-y,1/2+z
1/2+x,1/2+y,z
1/2-x,1/2+y,1/2-z
1/2-x,1/2-y,-z
1/2+x,1/2-y,1/2+z
loop_
_atom_site_type_symbol
_atom_site_label
_atom_site_fract_x
_atom_site_fract_y
_atom_site_fract_z
Si Si1 0.472560 0.239294 0.075939
Si Si2 0.000000 0.485159 0.750000
Si Si3 0.000000 0.945241 0.250000
Si Si4 0.830226 0.472509 0.563421
Si Si5 0.364385 0.170339 0.546557
Si Si6 0.026390 0.924319 0.069334
Si Si7 0.738294 0.203574 0.697415
O O1 0.680036 0.284662 0.075026
O O2 0.338324 0.244278 0.158899
O O3 0.250000 0.250000 0.000000
O O4 0.590863 0.187424 0.046629
O O5 0.246180 0.520526 0.744931
O O6 0.045315 0.458418 0.842019
O O7 0.966814 0.914920 0.163004
O O8 0.696797 0.426512 0.508701
O O9 0.631607 0.517845 0.576144
O O10 0.000000 0.500000 0.500000
O O11 0.618020 0.172662 0.614606
O O12 0.232953 0.116512 0.550245
O O13 0.500000 0.208469 0.750000
O O14 0.000000 0.183530 0.750000
#
# Coordination Sequence:
#
# PCOD9273755 Si02
#       7
#     8   4   4   8   8   8   8
#     4   9  20  38  60  89 127 170 218 259 337 395
#     4  10  20  38  64  90 130 173 219 266 330 398
#     4  10  20  38  58  92 136 167 203 280 330 404
#     4  10  20  39  60  94 127 177 217 272 332 398
#     4  10  21  40  62  95 130 174 216 275 332 418
#     4  10  22  37  62  95 131 169 222 268 339 399
#     4  11  21  38  61  94 130 170 220 277 338 406
#
# _framework density 21.713443999999999
#
# number of rings (size 3 to 8) (size 9 to 14) (size 15 to 20)
#    0.000    2.000    3.333    0.000    0.000    4.000 
#    6.000    0.000    0.000    0.000   52.000    0.000 
#    0.000    0.000    0.000    0.000    0.000    0.000 
#
# Total GULP energy -133781.399687 kJ/mol
# GULP energy per Si atom -5574.224987 kJ/mol
# Density = 2.166402 g / cm^3
# Si number density = 21.713444 Si / 1000 Ang^3
#
#
#
# Elastic Constant Matrix: (Units=GPa)
#
#
# Indices 1 2 3 4 5 6 
#
# 1 127.4377 30.5221 56.7918 0.0000 15.5975 0.0000
# 2 30.5221 58.4041 53.7862 0.0000 7.6704 0.0000
# 3 56.7918 53.7862 186.3535 0.0000 19.3394 0.0000
# 4 0.0000 0.0000 0.0000 23.3115 0.0000 1.0141
# 5 15.5975 7.6704 19.3394 0.0000 47.6155 0.0000
# 6 0.0000 0.0000 0.0000 1.0141 0.0000 41.5588
#
#
#
# Elastic Compliance Matrix: (Units=1/GPa)
#
#
# Indices 1 2 3 4 5 6 
#
# 1 0.009644 -0.003085 -0.001850 0.000000 -0.001911 0.000000
# 2 -0.003085 0.024360 -0.006043 0.000000 -0.000459 0.000000
# 3 -0.001850 -0.006043 0.007841 0.000000 -0.001605 0.000000
# 4 0.000000 0.000000 0.000000 0.042943 0.000000 -0.001048
# 5 -0.001911 -0.000459 -0.001605 0.000000 0.022353 0.000000
# 6 0.000000 0.000000 0.000000 -0.001048 0.000000 0.024088
#
#
# Mechanical properties :
#
#
# Convention : Reuss Voigt Hill
#
# Bulk Modulus (GPa) = 50.28177 72.71059 61.49618
# Shear Modulus (GPa) = 31.28608 37.90350 34.59479
#
# Velocity S-wave (km/s) = 3.79999 4.18260 3.99588
# Velocity P-wave (km/s) = 6.51617 7.54219 7.04788
#
# Compressibility (1/GPa) = 0.01988792
#
# Stress axis : x y z
#
# Youngs Moduli (GPa) = 103.68752 41.05111 127.53827
#
# Poissons Ratio (x) = 0.12665 0.23600
# Poissons Ratio (y) = 0.31989 0.77071
# Poissons Ratio (z) = 0.19187 0.24807
#
# Static dielectric constant tensor:
#      x y z
#    x 1.865510 0.000000 -0.021790 
#    y 0.000000 1.808050 0.000000 
#    z -0.021790 0.000000 1.887220 
# 
# From -- ./inp_files/130106.got.cif
#   From: 2010.05.17/outbox.cif.g08.bks.cpg/sg15_66_cif.got.tgz:130106.got - 2010.06.03 18:47:42.
