data_PCOD9273738
_publ_section_title
;
Structure prediction by ZEFSAII (Michael W. Deem and Ramdas Pophale) SiO2 
 PCOD9273738
Probable space group: C 2/C
;
_chemical_formula_sum "Si O2"
_cell_formula_units_Z 52
_cell_length_a 11.777692
_cell_length_b 8.474549
_cell_length_c 27.075300
_cell_angle_alpha 90.000000
_cell_angle_beta 60.717050
_cell_angle_gamma 90.000000
_cell_volume 2357.075798
_symmetry_space_group_name_H-M "C 2/C"
_symmetry_group_IT_number 15
_symmetry_cell_setting 'monoclinic'
loop_
_space_group_symop_operation_xyz
x,y,z
-x,y,1/2-z
-x,-y,-z
x,-y,1/2+z
1/2+x,1/2+y,z
1/2-x,1/2+y,1/2-z
1/2-x,1/2-y,-z
1/2+x,1/2-y,1/2+z
loop_
_atom_site_type_symbol
_atom_site_label
_atom_site_fract_x
_atom_site_fract_y
_atom_site_fract_z
Si Si1 0.296685 0.717982 0.819487
Si Si2 0.756645 0.107554 0.068533
Si Si3 0.378436 0.092669 0.503696
Si Si4 0.000000 0.041812 0.250000
Si Si5 0.500000 0.043792 0.250000
Si Si6 0.339417 0.641463 0.445992
Si Si7 0.000000 0.000000 0.500000
Si Si8 0.476606 0.210020 0.672384
O O1 0.289589 0.800448 0.874301
O O2 0.387239 0.565655 0.797034
O O3 0.152606 0.680667 0.831726
O O4 0.373930 0.846357 0.770079
O O5 0.873282 0.221265 0.019021
O O6 0.849777 0.959899 0.056009
O O7 0.647425 0.087944 0.049786
O O8 0.500000 0.000000 0.500000
O O9 0.252578 0.002553 0.551951
O O10 0.946813 0.150861 0.217570
O O11 0.484535 0.936371 0.301593
O O12 0.250000 0.750000 0.500000
O O13 0.449884 0.565897 0.456672
O O14 0.408081 0.736766 0.388029
#
# Coordination Sequence:
#
# PCOD9273738 Si02
#       8
#     8   8   8   4   4   8   4   8
#     4  11  22  43  68  90 126 173 215 273 328 379
#     4  10  21  37  61  88 123 163 210 255 314 392
#     4  10  22  38  56  91 130 162 206 255 315 383
#     4  10  24  44  66  96 124 172 228 266 330 382
#     4  10  26  40  62 100 124 168 226 266 326 392
#     4  11  23  37  63  92 126 166 206 257 325 389
#     4  10  20  38  58  90 122 160 204 246 316 382
#     4  11  23  43  66  94 133 166 218 278 322 383
#
# _framework density 22.061233999999999
#
# number of rings (size 3 to 8) (size 9 to 14) (size 15 to 20)
#    0.000    1.538    1.538    2.769    4.308    0.000 
#    0.000    6.154    0.000    0.000    0.000    0.000 
#    0.000    0.000    0.000    0.000    0.000    0.000 
#
# Total GULP energy -144866.976032 kJ/mol
# GULP energy per Si atom -5571.806770 kJ/mol
# Density = 2.201102 g / cm^3
# Si number density = 22.061234 Si / 1000 Ang^3
#
#
#
# Elastic Constant Matrix: (Units=GPa)
#
#
# Indices 1 2 3 4 5 6 
#
# 1 142.1398 3.7526 2.2063 0.0000 8.5601 0.0000
# 2 3.7526 44.9605 -3.6570 0.0000 2.7650 0.0000
# 3 2.2063 -3.6570 64.0438 0.0000 1.9305 0.0000
# 4 0.0000 0.0000 0.0000 35.9825 0.0000 -6.2049
# 5 8.5601 2.7650 1.9305 0.0000 21.9528 0.0000
# 6 0.0000 0.0000 0.0000 -6.2049 0.0000 22.8912
#
#
#
# Elastic Compliance Matrix: (Units=1/GPa)
#
#
# Indices 1 2 3 4 5 6 
#
# 1 0.007215 -0.000449 -0.000192 0.000000 -0.002740 0.000000
# 2 -0.000449 0.022564 0.001388 0.000000 -0.002789 0.000000
# 3 -0.000192 0.001388 0.015745 0.000000 -0.001485 0.000000
# 4 0.000000 0.000000 0.000000 0.029154 0.000000 0.007902
# 5 -0.002740 -0.002789 -0.001485 0.000000 0.047103 0.000000
# 6 0.000000 0.000000 0.000000 0.007902 0.000000 0.045827
#
#
# Mechanical properties :
#
#
# Convention : Reuss Voigt Hill
#
# Bulk Modulus (GPa) = 21.26852 28.41643 24.84248
# Shear Modulus (GPa) = 27.50491 32.75478 30.12984
#
# Velocity S-wave (km/s) = 3.53477 3.85739 3.69960
# Velocity P-wave (km/s) = 5.13041 5.72258 5.43456
#
# Compressibility (1/GPa) = 0.04701785
#
# Stress axis : x y z
#
# Youngs Moduli (GPa) = 138.59679 44.31905 63.51255
#
# Poissons Ratio (x) = 0.01991 0.01217
# Poissons Ratio (y) = 0.06227 -0.08815
# Poissons Ratio (z) = 0.02656 -0.06151
#
# Static dielectric constant tensor:
#      x y z
#    x 1.655530 0.000000 0.033670 
#    y 0.000000 1.651840 0.000000 
#    z 0.033670 0.000000 1.844440 
# 
# From -- ./inp_files/291277.got.cif
#   From: 2010.05.17/outbox.cif.g08.bks.cpg/sg15_146_cif.got.tgz:291277.got - 2010.06.03 18:47:42.
