data_PCOD9273671
_publ_section_title
;
Structure prediction by ZEFSAII (Michael W. Deem and Ramdas Pophale) SiO2 
 PCOD9273671
Probable space group: C 2/C
;
_chemical_formula_sum "Si O2"
_cell_formula_units_Z 56
_cell_length_a 5.629329
_cell_length_b 17.217656
_cell_length_c 30.987382
_cell_angle_alpha 90.000000
_cell_angle_beta 107.321130
_cell_angle_gamma 90.000000
_cell_volume 2867.214642
_symmetry_space_group_name_H-M "C 2/C"
_symmetry_group_IT_number 15
_symmetry_cell_setting 'monoclinic'
loop_
_space_group_symop_operation_xyz
x,y,z
-x,y,1/2-z
-x,-y,-z
x,-y,1/2+z
1/2+x,1/2+y,z
1/2-x,1/2+y,1/2-z
1/2-x,1/2-y,-z
1/2+x,1/2-y,1/2+z
loop_
_atom_site_type_symbol
_atom_site_label
_atom_site_fract_x
_atom_site_fract_y
_atom_site_fract_z
Si Si1 0.460318 0.921918 0.611343
Si Si2 0.903902 0.872082 0.196594
Si Si3 0.288010 0.232251 0.137013
Si Si4 0.206821 0.157584 0.423044
Si Si5 0.008672 0.186003 0.571749
Si Si6 0.440169 0.411525 0.985525
Si Si7 0.328334 0.079747 0.649845
O O1 0.461108 0.842565 0.638765
O O2 0.723253 0.919180 0.601166
O O3 0.283346 0.910711 0.560448
O O4 0.357885 0.993216 0.632624
O O5 0.872449 0.781138 0.182494
O O6 0.615842 0.900629 0.177332
O O7 0.000000 0.883583 0.250000
O O8 0.116211 0.908621 0.175701
O O9 0.316944 0.293811 0.099403
O O10 0.018008 0.196030 0.116058
O O11 0.397000 0.229255 0.437225
O O12 0.150943 0.129523 0.468165
O O13 0.228545 0.136120 0.606214
O O14 0.900550 0.137275 0.526578
O O15 0.500000 0.500000 0.000000
#
# Coordination Sequence:
#
# PCOD9273671 Si02
#       7
#     8   8   8   8   8   8   8
#     4  10  23  39  60  91 130 173 216 260 318 383
#     4  11  24  45  72  99 122 161 214 268 329 406
#     4   9  21  39  64  87 125 165 211 263 331 379
#     4  10  21  37  57  85 123 173 214 264 310 375
#     4  10  20  38  57  88 125 175 213 263 310 378
#     4  11  22  35  54  90 127 171 226 264 306 363
#     4  11  23  42  69  95 134 166 209 264 332 381
#
# _framework density 19.53115
#
# number of rings (size 3 to 8) (size 9 to 14) (size 15 to 20)
#    0.000    1.714    2.857    0.857    4.000    6.857 
#    0.000    1.429    0.000    0.000    0.000    0.000 
#    0.000    0.000    0.000    0.000    0.000    0.000 
#
# Total GULP energy -155904.065045 kJ/mol
# GULP energy per Si atom -5568.002323 kJ/mol
# Density = 1.948670 g / cm^3
# Si number density = 19.531150 Si / 1000 Ang^3
#
#
#
# Elastic Constant Matrix: (Units=GPa)
#
#
# Indices 1 2 3 4 5 6 
#
# 1 83.3346 37.5246 43.6210 0.0000 -0.2075 0.0000
# 2 37.5246 109.7079 51.2228 0.0000 -11.5716 0.0000
# 3 43.6210 51.2228 105.4527 0.0000 0.7749 0.0000
# 4 0.0000 0.0000 0.0000 19.3237 0.0000 -8.7901
# 5 -0.2075 -11.5716 0.7749 0.0000 20.4017 0.0000
# 6 0.0000 0.0000 0.0000 -8.7901 0.0000 18.2743
#
#
#
# Elastic Compliance Matrix: (Units=1/GPa)
#
#
# Indices 1 2 3 4 5 6 
#
# 1 0.016135 -0.003323 -0.005049 0.000000 -0.001529 0.000000
# 2 -0.003323 0.013533 -0.005257 0.000000 0.007842 0.000000
# 3 -0.005049 -0.005257 0.014151 0.000000 -0.003570 0.000000
# 4 0.000000 0.000000 0.000000 0.066244 0.000000 0.031864
# 5 -0.001529 0.007842 -0.003570 0.000000 0.053583 0.000000
# 6 0.000000 0.000000 0.000000 0.031864 0.000000 0.070048
#
#
# Mechanical properties :
#
#
# Convention : Reuss Voigt Hill
#
# Bulk Modulus (GPa) = 60.37838 62.58132 61.47985
# Shear Modulus (GPa) = 18.76360 22.67508 20.71934
#
# Velocity S-wave (km/s) = 3.10288 3.41100 3.26058
# Velocity P-wave (km/s) = 6.61953 6.90106 6.76176
#
# Compressibility (1/GPa) = 0.01656222
#
# Stress axis : x y z
#
# Youngs Moduli (GPa) = 61.97656 73.89283 70.66527
#
# Poissons Ratio (x) = 0.24552 0.35680
# Poissons Ratio (y) = 0.20593 0.37147
# Poissons Ratio (z) = 0.31293 0.38844
#
# Static dielectric constant tensor:
#      x y z
#    x 1.857230 0.000000 -0.012680 
#    y 0.000000 1.703390 0.000000 
#    z -0.012680 0.000000 1.670530 
# 
# From -- ./inp_files/286111.got.cif
#   From: 2010.05.17/outbox.cif.g08.bks.cpg/sg15_144_cif.got.tgz:286111.got - 2010.06.03 18:47:42.
