data_PCOD9273097
_publ_section_title
;
Structure prediction by ZEFSAII (Michael W. Deem and Ramdas Pophale) SiO2 
 PCOD9273097
Probable space group: C 2/C
;
_chemical_formula_sum "Si O2"
_cell_formula_units_Z 52
_cell_length_a 15.263112
_cell_length_b 8.335630
_cell_length_c 22.265807
_cell_angle_alpha 90.000000
_cell_angle_beta 52.437888
_cell_angle_gamma 90.000000
_cell_volume 2245.561487
_symmetry_space_group_name_H-M "C 2/C"
_symmetry_group_IT_number 15
_symmetry_cell_setting 'monoclinic'
loop_
_space_group_symop_operation_xyz
x,y,z
-x,y,1/2-z
-x,-y,-z
x,-y,1/2+z
1/2+x,1/2+y,z
1/2-x,1/2+y,1/2-z
1/2-x,1/2-y,-z
1/2+x,1/2-y,1/2+z
loop_
_atom_site_type_symbol
_atom_site_label
_atom_site_fract_x
_atom_site_fract_y
_atom_site_fract_z
Si Si1 0.500000 0.462755 0.250000
Si Si2 0.811560 0.755888 0.365651
Si Si3 0.731480 0.543723 0.961736
Si Si4 0.131333 0.496222 0.385686
Si Si5 0.170064 0.140677 0.264466
Si Si6 0.088240 0.319223 0.023274
Si Si7 0.280991 0.034416 0.809043
O O1 0.420878 0.360514 0.327703
O O2 0.580986 0.566994 0.257139
O O3 0.754127 0.643998 0.439956
O O4 0.716925 0.871777 0.380212
O O5 0.847395 0.625579 0.299764
O O6 0.613471 0.629749 0.021196
O O7 0.765367 0.613529 0.881600
O O8 0.813223 0.598267 0.980029
O O9 0.205229 0.594484 0.308360
O O10 0.093348 0.622094 0.452451
O O11 0.026359 0.394851 0.407398
O O12 0.171307 0.330258 0.253888
O O13 0.169763 0.046338 0.327871
#
# Coordination Sequence:
#
# PCOD9273097 Si02
#       7
#     4   8   8   8   8   8   8
#     4  10  22  38  62  94 116 160 198 256 306 374
#     4   9  21  40  57  90 124 150 206 240 310 353
#     4   9  21  41  59  90 118 162 202 256 294 367
#     4  10  20  37  62  92 117 166 197 251 300 365
#     4  11  21  41  61  89 127 154 211 250 309 367
#     4  10  20  39  64  85 124 157 210 242 304 361
#     4  10  22  42  61  87 125 165 197 261 305 364
#
# _framework density 23.156790999999998
#
# number of rings (size 3 to 8) (size 9 to 14) (size 15 to 20)
#    0.923    1.231    1.538    1.846    0.000    4.308 
#    5.538    0.000    0.000    0.000    0.000    0.000 
#    0.000    0.000    0.000    0.000    0.000    0.000 
#
# Total GULP energy -144745.622386 kJ/mol
# GULP energy per Si atom -5567.139323 kJ/mol
# Density = 2.310408 g / cm^3
# Si number density = 23.156791 Si / 1000 Ang^3
#
#
#
# Elastic Constant Matrix: (Units=GPa)
#
#
# Indices 1 2 3 4 5 6 
#
# 1 87.0243 15.7525 13.1733 0.0000 -7.5131 0.0001
# 2 15.7525 97.4558 11.7140 0.0001 -8.7250 0.0002
# 3 13.1733 11.7140 41.2911 0.0000 -8.7247 0.0000
# 4 0.0000 0.0001 0.0000 -3.2622 0.0000 -26.7433
# 5 -7.5131 -8.7250 -8.7247 0.0000 37.5503 0.0000
# 6 0.0001 0.0002 0.0000 -26.7433 0.0000 -15.3073
#
#
#
# Elastic Compliance Matrix: (Units=1/GPa)
#
#
# Indices 1 2 3 4 5 6 
#
# 1 0.012369 -0.001487 -0.003233 0.000000 0.001378 0.000000
# 2 -0.001487 0.010927 -0.002263 0.000000 0.001716 0.000000
# 3 -0.003233 -0.002263 0.026968 0.000000 0.005093 0.000000
# 4 0.000000 0.000000 0.000000 0.023009 0.000000 -0.040199
# 5 0.001378 0.001716 0.005093 0.000000 0.028489 0.000000
# 6 0.000000 0.000000 0.000000 -0.040199 0.000000 0.004904
#
#
# Mechanical properties :
#
#
# Convention : Reuss Voigt Hill
#
# Bulk Modulus (GPa) = 27.55029 34.11676 30.83353
# Shear Modulus (GPa) = 37.67037 16.13824 26.90431
#
# Velocity S-wave (km/s) = 4.03768 2.64277 3.41226
# Velocity P-wave (km/s) = 5.80174 4.90686 5.37296
#
# Compressibility (1/GPa) = 0.03629726
#
# Stress axis : x y z
#
# Youngs Moduli (GPa) = 80.84979 91.51593 37.08119
#
# Poissons Ratio (x) = 0.13611 0.11988
# Poissons Ratio (y) = 0.12025 0.08391
# Poissons Ratio (z) = 0.26138 0.20709
#
# Static dielectric constant tensor:
#      x y z
#    x 1.833290 0.000000 0.059130 
#    y 0.000000 1.916340 0.000000 
#    z 0.059130 0.000000 2.017840 
# 
# From -- ./inp_files/294758.got.cif
#   From: 2010.05.17/outbox.cif.g08.bks.cpg/sg15_148_cif.got.tgz:294758.got - 2010.06.03 18:47:42.
