data_PCOD9273057
_publ_section_title
;
Structure prediction by ZEFSAII (Michael W. Deem and Ramdas Pophale) SiO2 
 PCOD9273057
Probable space group: C 2/C
;
_chemical_formula_sum "Si O2"
_cell_formula_units_Z 32
_cell_length_a 12.795798
_cell_length_b 13.332389
_cell_length_c 9.208722
_cell_angle_alpha 90.000000
_cell_angle_beta 97.275220
_cell_angle_gamma 90.000000
_cell_volume 1558.347080
_symmetry_space_group_name_H-M "C 2/C"
_symmetry_group_IT_number 15
_symmetry_cell_setting 'monoclinic'
loop_
_space_group_symop_operation_xyz
x,y,z
-x,y,1/2-z
-x,-y,-z
x,-y,1/2+z
1/2+x,1/2+y,z
1/2-x,1/2+y,1/2-z
1/2-x,1/2-y,-z
1/2+x,1/2-y,1/2+z
loop_
_atom_site_type_symbol
_atom_site_label
_atom_site_fract_x
_atom_site_fract_y
_atom_site_fract_z
Si Si1 0.880597 0.474714 0.020967
Si Si2 0.737426 0.185125 0.853892
Si Si3 0.576743 0.471902 0.142179
Si Si4 0.761102 0.613874 0.215377
O O1 0.822665 0.433712 0.865353
O O2 0.864412 0.385638 0.138267
O O3 0.820402 0.569950 0.083322
O O4 0.000000 0.500000 0.000000
O O5 0.834176 0.108790 0.872469
O O6 0.749822 0.266238 0.728318
O O7 0.750000 0.250000 0.000000
O O8 0.500000 0.431048 0.250000
O O9 0.643485 0.569020 0.200758
O O10 0.500000 0.500000 0.000000
#
# Coordination Sequence:
#
# PCOD9273057 Si02
#       4
#     8   8   8   8
#     4  10  20  37  62  90 121 159 199 253 310 359
#     4   9  20  38  59  87 120 155 200 249 298 359
#     4  11  22  40  63  88 120 162 201 248 306 361
#     4  10  21  41  61  89 125 156 203 256 299 363
#
# _framework density 20.534578
#
# number of rings (size 3 to 8) (size 9 to 14) (size 15 to 20)
#    0.000    2.000    0.000    5.250    0.000    4.000 
#    0.000   33.750    0.000    0.000    0.000    0.000 
#    0.000    0.000    0.000    0.000    0.000    0.000 
#
# Total GULP energy -89216.856799 kJ/mol
# GULP energy per Si atom -5576.053550 kJ/mol
# Density = 2.048784 g / cm^3
# Si number density = 20.534578 Si / 1000 Ang^3
#
#
#
# Elastic Constant Matrix: (Units=GPa)
#
#
# Indices 1 2 3 4 5 6 
#
# 1 146.5935 55.7538 35.2405 0.0000 -10.6164 0.0000
# 2 55.7538 133.3673 20.4697 0.0000 -5.8979 0.0000
# 3 35.2405 20.4697 51.2893 0.0000 -2.6244 0.0000
# 4 0.0000 0.0000 0.0000 31.4396 0.0000 0.5859
# 5 -10.6164 -5.8979 -2.6244 0.0000 46.6950 0.0000
# 6 0.0000 0.0000 0.0000 0.5859 0.0000 9.5630
#
#
#
# Elastic Compliance Matrix: (Units=1/GPa)
#
#
# Indices 1 2 3 4 5 6 
#
# 1 0.009313 -0.003045 -0.005109 0.000000 0.001446 0.000000
# 2 -0.003045 0.009015 -0.001487 0.000000 0.000363 0.000000
# 3 -0.005109 -0.001487 0.023600 0.000000 -0.000023 0.000000
# 4 0.000000 0.000000 0.000000 0.031843 0.000000 -0.001951
# 5 0.001446 0.000363 -0.000023 0.000000 0.021789 0.000000
# 6 0.000000 0.000000 0.000000 -0.001951 0.000000 0.104689
#
#
# Mechanical properties :
#
#
# Convention : Reuss Voigt Hill
#
# Bulk Modulus (GPa) = 44.16012 61.57535 52.86774
# Shear Modulus (GPa) = 22.01855 32.19193 27.10524
#
# Velocity S-wave (km/s) = 3.27810 3.96371 3.63709
# Velocity P-wave (km/s) = 5.98998 7.14138 6.59087
#
# Compressibility (1/GPa) = 0.02264487
#
# Stress axis : x y z
#
# Youngs Moduli (GPa) = 107.38079 110.92183 42.37234
#
# Poissons Ratio (x) = 0.33776 0.21650
# Poissons Ratio (y) = 0.32697 0.06302
# Poissons Ratio (z) = 0.54865 0.16498
#
# Static dielectric constant tensor:
#      x y z
#    x 1.650190 0.000000 0.042220 
#    y 0.000000 1.662550 0.000000 
#    z 0.042220 0.000000 1.703650 
# 
# From -- ./inp_files/27984.got.cif
#   From: 2010.05.17/outbox.cif.g08.bks.cpg/sg15_14_cif.got.tgz:27984.got - 2010.06.03 18:47:42.
