data_PCOD9273409
_publ_section_title
;
Structure prediction by ZEFSAII (Michael W. Deem and Ramdas Pophale) SiO2 
 PCOD9273409
Probable space group: C 2/C
;
_chemical_formula_sum "Si O2"
_cell_formula_units_Z 36
_cell_length_a 21.124226
_cell_length_b 12.510542
_cell_length_c 16.717316
_cell_angle_alpha 90.000000
_cell_angle_beta 18.885011
_cell_angle_gamma 90.000000
_cell_volume 1429.966296
_symmetry_space_group_name_H-M "C 2/C"
_symmetry_group_IT_number 15
_symmetry_cell_setting 'monoclinic'
loop_
_space_group_symop_operation_xyz
x,y,z
-x,y,1/2-z
-x,-y,-z
x,-y,1/2+z
1/2+x,1/2+y,z
1/2-x,1/2+y,1/2-z
1/2-x,1/2-y,-z
1/2+x,1/2-y,1/2+z
loop_
_atom_site_type_symbol
_atom_site_label
_atom_site_fract_x
_atom_site_fract_y
_atom_site_fract_z
Si Si1 0.488048 0.876341 0.100524
Si Si2 0.557188 0.587097 0.817266
Si Si3 0.413505 0.640769 0.160950
Si Si4 0.154352 0.605178 0.224627
Si Si5 0.000000 0.353135 0.750000
O O1 0.694301 0.885283 0.897487
O O2 0.532424 0.883212 0.952349
O O3 0.415185 0.755868 0.200161
O O4 0.368259 0.979739 0.270625
O O5 0.509537 0.460132 0.882317
O O6 0.784617 0.596453 0.524585
O O7 0.531480 0.638700 0.936118
O O8 0.381211 0.626792 0.970751
O O9 0.063056 0.679951 0.265536
#
# Coordination Sequence:
#
# PCOD9273409 Si02
#       5
#     8   8   8   8   4
#     4  10  20  37  65  92 115 153 204 247 286 348
#     4  10  22  39  62  89 119 157 197 243 297 347
#     4  10  20  37  65  92 115 153 204 247 286 348
#     4  10  22  39  62  89 119 157 197 243 297 347
#     4  12  22  40  60  86 124 164 184 250 296 360
#
# _framework density 25.175418000000001
#
# number of rings (size 3 to 8) (size 9 to 14) (size 15 to 20)
#    0.000    1.778    2.222    2.000    6.222    0.000 
#    0.000    2.222    0.000    0.000    0.000    0.000 
#    0.000    0.000    0.000    0.000    0.000    0.000 
#
# Total GULP energy -100528.626336 kJ/mol
# GULP energy per Si atom -5584.923685 kJ/mol
# Density = 2.511812 g / cm^3
# Si number density = 25.175418 Si / 1000 Ang^3
#
#
#
# Elastic Constant Matrix: (Units=GPa)
#
#
# Indices 1 2 3 4 5 6 
#
# 1 105.6349 16.5666 51.2420 -0.0002 -46.5685 0.0000
# 2 16.5666 163.3107 37.5404 -0.0002 -13.3114 0.0004
# 3 51.2420 37.5404 149.5028 -0.0002 -10.8459 0.0006
# 4 -0.0002 -0.0002 -0.0002 27.0281 0.0013 -12.5734
# 5 -46.5685 -13.3114 -10.8459 0.0013 11.1574 -0.0005
# 6 0.0000 0.0004 0.0006 -12.5734 -0.0005 9.7693
#
#
#
# Elastic Compliance Matrix: (Units=1/GPa)
#
#
# Indices 1 2 3 4 5 6 
#
# 1 -0.009980 -0.002794 0.000924 0.000002 -0.044090 0.000001
# 2 -0.002794 0.006207 -0.000979 0.000000 -0.005206 0.000000
# 3 0.000924 -0.000979 0.007330 -0.000001 0.009812 -0.000001
# 4 0.000002 0.000000 -0.000001 0.092201 0.000004 0.118666
# 5 -0.044090 -0.005206 0.009812 0.000004 -0.091067 0.000000
# 6 0.000001 0.000000 -0.000001 0.118666 0.000000 0.255087
#
#
# Mechanical properties :
#
#
# Convention : Reuss Voigt Hill
#
# Bulk Modulus (GPa) = -467.17053 69.90515 -198.63269
# Shear Modulus (GPa) = 18.88482 30.46427 24.67454
#
# Velocity S-wave (km/s) = 2.74182 3.48239 3.13406
# Velocity P-wave (km/s) = 13.26445 6.63302 8.12246
#
# Compressibility (1/GPa) = -0.00214055
#
# Stress axis : x y z
#
# Youngs Moduli (GPa) = -100.19971 161.09896 136.42740
#
# Poissons Ratio (x) = 0.45006 -0.12601
# Poissons Ratio (y) = -0.27992 0.13354
# Poissons Ratio (z) = 0.09255 0.15769
#
# Static dielectric constant tensor:
#      x y z
#    x 2.018660 0.000000 0.060380 
#    y 0.000000 2.063920 0.000000 
#    z 0.060380 0.000000 1.926550 
# 
# From -- ./inp_files/215530.got.cif
#   From: 2010.05.17/outbox.cif.g08.bks.cpg/sg15_108_cif.got.tgz:215530.got - 2010.06.03 18:47:42.
