data_PCOD9273080
_publ_section_title
;
Structure prediction by ZEFSAII (Michael W. Deem and Ramdas Pophale) SiO2 
 PCOD9273080
Probable space group: C 2/C
;
_chemical_formula_sum "Si O2"
_cell_formula_units_Z 60
_cell_length_a 20.078413
_cell_length_b 11.692653
_cell_length_c 20.482894
_cell_angle_alpha 90.000000
_cell_angle_beta 41.348670
_cell_angle_gamma 90.000000
_cell_volume 3176.862072
_symmetry_space_group_name_H-M "C 2/C"
_symmetry_group_IT_number 15
_symmetry_cell_setting 'monoclinic'
loop_
_space_group_symop_operation_xyz
x,y,z
-x,y,1/2-z
-x,-y,-z
x,-y,1/2+z
1/2+x,1/2+y,z
1/2-x,1/2+y,1/2-z
1/2-x,1/2-y,-z
1/2+x,1/2-y,1/2+z
loop_
_atom_site_type_symbol
_atom_site_label
_atom_site_fract_x
_atom_site_fract_y
_atom_site_fract_z
Si Si1 0.669627 0.990204 0.915078
Si Si2 0.395274 0.437273 0.092097
Si Si3 0.898796 0.299387 0.354705
Si Si4 0.655671 0.668659 0.734591
Si Si5 0.000000 0.268107 0.750000
Si Si6 0.027943 0.533917 0.135050
Si Si7 0.193807 0.765227 0.445200
Si Si8 0.811767 0.573558 0.248459
O O1 0.701206 0.868600 0.922434
O O2 0.657054 0.960860 0.848129
O O3 0.754824 0.087139 0.855008
O O4 0.575600 0.033250 0.027544
O O5 0.396809 0.391966 0.165087
O O6 0.370145 0.333126 0.061381
O O7 0.296933 0.518668 0.158210
O O8 0.500000 0.500000 0.000000
O O9 0.928919 0.423268 0.360563
O O10 0.859452 0.226616 0.445147
O O11 0.807613 0.308775 0.370796
O O12 0.000000 0.248444 0.250000
O O13 0.579407 0.694844 0.732210
O O14 0.693877 0.790831 0.734283
O O15 0.052231 0.352885 0.658774
O O16 0.906655 0.529960 0.220784
#
# Coordination Sequence:
#
# PCOD9273080 Si02
#       8
#     8   8   8   8   4   8   8   8
#     4  10  21  40  62  91 126 162 209 257 313 369
#     4  11  24  43  64  92 128 166 209 262 318 372
#     4  10  20  37  62  91 120 162 203 253 317 362
#     4  10  23  43  62  95 125 168 211 256 318 372
#     4  10  22  40  62  90 130 162 212 260 304 386
#     4  10  20  37  64  92 120 159 208 257 313 370
#     4  10  22  40  60  93 126 156 212 256 300 385
#     4  10  21  40  66  89 124 161 211 262 303 377
#
# _framework density 18.886561
#
# number of rings (size 3 to 8) (size 9 to 14) (size 15 to 20)
#    0.000    1.867    2.000    1.200    1.867    4.800 
#   18.000    0.000    0.000    0.000    0.000    0.000 
#    0.000    0.000    0.000    0.000    0.000    0.000 
#
# Total GULP energy -167374.393808 kJ/mol
# GULP energy per Si atom -5579.146460 kJ/mol
# Density = 1.884357 g / cm^3
# Si number density = 18.886561 Si / 1000 Ang^3
#
#
#
# Elastic Constant Matrix: (Units=GPa)
#
#
# Indices 1 2 3 4 5 6 
#
# 1 112.2596 46.4310 53.7892 0.0000 -16.3148 0.0000
# 2 46.4310 102.2889 55.8091 0.0000 -16.5530 0.0000
# 3 53.7892 55.8091 130.6310 0.0000 -15.5984 0.0000
# 4 0.0000 0.0000 0.0000 20.5351 0.0000 9.0749
# 5 -16.3148 -16.5530 -15.5984 0.0000 23.6360 0.0000
# 6 0.0000 0.0000 0.0000 9.0749 0.0000 5.7488
#
#
#
# Elastic Compliance Matrix: (Units=1/GPa)
#
#
# Indices 1 2 3 4 5 6 
#
# 1 0.012383 -0.003174 -0.003243 0.000000 0.004184 0.000000
# 2 -0.003174 0.014336 -0.004212 0.000000 0.005069 0.000000
# 3 -0.003243 -0.004212 0.011041 0.000000 0.002098 0.000000
# 4 0.000000 0.000000 0.000000 0.161034 0.000000 -0.254202
# 5 0.004184 0.005069 0.002098 0.000000 0.050130 0.000000
# 6 0.000000 0.000000 0.000000 -0.254202 0.000000 0.575225
#
#
# Mechanical properties :
#
#
# Convention : Reuss Voigt Hill
#
# Bulk Modulus (GPa) = 60.60693 73.02648 66.81671
# Shear Modulus (GPa) = 5.87608 22.59400 14.23504
#
# Velocity S-wave (km/s) = 1.76579 3.46251 2.74836
# Velocity P-wave (km/s) = 6.02636 7.39832 6.74730
#
# Compressibility (1/GPa) = 0.01649976
#
# Stress axis : x y z
#
# Youngs Moduli (GPa) = 80.75727 69.75654 90.57493
#
# Poissons Ratio (x) = 0.22143 0.29374
# Poissons Ratio (y) = 0.25635 0.38152
# Poissons Ratio (z) = 0.26190 0.29383
#
# Static dielectric constant tensor:
#      x y z
#    x 1.664060 0.000000 0.036950 
#    y 0.000000 1.642430 0.000000 
#    z 0.036950 0.000000 1.672520 
# 
# From -- ./inp_files/248752.got.cif
#   From: 2010.05.17/outbox.cif.g08.bks.cpg/sg15_125_cif.got.tgz:248752.got - 2010.06.03 18:47:42.
