data_PCOD9273201
_publ_section_title
;
Structure prediction by ZEFSAII (Michael W. Deem and Ramdas Pophale) SiO2 
 PCOD9273201
Probable space group: C 2/C
;
_chemical_formula_sum "Si O2"
_cell_formula_units_Z 56
_cell_length_a 6.955855
_cell_length_b 14.246761
_cell_length_c 25.969137
_cell_angle_alpha 90.000000
_cell_angle_beta 62.008332
_cell_angle_gamma 90.000000
_cell_volume 2272.441322
_symmetry_space_group_name_H-M "C 2/C"
_symmetry_group_IT_number 15
_symmetry_cell_setting 'monoclinic'
loop_
_space_group_symop_operation_xyz
x,y,z
-x,y,1/2-z
-x,-y,-z
x,-y,1/2+z
1/2+x,1/2+y,z
1/2-x,1/2+y,1/2-z
1/2-x,1/2-y,-z
1/2+x,1/2-y,1/2+z
loop_
_atom_site_type_symbol
_atom_site_label
_atom_site_fract_x
_atom_site_fract_y
_atom_site_fract_z
Si Si1 0.374521 0.830612 0.381832
Si Si2 0.680078 0.356865 0.568821
Si Si3 0.188700 0.776835 0.772007
Si Si4 0.248656 0.197149 0.445503
Si Si5 0.767275 0.491631 0.471072
Si Si6 0.509694 0.543344 0.310090
Si Si7 0.528445 0.667153 0.839506
O O1 0.243974 0.749246 0.429479
O O2 0.594695 0.786717 0.330406
O O3 0.377104 0.921266 0.416657
O O4 0.234841 0.853940 0.349825
O O5 0.467401 0.331484 0.560093
O O6 0.797642 0.437398 0.521245
O O7 0.638240 0.397107 0.631443
O O8 0.217611 0.884277 0.787422
O O9 0.386386 0.728890 0.718335
O O10 0.000000 0.780050 0.750000
O O11 0.250000 0.250000 0.500000
O O12 0.370275 0.268931 0.392710
O O13 0.347674 0.095773 0.448032
O O14 0.500000 0.500000 0.500000
O O15 0.500000 0.534400 0.250000
O O16 0.465311 0.437608 0.332942
#
# Coordination Sequence:
#
# PCOD9273201 Si02
#       7
#     8   8   8   8   8   8   8
#     4  10  20  39  62  87 120 167 212 251 312 391
#     4  10  21  41  64  88 127 169 208 255 322 396
#     4   8  19  37  58  85 120 164 211 254 309 377
#     4  11  23  39  61  95 131 163 208 266 323 378
#     4  10  20  37  63  91 123 164 204 255 318 377
#     4  10  21  39  61  86 120 164 209 261 319 374
#     4  11  21  38  63  90 122 161 211 270 314 365
#
# _framework density 24.643101999999999
#
# number of rings (size 3 to 8) (size 9 to 14) (size 15 to 20)
#    0.000    2.000    0.000    5.571    0.000    3.429 
#    0.000    8.571    0.000    0.000    0.000    0.000 
#    0.000    0.000    0.000    0.000    0.000    0.000 
#
# Total GULP energy -156092.711001 kJ/mol
# GULP energy per Si atom -5574.739679 kJ/mol
# Density = 2.458701 g / cm^3
# Si number density = 24.643102 Si / 1000 Ang^3
#
#
#
# Elastic Constant Matrix: (Units=GPa)
#
#
# Indices 1 2 3 4 5 6 
#
# 1 61.0905 5.8622 36.2927 0.0001 11.2072 -0.0001
# 2 5.8622 259.8305 97.5240 0.0001 -6.4745 0.0000
# 3 36.2927 97.5240 180.7355 0.0001 10.8596 -0.0001
# 4 0.0001 0.0001 0.0001 30.8374 -0.0001 -15.0846
# 5 11.2072 -6.4745 10.8596 -0.0001 38.1249 0.0000
# 6 -0.0001 0.0000 -0.0001 -15.0846 0.0000 31.3273
#
#
#
# Elastic Compliance Matrix: (Units=1/GPa)
#
#
# Indices 1 2 3 4 5 6 
#
# 1 0.019585 0.001036 -0.004229 0.000000 -0.004377 0.000000
# 2 0.001036 0.004977 -0.002977 0.000000 0.001389 0.000000
# 3 -0.004229 -0.002977 0.008083 0.000000 -0.001565 0.000000
# 4 0.000000 0.000000 0.000000 0.042420 0.000000 0.020426
# 5 -0.004377 0.001389 -0.001565 0.000000 0.028198 0.000000
# 6 0.000000 0.000000 0.000000 0.020426 0.000000 0.041756
#
#
# Mechanical properties :
#
#
# Convention : Reuss Voigt Hill
#
# Bulk Modulus (GPa) = 49.24852 86.77937 68.01395
# Shear Modulus (GPa) = 30.46413 44.18975 37.32694
#
# Velocity S-wave (km/s) = 3.51980 4.23920 3.89614
# Velocity P-wave (km/s) = 6.04539 7.69753 6.92094
#
# Compressibility (1/GPa) = 0.02030518
#
# Stress axis : x y z
#
# Youngs Moduli (GPa) = 51.05945 200.90880 123.72054
#
# Poissons Ratio (x) = -0.20822 0.52322
# Poissons Ratio (y) = -0.05292 0.36836
# Poissons Ratio (z) = 0.21593 0.59817
#
# Static dielectric constant tensor:
#      x y z
#    x 2.303830 0.000000 0.042920 
#    y 0.000000 1.924350 0.000000 
#    z 0.042920 0.000000 1.979310 
# 
# From -- ./inp_files/307430.got.cif
#   From: 2010.05.17/outbox.cif.g08.bks.cpg/sg15_154_cif.got.tgz:307430.got - 2010.06.03 18:47:42.
