data_PCOD9273375
_publ_section_title
;
Structure prediction by ZEFSAII (Michael W. Deem and Ramdas Pophale) SiO2 
 PCOD9273375
Probable space group: C 2/C
;
_chemical_formula_sum "Si O2"
_cell_formula_units_Z 52
_cell_length_a 12.726213
_cell_length_b 28.193877
_cell_length_c 11.993641
_cell_angle_alpha 90.000000
_cell_angle_beta 142.185745
_cell_angle_gamma 90.000000
_cell_volume 2638.389536
_symmetry_space_group_name_H-M "C 2/C"
_symmetry_group_IT_number 15
_symmetry_cell_setting 'monoclinic'
loop_
_space_group_symop_operation_xyz
x,y,z
-x,y,1/2-z
-x,-y,-z
x,-y,1/2+z
1/2+x,1/2+y,z
1/2-x,1/2+y,1/2-z
1/2-x,1/2-y,-z
1/2+x,1/2-y,1/2+z
loop_
_atom_site_type_symbol
_atom_site_label
_atom_site_fract_x
_atom_site_fract_y
_atom_site_fract_z
Si Si1 0.665978 0.456478 0.459051
Si Si2 0.744104 0.805219 0.120730
Si Si3 0.603354 0.907307 0.034446
Si Si4 0.181557 0.444194 0.342457
Si Si5 0.796268 0.895286 0.806964
Si Si6 0.000000 0.910852 0.750000
Si Si7 0.135377 0.799123 0.526624
O O1 0.500000 0.473489 0.250000
O O2 0.791129 0.428669 0.480455
O O3 0.760069 0.501750 0.588114
O O4 0.609736 0.421560 0.511157
O O5 0.646328 0.851566 0.078620
O O6 0.662736 0.755018 0.086280
O O7 0.938129 0.806450 0.327723
O O8 0.754186 0.805973 0.994097
O O9 0.660215 0.933179 0.194678
O O10 0.400412 0.911696 0.848736
O O11 0.331739 0.414226 0.525125
O O12 0.000000 0.435921 0.250000
O O13 0.810092 0.839106 0.840923
O O14 0.873440 0.908028 0.753457
#
# Coordination Sequence:
#
# PCOD9273375 Si02
#       7
#     8   8   8   8   8   4   8
#     4  12  26  43  69 101 134 174 226 284 341 396
#     4  10  20  37  65 101 133 170 214 276 339 393
#     4  12  25  43  70 100 136 176 225 280 340 398
#     4  12  26  46  69  97 136 180 229 278 335 408
#     4  12  25  43  68  99 138 179 223 280 333 406
#     4  12  26  46  68  94 136 186 232 270 338 398
#     4  10  20  37  65  99 136 169 214 274 338 395
#
# _framework density 19.708993
#
# number of rings (size 3 to 8) (size 9 to 14) (size 15 to 20)
#    0.000    0.615    3.846    5.077    2.154    3.692 
#    0.000    0.000    1.692    2.769    0.000    0.000 
#    0.000    0.000    0.000    0.000    0.000    0.000 
#
# Total GULP energy -145013.898329 kJ/mol
# GULP energy per Si atom -5577.457628 kJ/mol
# Density = 1.966413 g / cm^3
# Si number density = 19.708993 Si / 1000 Ang^3
#
#
#
# Elastic Constant Matrix: (Units=GPa)
#
#
# Indices 1 2 3 4 5 6 
#
# 1 79.5860 35.6726 7.5292 0.0000 -16.9200 0.0000
# 2 35.6726 181.4812 32.9558 0.0000 -16.6745 0.0000
# 3 7.5292 32.9558 74.8101 0.0000 -2.2429 0.0000
# 4 0.0000 0.0000 0.0000 8.8855 0.0000 -7.5971
# 5 -16.9200 -16.6745 -2.2429 0.0000 40.8247 0.0000
# 6 0.0000 0.0000 0.0000 -7.5971 0.0000 -19.8385
#
#
#
# Elastic Compliance Matrix: (Units=1/GPa)
#
#
# Indices 1 2 3 4 5 6 
#
# 1 0.014747 -0.002376 -0.000284 0.000000 0.005126 0.000000
# 2 -0.002376 0.006597 -0.002620 0.000000 0.001566 0.000000
# 3 -0.000284 -0.002620 0.014538 0.000000 -0.000389 0.000000
# 4 0.000000 0.000000 0.000000 0.084783 0.000000 -0.032468
# 5 0.005126 0.001566 -0.000389 0.000000 0.027237 0.000000
# 6 0.000000 0.000000 0.000000 -0.032468 0.000000 -0.037974
#
#
# Mechanical properties :
#
#
# Convention : Reuss Voigt Hill
#
# Bulk Modulus (GPa) = 39.49136 54.24360 46.86748
# Shear Modulus (GPa) = 38.78102 23.28899 31.03500
#
# Velocity S-wave (km/s) = 4.44067 3.44123 3.97251
# Velocity P-wave (km/s) = 6.80980 6.58570 6.69869
#
# Compressibility (1/GPa) = 0.02532199
#
# Stress axis : x y z
#
# Youngs Moduli (GPa) = 67.81194 151.58587 68.78405
#
# Poissons Ratio (x) = 0.36020 0.01951
# Poissons Ratio (y) = 0.16113 0.18022
# Poissons Ratio (z) = 0.01924 0.39716
#
# Static dielectric constant tensor:
#      x y z
#    x 1.670900 0.000000 0.013480 
#    y 0.000000 1.695030 0.000000 
#    z 0.013480 0.000000 1.692240 
# 
# From -- ./inp_files/92630.got.cif
#   From: 2010.05.17/outbox.cif.g08.bks.cpg/sg15_47_cif.got.tgz:92630.got - 2010.06.03 18:47:42.
