data_PCOD9273283
_publ_section_title
;
Structure prediction by ZEFSAII (Michael W. Deem and Ramdas Pophale) SiO2 
 PCOD9273283
Probable space group: C 2/C
;
_chemical_formula_sum "Si O2"
_cell_formula_units_Z 40
_cell_length_a 25.032871
_cell_length_b 8.474101
_cell_length_c 16.485903
_cell_angle_alpha 90.000000
_cell_angle_beta 31.012541
_cell_angle_gamma 90.000000
_cell_volume 1801.833011
_symmetry_space_group_name_H-M "C 2/C"
_symmetry_group_IT_number 15
_symmetry_cell_setting 'monoclinic'
loop_
_space_group_symop_operation_xyz
x,y,z
-x,y,1/2-z
-x,-y,-z
x,-y,1/2+z
1/2+x,1/2+y,z
1/2-x,1/2+y,1/2-z
1/2-x,1/2-y,-z
1/2+x,1/2-y,1/2+z
loop_
_atom_site_type_symbol
_atom_site_label
_atom_site_fract_x
_atom_site_fract_y
_atom_site_fract_z
Si Si1 0.906486 0.375352 0.132616
Si Si2 0.394547 0.799461 0.839253
Si Si3 0.550908 0.685849 0.259696
Si Si4 0.481930 0.400379 0.441157
Si Si5 0.263043 0.513686 0.050155
O O1 0.933231 0.286096 0.181360
O O2 0.797030 0.458256 0.291705
O O3 0.903503 0.239242 0.068056
O O4 0.000000 0.500000 0.000000
O O5 0.500000 0.832944 0.750000
O O6 0.423746 0.703601 0.718585
O O7 0.325290 0.944634 0.901581
O O8 0.325669 0.676382 0.979502
O O9 0.500000 0.771897 0.250000
O O10 0.474834 0.537922 0.382766
O O11 0.659181 0.612666 0.089207
O O12 0.500000 0.500000 0.500000
#
# Coordination Sequence:
#
# PCOD9273283 Si02
#       5
#     8   8   8   8   8
#     4  11  21  38  62  91 127 163 204 266 324 363
#     4  10  20  37  64  90 121 165 216 253 306 387
#     4  10  22  42  65  90 124 171 220 251 304 388
#     4   9  18  35  61  83 117 165 198 255 318 359
#     4  10  20  37  64  88 120 169 208 257 318 370
#
# _framework density 22.199615000000001
#
# number of rings (size 3 to 8) (size 9 to 14) (size 15 to 20)
#    0.000    2.000    2.000    3.000    0.000    0.800 
#    0.000    4.000   22.000    0.000    0.000    0.000 
#    0.000    0.000    0.000    0.000    0.000    0.000 
#
# Total GULP energy -111555.844661 kJ/mol
# GULP energy per Si atom -5577.792233 kJ/mol
# Density = 2.214909 g / cm^3
# Si number density = 22.199615 Si / 1000 Ang^3
#
#
#
# Elastic Constant Matrix: (Units=GPa)
#
#
# Indices 1 2 3 4 5 6 
#
# 1 74.2848 8.9059 30.6822 0.0003 -10.1248 -0.0001
# 2 8.9059 80.6732 57.5299 -0.0013 0.8745 0.0011
# 3 30.6822 57.5299 142.2286 -0.0021 10.6352 0.0011
# 4 0.0003 -0.0013 -0.0021 43.7814 0.0009 10.5656
# 5 -10.1248 0.8745 10.6352 0.0009 34.3847 -0.0004
# 6 -0.0001 0.0011 0.0011 10.5656 -0.0004 24.5366
#
#
#
# Elastic Compliance Matrix: (Units=1/GPa)
#
#
# Indices 1 2 3 4 5 6 
#
# 1 0.015955 0.001335 -0.004433 -0.000001 0.006035 0.000001
# 2 0.001335 0.017639 -0.007594 0.000000 0.002293 -0.000001
# 3 -0.004433 -0.007594 0.011406 0.000001 -0.004640 -0.000001
# 4 -0.000001 0.000000 0.000001 0.025490 -0.000001 -0.010976
# 5 0.006035 0.002293 -0.004640 -0.000001 0.032237 0.000001
# 6 0.000001 -0.000001 -0.000001 -0.010976 0.000001 0.045482
#
#
# Mechanical properties :
#
#
# Convention : Reuss Voigt Hill
#
# Bulk Modulus (GPa) = 42.34606 54.60249 48.47428
# Shear Modulus (GPa) = 28.17450 33.87846 31.02648
#
# Velocity S-wave (km/s) = 3.56637 3.91075 3.74252
# Velocity P-wave (km/s) = 6.00626 6.71130 6.36854
#
# Compressibility (1/GPa) = 0.02361495
#
# Stress axis : x y z
#
# Youngs Moduli (GPa) = 62.67508 56.69224 87.67333
#
# Poissons Ratio (x) = -0.07566 0.38866
# Poissons Ratio (y) = -0.08364 0.66581
# Poissons Ratio (z) = 0.27784 0.43053
#
# Static dielectric constant tensor:
#      x y z
#    x 1.842490 0.000000 0.005820 
#    y 0.000000 1.861960 0.000000 
#    z 0.005820 0.000000 1.844270 
# 
# From -- ./inp_files/221783.got.cif
#   From: 2010.05.17/outbox.cif.g08.bks.cpg/sg15_111_cif.got.tgz:221783.got - 2010.06.03 18:47:42.
