data_PCOD9273300
_publ_section_title
;
Structure prediction by ZEFSAII (Michael W. Deem and Ramdas Pophale) SiO2 
 PCOD9273300
Probable space group: C 2/C
;
_chemical_formula_sum "Si O2"
_cell_formula_units_Z 64
_cell_length_a 8.604351
_cell_length_b 18.569762
_cell_length_c 30.070161
_cell_angle_alpha 90.000000
_cell_angle_beta 42.613501
_cell_angle_gamma 90.000000
_cell_volume 3252.973824
_symmetry_space_group_name_H-M "C 2/C"
_symmetry_group_IT_number 15
_symmetry_cell_setting 'monoclinic'
loop_
_space_group_symop_operation_xyz
x,y,z
-x,y,1/2-z
-x,-y,-z
x,-y,1/2+z
1/2+x,1/2+y,z
1/2-x,1/2+y,1/2-z
1/2-x,1/2-y,-z
1/2+x,1/2-y,1/2+z
loop_
_atom_site_type_symbol
_atom_site_label
_atom_site_fract_x
_atom_site_fract_y
_atom_site_fract_z
Si Si1 0.775681 0.960940 0.064910
Si Si2 0.034570 0.141314 0.634608
Si Si3 0.304151 0.690463 0.595885
Si Si4 0.518528 0.064723 0.532252
Si Si5 0.812905 0.802616 0.946836
Si Si6 0.236660 0.503479 0.675375
Si Si7 0.770993 0.840979 0.691828
Si Si8 0.644315 0.217283 0.764518
O O1 0.851929 0.877829 0.055210
O O2 0.581821 0.965283 0.067780
O O3 0.711551 0.992309 0.127111
O O4 0.000000 0.000000 0.000000
O O5 0.967560 0.186418 0.604359
O O6 0.892786 0.181445 0.703859
O O7 0.299010 0.118497 0.582382
O O8 0.912382 0.064884 0.652065
O O9 0.311231 0.766182 0.569512
O O10 0.033694 0.677730 0.665132
O O11 0.724385 0.117497 0.474242
O O12 0.500000 0.000000 0.500000
O O13 0.083135 0.804423 0.878398
O O14 0.750000 0.750000 0.000000
O O15 0.312072 0.425595 0.677343
O O16 0.000000 0.520812 0.750000
O O17 0.500000 0.830624 0.750000
O O18 0.846434 0.798943 0.720117
O O19 0.500000 0.214389 0.750000
#
# Coordination Sequence:
#
# PCOD9273300 Si02
#       8
#     8   8   8   8   8   8   8   8
#     4  11  21  38  64  86 119 166 213 251 324 394
#     4  10  20  37  64  90 128 161 211 266 320 385
#     4   9  19  38  61  89 118 170 208 249 319 386
#     4  12  25  40  61  98 133 165 213 277 332 385
#     4  11  22  39  62  89 130 164 210 264 320 384
#     4  10  21  42  63  89 125 174 216 262 322 394
#     4  10  22  38  62  88 120 161 216 260 304 380
#     4   9  19  37  62  89 123 162 202 258 318 378
#
# _framework density 19.674306999999999
#
# number of rings (size 3 to 8) (size 9 to 14) (size 15 to 20)
#    0.000    1.750    1.250    4.875    1.750    0.500 
#    0.000   11.875    0.000    0.000    0.000    0.000 
#    0.000    0.000    0.000    0.000    0.000    0.000 
#
# Total GULP energy -178344.040043 kJ/mol
# GULP energy per Si atom -5573.251251 kJ/mol
# Density = 1.962953 g / cm^3
# Si number density = 19.674307 Si / 1000 Ang^3
#
#
#
# Elastic Constant Matrix: (Units=GPa)
#
#
# Indices 1 2 3 4 5 6 
#
# 1 41.0050 23.5724 34.8244 0.0057 1.5588 -0.0071
# 2 23.5724 82.7833 27.1606 0.0024 11.1882 -0.0039
# 3 34.8244 27.1606 121.3283 0.0013 -2.9523 -0.0028
# 4 0.0057 0.0024 0.0013 34.1664 -0.0018 5.5943
# 5 1.5588 11.1882 -2.9523 -0.0018 24.6691 0.0031
# 6 -0.0071 -0.0039 -0.0028 5.5943 0.0031 27.0298
#
#
#
# Elastic Compliance Matrix: (Units=1/GPa)
#
#
# Indices 1 2 3 4 5 6 
#
# 1 0.036017 -0.007416 -0.008677 -0.000007 0.000049 0.000009
# 2 -0.007416 0.015612 -0.001532 0.000000 -0.006795 0.000001
# 3 -0.008677 -0.001532 0.011138 0.000002 0.002576 -0.000002
# 4 -0.000007 0.000000 0.000002 0.030295 0.000004 -0.006270
# 5 0.000049 -0.006795 0.002576 0.000004 0.043924 -0.000006
# 6 0.000009 0.000001 -0.000002 -0.006270 -0.000006 0.038294
#
#
# Mechanical properties :
#
#
# Convention : Reuss Voigt Hill
#
# Bulk Modulus (GPa) = 36.33807 46.24794 41.29301
# Shear Modulus (GPa) = 22.75809 27.81033 25.28421
#
# Velocity S-wave (km/s) = 3.40478 3.76378 3.58877
# Velocity P-wave (km/s) = 5.82809 6.51505 6.18112
#
# Compressibility (1/GPa) = 0.02751935
#
# Stress axis : x y z
#
# Youngs Moduli (GPa) = 27.76445 64.05187 89.78174
#
# Poissons Ratio (x) = 0.47499 0.77900
# Poissons Ratio (y) = 0.20589 0.13753
# Poissons Ratio (z) = 0.24090 0.09812
#
# Static dielectric constant tensor:
#      x y z
#    x 1.706070 0.000000 -0.004650 
#    y 0.000000 1.689120 0.000000 
#    z -0.004650 0.000000 1.762790 
# 
# From -- ./inp_files/308737.got.cif
#   From: 2010.05.17/outbox.cif.g08.bks.cpg/sg15_155_cif.got.tgz:308737.got - 2010.06.03 18:47:42.
