data_PCOD9273785
_publ_section_title
;
Structure prediction by ZEFSAII (Michael W. Deem and Ramdas Pophale) SiO2 
 PCOD9273785
Probable space group: C 2/C
;
_chemical_formula_sum "Si O2"
_cell_formula_units_Z 56
_cell_length_a 27.209119
_cell_length_b 13.169379
_cell_length_c 21.445909
_cell_angle_alpha 90.000000
_cell_angle_beta 22.515925
_cell_angle_gamma 90.000000
_cell_volume 2942.762408
_symmetry_space_group_name_H-M "C 2/C"
_symmetry_group_IT_number 15
_symmetry_cell_setting 'monoclinic'
loop_
_space_group_symop_operation_xyz
x,y,z
-x,y,1/2-z
-x,-y,-z
x,-y,1/2+z
1/2+x,1/2+y,z
1/2-x,1/2+y,1/2-z
1/2-x,1/2-y,-z
1/2+x,1/2-y,1/2+z
loop_
_atom_site_type_symbol
_atom_site_label
_atom_site_fract_x
_atom_site_fract_y
_atom_site_fract_z
Si Si1 0.587301 0.262793 0.766801
Si Si2 0.500000 0.947586 0.250000
Si Si3 0.793111 0.391711 0.585682
Si Si4 0.783766 0.458288 0.410732
Si Si5 0.618090 0.100960 0.312158
Si Si6 0.169271 0.557925 0.863433
Si Si7 0.000000 0.879365 0.750000
Si Si8 0.152563 0.241547 0.868308
O O1 0.689837 0.351836 0.658656
O O2 0.663574 0.156460 0.667854
O O3 0.508562 0.306704 0.800357
O O4 0.494385 0.258165 0.935708
O O5 0.428117 0.892290 0.391404
O O6 0.374952 0.994095 0.361603
O O7 0.784647 0.500938 0.628210
O O8 0.785362 0.312145 0.651356
O O9 0.810167 0.540574 0.326130
O O10 0.631362 0.443862 0.596436
O O11 0.469324 0.110334 0.466188
O O12 0.663740 0.207786 0.287087
O O13 0.636381 0.027475 0.350669
O O14 0.277414 0.634261 0.713406
#
# Coordination Sequence:
#
# PCOD9273785 Si02
#       8
#     8   4   8   8   8   8   4   8
#     4  12  22  34  54  91 131 156 189 240 307 364
#     4  12  21  40  60  89 118 160 205 236 300 373
#     4  11  22  36  59  87 117 158 198 241 292 363
#     4  12  23  38  61  87 126 160 197 246 297 367
#     4  10  20  38  60  84 115 161 198 242 300 353
#     4  10  20  38  59  84 117 157 204 243 291 355
#     4  12  25  34  56  95 130 158 191 246 310 355
#     4  11  22  36  59  89 118 154 199 250 294 353
#
# _framework density 19.02974
#
# number of rings (size 3 to 8) (size 9 to 14) (size 15 to 20)
#    0.000    0.857    4.286    6.000    0.000    0.571 
#    0.000    1.429    0.000    1.714    0.000    0.000 
#    0.000    0.000    0.000    0.000    0.000    0.000 
#
# Total GULP energy -156002.194373 kJ/mol
# GULP energy per Si atom -5571.506942 kJ/mol
# Density = 1.898643 g / cm^3
# Si number density = 19.029740 Si / 1000 Ang^3
#
#
#
# Elastic Constant Matrix: (Units=GPa)
#
#
# Indices 1 2 3 4 5 6 
#
# 1 79.2508 14.4696 22.8928 0.0000 -6.2011 0.0000
# 2 14.4696 29.0842 12.1310 0.0001 -2.3253 0.0000
# 3 22.8928 12.1310 93.5230 0.0001 -11.5754 -0.0001
# 4 0.0000 0.0001 0.0001 12.9469 -0.0001 6.6486
# 5 -6.2011 -2.3253 -11.5754 -0.0001 29.6659 0.0000
# 6 0.0000 0.0000 -0.0001 6.6486 0.0000 10.7477
#
#
#
# Elastic Compliance Matrix: (Units=1/GPa)
#
#
# Indices 1 2 3 4 5 6 
#
# 1 0.014595 -0.006054 -0.002594 0.000000 0.001564 0.000000
# 2 -0.006054 0.038893 -0.003512 0.000000 0.000413 0.000000
# 3 -0.002594 -0.003512 0.012275 0.000000 0.003972 0.000000
# 4 0.000000 0.000000 0.000000 0.113198 0.000000 -0.070025
# 5 0.001564 0.000413 0.003972 0.000000 0.035618 0.000000
# 6 0.000000 0.000000 0.000000 -0.070025 0.000000 0.136362
#
#
# Mechanical properties :
#
#
# Convention : Reuss Voigt Hill
#
# Bulk Modulus (GPa) = 24.12957 33.42721 28.77839
# Shear Modulus (GPa) = 12.85101 20.82973 16.84037
#
# Velocity S-wave (km/s) = 2.60150 3.31205 2.97804
# Velocity P-wave (km/s) = 4.66167 5.67716 5.19429
#
# Compressibility (1/GPa) = 0.04144292
#
# Stress axis : x y z
#
# Youngs Moduli (GPa) = 68.51568 25.71170 81.46915
#
# Poissons Ratio (x) = 0.15567 0.21131
# Poissons Ratio (y) = 0.41482 0.28610
# Poissons Ratio (z) = 0.17771 0.09029
#
# Static dielectric constant tensor:
#      x y z
#    x 1.739750 0.000000 -0.015950 
#    y 0.000000 1.654060 0.000000 
#    z -0.015950 0.000000 1.683780 
# 
# From -- ./inp_files/249265.got.cif
#   From: 2010.05.17/outbox.cif.g08.bks.cpg/sg15_125_cif.got.tgz:249265.got - 2010.06.03 18:47:42.
