data_PCOD9273989
_publ_section_title
;
Structure prediction by ZEFSAII (Michael W. Deem and Ramdas Pophale) SiO2 
 PCOD9273989
Probable space group: C 2/C
;
_chemical_formula_sum "Si O2"
_cell_formula_units_Z 60
_cell_length_a 13.513825
_cell_length_b 14.125669
_cell_length_c 14.435634
_cell_angle_alpha 90.000000
_cell_angle_beta 116.821819
_cell_angle_gamma 90.000000
_cell_volume 2459.175817
_symmetry_space_group_name_H-M "C 2/C"
_symmetry_group_IT_number 15
_symmetry_cell_setting 'monoclinic'
loop_
_space_group_symop_operation_xyz
x,y,z
-x,y,1/2-z
-x,-y,-z
x,-y,1/2+z
1/2+x,1/2+y,z
1/2-x,1/2+y,1/2-z
1/2-x,1/2-y,-z
1/2+x,1/2-y,1/2+z
loop_
_atom_site_type_symbol
_atom_site_label
_atom_site_fract_x
_atom_site_fract_y
_atom_site_fract_z
Si Si1 0.226206 0.651436 0.570945
Si Si2 0.187309 0.790193 0.697201
Si Si3 0.517638 0.139199 0.366395
Si Si4 0.380187 0.697301 0.892553
Si Si5 0.000000 0.787825 0.750000
Si Si6 0.182743 0.110716 0.449190
Si Si7 0.190501 0.458956 0.660064
Si Si8 0.449426 0.572064 0.628361
O O1 0.190931 0.753924 0.594436
O O2 0.142857 0.622371 0.452760
O O3 0.214150 0.567297 0.643325
O O4 0.357330 0.652404 0.607161
O O5 0.285766 0.730227 0.783596
O O6 0.073744 0.751635 0.695282
O O7 0.223854 0.899368 0.736277
O O8 0.500000 0.163570 0.250000
O O9 0.467737 0.218433 0.414631
O O10 0.431869 0.053289 0.350573
O O11 0.449962 0.606145 0.891454
O O12 0.318030 0.675557 0.961691
O O13 0.095555 0.843793 0.842446
O O14 0.290874 0.092506 0.432599
O O15 0.124710 0.010673 0.446342
O O16 0.500000 0.544774 0.750000
#
# Coordination Sequence:
#
# PCOD9273989 Si02
#       8
#     8   8   8   8   4   8   8   8
#     4  11  23  45  70  99 136 190 225 280 356 400
#     4  10  22  39  67  99 132 177 223 289 343 407
#     4  11  25  46  67  99 139 185 230 283 339 418
#     4  11  23  40  63  96 138 175 225 284 345 405
#     4  10  20  38  60  94 122 168 236 276 332 410
#     4  10  21  40  65  95 126 180 223 288 345 395
#     4   9  23  45  68  94 140 177 235 292 336 404
#     4  11  21  41  66  98 141 171 225 288 340 417
#
# _framework density 24.398420000000002
#
# number of rings (size 3 to 8) (size 9 to 14) (size 15 to 20)
#    0.000    1.600    2.000    2.000    1.867    6.400 
#   13.200    0.000    0.000    0.000    0.000    0.000 
#    0.000    0.000    0.000    0.000    0.000    0.000 
#
# Total GULP energy -167371.296688 kJ/mol
# GULP energy per Si atom -5579.043223 kJ/mol
# Density = 2.434289 g / cm^3
# Si number density = 24.398420 Si / 1000 Ang^3
#
#
#
# Elastic Constant Matrix: (Units=GPa)
#
#
# Indices 1 2 3 4 5 6 
#
# 1 114.8844 9.8982 9.7573 0.0000 8.9464 0.0000
# 2 9.8982 76.3830 24.0355 0.0000 -13.7872 0.0000
# 3 9.7573 24.0355 80.4361 0.0000 10.9787 0.0000
# 4 0.0000 0.0000 0.0000 1.2236 0.0000 -18.7746
# 5 8.9464 -13.7872 10.9787 0.0000 36.1653 0.0000
# 6 0.0000 0.0000 0.0000 -18.7746 0.0000 30.6623
#
#
#
# Elastic Compliance Matrix: (Units=1/GPa)
#
#
# Indices 1 2 3 4 5 6 
#
# 1 0.009080 -0.001603 -0.000243 0.000000 -0.002783 0.000000
# 2 -0.001603 0.016731 -0.005977 0.000000 0.008589 0.000000
# 3 -0.000243 -0.005977 0.015180 0.000000 -0.006827 0.000000
# 4 0.000000 0.000000 0.000000 -0.097350 0.000000 -0.059608
# 5 -0.002783 0.008589 -0.006827 0.000000 0.033686 0.000000
# 6 0.000000 0.000000 0.000000 -0.059608 0.000000 -0.003885
#
#
# Mechanical properties :
#
#
# Convention : Reuss Voigt Hill
#
# Bulk Modulus (GPa) = 39.45558 39.89838 39.67698
# Shear Modulus (GPa) = -2028.43478 28.81107 -999.81186
#
# Velocity S-wave (km/s) = -28.86493 3.44009 -20.26512
# Velocity P-wave (km/s) = 33.08634 5.67162 23.04928
#
# Compressibility (1/GPa) = 0.02534496
#
# Stress axis : x y z
#
# Youngs Moduli (GPa) = 110.13391 59.76962 65.87797
#
# Poissons Ratio (x) = 0.09579 0.01598
# Poissons Ratio (y) = 0.17651 0.39378
# Poissons Ratio (z) = 0.02672 0.35727
#
# Static dielectric constant tensor:
#      x y z
#    x 2.089860 0.000000 -0.099000 
#    y 0.000000 2.023480 0.000000 
#    z -0.099000 0.000000 1.959970 
# 
# From -- ./inp_files/154300.got.cif
#   From: 2010.05.17/outbox.cif.g08.bks.cpg/sg15_78_cif.got.tgz:154300.got - 2010.06.03 18:47:42.
