data_PCOD9273666
_publ_section_title
;
Structure prediction by ZEFSAII (Michael W. Deem and Ramdas Pophale) SiO2 
 PCOD9273666
Probable space group: C 2/C
;
_chemical_formula_sum "Si O2"
_cell_formula_units_Z 56
_cell_length_a 17.266222
_cell_length_b 5.623770
_cell_length_c 29.910759
_cell_angle_alpha 90.000000
_cell_angle_beta 75.792147
_cell_angle_gamma 90.000000
_cell_volume 2815.532665
_symmetry_space_group_name_H-M "C 2/C"
_symmetry_group_IT_number 15
_symmetry_cell_setting 'monoclinic'
loop_
_space_group_symop_operation_xyz
x,y,z
-x,y,1/2-z
-x,-y,-z
x,-y,1/2+z
1/2+x,1/2+y,z
1/2-x,1/2+y,1/2-z
1/2-x,1/2-y,-z
1/2+x,1/2-y,1/2+z
loop_
_atom_site_type_symbol
_atom_site_label
_atom_site_fract_x
_atom_site_fract_y
_atom_site_fract_z
Si Si1 0.791520 0.903435 0.358701
Si Si2 0.908125 0.580266 0.516617
Si Si3 0.951770 0.147436 0.802571
Si Si4 0.199034 0.209347 0.915413
Si Si5 0.658562 0.080794 0.070539
Si Si6 0.975615 0.354422 0.351990
Si Si7 0.619371 0.674265 0.389269
O O1 0.855203 0.850484 0.311444
O O2 0.834215 0.804945 0.397514
O O3 0.707989 0.767500 0.365722
O O4 0.763830 0.167164 0.373881
O O5 0.848693 0.381131 0.545050
O O6 0.872174 0.648754 0.473860
O O7 0.903932 0.774628 0.556033
O O8 0.000000 0.500000 0.500000
O O9 0.976055 0.397425 0.823625
O O10 0.000000 0.136031 0.750000
O O11 0.963119 0.893138 0.826629
O O12 0.253479 0.035838 0.938121
O O13 0.132826 0.106360 0.890430
O O14 0.593597 0.903241 0.101613
O O15 0.057021 0.300885 0.366715
#
# Coordination Sequence:
#
# PCOD9273666 Si02
#       7
#     8   8   8   8   8   8   8
#     4   9  21  39  63  86 128 166 211 260 323 384
#     4  11  22  35  54  89 128 165 225 266 305 363
#     4  11  24  45  72  99 122 161 213 268 324 400
#     4  10  21  37  57  84 124 171 216 259 310 380
#     4  10  20  38  57  87 124 176 214 257 312 374
#     4  11  23  42  68  96 131 163 209 264 332 383
#     4  10  23  39  59  91 128 173 209 263 318 377
#
# _framework density 19.889664
#
# number of rings (size 3 to 8) (size 9 to 14) (size 15 to 20)
#    0.000    1.714    2.857    0.857    4.000    6.857 
#    0.000    1.429    0.000    0.000    0.000    0.000 
#    0.000    0.000    0.000    0.000    0.000    0.000 
#
# Total GULP energy -155921.344438 kJ/mol
# GULP energy per Si atom -5568.619444 kJ/mol
# Density = 1.984439 g / cm^3
# Si number density = 19.889664 Si / 1000 Ang^3
#
#
#
# Elastic Constant Matrix: (Units=GPa)
#
#
# Indices 1 2 3 4 5 6 
#
# 1 114.9499 21.1830 34.9261 0.0000 -13.0106 0.0001
# 2 21.1830 74.5603 16.0674 -0.0002 7.0831 0.0006
# 3 34.9261 16.0674 52.1140 -0.0001 -18.7877 -0.0001
# 4 0.0000 -0.0002 -0.0001 21.0910 -0.0002 0.9867
# 5 -13.0106 7.0831 -18.7877 -0.0002 29.0638 -0.0001
# 6 0.0001 0.0006 -0.0001 0.9867 -0.0001 23.9936
#
#
#
# Elastic Compliance Matrix: (Units=1/GPa)
#
#
# Indices 1 2 3 4 5 6 
#
# 1 0.011147 -0.001911 -0.006408 0.000000 0.001313 0.000000
# 2 -0.001911 0.016413 -0.007210 0.000000 -0.009516 0.000000
# 3 -0.006408 -0.007210 0.032995 0.000000 0.020218 0.000000
# 4 0.000000 0.000000 0.000000 0.047505 0.000000 -0.001954
# 5 0.001313 -0.009516 0.020218 0.000000 0.050383 0.000000
# 6 0.000000 0.000000 0.000000 -0.001954 0.000000 0.041758
#
#
# Mechanical properties :
#
#
# Convention : Reuss Voigt Hill
#
# Bulk Modulus (GPa) = 33.90248 42.88635 38.39442
# Shear Modulus (GPa) = 20.73896 26.12620 23.43258
#
# Velocity S-wave (km/s) = 3.23259 3.62823 3.43611
# Velocity P-wave (km/s) = 5.56912 6.25788 5.92352
#
# Compressibility (1/GPa) = 0.02949637
#
# Stress axis : x y z
#
# Youngs Moduli (GPa) = 89.70816 60.92846 30.30762
#
# Poissons Ratio (x) = 0.11643 0.19421
# Poissons Ratio (y) = 0.17142 0.21853
# Poissons Ratio (z) = 0.57486 0.43932
#
# Static dielectric constant tensor:
#      x y z
#    x 1.730400 0.000000 -0.008550 
#    y 0.000000 1.842870 0.000000 
#    z -0.008550 0.000000 1.689530 
# 
# From -- ./inp_files/312354.got.cif
#   From: 2010.05.17/outbox.cif.g08.bks.cpg/sg15_157_cif.got.tgz:312354.got - 2010.06.03 18:47:42.
