data_PCOD9273292
_publ_section_title
;
Structure prediction by ZEFSAII (Michael W. Deem and Ramdas Pophale) SiO2 
 PCOD9273292
Probable space group: C 2/C
;
_chemical_formula_sum "Si O2"
_cell_formula_units_Z 44
_cell_length_a 14.605918
_cell_length_b 8.319831
_cell_length_c 16.810928
_cell_angle_alpha 90.000000
_cell_angle_beta 124.053187
_cell_angle_gamma 90.000000
_cell_volume 1692.532682
_symmetry_space_group_name_H-M "C 2/C"
_symmetry_group_IT_number 15
_symmetry_cell_setting 'monoclinic'
loop_
_space_group_symop_operation_xyz
x,y,z
-x,y,1/2-z
-x,-y,-z
x,-y,1/2+z
1/2+x,1/2+y,z
1/2-x,1/2+y,1/2-z
1/2-x,1/2-y,-z
1/2+x,1/2-y,1/2+z
loop_
_atom_site_type_symbol
_atom_site_label
_atom_site_fract_x
_atom_site_fract_y
_atom_site_fract_z
Si Si1 0.604822 0.752918 0.946367
Si Si2 0.724547 0.148972 0.660133
Si Si3 0.352302 0.210339 0.350221
Si Si4 0.000000 0.588962 0.250000
Si Si5 0.901171 0.914361 0.502593
Si Si6 0.036597 0.275462 0.183173
O O1 0.484795 0.798219 0.926845
O O2 0.586038 0.823427 0.849726
O O3 0.627391 0.562708 0.955109
O O4 0.691885 0.814267 0.053857
O O5 0.837040 0.205535 0.757030
O O6 0.641674 0.254244 0.677571
O O7 0.703313 0.959906 0.661225
O O8 0.314930 0.342909 0.397764
O O9 0.055599 0.459765 0.217435
O O10 0.000000 0.000000 0.500000
O O11 0.937627 0.767213 0.575868
O O12 0.000000 0.196705 0.250000
#
# Coordination Sequence:
#
# PCOD9273292 Si02
#       6
#     8   8   8   4   8   8
#     4  11  22  41  64  91 125 167 210 259 312 373
#     4  12  22  40  66  92 126 165 214 259 312 381
#     4  11  22  37  65  93 122 163 214 259 309 376
#     4  10  22  38  66  90 124 174 204 258 320 362
#     4  10  20  37  64  89 123 160 211 254 307 370
#     4  10  21  39  62  90 129 163 208 253 317 365
#
# _framework density 25.996545000000001
#
# number of rings (size 3 to 8) (size 9 to 14) (size 15 to 20)
#    0.545    0.727    5.455    2.727    3.818    0.000 
#    0.000    1.818    0.000    0.000    0.000    0.000 
#    0.000    0.000    0.000    0.000    0.000    0.000 
#
# Total GULP energy -122655.155602 kJ/mol
# GULP energy per Si atom -5575.234346 kJ/mol
# Density = 2.593738 g / cm^3
# Si number density = 25.996545 Si / 1000 Ang^3
#
#
#
# Elastic Constant Matrix: (Units=GPa)
#
#
# Indices 1 2 3 4 5 6 
#
# 1 55.4020 -7.5274 28.1173 0.0000 -9.7580 0.0000
# 2 -7.5274 120.3254 89.4348 0.0000 3.5159 0.0000
# 3 28.1173 89.4348 250.3346 0.0000 -21.4882 0.0000
# 4 0.0000 0.0000 0.0000 58.4153 0.0000 -4.7737
# 5 -9.7580 3.5159 -21.4882 0.0000 45.8580 0.0000
# 6 0.0000 0.0000 0.0000 -4.7737 0.0000 10.0413
#
#
#
# Elastic Compliance Matrix: (Units=1/GPa)
#
#
# Indices 1 2 3 4 5 6 
#
# 1 0.020775 0.003815 -0.003482 0.000000 0.002497 0.000000
# 2 0.003815 0.012393 -0.005072 0.000000 -0.002515 0.000000
# 3 -0.003482 -0.005072 0.006426 0.000000 0.002659 0.000000
# 4 0.000000 0.000000 0.000000 0.017811 0.000000 0.008467
# 5 0.002497 -0.002515 0.002659 0.000000 0.023776 0.000000
# 6 0.000000 0.000000 0.000000 0.008467 0.000000 0.103615
#
#
# Mechanical properties :
#
#
# Convention : Reuss Voigt Hill
#
# Bulk Modulus (GPa) = 33.20522 71.79014 52.49768
# Shear Modulus (GPa) = 24.47237 43.93207 34.20222
#
# Velocity S-wave (km/s) = 3.07150 4.11532 3.63112
# Velocity P-wave (km/s) = 5.03781 7.08917 6.14963
#
# Compressibility (1/GPa) = 0.03011575
#
# Stress axis : x y z
#
# Youngs Moduli (GPa) = 48.13453 80.69306 155.61946
#
# Poissons Ratio (x) = -0.30783 0.54187
# Poissons Ratio (y) = -0.18362 0.78926
# Poissons Ratio (z) = 0.16761 0.40926
#
# Static dielectric constant tensor:
#      x y z
#    x 2.231550 0.000000 -0.041220 
#    y 0.000000 2.052450 0.000000 
#    z -0.041220 0.000000 2.095530 
# 
# From -- ./inp_files/213588.got.cif
#   From: 2010.05.17/outbox.cif.g08.bks.cpg/sg15_107_cif.got.tgz:213588.got - 2010.06.03 18:47:42.
