data_PCOD9273982
_publ_section_title
;
Structure prediction by ZEFSAII (Michael W. Deem and Ramdas Pophale) SiO2 
 PCOD9273982
Probable space group: C 2/C
;
_chemical_formula_sum "Si O2"
_cell_formula_units_Z 60
_cell_length_a 27.704817
_cell_length_b 19.059821
_cell_length_c 9.985838
_cell_angle_alpha 90.000000
_cell_angle_beta 147.875885
_cell_angle_gamma 90.000000
_cell_volume 2803.949984
_symmetry_space_group_name_H-M "C 2/C"
_symmetry_group_IT_number 15
_symmetry_cell_setting 'monoclinic'
loop_
_space_group_symop_operation_xyz
x,y,z
-x,y,1/2-z
-x,-y,-z
x,-y,1/2+z
1/2+x,1/2+y,z
1/2-x,1/2+y,1/2-z
1/2-x,1/2-y,-z
1/2+x,1/2-y,1/2+z
loop_
_atom_site_type_symbol
_atom_site_label
_atom_site_fract_x
_atom_site_fract_y
_atom_site_fract_z
Si Si1 0.000000 0.765676 0.750000
Si Si2 0.039897 0.646019 0.663505
Si Si3 0.632502 0.203621 0.638095
Si Si4 0.354132 0.633163 0.871438
Si Si5 0.337885 0.652491 0.153259
Si Si6 0.565383 0.998218 0.782043
Si Si7 0.434754 0.515036 0.473654
Si Si8 0.148718 0.360446 0.896325
O O1 0.058225 0.715168 0.791371
O O2 0.931527 0.813504 0.503956
O O3 0.067563 0.655418 0.574990
O O4 0.090720 0.579993 0.848190
O O5 0.930231 0.640606 0.399682
O O6 0.619254 0.282356 0.663045
O O7 0.625038 0.192864 0.461701
O O8 0.732118 0.173416 0.907385
O O9 0.381591 0.555796 0.889205
O O10 0.251182 0.650935 0.589821
O O11 0.360215 0.642482 0.047654
O O12 0.366801 0.578969 0.285312
O O13 0.500000 0.980366 0.750000
O O14 0.500000 0.000000 0.500000
O O15 0.641220 0.939429 0.941341
O O16 0.500000 0.500000 0.500000
O O17 0.500000 0.533732 0.750000
#
# Coordination Sequence:
#
# PCOD9273982 Si02
#       8
#     4   8   8   8   8   8   8   8
#     4  12  22  42  66  82 132 174 212 270 340 390
#     4  11  22  38  65  94 125 174 217 264 340 404
#     4  10  21  41  68  94 134 170 216 274 338 393
#     4  11  23  45  65  90 135 173 215 278 341 389
#     4  10  22  42  67  99 127 173 224 275 332 403
#     4  10  20  38  60  93 129 166 211 263 326 395
#     4  12  24  44  69  98 131 181 231 280 342 394
#     4  10  23  40  64  96 129 168 220 278 325 399
#
# _framework density 21.398385000000001
#
# number of rings (size 3 to 8) (size 9 to 14) (size 15 to 20)
#    0.000    1.333    4.000    2.000    1.867    1.600 
#    2.400    1.333    0.000    0.000    0.000    0.000 
#    0.000    0.000    0.000    0.000    0.000    0.000 
#
# Total GULP energy -167427.138238 kJ/mol
# GULP energy per Si atom -5580.904608 kJ/mol
# Density = 2.134968 g / cm^3
# Si number density = 21.398385 Si / 1000 Ang^3
#
#
#
# Elastic Constant Matrix: (Units=GPa)
#
#
# Indices 1 2 3 4 5 6 
#
# 1 73.2303 25.3652 11.1179 0.0000 2.1304 0.0000
# 2 25.3652 147.9130 11.3674 0.0000 1.8724 0.0000
# 3 11.1179 11.3674 31.8131 0.0000 1.6019 0.0000
# 4 0.0000 0.0000 0.0000 33.5331 0.0000 -1.7386
# 5 2.1304 1.8724 1.6019 0.0000 29.3587 0.0000
# 6 0.0000 0.0000 0.0000 -1.7386 0.0000 33.1045
#
#
#
# Elastic Compliance Matrix: (Units=1/GPa)
#
#
# Indices 1 2 3 4 5 6 
#
# 1 0.015129 -0.002243 -0.004450 0.000000 -0.000712 0.000000
# 2 -0.002243 0.007287 -0.001810 0.000000 -0.000203 0.000000
# 3 -0.004450 -0.001810 0.033706 0.000000 -0.001401 0.000000
# 4 0.000000 0.000000 0.000000 0.029903 0.000000 0.001570
# 5 -0.000712 -0.000203 -0.001401 0.000000 0.034203 0.000000
# 6 0.000000 0.000000 0.000000 0.001570 0.000000 0.030290
#
#
# Mechanical properties :
#
#
# Convention : Reuss Voigt Hill
#
# Bulk Modulus (GPa) = 25.56471 38.73968 32.15220
# Shear Modulus (GPa) = 27.69145 32.87296 30.28221
#
# Velocity S-wave (km/s) = 3.60125 3.92374 3.76595
# Velocity P-wave (km/s) = 5.40971 6.21860 5.82820
#
# Compressibility (1/GPa) = 0.03911642
#
# Stress axis : x y z
#
# Youngs Moduli (GPa) = 66.09872 137.22895 29.66847
#
# Poissons Ratio (x) = 0.30786 0.13202
# Poissons Ratio (y) = 0.14829 0.05369
# Poissons Ratio (z) = 0.29412 0.24832
#
# Static dielectric constant tensor:
#      x y z
#    x 1.793310 0.000000 0.005300 
#    y 0.000000 1.866510 0.000000 
#    z 0.005300 0.000000 1.770850 
# 
# From -- ./inp_files/127252.got.cif
#   From: 2010.05.17/outbox.cif.g08.bks.cpg/sg15_64_cif.got.tgz:127252.got - 2010.06.03 18:47:42.
