data_PCOD9273757
_publ_section_title
;
Structure prediction by ZEFSAII (Michael W. Deem and Ramdas Pophale) SiO2 
 PCOD9273757
Probable space group: C 2/C
;
_chemical_formula_sum "Si O2"
_cell_formula_units_Z 40
_cell_length_a 28.830377
_cell_length_b 13.009862
_cell_length_c 9.008546
_cell_angle_alpha 90.000000
_cell_angle_beta 35.995915
_cell_angle_gamma 90.000000
_cell_volume 1985.883539
_symmetry_space_group_name_H-M "C 2/C"
_symmetry_group_IT_number 15
_symmetry_cell_setting 'monoclinic'
loop_
_space_group_symop_operation_xyz
x,y,z
-x,y,1/2-z
-x,-y,-z
x,-y,1/2+z
1/2+x,1/2+y,z
1/2-x,1/2+y,1/2-z
1/2-x,1/2-y,-z
1/2+x,1/2-y,1/2+z
loop_
_atom_site_type_symbol
_atom_site_label
_atom_site_fract_x
_atom_site_fract_y
_atom_site_fract_z
Si Si1 0.000000 0.494038 0.250000
Si Si2 0.845444 0.167184 0.877947
Si Si3 0.094098 0.378703 0.752301
Si Si4 0.731924 0.677423 0.743687
Si Si5 0.104664 0.065614 0.234355
Si Si6 0.000000 0.001641 0.250000
O O1 0.050733 0.565369 0.229326
O O2 0.942818 0.425057 0.501862
O O3 0.911727 0.254097 0.734269
O O4 0.819768 0.174627 0.772044
O O5 0.866089 0.051743 0.858119
O O6 0.769484 0.209832 0.163785
O O7 0.189400 0.391006 0.489823
O O8 0.677140 0.639876 0.017380
O O9 0.040209 0.072459 0.270466
O O10 0.062831 0.068208 0.500914
#
# Coordination Sequence:
#
# PCOD9273757 Si02
#       6
#     4   8   8   8   8   4
#     4  10  20  38  58  94 118 162 190 266 306 352
#     4   9  20  38  62  90 113 160 210 243 303 367
#     4   9  21  36  61  87 122 154 207 240 312 363
#     4   9  20  37  63  85 116 161 207 246 293 364
#     4  11  20  41  61  88 124 161 200 255 295 371
#     4  10  24  34  60  88 122 164 190 242 320 348
#
# _framework density 20.142168000000002
#
# number of rings (size 3 to 8) (size 9 to 14) (size 15 to 20)
#    1.200    1.200    2.000    0.000    2.800    1.600 
#    0.000    1.000    0.000    0.000    0.000    0.000 
#    0.000    0.000    0.000    0.000    0.000    0.000 
#
# Total GULP energy -111395.901741 kJ/mol
# GULP energy per Si atom -5569.795087 kJ/mol
# Density = 2.009632 g / cm^3
# Si number density = 20.142168 Si / 1000 Ang^3
#
#
#
# Elastic Constant Matrix: (Units=GPa)
#
#
# Indices 1 2 3 4 5 6 
#
# 1 40.2873 2.3427 7.2863 0.0000 11.8344 0.0000
# 2 2.3427 68.7695 25.4738 0.0000 2.6604 0.0000
# 3 7.2863 25.4738 156.9517 0.0000 19.7869 0.0000
# 4 0.0000 0.0000 0.0000 28.5178 0.0000 -6.1129
# 5 11.8344 2.6604 19.7869 0.0000 22.4860 0.0000
# 6 0.0000 0.0000 0.0000 -6.1129 0.0000 9.4152
#
#
#
# Elastic Compliance Matrix: (Units=1/GPa)
#
#
# Indices 1 2 3 4 5 6 
#
# 1 0.029450 -0.000666 0.000770 0.000000 -0.016099 0.000000
# 2 -0.000666 0.015490 -0.002583 0.000000 0.000791 0.000000
# 3 0.000770 -0.002583 0.007612 0.000000 -0.006798 0.000000
# 4 0.000000 0.000000 0.000000 0.040735 0.000000 0.026447
# 5 -0.016099 0.000791 -0.006798 0.000000 0.058834 0.000000
# 6 0.000000 0.000000 0.000000 0.026447 0.000000 0.123382
#
#
# Mechanical properties :
#
#
# Convention : Reuss Voigt Hill
#
# Bulk Modulus (GPa) = 21.01034 37.35712 29.18373
# Shear Modulus (GPa) = 16.87338 27.47749 22.17543
#
# Velocity S-wave (km/s) = 2.89747 3.69748 3.32165
# Velocity P-wave (km/s) = 4.65268 6.06758 5.40661
#
# Compressibility (1/GPa) = 0.04759561
#
# Stress axis : x y z
#
# Youngs Moduli (GPa) = 33.95576 64.55698 131.37382
#
# Poissons Ratio (x) = 0.04299 -0.10122
# Poissons Ratio (y) = 0.02261 0.33932
# Poissons Ratio (z) = -0.02616 0.16674
#
# Static dielectric constant tensor:
#      x y z
#    x 1.767640 0.000000 -0.036710 
#    y 0.000000 1.710600 0.000000 
#    z -0.036710 0.000000 1.754720 
# 
# From -- ./inp_files/54677.got.cif
#   From: 2010.05.17/outbox.cif.g08.bks.cpg/sg15_28_cif.got.tgz:54677.got - 2010.06.03 18:47:42.
