data_PCOD9273338
_publ_section_title
;
Structure prediction by ZEFSAII (Michael W. Deem and Ramdas Pophale) SiO2 
 PCOD9273338
Probable space group: C 2/C
;
_chemical_formula_sum "Si O2"
_cell_formula_units_Z 40
_cell_length_a 6.046258
_cell_length_b 23.047901
_cell_length_c 12.052181
_cell_angle_alpha 90.000000
_cell_angle_beta 75.472929
_cell_angle_gamma 90.000000
_cell_volume 1625.818918
_symmetry_space_group_name_H-M "C 2/C"
_symmetry_group_IT_number 15
_symmetry_cell_setting 'monoclinic'
loop_
_space_group_symop_operation_xyz
x,y,z
-x,y,1/2-z
-x,-y,-z
x,-y,1/2+z
1/2+x,1/2+y,z
1/2-x,1/2+y,1/2-z
1/2-x,1/2-y,-z
1/2+x,1/2-y,1/2+z
loop_
_atom_site_type_symbol
_atom_site_label
_atom_site_fract_x
_atom_site_fract_y
_atom_site_fract_z
Si Si1 0.051763 0.185971 0.912367
Si Si2 0.285870 0.935971 0.412367
Si Si3 0.407208 0.547502 0.142014
Si Si4 0.299222 0.702498 0.357986
Si Si5 0.382195 0.875000 0.985611
O O1 0.184442 0.125000 0.881116
O O2 0.176117 0.238181 0.834675
O O3 0.081998 0.206123 0.036432
O O4 0.786010 0.170841 0.933637
O O5 0.530353 0.920841 0.433637
O O6 0.131570 0.956123 0.536432
O O7 0.239207 0.988181 0.334675
O O8 0.500000 0.562553 0.250000
O O9 0.254154 0.593801 0.095508
O O10 0.500000 0.687447 0.250000
O O11 0.099662 0.656199 0.404492
#
# Coordination Sequence:
#
# PCOD9273338 Si02
#       5
#     8   8   8   8   8
#     4   9  20  38  62  90 129 172 216 267 331 387
#     4   9  20  38  62  90 129 172 216 267 331 387
#     4  10  21  37  62  95 130 169 220 270 324 394
#     4  10  21  37  62  95 130 169 220 270 324 394
#     4  10  20  37  64  94 128 178 214 272 328 383
#
# _framework density 24.602985
#
# number of rings (size 3 to 8) (size 9 to 14) (size 15 to 20)
#    0.000    2.400    0.000    1.200    0.000   10.400 
#    0.000    0.000   48.400    0.000    0.000    0.000 
#    0.000    0.000    0.000    0.000    0.000    0.000 
#
# Total GULP energy -111908.881584 kJ/mol
# GULP energy per Si atom -5595.444079 kJ/mol
# Density = 2.454699 g / cm^3
# Si number density = 24.602985 Si / 1000 Ang^3
#
#
#
# Elastic Constant Matrix: (Units=GPa)
#
#
# Indices 1 2 3 4 5 6 
#
# 1 143.0113 47.5483 36.0682 0.0000 -6.0754 0.0000
# 2 47.5483 150.8361 19.7460 0.0000 -2.3230 0.0000
# 3 36.0682 19.7460 47.3412 0.0000 -1.9182 0.0000
# 4 0.0000 0.0000 0.0000 -0.4142 0.0000 -3.5500
# 5 -6.0754 -2.3230 -1.9182 0.0000 17.4627 0.0000
# 6 0.0000 0.0000 0.0000 -3.5500 0.0000 42.0733
#
#
#
# Elastic Compliance Matrix: (Units=1/GPa)
#
#
# Indices 1 2 3 4 5 6 
#
# 1 0.009339 -0.002104 -0.006145 0.000000 0.002294 0.000000
# 2 -0.002104 0.007493 -0.001518 0.000000 0.000098 0.000000
# 3 -0.006145 -0.001518 0.026461 0.000000 0.000567 0.000000
# 4 0.000000 0.000000 0.000000 -1.400993 0.000000 -0.118210
# 5 0.002294 0.000098 0.000567 0.000000 0.058139 0.000000
# 6 0.000000 0.000000 0.000000 -0.118210 0.000000 0.013794
#
#
# Mechanical properties :
#
#
# Convention : Reuss Voigt Hill
#
# Bulk Modulus (GPa) = 42.08928 60.87930 51.48429
# Shear Modulus (GPa) = -3.97358 27.67942 11.85292
#
# Velocity S-wave (km/s) = -1.27224 3.35780 2.19730
# Velocity P-wave (km/s) = 3.87123 6.31122 5.23536
#
# Compressibility (1/GPa) = 0.02375902
#
# Stress axis : x y z
#
# Youngs Moduli (GPa) = 107.07452 133.45224 37.79143
#
# Poissons Ratio (x) = 0.28082 0.23222
# Poissons Ratio (y) = 0.22532 0.05738
# Poissons Ratio (z) = 0.65794 0.20262
#
# Static dielectric constant tensor:
#      x y z
#    x 1.939430 0.000000 0.000940 
#    y 0.000000 2.067250 0.000000 
#    z 0.000940 0.000000 1.950720 
# 
# From -- ./inp_files/129285.got.cif
#   From: 2010.05.17/outbox.cif.g08.bks.cpg/sg15_65_cif.got.tgz:129285.got - 2010.06.03 18:47:42.
