data_PCOD9273031
_publ_section_title
;
Structure prediction by ZEFSAII (Michael W. Deem and Ramdas Pophale) SiO2 
 PCOD9273031
Probable space group: C 2/C
;
_chemical_formula_sum "Si O2"
_cell_formula_units_Z 56
_cell_length_a 8.415953
_cell_length_b 19.293079
_cell_length_c 30.872770
_cell_angle_alpha 90.000000
_cell_angle_beta 33.106880
_cell_angle_gamma 90.000000
_cell_volume 2738.004542
_symmetry_space_group_name_H-M "C 2/C"
_symmetry_group_IT_number 15
_symmetry_cell_setting 'monoclinic'
loop_
_space_group_symop_operation_xyz
x,y,z
-x,y,1/2-z
-x,-y,-z
x,-y,1/2+z
1/2+x,1/2+y,z
1/2-x,1/2+y,1/2-z
1/2-x,1/2-y,-z
1/2+x,1/2-y,1/2+z
loop_
_atom_site_type_symbol
_atom_site_label
_atom_site_fract_x
_atom_site_fract_y
_atom_site_fract_z
Si Si1 0.619091 0.107984 0.297237
Si Si2 0.566733 0.949111 0.283943
Si Si3 0.924866 0.185938 0.065507
Si Si4 0.235160 0.051507 0.623872
Si Si5 0.801032 0.932129 0.053825
Si Si6 0.741644 0.108242 0.371652
Si Si7 0.997699 0.671907 0.508303
O O1 0.359262 0.158462 0.346106
O O2 0.641499 0.102447 0.344617
O O3 0.925146 0.131953 0.208395
O O4 0.551000 0.031733 0.295285
O O5 0.500000 0.931741 0.250000
O O6 0.307664 0.920061 0.372736
O O7 0.907626 0.932151 0.215002
O O8 0.851632 0.257834 0.058512
O O9 0.028524 0.131861 0.005294
O O10 0.187617 0.182418 0.040051
O O11 0.491295 0.059778 0.600359
O O12 0.329062 0.104923 0.565253
O O13 0.245677 0.969398 0.610606
O O14 0.000000 0.000000 0.000000
O O15 0.554799 0.157731 0.444865
#
# Coordination Sequence:
#
# PCOD9273031 Si02
#       7
#     8   8   8   8   8   8   8
#     4  10  21  37  59  87 118 153 195 248 303 357
#     4  11  23  37  60  94 121 155 202 260 307 357
#     4  10  22  40  59  87 122 157 203 241 295 362
#     4  10  21  38  62  90 125 150 201 252 303 361
#     4  11  20  38  66  89 123 160 196 251 306 360
#     4  10  20  37  62  89 116 155 198 245 308 354
#     4  10  23  39  60  89 118 162 201 243 296 363
#
# _framework density 20.452852
#
# number of rings (size 3 to 8) (size 9 to 14) (size 15 to 20)
#    0.000    1.714    2.857    0.857    4.000    2.857 
#    2.571    0.000    0.000    0.000    0.000    0.000 
#    0.000    0.000    0.000    0.000    0.000    0.000 
#
# Total GULP energy -156243.130622 kJ/mol
# GULP energy per Si atom -5580.111808 kJ/mol
# Density = 2.040630 g / cm^3
# Si number density = 20.452852 Si / 1000 Ang^3
#
#
#
# Elastic Constant Matrix: (Units=GPa)
#
#
# Indices 1 2 3 4 5 6 
#
# 1 41.7360 7.5589 33.8022 0.0385 2.6156 -0.0063
# 2 7.5589 32.0951 10.9856 -0.0235 -4.7877 0.0202
# 3 33.8022 10.9856 85.4973 -0.0169 -1.1735 -0.0254
# 4 0.0385 -0.0235 -0.0169 23.6166 0.0072 1.5909
# 5 2.6156 -4.7877 -1.1735 0.0072 35.7665 0.0081
# 6 -0.0063 0.0202 -0.0254 1.5909 0.0081 14.8802
#
#
#
# Elastic Compliance Matrix: (Units=1/GPa)
#
#
# Indices 1 2 3 4 5 6 
#
# 1 0.036137 -0.004343 -0.013780 -0.000073 -0.003676 0.000007
# 2 -0.004343 0.033764 -0.002556 0.000041 0.004753 -0.000059
# 3 -0.013780 -0.002556 0.017490 0.000030 0.001239 0.000024
# 4 -0.000073 0.000041 0.000030 0.042651 0.000004 -0.004560
# 5 -0.003676 0.004753 0.001239 0.000004 0.028905 -0.000022
# 6 0.000007 -0.000059 0.000024 -0.004560 -0.000022 0.067691
#
#
# Mechanical properties :
#
#
# Convention : Reuss Voigt Hill
#
# Bulk Modulus (GPa) = 21.72313 29.33577 25.52945
# Shear Modulus (GPa) = 17.64666 21.98477 19.81572
#
# Velocity S-wave (km/s) = 2.94053 3.28212 3.11601
# Velocity P-wave (km/s) = 4.70883 5.36072 5.04532
#
# Compressibility (1/GPa) = 0.04603388
#
# Stress axis : x y z
#
# Youngs Moduli (GPa) = 27.67222 29.61712 57.17662
#
# Poissons Ratio (x) = 0.12862 0.78788
# Poissons Ratio (y) = 0.12018 0.14615
# Poissons Ratio (z) = 0.38131 0.07571
#
# Static dielectric constant tensor:
#      x y z
#    x 1.782240 -0.000010 0.005900 
#    y -0.000010 1.714560 0.000020 
#    z 0.005900 0.000020 1.750650 
# 
# From -- ./inp_files/308997.got.cif
#   From: 2010.05.17/outbox.cif.g08.bks.cpg/sg15_155_cif.got.tgz:308997.got - 2010.06.03 18:47:42.
