data_PCOD9273956
_publ_section_title
;
Structure prediction by ZEFSAII (Michael W. Deem and Ramdas Pophale) SiO2 
 PCOD9273956
Probable space group: C 2/C
;
_chemical_formula_sum "Si O2"
_cell_formula_units_Z 52
_cell_length_a 12.449086
_cell_length_b 14.007366
_cell_length_c 22.385289
_cell_angle_alpha 90.000000
_cell_angle_beta 138.272493
_cell_angle_gamma 90.000000
_cell_volume 2598.140357
_symmetry_space_group_name_H-M "C 2/C"
_symmetry_group_IT_number 15
_symmetry_cell_setting 'monoclinic'
loop_
_space_group_symop_operation_xyz
x,y,z
-x,y,1/2-z
-x,-y,-z
x,-y,1/2+z
1/2+x,1/2+y,z
1/2-x,1/2+y,1/2-z
1/2-x,1/2-y,-z
1/2+x,1/2-y,1/2+z
loop_
_atom_site_type_symbol
_atom_site_label
_atom_site_fract_x
_atom_site_fract_y
_atom_site_fract_z
Si Si1 0.697049 0.030480 0.833083
Si Si2 0.650638 0.500762 0.234537
Si Si3 0.960018 0.423628 0.934288
Si Si4 0.789264 0.630413 0.063897
Si Si5 0.511362 0.689742 0.858007
Si Si6 0.683347 0.736052 0.617744
Si Si7 0.500000 0.645422 0.250000
O O1 0.500000 0.044185 0.750000
O O2 0.772268 0.004614 0.799538
O O3 0.790561 0.127461 0.891368
O O4 0.731880 0.944899 0.892743
O O5 0.797409 0.534310 0.337378
O O6 0.560306 0.399569 0.207030
O O7 0.520520 0.579947 0.199619
O O8 0.941374 0.317468 0.955616
O O9 0.092532 0.412728 0.937573
O O10 0.000000 0.500000 0.000000
O O11 0.879368 0.726825 0.124692
O O12 0.624605 0.653926 0.960303
O O13 0.358204 0.734521 0.828595
O O14 0.851240 0.786465 0.678149
#
# Coordination Sequence:
#
# PCOD9273956 Si02
#       7
#     8   8   8   8   8   8   4
#     4  11  20  40  66  92 122 166 211 258 318 380
#     4  10  22  38  65  93 120 168 214 262 309 390
#     4  10  21  39  63  91 128 171 211 262 325 374
#     4  10  21  40  66  89 127 170 202 273 325 374
#     4   9  21  41  63  92 125 163 211 261 326 375
#     4   9  20  37  63  84 127 165 197 259 317 371
#     4  10  20  38  60  90 120 164 204 258 314 358
#
# _framework density 20.014313999999999
#
# number of rings (size 3 to 8) (size 9 to 14) (size 15 to 20)
#    0.000    2.154    2.308    0.000    4.308    2.462 
#    1.385    0.769   27.077    0.000    0.000    0.000 
#    0.000    0.000    0.000    0.000    0.000    0.000 
#
# Total GULP energy -144763.385429 kJ/mol
# GULP energy per Si atom -5567.822516 kJ/mol
# Density = 1.996876 g / cm^3
# Si number density = 20.014314 Si / 1000 Ang^3
#
#
#
# Elastic Constant Matrix: (Units=GPa)
#
#
# Indices 1 2 3 4 5 6 
#
# 1 97.7871 57.5353 31.5852 0.0000 8.6418 0.0000
# 2 57.5353 168.6198 47.2541 0.0000 -13.0602 0.0000
# 3 31.5852 47.2541 42.7989 0.0000 -0.8414 0.0000
# 4 0.0000 0.0000 0.0000 100.3158 0.0000 -50.1895
# 5 8.6418 -13.0602 -0.8414 0.0000 14.4436 0.0000
# 6 0.0000 0.0000 0.0000 -50.1895 0.0000 82.2258
#
#
#
# Elastic Compliance Matrix: (Units=1/GPa)
#
#
# Indices 1 2 3 4 5 6 
#
# 1 0.016722 -0.004793 -0.007339 0.000000 -0.014766 0.000000
# 2 -0.004793 0.010786 -0.008133 0.000000 0.012146 0.000000
# 3 -0.007339 -0.008133 0.037746 0.000000 -0.000764 0.000000
# 4 0.000000 0.000000 0.000000 0.014351 0.000000 0.008760
# 5 -0.014766 0.012146 -0.000764 0.000000 0.089008 0.000000
# 6 0.000000 0.000000 0.000000 0.008760 0.000000 0.017508
#
#
# Mechanical properties :
#
#
# Convention : Reuss Voigt Hill
#
# Bulk Modulus (GPa) = 40.44676 64.66167 52.55421
# Shear Modulus (GPa) = 21.28652 50.91913 36.10282
#
# Velocity S-wave (km/s) = 3.26477 5.04941 4.25178
# Velocity P-wave (km/s) = 5.87064 8.14698 7.10062
#
# Compressibility (1/GPa) = 0.02472386
#
# Stress axis : x y z
#
# Youngs Moduli (GPa) = 59.80307 92.71567 26.49305
#
# Poissons Ratio (x) = 0.44434 0.19444
# Poissons Ratio (y) = 0.28661 0.21546
# Poissons Ratio (z) = 0.43891 0.75404
#
# Static dielectric constant tensor:
#      x y z
#    x 1.762750 0.000000 0.065130 
#    y 0.000000 1.750130 0.000000 
#    z 0.065130 0.000000 1.716720 
# 
# From -- ./inp_files/269334.got.cif
#   From: 2010.05.17/outbox.cif.g08.bks.cpg/sg15_135_cif.got.tgz:269334.got - 2010.06.03 18:47:42.
