data_PCOD9273064
_publ_section_title
;
Structure prediction by ZEFSAII (Michael W. Deem and Ramdas Pophale) SiO2 
 PCOD9273064
Probable space group: C 2/C
;
_chemical_formula_sum "Si O2"
_cell_formula_units_Z 56
_cell_length_a 15.818286
_cell_length_b 8.242303
_cell_length_c 21.841132
_cell_angle_alpha 90.000000
_cell_angle_beta 120.195846
_cell_angle_gamma 90.000000
_cell_volume 2461.236338
_symmetry_space_group_name_H-M "C 2/C"
_symmetry_group_IT_number 15
_symmetry_cell_setting 'monoclinic'
loop_
_space_group_symop_operation_xyz
x,y,z
-x,y,1/2-z
-x,-y,-z
x,-y,1/2+z
1/2+x,1/2+y,z
1/2-x,1/2+y,1/2-z
1/2-x,1/2-y,-z
1/2+x,1/2-y,1/2+z
loop_
_atom_site_type_symbol
_atom_site_label
_atom_site_fract_x
_atom_site_fract_y
_atom_site_fract_z
Si Si1 0.656694 0.963916 0.938161
Si Si2 0.772991 0.447360 0.724651
Si Si3 0.114097 0.519441 0.555250
Si Si4 0.377988 0.376306 0.724843
Si Si5 0.106273 0.769475 0.311711
Si Si6 0.229309 0.821067 0.105749
Si Si7 0.449862 0.144613 0.844300
O O1 0.748265 0.070339 0.946163
O O2 0.556238 0.069682 0.895203
O O3 0.635053 0.812241 0.886066
O O4 0.666104 0.916991 0.012693
O O5 0.713036 0.411606 0.763014
O O6 0.810225 0.287590 0.704602
O O7 0.709287 0.556362 0.654764
O O8 0.874904 0.533698 0.778517
O O9 0.159016 0.336183 0.579298
O O10 0.107804 0.640079 0.611275
O O11 0.000000 0.500000 0.500000
O O12 0.398687 0.538393 0.695393
O O13 0.335904 0.247353 0.662287
O O14 0.454003 0.302684 0.801916
O O15 0.000000 0.709260 0.250000
#
# Coordination Sequence:
#
# PCOD9273064 Si02
#       7
#     8   8   8   8   8   8   8
#     4  10  22  39  62  88 126 168 212 256 316 384
#     4  10  20  37  62  90 124 160 208 263 313 378
#     4  10  21  39  66  88 125 173 215 250 309 394
#     4  11  23  34  63  93 129 155 207 268 320 374
#     4  11  22  37  61  94 125 161 204 263 318 367
#     4  10  21  36  63  90 122 159 215 259 317 358
#     4  10  20  38  60  90 123 164 208 257 318 377
#
# _framework density 22.752794000000002
#
# number of rings (size 3 to 8) (size 9 to 14) (size 15 to 20)
#    0.000    1.714    2.857    2.143    2.000    0.000 
#    0.000    0.714    3.143    2.571    0.000    0.000 
#    0.000    0.000    0.000    0.000    0.000    0.000 
#
# Total GULP energy -156123.248794 kJ/mol
# GULP energy per Si atom -5575.830314 kJ/mol
# Density = 2.270101 g / cm^3
# Si number density = 22.752794 Si / 1000 Ang^3
#
#
#
# Elastic Constant Matrix: (Units=GPa)
#
#
# Indices 1 2 3 4 5 6 
#
# 1 76.5079 19.1246 15.2269 0.0000 -1.6897 0.0000
# 2 19.1246 79.3935 38.5165 0.0000 -18.0969 0.0000
# 3 15.2269 38.5165 72.2959 0.0000 -17.0580 0.0000
# 4 0.0000 0.0000 0.0000 21.6174 0.0000 14.7977
# 5 -1.6897 -18.0969 -17.0580 0.0000 42.3058 0.0000
# 6 0.0000 0.0000 0.0000 14.7977 0.0000 34.8948
#
#
#
# Elastic Compliance Matrix: (Units=1/GPa)
#
#
# Indices 1 2 3 4 5 6 
#
# 1 0.014106 -0.002848 -0.001777 0.000000 -0.001372 0.000000
# 2 -0.002848 0.018195 -0.008050 0.000000 0.004424 0.000000
# 3 -0.001777 -0.008050 0.019523 0.000000 0.004357 0.000000
# 4 0.000000 0.000000 0.000000 0.065180 0.000000 -0.027640
# 5 -0.001372 0.004424 0.004357 0.000000 0.027232 0.000000
# 6 0.000000 0.000000 0.000000 -0.027640 0.000000 0.040379
#
#
# Mechanical properties :
#
#
# Convention : Reuss Voigt Hill
#
# Bulk Modulus (GPa) = 37.77383 41.54813 39.66098
# Shear Modulus (GPa) = 22.85289 30.11888 26.48589
#
# Velocity S-wave (km/s) = 3.17266 3.64228 3.41555
# Velocity P-wave (km/s) = 5.48260 5.99905 5.74663
#
# Compressibility (1/GPa) = 0.02647336
#
# Stress axis : x y z
#
# Youngs Moduli (GPa) = 70.89209 54.95914 51.22105
#
# Poissons Ratio (x) = 0.15655 0.09102
# Poissons Ratio (y) = 0.20193 0.41233
# Poissons Ratio (z) = 0.12598 0.44243
#
# Static dielectric constant tensor:
#      x y z
#    x 1.893770 0.000000 -0.001810 
#    y 0.000000 1.880190 0.000000 
#    z -0.001810 0.000000 1.884330 
# 
# From -- ./inp_files/247579.got.cif
#   From: 2010.05.17/outbox.cif.g08.bks.cpg/sg15_124_cif.got.tgz:247579.got - 2010.06.03 18:47:42.
