data_PCOD9273907
_publ_section_title
;
Structure prediction by ZEFSAII (Michael W. Deem and Ramdas Pophale) SiO2 
 PCOD9273907
Probable space group: C 2/C
;
_chemical_formula_sum "Si O2"
_cell_formula_units_Z 60
_cell_length_a 27.007268
_cell_length_b 10.700573
_cell_length_c 9.160519
_cell_angle_alpha 90.000000
_cell_angle_beta 83.830398
_cell_angle_gamma 90.000000
_cell_volume 2631.995091
_symmetry_space_group_name_H-M "C 2/C"
_symmetry_group_IT_number 15
_symmetry_cell_setting 'monoclinic'
loop_
_space_group_symop_operation_xyz
x,y,z
-x,y,1/2-z
-x,-y,-z
x,-y,1/2+z
1/2+x,1/2+y,z
1/2-x,1/2+y,1/2-z
1/2-x,1/2-y,-z
1/2+x,1/2-y,1/2+z
loop_
_atom_site_type_symbol
_atom_site_label
_atom_site_fract_x
_atom_site_fract_y
_atom_site_fract_z
Si Si1 0.547827 0.246447 0.825267
Si Si2 0.500000 0.000000 0.500000
Si Si3 0.395295 0.103145 0.903947
Si Si4 0.943642 0.971051 0.475064
Si Si5 0.106947 0.881793 0.280650
Si Si6 0.779947 0.076894 0.857230
Si Si7 0.748292 0.659852 0.312751
Si Si8 0.360229 0.119948 0.221088
O O1 0.500000 0.295676 0.750000
O O2 0.529365 0.117268 0.905205
O O3 0.591102 0.223741 0.694302
O O4 0.566535 0.339093 0.943003
O O5 0.553404 0.056873 0.538402
O O6 0.379555 0.002901 0.789903
O O7 0.356238 0.113612 0.047273
O O8 0.931704 0.951981 0.310876
O O9 0.906833 0.072747 0.554932
O O10 0.000000 0.000000 0.500000
O O11 0.163503 0.909853 0.218217
O O12 0.101406 0.733383 0.266125
O O13 0.744410 0.188219 0.799775
O O14 0.764732 0.936888 0.812945
O O15 0.777116 0.107667 0.031129
O O16 0.807731 0.647801 0.311085
#
# Coordination Sequence:
#
# PCOD9273907 Si02
#       8
#     8   4   8   8   8   8   8   8
#     4  10  22  38  60  88 125 170 220 272 320 383
#     4  10  20  38  60  86 122 168 218 262 330 374
#     4  11  22  39  61  92 129 167 219 273 328 390
#     4  12  26  45  64  94 133 181 225 272 323 389
#     4  11  26  43  68  96 132 176 228 268 335 392
#     4  10  22  45  70  99 134 174 216 284 333 423
#     4  10  22  43  68  99 135 170 220 271 352 398
#     4  11  24  41  66  99 132 170 218 280 332 410
#
# _framework density 22.796396000000001
#
# number of rings (size 3 to 8) (size 9 to 14) (size 15 to 20)
#    0.000    1.333    1.333    3.600    5.600    0.533 
#    4.800    0.000    0.000    0.000    0.000    0.000 
#    0.000    0.000    0.000    0.000    0.000    0.000 
#
# Total GULP energy -167085.811160 kJ/mol
# GULP energy per Si atom -5569.527039 kJ/mol
# Density = 2.274451 g / cm^3
# Si number density = 22.796396 Si / 1000 Ang^3
#
#
#
# Elastic Constant Matrix: (Units=GPa)
#
#
# Indices 1 2 3 4 5 6 
#
# 1 30.9425 8.8600 0.7903 0.0000 -17.0198 0.0000
# 2 8.8600 64.0661 34.1601 0.0000 -2.3578 0.0000
# 3 0.7903 34.1601 90.0569 0.0000 -20.3173 0.0000
# 4 0.0000 0.0000 0.0000 47.9205 0.0000 6.1805
# 5 -17.0198 -2.3578 -20.3173 0.0000 32.3472 0.0000
# 6 0.0000 0.0000 0.0000 6.1805 0.0000 20.5947
#
#
#
# Elastic Compliance Matrix: (Units=1/GPa)
#
#
# Indices 1 2 3 4 5 6 
#
# 1 0.055752 -0.013142 0.012697 0.000000 0.036352 0.000000
# 2 -0.013142 0.023067 -0.011436 0.000000 -0.012416 0.000000
# 3 0.012697 -0.011436 0.019398 0.000000 0.018031 0.000000
# 4 0.000000 0.000000 0.000000 0.021708 0.000000 -0.006515
# 5 0.036352 -0.012416 0.018031 0.000000 0.060462 0.000000
# 6 0.000000 0.000000 0.000000 -0.006515 0.000000 0.050511
#
#
# Mechanical properties :
#
#
# Convention : Reuss Voigt Hill
#
# Bulk Modulus (GPa) = 13.43090 30.29847 21.86469
# Shear Modulus (GPa) = 17.89047 29.58948 23.73998
#
# Velocity S-wave (km/s) = 2.80446 3.60667 3.23056
# Velocity P-wave (km/s) = 4.04859 5.53750 4.85051
#
# Compressibility (1/GPa) = 0.07445517
#
# Stress axis : x y z
#
# Youngs Moduli (GPa) = 17.93662 43.35224 51.55098
#
# Poissons Ratio (x) = 0.56975 -0.65454
# Poissons Ratio (y) = 0.23573 0.58951
# Poissons Ratio (z) = -0.22774 0.49575
#
# Static dielectric constant tensor:
#      x y z
#    x 1.813840 0.000000 -0.054000 
#    y 0.000000 1.912810 0.000000 
#    z -0.054000 0.000000 1.926650 
# 
# From -- ./inp_files/69099.got.cif
#   From: 2010.05.17/outbox.cif.g08.bks.cpg/sg15_35_cif.got.tgz:69099.got - 2010.06.03 18:47:42.
