data_PCOD9273309
_publ_section_title
;
Structure prediction by ZEFSAII (Michael W. Deem and Ramdas Pophale) SiO2 
 PCOD9273309
Probable space group: C 2/C
;
_chemical_formula_sum "Si O2"
_cell_formula_units_Z 64
_cell_length_a 27.616018
_cell_length_b 20.759484
_cell_length_c 8.783372
_cell_angle_alpha 90.000000
_cell_angle_beta 144.574797
_cell_angle_gamma 90.000000
_cell_volume 2918.750615
_symmetry_space_group_name_H-M "C 2/C"
_symmetry_group_IT_number 15
_symmetry_cell_setting 'monoclinic'
loop_
_space_group_symop_operation_xyz
x,y,z
-x,y,1/2-z
-x,-y,-z
x,-y,1/2+z
1/2+x,1/2+y,z
1/2-x,1/2+y,1/2-z
1/2-x,1/2-y,-z
1/2+x,1/2-y,1/2+z
loop_
_atom_site_type_symbol
_atom_site_label
_atom_site_fract_x
_atom_site_fract_y
_atom_site_fract_z
Si Si1 0.724225 0.019936 0.412278
Si Si2 0.020310 0.202936 0.621191
Si Si3 0.997071 0.333857 0.062916
Si Si4 0.527731 0.435027 0.147769
Si Si5 0.714137 0.420300 0.725368
Si Si6 0.779206 0.212927 0.365520
Si Si7 0.448241 0.049893 0.967169
Si Si8 0.299743 0.843685 0.527638
O O1 0.787969 0.964139 0.629617
O O2 0.636850 0.984441 0.209749
O O3 0.726018 0.045537 0.244547
O O4 0.732855 0.083103 0.542772
O O5 0.979923 0.262537 0.431990
O O6 0.993556 0.132482 0.494979
O O7 0.000000 0.206984 0.750000
O O8 0.120227 0.209846 0.850519
O O9 0.000000 0.339741 0.250000
O O10 0.058352 0.384825 0.143996
O O11 0.900351 0.348128 0.768563
O O12 0.500000 0.437599 0.250000
O O13 0.626994 0.426917 0.412215
O O14 0.500000 0.500000 0.000000
O O15 0.733791 0.344163 0.791866
O O16 0.726516 0.187537 0.376146
O O17 0.764872 0.290259 0.318436
O O18 0.500000 0.065481 0.250000
O O19 0.500000 0.000000 0.000000
#
# Coordination Sequence:
#
# PCOD9273309 Si02
#       8
#     8   8   8   8   8   8   8   8
#     4  11  22  35  59  83 124 156 203 249 296 359
#     4   9  19  38  59  87 117 161 198 250 314 366
#     4  11  23  37  60  87 122 160 211 252 298 359
#     4  10  20  37  64  91 123 158 200 256 319 375
#     4  10  21  37  58  88 116 160 198 249 307 362
#     4   8  17  34  60  77 108 154 200 238 297 358
#     4  12  24  38  57  87 122 166 208 252 300 357
#     4   9  18  35  57  83 112 158 204 242 295 355
#
# _framework density 21.92719
#
# number of rings (size 3 to 8) (size 9 to 14) (size 15 to 20)
#    0.000    2.000    1.250    2.250    3.500    0.500 
#    0.000    3.750    0.000    1.500    0.000    0.000 
#    0.000    0.000    0.000    0.000    0.000    0.000 
#
# Total GULP energy -178478.381567 kJ/mol
# GULP energy per Si atom -5577.449424 kJ/mol
# Density = 2.187728 g / cm^3
# Si number density = 21.927190 Si / 1000 Ang^3
#
#
#
# Elastic Constant Matrix: (Units=GPa)
#
#
# Indices 1 2 3 4 5 6 
#
# 1 66.2102 17.9513 1.1674 0.0000 8.6498 0.0000
# 2 17.9513 153.0363 21.9845 0.0000 -13.6021 0.0000
# 3 1.1674 21.9845 26.2331 0.0000 -5.7627 0.0000
# 4 0.0000 0.0000 0.0000 10.7554 0.0000 -11.8257
# 5 8.6498 -13.6021 -5.7627 0.0000 28.6646 0.0000
# 6 0.0000 0.0000 0.0000 -11.8257 0.0000 30.9831
#
#
#
# Elastic Compliance Matrix: (Units=1/GPa)
#
#
# Indices 1 2 3 4 5 6 
#
# 1 0.016589 -0.002495 -0.000007 0.000000 -0.006191 0.000000
# 2 -0.002495 0.007962 -0.005824 0.000000 0.003361 0.000000
# 3 -0.000007 -0.005824 0.044353 0.000000 0.006155 0.000000
# 4 0.000000 0.000000 0.000000 0.160213 0.000000 0.061150
# 5 -0.006191 0.003361 0.006155 0.000000 0.039587 0.000000
# 6 0.000000 0.000000 0.000000 0.061150 0.000000 0.055616
#
#
# Mechanical properties :
#
#
# Convention : Reuss Voigt Hill
#
# Bulk Modulus (GPa) = 19.13798 36.40953 27.77375
# Shear Modulus (GPa) = 13.95133 27.70570 20.82852
#
# Velocity S-wave (km/s) = 2.52515 3.55848 3.08538
# Velocity P-wave (km/s) = 4.15316 5.79003 5.03851
#
# Compressibility (1/GPa) = 0.05225211
#
# Stress axis : x y z
#
# Youngs Moduli (GPa) = 60.28129 125.59105 22.54653
#
# Poissons Ratio (x) = 0.31337 0.00016
# Poissons Ratio (y) = 0.15041 0.13130
# Poissons Ratio (z) = 0.00044 0.73139
#
# Static dielectric constant tensor:
#      x y z
#    x 1.715330 0.000000 -0.024060 
#    y 0.000000 1.861980 0.000000 
#    z -0.024060 0.000000 1.805890 
# 
# From -- ./inp_files/70615.got.cif
#   From: 2010.05.17/outbox.cif.g08.bks.cpg/sg15_36_cif.got.tgz:70615.got - 2010.06.03 18:47:42.
