data_PCOD9273297
_publ_section_title
;
Structure prediction by ZEFSAII (Michael W. Deem and Ramdas Pophale) SiO2 
 PCOD9273297
Probable space group: C 2/C
;
_chemical_formula_sum "Si O2"
_cell_formula_units_Z 52
_cell_length_a 12.846017
_cell_length_b 29.654918
_cell_length_c 8.983702
_cell_angle_alpha 90.000000
_cell_angle_beta 128.297708
_cell_angle_gamma 90.000000
_cell_volume 2685.840357
_symmetry_space_group_name_H-M "C 2/C"
_symmetry_group_IT_number 15
_symmetry_cell_setting 'monoclinic'
loop_
_space_group_symop_operation_xyz
x,y,z
-x,y,1/2-z
-x,-y,-z
x,-y,1/2+z
1/2+x,1/2+y,z
1/2-x,1/2+y,1/2-z
1/2-x,1/2-y,-z
1/2+x,1/2-y,1/2+z
loop_
_atom_site_type_symbol
_atom_site_label
_atom_site_fract_x
_atom_site_fract_y
_atom_site_fract_z
Si Si1 0.217239 0.701310 0.627508
Si Si2 0.523596 0.646715 0.599214
Si Si3 0.500000 0.502526 0.750000
Si Si4 0.256036 0.696897 0.310993
Si Si5 0.479857 0.145473 0.554527
Si Si6 0.647617 0.555827 0.621090
Si Si7 0.537335 0.953143 0.110693
O O1 0.366276 0.685676 0.795808
O O2 0.204200 0.699203 0.436465
O O3 0.200782 0.751486 0.677274
O O4 0.110981 0.667232 0.600062
O O5 0.500000 0.632274 0.750000
O O6 0.385049 0.665410 0.417995
O O7 0.585287 0.605514 0.563830
O O8 0.586906 0.531810 0.713125
O O9 0.402812 0.472024 0.565136
O O10 0.143041 0.675942 0.107229
O O11 0.500000 0.145371 0.750000
O O12 0.465959 0.093013 0.492825
O O13 0.805906 0.555898 0.766935
O O14 0.500000 0.958148 0.250000
O O15 0.500000 0.000000 0.000000
#
# Coordination Sequence:
#
# PCOD9273297 Si02
#       7
#     8   8   4   8   8   8   8
#     4  10  20  42  64  91 124 162 211 263 303 373
#     4  10  20  37  64  90 124 157 203 262 312 365
#     4  10  24  36  66  88 120 156 206 258 318 368
#     4  10  22  38  67  94 119 164 214 254 315 375
#     4  11  24  40  61  92 132 163 202 260 319 382
#     4  11  21  42  60  91 121 161 203 262 310 377
#     4  11  25  43  63  88 126 170 215 262 313 383
#
# _framework density 19.360793999999999
#
# number of rings (size 3 to 8) (size 9 to 14) (size 15 to 20)
#    0.000    1.538    2.308    2.308    0.000    9.231 
#    0.000    0.000    0.000    0.000    0.000    0.000 
#    0.000    0.000    0.000    0.000    0.000    0.000 
#
# Total GULP energy -145239.664660 kJ/mol
# GULP energy per Si atom -5586.140948 kJ/mol
# Density = 1.931673 g / cm^3
# Si number density = 19.360794 Si / 1000 Ang^3
#
#
#
# Elastic Constant Matrix: (Units=GPa)
#
#
# Indices 1 2 3 4 5 6 
#
# 1 53.1216 29.4688 21.6511 0.0000 9.2123 0.0000
# 2 29.4688 143.3930 42.7414 0.0000 -1.4824 0.0000
# 3 21.6511 42.7414 79.9054 0.0000 12.2855 0.0000
# 4 0.0000 0.0000 0.0000 19.1098 0.0000 4.0896
# 5 9.2123 -1.4824 12.2855 0.0000 24.1487 0.0000
# 6 0.0000 0.0000 0.0000 4.0896 0.0000 19.6558
#
#
#
# Elastic Compliance Matrix: (Units=1/GPa)
#
#
# Indices 1 2 3 4 5 6 
#
# 1 0.023644 -0.004024 -0.003070 0.000000 -0.007705 0.000000
# 2 -0.004024 0.009187 -0.004498 0.000000 0.004388 0.000000
# 3 -0.003070 -0.004498 0.016940 0.000000 -0.007723 0.000000
# 4 0.000000 0.000000 0.000000 0.054768 0.000000 -0.011395
# 5 -0.007705 0.004388 -0.007723 0.000000 0.048548 0.000000
# 6 0.000000 0.000000 0.000000 -0.011395 0.000000 0.053246
#
#
# Mechanical properties :
#
#
# Convention : Reuss Voigt Hill
#
# Bulk Modulus (GPa) = 37.61129 51.57141 44.59135
# Shear Modulus (GPa) = 20.97491 24.75343 22.86417
#
# Velocity S-wave (km/s) = 3.29503 3.57954 3.44023
# Velocity P-wave (km/s) = 5.82623 6.61657 6.23394
#
# Compressibility (1/GPa) = 0.02658776
#
# Stress axis : x y z
#
# Youngs Moduli (GPa) = 42.29358 108.84952 59.03116
#
# Poissons Ratio (x) = 0.43799 0.18120
# Poissons Ratio (y) = 0.17018 0.26555
# Poissons Ratio (z) = 0.12982 0.48965
#
# Static dielectric constant tensor:
#      x y z
#    x 1.648260 0.000000 0.028750 
#    y 0.000000 1.696460 0.000000 
#    z 0.028750 0.000000 1.124370 
# 
# From -- ./inp_files/34415.got.cif
#   From: 2010.05.17/outbox.cif.g08.bks.cpg/sg15_18_cif.got.tgz:34415.got - 2010.06.03 18:47:42.
