data_PCOD9273393
_publ_section_title
;
Structure prediction by ZEFSAII (Michael W. Deem and Ramdas Pophale) SiO2 
 PCOD9273393
Probable space group: C 2/C
;
_chemical_formula_sum "Si O2"
_cell_formula_units_Z 64
_cell_length_a 19.960373
_cell_length_b 9.799237
_cell_length_c 20.528963
_cell_angle_alpha 90.000000
_cell_angle_beta 55.398706
_cell_angle_gamma 90.000000
_cell_volume 3305.163516
_symmetry_space_group_name_H-M "C 2/C"
_symmetry_group_IT_number 15
_symmetry_cell_setting 'monoclinic'
loop_
_space_group_symop_operation_xyz
x,y,z
-x,y,1/2-z
-x,-y,-z
x,-y,1/2+z
1/2+x,1/2+y,z
1/2-x,1/2+y,1/2-z
1/2-x,1/2-y,-z
1/2+x,1/2-y,1/2+z
loop_
_atom_site_type_symbol
_atom_site_label
_atom_site_fract_x
_atom_site_fract_y
_atom_site_fract_z
Si Si1 0.694934 0.600976 0.769455
Si Si2 0.021143 0.111898 0.935387
Si Si3 0.168937 0.587325 0.258465
Si Si4 0.160989 0.695401 0.524832
Si Si5 0.428049 0.895098 0.552839
Si Si6 0.882416 0.886759 0.774607
Si Si7 0.597376 0.089655 0.691866
Si Si8 0.552955 0.443703 0.621912
O O1 0.612021 0.600207 0.856739
O O2 0.764837 0.532521 0.773058
O O3 0.704160 0.757363 0.739798
O O4 0.682914 0.487168 0.720062
O O5 0.020822 0.256624 0.968199
O O6 0.959528 0.082940 0.910076
O O7 0.000000 0.000000 0.000000
O O8 0.114621 0.577222 0.353957
O O9 0.120014 0.544168 0.220633
O O10 0.250000 0.750000 0.500000
O O11 0.140515 0.625821 0.466211
O O12 0.127163 0.596349 0.600759
O O13 0.105772 0.831889 0.555617
O O14 0.500000 0.000000 0.500000
O O15 0.863641 0.729246 0.799433
O O16 0.908257 0.953973 0.828604
O O17 0.962007 0.886935 0.684598
O O18 0.500000 0.109493 0.750000
#
# Coordination Sequence:
#
# PCOD9273393 Si02
#       8
#     8   8   8   8   8   8   8   8
#     4  10  23  39  60  94 121 162 209 265 316 370
#     4  10  20  37  65  88 122 161 214 251 309 389
#     4  11  25  41  64  90 129 163 215 268 319 383
#     4  11  23  37  65  93 128 163 213 264 317 382
#     4  11  25  42  61  95 130 167 210 269 330 381
#     4   9  17  35  62  87 116 152 216 244 305 371
#     4  11  21  40  65  91 121 175 213 254 318 396
#     4   9  17  34  59  87 114 161 200 251 297 373
#
# _framework density 19.363641000000001
#
# number of rings (size 3 to 8) (size 9 to 14) (size 15 to 20)
#    0.000    1.750    3.750    1.500    7.000    1.000 
#    9.000    0.000    0.000    1.500    0.000    0.000 
#    0.000    0.000    0.000    0.000    0.000    0.000 
#
# Total GULP energy -178235.818861 kJ/mol
# GULP energy per Si atom -5569.869339 kJ/mol
# Density = 1.931957 g / cm^3
# Si number density = 19.363641 Si / 1000 Ang^3
#
#
#
# Elastic Constant Matrix: (Units=GPa)
#
#
# Indices 1 2 3 4 5 6 
#
# 1 80.8726 45.2706 18.7212 0.0000 5.7998 0.0000
# 2 45.2706 113.4212 24.5790 0.0000 6.3772 0.0000
# 3 18.7212 24.5790 50.6985 0.0000 5.7192 0.0000
# 4 0.0000 0.0000 0.0000 25.5608 0.0000 7.9263
# 5 5.7998 6.3772 5.7192 0.0000 16.3641 0.0000
# 6 0.0000 0.0000 0.0000 7.9263 0.0000 37.8442
#
#
#
# Elastic Compliance Matrix: (Units=1/GPa)
#
#
# Indices 1 2 3 4 5 6 
#
# 1 0.016479 -0.005786 -0.002994 0.000000 -0.002539 0.000000
# 2 -0.005786 0.011964 -0.003507 0.000000 -0.001386 0.000000
# 3 -0.002994 -0.003507 0.023170 0.000000 -0.005670 0.000000
# 4 0.000000 0.000000 0.000000 0.041840 0.000000 -0.008763
# 5 -0.002539 -0.001386 -0.005670 0.000000 0.064531 0.000000
# 6 0.000000 0.000000 0.000000 -0.008763 0.000000 0.028260
#
#
# Mechanical properties :
#
#
# Convention : Reuss Voigt Hill
#
# Bulk Modulus (GPa) = 36.98333 46.90377 41.94355
# Shear Modulus (GPa) = 22.74482 26.38193 24.56337
#
# Velocity S-wave (km/s) = 3.43098 3.69514 3.56551
# Velocity P-wave (km/s) = 5.90223 6.51771 6.21759
#
# Compressibility (1/GPa) = 0.02703921
#
# Stress axis : x y z
#
# Youngs Moduli (GPa) = 60.68319 83.58371 43.15944
#
# Poissons Ratio (x) = 0.48360 0.12920
# Poissons Ratio (y) = 0.35111 0.15138
# Poissons Ratio (z) = 0.18166 0.29316
#
# Static dielectric constant tensor:
#      x y z
#    x 1.747010 0.000000 0.029130 
#    y 0.000000 1.670210 0.000000 
#    z 0.029130 0.000000 1.720600 
# 
# From -- ./inp_files/251868.got.cif
#   From: 2010.05.17/outbox.cif.g08.bks.cpg/sg15_126_cif.got.tgz:251868.got - 2010.06.03 18:47:42.
