data_PCOD9273018
_publ_section_title
;
Structure prediction by ZEFSAII (Michael W. Deem and Ramdas Pophale) SiO2 
 PCOD9273018
Probable space group: C 2/C
;
_chemical_formula_sum "Si O2"
_cell_formula_units_Z 40
_cell_length_a 10.263094
_cell_length_b 14.074555
_cell_length_c 15.961956
_cell_angle_alpha 90.000000
_cell_angle_beta 140.350794
_cell_angle_gamma 90.000000
_cell_volume 1471.221111
_symmetry_space_group_name_H-M "C 2/C"
_symmetry_group_IT_number 15
_symmetry_cell_setting 'monoclinic'
loop_
_space_group_symop_operation_xyz
x,y,z
-x,y,1/2-z
-x,-y,-z
x,-y,1/2+z
1/2+x,1/2+y,z
1/2-x,1/2+y,1/2-z
1/2-x,1/2-y,-z
1/2+x,1/2-y,1/2+z
loop_
_atom_site_type_symbol
_atom_site_label
_atom_site_fract_x
_atom_site_fract_y
_atom_site_fract_z
Si Si1 0.987195 0.765417 0.592216
Si Si2 0.985731 0.358043 0.644008
Si Si3 0.018994 0.560513 0.860357
Si Si4 0.509167 0.463896 0.850181
Si Si5 0.488412 0.660084 0.584539
O O1 0.750000 0.750000 0.500000
O O2 0.063479 0.657370 0.640187
O O3 0.071443 0.855015 0.686790
O O4 0.006411 0.805594 0.508386
O O5 0.063707 0.458714 0.646787
O O6 0.746750 0.350478 0.501934
O O7 0.072736 0.253310 0.672583
O O8 0.000000 0.373899 0.750000
O O9 0.000000 0.571730 0.750000
O O10 0.259297 0.551347 0.001916
O O11 0.500000 0.496861 0.750000
O O12 0.427121 0.553179 0.864204
#
# Coordination Sequence:
#
# PCOD9273018 Si02
#       5
#     8   8   8   8   8
#     4  10  21  38  60  88 126 160 205 250 311 370
#     4   9  19  38  60  86 118 157 210 255 301 361
#     4   9  19  38  62  84 124 163 199 252 304 367
#     4  10  20  37  63  89 122 161 208 254 304 368
#     4  10  20  37  62  87 120 161 206 253 306 363
#
# _framework density 27.188299000000001
#
# number of rings (size 3 to 8) (size 9 to 14) (size 15 to 20)
#    0.000    2.400    0.000    1.800    0.000    0.800 
#   14.400    0.000   17.600    0.000    0.000    0.000 
#    0.000    0.000    0.000    0.000    0.000    0.000 
#
# Total GULP energy -111807.244572 kJ/mol
# GULP energy per Si atom -5590.362229 kJ/mol
# Density = 2.712642 g / cm^3
# Si number density = 27.188299 Si / 1000 Ang^3
#
#
#
# Elastic Constant Matrix: (Units=GPa)
#
#
# Indices 1 2 3 4 5 6 
#
# 1 60.8439 83.0335 16.1407 0.0001 3.0492 0.0000
# 2 83.0335 359.7850 48.4472 0.0000 13.0496 0.0000
# 3 16.1407 48.4472 94.5333 0.0002 -9.2479 0.0001
# 4 0.0001 0.0000 0.0002 56.5331 0.0001 10.8788
# 5 3.0492 13.0496 -9.2479 0.0001 61.7056 0.0001
# 6 0.0000 0.0000 0.0001 10.8788 0.0001 73.3007
#
#
#
# Elastic Compliance Matrix: (Units=1/GPa)
#
#
# Indices 1 2 3 4 5 6 
#
# 1 0.024158 -0.005378 -0.001395 0.000000 -0.000265 0.000000
# 2 -0.005378 0.004230 -0.001331 0.000000 -0.000828 0.000000
# 3 -0.001395 -0.001331 0.011704 0.000000 0.002104 0.000000
# 4 0.000000 0.000000 0.000000 0.018209 0.000000 -0.002702
# 5 -0.000265 -0.000828 0.002104 0.000000 0.016710 0.000000
# 6 0.000000 0.000000 0.000000 -0.002702 0.000000 0.014044
#
#
# Mechanical properties :
#
#
# Convention : Reuss Voigt Hill
#
# Bulk Modulus (GPa) = 41.86578 90.04500 65.95539
# Shear Modulus (GPa) = 44.16112 62.81062 53.48587
#
# Velocity S-wave (km/s) = 4.03459 4.81168 4.44017
# Velocity P-wave (km/s) = 6.09392 8.00378 7.11324
#
# Compressibility (1/GPa) = 0.02388586
#
# Stress axis : x y z
#
# Youngs Moduli (GPa) = 41.39420 236.41869 85.43992
#
# Poissons Ratio (x) = 1.27144 0.11915
# Poissons Ratio (y) = 0.22261 0.11368
# Poissons Ratio (z) = 0.05773 0.31456
#
# Static dielectric constant tensor:
#      x y z
#    x 2.323810 0.000000 0.243410 
#    y 0.000000 2.259730 0.000000 
#    z 0.243410 0.000000 2.352050 
# 
# From -- ./inp_files/143930.got.cif
#   From: 2010.05.17/outbox.cif.g08.bks.cpg/sg15_72_cif.got.tgz:143930.got - 2010.06.03 18:47:42.
