data_PCOD9273904
_publ_section_title
;
Structure prediction by ZEFSAII (Michael W. Deem and Ramdas Pophale) SiO2 
 PCOD9273904
Probable space group: C 2/C
;
_chemical_formula_sum "Si O2"
_cell_formula_units_Z 60
_cell_length_a 27.260887
_cell_length_b 11.987281
_cell_length_c 15.881705
_cell_angle_alpha 90.000000
_cell_angle_beta 148.791656
_cell_angle_gamma 90.000000
_cell_volume 2689.147429
_symmetry_space_group_name_H-M "C 2/C"
_symmetry_group_IT_number 15
_symmetry_cell_setting 'monoclinic'
loop_
_space_group_symop_operation_xyz
x,y,z
-x,y,1/2-z
-x,-y,-z
x,-y,1/2+z
1/2+x,1/2+y,z
1/2-x,1/2+y,1/2-z
1/2-x,1/2-y,-z
1/2+x,1/2-y,1/2+z
loop_
_atom_site_type_symbol
_atom_site_label
_atom_site_fract_x
_atom_site_fract_y
_atom_site_fract_z
Si Si1 0.690125 0.675602 0.026603
Si Si2 0.506318 0.764454 0.981805
Si Si3 0.810622 0.773231 0.484550
Si Si4 0.910665 0.106097 0.977756
Si Si5 0.500000 0.531754 0.750000
Si Si6 0.127718 0.623413 0.793238
Si Si7 0.313591 0.382420 0.798091
Si Si8 0.354974 0.123854 0.138663
O O1 0.593592 0.605678 0.880112
O O2 0.666461 0.805637 0.976684
O O3 0.732451 0.647081 0.179669
O O4 0.761938 0.636801 0.060216
O O5 0.449970 0.683569 0.962371
O O6 0.438358 0.812719 0.811035
O O7 0.554736 0.860451 0.109772
O O8 0.591214 0.691758 0.067550
O O9 0.855159 0.826272 0.467811
O O10 0.884501 0.727943 0.661259
O O11 0.733492 0.856892 0.411063
O O12 0.752523 0.662817 0.372210
O O13 0.843545 0.010429 0.840114
O O14 0.989130 0.040949 0.149085
O O15 0.119489 0.505713 0.827089
#
# Coordination Sequence:
#
# PCOD9273904 Si02
#       8
#     8   8   8   8   4   8   8   8
#     4  10  22  38  61  89 115 150 198 239 290 354
#     4  11  23  38  59  88 119 154 201 238 286 354
#     4  10  22  39  60  87 117 151 198 239 291 356
#     4  11  21  37  61  87 117 153 193 242 289 344
#     4  10  20  38  60  86 120 152 186 240 296 338
#     4  10  22  40  59  84 119 158 192 241 296 342
#     4  10  22  39  60  86 119 155 189 245 299 341
#     4  11  22  39  61  86 118 155 195 243 289 345
#
# _framework density 22.311903999999998
#
# number of rings (size 3 to 8) (size 9 to 14) (size 15 to 20)
#    0.000    1.600    0.000    5.600    0.000    5.333 
#    0.000    5.333    0.000    0.000    0.000    0.000 
#    0.000    0.000    0.000    0.000    0.000    0.000 
#
# Total GULP energy -167852.499429 kJ/mol
# GULP energy per Si atom -5595.083314 kJ/mol
# Density = 2.226112 g / cm^3
# Si number density = 22.311904 Si / 1000 Ang^3
#
#
#
# Elastic Constant Matrix: (Units=GPa)
#
#
# Indices 1 2 3 4 5 6 
#
# 1 36.4273 8.8145 -9.3671 0.0000 7.5467 0.0000
# 2 8.8145 86.2548 -4.4326 0.0000 -2.4248 0.0000
# 3 -9.3671 -4.4326 45.9919 0.0000 -7.5980 0.0000
# 4 0.0000 0.0000 0.0000 23.3539 0.0000 -6.9631
# 5 7.5467 -2.4248 -7.5980 0.0000 19.7006 0.0000
# 6 0.0000 0.0000 0.0000 -6.9631 0.0000 22.9296
#
#
#
# Elastic Compliance Matrix: (Units=1/GPa)
#
#
# Indices 1 2 3 4 5 6 
#
# 1 0.031614 -0.003313 0.004327 0.000000 -0.010849 0.000000
# 2 -0.003313 0.012072 0.001008 0.000000 0.003144 0.000000
# 3 0.004327 0.001008 0.023997 0.000000 0.007722 0.000000
# 4 0.000000 0.000000 0.000000 0.047082 0.000000 0.014298
# 5 -0.010849 0.003144 0.007722 0.000000 0.058281 0.000000
# 6 0.000000 0.000000 0.000000 0.014298 0.000000 0.047954
#
#
# Mechanical properties :
#
#
# Convention : Reuss Voigt Hill
#
# Bulk Modulus (GPa) = 13.94171 17.63373 15.78772
# Shear Modulus (GPa) = 20.75846 24.77410 22.76628
#
# Velocity S-wave (km/s) = 3.05352 3.33581 3.19778
# Velocity P-wave (km/s) = 4.32366 4.77046 4.55255
#
# Compressibility (1/GPa) = 0.07172719
#
# Stress axis : x y z
#
# Youngs Moduli (GPa) = 31.63153 82.83401 41.67179
#
# Poissons Ratio (x) = 0.27446 -0.18032
# Poissons Ratio (y) = 0.10481 -0.04201
# Poissons Ratio (z) = -0.13687 -0.08350
#
# Static dielectric constant tensor:
#      x y z
#    x 1.803530 0.000000 -0.022410 
#    y 0.000000 1.825620 0.000000 
#    z -0.022410 0.000000 1.827960 
# 
# From -- ./inp_files/222559.got.cif
#   From: 2010.05.17/outbox.cif.g08.bks.cpg/sg15_112_cif.got.tgz:222559.got - 2010.06.03 18:47:42.
