data_PCOD9273850
_publ_section_title
;
Structure prediction by ZEFSAII (Michael W. Deem and Ramdas Pophale) SiO2 
 PCOD9273850
Probable space group: C 2/C
;
_chemical_formula_sum "Si O2"
_cell_formula_units_Z 44
_cell_length_a 6.033886
_cell_length_b 26.044754
_cell_length_c 14.539012
_cell_angle_alpha 90.000000
_cell_angle_beta 118.230416
_cell_angle_gamma 90.000000
_cell_volume 2013.047527
_symmetry_space_group_name_H-M "C 2/C"
_symmetry_group_IT_number 15
_symmetry_cell_setting 'monoclinic'
loop_
_space_group_symop_operation_xyz
x,y,z
-x,y,1/2-z
-x,-y,-z
x,-y,1/2+z
1/2+x,1/2+y,z
1/2-x,1/2+y,1/2-z
1/2-x,1/2-y,-z
1/2+x,1/2-y,1/2+z
loop_
_atom_site_type_symbol
_atom_site_label
_atom_site_fract_x
_atom_site_fract_y
_atom_site_fract_z
Si Si1 0.018904 0.210588 0.962039
Si Si2 0.744670 0.049624 0.360954
Si Si3 0.360034 0.874518 0.493593
Si Si4 0.500000 0.518881 0.250000
Si Si5 0.171859 0.802021 0.870781
Si Si6 0.503460 0.033778 0.593105
O O1 0.778777 0.243560 0.883279
O O2 0.250000 0.250000 0.000000
O O3 0.119957 0.161491 0.926467
O O4 0.971503 0.195591 0.059413
O O5 0.500000 0.061337 0.250000
O O6 0.731202 0.086753 0.444527
O O7 0.722146 0.990628 0.392379
O O8 0.976828 0.052933 0.337188
O O9 0.588129 0.839618 0.575850
O O10 0.470196 0.907763 0.431231
O O11 0.743895 0.483926 0.306006
O O12 0.000000 0.814333 0.750000
O O13 0.500000 0.000000 0.500000
#
# Coordination Sequence:
#
# PCOD9273850 Si02
#       6
#     8   8   8   4   8   8
#     4   9  21  40  60  87 120 152 194 251 308 362
#     4   9  20  35  56  88 120 152 205 241 291 355
#     4  10  21  36  60  88 119 154 205 247 294 364
#     4  10  20  38  60  76 122 172 186 246 306 340
#     4  10  22  40  63  89 121 155 195 255 317 364
#     4   9  20  38  53  83 120 155 199 245 287 352
#
# _framework density 21.857409000000001
#
# number of rings (size 3 to 8) (size 9 to 14) (size 15 to 20)
#    0.000    2.545    0.000    0.000    2.545   10.909 
#    6.545    5.455    0.000    4.364    0.000    0.000 
#    0.000    0.000    0.000    0.000    0.000    0.000 
#
# Total GULP energy -122747.494541 kJ/mol
# GULP energy per Si atom -5579.431570 kJ/mol
# Density = 2.180766 g / cm^3
# Si number density = 21.857409 Si / 1000 Ang^3
#
#
#
# Elastic Constant Matrix: (Units=GPa)
#
#
# Indices 1 2 3 4 5 6 
#
# 1 85.2774 32.7586 20.8667 0.0000 -18.7433 0.0000
# 2 32.7586 99.3537 11.8879 0.0000 -13.6448 0.0000
# 3 20.8667 11.8879 44.9890 0.0000 -8.7330 0.0000
# 4 0.0000 0.0000 0.0000 18.3069 0.0000 -3.9357
# 5 -18.7433 -13.6448 -8.7330 0.0000 36.7107 0.0000
# 6 0.0000 0.0000 0.0000 -3.9357 0.0000 30.9517
#
#
#
# Elastic Compliance Matrix: (Units=1/GPa)
#
#
# Indices 1 2 3 4 5 6 
#
# 1 0.015632 -0.003799 -0.005212 0.000000 0.005330 0.000000
# 2 -0.003799 0.011729 -0.000910 0.000000 0.002204 0.000000
# 3 -0.005212 -0.000910 0.025480 0.000000 0.003062 0.000000
# 4 0.000000 0.000000 0.000000 0.056160 0.000000 0.007141
# 5 0.005330 0.002204 0.003062 0.000000 0.031509 0.000000
# 6 0.000000 0.000000 0.000000 0.007141 0.000000 0.033216
#
#
# Mechanical properties :
#
#
# Convention : Reuss Voigt Hill
#
# Bulk Modulus (GPa) = 30.30284 40.07183 35.18733
# Shear Modulus (GPa) = 24.44183 28.13431 26.28807
#
# Velocity S-wave (km/s) = 3.34764 3.59161 3.47177
# Velocity P-wave (km/s) = 5.36994 5.96428 5.67490
#
# Compressibility (1/GPa) = 0.03300020
#
# Stress axis : x y z
#
# Youngs Moduli (GPa) = 63.96936 85.25866 39.24653
#
# Poissons Ratio (x) = 0.32387 0.20457
# Poissons Ratio (y) = 0.24300 0.03570
# Poissons Ratio (z) = 0.33343 0.07755
#
# Static dielectric constant tensor:
#      x y z
#    x 1.865940 0.000000 -0.017250 
#    y 0.000000 1.858060 0.000000 
#    z -0.017250 0.000000 1.793000 
# 
# From -- ./inp_files/129838.got.cif
#   From: 2010.05.17/outbox.cif.g08.bks.cpg/sg15_65_cif.got.tgz:129838.got - 2010.06.03 18:47:42.
