data_PCOD9273370
_publ_section_title
;
Structure prediction by ZEFSAII (Michael W. Deem and Ramdas Pophale) SiO2 
 PCOD9273370
Probable space group: C 2/C
;
_chemical_formula_sum "Si O2"
_cell_formula_units_Z 64
_cell_length_a 17.413289
_cell_length_b 9.743205
_cell_length_c 27.982449
_cell_angle_alpha 90.000000
_cell_angle_beta 43.647662
_cell_angle_gamma 90.000000
_cell_volume 3276.853207
_symmetry_space_group_name_H-M "C 2/C"
_symmetry_group_IT_number 15
_symmetry_cell_setting 'monoclinic'
loop_
_space_group_symop_operation_xyz
x,y,z
-x,y,1/2-z
-x,-y,-z
x,-y,1/2+z
1/2+x,1/2+y,z
1/2-x,1/2+y,1/2-z
1/2-x,1/2-y,-z
1/2+x,1/2-y,1/2+z
loop_
_atom_site_type_symbol
_atom_site_label
_atom_site_fract_x
_atom_site_fract_y
_atom_site_fract_z
Si Si1 0.760528 0.153273 0.164714
Si Si2 0.027646 0.507055 0.064540
Si Si3 0.055809 0.041743 0.345223
Si Si4 0.299951 0.656777 0.304446
Si Si5 0.872248 0.733390 0.923069
Si Si6 0.322131 0.936166 0.087602
Si Si7 0.619145 0.919946 0.182446
Si Si8 0.099918 0.727545 0.325413
O O1 0.870707 0.101248 0.143529
O O2 0.783145 0.288528 0.123386
O O3 0.669083 0.194817 0.246254
O O4 0.712378 0.030691 0.154063
O O5 0.059412 0.362163 0.071716
O O6 0.923522 0.481358 0.076565
O O7 0.989814 0.610686 0.122849
O O8 0.128986 0.564250 0.987409
O O9 0.132169 0.070960 0.264713
O O10 0.941528 0.124974 0.389670
O O11 0.046839 0.877895 0.351878
O O12 0.267343 0.556342 0.362515
O O13 0.368786 0.788252 0.288736
O O14 0.190827 0.714821 0.326951
O O15 0.869915 0.646903 0.874795
O O16 0.750000 0.750000 0.000000
O O17 0.500000 0.982886 0.250000
#
# Coordination Sequence:
#
# PCOD9273370 Si02
#       8
#     8   8   8   8   8   8   8   8
#     4  11  22  39  66 101 127 166 222 276 321 389
#     4  10  22  41  64  93 131 173 203 273 336 385
#     4  11  21  40  66  96 126 167 228 274 317 391
#     4  10  20  37  64  98 128 165 215 271 325 387
#     4  12  26  44  64  91 132 177 215 267 342 407
#     4  10  20  40  67  95 126 163 225 270 317 387
#     4  12  24  41  63  97 136 169 207 271 341 397
#     4  10  21  37  68 100 126 161 224 274 321 379
#
# _framework density 19.530932
#
# number of rings (size 3 to 8) (size 9 to 14) (size 15 to 20)
#    0.000    1.250    5.000    1.500    0.000    1.000 
#    0.000    8.125    0.000    0.000    0.000    0.000 
#    0.000    0.000    0.000    0.000    0.000    0.000 
#
# Total GULP energy -178687.374393 kJ/mol
# GULP energy per Si atom -5583.980450 kJ/mol
# Density = 1.948648 g / cm^3
# Si number density = 19.530932 Si / 1000 Ang^3
#
#
#
# Elastic Constant Matrix: (Units=GPa)
#
#
# Indices 1 2 3 4 5 6 
#
# 1 37.5757 6.2619 18.3776 0.0000 -5.6210 0.0000
# 2 6.2619 98.7581 27.6057 0.0000 -14.9688 0.0001
# 3 18.3776 27.6057 73.4045 0.0000 -6.2655 0.0000
# 4 0.0000 0.0000 0.0000 33.5740 0.0000 -6.2820
# 5 -5.6210 -14.9688 -6.2655 0.0000 21.7514 0.0000
# 6 0.0000 0.0001 0.0000 -6.2820 0.0000 30.4102
#
#
#
# Elastic Compliance Matrix: (Units=1/GPa)
#
#
# Indices 1 2 3 4 5 6 
#
# 1 0.031167 0.001179 -0.007678 0.000000 0.006654 0.000000
# 2 0.001179 0.012409 -0.004313 0.000000 0.007602 0.000000
# 3 -0.007678 -0.004313 0.017167 0.000000 -0.000007 0.000000
# 4 0.000000 0.000000 0.000000 0.030982 0.000000 0.006400
# 5 0.006654 0.007602 -0.000007 0.000000 0.052923 0.000000
# 6 0.000000 0.000000 0.000000 0.006400 0.000000 0.034206
#
#
# Mechanical properties :
#
#
# Convention : Reuss Voigt Hill
#
# Bulk Modulus (GPa) = 25.56399 34.91432 30.23916
# Shear Modulus (GPa) = 23.41719 27.64666 25.53193
#
# Velocity S-wave (km/s) = 3.46638 3.76644 3.61952
# Velocity P-wave (km/s) = 5.39801 6.06877 5.74319
#
# Compressibility (1/GPa) = 0.03911752
#
# Stress axis : x y z
#
# Youngs Moduli (GPa) = 32.08502 80.58803 58.25181
#
# Poissons Ratio (x) = -0.09498 0.44728
# Poissons Ratio (y) = -0.03782 0.25123
# Poissons Ratio (z) = 0.24636 0.34757
#
# Static dielectric constant tensor:
#      x y z
#    x 1.703870 0.000000 -0.010060 
#    y 0.000000 1.656410 0.000000 
#    z -0.010060 0.000000 1.689120 
# 
# From -- ./inp_files/315679.got.cif
#   From: 2010.05.17/outbox.cif.g08.bks.cpg/sg15_158_cif.got.tgz:315679.got - 2010.06.03 18:47:42.
