data_PCOD9273440
_publ_section_title
;
Structure prediction by ZEFSAII (Michael W. Deem and Ramdas Pophale) SiO2 
 PCOD9273440
Probable space group: C 2/C
;
_chemical_formula_sum "Si O2"
_cell_formula_units_Z 56
_cell_length_a 27.173024
_cell_length_b 7.497058
_cell_length_c 11.659778
_cell_angle_alpha 90.000000
_cell_angle_beta 112.746178
_cell_angle_gamma 90.000000
_cell_volume 2190.568545
_symmetry_space_group_name_H-M "C 2/C"
_symmetry_group_IT_number 15
_symmetry_cell_setting 'monoclinic'
loop_
_space_group_symop_operation_xyz
x,y,z
-x,y,1/2-z
-x,-y,-z
x,-y,1/2+z
1/2+x,1/2+y,z
1/2-x,1/2+y,1/2-z
1/2-x,1/2-y,-z
1/2+x,1/2-y,1/2+z
loop_
_atom_site_type_symbol
_atom_site_label
_atom_site_fract_x
_atom_site_fract_y
_atom_site_fract_z
Si Si1 0.357441 0.252009 0.808068
Si Si2 0.223174 0.135768 0.079469
Si Si3 0.958110 0.161849 0.537985
Si Si4 0.023420 0.242585 0.396949
Si Si5 0.857974 0.651439 0.555802
Si Si6 0.171996 0.622890 0.201014
Si Si7 0.872238 0.764158 0.131070
O O1 0.303876 0.286123 0.830085
O O2 0.407138 0.357458 0.905624
O O3 0.351746 0.257944 0.667594
O O4 0.368238 0.042774 0.842815
O O5 0.275791 0.052682 0.184339
O O6 0.250000 0.250000 0.000000
O O7 0.166932 0.093793 0.965836
O O8 0.931098 0.225964 0.632674
O O9 0.996164 0.288670 0.495673
O O10 0.981808 0.972007 0.595216
O O11 0.084666 0.297832 0.443799
O O12 0.000000 0.296444 0.250000
O O13 0.815897 0.686212 0.416385
O O14 0.855775 0.439651 0.582076
O O15 0.142383 0.772756 0.248935
#
# Coordination Sequence:
#
# PCOD9273440 Si02
#       7
#     8   8   8   8   8   8   8
#     4  10  20  41  64  90 129 161 206 260 309 369
#     4   9  18  37  60  87 124 164 196 246 304 370
#     4  10  21  43  64  86 129 168 206 258 317 375
#     4  11  24  40  63  94 126 164 212 261 317 378
#     4  11  21  39  65  95 126 159 211 267 310 363
#     4  10  20  37  65  96 125 162 210 256 310 370
#     4   9  20  40  65  91 129 165 203 258 311 374
#
# _framework density 25.564139999999998
#
# number of rings (size 3 to 8) (size 9 to 14) (size 15 to 20)
#    0.000    2.000    4.286    0.000    0.000    3.429 
#    5.143    3.571    0.000    0.000    0.000    0.000 
#    0.000    0.000    0.000    0.000    0.000    0.000 
#
# Total GULP energy -155903.110659 kJ/mol
# GULP energy per Si atom -5567.968238 kJ/mol
# Density = 2.550596 g / cm^3
# Si number density = 25.564140 Si / 1000 Ang^3
#
#
#
# Elastic Constant Matrix: (Units=GPa)
#
#
# Indices 1 2 3 4 5 6 
#
# 1 118.1017 9.7232 3.7969 0.0000 -19.1598 0.0000
# 2 9.7232 33.4988 7.9187 0.0000 4.8833 0.0000
# 3 3.7969 7.9187 92.0723 0.0000 -13.1580 0.0000
# 4 0.0000 0.0000 0.0000 22.1683 0.0000 2.4122
# 5 -19.1598 4.8833 -13.1580 0.0000 33.7838 0.0000
# 6 0.0000 0.0000 0.0000 2.4122 0.0000 22.5474
#
#
#
# Elastic Compliance Matrix: (Units=1/GPa)
#
#
# Indices 1 2 3 4 5 6 
#
# 1 0.009821 -0.004001 0.000866 0.000000 0.006485 0.000000
# 2 -0.004001 0.033192 -0.003918 0.000000 -0.008592 0.000000
# 3 0.000866 -0.003918 0.011980 0.000000 0.005723 0.000000
# 4 0.000000 0.000000 0.000000 0.045641 0.000000 -0.004883
# 5 0.006485 -0.008592 0.005723 0.000000 0.036749 0.000000
# 6 0.000000 0.000000 0.000000 -0.004883 0.000000 0.044873
#
#
# Mechanical properties :
#
#
# Convention : Reuss Voigt Hill
#
# Bulk Modulus (GPa) = 24.45708 31.83894 28.14801
# Shear Modulus (GPa) = 23.81066 30.51550 27.16308
#
# Velocity S-wave (km/s) = 3.05521 3.45872 3.26321
# Velocity P-wave (km/s) = 4.69398 5.33216 5.02321
#
# Compressibility (1/GPa) = 0.04088796
#
# Stress axis : x y z
#
# Youngs Moduli (GPa) = 101.82337 30.12808 83.47123
#
# Poissons Ratio (x) = 0.12053 -0.07228
# Poissons Ratio (y) = 0.40736 0.32701
# Poissons Ratio (z) = -0.08817 0.11803
#
# Static dielectric constant tensor:
#      x y z
#    x 2.087900 0.000000 -0.060680 
#    y 0.000000 2.164960 0.000000 
#    z -0.060680 0.000000 2.100740 
# 
# From -- ./inp_files/121995.got.cif
#   From: 2010.05.17/outbox.cif.g08.bks.cpg/sg15_61_cif.got.tgz:121995.got - 2010.06.03 18:47:42.
