data_PCOD9273497
_publ_section_title
;
Structure prediction by ZEFSAII (Michael W. Deem and Ramdas Pophale) SiO2 
 PCOD9273497
Probable space group: C 2/C
;
_chemical_formula_sum "Si O2"
_cell_formula_units_Z 48
_cell_length_a 26.915511
_cell_length_b 5.742851
_cell_length_c 15.452000
_cell_angle_alpha 90.000000
_cell_angle_beta 124.418451
_cell_angle_gamma 90.000000
_cell_volume 1970.301894
_symmetry_space_group_name_H-M "C 2/C"
_symmetry_group_IT_number 15
_symmetry_cell_setting 'monoclinic'
loop_
_space_group_symop_operation_xyz
x,y,z
-x,y,1/2-z
-x,-y,-z
x,-y,1/2+z
1/2+x,1/2+y,z
1/2-x,1/2+y,1/2-z
1/2-x,1/2-y,-z
1/2+x,1/2-y,1/2+z
loop_
_atom_site_type_symbol
_atom_site_label
_atom_site_fract_x
_atom_site_fract_y
_atom_site_fract_z
Si Si1 0.269239 0.628732 0.811641
Si Si2 0.835001 0.573843 0.688825
Si Si3 0.069844 0.794739 0.849390
Si Si4 0.029219 0.439262 0.937284
Si Si5 0.580295 0.309636 0.241074
Si Si6 0.390474 0.600559 0.388438
O O1 0.258004 0.891743 0.763329
O O2 0.235903 0.617203 0.872247
O O3 0.339375 0.565579 0.876976
O O4 0.875700 0.676060 0.651723
O O5 0.854904 0.306540 0.709334
O O6 0.859103 0.695300 0.800673
O O7 0.065654 0.656737 0.934903
O O8 0.000000 0.775426 0.750000
O O9 0.080676 0.061338 0.832302
O O10 0.973752 0.370753 0.820987
O O11 0.070898 0.220508 0.000017
O O12 0.000000 0.500000 0.000000
O O13 0.570995 0.475728 0.148789
#
# Coordination Sequence:
#
# PCOD9273497 Si02
#       6
#     8   8   8   8   8   8
#     4  10  20  37  66  96 129 175 229 277 324 399
#     4  10  20  40  61  92 130 167 223 262 319 404
#     4  11  24  39  60  91 126 175 211 259 330 409
#     4  12  23  43  64  99 134 163 217 283 329 392
#     4  11  21  40  63  92 128 171 215 260 333 402
#     4  10  21  38  65  98 127 169 218 276 330 379
#
# _framework density 24.361750000000001
#
# number of rings (size 3 to 8) (size 9 to 14) (size 15 to 20)
#    0.000    1.333    5.000    1.500    2.333    0.000 
#    0.000    0.833    0.000    1.000    0.000    0.000 
#    0.000    0.000    0.000    0.000    0.000    0.000 
#
# Total GULP energy -133915.501223 kJ/mol
# GULP energy per Si atom -5579.812551 kJ/mol
# Density = 2.430630 g / cm^3
# Si number density = 24.361750 Si / 1000 Ang^3
#
#
#
# Elastic Constant Matrix: (Units=GPa)
#
#
# Indices 1 2 3 4 5 6 
#
# 1 169.7313 40.9267 43.5601 0.0000 -32.6835 0.0000
# 2 40.9267 102.0548 21.6618 0.0001 -9.6670 -0.0001
# 3 43.5601 21.6618 33.1367 0.0000 -21.4252 0.0000
# 4 0.0000 0.0001 0.0000 36.3148 0.0000 -2.8248
# 5 -32.6835 -9.6670 -21.4252 0.0000 36.5404 0.0000
# 6 0.0000 -0.0001 0.0000 -2.8248 0.0000 58.9165
#
#
#
# Elastic Compliance Matrix: (Units=1/GPa)
#
#
# Indices 1 2 3 4 5 6 
#
# 1 0.009130 -0.001396 -0.009740 0.000000 0.002085 0.000000
# 2 -0.001396 0.011699 -0.007439 0.000000 -0.002516 0.000000
# 3 -0.009740 -0.007439 0.065937 0.000000 0.027982 0.000000
# 4 0.000000 0.000000 0.000000 0.027640 0.000000 0.001325
# 5 0.002085 -0.002516 0.027982 0.000000 0.044974 0.000000
# 6 0.000000 0.000000 0.000000 0.001325 0.000000 0.017037
#
#
# Mechanical properties :
#
#
# Convention : Reuss Voigt Hill
#
# Bulk Modulus (GPa) = 20.15517 57.46888 38.81203
# Shear Modulus (GPa) = 21.72910 39.60594 30.66752
#
# Velocity S-wave (km/s) = 2.98977 4.03642 3.55186
# Velocity P-wave (km/s) = 4.49550 6.73533 5.72600
#
# Compressibility (1/GPa) = 0.04961506
#
# Stress axis : x y z
#
# Youngs Moduli (GPa) = 109.53264 85.47532 15.16593
#
# Poissons Ratio (x) = 0.11934 0.14772
# Poissons Ratio (y) = 0.15293 0.11282
# Poissons Ratio (z) = 1.06689 0.63585
#
# Static dielectric constant tensor:
#      x y z
#    x 1.957390 0.000000 0.001590 
#    y 0.000000 2.047540 0.000000 
#    z 0.001590 0.000000 1.975100 
# 
# From -- ./inp_files/217807.got.cif
#   From: 2010.05.17/outbox.cif.g08.bks.cpg/sg15_109_cif.got.tgz:217807.got - 2010.06.03 18:47:42.
