data_PCOD9273470
_publ_section_title
;
Structure prediction by ZEFSAII (Michael W. Deem and Ramdas Pophale) SiO2 
 PCOD9273470
Probable space group: C 2/C
;
_chemical_formula_sum "Si O2"
_cell_formula_units_Z 56
_cell_length_a 29.737513
_cell_length_b 17.507698
_cell_length_c 9.300214
_cell_angle_alpha 90.000000
_cell_angle_beta 145.032329
_cell_angle_gamma 90.000000
_cell_volume 2775.030479
_symmetry_space_group_name_H-M "C 2/C"
_symmetry_group_IT_number 15
_symmetry_cell_setting 'monoclinic'
loop_
_space_group_symop_operation_xyz
x,y,z
-x,y,1/2-z
-x,-y,-z
x,-y,1/2+z
1/2+x,1/2+y,z
1/2-x,1/2+y,1/2-z
1/2-x,1/2-y,-z
1/2+x,1/2-y,1/2+z
loop_
_atom_site_type_symbol
_atom_site_label
_atom_site_fract_x
_atom_site_fract_y
_atom_site_fract_z
Si Si1 0.934865 0.595020 0.852824
Si Si2 0.356727 0.005885 0.906096
Si Si3 0.759577 0.872693 0.974348
Si Si4 0.573357 0.679472 0.526427
Si Si5 0.714346 0.839622 0.172064
Si Si6 0.664839 0.770282 0.521020
Si Si7 0.048389 0.716265 0.232818
O O1 0.908151 0.545133 0.917399
O O2 0.913129 0.543966 0.657682
O O3 0.882722 0.671910 0.702459
O O4 0.020102 0.632715 0.098087
O O5 0.307605 0.073720 0.851375
O O6 0.289738 0.949842 0.669818
O O7 0.853418 0.874206 0.238557
O O8 0.727738 0.834183 0.036246
O O9 0.733469 0.821198 0.772061
O O10 0.609500 0.740522 0.506224
O O11 0.543559 0.723766 0.590064
O O12 0.500000 0.642961 0.250000
O O13 0.793286 0.802298 0.442111
O O14 0.638421 0.791530 0.012073
O O15 0.000000 0.733255 0.250000
#
# Coordination Sequence:
#
# PCOD9273470 Si02
#       7
#     8   8   8   8   8   8   8
#     4  11  24  40  58  94 125 169 202 249 313 371
#     4  11  23  41  59  89 129 166 204 245 314 374
#     4  10  20  39  63  88 120 167 214 250 299 364
#     4  11  20  38  67  93 117 160 214 264 297 362
#     4  11  20  38  61  87 121 165 206 255 299 365
#     4  10  20  37  66  89 116 163 221 256 294 356
#     4  12  23  38  57  93 133 159 196 254 317 367
#
# _framework density 20.179959
#
# number of rings (size 3 to 8) (size 9 to 14) (size 15 to 20)
#    0.000    1.143    7.143    0.857    0.000    1.143 
#    2.571    0.000    0.000    3.429    3.714    0.000 
#    0.000    0.000    0.000    0.000    0.000    0.000 
#
# Total GULP energy -156333.315596 kJ/mol
# GULP energy per Si atom -5583.332700 kJ/mol
# Density = 2.013403 g / cm^3
# Si number density = 20.179959 Si / 1000 Ang^3
#
#
#
# Elastic Constant Matrix: (Units=GPa)
#
#
# Indices 1 2 3 4 5 6 
#
# 1 97.1633 19.5067 32.0578 0.0000 6.1864 0.0000
# 2 19.5067 49.9016 8.3238 0.0000 2.2813 0.0000
# 3 32.0578 8.3238 67.5012 0.0000 3.3832 0.0000
# 4 0.0000 0.0000 0.0000 29.0819 0.0000 11.6528
# 5 6.1864 2.2813 3.3832 0.0000 24.8215 0.0000
# 6 0.0000 0.0000 0.0000 11.6528 0.0000 25.8711
#
#
#
# Elastic Compliance Matrix: (Units=1/GPa)
#
#
# Indices 1 2 3 4 5 6 
#
# 1 0.013099 -0.004087 -0.005610 0.000000 -0.002124 0.000000
# 2 -0.004087 0.021795 -0.000702 0.000000 -0.000889 0.000000
# 3 -0.005610 -0.000702 0.017613 0.000000 -0.000938 0.000000
# 4 0.000000 0.000000 0.000000 0.041958 0.000000 -0.018899
# 5 -0.002124 -0.000889 -0.000938 0.000000 0.041027 0.000000
# 6 0.000000 0.000000 0.000000 -0.018899 0.000000 0.047166
#
#
# Mechanical properties :
#
#
# Convention : Reuss Voigt Hill
#
# Bulk Modulus (GPa) = 31.53875 37.14917 34.34396
# Shear Modulus (GPa) = 23.36170 26.26673 24.81422
#
# Velocity S-wave (km/s) = 3.40614 3.61172 3.51044
# Velocity P-wave (km/s) = 5.57958 5.98678 5.78677
#
# Compressibility (1/GPa) = 0.03170702
#
# Stress axis : x y z
#
# Youngs Moduli (GPa) = 76.34221 45.88217 56.77743
#
# Poissons Ratio (x) = 0.18754 0.31855
# Poissons Ratio (y) = 0.31205 0.03985
# Poissons Ratio (z) = 0.42831 0.03220
#
# Static dielectric constant tensor:
#      x y z
#    x 1.720810 0.000000 0.004070 
#    y 0.000000 1.741440 0.000000 
#    z 0.004070 0.000000 1.775300 
# 
# From -- ./inp_files/67193.got.cif
#   From: 2010.05.17/outbox.cif.g08.bks.cpg/sg15_34_cif.got.tgz:67193.got - 2010.06.03 18:47:42.
