data_PCOD9273109
_publ_section_title
;
Structure prediction by ZEFSAII (Michael W. Deem and Ramdas Pophale) SiO2 
 PCOD9273109
Probable space group: C 2/C
;
_chemical_formula_sum "Si O2"
_cell_formula_units_Z 60
_cell_length_a 19.354972
_cell_length_b 29.071789
_cell_length_c 11.922583
_cell_angle_alpha 90.000000
_cell_angle_beta 25.430036
_cell_angle_gamma 90.000000
_cell_volume 2880.749037
_symmetry_space_group_name_H-M "C 2/C"
_symmetry_group_IT_number 15
_symmetry_cell_setting 'monoclinic'
loop_
_space_group_symop_operation_xyz
x,y,z
-x,y,1/2-z
-x,-y,-z
x,-y,1/2+z
1/2+x,1/2+y,z
1/2-x,1/2+y,1/2-z
1/2-x,1/2-y,-z
1/2+x,1/2-y,1/2+z
loop_
_atom_site_type_symbol
_atom_site_label
_atom_site_fract_x
_atom_site_fract_y
_atom_site_fract_z
Si Si1 0.631372 0.517616 0.148204
Si Si2 0.164080 0.592867 0.785325
Si Si3 0.632230 0.437139 0.304750
Si Si4 0.277914 0.721882 0.190078
Si Si5 0.421349 0.340518 0.185954
Si Si6 0.334620 0.312779 0.057914
Si Si7 0.395536 0.842310 0.699543
Si Si8 0.000000 0.284442 0.750000
O O1 0.500000 0.500438 0.250000
O O2 0.696902 0.474873 0.123113
O O3 0.512038 0.544104 0.407104
O O4 0.762222 0.552460 0.901457
O O5 0.226171 0.579449 0.818996
O O6 0.244338 0.642546 0.640073
O O7 0.976488 0.608115 0.059003
O O8 0.548555 0.394514 0.367042
O O9 0.239847 0.761601 0.335296
O O10 0.128702 0.690394 0.372252
O O11 0.424928 0.689549 0.009591
O O12 0.346805 0.751191 0.983143
O O13 0.278272 0.340822 0.486405
O O14 0.366160 0.324409 0.143063
O O15 0.500000 0.310588 0.750000
O O16 0.500105 0.816273 0.640942
#
# Coordination Sequence:
#
# PCOD9273109 Si02
#       8
#     8   8   8   8   8   8   8   4
#     4   9  18  37  65  91 118 154 202 257 315 375
#     4  10  20  37  62  93 123 158 204 261 310 372
#     4   9  19  37  62  90 117 157 202 248 311 378
#     4  12  23  37  58  89 126 167 211 260 297 367
#     4  11  22  38  61  87 123 159 210 262 304 369
#     4  11  23  38  58  87 126 171 212 245 306 371
#     4  12  22  36  60  88 121 163 207 255 317 361
#     4  12  18  36  58  84 122 162 210 256 298 360
#
# _framework density 20.827916999999999
#
# number of rings (size 3 to 8) (size 9 to 14) (size 15 to 20)
#    0.000    1.333    4.000    4.000    0.000    1.600 
#    2.400    0.667    0.000    3.200    0.000    0.000 
#    0.000    0.000    0.000    0.000    0.000    0.000 
#
# Total GULP energy -167216.201336 kJ/mol
# GULP energy per Si atom -5573.873378 kJ/mol
# Density = 2.078051 g / cm^3
# Si number density = 20.827917 Si / 1000 Ang^3
#
#
#
# Elastic Constant Matrix: (Units=GPa)
#
#
# Indices 1 2 3 4 5 6 
#
# 1 46.0238 47.4168 20.7255 -0.0005 -3.5165 -0.0011
# 2 47.4168 122.8774 43.8549 0.0002 -0.0762 0.0019
# 3 20.7255 43.8549 67.1870 -0.0046 0.8550 0.0021
# 4 -0.0005 0.0002 -0.0046 32.4485 0.0030 6.8987
# 5 -3.5165 -0.0762 0.8550 0.0030 21.3664 -0.0007
# 6 -0.0011 0.0019 0.0021 6.8987 -0.0007 13.9117
#
#
#
# Elastic Compliance Matrix: (Units=1/GPa)
#
#
# Indices 1 2 3 4 5 6 
#
# 1 0.037237 -0.013347 -0.002854 -0.000002 0.006195 0.000006
# 2 -0.013347 0.015396 -0.005908 -0.000001 -0.001905 -0.000002
# 3 -0.002854 -0.005908 0.019637 0.000004 -0.001276 -0.000004
# 4 -0.000002 -0.000001 0.000004 0.034450 -0.000006 -0.017083
# 5 0.006195 -0.001905 -0.001276 -0.000006 0.047866 0.000006
# 6 0.000006 -0.000002 -0.000004 -0.017083 0.000006 0.080354
#
#
# Mechanical properties :
#
#
# Convention : Reuss Voigt Hill
#
# Bulk Modulus (GPa) = 35.64715 51.12030 43.38373
# Shear Modulus (GPa) = 17.33053 21.81805 19.57429
#
# Velocity S-wave (km/s) = 2.88771 3.24008 3.06896
# Velocity P-wave (km/s) = 5.31702 6.21248 5.78211
#
# Compressibility (1/GPa) = 0.02805273
#
# Stress axis : x y z
#
# Youngs Moduli (GPa) = 26.85477 64.95183 50.92531
#
# Poissons Ratio (x) = 0.86692 0.14532
# Poissons Ratio (y) = 0.35843 0.30086
# Poissons Ratio (z) = 0.07663 0.38373
#
# Static dielectric constant tensor:
#      x y z
#    x 1.805630 0.000000 -0.020990 
#    y 0.000000 1.785430 0.000000 
#    z -0.020990 0.000000 1.832990 
# 
# From -- ./inp_files/174923.got.cif
#   From: 2010.05.17/outbox.cif.g08.bks.cpg/sg15_88_cif.got.tgz:174923.got - 2010.06.03 18:47:42.
