data_PCOD9273195
_publ_section_title
;
Structure prediction by ZEFSAII (Michael W. Deem and Ramdas Pophale) SiO2 
 PCOD9273195
Probable space group: C 2/C
;
_chemical_formula_sum "Si O2"
_cell_formula_units_Z 44
_cell_length_a 27.492275
_cell_length_b 14.315804
_cell_length_c 12.611292
_cell_angle_alpha 90.000000
_cell_angle_beta 28.081090
_cell_angle_gamma 90.000000
_cell_volume 2336.411402
_symmetry_space_group_name_H-M "C 2/C"
_symmetry_group_IT_number 15
_symmetry_cell_setting 'monoclinic'
loop_
_space_group_symop_operation_xyz
x,y,z
-x,y,1/2-z
-x,-y,-z
x,-y,1/2+z
1/2+x,1/2+y,z
1/2-x,1/2+y,1/2-z
1/2-x,1/2-y,-z
1/2+x,1/2-y,1/2+z
loop_
_atom_site_type_symbol
_atom_site_label
_atom_site_fract_x
_atom_site_fract_y
_atom_site_fract_z
Si Si1 0.704788 0.351172 0.557081
Si Si2 0.500000 0.728718 0.750000
Si Si3 0.675918 0.801199 0.729166
Si Si4 0.029820 0.158336 0.926193
Si Si5 0.261202 0.452997 0.437264
Si Si6 0.283251 0.828118 0.176754
O O1 0.750000 0.250000 0.500000
O O2 0.749310 0.436591 0.539771
O O3 0.734731 0.365364 0.377464
O O4 0.582457 0.358855 0.811109
O O5 0.523081 0.670251 0.812092
O O6 0.600782 0.790943 0.532783
O O7 0.750000 0.750000 0.500000
O O8 0.567338 0.756736 0.905895
O O9 0.697507 0.907584 0.658383
O O10 0.715819 0.760303 0.762956
O O11 0.119130 0.082558 0.780908
O O12 0.221251 0.405620 0.406519
#
# Coordination Sequence:
#
# PCOD9273195 Si02
#       6
#     8   4   8   8   8   8
#     4  12  25  36  57  99 130 144 202 274 294 338
#     4  12  16  36  68  88 114 162 206 230 320 354
#     4   8  16  37  60  81 111 161 204 230 293 370
#     4  10  20  37  63  91 116 158 204 252 295 368
#     4  10  21  41  61  88 123 165 204 236 308 376
#     4  10  21  38  63  86 126 162 196 253 310 357
#
# _framework density 18.8323
#
# number of rings (size 3 to 8) (size 9 to 14) (size 15 to 20)
#    0.000    2.182    7.273    0.545    0.000    5.818 
#    0.000    3.636    0.000    0.000    0.000    0.000 
#    0.000    0.000    0.000    0.000    0.000    0.000 
#
# Total GULP energy -122575.974471 kJ/mol
# GULP energy per Si atom -5571.635203 kJ/mol
# Density = 1.878944 g / cm^3
# Si number density = 18.832300 Si / 1000 Ang^3
#
#
#
# Elastic Constant Matrix: (Units=GPa)
#
#
# Indices 1 2 3 4 5 6 
#
# 1 60.3857 9.9241 5.9193 0.0000 -0.5413 0.0000
# 2 9.9241 105.5191 2.1528 0.0000 -1.9306 0.0000
# 3 5.9193 2.1528 50.5844 0.0000 13.9819 0.0000
# 4 0.0000 0.0000 0.0000 14.5077 0.0000 -1.2505
# 5 -0.5413 -1.9306 13.9819 0.0000 19.4520 0.0000
# 6 0.0000 0.0000 0.0000 -1.2505 0.0000 21.3833
#
#
#
# Elastic Compliance Matrix: (Units=1/GPa)
#
#
# Indices 1 2 3 4 5 6 
#
# 1 0.017076 -0.001515 -0.002525 0.000000 0.002140 0.000000
# 2 -0.001515 0.009657 -0.000608 0.000000 0.001353 0.000000
# 3 -0.002525 -0.000608 0.025116 0.000000 -0.018184 0.000000
# 4 0.000000 0.000000 0.000000 0.069278 0.000000 0.004051
# 5 0.002140 0.001353 -0.018184 0.000000 0.064673 0.000000
# 6 0.000000 0.000000 0.000000 0.004051 0.000000 0.047002
#
#
# Mechanical properties :
#
#
# Convention : Reuss Voigt Hill
#
# Bulk Modulus (GPa) = 23.50023 28.05353 25.77688
# Shear Modulus (GPa) = 19.50966 24.30146 21.90556
#
# Velocity S-wave (km/s) = 3.22214 3.59613 3.41426
# Velocity P-wave (km/s) = 5.13310 5.67201 5.40927
#
# Compressibility (1/GPa) = 0.04255277
#
# Stress axis : x y z
#
# Youngs Moduli (GPa) = 58.56183 103.55586 39.81449
#
# Poissons Ratio (x) = 0.15692 0.10054
# Poissons Ratio (y) = 0.08874 0.02419
# Poissons Ratio (z) = 0.14788 0.06292
#
# Static dielectric constant tensor:
#      x y z
#    x 1.688410 0.000000 -0.021020 
#    y 0.000000 1.732290 0.000000 
#    z -0.021020 0.000000 1.670740 
# 
# From -- ./inp_files/123250.got.cif
#   From: 2010.05.17/outbox.cif.g08.bks.cpg/sg15_62_cif.got.tgz:123250.got - 2010.06.03 18:47:42.
