data_PCOD9273944
_publ_section_title
;
Structure prediction by ZEFSAII (Michael W. Deem and Ramdas Pophale) SiO2 
 PCOD9273944
Probable space group: C 2/C
;
_chemical_formula_sum "Si O2"
_cell_formula_units_Z 56
_cell_length_a 16.083441
_cell_length_b 10.565761
_cell_length_c 13.697044
_cell_angle_alpha 90.000000
_cell_angle_beta 111.974564
_cell_angle_gamma 90.000000
_cell_volume 2158.491344
_symmetry_space_group_name_H-M "C 2/C"
_symmetry_group_IT_number 15
_symmetry_cell_setting 'monoclinic'
loop_
_space_group_symop_operation_xyz
x,y,z
-x,y,1/2-z
-x,-y,-z
x,-y,1/2+z
1/2+x,1/2+y,z
1/2-x,1/2+y,1/2-z
1/2-x,1/2-y,-z
1/2+x,1/2-y,1/2+z
loop_
_atom_site_type_symbol
_atom_site_label
_atom_site_fract_x
_atom_site_fract_y
_atom_site_fract_z
Si Si1 0.594145 0.494456 0.242961
Si Si2 0.010994 0.178466 0.950383
Si Si3 0.254537 0.786550 0.140916
Si Si4 0.396357 0.205075 0.560019
Si Si5 0.247601 0.830578 0.367929
Si Si6 0.810134 0.935203 0.899702
Si Si7 0.926465 0.441509 0.541258
O O1 0.500000 0.540756 0.250000
O O2 0.559154 0.394379 0.145808
O O3 0.658633 0.413538 0.342407
O O4 0.663480 0.571848 0.204342
O O5 0.976483 0.220603 0.043419
O O6 0.095296 0.090931 0.008085
O O7 0.035536 0.308446 0.906329
O O8 0.174457 0.701626 0.061903
O O9 0.258570 0.812019 0.256415
O O10 0.230203 0.929208 0.091592
O O11 0.343963 0.735242 0.127518
O O12 0.416196 0.063146 0.604568
O O13 0.247825 0.683659 0.402001
O O14 0.335156 0.901894 0.446312
O O15 0.000000 0.500000 0.500000
#
# Coordination Sequence:
#
# PCOD9273944 Si02
#       7
#     8   8   8   8   8   8   8
#     4  11  24  38  60  93 125 161 205 263 314 368
#     4  10  20  41  60  84 121 163 201 248 315 371
#     4  10  22  35  61  93 119 160 205 259 309 369
#     4  10  20  38  60  89 122 158 206 249 316 367
#     4  10  22  41  62  92 124 165 212 259 312 374
#     4  10  22  40  61  86 122 163 204 253 312 370
#     4   9  21  39  64  86 122 169 204 253 309 377
#
# _framework density 25.944047999999999
#
# number of rings (size 3 to 8) (size 9 to 14) (size 15 to 20)
#    0.000    2.000    2.857    0.429    4.000    3.429 
#    0.000    8.571    0.000    0.000    0.000    0.000 
#    0.000    0.000    0.000    0.000    0.000    0.000 
#
# Total GULP energy -156498.625728 kJ/mol
# GULP energy per Si atom -5589.236633 kJ/mol
# Density = 2.588500 g / cm^3
# Si number density = 25.944048 Si / 1000 Ang^3
#
#
#
# Elastic Constant Matrix: (Units=GPa)
#
#
# Indices 1 2 3 4 5 6 
#
# 1 131.0560 16.0700 23.1702 0.0000 -19.9565 0.0000
# 2 16.0700 110.8216 4.7769 0.0000 1.9676 0.0000
# 3 23.1702 4.7769 58.2970 0.0000 -15.6847 0.0000
# 4 0.0000 0.0000 0.0000 18.4735 0.0000 2.7691
# 5 -19.9565 1.9676 -15.6847 0.0000 37.2012 0.0000
# 6 0.0000 0.0000 0.0000 2.7691 0.0000 36.7608
#
#
#
# Elastic Compliance Matrix: (Units=1/GPa)
#
#
# Indices 1 2 3 4 5 6 
#
# 1 0.008776 -0.001237 -0.002371 0.000000 0.003773 0.000000
# 2 -0.001237 0.009256 -0.000651 0.000000 -0.001428 0.000000
# 3 -0.002371 -0.000651 0.020096 0.000000 0.007235 0.000000
# 4 0.000000 0.000000 0.000000 0.054750 0.000000 -0.004124
# 5 0.003773 -0.001428 0.007235 0.000000 0.032031 0.000000
# 6 0.000000 0.000000 0.000000 -0.004124 0.000000 0.027514
#
#
# Mechanical properties :
#
#
# Convention : Reuss Voigt Hill
#
# Bulk Modulus (GPa) = 33.77337 43.13431 38.45384
# Shear Modulus (GPa) = 29.27207 35.56429 32.41818
#
# Velocity S-wave (km/s) = 3.36263 3.70646 3.53872
# Velocity P-wave (km/s) = 5.30305 5.91431 5.61700
#
# Compressibility (1/GPa) = 0.02960913
#
# Stress axis : x y z
#
# Youngs Moduli (GPa) = 113.94849 108.03409 49.76126
#
# Poissons Ratio (x) = 0.13368 0.11800
# Poissons Ratio (y) = 0.14099 0.03239
# Poissons Ratio (z) = 0.27021 0.07031
#
# Static dielectric constant tensor:
#      x y z
#    x 2.131590 0.000000 -0.062650 
#    y 0.000000 2.119770 0.000000 
#    z -0.062650 0.000000 2.014350 
# 
# From -- ./inp_files/160998.got.cif
#   From: 2010.05.17/outbox.cif.g08.bks.cpg/sg15_81_cif.got.tgz:160998.got - 2010.06.03 18:47:42.
