data_PCOD9273697
_publ_section_title
;
Structure prediction by ZEFSAII (Michael W. Deem and Ramdas Pophale) SiO2 
 PCOD9273697
Probable space group: C 2/C
;
_chemical_formula_sum "Si O2"
_cell_formula_units_Z 64
_cell_length_a 29.242759
_cell_length_b 16.659948
_cell_length_c 22.952203
_cell_angle_alpha 90.000000
_cell_angle_beta 17.865449
_cell_angle_gamma 90.000000
_cell_volume 3430.419727
_symmetry_space_group_name_H-M "C 2/C"
_symmetry_group_IT_number 15
_symmetry_cell_setting 'monoclinic'
loop_
_space_group_symop_operation_xyz
x,y,z
-x,y,1/2-z
-x,-y,-z
x,-y,1/2+z
1/2+x,1/2+y,z
1/2-x,1/2+y,1/2-z
1/2-x,1/2-y,-z
1/2+x,1/2-y,1/2+z
loop_
_atom_site_type_symbol
_atom_site_label
_atom_site_fract_x
_atom_site_fract_y
_atom_site_fract_z
Si Si1 0.729459 0.373428 0.792523
Si Si2 0.055322 0.091953 0.925555
Si Si3 0.880770 0.518902 0.197753
Si Si4 0.927960 0.764226 0.010118
Si Si5 0.255435 0.738310 0.598882
Si Si6 0.673516 0.576491 0.034941
Si Si7 0.346361 0.008085 0.557864
Si Si8 0.669467 0.907586 0.037960
O O1 0.777321 0.413062 0.795010
O O2 0.807036 0.287857 0.691650
O O3 0.796591 0.433516 0.660751
O O4 0.554319 0.371411 0.990049
O O5 0.046064 0.148739 0.993135
O O6 0.228789 0.079822 0.703592
O O7 0.000000 0.000000 0.000000
O O8 0.763399 0.455626 0.368850
O O9 0.000000 0.500000 0.000000
O O10 0.993549 0.536282 0.113747
O O11 0.863785 0.765905 0.022906
O O12 0.085225 0.718151 0.822026
O O13 0.314723 0.672974 0.482378
O O14 0.246221 0.827742 0.584882
O O15 0.500000 0.552516 0.250000
O O16 0.760940 0.556136 0.988107
O O17 0.337312 0.971975 0.504965
O O18 0.500000 0.879047 0.250000
#
# Coordination Sequence:
#
# PCOD9273697 Si02
#       8
#     8   8   8   8   8   8   8   8
#     4  10  21  38  57  86 119 158 209 265 324 370
#     4  10  22  36  57  89 120 163 215 267 324 371
#     4  10  22  39  61  85 118 160 216 268 317 367
#     4  12  22  38  61  90 130 167 220 265 325 381
#     4  12  23  37  56  85 127 180 215 255 304 383
#     4  12  26  38  59  92 126 178 220 261 315 387
#     4  10  20  38  58  84 114 165 207 268 319 368
#     4  12  22  41  57  81 129 168 226 260 313 390
#
# _framework density 18.656607999999999
#
# number of rings (size 3 to 8) (size 9 to 14) (size 15 to 20)
#    0.000    1.000    3.750    4.500    8.750    0.000 
#    0.000    0.000    0.000    0.000    0.000    1.750 
#    0.000    0.000    0.000    0.000    0.000    0.000 
#
# Total GULP energy -178418.161573 kJ/mol
# GULP energy per Si atom -5575.567549 kJ/mol
# Density = 1.861414 g / cm^3
# Si number density = 18.656608 Si / 1000 Ang^3
#
#
#
# Elastic Constant Matrix: (Units=GPa)
#
#
# Indices 1 2 3 4 5 6 
#
# 1 111.5853 31.3627 21.8879 -0.0023 -0.7886 0.0007
# 2 31.3627 39.8240 27.5565 -0.0016 1.8384 0.0011
# 3 21.8879 27.5565 95.3852 -0.0037 -13.3137 0.0028
# 4 -0.0023 -0.0016 -0.0037 10.0926 0.0027 -1.3435
# 5 -0.7886 1.8384 -13.3137 0.0027 24.8037 -0.0013
# 6 0.0007 0.0011 0.0028 -1.3435 -0.0013 29.4493
#
#
#
# Elastic Compliance Matrix: (Units=1/GPa)
#
#
# Indices 1 2 3 4 5 6 
#
# 1 0.011539 -0.009274 0.000193 0.000001 0.001158 0.000000
# 2 -0.009274 0.040290 -0.010777 0.000002 -0.009066 -0.000001
# 3 0.000193 -0.010777 0.014772 0.000001 0.008734 -0.000001
# 4 0.000001 0.000002 0.000001 0.099688 -0.000010 0.004548
# 5 0.001158 -0.009066 0.008734 -0.000010 0.045713 0.000001
# 6 0.000000 -0.000001 -0.000001 0.004548 0.000001 0.034164
#
#
# Mechanical properties :
#
#
# Convention : Reuss Voigt Hill
#
# Bulk Modulus (GPa) = 37.19590 45.37875 41.28732
# Shear Modulus (GPa) = 16.95818 23.93495 20.44657
#
# Velocity S-wave (km/s) = 3.01817 3.58567 3.31409
# Velocity P-wave (km/s) = 5.66800 6.44350 6.06815
#
# Compressibility (1/GPa) = 0.02688469
#
# Stress axis : x y z
#
# Youngs Moduli (GPa) = 86.66476 24.82014 67.69591
#
# Poissons Ratio (x) = 0.23019 -0.01307
# Poissons Ratio (y) = 0.80375 0.72955
# Poissons Ratio (z) = -0.01674 0.26748
#
# Static dielectric constant tensor:
#      x y z
#    x 1.682120 0.000000 -0.010280 
#    y 0.000000 1.655080 0.000000 
#    z -0.010280 0.000000 1.792590 
# 
# From -- ./inp_files/258064.got.cif
#   From: 2010.05.17/outbox.cif.g08.bks.cpg/sg15_130_cif.got.tgz:258064.got - 2010.06.03 18:47:42.
