data_PCOD9273162
_publ_section_title
;
Structure prediction by ZEFSAII (Michael W. Deem and Ramdas Pophale) SiO2 
 PCOD9273162
Probable space group: C 2/C
;
_chemical_formula_sum "Si O2"
_cell_formula_units_Z 48
_cell_length_a 22.635349
_cell_length_b 12.894972
_cell_length_c 16.115974
_cell_angle_alpha 90.000000
_cell_angle_beta 155.472229
_cell_angle_gamma 90.000000
_cell_volume 1952.777309
_symmetry_space_group_name_H-M "C 2/C"
_symmetry_group_IT_number 15
_symmetry_cell_setting 'monoclinic'
loop_
_space_group_symop_operation_xyz
x,y,z
-x,y,1/2-z
-x,-y,-z
x,-y,1/2+z
1/2+x,1/2+y,z
1/2-x,1/2+y,1/2-z
1/2-x,1/2-y,-z
1/2+x,1/2-y,1/2+z
loop_
_atom_site_type_symbol
_atom_site_label
_atom_site_fract_x
_atom_site_fract_y
_atom_site_fract_z
Si Si1 0.166087 0.983415 0.060505
Si Si2 0.833993 0.052917 0.127684
Si Si3 0.112626 0.351144 0.457056
Si Si4 0.083407 0.573261 0.497428
Si Si5 0.736286 0.170459 0.557356
Si Si6 0.650238 0.177253 0.189860
O O1 0.208115 0.106754 0.112419
O O2 0.269076 0.943181 0.264489
O O3 0.195047 0.932287 0.007256
O O4 0.999836 0.962012 0.859568
O O5 0.762780 0.942646 0.057153
O O6 0.756459 0.133018 0.089052
O O7 0.053670 0.464389 0.412864
O O8 0.136404 0.299289 0.575445
O O9 0.000000 0.302818 0.250000
O O10 0.103823 0.658627 0.451663
O O11 0.969748 0.606463 0.420452
O O12 0.750000 0.250000 0.500000
O O13 0.855609 0.214744 0.770764
#
# Coordination Sequence:
#
# PCOD9273162 Si02
#       6
#     8   8   8   8   8   8
#     4  10  20  39  61  92 118 162 204 254 300 354
#     4  10  21  37  65  90 123 156 207 253 302 365
#     4  10  20  37  63  88 114 161 209 249 288 360
#     4  10  23  37  60  88 122 159 208 252 298 367
#     4  11  24  38  58  94 126 161 193 253 315 372
#     4  11  22  37  60  86 127 160 199 249 311 366
#
# _framework density 24.580376999999999
#
# number of rings (size 3 to 8) (size 9 to 14) (size 15 to 20)
#    0.000    1.667    1.667    4.000    4.667    6.000 
#    0.000    0.000    3.667    2.000    0.000    0.000 
#    0.000    0.000    0.000    0.000    0.000    0.000 
#
# Total GULP energy -134202.344737 kJ/mol
# GULP energy per Si atom -5591.764364 kJ/mol
# Density = 2.452443 g / cm^3
# Si number density = 24.580377 Si / 1000 Ang^3
#
#
#
# Elastic Constant Matrix: (Units=GPa)
#
#
# Indices 1 2 3 4 5 6 
#
# 1 158.1242 6.8169 47.4788 0.0000 -18.9977 0.0000
# 2 6.8169 28.1002 -7.1181 0.0000 -8.7336 0.0000
# 3 47.4788 -7.1181 104.7755 0.0000 -21.3803 0.0000
# 4 0.0000 0.0000 0.0000 18.0990 0.0000 -9.1122
# 5 -18.9977 -8.7336 -21.3803 0.0000 51.7199 0.0000
# 6 0.0000 0.0000 0.0000 -9.1122 0.0000 23.6878
#
#
#
# Elastic Compliance Matrix: (Units=1/GPa)
#
#
# Indices 1 2 3 4 5 6 
#
# 1 0.007562 -0.002391 -0.003391 0.000000 0.000972 0.000000
# 2 -0.002391 0.040086 0.005470 0.000000 0.008152 0.000000
# 3 -0.003391 0.005470 0.012436 0.000000 0.004819 0.000000
# 4 0.000000 0.000000 0.000000 0.068523 0.000000 0.026359
# 5 0.000972 0.008152 0.004819 0.000000 0.023061 0.000000
# 6 0.000000 0.000000 0.000000 0.026359 0.000000 0.052356
#
#
# Mechanical properties :
#
#
# Convention : Reuss Voigt Hill
#
# Bulk Modulus (GPa) = 16.81772 42.81723 29.81747
# Shear Modulus (GPa) = 22.27498 34.95617 28.61558
#
# Velocity S-wave (km/s) = 3.01360 3.77519 3.41569
# Velocity P-wave (km/s) = 4.35498 6.03820 5.26430
#
# Compressibility (1/GPa) = 0.05946108
#
# Stress axis : x y z
#
# Youngs Moduli (GPa) = 132.23694 24.94608 80.41312
#
# Poissons Ratio (x) = 0.05965 0.27267
# Poissons Ratio (y) = 0.31622 -0.43990
# Poissons Ratio (z) = 0.44840 -0.13647
#
# Static dielectric constant tensor:
#      x y z
#    x 1.942590 0.000000 0.015150 
#    y 0.000000 1.996430 0.000000 
#    z 0.015150 0.000000 1.971570 
# 
# From -- ./inp_files/168906.got.cif
#   From: 2010.05.17/outbox.cif.g08.bks.cpg/sg15_85_cif.got.tgz:168906.got - 2010.06.03 18:47:42.
