data_PCOD9273541
_publ_section_title
;
Structure prediction by ZEFSAII (Michael W. Deem and Ramdas Pophale) SiO2 
 PCOD9273541
Probable space group: C 2/C
;
_chemical_formula_sum "Si O2"
_cell_formula_units_Z 60
_cell_length_a 15.281776
_cell_length_b 5.962970
_cell_length_c 26.564304
_cell_angle_alpha 90.000000
_cell_angle_beta 90.324438
_cell_angle_gamma 90.000000
_cell_volume 2420.627333
_symmetry_space_group_name_H-M "C 2/C"
_symmetry_group_IT_number 15
_symmetry_cell_setting 'monoclinic'
loop_
_space_group_symop_operation_xyz
x,y,z
-x,y,1/2-z
-x,-y,-z
x,-y,1/2+z
1/2+x,1/2+y,z
1/2-x,1/2+y,1/2-z
1/2-x,1/2-y,-z
1/2+x,1/2-y,1/2+z
loop_
_atom_site_type_symbol
_atom_site_label
_atom_site_fract_x
_atom_site_fract_y
_atom_site_fract_z
Si Si1 0.462053 0.748437 0.139846
Si Si2 0.767847 0.329287 0.381503
Si Si3 0.129206 0.784574 0.232983
Si Si4 0.292313 0.501432 0.516729
Si Si5 0.500000 0.641152 0.250000
Si Si6 0.310575 0.954335 0.189185
Si Si7 0.585166 0.512910 0.066466
Si Si8 0.419488 0.124388 0.365509
O O1 0.512476 0.746079 0.194463
O O2 0.362069 0.779411 0.154675
O O3 0.497553 0.579711 0.097377
O O4 0.496341 0.985673 0.119168
O O5 0.715233 0.466008 0.423513
O O6 0.832058 0.489161 0.350810
O O7 0.714348 0.166086 0.345646
O O8 0.840969 0.174349 0.409376
O O9 0.225226 0.853464 0.215007
O O10 0.130107 0.562640 0.266690
O O11 0.066327 0.766003 0.184295
O O12 0.086261 0.992684 0.260962
O O13 0.250000 0.750000 0.500000
O O14 0.389695 0.511649 0.492224
O O15 0.250000 0.250000 0.500000
O O16 0.606109 0.267480 0.086652
#
# Coordination Sequence:
#
# PCOD9273541 Si02
#       8
#     8   8   8   8   4   8   8   8
#     4  11  24  38  60  90 127 167 219 266 330 406
#     4  10  21  38  63  95 127 161 217 276 340 398
#     4  12  23  39  62  88 126 168 217 263 332 401
#     4  10  20  37  68 102 127 169 233 290 338 402
#     4  12  22  42  60  86 120 170 222 264 310 400
#     4  12  24  39  57  97 130 169 209 276 346 409
#     4  10  20  40  64  91 121 172 220 273 319 403
#     4  11  19  40  63  84 121 165 215 262 315 394
#
# _framework density 24.786963
#
# number of rings (size 3 to 8) (size 9 to 14) (size 15 to 20)
#    0.000    1.067    4.000    4.000    0.000    0.000 
#    0.000    0.667    0.000    0.800    0.000    0.000 
#    0.000    0.000    0.000    0.000    0.000    0.000 
#
# Total GULP energy -167245.899338 kJ/mol
# GULP energy per Si atom -5574.863311 kJ/mol
# Density = 2.473055 g / cm^3
# Si number density = 24.786963 Si / 1000 Ang^3
#
#
#
# Elastic Constant Matrix: (Units=GPa)
#
#
# Indices 1 2 3 4 5 6 
#
# 1 79.3216 17.4415 42.1355 0.0000 -43.5923 0.0000
# 2 17.4415 72.5533 29.2894 0.0000 -11.2467 0.0000
# 3 42.1355 29.2894 130.8392 0.0000 -36.5281 0.0000
# 4 0.0000 0.0000 0.0000 39.3786 0.0000 -1.6435
# 5 -43.5923 -11.2467 -36.5281 0.0000 45.6159 0.0000
# 6 0.0000 0.0000 0.0000 -1.6435 0.0000 29.5975
#
#
#
# Elastic Compliance Matrix: (Units=1/GPa)
#
#
# Indices 1 2 3 4 5 6 
#
# 1 0.027226 -0.002175 -0.001503 0.000000 0.024278 0.000000
# 2 -0.002175 0.015387 -0.002918 0.000000 -0.000621 0.000000
# 3 -0.001503 -0.002918 0.010533 0.000000 0.006279 0.000000
# 4 0.000000 0.000000 0.000000 0.025453 0.000000 0.001413
# 5 0.024278 -0.000621 0.006279 0.000000 0.049999 0.000000
# 6 0.000000 0.000000 0.000000 0.001413 0.000000 0.033865
#
#
# Mechanical properties :
#
#
# Convention : Reuss Voigt Hill
#
# Bulk Modulus (GPa) = 25.02757 51.16077 38.09417
# Shear Modulus (GPa) = 26.45883 35.84160 31.15021
#
# Velocity S-wave (km/s) = 3.27073 3.80674 3.54887
# Velocity P-wave (km/s) = 4.93787 6.32508 5.67403
#
# Compressibility (1/GPa) = 0.03995593
#
# Stress axis : x y z
#
# Youngs Moduli (GPa) = 36.72958 64.98849 94.93898
#
# Poissons Ratio (x) = 0.14134 0.14268
# Poissons Ratio (y) = 0.07988 0.27699
# Poissons Ratio (z) = 0.05520 0.18961
#
# Static dielectric constant tensor:
#      x y z
#    x 1.984100 0.000000 -0.017030 
#    y 0.000000 2.221190 0.000000 
#    z -0.017030 0.000000 2.061340 
# 
# From -- ./inp_files/315081.got.cif
#   From: 2010.05.17/outbox.cif.g08.bks.cpg/sg15_158_cif.got.tgz:315081.got - 2010.06.03 18:47:42.
