data_PCOD9273933
_publ_section_title
;
Structure prediction by ZEFSAII (Michael W. Deem and Ramdas Pophale) SiO2 
 PCOD9273933
Probable space group: C 2/C
;
_chemical_formula_sum "Si O2"
_cell_formula_units_Z 44
_cell_length_a 5.721729
_cell_length_b 18.047842
_cell_length_c 17.675101
_cell_angle_alpha 90.000000
_cell_angle_beta 97.137560
_cell_angle_gamma 90.000000
_cell_volume 1811.072691
_symmetry_space_group_name_H-M "C 2/C"
_symmetry_group_IT_number 15
_symmetry_cell_setting 'monoclinic'
loop_
_space_group_symop_operation_xyz
x,y,z
-x,y,1/2-z
-x,-y,-z
x,-y,1/2+z
1/2+x,1/2+y,z
1/2-x,1/2+y,1/2-z
1/2-x,1/2-y,-z
1/2+x,1/2-y,1/2+z
loop_
_atom_site_type_symbol
_atom_site_label
_atom_site_fract_x
_atom_site_fract_y
_atom_site_fract_z
Si Si1 0.559903 0.397072 0.931481
Si Si2 0.729960 0.032626 0.929146
Si Si3 0.912306 0.846903 0.332207
Si Si4 0.000000 0.737814 0.750000
Si Si5 0.404506 0.066147 0.331364
Si Si6 0.287218 0.209608 0.129300
O O1 0.361594 0.455279 0.949560
O O2 0.639927 0.418230 0.849451
O O3 0.439433 0.316850 0.927407
O O4 0.772720 0.415204 0.997303
O O5 0.886190 0.078201 0.876242
O O6 0.490117 0.006872 0.880351
O O7 0.651549 0.811678 0.313600
O O8 0.000000 0.858763 0.250000
O O9 0.083173 0.787093 0.378755
O O10 0.188924 0.783871 0.710964
O O11 0.500000 0.055406 0.250000
O O12 0.530845 0.142139 0.363653
#
# Coordination Sequence:
#
# PCOD9273933 Si02
#       6
#     8   8   8   4   8   8
#     4  10  22  42  60  85 127 162 205 253 312 367
#     4  10  24  39  59  90 124 163 199 261 313 371
#     4  10  22  37  60  90 122 156 207 258 317 362
#     4  10  20  38  60  88 124 152 194 260 302 362
#     4  11  22  36  64  90 118 161 214 252 308 372
#     4  10  20  38  61  87 118 163 207 253 305 375
#
# _framework density 24.294996000000001
#
# number of rings (size 3 to 8) (size 9 to 14) (size 15 to 20)
#    0.000    1.818    0.000    4.364    3.818    3.636 
#    0.000    3.636    0.000    0.000    0.000    0.000 
#    0.000    0.000    0.000    0.000    0.000    0.000 
#
# Total GULP energy -122822.441227 kJ/mol
# GULP energy per Si atom -5582.838238 kJ/mol
# Density = 2.423970 g / cm^3
# Si number density = 24.294996 Si / 1000 Ang^3
#
#
#
# Elastic Constant Matrix: (Units=GPa)
#
#
# Indices 1 2 3 4 5 6 
#
# 1 57.3449 9.8406 4.3765 0.0000 -4.9465 0.0000
# 2 9.8406 83.9456 8.3720 0.0000 5.0232 0.0000
# 3 4.3765 8.3720 61.5622 0.0000 -10.9512 0.0000
# 4 0.0000 0.0000 0.0000 22.8182 0.0000 -4.0719
# 5 -4.9465 5.0232 -10.9512 0.0000 16.5229 0.0000
# 6 0.0000 0.0000 0.0000 -4.0719 0.0000 -9.3514
#
#
#
# Elastic Compliance Matrix: (Units=1/GPa)
#
#
# Indices 1 2 3 4 5 6 
#
# 1 0.018417 -0.002560 0.000179 0.000000 0.006411 0.000000
# 2 -0.002560 0.012872 -0.002722 0.000000 -0.006484 0.000000
# 3 0.000179 -0.002722 0.018998 0.000000 0.013473 0.000000
# 4 0.000000 0.000000 0.000000 0.040665 0.000000 -0.017707
# 5 0.006411 -0.006484 0.013473 0.000000 0.073342 0.000000
# 6 0.000000 0.000000 0.000000 -0.017707 0.000000 -0.099226
#
#
# Mechanical properties :
#
#
# Convention : Reuss Voigt Hill
#
# Bulk Modulus (GPa) = 24.94956 27.55899 26.25428
# Shear Modulus (GPa) = 56.41191 18.01554 37.21373
#
# Velocity S-wave (km/s) = 4.82390 2.72606 3.91800
# Velocity P-wave (km/s) = 6.42793 4.61266 5.59442
#
# Compressibility (1/GPa) = 0.04008086
#
# Stress axis : x y z
#
# Youngs Moduli (GPa) = 54.29758 77.68761 52.63776
#
# Poissons Ratio (x) = 0.19892 -0.00944
# Poissons Ratio (y) = 0.13903 0.14327
# Poissons Ratio (z) = -0.00974 0.21146
#
# Static dielectric constant tensor:
#      x y z
#    x 2.044140 0.000000 0.078370 
#    y 0.000000 1.886290 0.000000 
#    z 0.078370 0.000000 2.044520 
# 
# From -- ./inp_files/226920.got.cif
#   From: 2010.05.17/outbox.cif.g08.bks.cpg/sg15_114_cif.got.tgz:226920.got - 2010.06.03 18:47:42.
