data_PCOD9273765
_publ_section_title
;
Structure prediction by ZEFSAII (Michael W. Deem and Ramdas Pophale) SiO2 
 PCOD9273765
Probable space group: C 2/C
;
_chemical_formula_sum "Si O2"
_cell_formula_units_Z 64
_cell_length_a 8.633632
_cell_length_b 21.708968
_cell_length_c 19.488497
_cell_angle_alpha 90.000000
_cell_angle_beta 88.310836
_cell_angle_gamma 90.000000
_cell_volume 3651.087961
_symmetry_space_group_name_H-M "C 2/C"
_symmetry_group_IT_number 15
_symmetry_cell_setting 'monoclinic'
loop_
_space_group_symop_operation_xyz
x,y,z
-x,y,1/2-z
-x,-y,-z
x,-y,1/2+z
1/2+x,1/2+y,z
1/2-x,1/2+y,1/2-z
1/2-x,1/2-y,-z
1/2+x,1/2-y,1/2+z
loop_
_atom_site_type_symbol
_atom_site_label
_atom_site_fract_x
_atom_site_fract_y
_atom_site_fract_z
Si Si1 0.641992 0.146966 0.066478
Si Si2 0.501584 0.676546 0.474450
Si Si3 0.605047 0.728936 0.618298
Si Si4 0.587959 0.445076 0.459248
Si Si5 0.071634 0.895097 0.177807
Si Si6 0.917018 0.505633 0.427895
Si Si7 0.461864 0.801046 0.078935
Si Si8 0.058776 0.410601 0.326360
O O1 0.827624 0.154557 0.052662
O O2 0.586149 0.197926 0.122078
O O3 0.606605 0.077543 0.085962
O O4 0.563457 0.165237 0.994243
O O5 0.529520 0.707700 0.547822
O O6 0.404213 0.615155 0.491160
O O7 0.449068 0.735747 0.430105
O O8 0.546161 0.678895 0.672577
O O9 0.788780 0.717954 0.605053
O O10 0.500000 0.500000 0.500000
O O11 0.498943 0.424989 0.390533
O O12 0.754045 0.470847 0.436688
O O13 0.255750 0.904877 0.174612
O O14 0.000000 0.918366 0.250000
O O15 0.000000 0.500000 0.500000
O O16 0.013028 0.471212 0.368498
O O17 0.515599 0.852098 0.132200
O O18 0.000000 0.411875 0.250000
#
# Coordination Sequence:
#
# PCOD9273765 Si02
#       8
#     8   8   8   8   8   8   8   8
#     4   9  14  29  51  81 105 136 174 218 269 323
#     4   8  14  28  52  79 102 129 181 220 262 305
#     4   7  14  26  53  79  98 126 177 223 264 308
#     4  11  20  33  55  86 111 144 190 231 265 325
#     4  10  20  38  59  78 103 141 191 235 272 334
#     4  12  22  33  53  81 120 148 180 224 283 335
#     4   8  14  29  52  75 103 137 170 225 266 319
#     4  11  22  36  53  81 110 146 182 223 288 337
#
# _framework density 17.529022999999999
#
# number of rings (size 3 to 8) (size 9 to 14) (size 15 to 20)
#    0.000    2.500    2.500    3.750    0.000    0.000 
#    0.000    1.250    2.750    0.750    3.250    0.000 
#    0.000    0.000    0.000    0.000    0.000    0.000 
#
# Total GULP energy -178196.546944 kJ/mol
# GULP energy per Si atom -5568.642092 kJ/mol
# Density = 1.748913 g / cm^3
# Si number density = 17.529023 Si / 1000 Ang^3
#
#
#
# Elastic Constant Matrix: (Units=GPa)
#
#
# Indices 1 2 3 4 5 6 
#
# 1 48.6032 34.4846 28.0008 0.0000 4.5278 0.0000
# 2 34.4846 175.9619 55.9895 0.0000 -4.7935 0.0000
# 3 28.0008 55.9895 95.6916 0.0000 3.5865 0.0000
# 4 0.0000 0.0000 0.0000 21.9107 0.0000 -1.3372
# 5 4.5278 -4.7935 3.5865 0.0000 20.9999 0.0000
# 6 0.0000 0.0000 0.0000 -1.3372 0.0000 17.0945
#
#
#
# Elastic Compliance Matrix: (Units=1/GPa)
#
#
# Indices 1 2 3 4 5 6 
#
# 1 0.026881 -0.003672 -0.005504 0.000000 -0.005694 0.000000
# 2 -0.003672 0.007598 -0.003488 0.000000 0.003122 0.000000
# 3 -0.005504 -0.003488 0.014178 0.000000 -0.002031 0.000000
# 4 0.000000 0.000000 0.000000 0.045859 0.000000 0.003587
# 5 -0.005694 0.003122 -0.002031 0.000000 0.049906 0.000000
# 6 0.000000 0.000000 0.000000 0.003587 0.000000 0.058779
#
#
# Mechanical properties :
#
#
# Convention : Reuss Voigt Hill
#
# Bulk Modulus (GPa) = 42.86517 61.91183 52.38850
# Shear Modulus (GPa) = 21.15912 25.45314 23.30613
#
# Velocity S-wave (km/s) = 3.47809 3.81472 3.65029
# Velocity P-wave (km/s) = 6.37467 7.40264 6.90780
#
# Compressibility (1/GPa) = 0.02332896
#
# Stress axis : x y z
#
# Youngs Moduli (GPa) = 37.20038 131.62205 70.53344
#
# Poissons Ratio (x) = 0.48331 0.38822
# Poissons Ratio (y) = 0.13660 0.24601
# Poissons Ratio (z) = 0.20475 0.45908
#
# Static dielectric constant tensor:
#      x y z
#    x 1.589730 0.000000 -0.003100 
#    y 0.000000 1.640500 0.000000 
#    z -0.003100 0.000000 1.583860 
# 
# From -- ./inp_files/233502.got.cif
#   From: 2010.05.17/outbox.cif.g08.bks.cpg/sg15_117_cif.got.tgz:233502.got - 2010.06.03 18:47:42.
