data_PCOD9273822
_publ_section_title
;
Structure prediction by ZEFSAII (Michael W. Deem and Ramdas Pophale) SiO2 
 PCOD9273822
Probable space group: C 2/C
;
_chemical_formula_sum "Si O2"
_cell_formula_units_Z 60
_cell_length_a 18.528754
_cell_length_b 16.441115
_cell_length_c 10.781008
_cell_angle_alpha 90.000000
_cell_angle_beta 113.509185
_cell_angle_gamma 90.000000
_cell_volume 3011.649025
_symmetry_space_group_name_H-M "C 2/C"
_symmetry_group_IT_number 15
_symmetry_cell_setting 'monoclinic'
loop_
_space_group_symop_operation_xyz
x,y,z
-x,y,1/2-z
-x,-y,-z
x,-y,1/2+z
1/2+x,1/2+y,z
1/2-x,1/2+y,1/2-z
1/2-x,1/2-y,-z
1/2+x,1/2-y,1/2+z
loop_
_atom_site_type_symbol
_atom_site_label
_atom_site_fract_x
_atom_site_fract_y
_atom_site_fract_z
Si Si1 0.682089 0.576642 0.362180
Si Si2 0.161001 0.865449 0.113957
Si Si3 0.069654 0.554625 0.096817
Si Si4 0.327169 0.194997 0.087022
Si Si5 0.298916 0.064351 0.858370
Si Si6 0.951316 0.016521 0.842858
Si Si7 0.182304 0.320528 0.628324
Si Si8 0.500000 0.820357 0.750000
O O1 0.652843 0.584404 0.481954
O O2 0.740812 0.501060 0.382186
O O3 0.610270 0.557151 0.222056
O O4 0.733548 0.656312 0.369187
O O5 0.246645 0.882109 0.230193
O O6 0.098442 0.901627 0.166927
O O7 0.154057 0.770234 0.086556
O O8 0.136828 0.487698 0.173453
O O9 0.117216 0.614979 0.037651
O O10 0.031733 0.617236 0.167602
O O11 0.000000 0.500000 0.000000
O O12 0.310842 0.167758 0.217629
O O13 0.419117 0.226699 0.154611
O O14 0.250000 0.250000 0.000000
O O15 0.330531 0.122069 0.989410
O O16 0.000000 0.023851 0.750000
O O17 0.000000 0.000000 0.000000
#
# Coordination Sequence:
#
# PCOD9273822 Si02
#       8
#     8   8   8   8   8   8   8   4
#     4  10  23  39  67  89 130 172 223 273 330 415
#     4  11  22  41  63  95 129 172 223 271 346 405
#     4  10  20  38  59  88 124 164 211 269 334 397
#     4  11  21  40  61  92 137 169 226 279 346 403
#     4  10  22  36  62  92 122 171 217 272 327 410
#     4  11  23  44  68  97 131 178 230 285 341 405
#     4  10  23  39  62  97 128 169 217 277 340 407
#     4  10  22  36  64  92 130 168 218 276 330 408
#
# _framework density 19.922640000000001
#
# number of rings (size 3 to 8) (size 9 to 14) (size 15 to 20)
#    0.000    1.600    4.000    0.400    7.467    0.000 
#    4.800    1.333    0.000    0.000    0.000    0.000 
#    0.000    0.000    0.000    0.000    0.000    0.000 
#
# Total GULP energy -167111.101607 kJ/mol
# GULP energy per Si atom -5570.370054 kJ/mol
# Density = 1.987729 g / cm^3
# Si number density = 19.922640 Si / 1000 Ang^3
#
#
#
# Elastic Constant Matrix: (Units=GPa)
#
#
# Indices 1 2 3 4 5 6 
#
# 1 123.1638 26.1514 32.2129 0.0000 16.3899 0.0000
# 2 26.1514 62.7702 11.1556 0.0000 17.6924 0.0000
# 3 32.2129 11.1556 85.2269 0.0000 14.0407 0.0000
# 4 0.0000 0.0000 0.0000 21.0071 0.0000 -0.1992
# 5 16.3899 17.6924 14.0407 0.0000 34.8764 0.0000
# 6 0.0000 0.0000 0.0000 -0.1992 0.0000 21.0620
#
#
#
# Elastic Compliance Matrix: (Units=1/GPa)
#
#
# Indices 1 2 3 4 5 6 
#
# 1 0.009793 -0.003022 -0.002999 0.000000 -0.001862 0.000000
# 2 -0.003022 0.019593 -0.000020 0.000000 -0.008511 0.000000
# 3 -0.002999 -0.000020 0.013533 0.000000 -0.004029 0.000000
# 4 0.000000 0.000000 0.000000 0.047607 0.000000 0.000450
# 5 -0.001862 -0.008511 -0.004029 0.000000 0.035487 0.000000
# 6 0.000000 0.000000 0.000000 0.000450 0.000000 0.047483
#
#
# Mechanical properties :
#
#
# Convention : Reuss Voigt Hill
#
# Bulk Modulus (GPa) = 32.42968 45.57784 39.00376
# Shear Modulus (GPa) = 25.52870 28.83185 27.18027
#
# Velocity S-wave (km/s) = 3.58354 3.80832 3.69764
# Velocity P-wave (km/s) = 5.78234 6.50114 6.15225
#
# Compressibility (1/GPa) = 0.03083595
#
# Stress axis : x y z
#
# Youngs Moduli (GPa) = 102.11225 51.03943 73.89176
#
# Poissons Ratio (x) = 0.15426 0.22162
# Poissons Ratio (y) = 0.30861 0.00149
# Poissons Ratio (z) = 0.30625 0.00103
#
# Static dielectric constant tensor:
#      x y z
#    x 1.767340 0.000000 0.025770 
#    y 0.000000 1.736100 0.000000 
#    z 0.025770 0.000000 1.714360 
# 
# From -- ./inp_files/106708.got.cif
#   From: 2010.05.17/outbox.cif.g08.bks.cpg/sg15_54_cif.got.tgz:106708.got - 2010.06.03 18:47:42.
