data_PCOD9273482
_publ_section_title
;
Structure prediction by ZEFSAII (Michael W. Deem and Ramdas Pophale) SiO2 
 PCOD9273482
Probable space group: C 2/C
;
_chemical_formula_sum "Si O2"
_cell_formula_units_Z 40
_cell_length_a 5.084470
_cell_length_b 18.485128
_cell_length_c 20.633592
_cell_angle_alpha 90.000000
_cell_angle_beta 124.793710
_cell_angle_gamma 90.000000
_cell_volume 1592.568795
_symmetry_space_group_name_H-M "C 2/C"
_symmetry_group_IT_number 15
_symmetry_cell_setting 'monoclinic'
loop_
_space_group_symop_operation_xyz
x,y,z
-x,y,1/2-z
-x,-y,-z
x,-y,1/2+z
1/2+x,1/2+y,z
1/2-x,1/2+y,1/2-z
1/2-x,1/2-y,-z
1/2+x,1/2-y,1/2+z
loop_
_atom_site_type_symbol
_atom_site_label
_atom_site_fract_x
_atom_site_fract_y
_atom_site_fract_z
Si Si1 0.275309 0.321589 0.435399
Si Si2 0.069081 0.237305 0.856634
Si Si3 0.192234 0.117025 0.109809
Si Si4 0.342625 0.020798 0.407762
Si Si5 0.173485 0.907733 0.181222
O O1 0.430188 0.260782 0.410494
O O2 0.482774 0.341800 0.525926
O O3 0.296472 0.390894 0.390979
O O4 0.920902 0.298579 0.404814
O O5 0.089815 0.317785 0.832939
O O6 0.853737 0.174140 0.794063
O O7 0.398329 0.055767 0.103004
O O8 0.936694 0.079850 0.120127
O O9 0.500000 0.000000 0.500000
O O10 0.144519 0.953008 0.352088
O O11 0.500000 0.943353 0.250000
#
# Coordination Sequence:
#
# PCOD9273482 Si02
#       5
#     8   8   8   8   8
#     4  10  20  37  66  93 121 158 208 258 314 367
#     4  10  22  39  62  94 121 162 206 262 318 373
#     4  12  22  39  66  97 126 160 209 270 317 364
#     4  12  24  40  64  97 131 166 211 261 318 377
#     4  10  25  43  64  91 127 174 212 259 315 392
#
# _framework density 25.116652999999999
#
# number of rings (size 3 to 8) (size 9 to 14) (size 15 to 20)
#    1.200    0.000    2.000    5.400    2.800    0.800 
#    0.000    2.000    0.000    0.000    0.000    0.000 
#    0.000    0.000    0.000    0.000    0.000    0.000 
#
# Total GULP energy -111878.139853 kJ/mol
# GULP energy per Si atom -5593.906993 kJ/mol
# Density = 2.505949 g / cm^3
# Si number density = 25.116653 Si / 1000 Ang^3
#
#
#
# Elastic Constant Matrix: (Units=GPa)
#
#
# Indices 1 2 3 4 5 6 
#
# 1 117.0669 12.8386 13.9830 0.0000 24.5966 0.0000
# 2 12.8386 125.9082 12.5154 0.0000 16.6844 0.0000
# 3 13.9830 12.5154 64.2247 0.0000 9.1584 0.0000
# 4 0.0000 0.0000 0.0000 3.3086 0.0000 16.1976
# 5 24.5966 16.6844 9.1584 0.0000 36.7214 0.0000
# 6 0.0000 0.0000 0.0000 16.1976 0.0000 48.8339
#
#
#
# Elastic Compliance Matrix: (Units=1/GPa)
#
#
# Indices 1 2 3 4 5 6 
#
# 1 0.010041 -0.000052 -0.001265 0.000000 -0.006386 0.000000
# 2 -0.000052 0.008533 -0.001144 0.000000 -0.003557 0.000000
# 3 -0.001265 -0.001144 0.016459 0.000000 -0.002738 0.000000
# 4 0.000000 0.000000 0.000000 -0.484497 0.000000 0.160702
# 5 -0.006386 -0.003557 -0.002738 0.000000 0.033809 0.000000
# 6 0.000000 0.000000 0.000000 0.160702 0.000000 -0.032825
#
#
# Mechanical properties :
#
#
# Convention : Reuss Voigt Hill
#
# Bulk Modulus (GPa) = 33.21174 42.87486 38.04330
# Shear Modulus (GPa) = -11.53345 35.63029 12.04842
#
# Velocity S-wave (km/s) = -2.14521 3.77051 2.19258
# Velocity P-wave (km/s) = 2.66755 6.00525 4.64644
#
# Compressibility (1/GPa) = 0.03010984
#
# Stress axis : x y z
#
# Youngs Moduli (GPa) = 99.59404 117.19715 60.75641
#
# Poissons Ratio (x) = 0.00607 0.07687
# Poissons Ratio (y) = 0.00516 0.06952
# Poissons Ratio (z) = 0.12602 0.13411
#
# Static dielectric constant tensor:
#      x y z
#    x 0.980850 0.000000 -1.442450 
#    y 0.000000 2.100490 0.000000 
#    z -1.442450 0.000000 -0.099180 
# 
# From -- ./inp_files/285956.got.cif
#   From: 2010.05.17/outbox.cif.g08.bks.cpg/sg15_143_cif.got.tgz:285956.got - 2010.06.03 18:47:42.
