data_PCOD9273962
_publ_section_title
;
Structure prediction by ZEFSAII (Michael W. Deem and Ramdas Pophale) SiO2 
 PCOD9273962
Probable space group: C 2/C
;
_chemical_formula_sum "Si O2"
_cell_formula_units_Z 40
_cell_length_a 14.302300
_cell_length_b 7.632555
_cell_length_c 22.717456
_cell_angle_alpha 90.000000
_cell_angle_beta 33.272369
_cell_angle_gamma 90.000000
_cell_volume 1360.526194
_symmetry_space_group_name_H-M "C 2/C"
_symmetry_group_IT_number 15
_symmetry_cell_setting 'monoclinic'
loop_
_space_group_symop_operation_xyz
x,y,z
-x,y,1/2-z
-x,-y,-z
x,-y,1/2+z
1/2+x,1/2+y,z
1/2-x,1/2+y,1/2-z
1/2-x,1/2-y,-z
1/2+x,1/2-y,1/2+z
loop_
_atom_site_type_symbol
_atom_site_label
_atom_site_fract_x
_atom_site_fract_y
_atom_site_fract_z
Si Si1 0.742016 0.042168 0.538301
Si Si2 0.438568 0.327773 0.567966
Si Si3 0.101552 0.821533 0.135790
Si Si4 0.923932 0.347105 0.610900
Si Si5 0.859169 0.417556 0.237511
O O1 0.783964 0.979806 0.449324
O O2 0.715078 0.852700 0.584072
O O3 0.553543 0.107827 0.654399
O O4 0.900704 0.163245 0.470980
O O5 0.500000 0.500000 0.500000
O O6 0.463936 0.178230 0.505751
O O7 0.258135 0.411485 0.684867
O O8 0.000000 0.854215 0.250000
O O9 0.996253 0.761562 0.131086
O O10 0.883738 0.543302 0.654721
O O11 0.747012 0.250773 0.690483
#
# Coordination Sequence:
#
# PCOD9273962 Si02
#       5
#     8   8   8   8   8
#     4  10  21  36  63  93 117 170 209 247 310 373
#     4  10  20  38  60  90 128 159 206 258 304 374
#     4  10  21  35  60  95 126 150 213 269 299 350
#     4  10  22  39  62  94 126 165 206 256 314 367
#     4  10  22  39  65  93 124 160 211 257 306 369
#
# _framework density 29.400389000000001
#
# number of rings (size 3 to 8) (size 9 to 14) (size 15 to 20)
#    0.000    2.000    4.000    0.000   11.200    0.000 
#    0.000    5.000    4.400    0.000    0.000    0.000 
#    0.000    0.000    0.000    0.000    0.000    0.000 
#
# Total GULP energy -111534.401584 kJ/mol
# GULP energy per Si atom -5576.720079 kJ/mol
# Density = 2.933347 g / cm^3
# Si number density = 29.400389 Si / 1000 Ang^3
#
#
#
# Elastic Constant Matrix: (Units=GPa)
#
#
# Indices 1 2 3 4 5 6 
#
# 1 118.9916 29.3930 87.6023 0.0000 3.4310 0.0000
# 2 29.3930 64.5851 26.3386 0.0000 -20.7453 0.0001
# 3 87.6023 26.3386 239.4603 0.0000 18.8831 0.0000
# 4 0.0000 0.0000 0.0000 59.6487 0.0000 2.1159
# 5 3.4310 -20.7453 18.8831 0.0000 76.9406 0.0000
# 6 0.0000 0.0001 0.0000 2.1159 0.0000 40.6121
#
#
#
# Elastic Compliance Matrix: (Units=1/GPa)
#
#
# Indices 1 2 3 4 5 6 
#
# 1 0.012438 -0.004247 -0.004027 0.000000 -0.000711 0.000000
# 2 -0.004247 0.019703 -0.001068 0.000000 0.005764 0.000000
# 3 -0.004027 -0.001068 0.005889 0.000000 -0.001554 0.000000
# 4 0.000000 0.000000 0.000000 0.016796 0.000000 -0.000875
# 5 -0.000711 0.005764 -0.001554 0.000000 0.014964 0.000000
# 6 0.000000 0.000000 0.000000 -0.000875 0.000000 0.024669
#
#
# Mechanical properties :
#
#
# Convention : Reuss Voigt Hill
#
# Bulk Modulus (GPa) = 51.68846 78.85610 65.27228
# Shear Modulus (GPa) = 41.80847 54.08713 47.94780
#
# Velocity S-wave (km/s) = 3.77508 4.29380 4.04277
# Velocity P-wave (km/s) = 6.05150 7.17370 6.63636
#
# Compressibility (1/GPa) = 0.01934668
#
# Stress axis : x y z
#
# Youngs Moduli (GPa) = 80.39672 50.75292 169.79920
#
# Poissons Ratio (x) = 0.21555 0.68380
# Poissons Ratio (y) = 0.34144 0.18136
# Poissons Ratio (z) = 0.32377 0.05421
#
# Static dielectric constant tensor:
#      x y z
#    x 2.752400 0.000000 -0.092410 
#    y 0.000000 2.409080 0.000000 
#    z -0.092410 0.000000 2.421200 
# 
# From -- ./inp_files/273745.got.cif
#   From: 2010.05.17/outbox.cif.g08.bks.cpg/sg15_137_cif.got.tgz:273745.got - 2010.06.03 18:47:42.
