data_PCOD9273795
_publ_section_title
;
Structure prediction by ZEFSAII (Michael W. Deem and Ramdas Pophale) SiO2 
 PCOD9273795
Probable space group: C 2/C
;
_chemical_formula_sum "Si O2"
_cell_formula_units_Z 52
_cell_length_a 8.837472
_cell_length_b 8.537587
_cell_length_c 29.632164
_cell_angle_alpha 90.000000
_cell_angle_beta 85.933620
_cell_angle_gamma 90.000000
_cell_volume 2230.138704
_symmetry_space_group_name_H-M "C 2/C"
_symmetry_group_IT_number 15
_symmetry_cell_setting 'monoclinic'
loop_
_space_group_symop_operation_xyz
x,y,z
-x,y,1/2-z
-x,-y,-z
x,-y,1/2+z
1/2+x,1/2+y,z
1/2-x,1/2+y,1/2-z
1/2-x,1/2-y,-z
1/2+x,1/2-y,1/2+z
loop_
_atom_site_type_symbol
_atom_site_label
_atom_site_fract_x
_atom_site_fract_y
_atom_site_fract_z
Si Si1 0.863124 0.272950 0.821402
Si Si2 0.000000 0.555156 0.250000
Si Si3 0.160918 0.913595 0.900512
Si Si4 0.992946 0.181340 0.484203
Si Si5 0.838084 0.755843 0.763423
Si Si6 0.344083 0.420240 0.855171
Si Si7 0.682368 0.227977 0.434131
O O1 0.798079 0.365966 0.865275
O O2 0.762350 0.284746 0.778164
O O3 0.861743 0.094371 0.836116
O O4 0.013377 0.344892 0.795466
O O5 0.866343 0.429970 0.260609
O O6 0.174820 0.096360 0.913779
O O7 0.005836 0.886600 0.875538
O O8 0.133618 0.809204 0.946511
O O9 0.837481 0.210177 0.459728
O O10 0.963534 0.284691 0.529709
O O11 0.000000 0.000000 0.500000
O O12 0.000000 0.836766 0.750000
O O13 0.813190 0.802969 0.815137
O O14 0.208648 0.397101 0.894110
#
# Coordination Sequence:
#
# PCOD9273795 Si02
#       7
#     8   4   8   8   8   8   8
#     4  12  24  38  58  87 119 156 201 247 294 354
#     4  10  24  36  54  80 110 152 198 238 288 340
#     4  10  20  38  59  85 119 152 194 244 300 358
#     4   8  16  34  63  91 114 154 199 240 298 360
#     4  10  22  42  57  79 117 157 201 244 292 347
#     4  11  23  37  59  86 116 155 198 244 298 352
#     4   9  18  35  62  88 118 155 194 244 300 360
#
# _framework density 23.316935999999998
#
# number of rings (size 3 to 8) (size 9 to 14) (size 15 to 20)
#    0.462    1.538    1.538    1.846    1.077    3.692 
#    0.000    0.769    0.000   31.385    0.000    0.000 
#    0.000    0.000    0.000    0.000    0.000    0.000 
#
# Total GULP energy -144914.787827 kJ/mol
# GULP energy per Si atom -5573.645686 kJ/mol
# Density = 2.326387 g / cm^3
# Si number density = 23.316936 Si / 1000 Ang^3
#
#
#
# Elastic Constant Matrix: (Units=GPa)
#
#
# Indices 1 2 3 4 5 6 
#
# 1 44.2988 9.0098 31.0954 0.0000 -6.3034 0.0000
# 2 9.0098 89.7967 54.9896 0.0000 -20.0970 0.0000
# 3 31.0954 54.9896 176.6537 0.0000 -43.2439 0.0000
# 4 0.0000 0.0000 0.0000 23.4554 0.0000 -5.0401
# 5 -6.3034 -20.0970 -43.2439 0.0000 29.9070 0.0000
# 6 0.0000 0.0000 0.0000 -5.0401 0.0000 4.6493
#
#
#
# Elastic Compliance Matrix: (Units=1/GPa)
#
#
# Indices 1 2 3 4 5 6 
#
# 1 0.025816 0.000081 -0.004991 0.000000 -0.001721 0.000000
# 2 0.000081 0.014205 -0.003243 0.000000 0.004873 0.000000
# 3 -0.004991 -0.003243 0.010460 0.000000 0.011894 0.000000
# 4 0.000000 0.000000 0.000000 0.055581 0.000000 0.060254
# 5 -0.001721 0.004873 0.011894 0.000000 0.053547 0.000000
# 6 0.000000 0.000000 0.000000 0.060254 0.000000 0.280406
#
#
# Mechanical properties :
#
#
# Convention : Reuss Voigt Hill
#
# Bulk Modulus (GPa) = 29.26092 55.65985 42.46039
# Shear Modulus (GPa) = 10.69032 25.97929 18.33481
#
# Velocity S-wave (km/s) = 2.14354 3.34156 2.80720
# Velocity P-wave (km/s) = 4.32467 6.22983 5.36254
#
# Compressibility (1/GPa) = 0.03417528
#
# Stress axis : x y z
#
# Youngs Moduli (GPa) = 38.73589 70.39889 95.59913
#
# Poissons Ratio (x) = -0.00569 0.47710
# Poissons Ratio (y) = -0.00313 0.31003
# Poissons Ratio (z) = 0.19332 0.22831
#
# Static dielectric constant tensor:
#      x y z
#    x 2.071940 0.000000 -0.075340 
#    y 0.000000 1.865390 0.000000 
#    z -0.075340 0.000000 1.927320 
# 
# From -- ./inp_files/291165.got.cif
#   From: 2010.05.17/outbox.cif.g08.bks.cpg/sg15_146_cif.got.tgz:291165.got - 2010.06.03 18:47:42.
