data_PCOD9273176
_publ_section_title
;
Structure prediction by ZEFSAII (Michael W. Deem and Ramdas Pophale) SiO2 
 PCOD9273176
Probable space group: C 2/C
;
_chemical_formula_sum "Si O2"
_cell_formula_units_Z 64
_cell_length_a 15.484190
_cell_length_b 17.458252
_cell_length_c 9.570837
_cell_angle_alpha 90.000000
_cell_angle_beta 98.919410
_cell_angle_gamma 90.000000
_cell_volume 2555.967971
_symmetry_space_group_name_H-M "C 2/C"
_symmetry_group_IT_number 15
_symmetry_cell_setting 'monoclinic'
loop_
_space_group_symop_operation_xyz
x,y,z
-x,y,1/2-z
-x,-y,-z
x,-y,1/2+z
1/2+x,1/2+y,z
1/2-x,1/2+y,1/2-z
1/2-x,1/2-y,-z
1/2+x,1/2-y,1/2+z
loop_
_atom_site_type_symbol
_atom_site_label
_atom_site_fract_x
_atom_site_fract_y
_atom_site_fract_z
Si Si1 0.726473 0.208444 0.219487
Si Si2 0.814863 0.102837 0.008883
Si Si3 0.910089 0.958608 0.775169
Si Si4 0.411507 0.636723 0.786225
Si Si5 0.570746 0.885202 0.580612
Si Si6 0.796688 0.123369 0.483689
Si Si7 0.115037 0.438026 0.034941
Si Si8 0.162280 0.359357 0.322431
O O1 0.624968 0.177457 0.187053
O O2 0.762280 0.193689 0.382604
O O3 0.777425 0.285139 0.184793
O O4 0.766962 0.150608 0.116213
O O5 0.879779 0.156588 0.933981
O O6 0.738967 0.079486 0.882401
O O7 0.858136 0.038934 0.115596
O O8 0.000000 0.919155 0.750000
O O9 0.926710 0.046127 0.818681
O O10 0.863524 0.917515 0.892108
O O11 0.500000 0.671457 0.750000
O O12 0.342700 0.643868 0.642163
O O13 0.593407 0.854571 0.430143
O O14 0.607339 0.973333 0.582411
O O15 0.532138 0.905601 0.925971
O O16 0.708535 0.076014 0.488995
O O17 0.115863 0.386595 0.173269
#
# Coordination Sequence:
#
# PCOD9273176 Si02
#       8
#     8   8   8   8   8   8   8   8
#     4  10  25  45  71  98 140 194 248 295 358 455
#     4  10  20  37  63  89 122 175 240 277 346 427
#     4  10  22  37  58  93 137 181 230 285 352 431
#     4  11  22  37  59  95 139 177 228 294 353 414
#     4  10  24  44  70 109 147 195 251 304 369 449
#     4  11  24  39  67 100 139 187 236 305 371 426
#     4  11  25  41  71 112 149 188 246 318 376 431
#     4  11  23  46  73  98 139 196 245 294 364 451
#
# _framework density 25.039439000000002
#
# number of rings (size 3 to 8) (size 9 to 14) (size 15 to 20)
#    0.000    1.500    1.250    3.375   10.500    3.000 
#    0.000   11.250    0.000    0.000    0.000    0.000 
#    0.000    0.000    0.000    0.000    0.000    0.000 
#
# Total GULP energy -178524.559482 kJ/mol
# GULP energy per Si atom -5578.892484 kJ/mol
# Density = 2.498245 g / cm^3
# Si number density = 25.039439 Si / 1000 Ang^3
#
#
#
# Elastic Constant Matrix: (Units=GPa)
#
#
# Indices 1 2 3 4 5 6 
#
# 1 141.0884 26.8892 28.3128 0.0000 -17.1877 0.0000
# 2 26.8892 67.3464 -2.9277 0.0000 9.9904 0.0000
# 3 28.3128 -2.9277 94.2024 0.0000 -7.2999 0.0000
# 4 0.0000 0.0000 0.0000 22.4961 0.0000 -13.8276
# 5 -17.1877 9.9904 -7.2999 0.0000 34.2932 0.0000
# 6 0.0000 0.0000 0.0000 -13.8276 0.0000 17.7779
#
#
#
# Elastic Compliance Matrix: (Units=1/GPa)
#
#
# Indices 1 2 3 4 5 6 
#
# 1 0.009098 -0.004534 -0.002460 0.000000 0.005357 0.000000
# 2 -0.004534 0.017781 0.001360 0.000000 -0.007163 0.000000
# 3 -0.002460 0.001360 0.011460 0.000000 0.000810 0.000000
# 4 0.000000 0.000000 0.000000 0.085172 0.000000 0.066246
# 5 0.005357 -0.007163 0.000810 0.000000 0.034105 0.000000
# 6 0.000000 0.000000 0.000000 0.066246 0.000000 0.107776
#
#
# Mechanical properties :
#
#
# Convention : Reuss Voigt Hill
#
# Bulk Modulus (GPa) = 36.94071 45.24286 41.09179
# Shear Modulus (GPa) = 17.50191 31.60430 24.55310
#
# Velocity S-wave (km/s) = 2.64668 3.55657 3.13481
# Velocity P-wave (km/s) = 4.91171 5.91384 5.43592
#
# Compressibility (1/GPa) = 0.02707041
#
# Stress axis : x y z
#
# Youngs Moduli (GPa) = 109.91087 56.24068 87.26054
#
# Poissons Ratio (x) = 0.25501 0.21469
# Poissons Ratio (y) = 0.49837 -0.11870
# Poissons Ratio (z) = 0.27041 -0.07651
#
# Static dielectric constant tensor:
#      x y z
#    x 2.127630 0.000000 -0.008170 
#    y 0.000000 2.083280 0.000000 
#    z -0.008170 0.000000 1.984980 
# 
# From -- ./inp_files/62482.got.cif
#   From: 2010.05.17/outbox.cif.g08.bks.cpg/sg15_32_cif.got.tgz:62482.got - 2010.06.03 18:47:42.
