data_PCOD9273081
_publ_section_title
;
Structure prediction by ZEFSAII (Michael W. Deem and Ramdas Pophale) SiO2 
 PCOD9273081
Probable space group: C 2/C
;
_chemical_formula_sum "Si O2"
_cell_formula_units_Z 52
_cell_length_a 28.299183
_cell_length_b 13.865641
_cell_length_c 17.001325
_cell_angle_alpha 90.000000
_cell_angle_beta 18.965251
_cell_angle_gamma 90.000000
_cell_volume 2168.067671
_symmetry_space_group_name_H-M "C 2/C"
_symmetry_group_IT_number 15
_symmetry_cell_setting 'monoclinic'
loop_
_space_group_symop_operation_xyz
x,y,z
-x,y,1/2-z
-x,-y,-z
x,-y,1/2+z
1/2+x,1/2+y,z
1/2-x,1/2+y,1/2-z
1/2-x,1/2-y,-z
1/2+x,1/2-y,1/2+z
loop_
_atom_site_type_symbol
_atom_site_label
_atom_site_fract_x
_atom_site_fract_y
_atom_site_fract_z
Si Si1 0.269944 0.075345 0.829642
Si Si2 0.626496 0.589947 0.704115
Si Si3 0.918581 0.597016 0.176086
Si Si4 0.588273 0.807858 0.986986
Si Si5 0.000000 0.064217 0.750000
Si Si6 0.702771 0.791286 0.965197
Si Si7 0.984256 0.877881 0.594851
O O1 0.417442 0.103110 0.548844
O O2 0.199187 0.175203 0.967190
O O3 0.361272 0.012238 0.749904
O O4 0.142078 0.002211 0.005495
O O5 0.790909 0.626935 0.436062
O O6 0.543101 0.627137 0.757962
O O7 0.582331 0.475573 0.765926
O O8 0.571604 0.607660 0.877178
O O9 0.901829 0.650499 0.116865
O O10 0.434315 0.831508 0.271029
O O11 0.584658 0.691208 0.988347
O O12 0.701539 0.832940 0.877939
O O13 0.847055 0.816358 0.783247
#
# Coordination Sequence:
#
# PCOD9273081 Si02
#       7
#     8   8   8   8   4   8   8
#     4  10  20  37  62  91 120 162 204 254 320 367
#     4  10  24  41  62  92 128 171 211 257 320 388
#     4  10  22  38  64  91 125 164 203 265 321 380
#     4  11  23  40  63  94 126 161 215 269 322 368
#     4  10  20  38  66  90 120 160 212 248 306 392
#     4  11  23  38  63  93 123 166 212 272 310 379
#     4  11  23  41  64  88 127 169 218 260 314 380
#
# _framework density 23.984490000000001
#
# number of rings (size 3 to 8) (size 9 to 14) (size 15 to 20)
#    0.000    1.538    1.538    4.154   10.769    0.615 
#    0.000    0.000    0.000    6.462    0.000    0.000 
#    0.000    0.000    0.000    0.000    0.000    0.000 
#
# Total GULP energy -144936.741128 kJ/mol
# GULP energy per Si atom -5574.490043 kJ/mol
# Density = 2.392990 g / cm^3
# Si number density = 23.984490 Si / 1000 Ang^3
#
#
#
# Elastic Constant Matrix: (Units=GPa)
#
#
# Indices 1 2 3 4 5 6 
#
# 1 84.3143 7.7376 44.8187 0.0005 -1.4752 -0.0005
# 2 7.7376 42.6425 -2.8063 0.0004 9.1950 -0.0004
# 3 44.8187 -2.8063 150.1593 0.0002 10.4657 -0.0003
# 4 0.0005 0.0004 0.0002 17.4155 -0.0003 0.8313
# 5 -1.4752 9.1950 10.4657 -0.0003 40.3923 0.0003
# 6 -0.0005 -0.0004 -0.0003 0.8313 0.0003 22.3153
#
#
#
# Elastic Compliance Matrix: (Units=1/GPa)
#
#
# Indices 1 2 3 4 5 6 
#
# 1 0.014686 -0.003516 -0.004626 0.000000 0.002535 0.000000
# 2 -0.003516 0.025615 0.001979 -0.000001 -0.006472 0.000001
# 3 -0.004626 0.001979 0.008270 0.000000 -0.002762 0.000000
# 4 0.000000 -0.000001 0.000000 0.057522 0.000001 -0.002143
# 5 0.002535 -0.006472 -0.002762 0.000001 0.027039 0.000000
# 6 0.000000 0.000001 0.000000 -0.002143 0.000000 0.044892
#
#
# Mechanical properties :
#
#
# Convention : Reuss Voigt Hill
#
# Bulk Modulus (GPa) = 27.58963 41.84621 34.71792
# Shear Modulus (GPa) = 24.69969 31.18234 27.94102
#
# Velocity S-wave (km/s) = 3.21256 3.60961 3.41686
# Velocity P-wave (km/s) = 5.02880 5.90402 5.48390
#
# Compressibility (1/GPa) = 0.03624550
#
# Stress axis : x y z
#
# Youngs Moduli (GPa) = 68.09020 39.04012 120.92152
#
# Poissons Ratio (x) = 0.13727 0.55937
# Poissons Ratio (y) = 0.23941 -0.23933
# Poissons Ratio (z) = 0.31498 -0.07727
#
# Static dielectric constant tensor:
#      x y z
#    x 1.952100 0.000000 0.032070 
#    y 0.000000 2.028030 0.000000 
#    z 0.032070 0.000000 2.053480 
# 
# From -- ./inp_files/225460.got.cif
#   From: 2010.05.17/outbox.cif.g08.bks.cpg/sg15_113_cif.got.tgz:225460.got - 2010.06.03 18:47:42.
