data_PCOD9273333
_publ_section_title
;
Structure prediction by ZEFSAII (Michael W. Deem and Ramdas Pophale) SiO2 
 PCOD9273333
Probable space group: C 2/C
;
_chemical_formula_sum "Si O2"
_cell_formula_units_Z 48
_cell_length_a 13.387474
_cell_length_b 11.644757
_cell_length_c 17.016941
_cell_angle_alpha 90.000000
_cell_angle_beta 67.334601
_cell_angle_gamma 90.000000
_cell_volume 2447.960959
_symmetry_space_group_name_H-M "C 2/C"
_symmetry_group_IT_number 15
_symmetry_cell_setting 'monoclinic'
loop_
_space_group_symop_operation_xyz
x,y,z
-x,y,1/2-z
-x,-y,-z
x,-y,1/2+z
1/2+x,1/2+y,z
1/2-x,1/2+y,1/2-z
1/2-x,1/2-y,-z
1/2+x,1/2-y,1/2+z
loop_
_atom_site_type_symbol
_atom_site_label
_atom_site_fract_x
_atom_site_fract_y
_atom_site_fract_z
Si Si1 0.155640 0.054318 0.379698
Si Si2 0.703084 0.356762 0.560999
Si Si3 0.035258 0.847591 0.480291
Si Si4 0.592258 0.080312 0.436964
Si Si5 0.380199 0.272974 0.751698
Si Si6 0.118794 0.491307 0.253464
O O1 0.132367 0.135060 0.312500
O O2 0.284903 0.033325 0.334044
O O3 0.090902 0.120358 0.469395
O O4 0.096382 0.929780 0.399515
O O5 0.750000 0.250000 0.500000
O O6 0.595569 0.383283 0.544584
O O7 0.800658 0.445052 0.542494
O O8 0.687487 0.312414 0.653358
O O9 0.056295 0.713612 0.458786
O O10 0.614249 0.055226 0.338590
O O11 0.500000 0.000000 0.500000
O O12 0.500000 0.272294 0.750000
O O13 0.356231 0.142495 0.735255
O O14 0.000000 0.499162 0.250000
#
# Coordination Sequence:
#
# PCOD9273333 Si02
#       6
#     8   8   8   8   8   8
#     4  11  22  41  67  90 129 166 211 266 320 376
#     4  10  20  37  64  94 120 157 218 266 299 371
#     4  10  23  41  67  93 126 169 215 264 323 379
#     4  11  23  39  63  96 130 164 212 261 320 378
#     4  11  21  40  67  95 116 164 221 257 312 376
#     4  11  25  39  64  94 130 165 211 265 316 377
#
# _framework density 19.608153999999999
#
# number of rings (size 3 to 8) (size 9 to 14) (size 15 to 20)
#    0.000    1.333    3.333    3.000    9.333    0.000 
#    0.000    1.667    7.333    0.000    0.000    0.000 
#    0.000    0.000    0.000    0.000    0.000    0.000 
#
# Total GULP energy -133696.749431 kJ/mol
# GULP energy per Si atom -5570.697893 kJ/mol
# Density = 1.956353 g / cm^3
# Si number density = 19.608154 Si / 1000 Ang^3
#
#
#
# Elastic Constant Matrix: (Units=GPa)
#
#
# Indices 1 2 3 4 5 6 
#
# 1 95.1773 45.6532 47.8880 0.0000 -24.1909 0.0000
# 2 45.6532 123.4806 46.0818 0.0000 -3.2742 0.0000
# 3 47.8880 46.0818 110.6816 0.0000 -21.3978 0.0000
# 4 0.0000 0.0000 0.0000 38.6881 0.0000 4.9895
# 5 -24.1909 -3.2742 -21.3978 0.0000 40.8226 0.0000
# 6 0.0000 0.0000 0.0000 4.9895 0.0000 10.3227
#
#
#
# Elastic Compliance Matrix: (Units=1/GPa)
#
#
# Indices 1 2 3 4 5 6 
#
# 1 0.016449 -0.004454 -0.003836 0.000000 0.007380 0.000000
# 2 -0.004454 0.010875 -0.003274 0.000000 -0.003483 0.000000
# 3 -0.003836 -0.003274 0.012872 0.000000 0.004211 0.000000
# 4 0.000000 0.000000 0.000000 0.027566 0.000000 -0.013324
# 5 0.007380 -0.003483 0.004211 0.000000 0.030797 0.000000
# 6 0.000000 0.000000 0.000000 -0.013324 0.000000 0.103314
#
#
# Mechanical properties :
#
#
# Convention : Reuss Voigt Hill
#
# Bulk Modulus (GPa) = 58.59044 67.62060 63.10552
# Shear Modulus (GPa) = 21.67416 30.61444 26.14430
#
# Velocity S-wave (km/s) = 3.32831 3.95563 3.65545
# Velocity P-wave (km/s) = 6.68698 7.44470 7.07599
#
# Compressibility (1/GPa) = 0.01706763
#
# Stress axis : x y z
#
# Youngs Moduli (GPa) = 60.79473 91.95661 77.68997
#
# Poissons Ratio (x) = 0.40961 0.29799
# Poissons Ratio (y) = 0.27080 0.25434
# Poissons Ratio (z) = 0.23318 0.30105
#
# Static dielectric constant tensor:
#      x y z
#    x 1.873770 0.000000 -0.167870 
#    y 0.000000 1.687020 0.000000 
#    z -0.167870 0.000000 1.895140 
# 
# From -- ./inp_files/152438.got.cif
#   From: 2010.05.17/outbox.cif.g08.bks.cpg/sg15_77_cif.got.tgz:152438.got - 2010.06.03 18:47:42.
