data_PCOD9273838
_publ_section_title
;
Structure prediction by ZEFSAII (Michael W. Deem and Ramdas Pophale) SiO2 
 PCOD9273838
Probable space group: C 2/C
;
_chemical_formula_sum "Si O2"
_cell_formula_units_Z 60
_cell_length_a 10.992781
_cell_length_b 19.433830
_cell_length_c 20.651820
_cell_angle_alpha 90.000000
_cell_angle_beta 132.018306
_cell_angle_gamma 90.000000
_cell_volume 3277.727063
_symmetry_space_group_name_H-M "C 2/C"
_symmetry_group_IT_number 15
_symmetry_cell_setting 'monoclinic'
loop_
_space_group_symop_operation_xyz
x,y,z
-x,y,1/2-z
-x,-y,-z
x,-y,1/2+z
1/2+x,1/2+y,z
1/2-x,1/2+y,1/2-z
1/2-x,1/2-y,-z
1/2+x,1/2-y,1/2+z
loop_
_atom_site_type_symbol
_atom_site_label
_atom_site_fract_x
_atom_site_fract_y
_atom_site_fract_z
Si Si1 0.500000 0.646896 0.750000
Si Si2 0.339458 0.379712 0.730587
Si Si3 0.743893 0.771242 0.072913
Si Si4 0.931112 0.479858 0.075938
Si Si5 0.982949 0.610823 0.468669
Si Si6 0.301287 0.143797 0.180386
Si Si7 0.701820 0.534654 0.745226
Si Si8 0.821474 0.993733 0.406862
O O1 0.596896 0.691627 0.838214
O O2 0.628153 0.596356 0.760481
O O3 0.500000 0.353442 0.750000
O O4 0.183304 0.372957 0.628298
O O5 0.278786 0.347906 0.777010
O O6 0.370901 0.460590 0.759080
O O7 0.727598 0.701792 0.108069
O O8 0.750000 0.750000 0.000000
O O9 0.594316 0.824480 0.024959
O O10 0.793851 0.463172 0.078942
O O11 0.917172 0.557018 0.041506
O O12 0.106204 0.474154 0.172814
O O13 0.934243 0.429934 0.015838
O O14 0.500000 0.148688 0.250000
O O15 0.253339 0.068255 0.138008
O O16 0.672381 0.545912 0.658877
O O17 0.000000 0.000000 0.500000
#
# Coordination Sequence:
#
# PCOD9273838 Si02
#       8
#     4   8   8   8   8   8   8   8
#     4  12  24  40  66 100 126 160 224 266 324 382
#     4  10  21  39  66  91 125 168 209 264 332 385
#     4  12  25  42  66  94 131 173 220 270 313 390
#     4  10  20  38  59  92 130 164 204 268 327 374
#     4  10  22  36  65  91 126 166 212 264 323 380
#     4  11  23  44  64  91 128 172 216 257 322 391
#     4  10  21  38  61  92 127 160 205 271 324 377
#     4  11  24  35  64  94 127 162 212 268 324 381
#
# _framework density 18.305368999999999
#
# number of rings (size 3 to 8) (size 9 to 14) (size 15 to 20)
#    0.000    1.333    2.667    4.400    7.467    0.000 
#    0.000    0.667    2.933    0.000    0.000    0.000 
#    0.000    0.000    0.000    0.000    0.000    0.000 
#
# Total GULP energy -167516.485144 kJ/mol
# GULP energy per Si atom -5583.882838 kJ/mol
# Density = 1.826370 g / cm^3
# Si number density = 18.305369 Si / 1000 Ang^3
#
#
#
# Elastic Constant Matrix: (Units=GPa)
#
#
# Indices 1 2 3 4 5 6 
#
# 1 132.1730 17.2791 54.9575 0.0000 -9.6401 0.0000
# 2 17.2791 50.8540 22.7685 0.0000 -3.5673 0.0000
# 3 54.9575 22.7685 106.0098 0.0000 -27.2094 0.0000
# 4 0.0000 0.0000 0.0000 35.0658 0.0000 -3.3412
# 5 -9.6401 -3.5673 -27.2094 0.0000 24.3830 0.0000
# 6 0.0000 0.0000 0.0000 -3.3412 0.0000 14.5672
#
#
#
# Elastic Compliance Matrix: (Units=1/GPa)
#
#
# Indices 1 2 3 4 5 6 
#
# 1 0.009803 -0.001050 -0.005467 0.000000 -0.002379 0.000000
# 2 -0.001050 0.022011 -0.004853 0.000000 -0.002611 0.000000
# 3 -0.005467 -0.004853 0.017619 0.000000 0.016790 0.000000
# 4 0.000000 0.000000 0.000000 0.029155 0.000000 0.006687
# 5 -0.002379 -0.002611 0.016790 0.000000 0.058426 0.000000
# 6 0.000000 0.000000 0.000000 0.006687 0.000000 0.070181
#
#
# Mechanical properties :
#
#
# Convention : Reuss Voigt Hill
#
# Bulk Modulus (GPa) = 37.46388 53.22745 45.34566
# Shear Modulus (GPa) = 20.93521 27.73864 24.33693
#
# Velocity S-wave (km/s) = 3.38548 3.89694 3.65018
# Velocity P-wave (km/s) = 5.98268 7.02772 6.52615
#
# Compressibility (1/GPa) = 0.02669238
#
# Stress axis : x y z
#
# Youngs Moduli (GPa) = 102.01195 45.43264 56.75677
#
# Poissons Ratio (x) = 0.04770 0.31029
# Poissons Ratio (y) = 0.10711 0.27545
# Poissons Ratio (z) = 0.55769 0.22049
#
# Static dielectric constant tensor:
#      x y z
#    x 1.570420 0.000000 0.013270 
#    y 0.000000 1.624900 0.000000 
#    z 0.013270 0.000000 1.611540 
# 
# From -- ./inp_files/234091.got.cif
#   From: 2010.05.17/outbox.cif.g08.bks.cpg/sg15_118_cif.got.tgz:234091.got - 2010.06.03 18:47:42.
