data_PCOD9273499
_publ_section_title
;
Structure prediction by ZEFSAII (Michael W. Deem and Ramdas Pophale) SiO2 
 PCOD9273499
Probable space group: C 2/C
;
_chemical_formula_sum "Si O2"
_cell_formula_units_Z 40
_cell_length_a 20.803525
_cell_length_b 10.502335
_cell_length_c 9.443791
_cell_angle_alpha 90.000000
_cell_angle_beta 46.031966
_cell_angle_gamma 90.000000
_cell_volume 1485.036429
_symmetry_space_group_name_H-M "C 2/C"
_symmetry_group_IT_number 15
_symmetry_cell_setting 'monoclinic'
loop_
_space_group_symop_operation_xyz
x,y,z
-x,y,1/2-z
-x,-y,-z
x,-y,1/2+z
1/2+x,1/2+y,z
1/2-x,1/2+y,1/2-z
1/2-x,1/2-y,-z
1/2+x,1/2-y,1/2+z
loop_
_atom_site_type_symbol
_atom_site_label
_atom_site_fract_x
_atom_site_fract_y
_atom_site_fract_z
Si Si1 0.177641 0.786047 0.955382
Si Si2 0.671795 0.995812 0.479687
Si Si3 0.700722 0.553953 0.981506
Si Si4 0.385241 0.233084 0.048407
Si Si5 0.983093 0.133929 0.946853
O O1 0.144462 0.648042 0.059596
O O2 0.283651 0.774721 0.765641
O O3 0.166810 0.911340 0.070928
O O4 0.120819 0.821987 0.901950
O O5 0.744139 0.969707 0.246488
O O6 0.723270 0.076768 0.520102
O O7 0.598159 0.091649 0.534649
O O8 0.626151 0.656748 0.054747
O O9 0.458508 0.270845 0.049775
O O10 0.000000 0.132996 0.750000
O O11 0.000000 0.000000 0.000000
#
# Coordination Sequence:
#
# PCOD9273499 Si02
#       5
#     8   8   8   8   8
#     4  10  23  41  71  97 141 179 232 277 353 407
#     4  10  22  37  66  97 133 179 229 275 342 408
#     4  10  20  37  66  97 131 181 226 273 344 411
#     4  10  23  43  68 103 140 182 227 290 348 410
#     4  12  28  46  73 106 139 185 238 288 349 424
#
# _framework density 26.935368
#
# number of rings (size 3 to 8) (size 9 to 14) (size 15 to 20)
#    0.000    1.600    2.000    1.200   11.200    0.800 
#    7.200    0.000    0.000    0.000    0.000    0.000 
#    0.000    0.000    0.000    0.000    0.000    0.000 
#
# Total GULP energy -111796.925594 kJ/mol
# GULP energy per Si atom -5589.846280 kJ/mol
# Density = 2.687406 g / cm^3
# Si number density = 26.935368 Si / 1000 Ang^3
#
#
#
# Elastic Constant Matrix: (Units=GPa)
#
#
# Indices 1 2 3 4 5 6 
#
# 1 227.1940 53.9340 28.1527 0.0000 -5.5190 0.0000
# 2 53.9340 190.0270 15.3918 0.0000 1.0600 0.0000
# 3 28.1527 15.3918 56.7519 0.0000 -0.3909 0.0000
# 4 0.0000 0.0000 0.0000 18.6030 0.0000 4.2737
# 5 -5.5190 1.0600 -0.3909 0.0000 40.6340 0.0000
# 6 0.0000 0.0000 0.0000 4.2737 0.0000 65.5882
#
#
#
# Elastic Compliance Matrix: (Units=1/GPa)
#
#
# Indices 1 2 3 4 5 6 
#
# 1 0.004977 -0.001244 -0.002127 0.000000 0.000688 0.000000
# 2 -0.001244 0.005693 -0.000929 0.000000 -0.000326 0.000000
# 3 -0.002127 -0.000929 0.018927 0.000000 -0.000083 0.000000
# 4 0.000000 0.000000 0.000000 0.054572 0.000000 -0.003556
# 5 0.000688 -0.000326 -0.000083 0.000000 0.024711 0.000000
# 6 0.000000 0.000000 0.000000 -0.003556 0.000000 0.015478
#
#
# Mechanical properties :
#
#
# Convention : Reuss Voigt Hill
#
# Bulk Modulus (GPa) = 47.62630 74.32554 60.97592
# Shear Modulus (GPa) = 35.72537 50.06467 42.89502
#
# Velocity S-wave (km/s) = 3.64584 4.31594 3.99496
# Velocity P-wave (km/s) = 5.95340 7.24502 6.63074
#
# Compressibility (1/GPa) = 0.02099680
#
# Stress axis : x y z
#
# Youngs Moduli (GPa) = 200.91843 175.66654 52.83467
#
# Poissons Ratio (x) = 0.21856 0.11237
# Poissons Ratio (y) = 0.24998 0.04908
# Poissons Ratio (z) = 0.42732 0.16318
#
# Static dielectric constant tensor:
#      x y z
#    x 2.094080 0.000000 -0.042860 
#    y 0.000000 2.237210 0.000000 
#    z -0.042860 0.000000 2.535400 
# 
# From -- ./inp_files/103576.got.cif
#   From: 2010.05.17/outbox.cif.g08.bks.cpg/sg15_52_cif.got.tgz:103576.got - 2010.06.03 18:47:42.
