data_PCOD9273582
_publ_section_title
;
Structure prediction by ZEFSAII (Michael W. Deem and Ramdas Pophale) SiO2 
 PCOD9273582
Probable space group: C 2/C
;
_chemical_formula_sum "Si O2"
_cell_formula_units_Z 40
_cell_length_a 18.234931
_cell_length_b 12.375374
_cell_length_c 21.389212
_cell_angle_alpha 90.000000
_cell_angle_beta 160.252420
_cell_angle_gamma 90.000000
_cell_volume 1630.856793
_symmetry_space_group_name_H-M "C 2/C"
_symmetry_group_IT_number 15
_symmetry_cell_setting 'monoclinic'
loop_
_space_group_symop_operation_xyz
x,y,z
-x,y,1/2-z
-x,-y,-z
x,-y,1/2+z
1/2+x,1/2+y,z
1/2-x,1/2+y,1/2-z
1/2-x,1/2-y,-z
1/2+x,1/2-y,1/2+z
loop_
_atom_site_type_symbol
_atom_site_label
_atom_site_fract_x
_atom_site_fract_y
_atom_site_fract_z
Si Si1 0.146185 0.108822 0.600916
Si Si2 0.531421 0.599882 0.376498
Si Si3 0.062870 0.142598 0.951480
Si Si4 0.655699 0.921621 0.482099
Si Si5 0.030633 0.350928 0.848735
O O1 0.048434 0.154089 0.457785
O O2 0.401349 0.096065 0.789541
O O3 0.122753 0.170394 0.647650
O O4 0.000000 0.000000 0.500000
O O5 0.530271 0.471888 0.392119
O O6 0.740268 0.619519 0.499719
O O7 0.314839 0.620982 0.163575
O O8 0.094359 0.234657 0.925098
O O9 0.280319 0.138234 0.167337
O O10 0.672093 0.052836 0.490386
O O11 0.000000 0.366927 0.750000
#
# Coordination Sequence:
#
# PCOD9273582 Si02
#       5
#     8   8   8   8   8
#     4  10  20  38  52  81 120 152 187 237 280 334
#     4  10  21  35  58  85 109 151 192 234 281 334
#     4  11  23  34  53  83 121 154 187 228 285 341
#     4  11  20  36  62  85 114 148 195 232 285 344
#     4  12  21  36  55  84 124 156 186 231 278 350
#
# _framework density 24.526983999999999
#
# number of rings (size 3 to 8) (size 9 to 14) (size 15 to 20)
#    0.000    1.200    6.000    2.400    2.800    3.200 
#    3.600    0.000    0.000    0.000    0.000    5.600 
#    0.000    0.000    0.000    0.000    0.000    0.000 
#
# Total GULP energy -111678.629074 kJ/mol
# GULP energy per Si atom -5583.931454 kJ/mol
# Density = 2.447116 g / cm^3
# Si number density = 24.526984 Si / 1000 Ang^3
#
#
#
# Elastic Constant Matrix: (Units=GPa)
#
#
# Indices 1 2 3 4 5 6 
#
# 1 184.7094 17.3321 58.3633 0.0010 8.1493 0.0017
# 2 17.3321 74.4995 3.7848 0.0380 -5.8673 0.0034
# 3 58.3633 3.7848 116.2343 0.0603 11.9883 0.0102
# 4 0.0010 0.0380 0.0603 12.4660 0.0052 6.6342
# 5 8.1493 -5.8673 11.9883 0.0052 37.6018 -0.0024
# 6 0.0017 0.0034 0.0102 6.6342 -0.0024 19.4429
#
#
#
# Elastic Compliance Matrix: (Units=1/GPa)
#
#
# Indices 1 2 3 4 5 6 
#
# 1 0.006584 -0.001419 -0.003195 0.000023 -0.000630 -0.000007
# 2 -0.001419 0.013949 0.000002 -0.000052 0.002483 0.000016
# 3 -0.003195 0.000002 0.010481 -0.000057 -0.002649 0.000014
# 4 0.000023 -0.000052 -0.000057 0.098018 -0.000011 -0.033445
# 5 -0.000630 0.002483 -0.002649 -0.000011 0.027963 0.000008
# 6 -0.000007 0.000016 0.000014 -0.033445 0.000008 0.062844
#
#
# Mechanical properties :
#
#
# Convention : Reuss Voigt Hill
#
# Bulk Modulus (GPa) = 45.89268 59.37819 52.63544
# Shear Modulus (GPa) = 21.15724 33.63300 27.39512
#
# Velocity S-wave (km/s) = 2.94021 3.70708 3.34569
# Velocity P-wave (km/s) = 5.50256 6.52573 6.03586
#
# Compressibility (1/GPa) = 0.02178997
#
# Stress axis : x y z
#
# Youngs Moduli (GPa) = 151.87435 71.69201 95.41343
#
# Poissons Ratio (x) = 0.10174 0.30484
# Poissons Ratio (y) = 0.21553 -0.00022
# Poissons Ratio (z) = 0.48524 -0.00016
#
# Static dielectric constant tensor:
#      x y z
#    x 2.022370 -0.000020 0.100270 
#    y -0.000020 2.086460 -0.000030 
#    z 0.100270 -0.000030 1.968160 
# 
# From -- ./inp_files/215678.got.cif
#   From: 2010.05.17/outbox.cif.g08.bks.cpg/sg15_108_cif.got.tgz:215678.got - 2010.06.03 18:47:42.
