data_PCOD9273028
_publ_section_title
;
Structure prediction by ZEFSAII (Michael W. Deem and Ramdas Pophale) SiO2 
 PCOD9273028
Probable space group: C 2/C
;
_chemical_formula_sum "Si O2"
_cell_formula_units_Z 60
_cell_length_a 12.192590
_cell_length_b 18.591017
_cell_length_c 15.523712
_cell_angle_alpha 90.000000
_cell_angle_beta 46.413294
_cell_angle_gamma 90.000000
_cell_volume 2548.779570
_symmetry_space_group_name_H-M "C 2/C"
_symmetry_group_IT_number 15
_symmetry_cell_setting 'monoclinic'
loop_
_space_group_symop_operation_xyz
x,y,z
-x,y,1/2-z
-x,-y,-z
x,-y,1/2+z
1/2+x,1/2+y,z
1/2-x,1/2+y,1/2-z
1/2-x,1/2-y,-z
1/2+x,1/2-y,1/2+z
loop_
_atom_site_type_symbol
_atom_site_label
_atom_site_fract_x
_atom_site_fract_y
_atom_site_fract_z
Si Si1 0.124791 0.204945 0.405398
Si Si2 0.831970 0.483869 0.837478
Si Si3 0.380183 0.867885 0.665707
Si Si4 0.608995 0.826091 0.012071
Si Si5 0.830727 0.301154 0.341134
Si Si6 0.780586 0.346557 0.985009
Si Si7 0.500000 0.386157 0.250000
Si Si8 0.116586 0.902515 0.378353
O O1 0.240236 0.182199 0.268383
O O2 0.222732 0.205009 0.439810
O O3 0.039556 0.276588 0.421558
O O4 0.005066 0.141949 0.497646
O O5 0.860309 0.433447 0.739539
O O6 0.793922 0.428169 0.935737
O O7 0.685953 0.530488 0.891962
O O8 0.000000 0.520258 0.750000
O O9 0.383399 0.887081 0.563703
O O10 0.542625 0.830606 0.593509
O O11 0.730410 0.766260 0.919242
O O12 0.656190 0.851475 0.080335
O O13 0.758691 0.347000 0.304050
O O14 0.000000 0.273078 0.250000
O O15 0.654561 0.349453 0.128726
O O16 0.559937 0.417781 0.311246
#
# Coordination Sequence:
#
# PCOD9273028 Si02
#       8
#     8   8   8   8   8   8   4   8
#     4   9  19  37  60  88 123 161 204 248 308 360
#     4   9  19  40  65  89 121 162 201 253 314 364
#     4  10  20  37  62  88 126 161 203 252 299 368
#     4  10  21  36  58  92 121 159 206 253 298 366
#     4  10  21  37  60  86 124 163 201 250 308 360
#     4   9  20  38  59  86 125 161 203 253 307 359
#     4  10  22  38  58  90 120 152 206 256 292 374
#     4  10  21  39  64  87 122 162 203 254 310 361
#
# _framework density 23.540679000000001
#
# number of rings (size 3 to 8) (size 9 to 14) (size 15 to 20)
#    0.000    2.400    0.000    2.400    1.867    5.333 
#    4.800    1.333   24.933    0.000    0.000    0.000 
#    0.000    0.000    0.000    0.000    0.000    0.000 
#
# Total GULP energy -167079.747516 kJ/mol
# GULP energy per Si atom -5569.324917 kJ/mol
# Density = 2.348710 g / cm^3
# Si number density = 23.540679 Si / 1000 Ang^3
#
#
#
# Elastic Constant Matrix: (Units=GPa)
#
#
# Indices 1 2 3 4 5 6 
#
# 1 117.6825 9.6800 53.4421 -0.0001 -10.1367 0.0001
# 2 9.6800 31.3613 28.7629 -0.0001 -11.6739 0.0001
# 3 53.4421 28.7629 138.6026 -0.0001 -8.2681 0.0002
# 4 -0.0001 -0.0001 -0.0001 20.1339 0.0001 -11.2176
# 5 -10.1367 -11.6739 -8.2681 0.0001 46.3006 -0.0001
# 6 0.0001 0.0001 0.0002 -11.2176 -0.0001 14.8821
#
#
#
# Elastic Compliance Matrix: (Units=1/GPa)
#
#
# Indices 1 2 3 4 5 6 
#
# 1 0.010454 0.001315 -0.004192 0.000000 0.001872 0.000000
# 2 0.001315 0.043217 -0.008903 0.000000 0.009594 0.000000
# 3 -0.004192 -0.008903 0.010603 0.000000 -0.001269 0.000000
# 4 0.000000 0.000000 0.000000 0.085628 0.000000 0.064543
# 5 0.001872 0.009594 -0.001269 0.000000 0.024200 0.000000
# 6 0.000000 0.000000 0.000000 0.064543 0.000000 0.115845
#
#
# Mechanical properties :
#
#
# Convention : Reuss Voigt Hill
#
# Bulk Modulus (GPa) = 24.56172 52.37961 38.47066
# Shear Modulus (GPa) = 15.28678 29.31408 22.30043
#
# Velocity S-wave (km/s) = 2.55105 3.53264 3.08119
# Velocity P-wave (km/s) = 4.37419 6.24006 5.38850
#
# Compressibility (1/GPa) = 0.04071376
#
# Stress axis : x y z
#
# Youngs Moduli (GPa) = 95.65502 23.13879 94.31189
#
# Poissons Ratio (x) = -0.03042 0.39536
# Poissons Ratio (y) = -0.12575 0.83967
# Poissons Ratio (z) = 0.40099 0.20601
#
# Static dielectric constant tensor:
#      x y z
#    x 1.987990 0.000000 -0.011840 
#    y 0.000000 1.951460 0.000000 
#    z -0.011840 0.000000 2.018180 
# 
# From -- ./inp_files/148083.got.cif
#   From: 2010.05.17/outbox.cif.g08.bks.cpg/sg15_75_cif.got.tgz:148083.got - 2010.06.03 18:47:42.
