data_PCOD9273304
_publ_section_title
;
Structure prediction by ZEFSAII (Michael W. Deem and Ramdas Pophale) SiO2 
 PCOD9273304
Probable space group: C 2/C
;
_chemical_formula_sum "Si O2"
_cell_formula_units_Z 48
_cell_length_a 12.257473
_cell_length_b 14.025454
_cell_length_c 14.335196
_cell_angle_alpha 90.000000
_cell_angle_beta 98.167899
_cell_angle_gamma 90.000000
_cell_volume 2439.458995
_symmetry_space_group_name_H-M "C 2/C"
_symmetry_group_IT_number 15
_symmetry_cell_setting 'monoclinic'
loop_
_space_group_symop_operation_xyz
x,y,z
-x,y,1/2-z
-x,-y,-z
x,-y,1/2+z
1/2+x,1/2+y,z
1/2-x,1/2+y,1/2-z
1/2-x,1/2-y,-z
1/2+x,1/2-y,1/2+z
loop_
_atom_site_type_symbol
_atom_site_label
_atom_site_fract_x
_atom_site_fract_y
_atom_site_fract_z
Si Si1 0.064325 0.758053 0.852909
Si Si2 0.033992 0.349871 0.982098
Si Si3 0.179041 0.477020 0.558868
Si Si4 0.408240 0.526198 0.155290
Si Si5 0.507656 0.327196 0.362898
Si Si6 0.768628 0.166557 0.925513
O O1 0.077145 0.868412 0.885777
O O2 0.175881 0.700988 0.842674
O O3 0.000000 0.760963 0.750000
O O4 0.006268 0.701034 0.928270
O O5 0.063217 0.266370 0.913637
O O6 0.927754 0.410711 0.932066
O O7 0.130002 0.422054 0.022166
O O8 0.274347 0.478816 0.649715
O O9 0.236148 0.429710 0.474540
O O10 0.500000 0.524270 0.250000
O O11 0.435013 0.427929 0.105610
O O12 0.500000 0.318583 0.250000
O O13 0.385909 0.331803 0.392141
O O14 0.750000 0.250000 0.000000
#
# Coordination Sequence:
#
# PCOD9273304 Si02
#       6
#     8   8   8   8   8   8
#     4  10  20  37  64  91 118 165 209 249 300 376
#     4  10  21  40  64  90 123 161 206 259 305 364
#     4  10  20  39  64  88 120 164 210 245 309 372
#     4  10  21  36  56  90 125 161 204 253 303 375
#     4  11  23  39  61  92 126 160 203 257 312 363
#     4  11  19  41  66  82 117 173 200 245 309 377
#
# _framework density 19.676494000000002
#
# number of rings (size 3 to 8) (size 9 to 14) (size 15 to 20)
#    0.000    1.667    5.000    0.000    0.000    6.000 
#    0.000   15.833    0.000    0.000    0.000    0.000 
#    0.000    0.000    0.000    0.000    0.000    0.000 
#
# Total GULP energy -133656.377138 kJ/mol
# GULP energy per Si atom -5569.015714 kJ/mol
# Density = 1.963171 g / cm^3
# Si number density = 19.676494 Si / 1000 Ang^3
#
#
#
# Elastic Constant Matrix: (Units=GPa)
#
#
# Indices 1 2 3 4 5 6 
#
# 1 85.0288 46.4304 34.9325 0.0000 16.8833 0.0000
# 2 46.4304 154.0878 29.4817 0.0000 10.5707 0.0000
# 3 34.9325 29.4817 50.9820 0.0000 13.3118 0.0000
# 4 0.0000 0.0000 0.0000 50.1668 0.0000 -24.6170
# 5 16.8833 10.5707 13.3118 0.0000 35.6617 0.0000
# 6 0.0000 0.0000 0.0000 -24.6170 0.0000 70.6298
#
#
#
# Elastic Compliance Matrix: (Units=1/GPa)
#
#
# Indices 1 2 3 4 5 6 
#
# 1 0.018364 -0.003429 -0.009524 0.000000 -0.004123 0.000000
# 2 -0.003429 0.007951 -0.002279 0.000000 0.000117 0.000000
# 3 -0.009524 -0.002279 0.028924 0.000000 -0.005612 0.000000
# 4 0.000000 0.000000 0.000000 0.024046 0.000000 0.008381
# 5 -0.004123 0.000117 -0.005612 0.000000 0.032053 0.000000
# 6 0.000000 0.000000 0.000000 0.008381 0.000000 0.017079
#
#
# Mechanical properties :
#
#
# Convention : Reuss Voigt Hill
#
# Bulk Modulus (GPa) = 40.36210 56.86531 48.61370
# Shear Modulus (GPa) = 29.91512 43.24195 36.57854
#
# Velocity S-wave (km/s) = 3.90339 4.69299 4.31629
# Velocity P-wave (km/s) = 6.39318 7.63730 7.04277
#
# Compressibility (1/GPa) = 0.02477572
#
# Stress axis : x y z
#
# Youngs Moduli (GPa) = 54.45371 125.77105 34.57356
#
# Poissons Ratio (x) = 0.43121 0.32927
# Poissons Ratio (y) = 0.18670 0.07880
# Poissons Ratio (z) = 0.51861 0.28666
#
# Static dielectric constant tensor:
#      x y z
#    x 1.760780 0.000000 0.092250 
#    y 0.000000 1.717910 0.000000 
#    z 0.092250 0.000000 1.735560 
# 
# From -- ./inp_files/143761.got.cif
#   From: 2010.05.17/outbox.cif.g08.bks.cpg/sg15_72_cif.got.tgz:143761.got - 2010.06.03 18:47:42.
