data_PCOD9273897
_publ_section_title
;
Structure prediction by ZEFSAII (Michael W. Deem and Ramdas Pophale) SiO2 
 PCOD9273897
Probable space group: C 2/C
;
_chemical_formula_sum "Si O2"
_cell_formula_units_Z 32
_cell_length_a 11.331888
_cell_length_b 14.874250
_cell_length_c 9.169581
_cell_angle_alpha 90.000000
_cell_angle_beta 99.828142
_cell_angle_gamma 90.000000
_cell_volume 1522.881044
_symmetry_space_group_name_H-M "C 2/C"
_symmetry_group_IT_number 15
_symmetry_cell_setting 'monoclinic'
loop_
_space_group_symop_operation_xyz
x,y,z
-x,y,1/2-z
-x,-y,-z
x,-y,1/2+z
1/2+x,1/2+y,z
1/2-x,1/2+y,1/2-z
1/2-x,1/2-y,-z
1/2+x,1/2-y,1/2+z
loop_
_atom_site_type_symbol
_atom_site_label
_atom_site_fract_x
_atom_site_fract_y
_atom_site_fract_z
Si Si1 0.127720 0.437865 0.859629
Si Si2 0.795252 0.396196 0.929176
Si Si3 0.025581 0.906374 0.925104
Si Si4 0.514779 0.766354 0.924158
O O1 0.217317 0.425166 0.743448
O O2 0.000000 0.450135 0.750000
O O3 0.113116 0.345732 0.946820
O O4 0.152652 0.520497 0.968577
O O5 0.665487 0.379580 0.967955
O O6 0.891858 0.315702 0.950102
O O7 0.000000 0.916444 0.750000
O O8 0.956287 0.822010 0.979595
O O9 0.000000 0.000000 0.000000
O O10 0.500000 0.742263 0.750000
#
# Coordination Sequence:
#
# PCOD9273897 Si02
#       4
#     8   8   8   8
#     4   9  18  35  62  91 113 139 184 240 286 331
#     4  10  20  38  60  86 115 149 186 231 282 335
#     4  12  25  40  56  81 117 157 192 228 276 336
#     4   9  20  39  60  84 113 143 186 241 285 330
#
# _framework density 21.012803999999999
#
# number of rings (size 3 to 8) (size 9 to 14) (size 15 to 20)
#    0.000    2.500    0.000    6.000    0.000    3.000 
#    0.000   13.750    0.000    0.000    0.000    0.000 
#    0.000    0.000    0.000    0.000    0.000    0.000 
#
# Total GULP energy -89343.403714 kJ/mol
# GULP energy per Si atom -5583.962732 kJ/mol
# Density = 2.096498 g / cm^3
# Si number density = 21.012804 Si / 1000 Ang^3
#
#
#
# Elastic Constant Matrix: (Units=GPa)
#
#
# Indices 1 2 3 4 5 6 
#
# 1 44.2254 15.9632 1.8681 0.0000 -15.4057 0.0000
# 2 15.9632 177.6957 99.1210 0.0000 -6.1953 0.0000
# 3 1.8681 99.1210 87.7810 0.0000 -6.0806 0.0000
# 4 0.0000 0.0000 0.0000 40.0070 0.0000 -1.9001
# 5 -15.4057 -6.1953 -6.0806 0.0000 21.0855 0.0000
# 6 0.0000 0.0000 0.0000 -1.9001 0.0000 12.0619
#
#
#
# Elastic Compliance Matrix: (Units=1/GPa)
#
#
# Indices 1 2 3 4 5 6 
#
# 1 0.033601 -0.007334 0.009303 0.000000 0.025078 0.000000
# 2 -0.007334 0.016810 -0.019239 0.000000 -0.005967 0.000000
# 3 0.009303 -0.019239 0.033670 0.000000 0.010854 0.000000
# 4 0.000000 0.000000 0.000000 0.025184 0.000000 0.003967
# 5 0.025078 -0.005967 0.010854 0.000000 0.067126 0.000000
# 6 0.000000 0.000000 0.000000 0.003967 0.000000 0.083531
#
#
# Mechanical properties :
#
#
# Convention : Reuss Voigt Hill
#
# Bulk Modulus (GPa) = 20.18453 60.40074 40.29264
# Shear Modulus (GPa) = 16.07841 27.48086 21.77963
#
# Velocity S-wave (km/s) = 2.76917 3.62030 3.22295
# Velocity P-wave (km/s) = 4.45546 6.80313 5.75038
#
# Compressibility (1/GPa) = 0.04954288
#
# Stress axis : x y z
#
# Youngs Moduli (GPa) = 29.76058 59.48767 29.69967
#
# Poissons Ratio (x) = 0.43626 -0.27630
# Poissons Ratio (y) = 0.21825 0.57140
# Poissons Ratio (z) = -0.27687 1.14449
#
# Static dielectric constant tensor:
#      x y z
#    x 1.807440 0.000000 -0.027470 
#    y 0.000000 1.722380 0.000000 
#    z -0.027470 0.000000 1.726290 
# 
# From -- ./inp_files/27624.got.cif
#   From: 2010.05.17/outbox.cif.g08.bks.cpg/sg15_14_cif.got.tgz:27624.got - 2010.06.03 18:47:42.
