data_PCOD9273156
_publ_section_title
;
Structure prediction by ZEFSAII (Michael W. Deem and Ramdas Pophale) SiO2 
 PCOD9273156
Probable space group: C 2/C
;
_chemical_formula_sum "Si O2"
_cell_formula_units_Z 52
_cell_length_a 25.849065
_cell_length_b 21.350556
_cell_length_c 12.780889
_cell_angle_alpha 90.000000
_cell_angle_beta 157.682096
_cell_angle_gamma 90.000000
_cell_volume 2678.597417
_symmetry_space_group_name_H-M "C 2/C"
_symmetry_group_IT_number 15
_symmetry_cell_setting 'monoclinic'
loop_
_space_group_symop_operation_xyz
x,y,z
-x,y,1/2-z
-x,-y,-z
x,-y,1/2+z
1/2+x,1/2+y,z
1/2-x,1/2+y,1/2-z
1/2-x,1/2-y,-z
1/2+x,1/2-y,1/2+z
loop_
_atom_site_type_symbol
_atom_site_label
_atom_site_fract_x
_atom_site_fract_y
_atom_site_fract_z
Si Si1 0.900645 0.081869 0.822673
Si Si2 0.007928 0.561608 0.586306
Si Si3 0.000000 0.482622 0.750000
Si Si4 0.683691 0.825448 0.824205
Si Si5 0.147560 0.265125 0.977480
Si Si6 0.249080 0.398415 0.241962
Si Si7 0.194952 0.057022 0.414552
O O1 0.815953 0.137431 0.613136
O O2 0.871362 0.084776 0.892656
O O3 0.843512 0.016918 0.666911
O O4 0.061969 0.088324 0.115395
O O5 0.936492 0.531871 0.552008
O O6 0.000000 0.500000 0.500000
O O7 0.931473 0.623042 0.409826
O O8 0.169135 0.571583 0.896368
O O9 0.877467 0.436306 0.547432
O O10 0.630811 0.784930 0.823726
O O11 0.735004 0.787314 0.818693
O O12 0.000000 0.248022 0.750000
O O13 0.206683 0.325587 0.150368
O O14 0.274878 0.420157 0.409550
#
# Coordination Sequence:
#
# PCOD9273156 Si02
#       7
#     8   8   4   8   8   8   8
#     4  10  21  37  53  92 125 152 186 253 310 369
#     4  12  20  37  59  89 119 154 194 253 301 367
#     4  12  20  32  60  92 116 148 200 254 304 362
#     4  10  21  39  62  85 123 157 208 257 299 361
#     4  10  20  37  63  87 113 164 217 250 295 367
#     4  11  19  35  61  89 116 156 206 250 298 370
#     4  11  21  34  61  88 124 152 190 245 318 359
#
# _framework density 19.413145
#
# number of rings (size 3 to 8) (size 9 to 14) (size 15 to 20)
#    0.000    1.231    5.385    2.308    0.000    0.000 
#    2.769    1.538   10.154    9.231    0.000    0.000 
#    0.000    0.000    0.000    0.000    0.000    0.000 
#
# Total GULP energy -144764.526881 kJ/mol
# GULP energy per Si atom -5567.866418 kJ/mol
# Density = 1.936896 g / cm^3
# Si number density = 19.413145 Si / 1000 Ang^3
#
#
#
# Elastic Constant Matrix: (Units=GPa)
#
#
# Indices 1 2 3 4 5 6 
#
# 1 56.2936 32.2221 13.6307 0.0000 11.8380 0.0000
# 2 32.2221 68.8270 35.0200 0.0000 8.5820 0.0000
# 3 13.6307 35.0200 101.9690 0.0000 34.3947 0.0000
# 4 0.0000 0.0000 0.0000 24.2626 0.0000 7.1993
# 5 11.8380 8.5820 34.3947 0.0000 35.4372 0.0000
# 6 0.0000 0.0000 0.0000 7.1993 0.0000 28.1761
#
#
#
# Elastic Compliance Matrix: (Units=1/GPa)
#
#
# Indices 1 2 3 4 5 6 
#
# 1 0.026428 -0.013374 0.004380 0.000000 -0.009840 0.000000
# 2 -0.013374 0.024510 -0.009121 0.000000 0.007384 0.000000
# 3 0.004380 -0.009121 0.017993 0.000000 -0.016718 0.000000
# 4 0.000000 0.000000 0.000000 0.044597 0.000000 -0.011395
# 5 -0.009840 0.007384 -0.016718 0.000000 0.045944 0.000000
# 6 0.000000 0.000000 0.000000 -0.011395 0.000000 0.038403
#
#
# Mechanical properties :
#
#
# Convention : Reuss Voigt Hill
#
# Bulk Modulus (GPa) = 30.58028 43.20393 36.89211
# Shear Modulus (GPa) = 20.40772 27.32296 23.86534
#
# Velocity S-wave (km/s) = 3.24579 3.75566 3.51000
# Velocity P-wave (km/s) = 5.46200 6.41171 5.95581
#
# Compressibility (1/GPa) = 0.03270081
#
# Stress axis : x y z
#
# Youngs Moduli (GPa) = 37.83862 40.79902 55.57757
#
# Poissons Ratio (x) = 0.54564 -0.24340
# Poissons Ratio (y) = 0.50605 0.50691
# Poissons Ratio (z) = -0.16571 0.37212
#
# Static dielectric constant tensor:
#      x y z
#    x 1.702370 0.000000 0.024850 
#    y 0.000000 1.739280 0.000000 
#    z 0.024850 0.000000 1.715830 
# 
# From -- ./inp_files/183038.got.cif
#   From: 2010.05.17/outbox.cif.g08.bks.cpg/sg15_92_cif.got.tgz:183038.got - 2010.06.03 18:47:42.
