data_PCOD9273575
_publ_section_title
;
Structure prediction by ZEFSAII (Michael W. Deem and Ramdas Pophale) SiO2 
 PCOD9273575
Probable space group: C 2/C
;
_chemical_formula_sum "Si O2"
_cell_formula_units_Z 40
_cell_length_a 7.627365
_cell_length_b 16.504332
_cell_length_c 13.415501
_cell_angle_alpha 90.000000
_cell_angle_beta 91.740274
_cell_angle_gamma 90.000000
_cell_volume 1688.025554
_symmetry_space_group_name_H-M "C 2/C"
_symmetry_group_IT_number 15
_symmetry_cell_setting 'monoclinic'
loop_
_space_group_symop_operation_xyz
x,y,z
-x,y,1/2-z
-x,-y,-z
x,-y,1/2+z
1/2+x,1/2+y,z
1/2-x,1/2+y,1/2-z
1/2-x,1/2-y,-z
1/2+x,1/2-y,1/2+z
loop_
_atom_site_type_symbol
_atom_site_label
_atom_site_fract_x
_atom_site_fract_y
_atom_site_fract_z
Si Si1 0.398637 0.424060 0.543481
Si Si2 0.229209 0.306315 0.371477
Si Si3 0.254519 0.636511 0.440442
Si Si4 0.695744 0.190103 0.641143
Si Si5 0.591128 0.128416 0.144516
O O1 0.500000 0.500000 0.500000
O O2 0.315128 0.368403 0.452447
O O3 0.561401 0.383639 0.603908
O O4 0.247973 0.432668 0.622937
O O5 0.244523 0.329349 0.254831
O O6 0.322821 0.217283 0.380440
O O7 0.015837 0.303606 0.380346
O O8 0.220989 0.725083 0.393560
O O9 0.277471 0.632998 0.559293
O O10 0.072123 0.593591 0.420670
O O11 0.500000 0.132431 0.250000
#
# Coordination Sequence:
#
# PCOD9273575 Si02
#       5
#     8   8   8   8   8
#     4  12  28  47  69 103 155 200 239 297 386 466
#     4  11  21  41  72 111 142 184 249 311 365 425
#     4  11  22  40  69 104 141 187 240 302 371 428
#     4  10  20  37  74 108 139 175 250 318 359 422
#     4  12  24  44  75 105 140 188 255 318 363 429
#
# _framework density 23.696323
#
# number of rings (size 3 to 8) (size 9 to 14) (size 15 to 20)
#    0.000    0.800    6.000    3.000    0.000    1.600 
#    0.000    4.000    0.000    0.000    0.000    0.000 
#    0.000    0.000    0.000    0.000    0.000    0.000 
#
# Total GULP energy -111418.721520 kJ/mol
# GULP energy per Si atom -5570.936076 kJ/mol
# Density = 2.364239 g / cm^3
# Si number density = 23.696323 Si / 1000 Ang^3
#
#
#
# Elastic Constant Matrix: (Units=GPa)
#
#
# Indices 1 2 3 4 5 6 
#
# 1 198.5119 21.9540 38.7292 0.0000 -17.0989 0.0000
# 2 21.9540 56.9396 21.6600 0.0000 -8.3899 0.0000
# 3 38.7292 21.6600 106.8939 0.0000 -19.6895 0.0000
# 4 0.0000 0.0000 0.0000 11.1403 0.0000 -2.7605
# 5 -17.0989 -8.3899 -19.6895 0.0000 42.2747 0.0000
# 6 0.0000 0.0000 0.0000 -2.7605 0.0000 7.3542
#
#
#
# Elastic Compliance Matrix: (Units=1/GPa)
#
#
# Indices 1 2 3 4 5 6 
#
# 1 0.005597 -0.001395 -0.001509 0.000000 0.001284 0.000000
# 2 -0.001395 0.019560 -0.003114 0.000000 0.001867 0.000000
# 3 -0.001509 -0.003114 0.011274 0.000000 0.004022 0.000000
# 4 0.000000 0.000000 0.000000 0.098970 0.000000 0.037150
# 5 0.001284 0.001867 0.004022 0.000000 0.026418 0.000000
# 6 0.000000 0.000000 0.000000 0.037150 0.000000 0.149922
#
#
# Mechanical properties :
#
#
# Convention : Reuss Voigt Hill
#
# Bulk Modulus (GPa) = 40.99154 58.55907 49.77531
# Shear Modulus (GPa) = 15.06445 30.82064 22.94255
#
# Velocity S-wave (km/s) = 2.52410 3.61037 3.11495
# Velocity P-wave (km/s) = 5.08242 6.49197 5.82995
#
# Compressibility (1/GPa) = 0.02439528
#
# Stress axis : x y z
#
# Youngs Moduli (GPa) = 178.67754 51.12463 88.70280
#
# Poissons Ratio (x) = 0.07131 0.13381
# Poissons Ratio (y) = 0.24922 0.27623
# Poissons Ratio (z) = 0.26955 0.15921
#
# Static dielectric constant tensor:
#      x y z
#    x 2.006130 0.000000 0.081200 
#    y 0.000000 2.146740 0.000000 
#    z 0.081200 0.000000 2.011000 
# 
# From -- ./inp_files/133898.got.cif
#   From: 2010.05.17/outbox.cif.g08.bks.cpg/sg15_67_cif.got.tgz:133898.got - 2010.06.03 18:47:42.
