data_PCOD9273985
_publ_section_title
;
Structure prediction by ZEFSAII (Michael W. Deem and Ramdas Pophale) SiO2 
 PCOD9273985
Probable space group: C 2/C
;
_chemical_formula_sum "Si O2"
_cell_formula_units_Z 40
_cell_length_a 14.696681
_cell_length_b 13.992779
_cell_length_c 8.188938
_cell_angle_alpha 90.000000
_cell_angle_beta 71.450557
_cell_angle_gamma 90.000000
_cell_volume 1596.547459
_symmetry_space_group_name_H-M "C 2/C"
_symmetry_group_IT_number 15
_symmetry_cell_setting 'monoclinic'
loop_
_space_group_symop_operation_xyz
x,y,z
-x,y,1/2-z
-x,-y,-z
x,-y,1/2+z
1/2+x,1/2+y,z
1/2-x,1/2+y,1/2-z
1/2-x,1/2-y,-z
1/2+x,1/2-y,1/2+z
loop_
_atom_site_type_symbol
_atom_site_label
_atom_site_fract_x
_atom_site_fract_y
_atom_site_fract_z
Si Si1 0.000000 0.524255 0.250000
Si Si2 0.369223 0.903595 0.551833
Si Si3 0.798168 0.778753 0.202084
Si Si4 0.617795 0.355966 0.896009
Si Si5 0.322514 0.547909 0.451335
Si Si6 0.500000 0.704430 0.750000
O O1 0.932537 0.453455 0.383368
O O2 0.934079 0.589024 0.175123
O O3 0.336140 0.796623 0.545029
O O4 0.272470 0.964084 0.606194
O O5 0.700531 0.727216 0.325741
O O6 0.884154 0.776904 0.285564
O O7 0.794905 0.880663 0.115560
O O8 0.607381 0.401538 0.719733
O O9 0.648765 0.446909 0.990699
O O10 0.521438 0.323933 0.045060
#
# Coordination Sequence:
#
# PCOD9273985 Si02
#       6
#     4   8   8   8   8   4
#     4  10  21  34  61  96 130 174 225 270 335 402
#     4  10  20  38  60  93 132 172 219 277 332 396
#     4  11  25  44  68 101 134 177 228 280 342 404
#     4  11  25  46  70 100 136 179 228 281 342 403
#     4  11  24  44  71  98 136 181 226 279 341 406
#     4  12  27  44  69  98 138 182 227 284 335 404
#
# _framework density 25.054061999999998
#
# number of rings (size 3 to 8) (size 9 to 14) (size 15 to 20)
#    0.000    1.200    0.000    7.200    0.000    8.800 
#    0.000    0.000    0.000    0.000    0.000    0.000 
#    0.000    0.000    0.000    0.000    0.000    0.000 
#
# Total GULP energy -111349.014353 kJ/mol
# GULP energy per Si atom -5567.450718 kJ/mol
# Density = 2.499704 g / cm^3
# Si number density = 25.054062 Si / 1000 Ang^3
#
#
#
# Elastic Constant Matrix: (Units=GPa)
#
#
# Indices 1 2 3 4 5 6 
#
# 1 125.8837 25.9839 44.5354 0.0000 -2.3659 0.0000
# 2 25.9839 92.2767 59.7176 0.0000 -22.0542 0.0000
# 3 44.5354 59.7176 157.8232 0.0000 -27.1576 0.0000
# 4 0.0000 0.0000 0.0000 32.9178 0.0000 3.1354
# 5 -2.3659 -22.0542 -27.1576 0.0000 57.5246 0.0000
# 6 0.0000 0.0000 0.0000 3.1354 0.0000 25.6510
#
#
#
# Elastic Compliance Matrix: (Units=1/GPa)
#
#
# Indices 1 2 3 4 5 6 
#
# 1 0.008993 -0.001383 -0.002222 0.000000 -0.001210 0.000000
# 2 -0.001383 0.015126 -0.004729 0.000000 0.003509 0.000000
# 3 -0.002222 -0.004729 0.009170 0.000000 0.002425 0.000000
# 4 0.000000 0.000000 0.000000 0.030737 0.000000 -0.003757
# 5 -0.001210 0.003509 0.002425 0.000000 0.019824 0.000000
# 6 0.000000 0.000000 0.000000 -0.003757 0.000000 0.039444
#
#
# Mechanical properties :
#
#
# Convention : Reuss Voigt Hill
#
# Bulk Modulus (GPa) = 60.17135 70.71748 65.44442
# Shear Modulus (GPa) = 34.36366 39.60179 36.98273
#
# Velocity S-wave (km/s) = 3.70750 3.98006 3.84619
# Velocity P-wave (km/s) = 6.51124 7.02911 6.77512
#
# Compressibility (1/GPa) = 0.01661920
#
# Stress axis : x y z
#
# Youngs Moduli (GPa) = 111.19929 66.11276 109.05121
#
# Poissons Ratio (x) = 0.09144 0.24236
# Poissons Ratio (y) = 0.15380 0.51572
# Poissons Ratio (z) = 0.24714 0.31265
#
# Static dielectric constant tensor:
#      x y z
#    x 1.883000 0.000000 0.197740 
#    y 0.000000 2.053330 0.000000 
#    z 0.197740 0.000000 1.876340 
# 
# From -- ./inp_files/37910.got.cif
#   From: 2010.05.17/outbox.cif.g08.bks.cpg/sg15_19_cif.got.tgz:37910.got - 2010.06.03 18:47:42.
