data_PCOD9273085
_publ_section_title
;
Structure prediction by ZEFSAII (Michael W. Deem and Ramdas Pophale) SiO2 
 PCOD9273085
Probable space group: C 2/C
;
_chemical_formula_sum "Si O2"
_cell_formula_units_Z 60
_cell_length_a 11.274075
_cell_length_b 18.578338
_cell_length_c 14.341032
_cell_angle_alpha 90.000000
_cell_angle_beta 100.376704
_cell_angle_gamma 90.000000
_cell_volume 2954.652967
_symmetry_space_group_name_H-M "C 2/C"
_symmetry_group_IT_number 15
_symmetry_cell_setting 'monoclinic'
loop_
_space_group_symop_operation_xyz
x,y,z
-x,y,1/2-z
-x,-y,-z
x,-y,1/2+z
1/2+x,1/2+y,z
1/2-x,1/2+y,1/2-z
1/2-x,1/2-y,-z
1/2+x,1/2-y,1/2+z
loop_
_atom_site_type_symbol
_atom_site_label
_atom_site_fract_x
_atom_site_fract_y
_atom_site_fract_z
Si Si1 0.896074 0.365098 0.386787
Si Si2 0.127794 0.893309 0.716532
Si Si3 0.000000 0.454619 0.750000
Si Si4 0.269885 0.278309 0.895288
Si Si5 0.273962 0.810200 0.890944
Si Si6 0.971839 0.336377 0.604573
Si Si7 0.736771 0.961160 0.270236
Si Si8 0.324067 0.154112 0.599498
O O1 0.831644 0.289307 0.353911
O O2 0.913682 0.365024 0.500604
O O3 0.811498 0.427598 0.334122
O O4 0.033820 0.364612 0.369465
O O5 0.149526 0.848020 0.622958
O O6 0.222983 0.856487 0.799821
O O7 0.000000 0.884000 0.750000
O O8 0.161226 0.977903 0.714749
O O9 0.976240 0.404064 0.834140
O O10 0.117943 0.498544 0.790516
O O11 0.133010 0.299228 0.850723
O O12 0.250000 0.250000 0.000000
O O13 0.413837 0.786604 0.899522
O O14 0.193687 0.739107 0.888177
O O15 0.279455 0.856215 0.987026
O O16 0.753416 0.893569 0.340788
#
# Coordination Sequence:
#
# PCOD9273085 Si02
#       8
#     8   8   4   8   8   8   8   8
#     4  10  21  36  62  94 123 163 215 261 315 377
#     4  12  25  43  64  89 129 174 217 264 331 396
#     4  12  20  36  58  86 122 158 202 264 324 374
#     4  10  21  40  65  94 123 164 213 267 315 377
#     4  10  21  39  64  91 123 164 215 265 322 374
#     4  10  20  37  62  91 122 162 208 262 317 381
#     4  12  23  39  61  92 128 167 212 264 323 387
#     4  10  21  38  62  94 125 164 212 268 317 382
#
# _framework density 20.306951999999999
#
# number of rings (size 3 to 8) (size 9 to 14) (size 15 to 20)
#    0.000    1.333    4.000    1.600    0.000    2.667 
#    2.400    0.667    0.000    0.000    0.000    0.000 
#    0.000    0.000    0.000    0.000    0.000    0.000 
#
# Total GULP energy -167162.896773 kJ/mol
# GULP energy per Si atom -5572.096559 kJ/mol
# Density = 2.026073 g / cm^3
# Si number density = 20.306952 Si / 1000 Ang^3
#
#
#
# Elastic Constant Matrix: (Units=GPa)
#
#
# Indices 1 2 3 4 5 6 
#
# 1 99.0010 28.4414 19.2086 0.0000 -6.2104 0.0000
# 2 28.4414 85.1889 30.9699 0.0000 -1.0263 0.0000
# 3 19.2086 30.9699 86.9953 0.0000 -5.8659 0.0000
# 4 0.0000 0.0000 0.0000 17.6156 0.0000 5.3605
# 5 -6.2104 -1.0263 -5.8659 0.0000 14.0605 0.0000
# 6 0.0000 0.0000 0.0000 5.3605 0.0000 4.6373
#
#
#
# Elastic Compliance Matrix: (Units=1/GPa)
#
#
# Indices 1 2 3 4 5 6 
#
# 1 0.011565 -0.003432 -0.001033 0.000000 0.004427 0.000000
# 2 -0.003432 0.014517 -0.004570 0.000000 -0.002363 0.000000
# 3 -0.001033 -0.004570 0.013681 0.000000 0.004918 0.000000
# 4 0.000000 0.000000 0.000000 0.087572 0.000000 -0.101230
# 5 0.004427 -0.002363 0.004918 0.000000 0.074956 0.000000
# 6 0.000000 0.000000 0.000000 -0.101230 0.000000 0.332662
#
#
# Mechanical properties :
#
#
# Convention : Reuss Voigt Hill
#
# Bulk Modulus (GPa) = 46.09632 47.60277 46.84955
# Shear Modulus (GPa) = 8.92451 20.10036 14.51243
#
# Velocity S-wave (km/s) = 2.09865 3.14956 2.67620
# Velocity P-wave (km/s) = 5.34991 6.05961 5.71578
#
# Compressibility (1/GPa) = 0.02169371
#
# Stress axis : x y z
#
# Youngs Moduli (GPa) = 86.46717 68.88348 73.09209
#
# Poissons Ratio (x) = 0.23642 0.07552
# Poissons Ratio (y) = 0.29677 0.33400
# Poissons Ratio (z) = 0.08934 0.31477
#
# Static dielectric constant tensor:
#      x y z
#    x 1.737020 0.000000 -0.033270 
#    y 0.000000 1.747780 0.000000 
#    z -0.033270 0.000000 1.792880 
# 
# From -- ./inp_files/146114.got.cif
#   From: 2010.05.17/outbox.cif.g08.bks.cpg/sg15_74_cif.got.tgz:146114.got - 2010.06.03 18:47:42.
