data_PCOD9273823
_publ_section_title
;
Structure prediction by ZEFSAII (Michael W. Deem and Ramdas Pophale) SiO2 
 PCOD9273823
Probable space group: C 2/C
;
_chemical_formula_sum "Si O2"
_cell_formula_units_Z 52
_cell_length_a 8.121998
_cell_length_b 22.055669
_cell_length_c 16.602428
_cell_angle_alpha 90.000000
_cell_angle_beta 55.514374
_cell_angle_gamma 90.000000
_cell_volume 2451.451444
_symmetry_space_group_name_H-M "C 2/C"
_symmetry_group_IT_number 15
_symmetry_cell_setting 'monoclinic'
loop_
_space_group_symop_operation_xyz
x,y,z
-x,y,1/2-z
-x,-y,-z
x,-y,1/2+z
1/2+x,1/2+y,z
1/2-x,1/2+y,1/2-z
1/2-x,1/2-y,-z
1/2+x,1/2-y,1/2+z
loop_
_atom_site_type_symbol
_atom_site_label
_atom_site_fract_x
_atom_site_fract_y
_atom_site_fract_z
Si Si1 0.417964 0.889898 0.182017
Si Si2 0.012659 0.526804 0.391188
Si Si3 0.755698 0.703034 0.926479
Si Si4 0.346628 0.512979 0.422755
Si Si5 0.000000 0.612745 0.250000
Si Si6 0.067580 0.137994 0.395159
Si Si7 0.500000 0.582192 0.750000
Si Si8 0.500000 0.715523 0.250000
O O1 0.500000 0.889720 0.250000
O O2 0.565382 0.842729 0.100618
O O3 0.187405 0.878001 0.226773
O O4 0.443397 0.958062 0.144944
O O5 0.776695 0.525205 0.476385
O O6 0.160253 0.541554 0.423893
O O7 0.070178 0.570123 0.303125
O O8 0.819320 0.738826 0.827478
O O9 0.750000 0.750000 0.000000
O O10 0.551574 0.665927 0.995650
O O11 0.488457 0.568393 0.408529
O O12 0.453736 0.463933 0.336525
O O13 0.195043 0.645252 0.162503
O O14 0.026242 0.173402 0.321669
#
# Coordination Sequence:
#
# PCOD9273823 Si02
#       8
#     8   8   8   8   4   8   4   4
#     4  11  20  39  63  88 125 165 201 252 313 359
#     4  10  21  35  59  92 126 162 201 240 297 381
#     4  10  22  40  66  85 109 160 217 260 310 371
#     4  10  20  38  59  88 128 166 196 238 307 383
#     4  12  24  37  57  98 129 157 202 254 304 386
#     4  11  22  39  63  86 122 162 202 254 316 371
#     4  10  23  36  59  98 129 162 205 248 302 390
#     4  10  21  43  66  82 108 161 213 258 322 376
#
# _framework density 21.211924
#
# number of rings (size 3 to 8) (size 9 to 14) (size 15 to 20)
#    0.000    1.538    3.077    3.231    0.000    1.846 
#    0.000    3.846    0.000    0.000    0.000    0.000 
#    0.000    0.000    0.000    0.000    0.000    0.000 
#
# Total GULP energy -144955.728362 kJ/mol
# GULP energy per Si atom -5575.220322 kJ/mol
# Density = 2.116364 g / cm^3
# Si number density = 21.211924 Si / 1000 Ang^3
#
#
#
# Elastic Constant Matrix: (Units=GPa)
#
#
# Indices 1 2 3 4 5 6 
#
# 1 86.9379 19.6846 28.1725 0.0000 -25.1019 0.0000
# 2 19.6846 39.7662 16.2330 0.0000 -14.4752 0.0000
# 3 28.1725 16.2330 114.7056 0.0000 -29.8417 0.0000
# 4 0.0000 0.0000 0.0000 15.6402 0.0000 16.1164
# 5 -25.1019 -14.4752 -29.8417 0.0000 43.7289 0.0000
# 6 0.0000 0.0000 0.0000 16.1164 0.0000 -16.0242
#
#
#
# Elastic Compliance Matrix: (Units=1/GPa)
#
#
# Indices 1 2 3 4 5 6 
#
# 1 0.014714 -0.004528 -0.001417 0.000000 0.005980 0.000000
# 2 -0.004528 0.030340 -0.001514 0.000000 0.006411 0.000000
# 3 -0.001417 -0.001514 0.010868 0.000000 0.006102 0.000000
# 4 0.000000 0.000000 0.000000 0.031398 0.000000 0.031578
# 5 0.005980 0.006411 0.006102 0.000000 0.032587 0.000000
# 6 0.000000 0.000000 0.000000 0.031578 0.000000 -0.030645
#
#
# Mechanical properties :
#
#
# Convention : Reuss Voigt Hill
#
# Bulk Modulus (GPa) = 24.38819 41.06553 32.72686
# Shear Modulus (GPa) = 42.42798 20.49025 31.45912
#
# Velocity S-wave (km/s) = 4.47721 3.11139 3.85526
# Velocity P-wave (km/s) = 6.18462 5.68413 5.93965
#
# Compressibility (1/GPa) = 0.04100345
#
# Stress axis : x y z
#
# Youngs Moduli (GPa) = 67.96423 32.95981 92.01574
#
# Poissons Ratio (x) = 0.14924 0.13040
# Poissons Ratio (y) = 0.30775 0.13928
# Poissons Ratio (z) = 0.09632 0.04989
#
# Static dielectric constant tensor:
#      x y z
#    x 1.814490 0.000000 -0.057560 
#    y 0.000000 1.774960 0.000000 
#    z -0.057560 0.000000 1.900650 
# 
# From -- ./inp_files/136151.got.cif
#   From: 2010.05.17/outbox.cif.g08.bks.cpg/sg15_69_cif.got.tgz:136151.got - 2010.06.03 18:47:42.
