data_PCOD9273238
_publ_section_title
;
Structure prediction by ZEFSAII (Michael W. Deem and Ramdas Pophale) SiO2 
 PCOD9273238
Probable space group: C 2/C
;
_chemical_formula_sum "Si O2"
_cell_formula_units_Z 56
_cell_length_a 11.346918
_cell_length_b 23.128632
_cell_length_c 13.560728
_cell_angle_alpha 90.000000
_cell_angle_beta 128.554421
_cell_angle_gamma 90.000000
_cell_volume 2783.087092
_symmetry_space_group_name_H-M "C 2/C"
_symmetry_group_IT_number 15
_symmetry_cell_setting 'monoclinic'
loop_
_space_group_symop_operation_xyz
x,y,z
-x,y,1/2-z
-x,-y,-z
x,-y,1/2+z
1/2+x,1/2+y,z
1/2-x,1/2+y,1/2-z
1/2-x,1/2-y,-z
1/2+x,1/2-y,1/2+z
loop_
_atom_site_type_symbol
_atom_site_label
_atom_site_fract_x
_atom_site_fract_y
_atom_site_fract_z
Si Si1 0.890183 0.366569 0.825117
Si Si2 0.104688 0.675971 0.599418
Si Si3 0.824688 0.266324 0.646666
Si Si4 0.000000 0.346276 0.250000
Si Si5 0.175365 0.057534 0.349096
Si Si6 0.346641 0.428065 0.229641
Si Si7 0.500000 0.038662 0.250000
Si Si8 0.251564 0.557927 0.885048
O O1 0.826201 0.330865 0.696978
O O2 0.768780 0.397206 0.832451
O O3 0.993895 0.418712 0.839448
O O4 0.994899 0.325978 0.947519
O O5 0.220418 0.728266 0.662008
O O6 0.004215 0.682365 0.645321
O O7 0.212746 0.618810 0.648061
O O8 0.750000 0.250000 0.500000
O O9 0.000000 0.248239 0.750000
O O10 0.855809 0.387101 0.181544
O O11 0.202295 0.059275 0.478899
O O12 0.000000 0.069288 0.250000
O O13 0.206729 0.991502 0.332528
O O14 0.500000 0.413499 0.250000
O O15 0.373130 0.436500 0.361311
O O16 0.353954 0.998297 0.182682
#
# Coordination Sequence:
#
# PCOD9273238 Si02
#       8
#     8   8   8   4   8   8   4   8
#     4  12  23  44  69  97 131 176 223 283 340 401
#     4  11  22  43  69  94 132 172 229 277 337 401
#     4  12  25  47  70 100 134 174 228 287 335 399
#     4   9  20  38  66  92 122 168 213 276 324 398
#     4  11  24  41  61  96 139 174 217 273 341 410
#     4  10  22  39  63  99 136 180 216 274 341 402
#     4  11  20  36  68 100 124 174 221 272 334 406
#     4  10  20  37  63  94 132 171 219 264 332 409
#
# _framework density 20.12154
#
# number of rings (size 3 to 8) (size 9 to 14) (size 15 to 20)
#    0.000    1.143    5.000    1.286    0.000    3.429 
#   11.571    0.714    0.000    0.000    0.000    0.000 
#    0.000    0.000    0.000    0.000    0.000    0.000 
#
# Total GULP energy -155999.906662 kJ/mol
# GULP energy per Si atom -5571.425238 kJ/mol
# Density = 2.007574 g / cm^3
# Si number density = 20.121540 Si / 1000 Ang^3
#
#
#
# Elastic Constant Matrix: (Units=GPa)
#
#
# Indices 1 2 3 4 5 6 
#
# 1 110.1557 40.6866 34.1627 0.0000 -25.0654 0.0000
# 2 40.6866 54.3010 11.4302 0.0000 -1.7710 0.0000
# 3 34.1627 11.4302 105.5056 0.0000 -22.2841 0.0000
# 4 0.0000 0.0000 0.0000 24.4162 0.0000 7.5602
# 5 -25.0654 -1.7710 -22.2841 0.0000 33.2421 0.0000
# 6 0.0000 0.0000 0.0000 7.5602 0.0000 10.1550
#
#
#
# Elastic Compliance Matrix: (Units=1/GPa)
#
#
# Indices 1 2 3 4 5 6 
#
# 1 0.016240 -0.011446 -0.001818 0.000000 0.010416 0.000000
# 2 -0.011446 0.026917 -0.000850 0.000000 -0.007766 0.000000
# 3 -0.001818 -0.000850 0.011486 0.000000 0.006283 0.000000
# 4 0.000000 0.000000 0.000000 0.053226 0.000000 -0.039626
# 5 0.010416 -0.007766 0.006283 0.000000 0.041735 0.000000
# 6 0.000000 0.000000 0.000000 -0.039626 0.000000 0.127975
#
#
# Mechanical properties :
#
#
# Convention : Reuss Voigt Hill
#
# Bulk Modulus (GPa) = 37.85769 49.16906 43.51338
# Shear Modulus (GPa) = 15.89255 25.80816 20.85036
#
# Velocity S-wave (km/s) = 2.81344 3.58524 3.22253
# Velocity P-wave (km/s) = 5.42303 6.45195 5.95974
#
# Compressibility (1/GPa) = 0.02641471
#
# Stress axis : x y z
#
# Youngs Moduli (GPa) = 61.57763 37.15058 87.06070
#
# Poissons Ratio (x) = 0.42521 0.15831
# Poissons Ratio (y) = 0.70479 0.07404
# Poissons Ratio (z) = 0.11197 0.03159
#
# Static dielectric constant tensor:
#      x y z
#    x 1.717620 0.000000 -0.040040 
#    y 0.000000 1.735840 0.000000 
#    z -0.040040 0.000000 1.703210 
# 
# From -- ./inp_files/90956.got.cif
#   From: 2010.05.17/outbox.cif.g08.bks.cpg/sg15_46_cif.got.tgz:90956.got - 2010.06.03 18:47:42.
