data_PCOD9273680
_publ_section_title
;
Structure prediction by ZEFSAII (Michael W. Deem and Ramdas Pophale) SiO2 
 PCOD9273680
Probable space group: C 2/C
;
_chemical_formula_sum "Si O2"
_cell_formula_units_Z 56
_cell_length_a 5.160239
_cell_length_b 24.579918
_cell_length_c 23.996814
_cell_angle_alpha 90.000000
_cell_angle_beta 108.170997
_cell_angle_gamma 90.000000
_cell_volume 2891.924016
_symmetry_space_group_name_H-M "C 2/C"
_symmetry_group_IT_number 15
_symmetry_cell_setting 'monoclinic'
loop_
_space_group_symop_operation_xyz
x,y,z
-x,y,1/2-z
-x,-y,-z
x,-y,1/2+z
1/2+x,1/2+y,z
1/2-x,1/2+y,1/2-z
1/2-x,1/2-y,-z
1/2+x,1/2-y,1/2+z
loop_
_atom_site_type_symbol
_atom_site_label
_atom_site_fract_x
_atom_site_fract_y
_atom_site_fract_z
Si Si1 0.922375 0.695721 0.523687
Si Si2 0.041079 0.159172 0.814689
Si Si3 0.296496 0.832517 0.894562
Si Si4 0.627642 0.122607 0.876997
Si Si5 0.117413 0.486759 0.317320
Si Si6 0.384257 0.562729 0.183248
Si Si7 0.245075 0.237325 0.126432
O O1 0.750000 0.750000 0.500000
O O2 0.927293 0.665193 0.465212
O O3 0.796716 0.654808 0.561447
O O4 0.193042 0.722329 0.569561
O O5 0.778351 0.153856 0.836370
O O6 0.000000 0.138458 0.750000
O O7 0.299687 0.126175 0.854969
O O8 0.144577 0.221281 0.820352
O O9 0.187961 0.889063 0.863595
O O10 0.532802 0.807603 0.872286
O O11 0.041317 0.790727 0.878814
O O12 0.687480 0.060205 0.866252
O O13 0.383002 0.522339 0.322888
O O14 0.000000 0.463761 0.250000
O O15 0.882893 0.526965 0.322964
O O16 0.500000 0.585239 0.250000
#
# Coordination Sequence:
#
# PCOD9273680 Si02
#       7
#     8   8   8   8   8   8   8
#     4   9  20  38  58  83 115 151 188 225 274 338
#     4  11  21  34  53  84 116 143 180 231 283 337
#     4  11  21  37  58  80 110 151 189 229 277 332
#     4  11  22  36  58  84 111 149 189 228 278 335
#     4  10  20  38  58  79 109 145 185 235 285 333
#     4  10  22  38  58  82 110 145 191 237 285 335
#     4  10  21  35  55  82 113 148 187 225 275 340
#
# _framework density 19.364270000000001
#
# number of rings (size 3 to 8) (size 9 to 14) (size 15 to 20)
#    0.000    1.714    0.000    6.000    0.000    5.714 
#    0.000    1.429    0.000    0.000    0.000    0.000 
#    0.000    0.000    0.000    0.000    0.000    0.000 
#
# Total GULP energy -156155.836698 kJ/mol
# GULP energy per Si atom -5576.994168 kJ/mol
# Density = 1.932020 g / cm^3
# Si number density = 19.364270 Si / 1000 Ang^3
#
#
#
# Elastic Constant Matrix: (Units=GPa)
#
#
# Indices 1 2 3 4 5 6 
#
# 1 81.7470 15.6404 -5.6227 0.0000 13.1540 0.0000
# 2 15.6404 88.9392 36.2293 0.0000 8.7351 0.0000
# 3 -5.6227 36.2293 53.1585 0.0000 5.3720 0.0000
# 4 0.0000 0.0000 0.0000 35.2154 0.0000 -6.9932
# 5 13.1540 8.7351 5.3720 0.0000 20.4503 0.0000
# 6 0.0000 0.0000 0.0000 -6.9932 0.0000 27.3315
#
#
#
# Elastic Compliance Matrix: (Units=1/GPa)
#
#
# Indices 1 2 3 4 5 6 
#
# 1 0.014784 -0.003752 0.005054 0.000000 -0.009235 0.000000
# 2 -0.003752 0.016836 -0.011699 0.000000 -0.001705 0.000000
# 3 0.005054 -0.011699 0.027883 0.000000 -0.005578 0.000000
# 4 0.000000 0.000000 0.000000 0.029917 0.000000 0.007655
# 5 -0.009235 -0.001705 -0.005578 0.000000 0.057032 0.000000
# 6 0.000000 0.000000 0.000000 0.007655 0.000000 0.038546
#
#
# Mechanical properties :
#
#
# Convention : Reuss Voigt Hill
#
# Bulk Modulus (GPa) = 25.83305 35.14875 30.49090
# Shear Modulus (GPa) = 22.86274 28.43931 25.65103
#
# Velocity S-wave (km/s) = 3.43981 3.83645 3.64353
# Velocity P-wave (km/s) = 5.39870 6.14941 5.78624
#
# Compressibility (1/GPa) = 0.03871010
#
# Stress axis : x y z
#
# Youngs Moduli (GPa) = 67.63989 59.39488 35.86386
#
# Poissons Ratio (x) = 0.22282 -0.18125
# Poissons Ratio (y) = 0.25376 0.41957
# Poissons Ratio (z) = -0.34184 0.69487
#
# Static dielectric constant tensor:
#      x y z
#    x 1.665600 0.000000 0.006060 
#    y 0.000000 1.680780 0.000000 
#    z 0.006060 0.000000 1.750670 
# 
# From -- ./inp_files/227907.got.cif
#   From: 2010.05.17/outbox.cif.g08.bks.cpg/sg15_114_cif.got.tgz:227907.got - 2010.06.03 18:47:42.
