data_PCOD9273584
_publ_section_title
;
Structure prediction by ZEFSAII (Michael W. Deem and Ramdas Pophale) SiO2 
 PCOD9273584
Probable space group: C 2/C
;
_chemical_formula_sum "Si O2"
_cell_formula_units_Z 48
_cell_length_a 13.816393
_cell_length_b 25.736507
_cell_length_c 5.728807
_cell_angle_alpha 90.000000
_cell_angle_beta 95.630937
_cell_angle_gamma 90.000000
_cell_volume 2027.252013
_symmetry_space_group_name_H-M "C 2/C"
_symmetry_group_IT_number 15
_symmetry_cell_setting 'monoclinic'
loop_
_space_group_symop_operation_xyz
x,y,z
-x,y,1/2-z
-x,-y,-z
x,-y,1/2+z
1/2+x,1/2+y,z
1/2-x,1/2+y,1/2-z
1/2-x,1/2-y,-z
1/2+x,1/2-y,1/2+z
loop_
_atom_site_type_symbol
_atom_site_label
_atom_site_fract_x
_atom_site_fract_y
_atom_site_fract_z
Si Si1 0.603633 0.165164 0.490456
Si Si2 0.603126 0.056499 0.257597
Si Si3 0.732785 0.705910 0.300191
Si Si4 0.040114 0.228907 0.010633
Si Si5 0.221228 0.617925 0.907181
Si Si6 0.797476 0.987249 0.319435
O O1 0.583120 0.105182 0.426656
O O2 0.667883 0.189115 0.299235
O O3 0.522395 0.208486 0.506695
O O4 0.668746 0.159455 0.733759
O O5 0.500000 0.027156 0.250000
O O6 0.694876 0.019176 0.329518
O O7 0.640248 0.086372 0.035380
O O8 0.750000 0.750000 0.500000
O O9 0.654798 0.720170 0.083472
O O10 0.705754 0.651286 0.417655
O O11 0.000000 0.208838 0.250000
O O12 0.000000 0.209646 0.750000
O O13 0.276261 0.573522 0.779241
O O14 0.844072 0.992643 0.589150
#
# Coordination Sequence:
#
# PCOD9273584 Si02
#       6
#     8   8   8   8   8   8
#     4  11  22  39  60  87 123 169 213 250 301 378
#     4  10  22  35  54  84 126 170 209 258 304 354
#     4  11  23  42  65  86 120 168 213 258 319 379
#     4  12  27  41  62  94 126 158 209 270 317 369
#     4  10  22  36  59  82 115 165 219 252 298 372
#     4  10  20  38  53  81 117 159 207 255 296 349
#
# _framework density 23.677371999999998
#
# number of rings (size 3 to 8) (size 9 to 14) (size 15 to 20)
#    0.000    1.333    3.333    2.000    7.000    2.667 
#    0.000    0.000    0.000    0.000    0.000    0.000 
#    0.000   36.000    0.000    0.000    0.000    0.000 
#
# Total GULP energy -133822.047161 kJ/mol
# GULP energy per Si atom -5575.918632 kJ/mol
# Density = 2.362348 g / cm^3
# Si number density = 23.677372 Si / 1000 Ang^3
#
#
#
# Elastic Constant Matrix: (Units=GPa)
#
#
# Indices 1 2 3 4 5 6 
#
# 1 39.6638 14.4310 26.3629 0.0000 13.4990 0.0000
# 2 14.4310 80.5852 37.2471 0.0000 9.2153 0.0000
# 3 26.3629 37.2471 154.5525 0.0000 23.3634 0.0000
# 4 0.0000 0.0000 0.0000 55.5446 0.0000 6.3712
# 5 13.4990 9.2153 23.3634 0.0000 28.6151 0.0000
# 6 0.0000 0.0000 0.0000 6.3712 0.0000 13.3669
#
#
#
# Elastic Compliance Matrix: (Units=1/GPa)
#
#
# Indices 1 2 3 4 5 6 
#
# 1 0.032338 -0.003056 -0.002992 0.000000 -0.011828 0.000000
# 2 -0.003056 0.014354 -0.002803 0.000000 -0.000892 0.000000
# 3 -0.002992 -0.002803 0.008335 0.000000 -0.004491 0.000000
# 4 0.000000 0.000000 0.000000 0.019045 0.000000 -0.009078
# 5 -0.011828 -0.000892 -0.004491 0.000000 0.044481 0.000000
# 6 0.000000 0.000000 0.000000 -0.009078 0.000000 0.079138
#
#
# Mechanical properties :
#
#
# Convention : Reuss Voigt Hill
#
# Bulk Modulus (GPa) = 26.79087 47.87596 37.33342
# Shear Modulus (GPa) = 21.94582 32.62268 27.28425
#
# Velocity S-wave (km/s) = 3.04776 3.71590 3.39829
# Velocity P-wave (km/s) = 4.87079 6.21889 5.58566
#
# Compressibility (1/GPa) = 0.03732615
#
# Stress axis : x y z
#
# Youngs Moduli (GPa) = 30.92376 69.66625 119.97449
#
# Poissons Ratio (x) = 0.21287 0.35891
# Poissons Ratio (y) = 0.09449 0.33632
# Poissons Ratio (z) = 0.09251 0.19529
#
# Static dielectric constant tensor:
#      x y z
#    x 2.025040 0.000000 0.022320 
#    y 0.000000 1.922800 0.000000 
#    z 0.022320 0.000000 2.053250 
# 
# From -- ./inp_files/8230.got.cif
#   From: 2010.05.17/outbox.cif.g08.bks.cpg/sg15_5_cif.got.tgz:8230.got - 2010.06.03 18:47:42.
