data_PCOD9273361
_publ_section_title
;
Structure prediction by ZEFSAII (Michael W. Deem and Ramdas Pophale) SiO2 
 PCOD9273361
Probable space group: C 2/C
;
_chemical_formula_sum "Si O2"
_cell_formula_units_Z 32
_cell_length_a 11.260281
_cell_length_b 22.046488
_cell_length_c 5.267236
_cell_angle_alpha 90.000000
_cell_angle_beta 88.847204
_cell_angle_gamma 90.000000
_cell_volume 1307.324834
_symmetry_space_group_name_H-M "C 2/C"
_symmetry_group_IT_number 15
_symmetry_cell_setting 'monoclinic'
loop_
_space_group_symop_operation_xyz
x,y,z
-x,y,1/2-z
-x,-y,-z
x,-y,1/2+z
1/2+x,1/2+y,z
1/2-x,1/2+y,1/2-z
1/2-x,1/2-y,-z
1/2+x,1/2-y,1/2+z
loop_
_atom_site_type_symbol
_atom_site_label
_atom_site_fract_x
_atom_site_fract_y
_atom_site_fract_z
Si Si1 0.366936 0.705897 0.652204
Si Si2 0.576483 0.419182 0.505926
Si Si3 0.373469 0.173703 0.868723
Si Si4 0.338418 0.964027 0.445577
O O1 0.500000 0.705991 0.750000
O O2 0.380217 0.650715 0.447792
O O3 0.348446 0.775724 0.580814
O O4 0.246398 0.682180 0.798085
O O5 0.500000 0.438710 0.750000
O O6 0.695417 0.457248 0.463486
O O7 0.500000 0.420225 0.250000
O O8 0.500000 0.191520 0.750000
O O9 0.384022 0.104836 0.958471
O O10 0.373040 0.005633 0.679343
#
# Coordination Sequence:
#
# PCOD9273361 Si02
#       4
#     8   8   8   8
#     4   9  20  39  65  99 132 164 213 277 338 394
#     4  10  20  37  64  96 129 166 213 273 336 393
#     4  10  22  40  64  95 131 174 220 269 330 395
#     4  11  25  42  61  91 131 176 225 270 316 384
#
# _framework density 24.47747
#
# number of rings (size 3 to 8) (size 9 to 14) (size 15 to 20)
#    0.000    2.000    0.000    2.250    0.000    7.000 
#    0.000    5.000    0.000    0.000    0.000    0.000 
#    0.000    0.000    0.000    0.000    0.000    0.000 
#
# Total GULP energy -89292.328808 kJ/mol
# GULP energy per Si atom -5580.770551 kJ/mol
# Density = 2.442176 g / cm^3
# Si number density = 24.477470 Si / 1000 Ang^3
#
#
#
# Elastic Constant Matrix: (Units=GPa)
#
#
# Indices 1 2 3 4 5 6 
#
# 1 152.2495 2.4288 1.2041 0.0000 5.9157 0.0000
# 2 2.4288 175.5006 23.0286 0.0000 11.3084 0.0000
# 3 1.2041 23.0286 73.3646 0.0000 -0.9070 0.0000
# 4 0.0000 0.0000 0.0000 9.1461 0.0000 -3.6746
# 5 5.9157 11.3084 -0.9070 0.0000 24.7942 0.0000
# 6 0.0000 0.0000 0.0000 -3.6746 0.0000 36.5836
#
#
#
# Elastic Compliance Matrix: (Units=1/GPa)
#
#
# Indices 1 2 3 4 5 6 
#
# 1 0.006631 0.000029 -0.000138 0.000000 -0.001601 0.000000
# 2 0.000029 0.006141 -0.001964 0.000000 -0.002880 0.000000
# 3 -0.000138 -0.001964 0.014267 0.000000 0.001450 0.000000
# 4 0.000000 0.000000 0.000000 0.113935 0.000000 0.011444
# 5 -0.001601 -0.002880 0.001450 0.000000 0.042080 0.000000
# 6 0.000000 0.000000 0.000000 0.011444 0.000000 0.028484
#
#
# Mechanical properties :
#
#
# Convention : Reuss Voigt Hill
#
# Bulk Modulus (GPa) = 43.67804 50.49308 47.08556
# Shear Modulus (GPa) = 22.39004 39.06833 30.72919
#
# Velocity S-wave (km/s) = 3.02772 3.99945 3.54702
# Velocity P-wave (km/s) = 5.48686 6.48079 6.00443
#
# Compressibility (1/GPa) = 0.02289480
#
# Stress axis : x y z
#
# Youngs Moduli (GPa) = 150.80730 162.84553 70.09129
#
# Poissons Ratio (x) = -0.00480 0.00966
# Poissons Ratio (y) = -0.00444 0.13763
# Poissons Ratio (z) = 0.02079 0.31977
#
# Static dielectric constant tensor:
#      x y z
#    x 2.162720 0.000000 0.068350 
#    y 0.000000 1.965230 0.000000 
#    z 0.068350 0.000000 1.975790 
# 
# From -- ./inp_files/3684.got.cif
#   From: 2010.05.17/outbox.cif.g08.bks.cpg/sg15_2_cif.got.tgz:3684.got - 2010.06.03 18:47:42.
