data_PCOD9273784
_publ_section_title
;
Structure prediction by ZEFSAII (Michael W. Deem and Ramdas Pophale) SiO2 
 PCOD9273784
Probable space group: C 2/C
;
_chemical_formula_sum "Si O2"
_cell_formula_units_Z 52
_cell_length_a 23.872272
_cell_length_b 7.553670
_cell_length_c 29.367137
_cell_angle_alpha 90.000000
_cell_angle_beta 151.817948
_cell_angle_gamma 90.000000
_cell_volume 2500.967373
_symmetry_space_group_name_H-M "C 2/C"
_symmetry_group_IT_number 15
_symmetry_cell_setting 'monoclinic'
loop_
_space_group_symop_operation_xyz
x,y,z
-x,y,1/2-z
-x,-y,-z
x,-y,1/2+z
1/2+x,1/2+y,z
1/2-x,1/2+y,1/2-z
1/2-x,1/2-y,-z
1/2+x,1/2-y,1/2+z
loop_
_atom_site_type_symbol
_atom_site_label
_atom_site_fract_x
_atom_site_fract_y
_atom_site_fract_z
Si Si1 0.500000 0.046784 0.250000
Si Si2 0.920250 0.176211 0.447691
Si Si3 0.912115 0.260640 0.857814
Si Si4 0.892101 0.112966 0.234309
Si Si5 0.361419 0.735495 0.112858
Si Si6 0.842413 0.711673 0.211992
Si Si7 0.150009 0.155960 0.197818
O O1 0.430480 0.920939 0.165088
O O2 0.403934 0.150888 0.210089
O O3 0.787521 0.135607 0.370184
O O4 0.906554 0.252486 0.386729
O O5 0.983672 0.290953 0.531812
O O6 0.000000 0.000000 0.500000
O O7 0.922727 0.328799 0.813921
O O8 0.790151 0.333462 0.790871
O O9 0.893391 0.047571 0.838091
O O10 0.836956 0.193120 0.148655
O O11 0.877500 0.219537 0.270986
O O12 0.034623 0.099692 0.328190
O O13 0.833298 0.923747 0.200962
O O14 0.250000 0.750000 0.000000
#
# Coordination Sequence:
#
# PCOD9273784 Si02
#       7
#     4   8   8   8   8   8   8
#     4  10  22  38  62  84 106 152 194 232 288 346
#     4   9  19  34  56  85 113 144 183 227 276 337
#     4   9  19  34  53  81 112 143 182 226 275 334
#     4   9  20  38  55  79 117 151 186 241 290 337
#     4  10  23  39  55  81 112 148 194 240 289 341
#     4  10  20  38  59  84 115 149 191 237 287 341
#     4   9  18  33  54  77 108 147 180 223 280 333
#
# _framework density 20.791954
#
# number of rings (size 3 to 8) (size 9 to 14) (size 15 to 20)
#    0.000    2.769    0.000    0.923    0.000   13.538 
#    0.000    9.231    0.000    0.000    0.000    0.000 
#    0.000    0.000    0.000    0.000    0.000    0.000 
#
# Total GULP energy -144886.324452 kJ/mol
# GULP energy per Si atom -5572.550940 kJ/mol
# Density = 2.074463 g / cm^3
# Si number density = 20.791954 Si / 1000 Ang^3
#
#
#
# Elastic Constant Matrix: (Units=GPa)
#
#
# Indices 1 2 3 4 5 6 
#
# 1 141.2000 8.1563 49.6331 -0.0003 -18.2849 -0.0018
# 2 8.1563 27.8102 13.3111 -0.0001 -1.3631 -0.0066
# 3 49.6331 13.3111 153.6487 0.0001 -25.6634 -0.0003
# 4 -0.0003 -0.0001 0.0001 17.1148 0.0007 4.5454
# 5 -18.2849 -1.3631 -25.6634 0.0007 25.3988 -0.0001
# 6 -0.0018 -0.0066 -0.0003 4.5454 -0.0001 19.3852
#
#
#
# Elastic Compliance Matrix: (Units=1/GPa)
#
#
# Indices 1 2 3 4 5 6 
#
# 1 0.008351 -0.001337 -0.001912 0.000000 0.004008 0.000000
# 2 -0.001337 0.037777 -0.003204 -0.000003 -0.002172 0.000013
# 3 -0.001912 -0.003204 0.008596 0.000000 0.007137 -0.000001
# 4 0.000000 -0.000003 0.000000 0.062309 -0.000002 -0.014610
# 5 0.004008 -0.002172 0.007137 -0.000002 0.049352 0.000000
# 6 0.000000 0.000013 -0.000001 -0.014610 0.000000 0.055011
#
#
# Mechanical properties :
#
#
# Convention : Reuss Voigt Hill
#
# Bulk Modulus (GPa) = 23.91375 51.65110 37.78243
# Shear Modulus (GPa) = 20.14173 29.15031 24.64602
#
# Velocity S-wave (km/s) = 3.11581 3.74839 3.44665
# Velocity P-wave (km/s) = 4.94680 6.60528 5.83526
#
# Compressibility (1/GPa) = 0.04181695
#
# Stress axis : x y z
#
# Youngs Moduli (GPa) = 119.75251 26.47102 116.33865
#
# Poissons Ratio (x) = 0.03540 0.22246
# Poissons Ratio (y) = 0.16016 0.37270
# Poissons Ratio (z) = 0.22899 0.08480
#
# Static dielectric constant tensor:
#      x y z
#    x 1.813180 0.000000 -0.029310 
#    y 0.000000 1.792940 0.000000 
#    z -0.029310 0.000000 1.740370 
# 
# From -- ./inp_files/318425.got.cif
#   From: 2010.05.17/outbox.cif.g08.bks.cpg/sg15_160_cif.got.tgz:318425.got - 2010.06.03 18:47:42.
