data_PCOD9273809
_publ_section_title
;
Structure prediction by ZEFSAII (Michael W. Deem and Ramdas Pophale) SiO2 
 PCOD9273809
Probable space group: C 2/C
;
_chemical_formula_sum "Si O2"
_cell_formula_units_Z 56
_cell_length_a 27.965352
_cell_length_b 7.289676
_cell_length_c 18.471861
_cell_angle_alpha 90.000000
_cell_angle_beta 45.395460
_cell_angle_gamma 90.000000
_cell_volume 2681.026522
_symmetry_space_group_name_H-M "C 2/C"
_symmetry_group_IT_number 15
_symmetry_cell_setting 'monoclinic'
loop_
_space_group_symop_operation_xyz
x,y,z
-x,y,1/2-z
-x,-y,-z
x,-y,1/2+z
1/2+x,1/2+y,z
1/2-x,1/2+y,1/2-z
1/2-x,1/2-y,-z
1/2+x,1/2-y,1/2+z
loop_
_atom_site_type_symbol
_atom_site_label
_atom_site_fract_x
_atom_site_fract_y
_atom_site_fract_z
Si Si1 0.613758 0.634521 0.739528
Si Si2 0.691290 0.287132 0.292327
Si Si3 0.483825 0.830190 0.846022
Si Si4 0.591035 0.162515 0.512939
Si Si5 0.040141 0.843913 0.913842
Si Si6 0.160405 0.810764 0.880611
Si Si7 0.117944 0.031734 0.569508
O O1 0.671887 0.715883 0.728590
O O2 0.554943 0.789052 0.807167
O O3 0.583382 0.448266 0.806792
O O4 0.633157 0.581480 0.636608
O O5 0.648767 0.153993 0.390158
O O6 0.770733 0.279803 0.217676
O O7 0.664086 0.482200 0.346876
O O8 0.500000 0.907393 0.750000
O O9 0.454264 0.625611 0.867907
O O10 0.427333 0.965876 0.935452
O O11 0.519346 0.223149 0.555659
O O12 0.613306 0.319928 0.547856
O O13 0.091494 0.746065 0.915043
O O14 0.000000 0.000000 0.000000
O O15 0.161451 0.852279 0.965374
#
# Coordination Sequence:
#
# PCOD9273809 Si02
#       7
#     8   8   8   8   8   8   8
#     4  10  20  38  59  87 123 159 202 250 305 366
#     4  10  23  39  60  88 120 160 208 245 307 365
#     4  10  22  34  56  94 118 151 200 248 302 364
#     4  11  22  37  62  90 120 158 202 249 306 358
#     4  11  18  39  61  88 117 157 206 248 300 364
#     4  10  22  39  61  85 120 161 200 250 303 357
#     4  10  21  39  61  83 125 160 194 251 306 357
#
# _framework density 20.887523000000002
#
# number of rings (size 3 to 8) (size 9 to 14) (size 15 to 20)
#    0.000    1.714    5.714    0.000    4.000    2.286 
#    0.000    0.000    0.000    6.857    0.000    0.000 
#    0.000    0.000    0.000    0.000    0.000    0.000 
#
# Total GULP energy -155984.902019 kJ/mol
# GULP energy per Si atom -5570.889358 kJ/mol
# Density = 2.083998 g / cm^3
# Si number density = 20.887523 Si / 1000 Ang^3
#
#
#
# Elastic Constant Matrix: (Units=GPa)
#
#
# Indices 1 2 3 4 5 6 
#
# 1 79.6253 6.1479 43.7730 -0.0633 1.5399 0.0512
# 2 6.1479 64.3638 18.1663 -0.1635 6.8232 0.1856
# 3 43.7730 18.1663 111.1400 -0.0571 15.8401 0.0953
# 4 -0.0633 -0.1635 -0.0571 -8.1373 0.0607 16.0771
# 5 1.5399 6.8232 15.8401 0.0607 38.7384 -0.0665
# 6 0.0512 0.1856 0.0953 16.0771 -0.0665 -11.0823
#
#
#
# Elastic Compliance Matrix: (Units=1/GPa)
#
#
# Indices 1 2 3 4 5 6 
#
# 1 0.016187 0.000123 -0.006691 0.000028 0.002071 0.000048
# 2 0.000123 0.016420 -0.002463 -0.000106 -0.001890 0.000112
# 3 -0.006691 -0.002463 0.012674 -0.000056 -0.004483 -0.000018
# 4 0.000028 -0.000106 -0.000056 0.065854 0.000101 0.095530
# 5 0.002071 -0.001890 -0.004483 0.000101 0.027897 -0.000081
# 6 0.000048 0.000112 -0.000018 0.095530 -0.000081 0.048354
#
#
# Mechanical properties :
#
#
# Convention : Reuss Voigt Hill
#
# Bulk Modulus (GPa) = 36.73859 43.47817 40.10838
# Shear Modulus (GPa) = 23.30767 16.37321 19.84044
#
# Velocity S-wave (km/s) = 3.34408 2.80281 3.08534
# Velocity P-wave (km/s) = 5.70416 5.59776 5.65121
#
# Compressibility (1/GPa) = 0.02721933
#
# Stress axis : x y z
#
# Youngs Moduli (GPa) = 61.77634 60.90189 78.89985
#
# Poissons Ratio (x) = -0.00747 0.52790
# Poissons Ratio (y) = -0.00757 0.19433
# Poissons Ratio (z) = 0.41333 0.15000
#
# Static dielectric constant tensor:
#      x y z
#    x 1.701060 0.000080 0.083410 
#    y 0.000080 1.812560 -0.000040 
#    z 0.083410 -0.000040 1.800340 
# 
# From -- ./inp_files/221649.got.cif
#   From: 2010.05.17/outbox.cif.g08.bks.cpg/sg15_111_cif.got.tgz:221649.got - 2010.06.03 18:47:42.
