data_PCOD9273228
_publ_section_title
;
Structure prediction by ZEFSAII (Michael W. Deem and Ramdas Pophale) SiO2 
 PCOD9273228
Probable space group: C 2/C
;
_chemical_formula_sum "Si O2"
_cell_formula_units_Z 48
_cell_length_a 19.030470
_cell_length_b 7.166753
_cell_length_c 16.094591
_cell_angle_alpha 90.000000
_cell_angle_beta 93.231376
_cell_angle_gamma 90.000000
_cell_volume 2191.597711
_symmetry_space_group_name_H-M "C 2/C"
_symmetry_group_IT_number 15
_symmetry_cell_setting 'monoclinic'
loop_
_space_group_symop_operation_xyz
x,y,z
-x,y,1/2-z
-x,-y,-z
x,-y,1/2+z
1/2+x,1/2+y,z
1/2-x,1/2+y,1/2-z
1/2-x,1/2-y,-z
1/2+x,1/2-y,1/2+z
loop_
_atom_site_type_symbol
_atom_site_label
_atom_site_fract_x
_atom_site_fract_y
_atom_site_fract_z
Si Si1 0.847586 0.648202 0.111815
Si Si2 0.352220 0.855946 0.231363
Si Si3 0.072781 0.506859 0.102856
Si Si4 0.296607 0.541791 0.705208
Si Si5 0.976441 0.205260 0.524684
Si Si6 0.723389 0.950986 0.526601
O O1 0.875735 0.447751 0.146085
O O2 0.899778 0.773573 0.060946
O O3 0.836026 0.763954 0.195436
O O4 0.779775 0.590329 0.052426
O O5 0.344398 0.632636 0.232850
O O6 0.401423 0.932760 0.307194
O O7 0.271144 0.923048 0.241930
O O8 0.143107 0.547042 0.053738
O O9 0.028415 0.696070 0.093981
O O10 0.028865 0.342914 0.054852
O O11 0.268200 0.506076 0.609868
O O12 0.000000 0.000000 0.500000
O O13 0.750000 0.750000 0.500000
#
# Coordination Sequence:
#
# PCOD9273228 Si02
#       6
#     8   8   8   8   8   8
#     4  11  23  38  63  95 126 168 220 258 316 391
#     4  11  22  40  61  93 129 165 203 265 328 389
#     4   9  23  42  62  90 124 162 212 269 313 374
#     4  11  22  38  60  93 133 163 202 261 327 383
#     4  10  23  44  65  88 124 169 220 265 313 380
#     4  10  20  37  63  93 122 166 206 263 317 378
#
# _framework density 21.901831000000001
#
# number of rings (size 3 to 8) (size 9 to 14) (size 15 to 20)
#    0.000    1.667    3.333    0.500    2.333    3.333 
#    0.000    0.000    0.000    0.000    0.000    0.000 
#    0.000    0.000    0.000    0.000    0.000    0.000 
#
# Total GULP energy -133965.688469 kJ/mol
# GULP energy per Si atom -5581.903686 kJ/mol
# Density = 2.185198 g / cm^3
# Si number density = 21.901831 Si / 1000 Ang^3
#
#
#
# Elastic Constant Matrix: (Units=GPa)
#
#
# Indices 1 2 3 4 5 6 
#
# 1 48.0412 37.0599 11.3108 0.0000 8.7842 0.0000
# 2 37.0599 145.4714 21.9412 0.0000 2.5854 0.0000
# 3 11.3108 21.9412 76.7068 0.0000 11.9931 0.0000
# 4 0.0000 0.0000 0.0000 37.8845 0.0000 -3.9131
# 5 8.7842 2.5854 11.9931 0.0000 29.2690 0.0000
# 6 0.0000 0.0000 0.0000 -3.9131 0.0000 35.1242
#
#
#
# Elastic Compliance Matrix: (Units=1/GPa)
#
#
# Indices 1 2 3 4 5 6 
#
# 1 0.027586 -0.006748 -0.001000 0.000000 -0.007273 0.000000
# 2 -0.006748 0.008836 -0.001845 0.000000 0.002001 0.000000
# 3 -0.001000 -0.001845 0.014573 0.000000 -0.005508 0.000000
# 4 0.000000 0.000000 0.000000 0.026703 0.000000 0.002975
# 5 -0.007273 0.002001 -0.005508 0.000000 0.038429 0.000000
# 6 0.000000 0.000000 0.000000 0.002975 0.000000 0.028802
#
#
# Mechanical properties :
#
#
# Convention : Reuss Voigt Hill
#
# Bulk Modulus (GPa) = 31.43806 45.64926 38.54366
# Shear Modulus (GPa) = 28.61741 33.78272 31.20007
#
# Velocity S-wave (km/s) = 3.61864 3.93168 3.77840
# Velocity P-wave (km/s) = 5.64311 6.44195 6.05572
#
# Compressibility (1/GPa) = 0.03180858
#
# Stress axis : x y z
#
# Youngs Moduli (GPa) = 36.25015 113.17382 68.61909
#
# Poissons Ratio (x) = 0.76365 0.06865
# Poissons Ratio (y) = 0.24460 0.12662
# Poissons Ratio (z) = 0.03627 0.20884
#
# Static dielectric constant tensor:
#      x y z
#    x 1.848710 0.000000 -0.027050 
#    y 0.000000 1.848770 0.000000 
#    z -0.027050 0.000000 1.832940 
# 
# From -- ./inp_files/217582.got.cif
#   From: 2010.05.17/outbox.cif.g08.bks.cpg/sg15_109_cif.got.tgz:217582.got - 2010.06.03 18:47:42.
