data_PCOD9273146
_publ_section_title
;
Structure prediction by ZEFSAII (Michael W. Deem and Ramdas Pophale) SiO2 
 PCOD9273146
Probable space group: C 2/C
;
_chemical_formula_sum "Si O2"
_cell_formula_units_Z 56
_cell_length_a 21.380232
_cell_length_b 14.531582
_cell_length_c 8.730281
_cell_angle_alpha 90.000000
_cell_angle_beta 84.239448
_cell_angle_gamma 90.000000
_cell_volume 2698.701255
_symmetry_space_group_name_H-M "C 2/C"
_symmetry_group_IT_number 15
_symmetry_cell_setting 'monoclinic'
loop_
_space_group_symop_operation_xyz
x,y,z
-x,y,1/2-z
-x,-y,-z
x,-y,1/2+z
1/2+x,1/2+y,z
1/2-x,1/2+y,1/2-z
1/2-x,1/2-y,-z
1/2+x,1/2-y,1/2+z
loop_
_atom_site_type_symbol
_atom_site_label
_atom_site_fract_x
_atom_site_fract_y
_atom_site_fract_z
Si Si1 0.000000 0.787102 0.750000
Si Si2 0.613462 0.446574 0.408317
Si Si3 0.611632 0.240332 0.542368
Si Si4 0.204746 0.608403 0.379653
Si Si5 0.500000 0.377867 0.250000
Si Si6 0.249032 0.568496 0.717732
Si Si7 0.592016 0.352585 0.983480
Si Si8 0.298794 0.746641 0.190060
O O1 0.040547 0.729940 0.617516
O O2 0.050611 0.844080 0.837497
O O3 0.619489 0.345902 0.484302
O O4 0.546866 0.437884 0.339953
O O5 0.677573 0.458644 0.296322
O O6 0.607747 0.540178 0.505317
O O7 0.640547 0.165745 0.419802
O O8 0.654129 0.230928 0.682165
O O9 0.234135 0.589905 0.542144
O O10 0.204786 0.512117 0.291449
O O11 0.250705 0.672869 0.269510
O O12 0.453211 0.320989 0.369125
O O13 0.237141 0.658095 0.824968
O O14 0.655505 0.294782 0.949028
#
# Coordination Sequence:
#
# PCOD9273146 Si02
#       8
#     4   8   8   8   4   8   8   8
#     4  10  21  40  60  87 114 172 203 234 288 363
#     4  12  22  35  58  88 125 162 187 243 295 363
#     4  10  20  37  63  83 118 159 205 234 286 365
#     4  11  21  41  62  90 117 158 200 249 295 353
#     4  12  27  36  50  95 132 156 193 242 310 343
#     4  11  23  39  64  89 123 155 199 248 299 346
#     4  11  24  36  59  86 127 157 202 242 292 365
#     4  10  20  39  62  88 114 161 206 237 290 365
#
# _framework density 20.750720000000001
#
# number of rings (size 3 to 8) (size 9 to 14) (size 15 to 20)
#    0.000    1.143    5.714    1.714    6.000    0.000 
#    2.571    1.429    0.000    8.571    0.000    0.000 
#    0.000    0.000    0.000    0.000    0.000    0.000 
#
# Total GULP energy -156270.101253 kJ/mol
# GULP energy per Si atom -5581.075045 kJ/mol
# Density = 2.070349 g / cm^3
# Si number density = 20.750720 Si / 1000 Ang^3
#
#
#
# Elastic Constant Matrix: (Units=GPa)
#
#
# Indices 1 2 3 4 5 6 
#
# 1 74.9479 35.5795 35.9920 0.0000 -29.8564 0.0000
# 2 35.5795 104.0918 47.3402 0.0000 -34.4301 0.0000
# 3 35.9920 47.3402 93.2223 0.0000 -50.1955 0.0000
# 4 0.0000 0.0000 0.0000 -36.2225 0.0000 -43.4961
# 5 -29.8564 -34.4301 -50.1955 0.0000 43.2352 0.0000
# 6 0.0000 0.0000 0.0000 -43.4961 0.0000 -17.9689
#
#
#
# Elastic Compliance Matrix: (Units=1/GPa)
#
#
# Indices 1 2 3 4 5 6 
#
# 1 0.019043 -0.002921 -0.000108 0.000000 0.010698 0.000000
# 2 -0.002921 0.013760 -0.002790 0.000000 0.005702 0.000000
# 3 -0.000108 -0.002790 0.029208 0.000000 0.031613 0.000000
# 4 0.000000 0.000000 0.000000 0.014479 0.000000 -0.035048
# 5 0.010698 0.005702 0.031613 0.000000 0.071760 0.000000
# 6 0.000000 0.000000 0.000000 -0.035048 0.000000 0.029187
#
#
# Mechanical properties :
#
#
# Convention : Reuss Voigt Hill
#
# Bulk Modulus (GPa) = 19.85223 56.67616 38.26419
# Shear Modulus (GPa) = 24.28752 8.03211 16.15981
#
# Velocity S-wave (km/s) = 3.42488 1.96956 2.79365
# Velocity P-wave (km/s) = 5.02270 5.70477 5.37457
#
# Compressibility (1/GPa) = 0.05037218
#
# Stress axis : x y z
#
# Youngs Moduli (GPa) = 52.51217 72.67411 34.23738
#
# Poissons Ratio (x) = 0.21229 0.00371
# Poissons Ratio (y) = 0.15340 0.09552
# Poissons Ratio (z) = 0.00570 0.20275
#
# Static dielectric constant tensor:
#      x y z
#    x 1.761180 0.000000 0.016930 
#    y 0.000000 1.750050 0.000000 
#    z 0.016930 0.000000 1.843830 
# 
# From -- ./inp_files/61515.got.cif
#   From: 2010.05.17/outbox.cif.g08.bks.cpg/sg15_31_cif.got.tgz:61515.got - 2010.06.03 18:47:42.
