data_PCOD9273257
_publ_section_title
;
Structure prediction by ZEFSAII (Michael W. Deem and Ramdas Pophale) SiO2 
 PCOD9273257
Probable space group: C 2/C
;
_chemical_formula_sum "Si O2"
_cell_formula_units_Z 56
_cell_length_a 16.527903
_cell_length_b 11.218492
_cell_length_c 14.524723
_cell_angle_alpha 90.000000
_cell_angle_beta 92.052626
_cell_angle_gamma 90.000000
_cell_volume 2691.419176
_symmetry_space_group_name_H-M "C 2/C"
_symmetry_group_IT_number 15
_symmetry_cell_setting 'monoclinic'
loop_
_space_group_symop_operation_xyz
x,y,z
-x,y,1/2-z
-x,-y,-z
x,-y,1/2+z
1/2+x,1/2+y,z
1/2-x,1/2+y,1/2-z
1/2-x,1/2-y,-z
1/2+x,1/2-y,1/2+z
loop_
_atom_site_type_symbol
_atom_site_label
_atom_site_fract_x
_atom_site_fract_y
_atom_site_fract_z
Si Si1 0.310607 0.358726 0.011381
Si Si2 0.936687 0.516662 0.413437
Si Si3 0.000000 0.082766 0.250000
Si Si4 0.635059 0.205721 0.971772
Si Si5 0.450363 0.750912 0.404396
Si Si6 0.217110 0.903370 0.100271
Si Si7 0.500000 0.822083 0.750000
Si Si8 0.126271 0.112478 0.790837
O O1 0.398754 0.312330 0.981633
O O2 0.250000 0.250000 0.000000
O O3 0.283252 0.465854 0.944173
O O4 0.316880 0.390536 0.118552
O O5 0.866986 0.597976 0.454057
O O6 0.915404 0.382713 0.383605
O O7 0.000000 0.500000 0.500000
O O8 0.976030 0.593281 0.333741
O O9 0.950482 0.165951 0.316678
O O10 0.937793 0.994295 0.197894
O O11 0.694379 0.158014 0.894825
O O12 0.544494 0.232457 0.935099
O O13 0.673737 0.403330 0.196980
O O14 0.168385 0.820400 0.026045
O O15 0.574185 0.734648 0.780211
#
# Coordination Sequence:
#
# PCOD9273257 Si02
#       8
#     8   8   4   8   8   8   4   8
#     4  12  27  47  68 101 144 186 234 297 359 423
#     4  10  20  37  63  99 136 177 220 281 346 410
#     4  11  23  40  70 108 131 179 242 276 360 419
#     4  10  22  41  68  98 134 181 228 287 357 415
#     4  11  23  41  69  98 141 180 230 292 347 425
#     4  11  23  45  67  99 140 180 231 291 352 424
#     4  11  21  40  68 104 133 171 238 286 356 425
#     4  11  24  43  71 100 134 184 232 293 351 431
#
# _framework density 20.806865999999999
#
# number of rings (size 3 to 8) (size 9 to 14) (size 15 to 20)
#    0.000    1.143    2.857    3.857    2.000    3.429 
#    5.143    2.857    0.000    0.000    0.000    0.000 
#    0.000    0.000    0.000    0.000    0.000    0.000 
#
# Total GULP energy -156518.246571 kJ/mol
# GULP energy per Si atom -5589.937378 kJ/mol
# Density = 2.075951 g / cm^3
# Si number density = 20.806866 Si / 1000 Ang^3
#
#
#
# Elastic Constant Matrix: (Units=GPa)
#
#
# Indices 1 2 3 4 5 6 
#
# 1 44.7486 -4.9827 -14.4553 0.0000 -0.6460 0.0000
# 2 -4.9827 115.9009 17.1127 0.0000 -7.9202 0.0000
# 3 -14.4553 17.1127 68.5147 0.0000 -11.6438 0.0000
# 4 0.0000 0.0000 0.0000 23.7229 0.0000 -13.3665
# 5 -0.6460 -7.9202 -11.6438 0.0000 32.4635 0.0000
# 6 0.0000 0.0000 0.0000 -13.3665 0.0000 30.4601
#
#
#
# Elastic Compliance Matrix: (Units=1/GPa)
#
#
# Indices 1 2 3 4 5 6 
#
# 1 0.024183 0.000411 0.005429 0.000000 0.002529 0.000000
# 2 0.000411 0.009032 -0.001910 0.000000 0.001527 0.000000
# 3 0.005429 -0.001910 0.017206 0.000000 0.005813 0.000000
# 4 0.000000 0.000000 0.000000 0.055999 0.000000 0.024574
# 5 0.002529 0.001527 0.005813 0.000000 0.033312 0.000000
# 6 0.000000 0.000000 0.000000 0.024574 0.000000 0.043613
#
#
# Mechanical properties :
#
#
# Convention : Reuss Voigt Hill
#
# Bulk Modulus (GPa) = 17.15797 24.94596 21.05196
# Shear Modulus (GPa) = 25.65262 32.76192 29.20727
#
# Velocity S-wave (km/s) = 3.51507 3.97239 3.75071
# Velocity P-wave (km/s) = 4.97378 5.74936 5.37558
#
# Compressibility (1/GPa) = 0.05828195
#
# Stress axis : x y z
#
# Youngs Moduli (GPa) = 41.35102 110.71712 58.11967
#
# Poissons Ratio (x) = -0.04549 -0.31555
# Poissons Ratio (y) = -0.01699 0.11099
# Poissons Ratio (z) = -0.22451 0.21144
#
# Static dielectric constant tensor:
#      x y z
#    x 1.773940 0.000000 0.002460 
#    y 0.000000 1.757950 0.000000 
#    z 0.002460 0.000000 1.716870 
# 
# From -- ./inp_files/210032.got.cif
#   From: 2010.05.17/outbox.cif.g08.bks.cpg/sg15_106_cif.got.tgz:210032.got - 2010.06.03 18:47:42.
