data_PCOD9273833
_publ_section_title
;
Structure prediction by ZEFSAII (Michael W. Deem and Ramdas Pophale) SiO2 
 PCOD9273833
Probable space group: C 2/C
;
_chemical_formula_sum "Si O2"
_cell_formula_units_Z 56
_cell_length_a 7.301355
_cell_length_b 15.144971
_cell_length_c 31.460799
_cell_angle_alpha 90.000000
_cell_angle_beta 124.542534
_cell_angle_gamma 90.000000
_cell_volume 2865.587123
_symmetry_space_group_name_H-M "C 2/C"
_symmetry_group_IT_number 15
_symmetry_cell_setting 'monoclinic'
loop_
_space_group_symop_operation_xyz
x,y,z
-x,y,1/2-z
-x,-y,-z
x,-y,1/2+z
1/2+x,1/2+y,z
1/2-x,1/2+y,1/2-z
1/2-x,1/2-y,-z
1/2+x,1/2-y,1/2+z
loop_
_atom_site_type_symbol
_atom_site_label
_atom_site_fract_x
_atom_site_fract_y
_atom_site_fract_z
Si Si1 0.242891 0.067682 0.645322
Si Si2 0.220999 0.390384 0.805610
Si Si3 0.796813 0.436352 0.054920
Si Si4 0.407669 0.733124 0.190060
Si Si5 0.904004 0.687869 0.122579
Si Si6 0.754308 0.130950 0.577499
Si Si7 0.676079 0.376669 0.507179
O O1 0.324867 0.040569 0.608656
O O2 0.351797 0.165483 0.667418
O O3 0.974509 0.071161 0.605561
O O4 0.273744 0.997275 0.687555
O O5 0.420855 0.330895 0.812686
O O6 0.193963 0.361991 0.850602
O O7 0.000000 0.368124 0.750000
O O8 0.721374 0.518486 0.016159
O O9 0.028400 0.405775 0.066238
O O10 0.591757 0.366665 0.026425
O O11 0.500000 0.739818 0.250000
O O12 0.169436 0.684822 0.157489
O O13 0.829507 0.788811 0.116744
O O14 0.801337 0.658165 0.064674
O O15 0.727981 0.157848 0.524585
#
# Coordination Sequence:
#
# PCOD9273833 Si02
#       7
#     8   8   8   8   8   8   8
#     4  10  23  41  65  95 126 166 214 264 324 388
#     4  12  24  42  68  91 124 172 216 269 335 387
#     4  10  20  38  59  91 130 162 210 260 311 389
#     4  11  24  44  65  90 129 164 211 283 322 378
#     4  11  23  41  62  93 127 164 218 264 320 392
#     4  10  22  38  63  94 126 171 208 256 328 384
#     4  10  21  36  60  92 131 163 209 264 309 391
#
# _framework density 19.542242000000002
#
# number of rings (size 3 to 8) (size 9 to 14) (size 15 to 20)
#    0.000    1.429    2.857    2.143    2.000    1.714 
#    0.000    0.000    0.000    0.000    0.000    0.000 
#    0.000    0.000    0.000    0.000    0.000    0.000 
#
# Total GULP energy -156004.346626 kJ/mol
# GULP energy per Si atom -5571.583808 kJ/mol
# Density = 1.949776 g / cm^3
# Si number density = 19.542242 Si / 1000 Ang^3
#
#
#
# Elastic Constant Matrix: (Units=GPa)
#
#
# Indices 1 2 3 4 5 6 
#
# 1 154.6797 42.0482 53.7581 0.0000 6.0719 0.0000
# 2 42.0482 47.8093 18.3179 0.0000 -7.4556 0.0000
# 3 53.7581 18.3179 108.3906 0.0000 -3.6536 0.0000
# 4 0.0000 0.0000 0.0000 117.7237 0.0000 -66.2754
# 5 6.0719 -7.4556 -3.6536 0.0000 25.6108 0.0000
# 6 0.0000 0.0000 0.0000 -66.2754 0.0000 69.2591
#
#
#
# Elastic Compliance Matrix: (Units=1/GPa)
#
#
# Indices 1 2 3 4 5 6 
#
# 1 0.010322 -0.008444 -0.003876 0.000000 -0.005458 0.000000
# 2 -0.008444 0.030229 -0.000559 0.000000 0.010722 0.000000
# 3 -0.003876 -0.000559 0.011323 0.000000 0.002371 0.000000
# 4 0.000000 0.000000 0.000000 0.018415 0.000000 0.017622
# 5 -0.005458 0.010722 0.002371 0.000000 0.043800 0.000000
# 6 0.000000 0.000000 0.000000 0.017622 0.000000 0.031301
#
#
# Mechanical properties :
#
#
# Convention : Reuss Voigt Hill
#
# Bulk Modulus (GPa) = 38.29252 59.90311 49.09781
# Shear Modulus (GPa) = 27.80032 55.63574 41.71803
#
# Velocity S-wave (km/s) = 3.77580 5.34147 4.62536
# Velocity P-wave (km/s) = 6.21660 8.29225 7.32829
#
# Compressibility (1/GPa) = 0.02611476
#
# Stress axis : x y z
#
# Youngs Moduli (GPa) = 96.88202 33.08045 88.31704
#
# Poissons Ratio (x) = 0.27933 0.34234
# Poissons Ratio (y) = 0.81808 0.04940
# Poissons Ratio (z) = 0.37554 0.01850
#
# Static dielectric constant tensor:
#      x y z
#    x -2.687860 0.000000 -4.806300 
#    y 0.000000 1.792630 0.000000 
#    z -4.806300 0.000000 -3.639410 
# 
# From -- ./inp_files/286124.got.cif
#   From: 2010.05.17/outbox.cif.g08.bks.cpg/sg15_144_cif.got.tgz:286124.got - 2010.06.03 18:47:42.
