data_PCOD9273453
_publ_section_title
;
Structure prediction by ZEFSAII (Michael W. Deem and Ramdas Pophale) SiO2 
 PCOD9273453
Probable space group: C 2/C
;
_chemical_formula_sum "Si O2"
_cell_formula_units_Z 64
_cell_length_a 12.386625
_cell_length_b 19.785055
_cell_length_c 20.383319
_cell_angle_alpha 90.000000
_cell_angle_beta 145.930294
_cell_angle_gamma 90.000000
_cell_volume 2798.395585
_symmetry_space_group_name_H-M "C 2/C"
_symmetry_group_IT_number 15
_symmetry_cell_setting 'monoclinic'
loop_
_space_group_symop_operation_xyz
x,y,z
-x,y,1/2-z
-x,-y,-z
x,-y,1/2+z
1/2+x,1/2+y,z
1/2-x,1/2+y,1/2-z
1/2-x,1/2-y,-z
1/2+x,1/2-y,1/2+z
loop_
_atom_site_type_symbol
_atom_site_label
_atom_site_fract_x
_atom_site_fract_y
_atom_site_fract_z
Si Si1 0.488196 0.501294 0.413718
Si Si2 0.911310 0.142082 0.895602
Si Si3 0.104911 0.360084 0.032104
Si Si4 0.669991 0.182798 0.425268
Si Si5 0.295662 0.646984 0.119322
Si Si6 0.287999 0.257384 0.219939
Si Si7 0.696073 0.488154 0.383908
Si Si8 0.552357 0.652730 0.441297
O O1 0.500000 0.500000 0.500000
O O2 0.366743 0.432262 0.343962
O O3 0.657405 0.489483 0.443870
O O4 0.442015 0.580084 0.376054
O O5 0.836191 0.197693 0.807734
O O6 0.146798 0.151666 0.020421
O O7 0.843192 0.149393 0.935871
O O8 0.253234 0.309695 0.142805
O O9 0.147527 0.438103 0.069174
O O10 0.129413 0.363310 0.967015
O O11 0.898143 0.328527 0.944710
O O12 0.750000 0.250000 0.500000
O O13 0.462681 0.205730 0.295140
O O14 0.500000 0.671489 0.250000
O O15 0.284193 0.566328 0.124848
O O16 0.300465 0.659919 0.044407
O O17 0.098995 0.213022 0.136111
O O18 0.500000 0.463809 0.250000
#
# Coordination Sequence:
#
# PCOD9273453 Si02
#       8
#     8   8   8   8   8   8   8   8
#     4   9  18  37  64  88 125 178 216 264 329 400
#     4  10  20  39  63  93 128 173 219 268 333 399
#     4  12  23  38  65  94 131 170 221 271 335 390
#     4  10  22  36  57  89 132 163 207 267 329 397
#     4  10  23  43  64  92 127 173 224 276 326 389
#     4  11  23  38  60  99 132 173 216 279 342 403
#     4  10  20  37  66 100 128 167 213 279 334 395
#     4  10  22  40  63  87 126 176 226 266 336 388
#
# _framework density 22.870246999999999
#
# number of rings (size 3 to 8) (size 9 to 14) (size 15 to 20)
#    0.000    1.750    1.250    3.375    1.750    3.000 
#    0.000    3.125    0.000    0.000    0.000    0.000 
#    0.000    0.000    0.000    0.000    0.000    0.000 
#
# Total GULP energy -178332.361755 kJ/mol
# GULP energy per Si atom -5572.886305 kJ/mol
# Density = 2.281819 g / cm^3
# Si number density = 22.870247 Si / 1000 Ang^3
#
#
#
# Elastic Constant Matrix: (Units=GPa)
#
#
# Indices 1 2 3 4 5 6 
#
# 1 89.0828 -1.7559 25.8298 0.0006 -16.0045 0.0003
# 2 -1.7559 103.2222 15.4490 0.0010 -7.1650 0.0004
# 3 25.8298 15.4490 57.7171 0.0045 -0.6806 0.0018
# 4 0.0006 0.0010 0.0045 20.0781 0.0011 2.8351
# 5 -16.0045 -7.1650 -0.6806 0.0011 28.9479 0.0003
# 6 0.0003 0.0004 0.0018 2.8351 0.0003 28.5369
#
#
#
# Elastic Compliance Matrix: (Units=1/GPa)
#
#
# Indices 1 2 3 4 5 6 
#
# 1 0.014834 0.001897 -0.007046 0.000000 0.008505 0.000000
# 2 0.001897 0.010509 -0.003620 0.000000 0.003565 0.000000
# 3 -0.007046 -0.003620 0.021398 -0.000004 -0.004289 -0.000001
# 4 0.000000 0.000000 -0.000004 0.050514 -0.000002 -0.005019
# 5 0.008505 0.003565 -0.004289 -0.000002 0.040029 0.000000
# 6 0.000000 0.000000 -0.000001 -0.005019 0.000000 0.035541
#
#
# Mechanical properties :
#
#
# Convention : Reuss Voigt Hill
#
# Bulk Modulus (GPa) = 34.24283 36.56310 35.40296
# Shear Modulus (GPa) = 24.98788 29.54587 27.26687
#
# Velocity S-wave (km/s) = 3.30903 3.59819 3.45663
# Velocity P-wave (km/s) = 5.44102 5.76927 5.60755
#
# Compressibility (1/GPa) = 0.02920319
#
# Stress axis : x y z
#
# Youngs Moduli (GPa) = 67.41266 95.15299 46.73419
#
# Poissons Ratio (x) = -0.18053 0.32930
# Poissons Ratio (y) = -0.12790 0.16918
# Poissons Ratio (z) = 0.47500 0.34446
#
# Static dielectric constant tensor:
#      x y z
#    x 1.973640 0.000000 -0.026000 
#    y 0.000000 1.925620 0.000000 
#    z -0.026000 0.000000 1.924090 
# 
# From -- ./inp_files/240435.got.cif
#   From: 2010.05.17/outbox.cif.g08.bks.cpg/sg15_121_cif.got.tgz:240435.got - 2010.06.03 18:47:42.
