data_PCOD9273560
_publ_section_title
;
Structure prediction by ZEFSAII (Michael W. Deem and Ramdas Pophale) SiO2 
 PCOD9273560
Probable space group: C 2/C
;
_chemical_formula_sum "Si O2"
_cell_formula_units_Z 60
_cell_length_a 18.680384
_cell_length_b 19.758636
_cell_length_c 10.318771
_cell_angle_alpha 90.000000
_cell_angle_beta 51.956082
_cell_angle_gamma 90.000000
_cell_volume 2999.456645
_symmetry_space_group_name_H-M "C 2/C"
_symmetry_group_IT_number 15
_symmetry_cell_setting 'monoclinic'
loop_
_space_group_symop_operation_xyz
x,y,z
-x,y,1/2-z
-x,-y,-z
x,-y,1/2+z
1/2+x,1/2+y,z
1/2-x,1/2+y,1/2-z
1/2-x,1/2-y,-z
1/2+x,1/2-y,1/2+z
loop_
_atom_site_type_symbol
_atom_site_label
_atom_site_fract_x
_atom_site_fract_y
_atom_site_fract_z
Si Si1 0.977401 0.921475 0.520066
Si Si2 0.875586 0.826994 0.256506
Si Si3 0.322611 0.144803 0.615526
Si Si4 0.000000 0.169513 0.250000
Si Si5 0.972121 0.448801 0.921547
Si Si6 0.111982 0.672199 0.246110
Si Si7 0.306627 0.645610 0.119682
Si Si8 0.338095 0.248203 0.812756
O O1 0.872293 0.913879 0.594673
O O2 0.042735 0.879284 0.351652
O O3 0.999034 0.881212 0.628820
O O4 0.000000 0.000000 0.500000
O O5 0.786294 0.848249 0.273790
O O6 0.902439 0.749579 0.193168
O O7 0.843537 0.829956 0.440296
O O8 0.366456 0.070596 0.554942
O O9 0.362042 0.176614 0.436417
O O10 0.353018 0.178278 0.717687
O O11 0.917218 0.220258 0.312140
O O12 0.000000 0.476686 0.750000
O O13 0.028451 0.377823 0.864823
O O14 0.000000 0.500000 0.000000
O O15 0.199261 0.638470 0.218150
O O16 0.321552 0.702382 0.210157
O O17 0.250000 0.250000 0.000000
#
# Coordination Sequence:
#
# PCOD9273560 Si02
#       8
#     8   8   8   4   8   8   8   8
#     4  11  26  41  61  87 130 172 207 247 308 372
#     4  11  20  37  70  96 115 154 211 259 310 358
#     4  10  20  39  65  93 124 155 201 261 311 370
#     4  10  26  40  56  92 132 162 206 250 308 378
#     4  10  24  43  63  89 128 170 211 254 310 376
#     4  10  20  37  70  96 118 148 213 262 309 361
#     4  10  21  38  63  92 122 151 208 255 304 367
#     4  11  21  38  59  93 128 155 194 255 320 360
#
# _framework density 20.003623000000001
#
# number of rings (size 3 to 8) (size 9 to 14) (size 15 to 20)
#    0.000    1.600    2.667    2.000    5.600    2.133 
#    3.600    0.000    0.000    0.000    0.000    0.000 
#    0.000    0.000    0.000    0.000    0.000    0.000 
#
# Total GULP energy -167321.743290 kJ/mol
# GULP energy per Si atom -5577.391443 kJ/mol
# Density = 1.995809 g / cm^3
# Si number density = 20.003623 Si / 1000 Ang^3
#
#
#
# Elastic Constant Matrix: (Units=GPa)
#
#
# Indices 1 2 3 4 5 6 
#
# 1 130.2749 39.7596 31.6672 0.0000 6.0129 0.0000
# 2 39.7596 73.2974 29.1967 0.0000 4.5625 0.0000
# 3 31.6672 29.1967 73.5886 0.0000 7.0073 0.0000
# 4 0.0000 0.0000 0.0000 16.3189 0.0000 2.1094
# 5 6.0129 4.5625 7.0073 0.0000 26.0262 0.0000
# 6 0.0000 0.0000 0.0000 2.1094 0.0000 29.4099
#
#
#
# Elastic Compliance Matrix: (Units=1/GPa)
#
#
# Indices 1 2 3 4 5 6 
#
# 1 0.009572 -0.004194 -0.002375 0.000000 -0.000837 0.000000
# 2 -0.004194 0.018074 -0.005293 0.000000 -0.000775 0.000000
# 3 -0.002375 -0.005293 0.017007 0.000000 -0.003102 0.000000
# 4 0.000000 0.000000 0.000000 0.061852 0.000000 -0.004436
# 5 -0.000837 -0.000775 -0.003102 0.000000 0.039587 0.000000
# 6 0.000000 0.000000 0.000000 -0.004436 0.000000 0.034320
#
#
# Mechanical properties :
#
#
# Convention : Reuss Voigt Hill
#
# Bulk Modulus (GPa) = 47.78061 53.15645 50.46853
# Shear Modulus (GPa) = 23.68395 26.12015 24.90205
#
# Velocity S-wave (km/s) = 3.44464 3.61747 3.53211
# Velocity P-wave (km/s) = 6.30544 6.63921 6.47448
#
# Compressibility (1/GPa) = 0.02092899
#
# Stress axis : x y z
#
# Youngs Moduli (GPa) = 104.46996 55.32658 58.80074
#
# Poissons Ratio (x) = 0.23204 0.13968
# Poissons Ratio (y) = 0.43815 0.31121
# Poissons Ratio (z) = 0.24817 0.29282
#
# Static dielectric constant tensor:
#      x y z
#    x 1.782930 0.000000 -0.031640 
#    y 0.000000 1.705100 0.000000 
#    z -0.031640 0.000000 1.767820 
# 
# From -- ./inp_files/50648.got.cif
#   From: 2010.05.17/outbox.cif.g08.bks.cpg/sg15_26_cif.got.tgz:50648.got - 2010.06.03 18:47:42.
