data_PCOD9273241
_publ_section_title
;
Structure prediction by ZEFSAII (Michael W. Deem and Ramdas Pophale) SiO2 
 PCOD9273241
Probable space group: C 2/C
;
_chemical_formula_sum "Si O2"
_cell_formula_units_Z 48
_cell_length_a 23.099088
_cell_length_b 11.774151
_cell_length_c 16.162759
_cell_angle_alpha 90.000000
_cell_angle_beta 35.432850
_cell_angle_gamma 90.000000
_cell_volume 2548.469896
_symmetry_space_group_name_H-M "C 2/C"
_symmetry_group_IT_number 15
_symmetry_cell_setting 'monoclinic'
loop_
_space_group_symop_operation_xyz
x,y,z
-x,y,1/2-z
-x,-y,-z
x,-y,1/2+z
1/2+x,1/2+y,z
1/2-x,1/2+y,1/2-z
1/2-x,1/2-y,-z
1/2+x,1/2-y,1/2+z
loop_
_atom_site_type_symbol
_atom_site_label
_atom_site_fract_x
_atom_site_fract_y
_atom_site_fract_z
Si Si1 0.895339 0.177915 0.324647
Si Si2 0.518280 0.247727 0.323357
Si Si3 0.300357 0.194124 0.635450
Si Si4 0.840185 0.939138 0.312315
Si Si5 0.287085 0.108049 0.375756
Si Si6 0.790162 0.346141 0.337913
O O1 0.879785 0.286813 0.284222
O O2 0.809798 0.182597 0.494415
O O3 0.000000 0.169776 0.250000
O O4 0.872579 0.067123 0.294463
O O5 0.500000 0.281820 0.250000
O O6 0.417816 0.197626 0.478642
O O7 0.563866 0.359004 0.314706
O O8 0.605870 0.155315 0.222102
O O9 0.240684 0.087497 0.664729
O O10 0.256105 0.304569 0.640793
O O11 0.284829 0.197359 0.751068
O O12 0.785865 0.895769 0.459879
O O13 0.298035 0.981705 0.329084
#
# Coordination Sequence:
#
# PCOD9273241 Si02
#       6
#     8   8   8   8   8   8
#     4  10  23  45  66  83 124 166 212 246 307 379
#     4  11  18  34  61  92 118 158 196 247 311 354
#     4  11  22  37  62  93 129 150 207 260 305 365
#     4  10  20  37  63  95 116 160 203 256 304 358
#     4  10  21  38  59  88 123 159 205 249 306 367
#     4  10  25  42  58  92 122 166 200 256 313 360
#
# _framework density 18.834831999999999
#
# number of rings (size 3 to 8) (size 9 to 14) (size 15 to 20)
#    0.000    1.667    3.333    1.500    4.667    4.000 
#    3.000    1.667    0.000    0.000    0.000    0.000 
#    0.000    0.000    0.000    0.000    0.000    0.000 
#
# Total GULP energy -133980.171512 kJ/mol
# GULP energy per Si atom -5582.507146 kJ/mol
# Density = 1.879196 g / cm^3
# Si number density = 18.834832 Si / 1000 Ang^3
#
#
#
# Elastic Constant Matrix: (Units=GPa)
#
#
# Indices 1 2 3 4 5 6 
#
# 1 88.1593 36.6163 39.6266 0.0000 -15.5296 0.0000
# 2 36.6163 69.0083 18.0713 0.0000 -7.2741 0.0000
# 3 39.6266 18.0713 35.8274 0.0000 -15.7744 0.0000
# 4 0.0000 0.0000 0.0000 11.9135 0.0000 -2.4546
# 5 -15.5296 -7.2741 -15.7744 0.0000 36.6971 0.0000
# 6 0.0000 0.0000 0.0000 -2.4546 0.0000 16.9739
#
#
#
# Elastic Compliance Matrix: (Units=1/GPa)
#
#
# Indices 1 2 3 4 5 6 
#
# 1 0.025244 -0.006992 -0.025040 0.000000 -0.001467 0.000000
# 2 -0.006992 0.018637 -0.001657 0.000000 0.000023 0.000000
# 3 -0.025040 -0.001657 0.063686 0.000000 0.016451 0.000000
# 4 0.000000 0.000000 0.000000 0.086516 0.000000 0.012511
# 5 -0.001467 0.000023 0.016451 0.000000 0.033706 0.000000
# 6 0.000000 0.000000 0.000000 0.012511 0.000000 0.060723
#
#
# Mechanical properties :
#
#
# Convention : Reuss Voigt Hill
#
# Bulk Modulus (GPa) = 24.88232 42.40260 33.64246
# Shear Modulus (GPa) = 13.53961 19.69560 16.61761
#
# Velocity S-wave (km/s) = 2.68407 3.23724 2.97354
# Velocity P-wave (km/s) = 4.77965 6.04439 5.44884
#
# Compressibility (1/GPa) = 0.04018919
#
# Stress axis : x y z
#
# Youngs Moduli (GPa) = 39.61337 53.65559 15.70209
#
# Poissons Ratio (x) = 0.37516 0.39318
# Poissons Ratio (y) = 0.27698 0.02602
# Poissons Ratio (z) = 0.99192 0.08891
#
# Static dielectric constant tensor:
#      x y z
#    x 1.653960 0.000000 -0.016490 
#    y 0.000000 1.667430 0.000000 
#    z -0.016490 0.000000 1.640140 
# 
# From -- ./inp_files/111224.got.cif
#   From: 2010.05.17/outbox.cif.g08.bks.cpg/sg15_56_cif.got.tgz:111224.got - 2010.06.03 18:47:42.
