data_PCOD9273436
_publ_section_title
;
Structure prediction by ZEFSAII (Michael W. Deem and Ramdas Pophale) SiO2 
 PCOD9273436
Probable space group: C 2/C
;
_chemical_formula_sum "Si O2"
_cell_formula_units_Z 60
_cell_length_a 12.198296
_cell_length_b 15.200999
_cell_length_c 16.166928
_cell_angle_alpha 90.000000
_cell_angle_beta 79.506783
_cell_angle_gamma 90.000000
_cell_volume 2947.640065
_symmetry_space_group_name_H-M "C 2/C"
_symmetry_group_IT_number 15
_symmetry_cell_setting 'monoclinic'
loop_
_space_group_symop_operation_xyz
x,y,z
-x,y,1/2-z
-x,-y,-z
x,-y,1/2+z
1/2+x,1/2+y,z
1/2-x,1/2+y,1/2-z
1/2-x,1/2-y,-z
1/2+x,1/2-y,1/2+z
loop_
_atom_site_type_symbol
_atom_site_label
_atom_site_fract_x
_atom_site_fract_y
_atom_site_fract_z
Si Si1 0.816209 0.698411 0.177243
Si Si2 0.072390 0.154192 0.923855
Si Si3 0.339747 0.053998 0.413267
Si Si4 0.000000 0.586792 0.250000
Si Si5 0.125059 0.277839 0.492335
Si Si6 0.726903 0.588483 0.042593
Si Si7 0.022706 0.010215 0.154025
Si Si8 0.147628 0.835624 0.841412
O O1 0.851263 0.798033 0.154437
O O2 0.798130 0.650150 0.092378
O O3 0.706374 0.688495 0.247737
O O4 0.913214 0.649028 0.213861
O O5 0.031214 0.059040 0.901237
O O6 0.141898 0.144206 0.998124
O O7 0.964981 0.215667 0.951104
O O8 0.429428 0.035277 0.328986
O O9 0.389325 0.123777 0.472613
O O10 0.236351 0.104770 0.382116
O O11 0.296927 0.970543 0.469454
O O12 0.250000 0.250000 0.500000
O O13 0.118419 0.251534 0.397261
O O14 0.650535 0.525800 0.111347
O O15 0.958410 0.102614 0.156160
O O16 0.000000 0.977490 0.250000
#
# Coordination Sequence:
#
# PCOD9273436 Si02
#       8
#     8   8   8   4   8   8   8   8
#     4  11  25  42  66  94 132 179 219 271 336 399
#     4  12  24  41  66  98 130 174 219 273 330 398
#     4  10  21  39  67  94 124 179 223 275 324 396
#     4  10  22  44  64  88 132 172 224 280 328 388
#     4  10  20  37  65  95 129 166 216 263 331 382
#     4  12  24  42  68  97 138 171 222 271 344 401
#     4  12  23  38  68 102 129 170 219 278 335 390
#     4  10  20  41  61  94 136 167 211 282 329 383
#
# _framework density 20.355266
#
# number of rings (size 3 to 8) (size 9 to 14) (size 15 to 20)
#    0.000    1.067    5.333    2.400    0.933    1.600 
#    0.000    0.000    0.000    0.000    1.733    0.000 
#    0.000    0.000    0.000    0.000    0.000    0.000 
#
# Total GULP energy -167629.462268 kJ/mol
# GULP energy per Si atom -5587.648742 kJ/mol
# Density = 2.030894 g / cm^3
# Si number density = 20.355266 Si / 1000 Ang^3
#
#
#
# Elastic Constant Matrix: (Units=GPa)
#
#
# Indices 1 2 3 4 5 6 
#
# 1 60.5218 23.1683 22.9050 0.0000 -5.1424 0.0000
# 2 23.1683 52.2587 19.8086 0.0000 -10.2300 0.0000
# 3 22.9050 19.8086 84.3304 0.0000 -18.8736 0.0000
# 4 0.0000 0.0000 0.0000 -13.3140 0.0000 -18.8054
# 5 -5.1424 -10.2300 -18.8736 0.0000 44.7701 0.0000
# 6 0.0000 0.0000 0.0000 -18.8054 0.0000 22.3773
#
#
#
# Elastic Compliance Matrix: (Units=1/GPa)
#
#
# Indices 1 2 3 4 5 6 
#
# 1 0.021036 -0.007998 -0.004089 0.000000 -0.001135 0.000000
# 2 -0.007998 0.024419 -0.002783 0.000000 0.003488 0.000000
# 3 -0.004089 -0.002783 0.014768 0.000000 0.005120 0.000000
# 4 0.000000 0.000000 0.000000 -0.034343 0.000000 -0.028861
# 5 -0.001135 0.003488 0.005120 0.000000 0.025162 0.000000
# 6 0.000000 0.000000 0.000000 -0.028861 0.000000 0.020434
#
#
# Mechanical properties :
#
#
# Convention : Reuss Voigt Hill
#
# Bulk Modulus (GPa) = 32.80488 36.54164 34.67326
# Shear Modulus (GPa) = 44.89294 19.51527 32.20411
#
# Velocity S-wave (km/s) = 4.70134 3.09970 3.98188
# Velocity P-wave (km/s) = 6.75435 5.54993 6.18155
#
# Compressibility (1/GPa) = 0.03048327
#
# Stress axis : x y z
#
# Youngs Moduli (GPa) = 47.53799 40.95146 67.71261
#
# Poissons Ratio (x) = 0.32754 0.27686
# Poissons Ratio (y) = 0.38022 0.18843
# Poissons Ratio (z) = 0.19437 0.11396
#
# Static dielectric constant tensor:
#      x y z
#    x 1.731920 0.000000 -0.006290 
#    y 0.000000 1.685390 0.000000 
#    z -0.006290 0.000000 1.753220 
# 
# From -- ./inp_files/145620.got.cif
#   From: 2010.05.17/outbox.cif.g08.bks.cpg/sg15_73_cif.got.tgz:145620.got - 2010.06.03 18:47:42.
