data_PCOD9273043
_publ_section_title
;
Structure prediction by ZEFSAII (Michael W. Deem and Ramdas Pophale) SiO2 
 PCOD9273043
Probable space group: C 2/C
;
_chemical_formula_sum "Si O2"
_cell_formula_units_Z 64
_cell_length_a 16.879389
_cell_length_b 7.837088
_cell_length_c 29.265047
_cell_angle_alpha 90.000000
_cell_angle_beta 39.848009
_cell_angle_gamma 90.000000
_cell_volume 2480.569938
_symmetry_space_group_name_H-M "C 2/C"
_symmetry_group_IT_number 15
_symmetry_cell_setting 'monoclinic'
loop_
_space_group_symop_operation_xyz
x,y,z
-x,y,1/2-z
-x,-y,-z
x,-y,1/2+z
1/2+x,1/2+y,z
1/2-x,1/2+y,1/2-z
1/2-x,1/2-y,-z
1/2+x,1/2-y,1/2+z
loop_
_atom_site_type_symbol
_atom_site_label
_atom_site_fract_x
_atom_site_fract_y
_atom_site_fract_z
Si Si1 0.533241 0.262846 0.655337
Si Si2 0.809377 0.395552 0.121257
Si Si3 0.553092 0.215143 0.354369
Si Si4 0.064446 0.277906 0.041396
Si Si5 0.549785 0.439531 0.428376
Si Si6 0.084453 0.149860 0.666320
Si Si7 0.762107 0.268524 0.375691
Si Si8 0.710055 0.874457 0.270624
O O1 0.582739 0.172833 0.586236
O O2 0.566566 0.460875 0.651588
O O3 0.603144 0.180902 0.667501
O O4 0.386749 0.232670 0.716463
O O5 0.726718 0.317523 0.117584
O O6 0.759008 0.590074 0.141481
O O7 0.772539 0.307591 0.185325
O O8 0.957714 0.377030 0.059858
O O9 0.500391 0.262023 0.427749
O O10 0.461099 0.225614 0.353218
O O11 0.640159 0.052375 0.309858
O O12 0.651581 0.371859 0.308144
O O13 0.184063 0.266059 0.957155
O O14 0.005746 0.092306 0.076006
O O15 0.500000 0.500000 0.500000
O O16 0.692630 0.411833 0.378030
O O17 0.000000 0.156105 0.750000
#
# Coordination Sequence:
#
# PCOD9273043 Si02
#       8
#     8   8   8   8   8   8   8   8
#     4  10  22  38  60  92 120 162 208 260 313 378
#     4  10  21  37  60  91 122 163 208 260 308 377
#     4  12  23  42  64  92 129 167 210 265 321 384
#     4  10  20  37  62  89 122 165 214 249 313 369
#     4  10  22  39  64  88 123 167 209 255 318 372
#     4  11  22  38  61  87 124 160 205 258 320 377
#     4  10  20  38  62  88 126 163 208 260 307 370
#     4  11  24  38  65  91 123 165 208 259 325 385
#
# _framework density 25.800522999999998
#
# number of rings (size 3 to 8) (size 9 to 14) (size 15 to 20)
#    0.000    1.500    3.750    1.500    1.750    1.000 
#    0.000    0.625    0.000    3.000    0.000    0.000 
#    0.000    0.000    0.000    0.000    0.000    0.000 
#
# Total GULP energy -178543.738401 kJ/mol
# GULP energy per Si atom -5579.491825 kJ/mol
# Density = 2.574180 g / cm^3
# Si number density = 25.800523 Si / 1000 Ang^3
#
#
#
# Elastic Constant Matrix: (Units=GPa)
#
#
# Indices 1 2 3 4 5 6 
#
# 1 233.3732 28.1442 26.8474 0.0012 -9.9399 0.0010
# 2 28.1442 54.9337 1.9927 0.0066 -3.2087 0.0009
# 3 26.8474 1.9927 78.9431 -0.0001 6.7393 0.0000
# 4 0.0012 0.0066 -0.0001 27.4298 0.0004 -3.5362
# 5 -9.9399 -3.2087 6.7393 0.0004 32.9453 0.0003
# 6 0.0010 0.0009 0.0000 -3.5362 0.0003 40.4318
#
#
#
# Elastic Compliance Matrix: (Units=1/GPa)
#
#
# Indices 1 2 3 4 5 6 
#
# 1 0.004830 -0.002320 -0.001719 0.000000 0.001583 0.000000
# 2 -0.002320 0.019452 0.000199 -0.000005 0.001154 -0.000001
# 3 -0.001719 0.000199 0.013526 0.000000 -0.003266 0.000000
# 4 0.000000 -0.000005 0.000000 0.036872 -0.000001 0.003225
# 5 0.001583 0.001154 -0.003266 -0.000001 0.031611 0.000000
# 6 0.000000 -0.000001 0.000000 0.003225 0.000000 0.025015
#
#
# Mechanical properties :
#
#
# Convention : Reuss Voigt Hill
#
# Bulk Modulus (GPa) = 33.19051 53.46874 43.32962
# Shear Modulus (GPa) = 33.55050 40.84577 37.19813
#
# Velocity S-wave (km/s) = 3.60999 3.98318 3.80117
# Velocity P-wave (km/s) = 5.50166 6.47481 6.00797
#
# Compressibility (1/GPa) = 0.03012909
#
# Stress axis : x y z
#
# Youngs Moduli (GPa) = 207.04254 51.40760 73.93278
#
# Poissons Ratio (x) = 0.11925 0.12710
# Poissons Ratio (y) = 0.48027 -0.01474
# Poissons Ratio (z) = 0.35594 -0.01025
#
# Static dielectric constant tensor:
#      x y z
#    x 2.041050 0.000000 0.058370 
#    y 0.000000 2.214820 0.000000 
#    z 0.058370 0.000000 2.220350 
# 
# From -- ./inp_files/313113.got.cif
#   From: 2010.05.17/outbox.cif.g08.bks.cpg/sg15_157_cif.got.tgz:313113.got - 2010.06.03 18:47:42.
