data_PCOD9273263
_publ_section_title
;
Structure prediction by ZEFSAII (Michael W. Deem and Ramdas Pophale) SiO2 
 PCOD9273263
Probable space group: C 2/C
;
_chemical_formula_sum "Si O2"
_cell_formula_units_Z 48
_cell_length_a 13.435325
_cell_length_b 16.599510
_cell_length_c 9.863771
_cell_angle_alpha 90.000000
_cell_angle_beta 90.479584
_cell_angle_gamma 90.000000
_cell_volume 2199.739289
_symmetry_space_group_name_H-M "C 2/C"
_symmetry_group_IT_number 15
_symmetry_cell_setting 'monoclinic'
loop_
_space_group_symop_operation_xyz
x,y,z
-x,y,1/2-z
-x,-y,-z
x,-y,1/2+z
1/2+x,1/2+y,z
1/2-x,1/2+y,1/2-z
1/2-x,1/2-y,-z
1/2+x,1/2-y,1/2+z
loop_
_atom_site_type_symbol
_atom_site_label
_atom_site_fract_x
_atom_site_fract_y
_atom_site_fract_z
Si Si1 0.625371 0.454769 0.500690
Si Si2 0.500000 0.508406 0.750000
Si Si3 0.000000 0.315896 0.750000
Si Si4 0.197884 0.872004 0.921490
Si Si5 0.604950 0.216932 0.982854
Si Si6 0.807357 0.415838 0.647307
Si Si7 0.445396 0.949380 0.113707
O O1 0.560222 0.454402 0.639232
O O2 0.569466 0.440401 0.355972
O O3 0.652900 0.549638 0.489692
O O4 0.726180 0.402978 0.526653
O O5 0.910471 0.366519 0.673815
O O6 0.056765 0.269641 0.630425
O O7 0.117885 0.800569 0.906839
O O8 0.247241 0.901462 0.783627
O O9 0.288309 0.827909 0.000199
O O10 0.545675 0.144961 0.911876
O O11 0.838806 0.508805 0.628212
O O12 0.500000 0.969166 0.250000
O O13 0.500000 0.000000 0.000000
#
# Coordination Sequence:
#
# PCOD9273263 Si02
#       7
#     8   4   4   8   8   8   8
#     4  11  21  40  62  91 124 170 231 279 328 382
#     4  10  24  39  60  91 114 168 236 282 316 377
#     4  10  20  37  64 103 138 176 208 276 346 407
#     4  10  21  38  62  92 131 182 215 272 330 395
#     4  10  21  38  59  96 141 173 217 263 342 408
#     4  11  20  36  67  97 135 169 222 273 330 400
#     4  12  22  37  64 103 136 174 216 265 331 408
#
# _framework density 21.820768999999999
#
# number of rings (size 3 to 8) (size 9 to 14) (size 15 to 20)
#    0.000    1.333    5.833    1.000    0.000    0.667 
#    1.500    0.000    0.000    1.000    0.000    0.000 
#    0.000    0.000    0.000    0.000    0.000    0.000 
#
# Total GULP energy -133633.492193 kJ/mol
# GULP energy per Si atom -5568.062175 kJ/mol
# Density = 2.177110 g / cm^3
# Si number density = 21.820769 Si / 1000 Ang^3
#
#
#
# Elastic Constant Matrix: (Units=GPa)
#
#
# Indices 1 2 3 4 5 6 
#
# 1 97.3765 24.6190 48.1212 0.0000 11.2784 0.0000
# 2 24.6190 78.3586 32.6886 0.0000 -33.1515 0.0000
# 3 48.1212 32.6886 121.1269 0.0000 -0.8617 0.0000
# 4 0.0000 0.0000 0.0000 10.9659 0.0000 0.6112
# 5 11.2784 -33.1515 -0.8617 0.0000 50.7950 0.0000
# 6 0.0000 0.0000 0.0000 0.6112 0.0000 36.8252
#
#
#
# Elastic Compliance Matrix: (Units=1/GPa)
#
#
# Indices 1 2 3 4 5 6 
#
# 1 0.014710 -0.005849 -0.004317 0.000000 -0.007157 0.000000
# 2 -0.005849 0.023072 -0.003787 0.000000 0.016293 0.000000
# 3 -0.004317 -0.003787 0.010983 0.000000 -0.001327 0.000000
# 4 0.000000 0.000000 0.000000 0.091276 0.000000 -0.001515
# 5 -0.007157 0.016293 -0.001327 0.000000 0.031887 0.000000
# 6 0.000000 0.000000 0.000000 -0.001515 0.000000 0.027180
#
#
# Mechanical properties :
#
#
# Convention : Reuss Voigt Hill
#
# Bulk Modulus (GPa) = 47.93642 56.41328 52.17485
# Shear Modulus (GPa) = 21.37049 32.47943 26.92496
#
# Velocity S-wave (km/s) = 3.13288 3.86225 3.51652
# Velocity P-wave (km/s) = 5.92474 6.76745 6.36007
#
# Compressibility (1/GPa) = 0.02086097
#
# Stress axis : x y z
#
# Youngs Moduli (GPa) = 67.98022 43.34219 91.04781
#
# Poissons Ratio (x) = 0.25350 0.39301
# Poissons Ratio (y) = 0.39760 0.34480
# Poissons Ratio (z) = 0.29344 0.16414
#
# Static dielectric constant tensor:
#      x y z
#    x 1.941510 0.000000 0.036990 
#    y 0.000000 1.786380 0.000000 
#    z 0.036990 0.000000 1.778130 
# 
# From -- ./inp_files/39689.got.cif
#   From: 2010.05.17/outbox.cif.g08.bks.cpg/sg15_20_cif.got.tgz:39689.got - 2010.06.03 18:47:42.
