data_PCOD9273223
_publ_section_title
;
Structure prediction by ZEFSAII (Michael W. Deem and Ramdas Pophale) SiO2 
 PCOD9273223
Probable space group: C 2/C
;
_chemical_formula_sum "Si O2"
_cell_formula_units_Z 60
_cell_length_a 23.682924
_cell_length_b 21.967219
_cell_length_c 5.271512
_cell_angle_alpha 90.000000
_cell_angle_beta 83.102015
_cell_angle_gamma 90.000000
_cell_volume 2722.642102
_symmetry_space_group_name_H-M "C 2/C"
_symmetry_group_IT_number 15
_symmetry_cell_setting 'monoclinic'
loop_
_space_group_symop_operation_xyz
x,y,z
-x,y,1/2-z
-x,-y,-z
x,-y,1/2+z
1/2+x,1/2+y,z
1/2-x,1/2+y,1/2-z
1/2-x,1/2-y,-z
1/2+x,1/2-y,1/2+z
loop_
_atom_site_type_symbol
_atom_site_label
_atom_site_fract_x
_atom_site_fract_y
_atom_site_fract_z
Si Si1 0.064092 0.159426 0.297650
Si Si2 0.169520 0.479353 0.484443
Si Si3 0.710291 0.206472 0.260946
Si Si4 0.846056 0.344480 0.199458
Si Si5 0.186021 0.166685 0.000101
Si Si6 0.537955 0.781227 0.483570
Si Si7 0.298532 0.473783 0.023151
Si Si8 0.500000 0.458578 0.750000
O O1 0.119716 0.171352 0.102883
O O2 0.066384 0.212829 0.509481
O O3 0.053548 0.086655 0.288332
O O4 0.000000 0.174822 0.250000
O O5 0.143657 0.522965 0.281034
O O6 0.165975 0.414780 0.349608
O O7 0.234261 0.501015 0.509886
O O8 0.672799 0.175781 0.508889
O O9 0.773228 0.180710 0.282078
O O10 0.702964 0.278298 0.308480
O O11 0.690038 0.189493 0.995919
O O12 0.910025 0.326207 0.098126
O O13 0.199342 0.097501 0.912766
O O14 0.500000 0.793999 0.750000
O O15 0.500000 0.787629 0.250000
O O16 0.325674 0.512068 0.235881
O O17 0.500000 0.500000 0.500000
#
# Coordination Sequence:
#
# PCOD9273223 Si02
#       8
#     8   8   8   8   8   8   8   4
#     4   9  23  45  68  93 135 178 234 281 339 394
#     4  10  20  37  63  92 129 177 220 261 322 406
#     4  11  25  40  65 105 143 175 221 286 361 400
#     4  12  23  44  71 103 140 178 230 278 349 415
#     4  11  23  43  65 102 141 183 224 289 342 415
#     4  11  24  44  72 103 133 178 228 284 343 404
#     4  10  21  38  59  87 126 178 226 263 324 399
#     4  10  24  44  66  94 128 178 238 288 338 390
#
# _framework density 22.037419
#
# number of rings (size 3 to 8) (size 9 to 14) (size 15 to 20)
#    0.400    1.067    1.333    4.800    2.800    4.267 
#    0.000    0.000    0.000    2.400    0.000    0.000 
#    0.000    0.000    0.000    0.000    0.000    0.000 
#
# Total GULP energy -167033.365471 kJ/mol
# GULP energy per Si atom -5567.778849 kJ/mol
# Density = 2.198726 g / cm^3
# Si number density = 22.037419 Si / 1000 Ang^3
#
#
#
# Elastic Constant Matrix: (Units=GPa)
#
#
# Indices 1 2 3 4 5 6 
#
# 1 98.8110 34.5910 16.7649 0.0000 -13.7834 0.0000
# 2 34.5910 100.1056 1.7293 0.0000 -3.8086 0.0000
# 3 16.7649 1.7293 111.8531 0.0000 -5.2109 0.0000
# 4 0.0000 0.0000 0.0000 8.7508 0.0000 -3.9521
# 5 -13.7834 -3.8086 -5.2109 0.0000 13.7038 0.0000
# 6 0.0000 0.0000 0.0000 -3.9521 0.0000 47.1895
#
#
#
# Elastic Compliance Matrix: (Units=1/GPa)
#
#
# Indices 1 2 3 4 5 6 
#
# 1 0.013476 -0.004181 -0.001403 0.000000 0.011859 0.000000
# 2 -0.004181 0.011394 0.000409 0.000000 -0.000883 0.000000
# 3 -0.001403 0.000409 0.009248 0.000000 0.002219 0.000000
# 4 0.000000 0.000000 0.000000 0.118768 0.000000 0.009947
# 5 0.011859 -0.000883 0.002219 0.000000 0.085499 0.000000
# 6 0.000000 0.000000 0.000000 0.009947 0.000000 0.022024
#
#
# Mechanical properties :
#
#
# Convention : Reuss Voigt Hill
#
# Bulk Modulus (GPa) = 42.07280 46.32667 44.19974
# Shear Modulus (GPa) = 17.94167 31.10778 24.52472
#
# Velocity S-wave (km/s) = 2.85642 3.76119 3.33959
# Velocity P-wave (km/s) = 5.47830 6.31898 5.91360
#
# Compressibility (1/GPa) = 0.02376833
#
# Stress axis : x y z
#
# Youngs Moduli (GPa) = 74.20412 87.76874 108.13607
#
# Poissons Ratio (x) = 0.36698 0.15169
# Poissons Ratio (y) = 0.31027 -0.04427
# Poissons Ratio (z) = 0.10409 -0.03593
#
# Static dielectric constant tensor:
#      x y z
#    x 1.750520 0.000000 -0.041780 
#    y 0.000000 1.925050 0.000000 
#    z -0.041780 0.000000 1.911400 
# 
# From -- ./inp_files/15836.got.cif
#   From: 2010.05.17/outbox.cif.g08.bks.cpg/sg15_8_cif.got.tgz:15836.got - 2010.06.03 18:47:42.
