data_PCOD9273481
_publ_section_title
;
Structure prediction by ZEFSAII (Michael W. Deem and Ramdas Pophale) SiO2 
 PCOD9273481
Probable space group: C 2/C
;
_chemical_formula_sum "Si O2"
_cell_formula_units_Z 48
_cell_length_a 13.242378
_cell_length_b 29.495783
_cell_length_c 8.909211
_cell_angle_alpha 90.000000
_cell_angle_beta 45.769818
_cell_angle_gamma 90.000000
_cell_volume 2493.489646
_symmetry_space_group_name_H-M "C 2/C"
_symmetry_group_IT_number 15
_symmetry_cell_setting 'monoclinic'
loop_
_space_group_symop_operation_xyz
x,y,z
-x,y,1/2-z
-x,-y,-z
x,-y,1/2+z
1/2+x,1/2+y,z
1/2-x,1/2+y,1/2-z
1/2-x,1/2-y,-z
1/2+x,1/2-y,1/2+z
loop_
_atom_site_type_symbol
_atom_site_label
_atom_site_fract_x
_atom_site_fract_y
_atom_site_fract_z
Si Si1 0.349941 0.024386 0.120231
Si Si2 0.736588 0.768023 0.183312
Si Si3 0.901799 0.377108 0.501524
Si Si4 0.161442 0.033891 0.023909
Si Si5 0.041347 0.288097 0.880562
Si Si6 0.657701 0.639045 0.034101
O O1 0.381622 0.077062 0.115249
O O2 0.284772 0.027307 0.020357
O O3 0.219571 0.000737 0.340526
O O4 0.500000 0.000000 0.000000
O O5 0.819030 0.738594 0.219662
O O6 0.575887 0.764720 0.395651
O O7 0.750000 0.750000 0.000000
O O8 0.787628 0.820535 0.127802
O O9 0.953616 0.338686 0.559235
O O10 0.755304 0.361410 0.580397
O O11 0.000000 0.383086 0.250000
O O12 0.165211 0.086837 0.968040
O O13 0.000000 0.025850 0.250000
O O14 0.000000 0.286887 0.750000
O O15 0.500000 0.648347 0.250000
#
# Coordination Sequence:
#
# PCOD9273481 Si02
#       6
#     8   8   8   8   8   8
#     4  11  22  37  64  93 126 166 220 268 325 385
#     4  12  22  42  69  92 123 175 219 255 315 396
#     4  11  21  42  64  92 124 169 218 264 313 392
#     4  10  22  40  62  90 131 170 213 271 324 385
#     4  12  26  41  63  97 138 161 207 275 334 374
#     4  10  20  37  66  93 117 162 227 260 297 384
#
# _framework density 19.250129999999999
#
# number of rings (size 3 to 8) (size 9 to 14) (size 15 to 20)
#    0.000    1.000    3.333    5.000    0.000    1.333 
#    0.000    0.000    0.000    0.000    0.000    0.000 
#    0.000    0.000    0.000    0.000    0.000    0.000 
#
# Total GULP energy -133802.892245 kJ/mol
# GULP energy per Si atom -5575.120510 kJ/mol
# Density = 1.920632 g / cm^3
# Si number density = 19.250130 Si / 1000 Ang^3
#
#
#
# Elastic Constant Matrix: (Units=GPa)
#
#
# Indices 1 2 3 4 5 6 
#
# 1 60.0822 10.7293 -0.4576 0.0000 -4.5540 0.0000
# 2 10.7293 96.7646 10.7222 0.0000 13.3311 0.0000
# 3 -0.4576 10.7222 31.2197 0.0000 -4.2580 0.0000
# 4 0.0000 0.0000 0.0000 23.3712 0.0000 -5.3473
# 5 -4.5540 13.3311 -4.2580 0.0000 36.9123 0.0000
# 6 0.0000 0.0000 0.0000 -5.3473 0.0000 30.7870
#
#
#
# Elastic Compliance Matrix: (Units=1/GPa)
#
#
# Indices 1 2 3 4 5 6 
#
# 1 0.017356 -0.002545 0.001571 0.000000 0.003242 0.000000
# 2 -0.002545 0.011860 -0.004813 0.000000 -0.005152 0.000000
# 3 0.001571 -0.004813 0.034514 0.000000 0.005913 0.000000
# 4 0.000000 0.000000 0.000000 0.044558 0.000000 0.007739
# 5 0.003242 -0.005152 0.005913 0.000000 0.030034 0.000000
# 6 0.000000 0.000000 0.000000 0.007739 0.000000 0.033825
#
#
# Mechanical properties :
#
#
# Convention : Reuss Voigt Hill
#
# Bulk Modulus (GPa) = 19.17393 25.56159 22.36776
# Shear Modulus (GPa) = 24.86230 29.35225 27.10728
#
# Velocity S-wave (km/s) = 3.59770 3.90908 3.75662
# Velocity P-wave (km/s) = 5.21919 5.80362 5.51915
#
# Compressibility (1/GPa) = 0.05215415
#
# Stress axis : x y z
#
# Youngs Moduli (GPa) = 57.61685 84.31884 28.97399
#
# Poissons Ratio (x) = 0.21460 -0.04551
# Poissons Ratio (y) = 0.14664 0.13946
# Poissons Ratio (z) = -0.09049 0.40584
#
# Static dielectric constant tensor:
#      x y z
#    x 1.669280 0.000000 -0.024920 
#    y 0.000000 1.740670 0.000000 
#    z -0.024920 0.000000 1.636060 
# 
# From -- ./inp_files/43778.got.cif
#   From: 2010.05.17/outbox.cif.g08.bks.cpg/sg15_22_cif.got.tgz:43778.got - 2010.06.03 18:47:42.
