data_PCOD9273426
_publ_section_title
;
Structure prediction by ZEFSAII (Michael W. Deem and Ramdas Pophale) SiO2 
 PCOD9273426
Probable space group: C 2/C
;
_chemical_formula_sum "Si O2"
_cell_formula_units_Z 48
_cell_length_a 10.390992
_cell_length_b 17.421711
_cell_length_c 18.735350
_cell_angle_alpha 90.000000
_cell_angle_beta 139.578387
_cell_angle_gamma 90.000000
_cell_volume 2199.162908
_symmetry_space_group_name_H-M "C 2/C"
_symmetry_group_IT_number 15
_symmetry_cell_setting 'monoclinic'
loop_
_space_group_symop_operation_xyz
x,y,z
-x,y,1/2-z
-x,-y,-z
x,-y,1/2+z
1/2+x,1/2+y,z
1/2-x,1/2+y,1/2-z
1/2-x,1/2-y,-z
1/2+x,1/2-y,1/2+z
loop_
_atom_site_type_symbol
_atom_site_label
_atom_site_fract_x
_atom_site_fract_y
_atom_site_fract_z
Si Si1 0.500000 0.000000 0.000000
Si Si2 0.804603 0.655819 0.439373
Si Si3 0.093261 0.285768 0.673207
Si Si4 0.107778 0.125195 0.610197
Si Si5 0.518389 0.706654 0.088366
Si Si6 0.000000 0.529928 0.750000
Si Si7 0.315800 0.080633 0.052579
O O1 0.657381 0.066219 0.038466
O O2 0.397064 0.062889 0.008778
O O3 0.811979 0.683353 0.360910
O O4 0.603173 0.681296 0.393321
O O5 0.972739 0.704440 0.552488
O O6 0.250438 0.305812 0.800792
O O7 0.084870 0.194654 0.657123
O O8 0.888985 0.331719 0.598078
O O9 0.072100 0.160999 0.516646
O O10 0.919091 0.070947 0.542242
O O11 0.317594 0.082460 0.700107
O O12 0.922871 0.475796 0.653613
#
# Coordination Sequence:
#
# PCOD9273426 Si02
#       7
#     4   8   8   8   8   4   8
#     4  10  22  40  62  86 134 174 210 268 350 390
#     4   9  20  35  60  92 127 168 220 282 325 400
#     4  10  22  39  68  92 130 179 226 273 346 402
#     4  11  25  42  67 101 133 175 232 285 331 421
#     4  10  20  37  65  93 128 166 230 278 329 393
#     4  12  26  42  76 100 136 180 228 280 360 398
#     4  11  24  45  64  96 139 178 222 286 343 410
#
# _framework density 21.826485000000002
#
# number of rings (size 3 to 8) (size 9 to 14) (size 15 to 20)
#    0.000    1.667    0.000    3.500    9.333    1.333 
#    0.000    2.500    0.000    0.000    0.000    0.000 
#    0.000    0.000    0.000    0.000    0.000    0.000 
#
# Total GULP energy -133629.737964 kJ/mol
# GULP energy per Si atom -5567.905748 kJ/mol
# Density = 2.177681 g / cm^3
# Si number density = 21.826485 Si / 1000 Ang^3
#
#
#
# Elastic Constant Matrix: (Units=GPa)
#
#
# Indices 1 2 3 4 5 6 
#
# 1 75.5427 8.5213 28.2348 0.0000 11.9942 0.0000
# 2 8.5213 93.2692 48.2964 0.0001 8.6780 -0.0001
# 3 28.2348 48.2964 94.5823 -0.0003 27.8118 0.0002
# 4 0.0000 0.0001 -0.0003 19.7173 0.0000 6.2125
# 5 11.9942 8.6780 27.8118 0.0000 23.8257 0.0000
# 6 0.0000 -0.0001 0.0002 6.2125 0.0000 16.1696
#
#
#
# Elastic Compliance Matrix: (Units=1/GPa)
#
#
# Indices 1 2 3 4 5 6 
#
# 1 0.015168 0.001045 -0.004118 0.000000 -0.003210 0.000000
# 2 0.001045 0.015074 -0.009501 0.000000 0.005074 0.000000
# 3 -0.004118 -0.009501 0.022880 0.000000 -0.021174 0.000000
# 4 0.000000 0.000000 0.000000 0.057702 0.000000 -0.022170
# 5 -0.003210 0.005074 -0.021174 0.000000 0.066456 0.000000
# 6 0.000000 0.000000 0.000000 -0.022170 0.000000 0.070362
#
#
# Mechanical properties :
#
#
# Convention : Reuss Voigt Hill
#
# Bulk Modulus (GPa) = 35.74733 48.16659 41.95696
# Shear Modulus (GPa) = 17.72327 23.83198 20.77763
#
# Velocity S-wave (km/s) = 2.85267 3.30795 3.08871
# Velocity P-wave (km/s) = 5.22147 6.05854 5.65552
#
# Compressibility (1/GPa) = 0.02797412
#
# Stress axis : x y z
#
# Youngs Moduli (GPa) = 65.92654 66.33946 43.70633
#
# Poissons Ratio (x) = -0.06934 0.17998
# Poissons Ratio (y) = -0.06890 0.41527
# Poissons Ratio (z) = 0.27148 0.63031
#
# Static dielectric constant tensor:
#      x y z
#    x 1.800800 0.000000 -0.023360 
#    y 0.000000 1.824980 0.000000 
#    z -0.023360 0.000000 1.784670 
# 
# From -- ./inp_files/270667.got.cif
#   From: 2010.05.17/outbox.cif.g08.bks.cpg/sg15_136_cif.got.tgz:270667.got - 2010.06.03 18:47:42.
