data_PCOD9273593
_publ_section_title
;
Structure prediction by ZEFSAII (Michael W. Deem and Ramdas Pophale) SiO2 
 PCOD9273593
Probable space group: C 2/C
;
_chemical_formula_sum "Si O2"
_cell_formula_units_Z 60
_cell_length_a 17.425778
_cell_length_b 19.019889
_cell_length_c 9.046225
_cell_angle_alpha 90.000000
_cell_angle_beta 105.600550
_cell_angle_gamma 90.000000
_cell_volume 2887.792418
_symmetry_space_group_name_H-M "C 2/C"
_symmetry_group_IT_number 15
_symmetry_cell_setting 'monoclinic'
loop_
_space_group_symop_operation_xyz
x,y,z
-x,y,1/2-z
-x,-y,-z
x,-y,1/2+z
1/2+x,1/2+y,z
1/2-x,1/2+y,1/2-z
1/2-x,1/2-y,-z
1/2+x,1/2-y,1/2+z
loop_
_atom_site_type_symbol
_atom_site_label
_atom_site_fract_x
_atom_site_fract_y
_atom_site_fract_z
Si Si1 0.629775 0.640217 0.767396
Si Si2 0.948167 0.922558 0.542037
Si Si3 0.000000 0.800714 0.750000
Si Si4 0.179748 0.715589 0.153341
Si Si5 0.146645 0.280762 0.285961
Si Si6 0.193638 0.421551 0.154780
Si Si7 0.119768 0.938892 0.546489
Si Si8 0.301023 0.067904 0.193730
O O1 0.566668 0.599926 0.634174
O O2 0.637516 0.720757 0.720435
O O3 0.713330 0.600427 0.776932
O O4 0.614159 0.625877 0.930558
O O5 0.941121 0.851038 0.627603
O O6 0.041185 0.941817 0.606217
O O7 0.889801 0.986933 0.545823
O O8 0.936607 0.754281 0.804122
O O9 0.274011 0.736086 0.212391
O O10 0.167519 0.638993 0.216117
O O11 0.152633 0.713365 0.968011
O O12 0.150697 0.356155 0.209756
O O13 0.171842 0.494826 0.220611
O O14 0.182587 0.428461 0.973020
O O15 0.204813 0.933793 0.664922
#
# Coordination Sequence:
#
# PCOD9273593 Si02
#       8
#     8   8   4   8   8   8   8   8
#     4  10  20  38  54  83 121 161 195 249 287 361
#     4  11  22  35  51  87 124 168 194 236 291 373
#     4  12  24  36  62  84 120 162 202 242 314 360
#     4  10  21  38  63  86 122 159 207 250 310 350
#     4  10  22  40  59  89 119 160 200 258 298 373
#     4  10  22  37  61  87 117 151 207 247 308 351
#     4  10  23  33  56  84 127 163 202 236 292 364
#     4  11  21  38  63  90 118 159 202 261 299 360
#
# _framework density 20.777117000000001
#
# number of rings (size 3 to 8) (size 9 to 14) (size 15 to 20)
#    0.000    1.600    2.667    2.000    3.733    8.000 
#    0.000    0.000    0.000    3.200    0.000    0.000 
#    0.000    0.000    0.000    0.000    0.000    0.000 
#
# Total GULP energy -167468.598117 kJ/mol
# GULP energy per Si atom -5582.286604 kJ/mol
# Density = 2.072983 g / cm^3
# Si number density = 20.777117 Si / 1000 Ang^3
#
#
#
# Elastic Constant Matrix: (Units=GPa)
#
#
# Indices 1 2 3 4 5 6 
#
# 1 36.1304 22.2332 -4.7390 0.0000 -3.9291 0.0000
# 2 22.2332 168.4953 40.3873 0.0000 -15.9033 0.0000
# 3 -4.7390 40.3873 43.7515 0.0000 -4.0460 0.0000
# 4 0.0000 0.0000 0.0000 37.4778 0.0000 -6.4452
# 5 -3.9291 -15.9033 -4.0460 0.0000 14.6764 0.0000
# 6 0.0000 0.0000 0.0000 -6.4452 0.0000 26.8269
#
#
#
# Elastic Compliance Matrix: (Units=1/GPa)
#
#
# Indices 1 2 3 4 5 6 
#
# 1 0.033392 -0.006325 0.009901 0.000000 0.004816 0.000000
# 2 -0.006325 0.009472 -0.008862 0.000000 0.006127 0.000000
# 3 0.009901 -0.008862 0.032290 0.000000 0.001949 0.000000
# 4 0.000000 0.000000 0.000000 0.027832 0.000000 0.006687
# 5 0.004816 0.006127 0.001949 0.000000 0.076603 0.000000
# 6 0.000000 0.000000 0.000000 0.006687 0.000000 0.038883
#
#
# Mechanical properties :
#
#
# Convention : Reuss Voigt Hill
#
# Bulk Modulus (GPa) = 15.48440 40.46002 27.97221
# Shear Modulus (GPa) = 19.95447 28.49593 24.22520
#
# Velocity S-wave (km/s) = 3.10240 3.70740 3.41831
# Velocity P-wave (km/s) = 4.50578 6.15159 5.39185
#
# Compressibility (1/GPa) = 0.06458113
#
# Stress axis : x y z
#
# Youngs Moduli (GPa) = 29.94744 105.57475 30.96968
#
# Poissons Ratio (x) = 0.66773 -0.30662
# Poissons Ratio (y) = 0.18941 0.27446
# Poissons Ratio (z) = -0.29650 0.93561
#
# Static dielectric constant tensor:
#      x y z
#    x 1.738460 0.000000 -0.019550 
#    y 0.000000 1.773740 0.000000 
#    z -0.019550 0.000000 1.782100 
# 
# From -- ./inp_files/56663.got.cif
#   From: 2010.05.17/outbox.cif.g08.bks.cpg/sg15_29_cif.got.tgz:56663.got - 2010.06.03 18:47:42.
