data_PCOD9273173
_publ_section_title
;
Structure prediction by ZEFSAII (Michael W. Deem and Ramdas Pophale) SiO2 
 PCOD9273173
Probable space group: C 2/C
;
_chemical_formula_sum "Si O2"
_cell_formula_units_Z 40
_cell_length_a 24.849039
_cell_length_b 13.723399
_cell_length_c 14.302587
_cell_angle_alpha 90.000000
_cell_angle_beta 21.596999
_cell_angle_gamma 90.000000
_cell_volume 1795.242882
_symmetry_space_group_name_H-M "C 2/C"
_symmetry_group_IT_number 15
_symmetry_cell_setting 'monoclinic'
loop_
_space_group_symop_operation_xyz
x,y,z
-x,y,1/2-z
-x,-y,-z
x,-y,1/2+z
1/2+x,1/2+y,z
1/2-x,1/2+y,1/2-z
1/2-x,1/2-y,-z
1/2+x,1/2-y,1/2+z
loop_
_atom_site_type_symbol
_atom_site_label
_atom_site_fract_x
_atom_site_fract_y
_atom_site_fract_z
Si Si1 0.765496 0.100892 0.554056
Si Si2 0.459131 0.206552 0.720148
Si Si3 0.232574 0.899944 0.019346
Si Si4 0.555921 0.095937 0.057055
Si Si5 0.759261 0.738812 0.640830
O O1 0.640127 0.143666 0.688441
O O2 0.876032 0.192155 0.381126
O O3 0.831197 0.005437 0.398781
O O4 0.689784 0.063544 0.773365
O O5 0.500000 0.154081 0.750000
O O6 0.613698 0.226151 0.424160
O O7 0.410299 0.906418 0.730256
O O8 0.185595 0.820913 0.019051
O O9 0.209673 0.853990 0.158180
O O10 0.500000 0.058105 0.250000
O O11 0.618689 0.202501 0.984265
#
# Coordination Sequence:
#
# PCOD9273173 Si02
#       5
#     8   8   8   8   8
#     4  11  23  41  63  93 123 161 205 252 302 362
#     4  11  23  40  61  89 130 161 199 255 309 352
#     4  10  22  41  64  88 122 161 209 250 295 370
#     4  10  20  37  63  89 120 156 201 249 297 360
#     4  10  21  40  63  86 124 163 199 252 306 356
#
# _framework density 22.281106999999999
#
# number of rings (size 3 to 8) (size 9 to 14) (size 15 to 20)
#    0.000    1.600    4.000    0.600    0.000    3.200 
#    0.000    5.000    0.000    0.000    0.000    0.000 
#    0.000    0.000    0.000    0.000    0.000    0.000 
#
# Total GULP energy -111497.836239 kJ/mol
# GULP energy per Si atom -5574.891812 kJ/mol
# Density = 2.223039 g / cm^3
# Si number density = 22.281107 Si / 1000 Ang^3
#
#
#
# Elastic Constant Matrix: (Units=GPa)
#
#
# Indices 1 2 3 4 5 6 
#
# 1 58.9851 30.4945 12.7654 0.0000 -0.9494 0.0000
# 2 30.4945 97.1987 0.7964 0.0001 1.1699 0.0000
# 3 12.7654 0.7964 54.1386 0.0001 17.4829 0.0000
# 4 0.0000 0.0001 0.0001 -8.3495 0.0000 7.6908
# 5 -0.9494 1.1699 17.4829 0.0000 37.5439 0.0000
# 6 0.0000 0.0000 0.0000 7.6908 0.0000 -9.8644
#
#
#
# Elastic Compliance Matrix: (Units=1/GPa)
#
#
# Indices 1 2 3 4 5 6 
#
# 1 0.021918 -0.006869 -0.006256 -0.000001 0.003681 0.000000
# 2 -0.006869 0.012445 0.001904 0.000001 -0.001448 0.000000
# 3 -0.006256 0.001904 0.023526 0.000001 -0.011173 0.000001
# 4 -0.000001 0.000001 0.000001 -0.424910 -0.000001 -0.331282
# 5 0.003681 -0.001448 -0.011173 -0.000001 0.031977 -0.000001
# 6 0.000000 0.000000 0.000001 -0.331282 -0.000001 -0.359659
#
#
# Mechanical properties :
#
#
# Convention : Reuss Voigt Hill
#
# Bulk Modulus (GPa) = 28.21070 33.15945 30.68507
# Shear Modulus (GPa) = -7.57065 14.95041 3.68988
#
# Velocity S-wave (km/s) = -1.84531 2.59316 1.28828
# Velocity P-wave (km/s) = 2.85456 4.88678 4.00182
#
# Compressibility (1/GPa) = 0.03544755
#
# Stress axis : x y z
#
# Youngs Moduli (GPa) = 45.62462 80.35213 42.50580
#
# Poissons Ratio (x) = 0.55198 0.26591
# Poissons Ratio (y) = 0.31342 -0.08095
# Poissons Ratio (z) = 0.28542 -0.15302
#
# Static dielectric constant tensor:
#      x y z
#    x 1.845490 0.000000 0.022780 
#    y 0.000000 1.834470 0.000000 
#    z 0.022780 0.000000 1.826710 
# 
# From -- ./inp_files/142794.got.cif
#   From: 2010.05.17/outbox.cif.g08.bks.cpg/sg15_72_cif.got.tgz:142794.got - 2010.06.03 18:47:42.
