data_PCOD9273328
_publ_section_title
;
Structure prediction by ZEFSAII (Michael W. Deem and Ramdas Pophale) SiO2 
 PCOD9273328
Probable space group: C 2/C
;
_chemical_formula_sum "Si O2"
_cell_formula_units_Z 40
_cell_length_a 8.127135
_cell_length_b 16.902433
_cell_length_c 19.782192
_cell_angle_alpha 90.000000
_cell_angle_beta 42.568742
_cell_angle_gamma 90.000000
_cell_volume 1838.283138
_symmetry_space_group_name_H-M "C 2/C"
_symmetry_group_IT_number 15
_symmetry_cell_setting 'monoclinic'
loop_
_space_group_symop_operation_xyz
x,y,z
-x,y,1/2-z
-x,-y,-z
x,-y,1/2+z
1/2+x,1/2+y,z
1/2-x,1/2+y,1/2-z
1/2-x,1/2-y,-z
1/2+x,1/2-y,1/2+z
loop_
_atom_site_type_symbol
_atom_site_label
_atom_site_fract_x
_atom_site_fract_y
_atom_site_fract_z
Si Si1 0.782308 0.391833 0.581928
Si Si2 0.490904 0.252817 0.539254
Si Si3 0.656336 0.577626 0.969850
Si Si4 0.000000 0.459030 0.250000
Si Si5 0.776662 0.408135 0.729933
Si Si6 0.000000 0.721976 0.250000
O O1 0.959019 0.316009 0.529506
O O2 0.780033 0.427681 0.507046
O O3 0.832640 0.436048 0.636993
O O4 0.495026 0.374499 0.678583
O O5 0.750000 0.250000 0.500000
O O6 0.487392 0.344374 0.518852
O O7 0.248553 0.233796 0.655118
O O8 0.858087 0.587613 0.850611
O O9 0.500000 0.500000 0.000000
O O10 0.814288 0.518063 0.268053
O O11 0.942266 0.336628 0.705264
#
# Coordination Sequence:
#
# PCOD9273328 Si02
#       6
#     8   8   8   4   8   4
#     4  10  21  40  65  93 133 172 222 282 333 391
#     4  10  21  39  64  99 130 170 221 284 328 402
#     4  11  20  39  63  94 132 175 223 277 334 406
#     4  11  22  36  64  96 120 182 229 262 333 418
#     4  10  20  37  64  93 125 182 219 267 344 405
#     4  11  18  38  66  92 132 172 227 260 351 406
#
# _framework density 21.759435
#
# number of rings (size 3 to 8) (size 9 to 14) (size 15 to 20)
#    0.000    1.600    6.000    1.200    0.000    3.200 
#    0.000    0.000    0.000    2.400    0.000    0.000 
#    0.000    0.000    0.000    0.000    0.000    0.000 
#
# Total GULP energy -111405.536063 kJ/mol
# GULP energy per Si atom -5570.276803 kJ/mol
# Density = 2.170991 g / cm^3
# Si number density = 21.759435 Si / 1000 Ang^3
#
#
#
# Elastic Constant Matrix: (Units=GPa)
#
#
# Indices 1 2 3 4 5 6 
#
# 1 82.4199 15.6945 55.1323 -0.0026 23.7689 0.0016
# 2 15.6945 71.3780 35.4191 -0.0024 -3.2736 0.0018
# 3 55.1323 35.4191 183.2028 0.0003 4.3039 0.0014
# 4 -0.0026 -0.0024 0.0003 37.2031 0.0005 -2.6961
# 5 23.7689 -3.2736 4.3039 0.0005 57.1669 -0.0009
# 6 0.0016 0.0018 0.0014 -2.6961 -0.0009 18.7314
#
#
#
# Elastic Compliance Matrix: (Units=1/GPa)
#
#
# Indices 1 2 3 4 5 6 
#
# 1 0.017765 -0.001840 -0.004823 0.000001 -0.007129 -0.000001
# 2 -0.001840 0.015758 -0.002537 0.000001 0.001858 -0.000001
# 3 -0.004823 -0.002537 0.007370 -0.000001 0.001305 0.000000
# 4 0.000001 0.000001 -0.000001 0.027163 -0.000001 0.003910
# 5 -0.007129 0.001858 0.001305 -0.000001 0.020465 0.000001
# 6 -0.000001 -0.000001 0.000000 0.003910 0.000001 0.053949
#
#
# Mechanical properties :
#
#
# Convention : Reuss Voigt Hill
#
# Bulk Modulus (GPa) = 44.45556 61.05471 52.75513
# Shear Modulus (GPa) = 29.69696 38.00393 33.85045
#
# Velocity S-wave (km/s) = 3.69831 4.18371 3.94847
# Velocity P-wave (km/s) = 6.22185 7.17341 6.71451
#
# Compressibility (1/GPa) = 0.02249437
#
# Stress axis : x y z
#
# Youngs Moduli (GPa) = 56.28896 63.45822 135.69235
#
# Poissons Ratio (x) = 0.11676 0.65446
# Poissons Ratio (y) = 0.10357 0.34419
# Poissons Ratio (z) = 0.27149 0.16097
#
# Static dielectric constant tensor:
#      x y z
#    x 1.866740 0.000000 0.012790 
#    y 0.000000 1.846030 0.000000 
#    z 0.012790 0.000000 1.840260 
# 
# From -- ./inp_files/232465.got.cif
#   From: 2010.05.17/outbox.cif.g08.bks.cpg/sg15_117_cif.got.tgz:232465.got - 2010.06.03 18:47:42.
