data_PCOD9273591
_publ_section_title
;
Structure prediction by ZEFSAII (Michael W. Deem and Ramdas Pophale) SiO2 
 PCOD9273591
Probable space group: C 2/C
;
_chemical_formula_sum "Si O2"
_cell_formula_units_Z 36
_cell_length_a 15.131884
_cell_length_b 15.912388
_cell_length_c 9.239784
_cell_angle_alpha 90.000000
_cell_angle_beta 137.747271
_cell_angle_gamma 90.000000
_cell_volume 1495.957376
_symmetry_space_group_name_H-M "C 2/C"
_symmetry_group_IT_number 15
_symmetry_cell_setting 'monoclinic'
loop_
_space_group_symop_operation_xyz
x,y,z
-x,y,1/2-z
-x,-y,-z
x,-y,1/2+z
1/2+x,1/2+y,z
1/2-x,1/2+y,1/2-z
1/2-x,1/2-y,-z
1/2+x,1/2-y,1/2+z
loop_
_atom_site_type_symbol
_atom_site_label
_atom_site_fract_x
_atom_site_fract_y
_atom_site_fract_z
Si Si1 0.256054 0.192583 0.793868
Si Si2 0.145989 0.424454 0.873164
Si Si3 0.465652 0.710127 0.364263
Si Si4 0.271568 0.496732 0.283620
Si Si5 0.500000 0.544057 0.250000
O O1 0.347238 0.253559 0.812845
O O2 0.103254 0.214120 0.615140
O O3 0.260717 0.101532 0.716780
O O4 0.314445 0.166927 0.020046
O O5 0.169537 0.440761 0.734651
O O6 0.000000 0.441824 0.750000
O O7 0.244974 0.486649 0.081167
O O8 0.500000 0.752355 0.250000
O O9 0.437133 0.613765 0.283795
O O10 0.409776 0.510218 0.532478
#
# Coordination Sequence:
#
# PCOD9273591 Si02
#       5
#     8   8   8   8   4
#     4   9  20  33  59  84 110 148 189 237 281 327
#     4  10  20  38  54  82 117 147 193 225 287 339
#     4   9  16  34  54  88 110 144 193 235 279 331
#     4   9  20  35  56  84 112 150 181 241 279 338
#     4   8  18  34  58  84 112 142 200 230 284 324
#
# _framework density 24.064855999999999
#
# number of rings (size 3 to 8) (size 9 to 14) (size 15 to 20)
#    2.000    0.889    0.000    1.333    0.000    1.778 
#    0.000    1.111    0.000    0.000    0.000    0.000 
#    0.000    0.000    0.000    0.000    0.000    0.000 
#
# Total GULP energy -100230.549813 kJ/mol
# GULP energy per Si atom -5568.363878 kJ/mol
# Density = 2.401008 g / cm^3
# Si number density = 24.064856 Si / 1000 Ang^3
#
#
#
# Elastic Constant Matrix: (Units=GPa)
#
#
# Indices 1 2 3 4 5 6 
#
# 1 42.6113 19.6696 12.2885 0.0000 -1.2845 0.0000
# 2 19.6696 26.4180 21.8227 0.0000 4.9095 0.0000
# 3 12.2885 21.8227 86.9920 0.0000 4.3188 0.0000
# 4 0.0000 0.0000 0.0000 12.5516 0.0000 -6.8269
# 5 -1.2845 4.9095 4.3188 0.0000 40.5037 0.0000
# 6 0.0000 0.0000 0.0000 -6.8269 0.0000 29.2041
#
#
#
# Elastic Compliance Matrix: (Units=1/GPa)
#
#
# Indices 1 2 3 4 5 6 
#
# 1 0.036865 -0.030034 0.002099 0.000000 0.004586 0.000000
# 2 -0.030034 0.073060 -0.013670 0.000000 -0.008351 0.000000
# 3 0.002099 -0.013670 0.014620 0.000000 0.000165 0.000000
# 4 0.000000 0.000000 0.000000 0.091276 0.000000 0.021337
# 5 0.004586 -0.008351 0.000165 0.000000 0.025829 0.000000
# 6 0.000000 0.000000 0.000000 0.021337 0.000000 0.039230
#
#
# Mechanical properties :
#
#
# Convention : Reuss Voigt Hill
#
# Bulk Modulus (GPa) = 24.19348 29.28698 26.74023
# Shear Modulus (GPa) = 13.23212 23.26790 18.25001
#
# Velocity S-wave (km/s) = 2.34744 3.11285 2.75684
# Velocity P-wave (km/s) = 4.17403 5.01161 4.61187
#
# Compressibility (1/GPa) = 0.04133345
#
# Stress axis : x y z
#
# Youngs Moduli (GPa) = 27.12616 13.68746 68.39956
#
# Poissons Ratio (x) = 0.41109 -0.14358
# Poissons Ratio (y) = 0.81471 0.93506
# Poissons Ratio (z) = -0.05694 0.18711
#
# Static dielectric constant tensor:
#      x y z
#    x 2.004910 0.000000 -0.021330 
#    y 0.000000 1.925030 0.000000 
#    z -0.021330 0.000000 2.013670 
# 
# From -- ./inp_files/41877.got.cif
#   From: 2010.05.17/outbox.cif.g08.bks.cpg/sg15_21_cif.got.tgz:41877.got - 2010.06.03 18:47:42.
