data_PCOD9273211
_publ_section_title
;
Structure prediction by ZEFSAII (Michael W. Deem and Ramdas Pophale) SiO2 
 PCOD9273211
Probable space group: C 2/C
;
_chemical_formula_sum "Si O2"
_cell_formula_units_Z 64
_cell_length_a 8.620375
_cell_length_b 22.305832
_cell_length_c 15.406643
_cell_angle_alpha 90.000000
_cell_angle_beta 97.845778
_cell_angle_gamma 90.000000
_cell_volume 2934.729423
_symmetry_space_group_name_H-M "C 2/C"
_symmetry_group_IT_number 15
_symmetry_cell_setting 'monoclinic'
loop_
_space_group_symop_operation_xyz
x,y,z
-x,y,1/2-z
-x,-y,-z
x,-y,1/2+z
1/2+x,1/2+y,z
1/2-x,1/2+y,1/2-z
1/2-x,1/2-y,-z
1/2+x,1/2-y,1/2+z
loop_
_atom_site_type_symbol
_atom_site_label
_atom_site_fract_x
_atom_site_fract_y
_atom_site_fract_z
Si Si1 0.868051 0.821959 0.534299
Si Si2 0.471618 0.411494 0.419183
Si Si3 0.356954 0.501784 0.169737
Si Si4 0.883874 0.305778 0.668134
Si Si5 0.321401 0.368316 0.708616
Si Si6 0.979560 0.691575 0.503669
Si Si7 0.312907 0.904985 0.231279
Si Si8 0.771507 0.177847 0.639296
O O1 0.953895 0.883000 0.512976
O O2 0.827951 0.819000 0.632998
O O3 0.964521 0.764290 0.509891
O O4 0.694936 0.825262 0.479817
O O5 0.568371 0.472496 0.410813
O O6 0.301749 0.417612 0.359354
O O7 0.577374 0.360144 0.379141
O O8 0.500000 0.502716 0.250000
O O9 0.281400 0.567368 0.163425
O O10 0.238354 0.453968 0.200883
O O11 0.781120 0.352578 0.715110
O O12 0.788434 0.248649 0.629387
O O13 0.000000 0.280991 0.750000
O O14 0.978247 0.327781 0.591476
O O15 0.500000 0.372176 0.750000
O O16 0.115664 0.663765 0.572439
O O17 0.500000 0.906178 0.250000
O O18 0.260429 0.840481 0.264400
#
# Coordination Sequence:
#
# PCOD9273211 Si02
#       8
#     8   8   8   8   8   8   8   8
#     4  11  23  40  60  89 128 164 204 258 306 367
#     4  10  20  38  65  88 121 160 207 261 304 362
#     4   8  19  40  60  89 118 157 209 256 305 361
#     4  12  23  40  59  90 126 168 197 246 314 376
#     4  11  24  40  63  90 122 163 210 251 308 377
#     4  11  24  40  58  92 132 161 201 256 310 372
#     4  10  20  37  63  92 118 159 204 260 309 364
#     4  11  22  36  63  89 124 162 208 246 310 371
#
# _framework density 21.807803
#
# number of rings (size 3 to 8) (size 9 to 14) (size 15 to 20)
#    0.000    1.500    2.500    3.750    1.750    2.500 
#    0.000    0.000    0.000    3.750    0.000    0.000 
#    0.000    0.000    0.000    0.000    0.000    0.000 
#
# Total GULP energy -178366.918906 kJ/mol
# GULP energy per Si atom -5573.966216 kJ/mol
# Density = 2.175817 g / cm^3
# Si number density = 21.807803 Si / 1000 Ang^3
#
#
#
# Elastic Constant Matrix: (Units=GPa)
#
#
# Indices 1 2 3 4 5 6 
#
# 1 105.6038 25.8578 9.4570 0.0000 -2.7675 0.0000
# 2 25.8578 80.3533 14.3621 0.0000 -29.0632 0.0000
# 3 9.4570 14.3621 52.1508 0.0000 -16.5269 0.0000
# 4 0.0000 0.0000 0.0000 -0.3626 0.0000 4.1855
# 5 -2.7675 -29.0632 -16.5269 0.0000 37.7571 0.0000
# 6 0.0000 0.0000 0.0000 4.1855 0.0000 12.8043
#
#
#
# Elastic Compliance Matrix: (Units=1/GPa)
#
#
# Indices 1 2 3 4 5 6 
#
# 1 0.010592 -0.004284 -0.001788 0.000000 -0.003304 0.000000
# 2 -0.004284 0.018997 0.000092 0.000000 0.014349 0.000000
# 3 -0.001788 0.000092 0.022588 0.000000 0.009827 0.000000
# 4 0.000000 0.000000 0.000000 -0.577779 0.000000 0.188868
# 5 -0.003304 0.014349 0.009827 0.000000 0.041590 0.000000
# 6 0.000000 0.000000 0.000000 0.188868 0.000000 0.016361
#
#
# Mechanical properties :
#
#
# Convention : Reuss Voigt Hill
#
# Bulk Modulus (GPa) = 24.86405 37.49576 31.17991
# Shear Modulus (GPa) = -11.30489 22.60182 5.64846
#
# Velocity S-wave (km/s) = -2.27928 3.22282 1.61113
# Velocity P-wave (km/s) = 2.12117 5.57493 4.21777
#
# Compressibility (1/GPa) = 0.04021870
#
# Stress axis : x y z
#
# Youngs Moduli (GPa) = 94.41256 52.63969 44.27072
#
# Poissons Ratio (x) = 0.22550 0.07915
# Poissons Ratio (y) = 0.40444 -0.00409
# Poissons Ratio (z) = 0.16880 -0.00487
#
# Static dielectric constant tensor:
#      x y z
#    x 1.823340 0.000000 -0.001210 
#    y 0.000000 1.842840 0.000000 
#    z -0.001210 0.000000 1.818380 
# 
# From -- ./inp_files/137866.got.cif
#   From: 2010.05.17/outbox.cif.g08.bks.cpg/sg15_69_cif.got.tgz:137866.got - 2010.06.03 18:47:42.
