data_PCOD9273153
_publ_section_title
;
Structure prediction by ZEFSAII (Michael W. Deem and Ramdas Pophale) SiO2 
 PCOD9273153
Probable space group: C 2/C
;
_chemical_formula_sum "Si O2"
_cell_formula_units_Z 36
_cell_length_a 24.139165
_cell_length_b 10.805013
_cell_length_c 12.500288
_cell_angle_alpha 90.000000
_cell_angle_beta 23.111506
_cell_angle_gamma 90.000000
_cell_volume 1279.768350
_symmetry_space_group_name_H-M "C 2/C"
_symmetry_group_IT_number 15
_symmetry_cell_setting 'monoclinic'
loop_
_space_group_symop_operation_xyz
x,y,z
-x,y,1/2-z
-x,-y,-z
x,-y,1/2+z
1/2+x,1/2+y,z
1/2-x,1/2+y,1/2-z
1/2-x,1/2-y,-z
1/2+x,1/2-y,1/2+z
loop_
_atom_site_type_symbol
_atom_site_label
_atom_site_fract_x
_atom_site_fract_y
_atom_site_fract_z
Si Si1 0.303661 0.855740 0.825540
Si Si2 0.000000 0.450984 0.750000
Si Si3 0.844103 0.208989 0.562662
Si Si4 0.703579 0.484787 0.689190
Si Si5 0.590364 0.219565 0.890694
O O1 0.263344 0.813407 0.778706
O O2 0.474251 0.840334 0.518924
O O3 0.250000 0.750000 0.000000
O O4 0.237981 0.969771 0.006184
O O5 0.134891 0.526357 0.552123
O O6 0.043225 0.356926 0.579688
O O7 0.848901 0.091216 0.634866
O O8 0.756805 0.196232 0.607612
O O9 0.000000 0.234283 0.250000
O O10 0.595184 0.369348 0.880861
#
# Coordination Sequence:
#
# PCOD9273153 Si02
#       5
#     8   4   8   8   8
#     4   9  20  40  60  87 125 157 203 255 302 366
#     4   8  18  36  58  88 126 158 206 258 290 360
#     4  10  22  38  56  90 125 149 201 260 296 362
#     4   9  19  37  62  86 118 167 200 247 311 363
#     4  10  20  37  63  86 121 165 202 244 314 363
#
# _framework density 28.130091
#
# number of rings (size 3 to 8) (size 9 to 14) (size 15 to 20)
#    0.000    2.667    0.000    1.333    3.111    4.444 
#    4.000    1.111    0.000    0.000    0.000    0.000 
#    0.000    0.000    0.000    0.000    0.000    0.000 
#
# Total GULP energy -100458.146268 kJ/mol
# GULP energy per Si atom -5581.008126 kJ/mol
# Density = 2.806607 g / cm^3
# Si number density = 28.130091 Si / 1000 Ang^3
#
#
#
# Elastic Constant Matrix: (Units=GPa)
#
#
# Indices 1 2 3 4 5 6 
#
# 1 72.1324 27.7925 16.9593 0.0000 0.8204 0.0000
# 2 27.7925 143.4337 26.6775 0.0000 26.5544 0.0000
# 3 16.9593 26.6775 117.9264 0.0000 -3.4305 0.0000
# 4 0.0000 0.0000 0.0000 71.3673 0.0000 15.8616
# 5 0.8204 26.5544 -3.4305 0.0000 38.6242 0.0000
# 6 0.0000 0.0000 0.0000 15.8616 0.0000 74.8588
#
#
#
# Elastic Compliance Matrix: (Units=1/GPa)
#
#
# Indices 1 2 3 4 5 6 
#
# 1 0.015348 -0.002994 -0.001483 0.000000 0.001601 0.000000
# 2 -0.002994 0.009058 -0.001802 0.000000 -0.006324 0.000000
# 3 -0.001483 -0.001802 0.009162 0.000000 0.002084 0.000000
# 4 0.000000 0.000000 0.000000 0.014704 0.000000 -0.003116
# 5 0.001601 -0.006324 0.002084 0.000000 0.030389 0.000000
# 6 0.000000 0.000000 0.000000 -0.003116 0.000000 0.014019
#
#
# Mechanical properties :
#
#
# Convention : Reuss Voigt Hill
#
# Bulk Modulus (GPa) = 47.60279 52.92792 50.26536
# Shear Modulus (GPa) = 44.54643 54.44092 49.49367
#
# Velocity S-wave (km/s) = 3.98375 4.40401 4.19914
# Velocity P-wave (km/s) = 6.17409 6.68705 6.43568
#
# Compressibility (1/GPa) = 0.02100717
#
# Stress axis : x y z
#
# Youngs Moduli (GPa) = 65.15660 110.39839 109.15166
#
# Poissons Ratio (x) = 0.33057 0.16190
# Poissons Ratio (y) = 0.19510 0.19674
# Poissons Ratio (z) = 0.09664 0.19899
#
# Static dielectric constant tensor:
#      x y z
#    x 2.283790 0.000000 -0.162610 
#    y 0.000000 2.460510 0.000000 
#    z -0.162610 0.000000 2.232930 
# 
# From -- ./inp_files/181664.got.cif
#   From: 2010.05.17/outbox.cif.g08.bks.cpg/sg15_91_cif.got.tgz:181664.got - 2010.06.03 18:47:42.
