data_PCOD9273986
_publ_section_title
;
Structure prediction by ZEFSAII (Michael W. Deem and Ramdas Pophale) SiO2 
 PCOD9273986
Probable space group: C 2/C
;
_chemical_formula_sum "Si O2"
_cell_formula_units_Z 60
_cell_length_a 12.671907
_cell_length_b 12.282830
_cell_length_c 19.898742
_cell_angle_alpha 90.000000
_cell_angle_beta 117.167639
_cell_angle_gamma 90.000000
_cell_volume 2755.479185
_symmetry_space_group_name_H-M "C 2/C"
_symmetry_group_IT_number 15
_symmetry_cell_setting 'monoclinic'
loop_
_space_group_symop_operation_xyz
x,y,z
-x,y,1/2-z
-x,-y,-z
x,-y,1/2+z
1/2+x,1/2+y,z
1/2-x,1/2+y,1/2-z
1/2-x,1/2-y,-z
1/2+x,1/2-y,1/2+z
loop_
_atom_site_type_symbol
_atom_site_label
_atom_site_fract_x
_atom_site_fract_y
_atom_site_fract_z
Si Si1 0.315198 0.672081 0.792283
Si Si2 0.838243 0.331764 0.913211
Si Si3 0.963241 0.923901 0.075271
Si Si4 0.441058 0.932464 0.605734
Si Si5 0.472174 0.670987 0.041902
Si Si6 0.412511 0.855759 0.356490
Si Si7 0.767447 0.563180 0.938641
Si Si8 0.000000 0.293444 0.750000
O O1 0.279473 0.761989 0.837232
O O2 0.404832 0.591406 0.857394
O O3 0.195671 0.626654 0.725849
O O4 0.397908 0.725632 0.758732
O O5 0.768412 0.437517 0.915952
O O6 0.959008 0.376715 0.913195
O O7 0.871958 0.252891 0.984596
O O8 0.863479 0.887337 0.098679
O O9 0.953256 0.853864 0.004515
O O10 0.936945 0.049651 0.052317
O O11 0.441478 0.869373 0.675676
O O12 0.485358 0.056420 0.627303
O O13 0.320752 0.929543 0.528750
O O14 0.537940 0.734142 0.120817
O O15 0.356307 0.879629 0.413252
#
# Coordination Sequence:
#
# PCOD9273986 Si02
#       8
#     8   8   8   8   8   8   8   4
#     4  10  22  39  55  86 119 162 190 245 297 358
#     4   9  18  39  60  83 118 153 202 236 302 345
#     4  10  24  37  57  89 126 148 201 242 297 342
#     4  10  20  38  60  94 115 150 196 255 290 351
#     4  10  20  40  57  86 115 162 193 244 288 356
#     4  11  21  38  65  83 119 157 200 238 302 347
#     4  11  20  37  64  91 113 155 198 257 283 358
#     4  10  22  38  58  84 122 146 200 246 296 344
#
# _framework density 21.774798000000001
#
# number of rings (size 3 to 8) (size 9 to 14) (size 15 to 20)
#    0.000    1.867    2.667    1.600    1.867    4.267 
#    4.800    0.000    0.000    0.000    0.000    0.000 
#    0.000    0.000    0.000    0.000    0.000    0.000 
#
# Total GULP energy -167573.687628 kJ/mol
# GULP energy per Si atom -5585.789588 kJ/mol
# Density = 2.172524 g / cm^3
# Si number density = 21.774798 Si / 1000 Ang^3
#
#
#
# Elastic Constant Matrix: (Units=GPa)
#
#
# Indices 1 2 3 4 5 6 
#
# 1 27.5412 -6.3015 2.8845 0.0000 -4.1088 0.0000
# 2 -6.3015 65.5309 1.9974 0.0000 -2.8855 0.0000
# 3 2.8845 1.9974 93.9879 0.0000 11.5219 0.0000
# 4 0.0000 0.0000 0.0000 26.0254 0.0000 -5.9882
# 5 -4.1088 -2.8855 11.5219 0.0000 26.1660 0.0000
# 6 0.0000 0.0000 0.0000 -5.9882 0.0000 0.8426
#
#
#
# Elastic Compliance Matrix: (Units=1/GPa)
#
#
# Indices 1 2 3 4 5 6 
#
# 1 0.038594 0.004107 -0.002188 0.000000 0.007477 0.000000
# 2 0.004107 0.015800 -0.000798 0.000000 0.002738 0.000000
# 3 -0.002188 -0.000798 0.011392 0.000000 -0.005448 0.000000
# 4 0.000000 0.000000 0.000000 -0.060492 0.000000 -0.429901
# 5 0.007477 0.002738 -0.005448 0.000000 0.042092 0.000000
# 6 0.000000 0.000000 0.000000 -0.429901 0.000000 -1.868410
#
#
# Mechanical properties :
#
#
# Convention : Reuss Voigt Hill
#
# Bulk Modulus (GPa) = 14.69993 20.46899 17.58446
# Shear Modulus (GPa) = -2.77687 23.17210 10.19762
#
# Velocity S-wave (km/s) = -1.13050 3.26570 2.16642
# Velocity P-wave (km/s) = 2.24978 4.86215 3.78827
#
# Compressibility (1/GPa) = 0.06802752
#
# Stress axis : x y z
#
# Youngs Moduli (GPa) = 25.91103 63.29195 87.78390
#
# Poissons Ratio (x) = -0.25995 0.19210
# Poissons Ratio (y) = -0.10642 0.07001
# Poissons Ratio (z) = 0.05670 0.05048
#
# Static dielectric constant tensor:
#      x y z
#    x 1.790550 0.000000 -0.007600 
#    y 0.000000 1.792040 0.000000 
#    z -0.007600 0.000000 1.789000 
# 
# From -- ./inp_files/243784.got.cif
#   From: 2010.05.17/outbox.cif.g08.bks.cpg/sg15_122_cif.got.tgz:243784.got - 2010.06.03 18:47:42.
