data_PCOD9273378
_publ_section_title
;
Structure prediction by ZEFSAII (Michael W. Deem and Ramdas Pophale) SiO2 
 PCOD9273378
Probable space group: C 2/C
;
_chemical_formula_sum "Si O2"
_cell_formula_units_Z 40
_cell_length_a 20.250239
_cell_length_b 8.896573
_cell_length_c 13.688775
_cell_angle_alpha 90.000000
_cell_angle_beta 39.744225
_cell_angle_gamma 90.000000
_cell_volume 1576.754102
_symmetry_space_group_name_H-M "C 2/C"
_symmetry_group_IT_number 15
_symmetry_cell_setting 'monoclinic'
loop_
_space_group_symop_operation_xyz
x,y,z
-x,y,1/2-z
-x,-y,-z
x,-y,1/2+z
1/2+x,1/2+y,z
1/2-x,1/2+y,1/2-z
1/2-x,1/2-y,-z
1/2+x,1/2-y,1/2+z
loop_
_atom_site_type_symbol
_atom_site_label
_atom_site_fract_x
_atom_site_fract_y
_atom_site_fract_z
Si Si1 0.710685 0.906120 0.248122
Si Si2 0.440824 0.176970 0.732273
Si Si3 0.404046 0.370857 0.295461
Si Si4 0.110334 0.716662 0.384169
Si Si5 0.319294 0.927999 0.990248
O O1 0.655035 0.798553 0.232850
O O2 0.825097 0.839434 0.127689
O O3 0.673056 0.901949 0.402926
O O4 0.684452 0.082827 0.256965
O O5 0.500000 0.270209 0.750000
O O6 0.525658 0.146482 0.551595
O O7 0.392466 0.048573 0.856403
O O8 0.500000 0.422084 0.250000
O O9 0.437774 0.307899 0.151246
O O10 0.356768 0.227750 0.403758
O O11 0.300701 0.468926 0.396268
#
# Coordination Sequence:
#
# PCOD9273378 Si02
#       5
#     8   8   8   8   8
#     4  11  24  43  64 102 134 175 230 278 334 404
#     4  12  23  40  71  97 131 181 232 270 345 411
#     4  10  20  37  65 102 131 172 232 287 328 386
#     4  11  24  41  69 100 136 182 220 285 333 409
#     4  10  21  36  64  98 131 174 223 279 326 403
#
# _framework density 25.368572
#
# number of rings (size 3 to 8) (size 9 to 14) (size 15 to 20)
#    0.000    1.200    4.000    2.400    0.000    0.800 
#    0.000    1.000    4.400    0.000   10.400    0.000 
#    0.000    0.000    0.000    0.000    0.000    0.000 
#
# Total GULP energy -111504.083653 kJ/mol
# GULP energy per Si atom -5575.204183 kJ/mol
# Density = 2.531083 g / cm^3
# Si number density = 25.368572 Si / 1000 Ang^3
#
#
#
# Elastic Constant Matrix: (Units=GPa)
#
#
# Indices 1 2 3 4 5 6 
#
# 1 245.3273 37.3827 50.8094 0.0001 5.7135 0.0000
# 2 37.3827 94.1937 40.8597 0.0003 -11.6646 -0.0001
# 3 50.8094 40.8597 119.2552 0.0001 15.3574 -0.0001
# 4 0.0001 0.0003 0.0001 -5.5834 -0.0001 7.2762
# 5 5.7135 -11.6646 15.3574 -0.0001 33.2592 0.0000
# 6 0.0000 -0.0001 -0.0001 7.2762 0.0000 -6.6138
#
#
#
# Elastic Compliance Matrix: (Units=1/GPa)
#
#
# Indices 1 2 3 4 5 6 
#
# 1 0.004581 -0.001259 -0.001448 0.000000 -0.000560 0.000000
# 2 -0.001259 0.014424 -0.005406 0.000000 0.007771 -0.000001
# 3 -0.001448 -0.005406 0.011766 0.000000 -0.007080 0.000000
# 4 0.000000 0.000000 0.000000 0.412967 0.000000 0.454328
# 5 -0.000560 0.007771 -0.007080 0.000000 0.036158 0.000001
# 6 0.000000 -0.000001 0.000000 0.454328 0.000001 0.348632
#
#
# Mechanical properties :
#
#
# Convention : Reuss Voigt Hill
#
# Bulk Modulus (GPa) = 68.75703 79.65331 74.20517
# Shear Modulus (GPa) = 5.88510 26.19402 16.03956
#
# Velocity S-wave (km/s) = 1.52475 3.21680 2.51721
# Velocity P-wave (km/s) = 5.50108 6.72783 6.14514
#
# Compressibility (1/GPa) = 0.01454397
#
# Stress axis : x y z
#
# Youngs Moduli (GPa) = 218.29082 69.33067 84.98707
#
# Poissons Ratio (x) = 0.08730 0.12308
# Poissons Ratio (y) = 0.27487 0.45945
# Poissons Ratio (z) = 0.31614 0.37481
#
# Static dielectric constant tensor:
#      x y z
#    x 2.111090 0.000000 -0.070070 
#    y 0.000000 2.008510 0.000000 
#    z -0.070070 0.000000 1.975490 
# 
# From -- ./inp_files/167098.got.cif
#   From: 2010.05.17/outbox.cif.g08.bks.cpg/sg15_84_cif.got.tgz:167098.got - 2010.06.03 18:47:42.
