data_PCOD9273303
_publ_section_title
;
Structure prediction by ZEFSAII (Michael W. Deem and Ramdas Pophale) SiO2 
 PCOD9273303
Probable space group: C 2/C
;
_chemical_formula_sum "Si O2"
_cell_formula_units_Z 60
_cell_length_a 30.275823
_cell_length_b 14.100215
_cell_length_c 14.664816
_cell_angle_alpha 90.000000
_cell_angle_beta 151.802429
_cell_angle_gamma 90.000000
_cell_volume 2958.097211
_symmetry_space_group_name_H-M "C 2/C"
_symmetry_group_IT_number 15
_symmetry_cell_setting 'monoclinic'
loop_
_space_group_symop_operation_xyz
x,y,z
-x,y,1/2-z
-x,-y,-z
x,-y,1/2+z
1/2+x,1/2+y,z
1/2-x,1/2+y,1/2-z
1/2-x,1/2-y,-z
1/2+x,1/2-y,1/2+z
loop_
_atom_site_type_symbol
_atom_site_label
_atom_site_fract_x
_atom_site_fract_y
_atom_site_fract_z
Si Si1 0.724623 0.822284 0.642296
Si Si2 0.000000 0.923910 0.750000
Si Si3 0.084202 0.732671 0.726503
Si Si4 0.942515 0.414822 0.055197
Si Si5 0.850028 0.568120 0.766093
Si Si6 0.786467 0.874753 0.323519
Si Si7 0.573171 0.539455 0.201819
Si Si8 0.256775 0.496553 0.596876
O O1 0.664558 0.780189 0.448707
O O2 0.655645 0.879064 0.583356
O O3 0.756611 0.730480 0.753966
O O4 0.786782 0.900953 0.706297
O O5 0.037555 0.985244 0.736306
O O6 0.901700 0.871762 0.540217
O O7 0.115563 0.674809 0.693995
O O8 0.073433 0.845296 0.697944
O O9 0.995978 0.674008 0.606062
O O10 0.000000 0.444642 0.250000
O O11 0.922545 0.500298 0.949795
O O12 0.760585 0.577012 0.672060
O O13 0.831182 0.526491 0.628989
O O14 0.755808 0.926484 0.174589
O O15 0.666889 0.489000 0.341365
O O16 0.500000 0.500000 0.000000
#
# Coordination Sequence:
#
# PCOD9273303 Si02
#       8
#     8   4   8   8   8   8   8   8
#     4  10  20  37  64  91 118 159 211 254 298 367
#     4  12  22  38  62  88 122 162 204 258 298 356
#     4  10  21  37  63  92 116 160 212 255 299 361
#     4  10  21  38  66  93 117 159 208 258 304 365
#     4  11  22  41  63  90 128 158 203 260 314 365
#     4  12  22  38  63  90 125 159 206 259 305 362
#     4  12  23  37  62  91 124 158 210 255 303 360
#     4  11  23  38  62  93 122 163 204 250 316 369
#
# _framework density 20.283308999999999
#
# number of rings (size 3 to 8) (size 9 to 14) (size 15 to 20)
#    0.000    1.067    5.333    2.000    1.867    2.133 
#    0.000    0.667    4.400    0.000    0.000    0.000 
#    0.000    0.000    0.000    0.000    0.000    0.000 
#
# Total GULP energy -167148.464396 kJ/mol
# GULP energy per Si atom -5571.615480 kJ/mol
# Density = 2.023714 g / cm^3
# Si number density = 20.283309 Si / 1000 Ang^3
#
#
#
# Elastic Constant Matrix: (Units=GPa)
#
#
# Indices 1 2 3 4 5 6 
#
# 1 138.6854 29.1395 15.2265 0.0000 -15.8834 0.0000
# 2 29.1395 82.7367 15.5267 0.0000 -30.6560 0.0000
# 3 15.2265 15.5267 30.3673 0.0000 -13.5620 0.0000
# 4 0.0000 0.0000 0.0000 27.1827 0.0000 -13.1292
# 5 -15.8834 -30.6560 -13.5620 0.0000 32.4786 0.0000
# 6 0.0000 0.0000 0.0000 -13.1292 0.0000 30.0071
#
#
#
# Elastic Compliance Matrix: (Units=1/GPa)
#
#
# Indices 1 2 3 4 5 6 
#
# 1 0.008021 -0.001979 -0.002572 0.000000 0.000981 0.000000
# 2 -0.001979 0.019180 -0.001428 0.000000 0.016539 0.000000
# 3 -0.002572 -0.001428 0.041531 0.000000 0.014736 0.000000
# 4 0.000000 0.000000 0.000000 0.046646 0.000000 0.020409
# 5 0.000981 0.016539 0.014736 0.000000 0.053034 0.000000
# 6 0.000000 0.000000 0.000000 0.020409 0.000000 0.042255
#
#
# Mechanical properties :
#
#
# Convention : Reuss Voigt Hill
#
# Bulk Modulus (GPa) = 17.61356 41.28608 29.44982
# Shear Modulus (GPa) = 20.69975 30.72680 25.71327
#
# Velocity S-wave (km/s) = 3.19804 3.89637 3.56435
# Velocity P-wave (km/s) = 4.72644 6.37504 5.61161
#
# Compressibility (1/GPa) = 0.05677443
#
# Stress axis : x y z
#
# Youngs Moduli (GPa) = 124.67162 52.13847 24.07829
#
# Poissons Ratio (x) = 0.10318 0.06193
# Poissons Ratio (y) = 0.24671 0.03438
# Poissons Ratio (z) = 0.32066 0.07445
#
# Static dielectric constant tensor:
#      x y z
#    x 1.793020 0.000000 0.074930 
#    y 0.000000 1.719620 0.000000 
#    z 0.074930 0.000000 1.841130 
# 
# From -- ./inp_files/182346.got.cif
#   From: 2010.05.17/outbox.cif.g08.bks.cpg/sg15_92_cif.got.tgz:182346.got - 2010.06.03 18:47:42.
