data_PCOD9273218
_publ_section_title
;
Structure prediction by ZEFSAII (Michael W. Deem and Ramdas Pophale) SiO2 
 PCOD9273218
Probable space group: C 2/C
;
_chemical_formula_sum "Si O2"
_cell_formula_units_Z 56
_cell_length_a 12.727476
_cell_length_b 10.662379
_cell_length_c 24.824251
_cell_angle_alpha 90.000000
_cell_angle_beta 54.925165
_cell_angle_gamma 90.000000
_cell_volume 2757.016327
_symmetry_space_group_name_H-M "C 2/C"
_symmetry_group_IT_number 15
_symmetry_cell_setting 'monoclinic'
loop_
_space_group_symop_operation_xyz
x,y,z
-x,y,1/2-z
-x,-y,-z
x,-y,1/2+z
1/2+x,1/2+y,z
1/2-x,1/2+y,1/2-z
1/2-x,1/2-y,-z
1/2+x,1/2-y,1/2+z
loop_
_atom_site_type_symbol
_atom_site_label
_atom_site_fract_x
_atom_site_fract_y
_atom_site_fract_z
Si Si1 0.494167 0.296914 0.630426
Si Si2 0.783975 0.958210 0.731221
Si Si3 0.944458 0.139278 0.509492
Si Si4 0.491025 0.002384 0.845795
Si Si5 0.279836 0.107593 0.844379
Si Si6 0.974689 0.394888 0.552373
Si Si7 0.673162 0.616779 0.168561
O O1 0.348103 0.338498 0.683969
O O2 0.544741 0.323653 0.555878
O O3 0.503414 0.150086 0.640445
O O4 0.578736 0.383564 0.645838
O O5 0.843218 0.968142 0.773764
O O6 0.630837 0.957402 0.785323
O O7 0.807066 0.064864 0.679855
O O8 0.803399 0.132859 0.577607
O O9 0.009811 0.255483 0.521950
O O10 0.000000 0.000000 0.500000
O O11 0.383248 0.003655 0.831378
O O12 0.460626 0.929248 0.909808
O O13 0.341799 0.238286 0.807951
O O14 0.820647 0.398502 0.607380
O O15 0.000000 0.500000 0.500000
#
# Coordination Sequence:
#
# PCOD9273218 Si02
#       7
#     8   8   8   8   8   8   8
#     4  11  21  38  65  89 122 160 213 258 309 377
#     4  11  20  36  58  87 125 155 200 255 316 354
#     4  11  22  39  63  93 128 167 201 259 327 367
#     4  10  22  38  64  93 117 163 213 262 303 368
#     4  10  21  38  63  88 122 160 210 258 304 379
#     4  10  20  37  63  92 124 158 208 255 305 371
#     4   9  22  36  61  90 114 158 212 261 297 364
#
# _framework density 20.311813999999998
#
# number of rings (size 3 to 8) (size 9 to 14) (size 15 to 20)
#    0.000    1.714    2.857    1.714    2.000    4.000 
#    0.000    0.714    9.429   10.286    0.000    0.000 
#    0.000    0.000    0.000    0.000    0.000    0.000 
#
# Total GULP energy -156064.060150 kJ/mol
# GULP energy per Si atom -5573.716434 kJ/mol
# Density = 2.026558 g / cm^3
# Si number density = 20.311814 Si / 1000 Ang^3
#
#
#
# Elastic Constant Matrix: (Units=GPa)
#
#
# Indices 1 2 3 4 5 6 
#
# 1 79.3384 31.9070 45.5090 0.0000 21.7766 0.0000
# 2 31.9070 76.3044 30.7653 0.0000 12.4071 0.0000
# 3 45.5090 30.7653 132.1823 0.0000 25.5348 0.0000
# 4 0.0000 0.0000 0.0000 7.1707 0.0000 1.1179
# 5 21.7766 12.4071 25.5348 0.0000 31.7461 0.0000
# 6 0.0000 0.0000 0.0000 1.1179 0.0000 31.8604
#
#
#
# Elastic Compliance Matrix: (Units=1/GPa)
#
#
# Indices 1 2 3 4 5 6 
#
# 1 0.019052 -0.005126 -0.003823 0.000000 -0.007991 0.000000
# 2 -0.005126 0.016175 -0.001726 0.000000 -0.001417 0.000000
# 3 -0.003823 -0.001726 0.010237 0.000000 -0.004937 0.000000
# 4 0.000000 0.000000 0.000000 0.140223 0.000000 -0.004920
# 5 -0.007991 -0.001417 -0.004937 0.000000 0.041506 0.000000
# 6 0.000000 0.000000 0.000000 -0.004920 0.000000 0.031560
#
#
# Mechanical properties :
#
#
# Convention : Reuss Voigt Hill
#
# Bulk Modulus (GPa) = 41.46933 56.02086 48.74510
# Shear Modulus (GPa) = 17.35268 26.13170 21.74219
#
# Velocity S-wave (km/s) = 2.92604 3.59071 3.27528
# Velocity P-wave (km/s) = 5.64591 6.69561 6.19304
#
# Compressibility (1/GPa) = 0.02411420
#
# Stress axis : x y z
#
# Youngs Moduli (GPa) = 52.48889 61.82283 97.68547
#
# Poissons Ratio (x) = 0.31690 0.37341
# Poissons Ratio (y) = 0.26906 0.16863
# Poissons Ratio (z) = 0.20064 0.10672
#
# Static dielectric constant tensor:
#      x y z
#    x 1.783320 0.000000 0.002300 
#    y 0.000000 1.725020 0.000000 
#    z 0.002300 0.000000 1.771360 
# 
# From -- ./inp_files/268720.got.cif
#   From: 2010.05.17/outbox.cif.g08.bks.cpg/sg15_135_cif.got.tgz:268720.got - 2010.06.03 18:47:42.
