data_PCOD9273039
_publ_section_title
;
Structure prediction by ZEFSAII (Michael W. Deem and Ramdas Pophale) SiO2 
 PCOD9273039
Probable space group: C 2/C
;
_chemical_formula_sum "Si O2"
_cell_formula_units_Z 56
_cell_length_a 16.927905
_cell_length_b 15.366628
_cell_length_c 16.754235
_cell_angle_alpha 90.000000
_cell_angle_beta 42.538004
_cell_angle_gamma 90.000000
_cell_volume 2946.482721
_symmetry_space_group_name_H-M "C 2/C"
_symmetry_group_IT_number 15
_symmetry_cell_setting 'monoclinic'
loop_
_space_group_symop_operation_xyz
x,y,z
-x,y,1/2-z
-x,-y,-z
x,-y,1/2+z
1/2+x,1/2+y,z
1/2-x,1/2+y,1/2-z
1/2-x,1/2-y,-z
1/2+x,1/2-y,1/2+z
loop_
_atom_site_type_symbol
_atom_site_label
_atom_site_fract_x
_atom_site_fract_y
_atom_site_fract_z
Si Si1 0.154765 0.530979 0.468108
Si Si2 0.997517 0.377400 0.537478
Si Si3 0.098078 0.200501 0.852782
Si Si4 0.773407 0.345802 0.447093
Si Si5 0.984235 0.876434 0.919440
Si Si6 0.088415 0.964983 0.257154
Si Si7 0.362192 0.792244 0.212818
O O1 0.062586 0.452072 0.538107
O O2 0.158232 0.595953 0.540083
O O3 0.282482 0.491496 0.364743
O O4 0.119744 0.584122 0.414665
O O5 0.073016 0.349540 0.402903
O O6 0.970506 0.290455 0.605917
O O7 0.091090 0.133299 0.786296
O O8 0.231616 0.223080 0.776425
O O9 0.042187 0.150312 0.970117
O O10 0.750000 0.250000 0.500000
O O11 0.642789 0.380832 0.527452
O O12 0.842622 0.338014 0.312462
O O13 0.064283 0.796302 0.828529
O O14 0.048488 0.966754 0.854985
O O15 0.000000 0.975032 0.250000
#
# Coordination Sequence:
#
# PCOD9273039 Si02
#       7
#     8   8   8   8   8   8   8
#     4  11  22  39  62  91 124 158 199 254 310 364
#     4  10  22  41  64  85 120 166 204 251 299 360
#     4  10  21  39  61  85 119 163 210 242 296 368
#     4  11  21  34  58  94 128 153 193 249 315 365
#     4  10  21  35  59  90 117 155 199 253 300 359
#     4  12  22  38  62  87 123 162 200 253 302 356
#     4  10  20  37  62  89 120 161 199 250 312 366
#
# _framework density 19.005711000000002
#
# number of rings (size 3 to 8) (size 9 to 14) (size 15 to 20)
#    0.000    1.429    2.857    4.714    0.000    1.714 
#    0.000    0.714    6.286    0.000    0.000    0.000 
#    0.000    0.000    0.000    0.000    0.000    0.000 
#
# Total GULP energy -156398.774748 kJ/mol
# GULP energy per Si atom -5585.670527 kJ/mol
# Density = 1.896245 g / cm^3
# Si number density = 19.005711 Si / 1000 Ang^3
#
#
#
# Elastic Constant Matrix: (Units=GPa)
#
#
# Indices 1 2 3 4 5 6 
#
# 1 61.2681 41.5080 31.9138 0.0000 -13.2304 0.0000
# 2 41.5080 123.5800 34.9160 0.0000 1.3904 0.0000
# 3 31.9138 34.9160 64.5582 0.0000 -5.9668 0.0000
# 4 0.0000 0.0000 0.0000 25.7338 0.0000 3.4220
# 5 -13.2304 1.3904 -5.9668 0.0000 13.4505 0.0000
# 6 0.0000 0.0000 0.0000 3.4220 0.0000 30.4771
#
#
#
# Elastic Compliance Matrix: (Units=1/GPa)
#
#
# Indices 1 2 3 4 5 6 
#
# 1 0.033638 -0.009117 -0.008918 0.000000 0.030073 0.000000
# 2 -0.009117 0.012176 -0.003153 0.000000 -0.011625 0.000000
# 3 -0.008918 -0.003153 0.021713 0.000000 0.001186 0.000000
# 4 0.000000 0.000000 0.000000 0.039448 0.000000 -0.004429
# 5 0.030073 -0.011625 0.001186 0.000000 0.105655 0.000000
# 6 0.000000 0.000000 0.000000 -0.004429 0.000000 0.033309
#
#
# Mechanical properties :
#
#
# Convention : Reuss Voigt Hill
#
# Bulk Modulus (GPa) = 39.75969 51.78687 45.77328
# Shear Modulus (GPa) = 16.85212 23.33686 20.09449
#
# Velocity S-wave (km/s) = 2.98096 3.50792 3.25512
# Velocity P-wave (km/s) = 5.72830 6.61170 6.18579
#
# Compressibility (1/GPa) = 0.02515110
#
# Stress axis : x y z
#
# Youngs Moduli (GPa) = 29.72857 82.13110 46.05472
#
# Poissons Ratio (x) = 0.74878 0.41072
# Poissons Ratio (y) = 0.27103 0.14520
# Poissons Ratio (z) = 0.26512 0.25894
#
# Static dielectric constant tensor:
#      x y z
#    x 1.645030 0.000000 -0.006370 
#    y 0.000000 1.662800 0.000000 
#    z -0.006370 0.000000 1.667250 
# 
# From -- ./inp_files/105410.got.cif
#   From: 2010.05.17/outbox.cif.g08.bks.cpg/sg15_53_cif.got.tgz:105410.got - 2010.06.03 18:47:42.
