data_PCOD9273552
_publ_section_title
;
Structure prediction by ZEFSAII (Michael W. Deem and Ramdas Pophale) SiO2 
 PCOD9273552
Probable space group: C 2/C
;
_chemical_formula_sum "Si O2"
_cell_formula_units_Z 48
_cell_length_a 10.371882
_cell_length_b 13.918351
_cell_length_c 13.829178
_cell_angle_alpha 90.000000
_cell_angle_beta 69.644142
_cell_angle_gamma 90.000000
_cell_volume 1871.700156
_symmetry_space_group_name_H-M "C 2/C"
_symmetry_group_IT_number 15
_symmetry_cell_setting 'monoclinic'
loop_
_space_group_symop_operation_xyz
x,y,z
-x,y,1/2-z
-x,-y,-z
x,-y,1/2+z
1/2+x,1/2+y,z
1/2-x,1/2+y,1/2-z
1/2-x,1/2-y,-z
1/2+x,1/2-y,1/2+z
loop_
_atom_site_type_symbol
_atom_site_label
_atom_site_fract_x
_atom_site_fract_y
_atom_site_fract_z
Si Si1 0.332185 0.713027 0.636473
Si Si2 0.102391 0.218264 0.310671
Si Si3 0.907712 0.722812 0.469860
Si Si4 0.020463 0.517688 0.359279
Si Si5 0.780125 0.605263 0.003058
Si Si6 0.349936 0.514190 0.296227
O O1 0.246230 0.729802 0.753942
O O2 0.491452 0.706732 0.613290
O O3 0.275956 0.627972 0.587692
O O4 0.299166 0.805021 0.573041
O O5 0.055305 0.250617 0.427803
O O6 0.129171 0.105957 0.281925
O O7 0.000000 0.249037 0.250000
O O8 0.750000 0.750000 0.500000
O O9 0.955851 0.620235 0.413004
O O10 0.924781 0.444324 0.443139
O O11 0.000000 0.513642 0.250000
O O12 0.184138 0.492726 0.327946
O O13 0.664066 0.545261 0.088005
O O14 0.500000 0.464015 0.250000
#
# Coordination Sequence:
#
# PCOD9273552 Si02
#       6
#     8   8   8   8   8   8
#     4  10  21  41  68 103 134 176 257 291 356 441
#     4  10  20  37  69 101 132 185 254 304 351 442
#     4  12  25  41  69 102 151 198 241 304 383 443
#     4  12  26  44  71 107 154 194 241 305 386 446
#     4  10  21  42  73 101 134 189 241 307 355 442
#     4  10  20  41  70 100 141 183 239 306 367 429
#
# _framework density 25.645133999999999
#
# number of rings (size 3 to 8) (size 9 to 14) (size 15 to 20)
#    0.000    1.333    3.333    5.500    0.000    2.000 
#    0.000    4.167    0.000    0.000    0.000    0.000 
#    0.000    0.000    0.000    0.000    0.000    0.000 
#
# Total GULP energy -133853.306739 kJ/mol
# GULP energy per Si atom -5577.221114 kJ/mol
# Density = 2.558676 g / cm^3
# Si number density = 25.645134 Si / 1000 Ang^3
#
#
#
# Elastic Constant Matrix: (Units=GPa)
#
#
# Indices 1 2 3 4 5 6 
#
# 1 152.7897 26.3309 33.6069 0.0000 -63.3587 0.0000
# 2 26.3309 73.5705 44.8497 0.0000 -7.9479 0.0000
# 3 33.6069 44.8497 152.6024 0.0000 -38.9125 0.0000
# 4 0.0000 0.0000 0.0000 44.4984 0.0000 -7.8313
# 5 -63.3587 -7.9479 -38.9125 0.0000 59.3432 0.0000
# 6 0.0000 0.0000 0.0000 -7.8313 0.0000 16.6831
#
#
#
# Elastic Compliance Matrix: (Units=1/GPa)
#
#
# Indices 1 2 3 4 5 6 
#
# 1 0.012856 -0.004344 0.002158 0.000000 0.014560 0.000000
# 2 -0.004344 0.018095 -0.005915 0.000000 -0.006093 0.000000
# 3 0.002158 -0.005915 0.009848 0.000000 0.007970 0.000000
# 4 0.000000 0.000000 0.000000 0.024496 0.000000 0.011499
# 5 0.014560 -0.006093 0.007970 0.000000 0.036806 0.000000
# 6 0.000000 0.000000 0.000000 0.011499 0.000000 0.065338
#
#
# Mechanical properties :
#
#
# Convention : Reuss Voigt Hill
#
# Bulk Modulus (GPa) = 40.65459 65.39307 53.02383
# Shear Modulus (GPa) = 26.06318 42.38329 34.22324
#
# Velocity S-wave (km/s) = 3.19141 4.06973 3.65703
# Velocity P-wave (km/s) = 5.42838 6.90204 6.20908
#
# Compressibility (1/GPa) = 0.02459747
#
# Stress axis : x y z
#
# Youngs Moduli (GPa) = 77.78170 55.26453 101.53987
#
# Poissons Ratio (x) = 0.24007 -0.21912
# Poissons Ratio (y) = 0.33788 0.60062
# Poissons Ratio (z) = -0.16785 0.32689
#
# Static dielectric constant tensor:
#      x y z
#    x 2.118000 0.000000 0.016270 
#    y 0.000000 2.200010 0.000000 
#    z 0.016270 0.000000 1.908900 
# 
# From -- ./inp_files/144084.got.cif
#   From: 2010.05.17/outbox.cif.g08.bks.cpg/sg15_73_cif.got.tgz:144084.got - 2010.06.03 18:47:42.
