data_PCOD9273415
_publ_section_title
;
Structure prediction by ZEFSAII (Michael W. Deem and Ramdas Pophale) SiO2 
 PCOD9273415
Probable space group: C 2/C
;
_chemical_formula_sum "Si O2"
_cell_formula_units_Z 36
_cell_length_a 30.708053
_cell_length_b 6.479411
_cell_length_c 25.289547
_cell_angle_alpha 90.000000
_cell_angle_beta 164.160975
_cell_angle_gamma 90.000000
_cell_volume 1373.374534
_symmetry_space_group_name_H-M "C 2/C"
_symmetry_group_IT_number 15
_symmetry_cell_setting 'monoclinic'
loop_
_space_group_symop_operation_xyz
x,y,z
-x,y,1/2-z
-x,-y,-z
x,-y,1/2+z
1/2+x,1/2+y,z
1/2-x,1/2+y,1/2-z
1/2-x,1/2-y,-z
1/2+x,1/2-y,1/2+z
loop_
_atom_site_type_symbol
_atom_site_label
_atom_site_fract_x
_atom_site_fract_y
_atom_site_fract_z
Si Si1 0.500000 0.087423 0.250000
Si Si2 0.828613 0.016273 0.657954
Si Si3 0.474930 0.698076 0.517075
Si Si4 0.415140 0.260666 0.578987
Si Si5 0.115414 0.338607 0.577592
O O1 0.483302 0.935224 0.281496
O O2 0.680538 0.163341 0.469283
O O3 0.905626 0.102082 0.801302
O O4 0.744888 0.794291 0.575170
O O5 0.972315 0.962400 0.785562
O O6 0.291222 0.631557 0.306987
O O7 0.525745 0.696552 0.515067
O O8 0.471223 0.942807 0.525838
O O9 0.374197 0.244254 0.469523
#
# Coordination Sequence:
#
# PCOD9273415 Si02
#       5
#     4   8   8   8   8
#     4   8  22  38  66  92 126 176 214 260 306 380
#     4  10  21  40  65  92 130 166 216 259 311 377
#     4  11  24  41  64  97 130 167 205 268 325 382
#     4  10  20  37  65  92 126 166 213 263 311 377
#     4  11  23  40  66  97 128 162 211 260 333 380
#
# _framework density 26.212807999999999
#
# number of rings (size 3 to 8) (size 9 to 14) (size 15 to 20)
#    1.333    0.444    0.000    4.667    0.000    4.444 
#    0.000    1.111    0.000    1.333    0.000    0.000 
#    0.000    0.000    0.000    0.000    0.000    0.000 
#
# Total GULP energy -100473.839502 kJ/mol
# GULP energy per Si atom -5581.879972 kJ/mol
# Density = 2.615315 g / cm^3
# Si number density = 26.212808 Si / 1000 Ang^3
#
#
#
# Elastic Constant Matrix: (Units=GPa)
#
#
# Indices 1 2 3 4 5 6 
#
# 1 96.4716 12.7981 37.8845 0.0012 12.6033 -0.0005
# 2 12.7981 34.6194 27.4042 -0.0003 11.9031 -0.0003
# 3 37.8845 27.4042 193.5944 0.0032 -11.0709 -0.0025
# 4 0.0012 -0.0003 0.0032 32.9326 0.0020 12.2904
# 5 12.6033 11.9031 -11.0709 0.0020 41.5062 -0.0011
# 6 -0.0005 -0.0003 -0.0025 12.2904 -0.0011 25.5383
#
#
#
# Elastic Compliance Matrix: (Units=1/GPa)
#
#
# Indices 1 2 3 4 5 6 
#
# 1 0.011980 -0.001170 -0.002404 0.000000 -0.003944 0.000000
# 2 -0.001170 0.038136 -0.005864 0.000002 -0.012145 -0.000002
# 3 -0.002404 -0.005864 0.006706 -0.000001 0.004200 0.000001
# 4 0.000000 0.000002 -0.000001 0.037013 -0.000003 -0.017812
# 5 -0.003944 -0.012145 0.004200 -0.000003 0.029894 0.000003
# 6 0.000000 -0.000002 0.000001 -0.017812 0.000003 0.047729
#
#
# Mechanical properties :
#
#
# Convention : Reuss Voigt Hill
#
# Bulk Modulus (GPa) = 26.35311 53.42881 39.89096
# Shear Modulus (GPa) = 24.63267 36.43532 30.53400
#
# Velocity S-wave (km/s) = 3.06881 3.73229 3.41669
# Velocity P-wave (km/s) = 4.75732 6.24502 5.55124
#
# Compressibility (1/GPa) = 0.03794618
#
# Stress axis : x y z
#
# Youngs Moduli (GPa) = 83.47012 26.22223 149.11514
#
# Poissons Ratio (x) = 0.03067 0.35853
# Poissons Ratio (y) = 0.09763 0.87440
# Poissons Ratio (z) = 0.20069 0.15377
#
# Static dielectric constant tensor:
#      x y z
#    x 2.002840 0.000000 0.053250 
#    y 0.000000 2.216100 0.000000 
#    z 0.053250 0.000000 2.067080 
# 
# From -- ./inp_files/284237.got.cif
#   From: 2010.05.17/outbox.cif.g08.bks.cpg/sg15_143_cif.got.tgz:284237.got - 2010.06.03 18:47:42.
