data_PCOD9273286
_publ_section_title
;
Structure prediction by ZEFSAII (Michael W. Deem and Ramdas Pophale) SiO2 
 PCOD9273286
Probable space group: C 2/C
;
_chemical_formula_sum "Si O2"
_cell_formula_units_Z 64
_cell_length_a 26.184264
_cell_length_b 20.027447
_cell_length_c 19.601455
_cell_angle_alpha 90.000000
_cell_angle_beta 19.423824
_cell_angle_gamma 90.000000
_cell_volume 3418.342199
_symmetry_space_group_name_H-M "C 2/C"
_symmetry_group_IT_number 15
_symmetry_cell_setting 'monoclinic'
loop_
_space_group_symop_operation_xyz
x,y,z
-x,y,1/2-z
-x,-y,-z
x,-y,1/2+z
1/2+x,1/2+y,z
1/2-x,1/2+y,1/2-z
1/2-x,1/2-y,-z
1/2+x,1/2-y,1/2+z
loop_
_atom_site_type_symbol
_atom_site_label
_atom_site_fract_x
_atom_site_fract_y
_atom_site_fract_z
Si Si1 0.624479 0.837132 0.926492
Si Si2 0.390812 0.471530 0.198245
Si Si3 0.471661 0.182129 0.478196
Si Si4 0.017018 0.166233 0.524238
Si Si5 0.077692 0.077744 0.220666
Si Si6 0.881983 0.186419 0.544032
Si Si7 0.076350 0.570284 0.728671
Si Si8 0.960539 0.570754 0.376734
O O1 0.589813 0.834854 0.889615
O O2 0.803844 0.847418 0.712747
O O3 0.582216 0.764516 0.010176
O O4 0.526696 0.892769 0.086604
O O5 0.446816 0.397750 0.149422
O O6 0.408187 0.523165 0.237724
O O7 0.212028 0.460816 0.403200
O O8 0.500000 0.500000 0.000000
O O9 0.496212 0.259863 0.426938
O O10 0.301654 0.178194 0.726043
O O11 0.476459 0.130393 0.410251
O O12 0.934450 0.169331 0.554883
O O13 0.000000 0.050775 0.250000
O O14 0.973096 0.138534 0.378928
O O15 0.252572 0.098759 0.986253
O O16 0.000000 0.577671 0.750000
O O17 0.074310 0.491285 0.747247
O O18 0.000000 0.593350 0.250000
#
# Coordination Sequence:
#
# PCOD9273286 Si02
#       8
#     8   8   8   8   8   8   8   8
#     4  10  22  36  60  93 122 153 206 261 289 360
#     4  12  21  40  69  88 116 172 211 242 305 374
#     4  10  21  39  62  89 118 157 207 257 301 360
#     4  10  20  37  64  89 115 153 219 243 287 366
#     4  12  24  37  59  93 127 156 204 256 304 362
#     4  10  20  39  60  86 123 166 198 241 308 371
#     4  11  22  38  58  85 126 165 200 243 309 376
#     4  11  22  41  64  84 122 166 200 253 323 366
#
# _framework density 18.722525000000001
#
# number of rings (size 3 to 8) (size 9 to 14) (size 15 to 20)
#    0.000    1.250    5.000    2.250    0.000    2.500 
#    0.000    1.250    0.000    0.000    0.000    0.000 
#    0.000    0.000    0.000    0.000    0.000    0.000 
#
# Total GULP energy -178683.789134 kJ/mol
# GULP energy per Si atom -5583.868410 kJ/mol
# Density = 1.867991 g / cm^3
# Si number density = 18.722525 Si / 1000 Ang^3
#
#
#
# Elastic Constant Matrix: (Units=GPa)
#
#
# Indices 1 2 3 4 5 6 
#
# 1 32.9125 2.1977 -5.1143 0.0040 1.0827 -0.0053
# 2 2.1977 71.6941 -0.8426 0.0029 16.2980 -0.0061
# 3 -5.1143 -0.8426 37.7912 0.0072 -5.2064 -0.0059
# 4 0.0040 0.0029 0.0072 11.7706 -0.0042 -9.8847
# 5 1.0827 16.2980 -5.2064 -0.0042 31.3099 0.0031
# 6 -0.0053 -0.0061 -0.0059 -9.8847 0.0031 18.8698
#
#
#
# Elastic Compliance Matrix: (Units=1/GPa)
#
#
# Indices 1 2 3 4 5 6 
#
# 1 0.031095 -0.000928 0.004202 -0.000008 0.000107 0.000005
# 2 -0.000928 0.015872 -0.000927 -0.000002 -0.008384 0.000005
# 3 0.004202 -0.000927 0.027690 -0.000016 0.004942 0.000000
# 4 -0.000008 -0.000002 -0.000016 0.151684 0.000011 0.079457
# 5 0.000107 -0.008384 0.004942 0.000011 0.037121 -0.000001
# 6 0.000005 0.000005 0.000000 0.079457 -0.000001 0.094617
#
#
# Mechanical properties :
#
#
# Convention : Reuss Voigt Hill
#
# Bulk Modulus (GPa) = 12.60221 14.98662 13.79441
# Shear Modulus (GPa) = 13.16364 22.13387 17.64875
#
# Velocity S-wave (km/s) = 2.65446 3.44205 3.07359
# Velocity P-wave (km/s) = 4.01753 4.88046 4.46987
#
# Compressibility (1/GPa) = 0.07935117
#
# Stress axis : x y z
#
# Youngs Moduli (GPa) = 32.15951 63.00575 36.11418
#
# Poissons Ratio (x) = 0.05847 -0.15175
# Poissons Ratio (y) = 0.02984 0.03347
# Poissons Ratio (z) = -0.13514 0.05839
#
# Static dielectric constant tensor:
#      x y z
#    x 1.634180 0.000000 -0.014280 
#    y 0.000000 1.661100 0.000000 
#    z -0.014280 0.000000 1.643480 
# 
# From -- ./inp_files/220241.got.cif
#   From: 2010.05.17/outbox.cif.g08.bks.cpg/sg15_111_cif.got.tgz:220241.got - 2010.06.03 18:47:42.
