data_PCOD9273256
_publ_section_title
;
Structure prediction by ZEFSAII (Michael W. Deem and Ramdas Pophale) SiO2 
 PCOD9273256
Probable space group: C 2/C
;
_chemical_formula_sum "Si O2"
_cell_formula_units_Z 56
_cell_length_a 29.559353
_cell_length_b 11.888549
_cell_length_c 9.401707
_cell_angle_alpha 90.000000
_cell_angle_beta 49.891357
_cell_angle_gamma 90.000000
_cell_volume 2526.923678
_symmetry_space_group_name_H-M "C 2/C"
_symmetry_group_IT_number 15
_symmetry_cell_setting 'monoclinic'
loop_
_space_group_symop_operation_xyz
x,y,z
-x,y,1/2-z
-x,-y,-z
x,-y,1/2+z
1/2+x,1/2+y,z
1/2-x,1/2+y,1/2-z
1/2-x,1/2-y,-z
1/2+x,1/2-y,1/2+z
loop_
_atom_site_type_symbol
_atom_site_label
_atom_site_fract_x
_atom_site_fract_y
_atom_site_fract_z
Si Si1 0.474207 0.102664 0.144319
Si Si2 0.005185 0.824765 0.578853
Si Si3 0.809438 0.630076 0.112697
Si Si4 0.327279 0.608799 0.099528
Si Si5 0.400829 0.492622 0.701555
Si Si6 0.653879 0.027820 0.168368
Si Si7 0.735902 0.802170 0.374441
O O1 0.500000 0.100346 0.250000
O O2 0.404527 0.080194 0.280166
O O3 0.488710 0.221602 0.041296
O O4 0.500000 0.000000 0.000000
O O5 0.000000 0.781431 0.750000
O O6 0.948442 0.902021 0.659609
O O7 0.061331 0.908346 0.450402
O O8 0.742393 0.584327 0.268593
O O9 0.844231 0.569536 0.171988
O O10 0.794405 0.764032 0.167558
O O11 0.839326 0.600519 0.901354
O O12 0.356430 0.568580 0.184640
O O13 0.320190 0.742146 0.087820
O O14 0.364042 0.550825 0.900843
O O15 0.710948 0.079953 0.973938
O O16 0.750000 0.750000 0.500000
#
# Coordination Sequence:
#
# PCOD9273256 Si02
#       7
#     8   8   8   8   8   8   8
#     4  12  28  46  71  96 132 186 241 282 338 408
#     4  11  25  43  64  99 138 181 234 286 341 406
#     4   9  21  36  65  90 126 162 215 260 332 404
#     4  10  20  37  63  99 133 171 215 269 343 413
#     4  11  22  39  66 101 139 180 219 288 349 401
#     4  11  20  44  61  89 126 172 212 281 325 394
#     4   8  19  34  61  91 126 169 215 255 327 403
#
# _framework density 22.161334
#
# number of rings (size 3 to 8) (size 9 to 14) (size 15 to 20)
#    0.857    0.857    1.429    3.000    4.000    0.000 
#    0.000    2.143    0.000    0.000    0.000    0.000 
#    0.000    0.000    0.000    0.000    0.000    0.000 
#
# Total GULP energy -156024.900110 kJ/mol
# GULP energy per Si atom -5572.317861 kJ/mol
# Density = 2.211089 g / cm^3
# Si number density = 22.161334 Si / 1000 Ang^3
#
#
#
# Elastic Constant Matrix: (Units=GPa)
#
#
# Indices 1 2 3 4 5 6 
#
# 1 99.7591 -6.6714 11.9067 0.0000 12.8193 0.0000
# 2 -6.6714 35.5970 6.3463 0.0000 14.3408 0.0000
# 3 11.9067 6.3463 50.1242 0.0000 12.9575 0.0000
# 4 0.0000 0.0000 0.0000 26.0484 0.0000 4.1094
# 5 12.8193 14.3408 12.9575 0.0000 22.0979 0.0000
# 6 0.0000 0.0000 0.0000 4.1094 0.0000 19.5876
#
#
#
# Elastic Compliance Matrix: (Units=1/GPa)
#
#
# Indices 1 2 3 4 5 6 
#
# 1 0.011972 0.006755 -0.000908 0.000000 -0.010796 0.000000
# 2 0.006755 0.041993 0.001340 0.000000 -0.031956 0.000000
# 3 -0.000908 0.001340 0.023674 0.000000 -0.014224 0.000000
# 4 0.000000 0.000000 0.000000 0.039704 0.000000 -0.008330
# 5 -0.010796 -0.031956 -0.014224 0.000000 0.080595 0.000000
# 6 0.000000 0.000000 0.000000 -0.008330 0.000000 0.052800
#
#
# Mechanical properties :
#
#
# Convention : Reuss Voigt Hill
#
# Bulk Modulus (GPa) = 10.86823 23.18260 17.02542
# Shear Modulus (GPa) = 18.72407 25.14005 21.93206
#
# Velocity S-wave (km/s) = 2.90987 3.37175 3.14929
# Velocity P-wave (km/s) = 4.02549 5.06378 4.57419
#
# Compressibility (1/GPa) = 0.09201127
#
# Stress axis : x y z
#
# Youngs Moduli (GPa) = 83.53097 23.81322 42.24130
#
# Poissons Ratio (x) = -0.16086 0.03836
# Poissons Ratio (y) = -0.56425 -0.05658
# Poissons Ratio (z) = 0.07586 -0.03190
#
# Static dielectric constant tensor:
#      x y z
#    x 1.779090 0.000000 0.051540 
#    y 0.000000 1.962400 0.000000 
#    z 0.051540 0.000000 1.725930 
# 
# From -- ./inp_files/69291.got.cif
#   From: 2010.05.17/outbox.cif.g08.bks.cpg/sg15_35_cif.got.tgz:69291.got - 2010.06.03 18:47:42.
