data_PCOD9273578
_publ_section_title
;
Structure prediction by ZEFSAII (Michael W. Deem and Ramdas Pophale) SiO2 
 PCOD9273578
Probable space group: C 2/C
;
_chemical_formula_sum "Si O2"
_cell_formula_units_Z 40
_cell_length_a 18.627363
_cell_length_b 15.999240
_cell_length_c 5.049923
_cell_angle_alpha 90.000000
_cell_angle_beta 87.465937
_cell_angle_gamma 90.000000
_cell_volume 1503.524774
_symmetry_space_group_name_H-M "C 2/C"
_symmetry_group_IT_number 15
_symmetry_cell_setting 'monoclinic'
loop_
_space_group_symop_operation_xyz
x,y,z
-x,y,1/2-z
-x,-y,-z
x,-y,1/2+z
1/2+x,1/2+y,z
1/2-x,1/2+y,1/2-z
1/2-x,1/2-y,-z
1/2+x,1/2-y,1/2+z
loop_
_atom_site_type_symbol
_atom_site_label
_atom_site_fract_x
_atom_site_fract_y
_atom_site_fract_z
Si Si1 0.653882 0.895103 0.210311
Si Si2 0.251316 0.090947 0.319421
Si Si3 0.500000 0.107485 0.750000
Si Si4 0.000000 0.729110 0.250000
Si Si5 0.375087 0.709256 0.071842
Si Si6 0.900799 0.049224 0.350751
O O1 0.702070 0.937000 0.433658
O O2 0.575942 0.939077 0.230512
O O3 0.639238 0.800157 0.308929
O O4 0.692792 0.885606 0.921557
O O5 0.201787 0.165094 0.456086
O O6 0.186277 0.045589 0.170241
O O7 0.505902 0.168209 0.497741
O O8 0.927259 0.780459 0.313629
O O9 0.415887 0.643229 0.256847
O O10 0.924839 0.018015 0.629099
#
# Coordination Sequence:
#
# PCOD9273578 Si02
#       6
#     8   8   4   4   8   8
#     4  11  19  37  53  92 105 146 171 225 287 324
#     4  10  22  32  61  78 113 141 185 229 266 329
#     4  10  22  32  56  77 128 135 172 212 282 360
#     4  10  20  38  48  83 110 161 168 218 280 312
#     4   9  22  34  60  77 120 142 185 224 267 333
#     4  10  22  37  53  79 109 146 190 230 265 308
#
# _framework density 26.604154000000001
#
# number of rings (size 3 to 8) (size 9 to 14) (size 15 to 20)
#    1.200    0.800    0.000    4.800    0.000    8.000 
#    0.000    1.000    0.000    0.000    0.000   14.000 
#    0.000    0.000    0.000    0.000    0.000    0.000 
#
# Total GULP energy -111806.529340 kJ/mol
# GULP energy per Si atom -5590.326467 kJ/mol
# Density = 2.654360 g / cm^3
# Si number density = 26.604154 Si / 1000 Ang^3
#
#
#
# Elastic Constant Matrix: (Units=GPa)
#
#
# Indices 1 2 3 4 5 6 
#
# 1 216.2250 3.3549 62.4777 0.0000 -35.6320 0.0000
# 2 3.3549 88.7496 2.2417 0.0000 -14.0394 0.0000
# 3 62.4777 2.2417 169.3947 0.0000 -22.6765 0.0000
# 4 0.0000 0.0000 0.0000 25.7548 0.0000 -18.9344
# 5 -35.6320 -14.0394 -22.6765 0.0000 54.4241 0.0000
# 6 0.0000 0.0000 0.0000 -18.9344 0.0000 -62.8240
#
#
#
# Elastic Compliance Matrix: (Units=1/GPa)
#
#
# Indices 1 2 3 4 5 6 
#
# 1 0.005604 0.000314 -0.001662 0.000000 0.003058 0.000000
# 2 0.000314 0.011776 0.000172 0.000000 0.003315 0.000000
# 3 -0.001662 0.000172 0.006751 0.000000 0.001769 0.000000
# 4 0.000000 0.000000 0.000000 0.031785 0.000000 -0.009580
# 5 0.003058 0.003315 0.001769 0.000000 0.021968 0.000000
# 6 0.000000 0.000000 0.000000 -0.009580 0.000000 -0.013030
#
#
# Mechanical properties :
#
#
# Convention : Reuss Voigt Hill
#
# Bulk Modulus (GPa) = 45.91555 67.83533 56.87544
# Shear Modulus (GPa) = 67.14579 30.55732 48.85155
#
# Velocity S-wave (km/s) = 5.02928 3.39277 4.28978
# Velocity P-wave (km/s) = 7.14291 6.39540 6.77946
#
# Compressibility (1/GPa) = 0.02177911
#
# Stress axis : x y z
#
# Youngs Moduli (GPa) = 178.44547 84.91967 148.12960
#
# Poissons Ratio (x) = -0.02665 0.24615
# Poissons Ratio (y) = -0.05600 -0.02551
# Poissons Ratio (z) = 0.29653 -0.01462
#
# Static dielectric constant tensor:
#      x y z
#    x 2.193030 0.000000 -0.001000 
#    y 0.000000 2.092590 0.000000 
#    z -0.001000 0.000000 2.015290 
# 
# From -- ./inp_files/12783.got.cif
#   From: 2010.05.17/outbox.cif.g08.bks.cpg/sg15_7_cif.got.tgz:12783.got - 2010.06.03 18:47:42.
