data_PCOD9273410
_publ_section_title
;
Structure prediction by ZEFSAII (Michael W. Deem and Ramdas Pophale) SiO2 
 PCOD9273410
Probable space group: C 2/C
;
_chemical_formula_sum "Si O2"
_cell_formula_units_Z 40
_cell_length_a 22.385674
_cell_length_b 7.684069
_cell_length_c 11.100004
_cell_angle_alpha 90.000000
_cell_angle_beta 110.861922
_cell_angle_gamma 90.000000
_cell_volume 1784.171571
_symmetry_space_group_name_H-M "C 2/C"
_symmetry_group_IT_number 15
_symmetry_cell_setting 'monoclinic'
loop_
_space_group_symop_operation_xyz
x,y,z
-x,y,1/2-z
-x,-y,-z
x,-y,1/2+z
1/2+x,1/2+y,z
1/2-x,1/2+y,1/2-z
1/2-x,1/2-y,-z
1/2+x,1/2-y,1/2+z
loop_
_atom_site_type_symbol
_atom_site_label
_atom_site_fract_x
_atom_site_fract_y
_atom_site_fract_z
Si Si1 0.207657 0.363363 0.058417
Si Si2 0.275905 0.724406 0.174322
Si Si3 0.532629 0.677508 0.577516
Si Si4 0.409984 0.271336 0.116099
Si Si5 0.353519 0.353674 0.508603
O O1 0.243298 0.538811 0.122051
O O2 0.197818 0.260871 0.175762
O O3 0.250000 0.250000 0.000000
O O4 0.142019 0.378507 0.937838
O O5 0.333190 0.734799 0.119607
O O6 0.214429 0.849521 0.109984
O O7 0.500000 0.500000 0.500000
O O8 0.568479 0.676995 0.733272
O O9 0.469132 0.779602 0.572443
O O10 0.587830 0.731034 0.523307
O O11 0.376880 0.450299 0.048246
#
# Coordination Sequence:
#
# PCOD9273410 Si02
#       5
#     8   8   8   8   8
#     4  12  24  40  63  92 130 165 206 262 316 379
#     4  11  25  39  62  94 129 163 207 257 321 377
#     4   9  20  38  62  91 122 157 211 257 302 369
#     4  10  20  37  65  92 120 163 208 254 310 370
#     4  10  21  39  61  92 125 156 208 257 308 373
#
# _framework density 22.419369
#
# number of rings (size 3 to 8) (size 9 to 14) (size 15 to 20)
#    0.000    1.600    2.000    2.400    8.400    0.000 
#    0.000    1.000    0.000    9.600    0.000    0.000 
#    0.000    0.000    0.000    0.000    0.000    0.000 
#
# Total GULP energy -111472.837296 kJ/mol
# GULP energy per Si atom -5573.641865 kJ/mol
# Density = 2.236834 g / cm^3
# Si number density = 22.419369 Si / 1000 Ang^3
#
#
#
# Elastic Constant Matrix: (Units=GPa)
#
#
# Indices 1 2 3 4 5 6 
#
# 1 215.1900 27.5706 55.5567 0.0000 -26.3002 0.0000
# 2 27.5706 75.8942 26.0772 0.0000 0.4301 0.0000
# 3 55.5567 26.0772 119.3817 0.0000 -8.3547 0.0000
# 4 0.0000 0.0000 0.0000 21.8399 0.0000 8.4134
# 5 -26.3002 0.4301 -8.3547 0.0000 36.1464 0.0000
# 6 0.0000 0.0000 0.0000 8.4134 0.0000 26.5897
#
#
#
# Elastic Compliance Matrix: (Units=1/GPa)
#
#
# Indices 1 2 3 4 5 6 
#
# 1 0.005843 -0.001406 -0.002148 0.000000 0.003771 0.000000
# 2 -0.001406 0.014613 -0.002665 0.000000 -0.001813 0.000000
# 3 -0.002148 -0.002665 0.010013 0.000000 0.000783 0.000000
# 4 0.000000 0.000000 0.000000 0.052144 0.000000 -0.016499
# 5 0.003771 -0.001813 0.000783 0.000000 0.030612 0.000000
# 6 0.000000 0.000000 0.000000 -0.016499 0.000000 0.042829
#
#
# Mechanical properties :
#
#
# Convention : Reuss Voigt Hill
#
# Bulk Modulus (GPa) = 55.45818 69.87498 62.66658
# Shear Modulus (GPa) = 28.65325 36.99929 32.82627
#
# Velocity S-wave (km/s) = 3.57887 4.06683 3.83063
# Velocity P-wave (km/s) = 6.47056 7.29980 6.89765
#
# Compressibility (1/GPa) = 0.01803161
#
# Stress axis : x y z
#
# Youngs Moduli (GPa) = 171.15481 68.43331 99.87066
#
# Poissons Ratio (x) = 0.09621 0.21452
# Poissons Ratio (y) = 0.24061 0.26611
# Poissons Ratio (z) = 0.36764 0.18235
#
# Static dielectric constant tensor:
#      x y z
#    x 1.864410 0.000000 0.018010 
#    y 0.000000 1.935360 0.000000 
#    z 0.018010 0.000000 1.863180 
# 
# From -- ./inp_files/109797.got.cif
#   From: 2010.05.17/outbox.cif.g08.bks.cpg/sg15_55_cif.got.tgz:109797.got - 2010.06.03 18:47:42.
