data_PCOD9273571
_publ_section_title
;
Structure prediction by ZEFSAII (Michael W. Deem and Ramdas Pophale) SiO2 
 PCOD9273571
Probable space group: C 2/C
;
_chemical_formula_sum "Si O2"
_cell_formula_units_Z 32
_cell_length_a 16.160553
_cell_length_b 5.197789
_cell_length_c 17.407396
_cell_angle_alpha 90.000000
_cell_angle_beta 105.317125
_cell_angle_gamma 90.000000
_cell_volume 1410.266621
_symmetry_space_group_name_H-M "C 2/C"
_symmetry_group_IT_number 15
_symmetry_cell_setting 'monoclinic'
loop_
_space_group_symop_operation_xyz
x,y,z
-x,y,1/2-z
-x,-y,-z
x,-y,1/2+z
1/2+x,1/2+y,z
1/2-x,1/2+y,1/2-z
1/2-x,1/2-y,-z
1/2+x,1/2-y,1/2+z
loop_
_atom_site_type_symbol
_atom_site_label
_atom_site_fract_x
_atom_site_fract_y
_atom_site_fract_z
Si Si1 0.143718 0.575260 0.770270
Si Si2 0.712539 0.263792 0.625324
Si Si3 0.605591 0.417056 0.332859
Si Si4 0.549258 0.746779 0.981968
O O1 0.235333 0.520355 0.835885
O O2 0.165044 0.665751 0.690316
O O3 0.090535 0.793939 0.801672
O O4 0.100847 0.294031 0.763773
O O5 0.643873 0.268796 0.541709
O O6 0.792611 0.084816 0.622802
O O7 0.557348 0.295563 0.392919
O O8 0.500000 0.500000 0.000000
O O9 0.500000 0.000000 0.000000
#
# Coordination Sequence:
#
# PCOD9273571 Si02
#       4
#     8   8   8   8
#     4  10  20  37  73  95 113 152 224 266 299 346
#     4  10  22  41  70  92 123 157 215 262 307 366
#     4  10  21  41  65  94 117 164 216 252 307 362
#     4  12  28  42  59  92 136 170 199 251 321 380
#
# _framework density 22.690746000000001
#
# number of rings (size 3 to 8) (size 9 to 14) (size 15 to 20)
#    1.500    0.000    2.500    2.250    3.500    1.000 
#    0.000    7.500    0.000    0.000    0.000    0.000 
#    0.000    0.000    0.000    0.000    0.000    0.000 
#
# Total GULP energy -89268.439160 kJ/mol
# GULP energy per Si atom -5579.277447 kJ/mol
# Density = 2.263910 g / cm^3
# Si number density = 22.690746 Si / 1000 Ang^3
#
#
#
# Elastic Constant Matrix: (Units=GPa)
#
#
# Indices 1 2 3 4 5 6 
#
# 1 61.6518 -4.3057 33.5903 0.0000 22.8020 0.0000
# 2 -4.3057 130.8811 26.2795 0.0000 -6.2201 0.0000
# 3 33.5903 26.2795 87.4584 0.0000 -11.3491 0.0000
# 4 0.0000 0.0000 0.0000 20.2610 0.0000 -17.2469
# 5 22.8020 -6.2201 -11.3491 0.0000 47.8886 0.0000
# 6 0.0000 0.0000 0.0000 -17.2469 0.0000 12.2484
#
#
#
# Elastic Compliance Matrix: (Units=1/GPa)
#
#
# Indices 1 2 3 4 5 6 
#
# 1 0.031713 0.003294 -0.015552 0.000000 -0.018358 0.000000
# 2 0.003294 0.008484 -0.003998 0.000000 -0.001414 0.000000
# 3 -0.015552 -0.003998 0.020121 0.000000 0.011654 0.000000
# 4 0.000000 0.000000 0.000000 -0.248502 0.000000 -0.349914
# 5 -0.018358 -0.001414 0.011654 0.000000 0.032201 0.000000
# 6 0.000000 0.000000 0.000000 -0.349914 0.000000 -0.411068
#
#
# Mechanical properties :
#
#
# Convention : Reuss Voigt Hill
#
# Bulk Modulus (GPa) = 35.96385 43.45772 39.71079
# Shear Modulus (GPa) = -9.51892 31.04143 10.76125
#
# Velocity S-wave (km/s) = -2.05041 3.70269 2.18011
# Velocity P-wave (km/s) = 3.20600 6.12157 4.88631
#
# Compressibility (1/GPa) = 0.02780570
#
# Stress axis : x y z
#
# Youngs Moduli (GPa) = 31.53264 117.86337 49.70021
#
# Poissons Ratio (x) = -0.38818 0.77294
# Poissons Ratio (y) = -0.10385 0.19869
# Poissons Ratio (z) = 0.49040 0.47119
#
# Static dielectric constant tensor:
#      x y z
#    x 1.886460 0.000000 0.027470 
#    y 0.000000 1.856450 0.000000 
#    z 0.027470 0.000000 1.834740 
# 
# From -- ./inp_files/158043.got.cif
#   From: 2010.05.17/outbox.cif.g08.bks.cpg/sg15_80_cif.got.tgz:158043.got - 2010.06.03 18:47:42.
