data_PCOD9273832
_publ_section_title
;
Structure prediction by ZEFSAII (Michael W. Deem and Ramdas Pophale) SiO2 
 PCOD9273832
Probable space group: C 2/C
;
_chemical_formula_sum "Si O2"
_cell_formula_units_Z 52
_cell_length_a 9.755913
_cell_length_b 27.514989
_cell_length_c 12.254660
_cell_angle_alpha 90.000000
_cell_angle_beta 47.686728
_cell_angle_gamma 90.000000
_cell_volume 2432.551982
_symmetry_space_group_name_H-M "C 2/C"
_symmetry_group_IT_number 15
_symmetry_cell_setting 'monoclinic'
loop_
_space_group_symop_operation_xyz
x,y,z
-x,y,1/2-z
-x,-y,-z
x,-y,1/2+z
1/2+x,1/2+y,z
1/2-x,1/2+y,1/2-z
1/2-x,1/2-y,-z
1/2+x,1/2-y,1/2+z
loop_
_atom_site_type_symbol
_atom_site_label
_atom_site_fract_x
_atom_site_fract_y
_atom_site_fract_z
Si Si1 0.350441 0.397304 0.744824
Si Si2 0.073854 0.226180 0.531633
Si Si3 0.226429 0.566508 0.879219
Si Si4 0.576809 0.553440 0.945730
Si Si5 0.837183 0.465928 0.493234
Si Si6 0.139545 0.687072 0.278833
Si Si7 0.000000 0.851315 0.250000
O O1 0.500000 0.375639 0.750000
O O2 0.439140 0.409866 0.580677
O O3 0.287311 0.446453 0.839438
O O4 0.175146 0.363183 0.820319
O O5 0.250000 0.250000 0.500000
O O6 0.162527 0.204045 0.376029
O O7 0.983238 0.184462 0.655170
O O8 0.934817 0.271249 0.601568
O O9 0.383079 0.559341 0.702176
O O10 0.194573 0.524303 0.986693
O O11 0.307291 0.618404 0.875027
O O12 0.037622 0.555946 0.912829
O O13 0.500000 0.500000 0.000000
O O14 0.759944 0.554967 0.922588
O O15 0.000000 0.681864 0.250000
#
# Coordination Sequence:
#
# PCOD9273832 Si02
#       7
#     8   8   8   8   8   8   4
#     4  10  22  40  61  86 125 163 202 243 313 372
#     4  10  20  38  59  91 121 146 200 270 308 355
#     4  11  23  37  59  89 121 159 209 243 306 365
#     4  11  20  39  60  80 122 168 199 246 304 360
#     4  10  23  39  56  88 127 160 201 256 288 366
#     4  10  21  38  63  88 119 153 200 257 313 358
#     4  12  22  36  66  90 120 164 202 254 320 362
#
# _framework density 21.376726999999999
#
# number of rings (size 3 to 8) (size 9 to 14) (size 15 to 20)
#    0.000    1.538    3.846    2.308    5.385    0.000 
#    2.769    0.769    0.000    1.846    0.000    0.000 
#    0.000    0.000    0.000    0.000    0.000    0.000 
#
# Total GULP energy -144928.682478 kJ/mol
# GULP energy per Si atom -5574.180095 kJ/mol
# Density = 2.132807 g / cm^3
# Si number density = 21.376727 Si / 1000 Ang^3
#
#
#
# Elastic Constant Matrix: (Units=GPa)
#
#
# Indices 1 2 3 4 5 6 
#
# 1 45.6199 17.4756 0.8765 0.0000 -13.7404 0.0000
# 2 17.4756 87.0037 1.8865 0.0000 -12.3456 0.0000
# 3 0.8765 1.8865 64.7775 0.0000 -0.7743 0.0000
# 4 0.0000 0.0000 0.0000 13.9609 0.0000 -17.3438
# 5 -13.7404 -12.3456 -0.7743 0.0000 32.3537 0.0000
# 6 0.0000 0.0000 0.0000 -17.3438 0.0000 24.5370
#
#
#
# Elastic Compliance Matrix: (Units=1/GPa)
#
#
# Indices 1 2 3 4 5 6 
#
# 1 0.026340 -0.003913 -0.000127 0.000000 0.009690 0.000000
# 2 -0.003913 0.012739 -0.000280 0.000000 0.003192 0.000000
# 3 -0.000127 -0.000280 0.015450 0.000000 0.000209 0.000000
# 4 0.000000 0.000000 0.000000 0.587681 0.000000 0.415398
# 5 0.009690 0.003192 0.000209 0.000000 0.036247 0.000000
# 6 0.000000 0.000000 0.000000 0.415398 0.000000 0.334376
#
#
# Mechanical properties :
#
#
# Convention : Reuss Voigt Hill
#
# Bulk Modulus (GPa) = 21.79123 26.43093 24.11108
# Shear Modulus (GPa) = 4.82268 25.98115 15.40191
#
# Velocity S-wave (km/s) = 1.50364 3.49003 2.68712
# Velocity P-wave (km/s) = 3.63739 5.35085 4.57505
#
# Compressibility (1/GPa) = 0.04589003
#
# Stress axis : x y z
#
# Youngs Moduli (GPa) = 37.96461 78.50050 64.72562
#
# Poissons Ratio (x) = 0.30717 0.00820
# Poissons Ratio (y) = 0.14855 0.01812
# Poissons Ratio (z) = 0.00481 0.02197
#
# Static dielectric constant tensor:
#      x y z
#    x 1.849570 0.000000 -0.025600 
#    y 0.000000 1.847960 0.000000 
#    z -0.025600 0.000000 1.822640 
# 
# From -- ./inp_files/148038.got.cif
#   From: 2010.05.17/outbox.cif.g08.bks.cpg/sg15_75_cif.got.tgz:148038.got - 2010.06.03 18:47:42.
