data_PCOD9273157
_publ_section_title
;
Structure prediction by ZEFSAII (Michael W. Deem and Ramdas Pophale) SiO2 
 PCOD9273157
Probable space group: C 2/C
;
_chemical_formula_sum "Si O2"
_cell_formula_units_Z 44
_cell_length_a 12.616534
_cell_length_b 13.984363
_cell_length_c 24.914747
_cell_angle_alpha 90.000000
_cell_angle_beta 33.871361
_cell_angle_gamma 90.000000
_cell_volume 2449.919304
_symmetry_space_group_name_H-M "C 2/C"
_symmetry_group_IT_number 15
_symmetry_cell_setting 'monoclinic'
loop_
_space_group_symop_operation_xyz
x,y,z
-x,y,1/2-z
-x,-y,-z
x,-y,1/2+z
1/2+x,1/2+y,z
1/2-x,1/2+y,1/2-z
1/2-x,1/2-y,-z
1/2+x,1/2-y,1/2+z
loop_
_atom_site_type_symbol
_atom_site_label
_atom_site_fract_x
_atom_site_fract_y
_atom_site_fract_z
Si Si1 0.554312 0.462764 0.803059
Si Si2 0.000000 0.420296 0.250000
Si Si3 0.922844 0.250704 0.358977
Si Si4 0.012372 0.257541 0.446920
Si Si5 0.192686 0.543451 0.893911
Si Si6 0.375010 0.456798 0.600304
O O1 0.522506 0.350121 0.803720
O O2 0.370158 0.518549 0.857777
O O3 0.737383 0.500673 0.693007
O O4 0.561862 0.473358 0.864251
O O5 0.000174 0.345647 0.298844
O O6 0.822259 0.489710 0.323209
O O7 0.958169 0.265297 0.407095
O O8 0.698774 0.242066 0.438109
O O9 0.144088 0.345152 0.408269
O O10 0.116795 0.157118 0.411316
O O11 0.000000 0.500000 0.000000
O O12 0.500000 0.500000 0.500000
#
# Coordination Sequence:
#
# PCOD9273157 Si02
#       6
#     8   4   8   8   8   8
#     4  10  23  39  61  92 121 154 200 249 301 357
#     4  12  22  36  64  86 116 160 204 242 292 358
#     4  10  20  37  63  87 115 158 209 239 283 364
#     4  10  21  39  60  87 121 157 195 250 301 349
#     4  11  21  37  63  92 122 152 198 252 302 348
#     4  11  24  41  60  88 123 159 201 247 298 359
#
# _framework density 17.959775
#
# number of rings (size 3 to 8) (size 9 to 14) (size 15 to 20)
#    0.000    1.455    3.636    2.182    0.000    2.909 
#    0.000    0.909    0.000    0.000    0.000    0.000 
#    0.000    0.000    0.000    0.000    0.000    0.000 
#
# Total GULP energy -122672.929253 kJ/mol
# GULP energy per Si atom -5576.042239 kJ/mol
# Density = 1.791890 g / cm^3
# Si number density = 17.959775 Si / 1000 Ang^3
#
#
#
# Elastic Constant Matrix: (Units=GPa)
#
#
# Indices 1 2 3 4 5 6 
#
# 1 72.3934 64.5948 54.7629 0.0000 3.7044 0.0000
# 2 64.5948 184.6770 83.0550 -0.0001 -9.2408 0.0001
# 3 54.7629 83.0550 142.5574 -0.0004 -2.4007 0.0000
# 4 0.0000 -0.0001 -0.0004 24.1274 0.0001 -4.5733
# 5 3.7044 -9.2408 -2.4007 0.0001 30.8769 0.0000
# 6 0.0000 0.0001 0.0000 -4.5733 0.0000 22.3007
#
#
#
# Elastic Compliance Matrix: (Units=1/GPa)
#
#
# Indices 1 2 3 4 5 6 
#
# 1 0.023741 -0.005987 -0.005717 0.000000 -0.005084 0.000000
# 2 -0.005987 0.008956 -0.002865 0.000000 0.003176 0.000000
# 3 -0.005717 -0.002865 0.010891 0.000000 0.000675 0.000000
# 4 0.000000 0.000000 0.000000 0.043123 0.000000 0.008843
# 5 -0.005084 0.003176 0.000675 0.000000 0.034000 0.000000
# 6 0.000000 0.000000 0.000000 0.008843 0.000000 0.046655
#
#
# Mechanical properties :
#
#
# Convention : Reuss Voigt Hill
#
# Bulk Modulus (GPa) = 69.20326 89.38370 79.29348
# Shear Modulus (GPa) = 24.83604 28.60868 26.72236
#
# Velocity S-wave (km/s) = 3.72273 3.99548 3.86152
# Velocity P-wave (km/s) = 7.55608 8.43576 8.00801
#
# Compressibility (1/GPa) = 0.01445019
#
# Stress axis : x y z
#
# Youngs Moduli (GPa) = 42.12196 111.65580 91.81584
#
# Poissons Ratio (x) = 0.66847 0.52496
# Poissons Ratio (y) = 0.25218 0.26301
# Poissons Ratio (z) = 0.24083 0.31985
#
# Static dielectric constant tensor:
#      x y z
#    x 1.592120 0.000000 0.019350 
#    y 0.000000 1.591300 0.000000 
#    z 0.019350 0.000000 1.625680 
# 
# From -- ./inp_files/142283.got.cif
#   From: 2010.05.17/outbox.cif.g08.bks.cpg/sg15_72_cif.got.tgz:142283.got - 2010.06.03 18:47:42.
