data_PCOD9273544
_publ_section_title
;
Structure prediction by ZEFSAII (Michael W. Deem and Ramdas Pophale) SiO2 
 PCOD9273544
Probable space group: C 2/C
;
_chemical_formula_sum "Si O2"
_cell_formula_units_Z 60
_cell_length_a 13.100356
_cell_length_b 8.330122
_cell_length_c 23.585096
_cell_angle_alpha 90.000000
_cell_angle_beta 114.720426
_cell_angle_gamma 90.000000
_cell_volume 2337.920307
_symmetry_space_group_name_H-M "C 2/C"
_symmetry_group_IT_number 15
_symmetry_cell_setting 'monoclinic'
loop_
_space_group_symop_operation_xyz
x,y,z
-x,y,1/2-z
-x,-y,-z
x,-y,1/2+z
1/2+x,1/2+y,z
1/2-x,1/2+y,1/2-z
1/2-x,1/2-y,-z
1/2+x,1/2-y,1/2+z
loop_
_atom_site_type_symbol
_atom_site_label
_atom_site_fract_x
_atom_site_fract_y
_atom_site_fract_z
Si Si1 0.220247 0.548847 0.865003
Si Si2 0.006372 0.715814 0.654381
Si Si3 0.070280 0.677457 0.981587
Si Si4 0.377939 0.820406 0.886530
Si Si5 0.297817 0.500572 0.495755
Si Si6 0.500000 0.758719 0.750000
Si Si7 0.325857 0.997771 0.765753
Si Si8 0.059580 0.913187 0.370902
O O1 0.089097 0.593087 0.843111
O O2 0.276468 0.720261 0.889963
O O3 0.252078 0.505399 0.807785
O O4 0.269041 0.435475 0.925847
O O5 0.016233 0.668114 0.590491
O O6 0.118482 0.673682 0.714691
O O7 0.970987 0.900359 0.647140
O O8 0.103826 0.867562 0.989284
O O9 0.050229 0.626658 0.041712
O O10 0.182129 0.584696 0.987034
O O11 0.315132 0.936935 0.827564
O O12 0.459459 0.693262 0.874499
O O13 0.341679 0.600287 0.559521
O O14 0.415356 0.869585 0.764032
O O15 0.426131 0.658866 0.688375
#
# Coordination Sequence:
#
# PCOD9273544 Si02
#       8
#     8   8   8   8   8   4   8   8
#     4  10  20  38  61  82 114 156 194 232 279 350
#     4  10  20  37  68  82 106 157 210 219 273 367
#     4   8  16  34  57  87 113 149 186 239 286 336
#     4  10  22  37  56  85 129 142 178 255 303 320
#     4   8  16  34  59  85 108 149 198 232 271 344
#     4  10  22  38  56  82 120 148 188 248 290 334
#     4  11  22  40  58  84 120 159 187 239 294 341
#     4  10  21  36  59  90 110 151 194 237 290 344
#
# _framework density 25.663834999999999
#
# number of rings (size 3 to 8) (size 9 to 14) (size 15 to 20)
#    0.000    2.400    1.333    2.400    1.867    6.400 
#    7.200    0.667    0.000    0.000    0.000    0.000 
#    0.000    0.000    0.000    0.000    0.000    0.000 
#
# Total GULP energy -167328.453968 kJ/mol
# GULP energy per Si atom -5577.615132 kJ/mol
# Density = 2.560542 g / cm^3
# Si number density = 25.663835 Si / 1000 Ang^3
#
#
#
# Elastic Constant Matrix: (Units=GPa)
#
#
# Indices 1 2 3 4 5 6 
#
# 1 14.6013 11.5365 13.0630 0.0000 -2.0277 0.0000
# 2 11.5365 54.5564 49.6998 0.0000 -4.0427 0.0000
# 3 13.0630 49.6998 225.4536 0.0000 -5.7984 0.0000
# 4 0.0000 0.0000 0.0000 42.4194 0.0000 -6.7295
# 5 -2.0277 -4.0427 -5.7984 0.0000 30.4460 0.0000
# 6 0.0000 0.0000 0.0000 -6.7295 0.0000 19.3982
#
#
#
# Elastic Compliance Matrix: (Units=1/GPa)
#
#
# Indices 1 2 3 4 5 6 
#
# 1 0.082766 -0.016234 -0.001136 0.000000 0.003140 0.000000
# 2 -0.016234 0.026253 -0.004808 0.000000 0.001489 0.000000
# 3 -0.001136 -0.004808 0.005570 0.000000 0.000347 0.000000
# 4 0.000000 0.000000 0.000000 0.024947 0.000000 0.008654
# 5 0.003140 0.001489 0.000347 0.000000 0.033318 0.000000
# 6 0.000000 0.000000 0.000000 0.008654 0.000000 0.054553
#
#
# Mechanical properties :
#
#
# Convention : Reuss Voigt Hill
#
# Bulk Modulus (GPa) = 14.23843 49.24554 31.74198
# Shear Modulus (GPa) = 16.93902 33.14020 25.03961
#
# Velocity S-wave (km/s) = 2.57190 3.59739 3.12697
# Velocity P-wave (km/s) = 3.79205 6.04031 5.04306
#
# Compressibility (1/GPa) = 0.07023246
#
# Stress axis : x y z
#
# Youngs Moduli (GPa) = 12.08221 38.09052 179.52566
#
# Poissons Ratio (x) = 0.61837 0.20396
# Poissons Ratio (y) = 0.19614 0.86324
# Poissons Ratio (z) = 0.01373 0.18316
#
# Static dielectric constant tensor:
#      x y z
#    x 2.034440 0.000000 0.051580 
#    y 0.000000 2.039430 0.000000 
#    z 0.051580 0.000000 2.227400 
# 
# From -- ./inp_files/276577.got.cif
#   From: 2010.05.17/outbox.cif.g08.bks.cpg/sg15_139_cif.got.tgz:276577.got - 2010.06.03 18:47:42.
