data_PCOD9273678
_publ_section_title
;
Structure prediction by ZEFSAII (Michael W. Deem and Ramdas Pophale) SiO2 
 PCOD9273678
Probable space group: C 2/C
;
_chemical_formula_sum "Si O2"
_cell_formula_units_Z 60
_cell_length_a 10.044039
_cell_length_b 10.017035
_cell_length_c 24.377357
_cell_angle_alpha 90.000000
_cell_angle_beta 80.559979
_cell_angle_gamma 90.000000
_cell_volume 2419.428137
_symmetry_space_group_name_H-M "C 2/C"
_symmetry_group_IT_number 15
_symmetry_cell_setting 'monoclinic'
loop_
_space_group_symop_operation_xyz
x,y,z
-x,y,1/2-z
-x,-y,-z
x,-y,1/2+z
1/2+x,1/2+y,z
1/2-x,1/2+y,1/2-z
1/2-x,1/2-y,-z
1/2+x,1/2-y,1/2+z
loop_
_atom_site_type_symbol
_atom_site_label
_atom_site_fract_x
_atom_site_fract_y
_atom_site_fract_z
Si Si1 0.595458 0.098197 0.057658
Si Si2 0.496786 0.404063 0.915883
Si Si3 0.259389 0.214172 0.618552
Si Si4 0.793511 0.530563 0.053682
Si Si5 0.000000 0.553789 0.750000
Si Si6 0.619313 0.707820 0.179991
Si Si7 0.745689 0.605736 0.279800
Si Si8 0.719618 0.411820 0.383663
O O1 0.638698 0.224143 0.090706
O O2 0.438245 0.099495 0.052363
O O3 0.654504 0.973017 0.090026
O O4 0.678271 0.077059 0.996305
O O5 0.605165 0.285020 0.915342
O O6 0.347766 0.397444 0.952062
O O7 0.463494 0.386545 0.853675
O O8 0.581636 0.538703 0.921811
O O9 0.267706 0.057916 0.609579
O O10 0.238410 0.264922 0.682033
O O11 0.960662 0.654982 0.801298
O O12 0.879644 0.454970 0.744012
O O13 0.653605 0.643234 0.235309
O O14 0.747653 0.761692 0.136148
O O15 0.711458 0.491713 0.326527
#
# Coordination Sequence:
#
# PCOD9273678 Si02
#       8
#     8   8   8   8   4   8   8   8
#     4   9  21  41  61  88 120 153 201 245 301 362
#     4  10  23  37  58  89 115 151 200 237 290 359
#     4  10  22  41  58  86 124 153 192 250 301 347
#     4  11  22  39  65  88 115 157 198 250 298 352
#     4  10  20  38  58  78 118 160 188 240 290 334
#     4  11  21  37  59  83 117 158 193 238 294 342
#     4   9  21  35  57  86 111 152 200 231 286 358
#     4   9  21  39  57  85 122 151 191 249 290 345
#
# _framework density 24.799247999999999
#
# number of rings (size 3 to 8) (size 9 to 14) (size 15 to 20)
#    0.000    2.400    0.000    2.800    0.000   12.800 
#    0.000    6.000    0.000    0.000    0.000    0.000 
#    0.000    0.000    0.000    0.000    0.000    0.000 
#
# Total GULP energy -167462.125384 kJ/mol
# GULP energy per Si atom -5582.070846 kJ/mol
# Density = 2.474280 g / cm^3
# Si number density = 24.799248 Si / 1000 Ang^3
#
#
#
# Elastic Constant Matrix: (Units=GPa)
#
#
# Indices 1 2 3 4 5 6 
#
# 1 140.1118 31.3633 26.0114 0.0000 7.5937 0.0000
# 2 31.3633 29.0928 3.7015 0.0000 2.8242 0.0000
# 3 26.0114 3.7015 71.9785 0.0000 14.6705 0.0000
# 4 0.0000 0.0000 0.0000 14.3429 0.0000 -3.8014
# 5 7.5937 2.8242 14.6705 0.0000 29.8647 0.0000
# 6 0.0000 0.0000 0.0000 -3.8014 0.0000 29.2268
#
#
#
# Elastic Compliance Matrix: (Units=1/GPa)
#
#
# Indices 1 2 3 4 5 6 
#
# 1 0.010048 -0.010435 -0.003084 0.000000 -0.000053 0.000000
# 2 -0.010435 0.045628 0.001959 0.000000 -0.002624 0.000000
# 3 -0.003084 0.001959 0.016430 0.000000 -0.007472 0.000000
# 4 0.000000 0.000000 0.000000 0.072210 0.000000 0.009392
# 5 -0.000053 -0.002624 -0.007472 0.000000 0.037416 0.000000
# 6 0.000000 0.000000 0.000000 0.009392 0.000000 0.035437
#
#
# Mechanical properties :
#
#
# Convention : Reuss Voigt Hill
#
# Bulk Modulus (GPa) = 20.41369 40.37063 30.39216
# Shear Modulus (GPa) = 19.48433 26.69402 23.08918
#
# Velocity S-wave (km/s) = 2.80604 3.28442 3.05461
# Velocity P-wave (km/s) = 4.32989 5.54054 4.97220
#
# Compressibility (1/GPa) = 0.04898672
#
# Stress axis : x y z
#
# Youngs Moduli (GPa) = 99.51868 21.91658 60.86587
#
# Poissons Ratio (x) = 0.22870 0.18770
# Poissons Ratio (y) = 1.03848 -0.11926
# Poissons Ratio (z) = 0.30689 -0.04294
#
# Static dielectric constant tensor:
#      x y z
#    x 2.082760 0.000000 -0.107980 
#    y 0.000000 2.002450 0.000000 
#    z -0.107980 0.000000 1.975290 
# 
# From -- ./inp_files/288021.got.cif
#   From: 2010.05.17/outbox.cif.g08.bks.cpg/sg15_145_cif.got.tgz:288021.got - 2010.06.03 18:47:42.
