data_PCOD9273090
_publ_section_title
;
Structure prediction by ZEFSAII (Michael W. Deem and Ramdas Pophale) SiO2 
 PCOD9273090
Probable space group: C 2/C
;
_chemical_formula_sum "Si O2"
_cell_formula_units_Z 28
_cell_length_a 32.491776
_cell_length_b 4.262648
_cell_length_c 7.807500
_cell_angle_alpha 90.000000
_cell_angle_beta 120.867598
_cell_angle_gamma 90.000000
_cell_volume 928.179453
_symmetry_space_group_name_H-M "C 2/C"
_symmetry_group_IT_number 15
_symmetry_cell_setting 'monoclinic'
loop_
_space_group_symop_operation_xyz
x,y,z
-x,y,1/2-z
-x,-y,-z
x,-y,1/2+z
1/2+x,1/2+y,z
1/2-x,1/2+y,1/2-z
1/2-x,1/2-y,-z
1/2+x,1/2-y,1/2+z
loop_
_atom_site_type_symbol
_atom_site_label
_atom_site_fract_x
_atom_site_fract_y
_atom_site_fract_z
Si Si1 0.786137 0.265011 0.827625
Si Si2 0.000000 0.788603 0.750000
Si Si3 0.428775 0.308611 0.862138
Si Si4 0.140999 0.767103 0.515479
O O1 0.750066 0.514012 0.659409
O O2 0.824145 0.506310 0.991959
O O3 0.822821 0.020414 0.820281
O O4 0.963156 0.625744 0.802805
O O5 0.965087 0.999105 0.559396
O O6 0.393998 0.539907 0.682583
O O7 0.393488 0.124363 0.913090
#
# Coordination Sequence:
#
# PCOD9273090 Si02
#       4
#     8   4   8   8
#     4   9  20  41  62  90 124 162 204 251 302 357
#     4   8  16  36  64  92 124 160 200 250 304 362
#     4   9  18  34  64  92 124 160 202 248 302 361
#     4  10  20  37  62  91 124 161 202 247 298 358
#
# _framework density 30.166582999999999
#
# number of rings (size 3 to 8) (size 9 to 14) (size 15 to 20)
#    0.000    2.857    0.000    0.000    0.000    2.286 
#    0.000   28.571    0.000  120.000    0.000    0.000 
#    0.000    0.000    0.000    0.000    0.000    0.000 
#
# Total GULP energy -78207.093377 kJ/mol
# GULP energy per Si atom -5586.220956 kJ/mol
# Density = 3.009792 g / cm^3
# Si number density = 30.166583 Si / 1000 Ang^3
#
#
#
# Elastic Constant Matrix: (Units=GPa)
#
#
# Indices 1 2 3 4 5 6 
#
# 1 240.3908 84.4895 81.5040 0.0000 25.2744 0.0000
# 2 84.4895 157.3585 68.4758 0.0000 27.0783 0.0000
# 3 81.5040 68.4758 169.7197 0.0000 43.7091 0.0000
# 4 0.0000 0.0000 0.0000 87.0545 0.0000 42.5012
# 5 25.2744 27.0783 43.7091 0.0000 35.4044 0.0000
# 6 0.0000 0.0000 0.0000 42.5012 0.0000 25.7880
#
#
#
# Elastic Compliance Matrix: (Units=1/GPa)
#
#
# Indices 1 2 3 4 5 6 
#
# 1 0.005534 -0.002192 -0.001741 0.000000 -0.000124 0.000000
# 2 -0.002192 0.008803 -0.001712 0.000000 -0.003053 0.000000
# 3 -0.001741 -0.001712 0.009914 0.000000 -0.009687 0.000000
# 4 0.000000 0.000000 0.000000 0.058795 0.000000 -0.096900
# 5 -0.000124 -0.003053 -0.009687 0.000000 0.042628 0.000000
# 6 0.000000 0.000000 0.000000 -0.096900 0.000000 0.198478
#
#
# Mechanical properties :
#
#
# Convention : Reuss Voigt Hill
#
# Bulk Modulus (GPa) = 77.16704 115.15642 96.16173
# Shear Modulus (GPa) = 14.71622 51.84936 33.28279
#
# Velocity S-wave (km/s) = 2.21109 4.15030 3.32520
# Velocity P-wave (km/s) = 5.67048 7.82452 6.83291
#
# Compressibility (1/GPa) = 0.01295890
#
# Stress axis : x y z
#
# Youngs Moduli (GPa) = 180.71037 113.60348 100.87109
#
# Poissons Ratio (x) = 0.24904 0.17561
# Poissons Ratio (y) = 0.39615 0.17273
# Poissons Ratio (z) = 0.31460 0.19453
#
# Static dielectric constant tensor:
#      x y z
#    x 2.275360 0.000000 -0.036710 
#    y 0.000000 2.283270 0.000000 
#    z -0.036710 0.000000 2.293200 
# 
# From -- ./inp_files/67926.got.cif
#   From: 2010.05.17/outbox.cif.g08.bks.cpg/sg15_34_cif.got.tgz:67926.got - 2010.06.03 18:47:42.
