data_PCOD9273588
_publ_section_title
;
Structure prediction by ZEFSAII (Michael W. Deem and Ramdas Pophale) SiO2 
 PCOD9273588
Probable space group: C 2/C
;
_chemical_formula_sum "Si O2"
_cell_formula_units_Z 40
_cell_length_a 17.801652
_cell_length_b 14.611684
_cell_length_c 20.049729
_cell_angle_alpha 90.000000
_cell_angle_beta 157.261674
_cell_angle_gamma 90.000000
_cell_volume 2015.786299
_symmetry_space_group_name_H-M "C 2/C"
_symmetry_group_IT_number 15
_symmetry_cell_setting 'monoclinic'
loop_
_space_group_symop_operation_xyz
x,y,z
-x,y,1/2-z
-x,-y,-z
x,-y,1/2+z
1/2+x,1/2+y,z
1/2-x,1/2+y,1/2-z
1/2-x,1/2-y,-z
1/2+x,1/2-y,1/2+z
loop_
_atom_site_type_symbol
_atom_site_label
_atom_site_fract_x
_atom_site_fract_y
_atom_site_fract_z
Si Si1 0.398934 0.655672 0.736991
Si Si2 0.484463 0.586179 0.435507
Si Si3 0.223674 0.852167 0.614286
Si Si4 0.909159 0.551271 0.748437
Si Si5 0.159286 0.485319 0.573294
O O1 0.500000 0.635512 0.750000
O O2 0.337529 0.760864 0.689464
O O3 0.222756 0.585835 0.601119
O O4 0.547976 0.638111 0.918641
O O5 0.500000 0.500000 0.500000
O O6 0.368917 0.656971 0.387688
O O7 0.705145 0.604022 0.593692
O O8 0.347416 0.560693 0.261299
O O9 0.350941 0.943755 0.710136
O O10 0.000000 0.565571 0.750000
O O11 0.063443 0.569012 0.933624
O O12 0.000000 0.500000 0.500000
#
# Coordination Sequence:
#
# PCOD9273588 Si02
#       5
#     8   8   8   8   8
#     4  12  23  35  55  87 123 153 187 235 294 348
#     4  10  20  38  54  79 115 152 202 236 269 349
#     4  11  21  37  52  82 123 153 190 231 283 352
#     4  11  21  36  58  86 116 149 194 246 291 336
#     4  12  21  37  61  80 117 163 194 229 290 345
#
# _framework density 19.843373
#
# number of rings (size 3 to 8) (size 9 to 14) (size 15 to 20)
#    0.000    0.800    8.000    3.600    0.000    0.000 
#    0.000    0.000    0.000    0.000    0.000    7.000 
#    0.000    0.000    0.000    0.000    0.000    0.000 
#
# Total GULP energy -111729.348704 kJ/mol
# GULP energy per Si atom -5586.467435 kJ/mol
# Density = 1.979821 g / cm^3
# Si number density = 19.843373 Si / 1000 Ang^3
#
#
#
# Elastic Constant Matrix: (Units=GPa)
#
#
# Indices 1 2 3 4 5 6 
#
# 1 140.6610 3.6151 26.7441 0.0035 11.8875 0.0001
# 2 3.6151 8.6902 -11.9076 0.0354 14.4264 0.0132
# 3 26.7441 -11.9076 108.8537 0.0246 -19.8352 0.0081
# 4 0.0035 0.0354 0.0246 115.6230 -0.0121 53.5506
# 5 11.8875 14.4264 -19.8352 -0.0121 35.7481 -0.0071
# 6 0.0001 0.0132 0.0081 53.5506 -0.0071 46.8181
#
#
#
# Elastic Compliance Matrix: (Units=1/GPa)
#
#
# Indices 1 2 3 4 5 6 
#
# 1 0.007978 -0.000434 -0.002736 0.000000 -0.003996 0.000000
# 2 -0.000434 0.368673 0.014854 -0.000152 -0.140395 0.000046
# 3 -0.002736 0.014854 0.011745 -0.000009 0.001432 0.000004
# 4 0.000000 -0.000152 -0.000009 0.018392 0.000059 -0.021037
# 5 -0.003996 -0.140395 0.001432 0.000059 0.086754 -0.000014
# 6 0.000000 0.000046 0.000004 -0.021037 -0.000014 0.045421
#
#
# Mechanical properties :
#
#
# Convention : Reuss Voigt Hill
#
# Bulk Modulus (GPa) = 2.42858 32.78978 17.60918
# Shear Modulus (GPa) = 7.65871 55.62140 31.64006
#
# Velocity S-wave (km/s) = 1.96671 5.30010 3.99744
# Velocity P-wave (km/s) = 2.52662 7.34948 5.49540
#
# Compressibility (1/GPa) = 0.41176343
#
# Stress axis : x y z
#
# Youngs Moduli (GPa) = 125.33991 2.71243 85.14556
#
# Poissons Ratio (x) = 0.00118 0.23294
# Poissons Ratio (y) = 0.05444 -1.26472
# Poissons Ratio (z) = 0.34290 -0.04029
#
# Static dielectric constant tensor:
#      x y z
#    x 1.708180 0.000000 0.024360 
#    y 0.000000 1.727080 -0.000010 
#    z 0.024360 -0.000010 1.798660 
# 
# From -- ./inp_files/215668.got.cif
#   From: 2010.05.17/outbox.cif.g08.bks.cpg/sg15_108_cif.got.tgz:215668.got - 2010.06.03 18:47:42.
