data_PCOD9273301
_publ_section_title
;
Structure prediction by ZEFSAII (Michael W. Deem and Ramdas Pophale) SiO2 
 PCOD9273301
Probable space group: C 2/C
;
_chemical_formula_sum "Si O2"
_cell_formula_units_Z 64
_cell_length_a 7.851758
_cell_length_b 14.116194
_cell_length_c 31.767589
_cell_angle_alpha 90.000000
_cell_angle_beta 47.827494
_cell_angle_gamma 90.000000
_cell_volume 2609.524165
_symmetry_space_group_name_H-M "C 2/C"
_symmetry_group_IT_number 15
_symmetry_cell_setting 'monoclinic'
loop_
_space_group_symop_operation_xyz
x,y,z
-x,y,1/2-z
-x,-y,-z
x,-y,1/2+z
1/2+x,1/2+y,z
1/2-x,1/2+y,1/2-z
1/2-x,1/2-y,-z
1/2+x,1/2-y,1/2+z
loop_
_atom_site_type_symbol
_atom_site_label
_atom_site_fract_x
_atom_site_fract_y
_atom_site_fract_z
Si Si1 0.085119 0.127242 0.902135
Si Si2 0.499585 0.370165 0.990578
Si Si3 0.051592 0.648018 0.977806
Si Si4 0.995016 0.465296 0.932263
Si Si5 0.032374 0.352160 0.292669
Si Si6 0.623918 0.050368 0.320382
Si Si7 0.741744 0.337871 0.777193
Si Si8 0.388286 0.416171 0.617396
O O1 0.286403 0.188685 0.848967
O O2 0.826743 0.160290 0.939624
O O3 0.096211 0.027424 0.876073
O O4 0.135556 0.111808 0.943345
O O5 0.482437 0.257026 0.987697
O O6 0.740754 0.424313 0.962253
O O7 0.456352 0.402211 0.949764
O O8 0.011568 0.574539 0.945864
O O9 0.948965 0.597049 0.036106
O O10 0.154516 0.449495 0.865319
O O11 0.000000 0.382341 0.250000
O O12 0.093828 0.441857 0.310826
O O13 0.214809 0.269764 0.267501
O O14 0.790528 0.098503 0.258900
O O15 0.374234 0.100528 0.354725
O O16 0.586232 0.359080 0.843911
O O17 0.000000 0.358174 0.750000
#
# Coordination Sequence:
#
# PCOD9273301 Si02
#       8
#     8   8   8   8   8   8   8   8
#     4  10  20  39  59  89 126 170 205 258 334 388
#     4  10  20  37  64  90 130 175 210 264 331 391
#     4  10  21  37  62  94 133 171 212 270 329 389
#     4   9  19  37  60  95 125 171 219 260 325 401
#     4  11  24  42  64  92 127 165 215 275 330 395
#     4   9  19  40  67  82 123 169 211 268 323 386
#     4  10  22  43  65  91 119 169 220 269 332 397
#     4   9  19  37  61  87 121 162 209 258 326 384
#
# _framework density 24.525545000000001
#
# number of rings (size 3 to 8) (size 9 to 14) (size 15 to 20)
#    0.000    2.250    0.000    3.750    1.750    5.000 
#   11.250    1.250    0.000    0.000    0.000    0.000 
#    0.000    0.000    0.000    0.000    0.000    0.000 
#
# Total GULP energy -178727.265404 kJ/mol
# GULP energy per Si atom -5585.227044 kJ/mol
# Density = 2.446972 g / cm^3
# Si number density = 24.525545 Si / 1000 Ang^3
#
#
#
# Elastic Constant Matrix: (Units=GPa)
#
#
# Indices 1 2 3 4 5 6 
#
# 1 102.1570 24.0033 38.5574 0.0002 23.4492 0.0000
# 2 24.0033 99.8031 13.0374 0.0004 13.0984 0.0000
# 3 38.5574 13.0374 143.5885 0.0005 32.7551 0.0001
# 4 0.0002 0.0004 0.0005 15.0244 -0.0002 -2.0772
# 5 23.4492 13.0984 32.7551 -0.0002 28.8837 0.0000
# 6 0.0000 0.0000 0.0001 -2.0772 0.0000 15.9265
#
#
#
# Elastic Compliance Matrix: (Units=1/GPa)
#
#
# Indices 1 2 3 4 5 6 
#
# 1 0.012530 -0.001812 -0.001439 0.000000 -0.007718 0.000000
# 2 -0.001812 0.010920 0.000390 0.000000 -0.003923 0.000000
# 3 -0.001439 0.000390 0.009563 0.000000 -0.009853 0.000000
# 4 0.000000 0.000000 0.000000 0.067781 0.000001 0.008840
# 5 -0.007718 -0.003923 -0.009853 0.000001 0.053840 0.000000
# 6 0.000000 0.000000 0.000000 0.008840 0.000000 0.063942
#
#
# Mechanical properties :
#
#
# Convention : Reuss Voigt Hill
#
# Bulk Modulus (GPa) = 36.64523 55.19385 45.91954
# Shear Modulus (GPa) = 21.42299 29.96364 25.69331
#
# Velocity S-wave (km/s) = 2.95870 3.49912 3.24020
# Velocity P-wave (km/s) = 5.16198 6.23527 5.72384
#
# Compressibility (1/GPa) = 0.02728868
#
# Stress axis : x y z
#
# Youngs Moduli (GPa) = 79.81130 91.57912 104.56823
#
# Poissons Ratio (x) = 0.16599 0.15051
# Poissons Ratio (y) = 0.14466 -0.04079
# Poissons Ratio (z) = 0.11488 -0.03573
#
# Static dielectric constant tensor:
#      x y z
#    x 2.038150 0.000000 -0.058870 
#    y 0.000000 1.922980 0.000000 
#    z -0.058870 0.000000 1.955150 
# 
# From -- ./inp_files/308241.got.cif
#   From: 2010.05.17/outbox.cif.g08.bks.cpg/sg15_155_cif.got.tgz:308241.got - 2010.06.03 18:47:42.
