data_PCOD9273189
_publ_section_title
;
Structure prediction by ZEFSAII (Michael W. Deem and Ramdas Pophale) SiO2 
 PCOD9273189
Probable space group: C 2/C
;
_chemical_formula_sum "Si O2"
_cell_formula_units_Z 64
_cell_length_a 8.548815
_cell_length_b 14.439950
_cell_length_c 29.993712
_cell_angle_alpha 90.000000
_cell_angle_beta 52.922756
_cell_angle_gamma 90.000000
_cell_volume 2953.987255
_symmetry_space_group_name_H-M "C 2/C"
_symmetry_group_IT_number 15
_symmetry_cell_setting 'monoclinic'
loop_
_space_group_symop_operation_xyz
x,y,z
-x,y,1/2-z
-x,-y,-z
x,-y,1/2+z
1/2+x,1/2+y,z
1/2-x,1/2+y,1/2-z
1/2-x,1/2-y,-z
1/2+x,1/2-y,1/2+z
loop_
_atom_site_type_symbol
_atom_site_label
_atom_site_fract_x
_atom_site_fract_y
_atom_site_fract_z
Si Si1 0.089776 0.171438 0.443572
Si Si2 0.783383 0.447903 0.796218
Si Si3 0.726139 0.011763 0.598865
Si Si4 0.051546 0.097591 0.787670
Si Si5 0.102393 0.148409 0.111806
Si Si6 0.180108 0.540401 0.357441
Si Si7 0.900660 0.794090 0.063103
Si Si8 0.996801 0.268908 0.859921
O O1 0.270315 0.216478 0.385484
O O2 0.929407 0.141337 0.435224
O O3 0.000834 0.229409 0.498996
O O4 0.191279 0.076763 0.441719
O O5 0.781808 0.489200 0.846826
O O6 0.731914 0.528708 0.769175
O O7 0.599725 0.377324 0.828540
O O8 0.000000 0.409646 0.750000
O O9 0.866888 0.097357 0.568931
O O10 0.508257 0.023133 0.617450
O O11 0.069044 0.180182 0.820455
O O12 0.000000 0.146648 0.750000
O O13 0.869679 0.023810 0.817767
O O14 0.271404 0.081984 0.102217
O O15 0.185445 0.249917 0.105806
O O16 0.126298 0.635205 0.337767
O O17 0.017165 0.759251 0.085730
#
# Coordination Sequence:
#
# PCOD9273189 Si02
#       8
#     8   8   8   8   8   8   8   8
#     4  10  21  38  61  93 130 173 210 263 332 378
#     4  10  20  40  66  87 121 165 211 265 331 384
#     4  10  20  37  63  90 126 168 214 263 319 388
#     4  11  22  41  67  94 127 167 218 273 335 395
#     4   9  21  38  61  90 126 164 214 263 320 393
#     4   9  21  41  62  86 132 170 203 273 330 374
#     4  11  20  38  65  93 129 169 215 269 320 387
#     4  10  22  41  64  94 129 170 222 269 321 409
#
# _framework density 21.665631999999999
#
# number of rings (size 3 to 8) (size 9 to 14) (size 15 to 20)
#    0.000    2.000    1.250    1.875    1.750    0.000 
#    0.000   11.875    0.000    0.000    0.000    0.000 
#    0.000    0.000    0.000    0.000    0.000    0.000 
#
# Total GULP energy -178137.798056 kJ/mol
# GULP energy per Si atom -5566.806189 kJ/mol
# Density = 2.161632 g / cm^3
# Si number density = 21.665632 Si / 1000 Ang^3
#
#
#
# Elastic Constant Matrix: (Units=GPa)
#
#
# Indices 1 2 3 4 5 6 
#
# 1 89.5844 -10.6376 0.8543 -0.0002 0.9405 0.0000
# 2 -10.6376 44.5362 0.8817 -0.0001 -11.2215 0.0000
# 3 0.8543 0.8817 33.8569 -0.0003 -1.0422 0.0000
# 4 -0.0002 -0.0001 -0.0003 12.8451 0.0001 -0.6638
# 5 0.9405 -11.2215 -1.0422 0.0001 27.6111 0.0000
# 6 0.0000 0.0000 0.0000 -0.6638 0.0000 23.0006
#
#
#
# Elastic Compliance Matrix: (Units=1/GPa)
#
#
# Indices 1 2 3 4 5 6 
#
# 1 0.011509 0.002956 -0.000343 0.000000 0.000797 0.000000
# 2 0.002956 0.025779 -0.000427 0.000000 0.010360 0.000000
# 3 -0.000343 -0.000427 0.029585 0.000001 0.000955 0.000000
# 4 0.000000 0.000000 0.000001 0.077967 0.000000 0.002250
# 5 0.000797 0.010360 0.000955 0.000000 0.040437 0.000000
# 6 0.000000 0.000000 0.000000 0.002250 0.000000 0.043542
#
#
# Mechanical properties :
#
#
# Convention : Reuss Voigt Hill
#
# Bulk Modulus (GPa) = 14.03600 16.68603 15.36101
# Shear Modulus (GPa) = 20.14556 24.48329 22.31442
#
# Velocity S-wave (km/s) = 3.05263 3.36527 3.21276
# Velocity P-wave (km/s) = 4.34940 4.77686 4.56813
#
# Compressibility (1/GPa) = 0.07124537
#
# Stress axis : x y z
#
# Youngs Moduli (GPa) = 86.89141 38.79194 33.80061
#
# Poissons Ratio (x) = -0.11468 0.01159
# Poissons Ratio (y) = -0.25688 0.01443
# Poissons Ratio (z) = 0.02979 0.01657
#
# Static dielectric constant tensor:
#      x y z
#    x 1.851800 0.000000 0.010350 
#    y 0.000000 1.839950 0.000000 
#    z 0.010350 0.000000 1.865020 
# 
# From -- ./inp_files/308243.got.cif
#   From: 2010.05.17/outbox.cif.g08.bks.cpg/sg15_155_cif.got.tgz:308243.got - 2010.06.03 18:47:42.
