data_PCOD9273660
_publ_section_title
;
Structure prediction by ZEFSAII (Michael W. Deem and Ramdas Pophale) SiO2 
 PCOD9273660
Probable space group: C 2/C
;
_chemical_formula_sum "Si O2"
_cell_formula_units_Z 64
_cell_length_a 11.181622
_cell_length_b 18.438512
_cell_length_c 21.504075
_cell_angle_alpha 90.000000
_cell_angle_beta 137.641179
_cell_angle_gamma 90.000000
_cell_volume 2987.198387
_symmetry_space_group_name_H-M "C 2/C"
_symmetry_group_IT_number 15
_symmetry_cell_setting 'monoclinic'
loop_
_space_group_symop_operation_xyz
x,y,z
-x,y,1/2-z
-x,-y,-z
x,-y,1/2+z
1/2+x,1/2+y,z
1/2-x,1/2+y,1/2-z
1/2-x,1/2-y,-z
1/2+x,1/2-y,1/2+z
loop_
_atom_site_type_symbol
_atom_site_label
_atom_site_fract_x
_atom_site_fract_y
_atom_site_fract_z
Si Si1 0.417447 0.662911 0.903092
Si Si2 0.494377 0.925931 0.817385
Si Si3 0.514230 0.202621 0.527750
Si Si4 0.808809 0.488118 0.344136
Si Si5 0.170950 0.173952 0.771922
Si Si6 0.791546 0.334969 0.511553
Si Si7 0.817796 0.037664 0.947648
Si Si8 0.701226 0.068596 0.034335
O O1 0.457083 0.727763 0.966633
O O2 0.354824 0.688652 0.811221
O O3 0.297720 0.605879 0.893521
O O4 0.609100 0.627150 0.959870
O O5 0.500000 0.897029 0.750000
O O6 0.556143 0.860846 0.884891
O O7 0.329200 0.964033 0.788955
O O8 0.649649 0.986049 0.874593
O O9 0.652350 0.215352 0.636274
O O10 0.637253 0.152315 0.529650
O O11 0.346784 0.153305 0.478547
O O12 0.708627 0.412848 0.292661
O O13 0.740601 0.532949 0.378019
O O14 0.013049 0.468019 0.441239
O O15 0.000000 0.191417 0.750000
O O16 0.750000 0.250000 0.500000
O O17 0.826609 0.058682 0.023563
O O18 0.000000 0.000000 0.000000
#
# Coordination Sequence:
#
# PCOD9273660 Si02
#       8
#     8   8   8   8   8   8   8   8
#     4  11  23  40  58  91 132 158 210 270 309 382
#     4  11  21  39  63  92 125 162 208 257 316 380
#     4  10  21  42  61  89 122 168 220 247 317 383
#     4   9  19  35  59  93 120 158 210 257 308 385
#     4  11  22  35  64  92 122 166 206 262 322 373
#     4  10  20  38  57  84 120 158 200 259 304 366
#     4  11  23  37  62  94 126 163 206 265 328 371
#     4   9  19  36  64  85 119 166 207 255 315 380
#
# _framework density 21.424758000000001
#
# number of rings (size 3 to 8) (size 9 to 14) (size 15 to 20)
#    0.000    1.750    3.750    0.750    3.500    0.500 
#    9.000    0.000    0.000    0.000    0.000    0.000 
#    0.000    0.000    0.000    0.000    0.000    0.000 
#
# Total GULP energy -178568.670708 kJ/mol
# GULP energy per Si atom -5580.270960 kJ/mol
# Density = 2.137599 g / cm^3
# Si number density = 21.424758 Si / 1000 Ang^3
#
#
#
# Elastic Constant Matrix: (Units=GPa)
#
#
# Indices 1 2 3 4 5 6 
#
# 1 109.2697 24.9557 10.9717 0.0000 -18.9681 0.0000
# 2 24.9557 66.0474 24.3917 0.0000 -2.7571 0.0000
# 3 10.9717 24.3917 74.2506 0.0000 -25.6762 0.0000
# 4 0.0000 0.0000 0.0000 22.0326 0.0000 -5.5563
# 5 -18.9681 -2.7571 -25.6762 0.0000 28.4836 0.0000
# 6 0.0000 0.0000 0.0000 -5.5563 0.0000 24.8990
#
#
#
# Elastic Compliance Matrix: (Units=1/GPa)
#
#
# Indices 1 2 3 4 5 6 
#
# 1 0.011884 -0.005426 0.003750 0.000000 0.010769 0.000000
# 2 -0.005426 0.020211 -0.009314 0.000000 -0.010053 0.000000
# 3 0.003750 -0.009314 0.024010 0.000000 0.023239 0.000000
# 4 0.000000 0.000000 0.000000 0.048094 0.000000 0.010732
# 5 0.010769 -0.010053 0.023239 0.000000 0.062255 0.000000
# 6 0.000000 0.000000 0.000000 0.010732 0.000000 0.042557
#
#
# Mechanical properties :
#
#
# Convention : Reuss Voigt Hill
#
# Bulk Modulus (GPa) = 29.30338 41.13399 35.21868
# Shear Modulus (GPa) = 20.63018 27.69962 24.16490
#
# Velocity S-wave (km/s) = 3.10645 3.59956 3.36206
# Velocity P-wave (km/s) = 5.15497 6.04291 5.61652
#
# Compressibility (1/GPa) = 0.03412576
#
# Stress axis : x y z
#
# Youngs Moduli (GPa) = 84.14904 49.47871 41.65012
#
# Poissons Ratio (x) = 0.26846 -0.15621
# Poissons Ratio (y) = 0.45657 0.38792
# Poissons Ratio (z) = -0.31559 0.46084
#
# Static dielectric constant tensor:
#      x y z
#    x 1.478240 0.000000 0.069300 
#    y 0.000000 1.804080 0.000000 
#    z 0.069300 0.000000 1.811320 
# 
# From -- ./inp_files/240433.got.cif
#   From: 2010.05.17/outbox.cif.g08.bks.cpg/sg15_121_cif.got.tgz:240433.got - 2010.06.03 18:47:42.
