data_PCOD9273100
_publ_section_title
;
Structure prediction by ZEFSAII (Michael W. Deem and Ramdas Pophale) SiO2 
 PCOD9273100
Probable space group: C 2/C
;
_chemical_formula_sum "Si O2"
_cell_formula_units_Z 64
_cell_length_a 17.076223
_cell_length_b 12.459625
_cell_length_c 28.964365
_cell_angle_alpha 90.000000
_cell_angle_beta 32.528816
_cell_angle_gamma 90.000000
_cell_volume 3313.751885
_symmetry_space_group_name_H-M "C 2/C"
_symmetry_group_IT_number 15
_symmetry_cell_setting 'monoclinic'
loop_
_space_group_symop_operation_xyz
x,y,z
-x,y,1/2-z
-x,-y,-z
x,-y,1/2+z
1/2+x,1/2+y,z
1/2-x,1/2+y,1/2-z
1/2-x,1/2-y,-z
1/2+x,1/2-y,1/2+z
loop_
_atom_site_type_symbol
_atom_site_label
_atom_site_fract_x
_atom_site_fract_y
_atom_site_fract_z
Si Si1 0.576931 0.058956 0.260849
Si Si2 0.560681 0.504965 0.672315
Si Si3 0.599138 0.587726 0.426150
Si Si4 0.629027 0.265395 0.999657
Si Si5 0.088310 0.389739 0.093319
Si Si6 0.090624 0.479854 0.501125
Si Si7 0.568315 0.358606 0.583026
Si Si8 0.464909 0.272283 0.356542
O O1 0.500000 0.079028 0.250000
O O2 0.745423 0.039910 0.165938
O O3 0.562550 0.168851 0.297713
O O4 0.495162 0.961289 0.327341
O O5 0.500000 0.460941 0.750000
O O6 0.735471 0.505987 0.590660
O O7 0.518490 0.435440 0.649065
O O8 0.505165 0.626015 0.690657
O O9 0.500000 0.500000 0.500000
O O10 0.616054 0.678351 0.456984
O O11 0.521871 0.630340 0.418728
O O12 0.574645 0.143448 0.023856
O O13 0.542477 0.312659 0.086683
O O14 0.799979 0.266191 0.927445
O O15 0.047490 0.441837 0.064256
O O16 0.058316 0.263120 0.106372
O O17 0.264279 0.393909 0.010971
O O18 0.000000 0.500000 0.500000
#
# Coordination Sequence:
#
# PCOD9273100 Si02
#       8
#     8   8   8   8   8   8   8   8
#     4  12  23  40  65  95 127 167 219 264 327 389
#     4  10  22  38  62  89 124 168 206 259 324 378
#     4  12  25  41  62  98 132 171 213 270 328 382
#     4  10  20  37  64  91 126 158 208 261 322 378
#     4  10  22  44  66  88 124 176 215 260 316 391
#     4  10  20  37  62  92 121 161 208 258 318 376
#     4  10  23  44  64  89 131 172 216 262 322 385
#     4  10  20  38  64  94 121 161 209 267 323 383
#
# _framework density 19.313454
#
# number of rings (size 3 to 8) (size 9 to 14) (size 15 to 20)
#    0.000    1.500    2.500    2.625    3.500    1.500 
#    4.500    1.250    0.000    0.000    0.000    0.000 
#    0.000    0.000    0.000    0.000    0.000    0.000 
#
# Total GULP energy -178690.870028 kJ/mol
# GULP energy per Si atom -5584.089688 kJ/mol
# Density = 1.926950 g / cm^3
# Si number density = 19.313454 Si / 1000 Ang^3
#
#
#
# Elastic Constant Matrix: (Units=GPa)
#
#
# Indices 1 2 3 4 5 6 
#
# 1 109.5543 11.9689 31.4591 0.0000 21.1440 0.0000
# 2 11.9689 82.4476 52.3071 0.0000 9.4705 0.0000
# 3 31.4591 52.3071 85.9206 -0.0003 20.2483 0.0000
# 4 0.0000 0.0000 -0.0003 19.4720 0.0000 6.4779
# 5 21.1440 9.4705 20.2483 0.0000 27.6136 0.0000
# 6 0.0000 0.0000 0.0000 6.4779 0.0000 25.5751
#
#
#
# Elastic Compliance Matrix: (Units=1/GPa)
#
#
# Indices 1 2 3 4 5 6 
#
# 1 0.011212 0.001220 -0.003295 0.000000 -0.006587 0.000000
# 2 0.001220 0.020034 -0.013061 0.000000 0.001772 0.000000
# 3 -0.003295 -0.013061 0.023146 0.000000 -0.009970 0.000000
# 4 0.000000 0.000000 0.000000 0.056082 0.000000 -0.014205
# 5 -0.006587 0.001772 -0.009970 0.000000 0.047960 0.000000
# 6 0.000000 0.000000 0.000000 -0.014205 0.000000 0.042698
#
#
# Mechanical properties :
#
#
# Convention : Reuss Voigt Hill
#
# Bulk Modulus (GPa) = 41.46036 52.15475 46.80755
# Shear Modulus (GPa) = 20.88151 26.67796 23.77974
#
# Velocity S-wave (km/s) = 3.29171 3.72064 3.51273
# Velocity P-wave (km/s) = 5.99674 6.74689 6.38284
#
# Compressibility (1/GPa) = 0.02411943
#
# Stress axis : x y z
#
# Youngs Moduli (GPa) = 89.18799 49.91396 43.20408
#
# Poissons Ratio (x) = -0.06088 0.14238
# Poissons Ratio (y) = -0.10878 0.56428
# Poissons Ratio (z) = 0.29391 0.65192
#
# Static dielectric constant tensor:
#      x y z
#    x 1.680840 0.000000 0.011840 
#    y 0.000000 1.682430 0.000000 
#    z 0.011840 0.000000 1.683360 
# 
# From -- ./inp_files/316181.got.cif
#   From: 2010.05.17/outbox.cif.g08.bks.cpg/sg15_159_cif.got.tgz:316181.got - 2010.06.03 18:47:42.
