data_PCOD9273576
_publ_section_title
;
Structure prediction by ZEFSAII (Michael W. Deem and Ramdas Pophale) SiO2 
 PCOD9273576
Probable space group: C 2/C
;
_chemical_formula_sum "Si O2"
_cell_formula_units_Z 48
_cell_length_a 12.075648
_cell_length_b 15.901581
_cell_length_c 11.613926
_cell_angle_alpha 90.000000
_cell_angle_beta 62.464462
_cell_angle_gamma 90.000000
_cell_volume 1977.508670
_symmetry_space_group_name_H-M "C 2/C"
_symmetry_group_IT_number 15
_symmetry_cell_setting 'monoclinic'
loop_
_space_group_symop_operation_xyz
x,y,z
-x,y,1/2-z
-x,-y,-z
x,-y,1/2+z
1/2+x,1/2+y,z
1/2-x,1/2+y,1/2-z
1/2-x,1/2-y,-z
1/2+x,1/2-y,1/2+z
loop_
_atom_site_type_symbol
_atom_site_label
_atom_site_fract_x
_atom_site_fract_y
_atom_site_fract_z
Si Si1 0.000000 0.511820 0.250000
Si Si2 0.464711 0.761590 0.636546
Si Si3 0.681695 0.666264 0.977937
Si Si4 0.777956 0.544568 0.745883
Si Si5 0.000000 0.150185 0.250000
Si Si6 0.810508 0.377665 0.992495
Si Si7 0.793331 0.855597 0.685548
O O1 0.073429 0.470058 0.319637
O O2 0.109677 0.560373 0.129148
O O3 0.500000 0.735978 0.750000
O O4 0.416853 0.693349 0.571687
O O5 0.580805 0.812406 0.530447
O O6 0.341468 0.821246 0.708766
O O7 0.764577 0.603080 0.864950
O O8 0.750000 0.750000 0.000000
O O9 0.604698 0.615743 0.112270
O O10 0.751096 0.587447 0.636862
O O11 0.702903 0.456382 0.791393
O O12 0.097743 0.190445 0.294729
O O13 0.708025 0.344458 0.951463
#
# Coordination Sequence:
#
# PCOD9273576 Si02
#       7
#     4   8   8   8   4   8   8
#     4  10  20  37  74 111 130 170 222 304 346 379
#     4  10  21  44  71  98 136 174 233 291 340 404
#     4  12  29  45  66 102 143 188 226 279 355 421
#     4  11  25  40  70 104 137 181 235 280 345 417
#     4  12  28  47  70  93 150 186 226 290 342 419
#     4  10  20  40  73 104 130 173 230 290 341 391
#     4  10  23  45  69 100 137 180 232 290 341 399
#
# _framework density 24.272967000000001
#
# number of rings (size 3 to 8) (size 9 to 14) (size 15 to 20)
#    0.000    1.333    5.833    0.500    9.333    2.000 
#    1.500    3.333    0.000    0.000    0.000    0.000 
#    0.000    0.000    0.000    0.000    0.000    0.000 
#
# Total GULP energy -133736.413975 kJ/mol
# GULP energy per Si atom -5572.350582 kJ/mol
# Density = 2.421772 g / cm^3
# Si number density = 24.272967 Si / 1000 Ang^3
#
#
#
# Elastic Constant Matrix: (Units=GPa)
#
#
# Indices 1 2 3 4 5 6 
#
# 1 138.4950 20.1743 4.1598 0.0000 21.4729 0.0000
# 2 20.1743 54.1210 24.2152 0.0000 -0.6263 0.0000
# 3 4.1598 24.2152 122.2051 0.0000 -3.1913 0.0000
# 4 0.0000 0.0000 0.0000 24.6221 0.0000 1.8825
# 5 21.4729 -0.6263 -3.1913 0.0000 24.9601 0.0000
# 6 0.0000 0.0000 0.0000 1.8825 0.0000 9.7051
#
#
#
# Elastic Compliance Matrix: (Units=1/GPa)
#
#
# Indices 1 2 3 4 5 6 
#
# 1 0.008925 -0.003501 0.000188 0.000000 -0.007742 0.000000
# 2 -0.003501 0.021648 -0.004091 0.000000 0.003032 0.000000
# 3 0.000188 -0.004091 0.009010 0.000000 0.000888 0.000000
# 4 0.000000 0.000000 0.000000 0.041225 0.000000 -0.007996
# 5 -0.007742 0.003032 0.000888 0.000000 0.046914 0.000000
# 6 0.000000 0.000000 0.000000 -0.007996 0.000000 0.104590
#
#
# Mechanical properties :
#
#
# Convention : Reuss Voigt Hill
#
# Bulk Modulus (GPa) = 40.36323 45.76888 43.06605
# Shear Modulus (GPa) = 19.57875 29.60890 24.59382
#
# Velocity S-wave (km/s) = 2.84316 3.49640 3.18656
# Velocity P-wave (km/s) = 5.23862 5.93267 5.59641
#
# Compressibility (1/GPa) = 0.02477503
#
# Stress axis : x y z
#
# Youngs Moduli (GPa) = 112.04326 46.19454 110.98236
#
# Poissons Ratio (x) = 0.16170 -0.02083
# Poissons Ratio (y) = 0.39221 0.45405
# Poissons Ratio (z) = -0.02102 0.18899
#
# Static dielectric constant tensor:
#      x y z
#    x 1.975880 0.000000 0.066270 
#    y 0.000000 2.028100 0.000000 
#    z 0.066270 0.000000 1.834080 
# 
# From -- ./inp_files/87827.got.cif
#   From: 2010.05.17/outbox.cif.g08.bks.cpg/sg15_44_cif.got.tgz:87827.got - 2010.06.03 18:47:42.
