data_PCOD9273826
_publ_section_title
;
Structure prediction by ZEFSAII (Michael W. Deem and Ramdas Pophale) SiO2 
 PCOD9273826
Probable space group: C 2/C
;
_chemical_formula_sum "Si O2"
_cell_formula_units_Z 40
_cell_length_a 16.717763
_cell_length_b 18.410273
_cell_length_c 5.377198
_cell_angle_alpha 90.000000
_cell_angle_beta 102.568660
_cell_angle_gamma 90.000000
_cell_volume 1615.326172
_symmetry_space_group_name_H-M "C 2/C"
_symmetry_group_IT_number 15
_symmetry_cell_setting 'monoclinic'
loop_
_space_group_symop_operation_xyz
x,y,z
-x,y,1/2-z
-x,-y,-z
x,-y,1/2+z
1/2+x,1/2+y,z
1/2-x,1/2+y,1/2-z
1/2-x,1/2-y,-z
1/2+x,1/2-y,1/2+z
loop_
_atom_site_type_symbol
_atom_site_label
_atom_site_fract_x
_atom_site_fract_y
_atom_site_fract_z
Si Si1 0.500000 0.320002 0.250000
Si Si2 0.174833 0.840950 0.451068
Si Si3 0.796360 0.034955 0.158612
Si Si4 0.887929 0.474740 0.565023
Si Si5 0.000000 0.723099 0.750000
Si Si6 0.345650 0.824914 0.397748
O O1 0.584007 0.364354 0.315067
O O2 0.493845 0.271210 0.495890
O O3 0.197689 0.884988 0.717294
O O4 0.250081 0.848535 0.307520
O O5 0.163057 0.755197 0.494831
O O6 0.831480 0.986440 0.412922
O O7 0.701353 0.012153 0.047683
O O8 0.926127 0.512336 0.824663
O O9 0.880325 0.388437 0.596805
O O10 0.086878 0.681453 0.774128
#
# Coordination Sequence:
#
# PCOD9273826 Si02
#       6
#     4   8   8   8   4   8
#     4  10  24  44  60  96 134 156 212 278 308 372
#     4  10  21  41  69  95 125 172 215 258 320 376
#     4  10  20  38  59  89 131 161 203 265 305 370
#     4  10  20  38  59  89 131 161 203 265 305 370
#     4  10  24  44  60  96 134 156 212 278 308 372
#     4  10  21  41  68  96 124 171 216 257 321 375
#
# _framework density 24.762801
#
# number of rings (size 3 to 8) (size 9 to 14) (size 15 to 20)
#    0.000    2.000    4.000    0.000    0.000    7.200 
#    3.600    2.000    0.000    0.000    0.000    0.000 
#    0.000    0.000    0.000    0.000    0.000    0.000 
#
# Total GULP energy -111475.191846 kJ/mol
# GULP energy per Si atom -5573.759592 kJ/mol
# Density = 2.470644 g / cm^3
# Si number density = 24.762801 Si / 1000 Ang^3
#
#
#
# Elastic Constant Matrix: (Units=GPa)
#
#
# Indices 1 2 3 4 5 6 
#
# 1 187.6092 10.6721 46.6057 0.0000 -9.4285 0.0000
# 2 10.6721 139.3267 44.9336 0.0000 1.7968 0.0000
# 3 46.6057 44.9336 176.2478 0.0000 -0.0447 0.0000
# 4 0.0000 0.0000 0.0000 9.3628 0.0000 -38.4965
# 5 -9.4285 1.7968 -0.0447 0.0000 30.2923 0.0000
# 6 0.0000 0.0000 0.0000 -38.4965 0.0000 -39.2355
#
#
#
# Elastic Compliance Matrix: (Units=1/GPa)
#
#
# Indices 1 2 3 4 5 6 
#
# 1 0.005802 0.000029 -0.001541 0.000000 0.001802 0.000000
# 2 0.000029 0.007827 -0.002003 0.000000 -0.000458 0.000000
# 3 -0.001541 -0.002003 0.006592 0.000000 -0.000351 0.000000
# 4 0.000000 0.000000 0.000000 0.021216 0.000000 -0.020816
# 5 0.001802 -0.000458 -0.000351 0.000000 0.033599 0.000000
# 6 0.000000 0.000000 0.000000 -0.020816 0.000000 -0.005063
#
#
# Mechanical properties :
#
#
# Convention : Reuss Voigt Hill
#
# Bulk Modulus (GPa) = 75.81110 78.62295 77.21703
# Shear Modulus (GPa) = 61.42440 26.81543 44.11991
#
# Velocity S-wave (km/s) = 4.98588 3.29430 4.22560
# Velocity P-wave (km/s) = 7.98916 6.80362 7.42010
#
# Compressibility (1/GPa) = 0.01319068
#
# Stress axis : x y z
#
# Youngs Moduli (GPa) = 172.35451 127.76072 151.69769
#
# Poissons Ratio (x) = -0.00376 0.23381
# Poissons Ratio (y) = -0.00507 0.30391
# Poissons Ratio (z) = 0.26565 0.25595
#
# Static dielectric constant tensor:
#      x y z
#    x 2.092680 0.000000 -0.052760 
#    y 0.000000 1.995190 0.000000 
#    z -0.052760 0.000000 2.038370 
# 
# From -- ./inp_files/9882.got.cif
#   From: 2010.05.17/outbox.cif.g08.bks.cpg/sg15_5_cif.got.tgz:9882.got - 2010.06.03 18:47:42.
