data_PCOD9273500
_publ_section_title
;
Structure prediction by ZEFSAII (Michael W. Deem and Ramdas Pophale) SiO2 
 PCOD9273500
Probable space group: C 2/C
;
_chemical_formula_sum "Si O2"
_cell_formula_units_Z 52
_cell_length_a 8.733554
_cell_length_b 13.760142
_cell_length_c 30.924343
_cell_angle_alpha 90.000000
_cell_angle_beta 44.362810
_cell_angle_gamma 90.000000
_cell_volume 2598.456659
_symmetry_space_group_name_H-M "C 2/C"
_symmetry_group_IT_number 15
_symmetry_cell_setting 'monoclinic'
loop_
_space_group_symop_operation_xyz
x,y,z
-x,y,1/2-z
-x,-y,-z
x,-y,1/2+z
1/2+x,1/2+y,z
1/2-x,1/2+y,1/2-z
1/2-x,1/2-y,-z
1/2+x,1/2-y,1/2+z
loop_
_atom_site_type_symbol
_atom_site_label
_atom_site_fract_x
_atom_site_fract_y
_atom_site_fract_z
Si Si1 0.575523 0.209816 0.569326
Si Si2 0.578047 0.328825 0.430136
Si Si3 0.876082 0.476129 0.069505
Si Si4 0.907547 0.900499 0.169290
Si Si5 0.000000 0.540273 0.250000
Si Si6 0.866143 0.635835 0.442196
Si Si7 0.371166 0.794079 0.842951
O O1 0.750000 0.250000 0.500000
O O2 0.714521 0.168454 0.580877
O O3 0.446780 0.130489 0.568140
O O4 0.376067 0.277448 0.624777
O O5 0.633094 0.357947 0.370456
O O6 0.372455 0.389095 0.490420
O O7 0.479287 0.219734 0.448312
O O8 0.615816 0.472060 0.121508
O O9 0.971896 0.546430 0.086449
O O10 0.000000 0.500000 0.000000
O O11 0.982800 0.806894 0.183977
O O12 0.700137 0.967630 0.221810
O O13 0.964281 0.615678 0.296979
O O14 0.843341 0.674808 0.398554
#
# Coordination Sequence:
#
# PCOD9273500 Si02
#       7
#     8   8   8   8   4   8   8
#     4  11  22  36  65 101 135 169 213 281 354 402
#     4  10  20  37  66  97 137 165 206 285 339 411
#     4  11  22  37  64 101 135 166 211 279 340 420
#     4  10  25  47  66  99 133 176 235 277 340 409
#     4  12  28  48  76  86 140 198 236 278 340 406
#     4  10  20  38  63  99 133 166 212 269 353 404
#     4  10  25  47  66  99 134 175 234 283 328 421
#
# _framework density 20.011880000000001
#
# number of rings (size 3 to 8) (size 9 to 14) (size 15 to 20)
#    0.000    1.538    3.077    0.923    6.462    1.846 
#    5.538    0.000    0.000    0.000    0.000    0.000 
#    0.000    0.000    0.000    0.000    0.000    0.000 
#
# Total GULP energy -145011.095770 kJ/mol
# GULP energy per Si atom -5577.349837 kJ/mol
# Density = 1.996633 g / cm^3
# Si number density = 20.011880 Si / 1000 Ang^3
#
#
#
# Elastic Constant Matrix: (Units=GPa)
#
#
# Indices 1 2 3 4 5 6 
#
# 1 92.3253 12.7891 34.6976 0.0000 -24.2693 0.0000
# 2 12.7891 68.3982 39.7037 0.0001 -22.3748 -0.0001
# 3 34.6976 39.7037 61.2961 0.0001 -29.1135 0.0000
# 4 0.0000 0.0001 0.0001 41.8555 0.0000 -2.0773
# 5 -24.2693 -22.3748 -29.1135 0.0000 36.1621 0.0000
# 6 0.0000 -0.0001 0.0000 -2.0773 0.0000 29.6994
#
#
#
# Elastic Compliance Matrix: (Units=1/GPa)
#
#
# Indices 1 2 3 4 5 6 
#
# 1 0.014894 0.003858 -0.008174 0.000000 0.005802 0.000000
# 2 0.003858 0.024737 -0.015718 0.000000 0.005241 0.000000
# 3 -0.008174 -0.015718 0.038694 0.000000 0.015940 0.000000
# 4 0.000000 0.000000 0.000000 0.023975 0.000000 0.001677
# 5 0.005802 0.005241 0.015940 0.000000 0.047623 0.000000
# 6 0.000000 0.000000 0.000000 0.001677 0.000000 0.033788
#
#
# Mechanical properties :
#
#
# Convention : Reuss Voigt Hill
#
# Bulk Modulus (GPa) = 26.13933 44.04451 35.09192
# Shear Modulus (GPa) = 21.13886 30.53202 25.83544
#
# Velocity S-wave (km/s) = 3.25363 3.91025 3.59695
# Velocity P-wave (km/s) = 5.21585 6.51488 5.90122
#
# Compressibility (1/GPa) = 0.03825652
#
# Stress axis : x y z
#
# Youngs Moduli (GPa) = 67.14100 40.42493 25.84407
#
# Poissons Ratio (x) = -0.15596 0.21126
# Poissons Ratio (y) = -0.25904 0.40621
# Poissons Ratio (z) = 0.54883 0.63540
#
# Static dielectric constant tensor:
#      x y z
#    x 1.729510 0.000000 -0.046650 
#    y 0.000000 1.751320 0.000000 
#    z -0.046650 0.000000 1.760270 
# 
# From -- ./inp_files/264179.got.cif
#   From: 2010.05.17/outbox.cif.g08.bks.cpg/sg15_133_cif.got.tgz:264179.got - 2010.06.03 18:47:42.
