data_PCOD9273966
_publ_section_title
;
Structure prediction by ZEFSAII (Michael W. Deem and Ramdas Pophale) SiO2 
 PCOD9273966
Probable space group: C 2/C
;
_chemical_formula_sum "Si O2"
_cell_formula_units_Z 36
_cell_length_a 18.489291
_cell_length_b 7.221292
_cell_length_c 9.966612
_cell_angle_alpha 90.000000
_cell_angle_beta 92.192031
_cell_angle_gamma 90.000000
_cell_volume 1329.734090
_symmetry_space_group_name_H-M "C 2/C"
_symmetry_group_IT_number 15
_symmetry_cell_setting 'monoclinic'
loop_
_space_group_symop_operation_xyz
x,y,z
-x,y,1/2-z
-x,-y,-z
x,-y,1/2+z
1/2+x,1/2+y,z
1/2-x,1/2+y,1/2-z
1/2-x,1/2-y,-z
1/2+x,1/2-y,1/2+z
loop_
_atom_site_type_symbol
_atom_site_label
_atom_site_fract_x
_atom_site_fract_y
_atom_site_fract_z
Si Si1 0.774239 0.921113 0.809380
Si Si2 0.500000 0.756952 0.250000
Si Si3 0.594126 0.564086 0.829756
Si Si4 0.156095 0.731885 0.120021
Si Si5 0.882244 0.640226 0.945239
O O1 0.826167 0.974945 0.687792
O O2 0.787554 0.101601 0.902833
O O3 0.696154 0.874619 0.747259
O O4 0.811231 0.745734 0.883003
O O5 0.456359 0.611075 0.154340
O O6 0.557066 0.867600 0.166091
O O7 0.587703 0.662264 0.682254
O O8 0.590291 0.720321 0.939901
O O9 0.135242 0.570483 0.017926
#
# Coordination Sequence:
#
# PCOD9273966 Si02
#       5
#     8   4   8   8   8
#     4   9  20  37  61  86 125 148 192 240 290 353
#     4  10  22  42  64  80 120 156 200 256 286 330
#     4   9  22  39  62  86 120 152 203 242 285 355
#     4  10  20  38  60  91 120 152 191 241 290 357
#     4  11  20  42  61  85 118 164 191 244 297 337
#
# _framework density 27.073081999999999
#
# number of rings (size 3 to 8) (size 9 to 14) (size 15 to 20)
#    1.333    0.889    2.222    0.667    0.000    4.444 
#    8.000    4.444    0.000    0.000    0.000    0.000 
#    0.000    0.000    0.000    0.000    0.000    0.000 
#
# Total GULP energy -100576.509263 kJ/mol
# GULP energy per Si atom -5587.583848 kJ/mol
# Density = 2.701146 g / cm^3
# Si number density = 27.073082 Si / 1000 Ang^3
#
#
#
# Elastic Constant Matrix: (Units=GPa)
#
#
# Indices 1 2 3 4 5 6 
#
# 1 94.1774 24.5507 14.9571 0.0000 -18.9457 0.0000
# 2 24.5507 161.2387 6.8309 0.0000 2.8610 0.0000
# 3 14.9571 6.8309 54.4444 0.0000 -0.4556 0.0000
# 4 0.0000 0.0000 0.0000 38.5711 0.0000 4.6649
# 5 -18.9457 2.8610 -0.4556 0.0000 22.2679 0.0000
# 6 0.0000 0.0000 0.0000 4.6649 0.0000 41.7116
#
#
#
# Elastic Compliance Matrix: (Units=1/GPa)
#
#
# Indices 1 2 3 4 5 6 
#
# 1 0.014243 -0.002238 -0.003529 0.000000 0.012334 0.000000
# 2 -0.002238 0.006602 -0.000237 0.000000 -0.002757 0.000000
# 3 -0.003529 -0.000237 0.019345 0.000000 -0.002576 0.000000
# 4 0.000000 0.000000 0.000000 0.026282 0.000000 -0.002939
# 5 0.012334 -0.002757 -0.002576 0.000000 0.055703 0.000000
# 6 0.000000 0.000000 0.000000 -0.002939 0.000000 0.024303
#
#
# Mechanical properties :
#
#
# Convention : Reuss Voigt Hill
#
# Bulk Modulus (GPa) = 35.48248 44.72642 40.10445
# Shear Modulus (GPa) = 29.78344 38.07825 33.93084
#
# Velocity S-wave (km/s) = 3.32039 3.75440 3.54405
# Velocity P-wave (km/s) = 5.27586 5.94563 5.62073
#
# Compressibility (1/GPa) = 0.02818292
#
# Stress axis : x y z
#
# Youngs Moduli (GPa) = 70.20837 151.47603 51.69300
#
# Poissons Ratio (x) = 0.33901 0.18242
# Poissons Ratio (y) = 0.15713 0.01223
# Poissons Ratio (z) = 0.24776 0.03583
#
# Static dielectric constant tensor:
#      x y z
#    x 2.091710 0.000000 0.069510 
#    y 0.000000 2.116130 0.000000 
#    z 0.069510 0.000000 2.178330 
# 
# From -- ./inp_files/109306.got.cif
#   From: 2010.05.17/outbox.cif.g08.bks.cpg/sg15_55_cif.got.tgz:109306.got - 2010.06.03 18:47:42.
