data_PCOD9273963
_publ_section_title
;
Structure prediction by ZEFSAII (Michael W. Deem and Ramdas Pophale) SiO2 
 PCOD9273963
Probable space group: C 2/C
;
_chemical_formula_sum "Si O2"
_cell_formula_units_Z 60
_cell_length_a 14.960553
_cell_length_b 22.728473
_cell_length_c 8.445614
_cell_angle_alpha 90.000000
_cell_angle_beta 82.718318
_cell_angle_gamma 90.000000
_cell_volume 2848.605809
_symmetry_space_group_name_H-M "C 2/C"
_symmetry_group_IT_number 15
_symmetry_cell_setting 'monoclinic'
loop_
_space_group_symop_operation_xyz
x,y,z
-x,y,1/2-z
-x,-y,-z
x,-y,1/2+z
1/2+x,1/2+y,z
1/2-x,1/2+y,1/2-z
1/2-x,1/2-y,-z
1/2+x,1/2-y,1/2+z
loop_
_atom_site_type_symbol
_atom_site_label
_atom_site_fract_x
_atom_site_fract_y
_atom_site_fract_z
Si Si1 0.384166 0.450556 0.065545
Si Si2 0.703505 0.657524 0.824605
Si Si3 0.003045 0.654368 0.074061
Si Si4 0.864528 0.415106 0.141999
Si Si5 0.301956 0.020027 0.338861
Si Si6 0.797847 0.365595 0.631045
Si Si7 0.000000 0.036793 0.250000
Si Si8 0.174417 0.271440 0.637146
O O1 0.372095 0.392340 0.172642
O O2 0.289162 0.485496 0.091011
O O3 0.445562 0.495550 0.145055
O O4 0.427257 0.433859 0.885280
O O5 0.790527 0.633191 0.710384
O O6 0.668899 0.719364 0.768151
O O7 0.733177 0.651646 0.001690
O O8 0.076325 0.707338 0.090829
O O9 0.000000 0.624271 0.250000
O O10 0.897500 0.658552 0.060518
O O11 0.044663 0.616945 0.924460
O O12 0.866732 0.467046 0.269169
O O13 0.833459 0.444810 0.984712
O O14 0.294641 0.067041 0.194818
O O15 0.780600 0.327830 0.790941
O O16 0.250000 0.250000 0.500000
#
# Coordination Sequence:
#
# PCOD9273963 Si02
#       8
#     8   8   8   8   8   8   4   8
#     4  10  21  37  62  91 129 165 211 263 322 384
#     4  11  22  40  66  95 122 171 224 260 321 399
#     4  10  21  42  62  91 132 165 210 271 321 374
#     4  11  21  38  62  95 129 171 215 253 323 383
#     4  11  20  37  63  94 128 173 214 253 321 403
#     4  11  23  40  65  95 130 164 213 274 323 380
#     4  10  20  38  60  90 132 166 200 276 328 360
#     4  11  21  42  68  88 121 176 219 263 322 384
#
# _framework density 21.062935
#
# number of rings (size 3 to 8) (size 9 to 14) (size 15 to 20)
#    0.000    1.333    4.000    4.400    0.000    1.067 
#    3.600    0.000    0.000    0.000    0.000    0.000 
#    0.000    0.000    0.000    0.000    0.000    0.000 
#
# Total GULP energy -167180.036678 kJ/mol
# GULP energy per Si atom -5572.667889 kJ/mol
# Density = 2.101499 g / cm^3
# Si number density = 21.062935 Si / 1000 Ang^3
#
#
#
# Elastic Constant Matrix: (Units=GPa)
#
#
# Indices 1 2 3 4 5 6 
#
# 1 52.8744 15.7249 27.6725 0.0000 -15.0505 0.0000
# 2 15.7249 94.6921 17.4889 0.0000 -9.8551 0.0000
# 3 27.6725 17.4889 75.7747 0.0000 -27.7388 0.0000
# 4 0.0000 0.0000 0.0000 47.8890 0.0000 -9.6267
# 5 -15.0505 -9.8551 -27.7388 0.0000 37.5202 0.0000
# 6 0.0000 0.0000 0.0000 -9.6267 0.0000 23.1037
#
#
#
# Elastic Compliance Matrix: (Units=1/GPa)
#
#
# Indices 1 2 3 4 5 6 
#
# 1 0.024366 -0.002354 -0.006860 0.000000 0.004084 0.000000
# 2 -0.002354 0.011311 -0.001383 0.000000 0.001004 0.000000
# 3 -0.006860 -0.001383 0.020403 0.000000 0.011969 0.000000
# 4 0.000000 0.000000 0.000000 0.022791 0.000000 0.009496
# 5 0.004084 0.001004 0.011969 0.000000 0.037403 0.000000
# 6 0.000000 0.000000 0.000000 0.009496 0.000000 0.047240
#
#
# Mechanical properties :
#
#
# Convention : Reuss Voigt Hill
#
# Bulk Modulus (GPa) = 28.66561 38.34597 33.50579
# Shear Modulus (GPa) = 25.46649 32.53292 28.99971
#
# Velocity S-wave (km/s) = 3.48094 3.93435 3.71457
# Velocity P-wave (km/s) = 5.45847 6.23568 5.85998
#
# Compressibility (1/GPa) = 0.03488501
#
# Stress axis : x y z
#
# Youngs Moduli (GPa) = 41.04159 88.40571 49.01261
#
# Poissons Ratio (x) = 0.20813 0.33622
# Poissons Ratio (y) = 0.09662 0.06781
# Poissons Ratio (z) = 0.28154 0.12230
#
# Static dielectric constant tensor:
#      x y z
#    x 1.838770 0.000000 -0.030330 
#    y 0.000000 1.783550 0.000000 
#    z -0.030330 0.000000 1.826480 
# 
# From -- ./inp_files/42187.got.cif
#   From: 2010.05.17/outbox.cif.g08.bks.cpg/sg15_22_cif.got.tgz:42187.got - 2010.06.03 18:47:42.
