data_PCOD9273459
_publ_section_title
;
Structure prediction by ZEFSAII (Michael W. Deem and Ramdas Pophale) SiO2 
 PCOD9273459
Probable space group: C 2/C
;
_chemical_formula_sum "Si O2"
_cell_formula_units_Z 48
_cell_length_a 17.057007
_cell_length_b 15.042344
_cell_length_c 8.196653
_cell_angle_alpha 90.000000
_cell_angle_beta 114.652979
_cell_angle_gamma 90.000000
_cell_volume 1911.381988
_symmetry_space_group_name_H-M "C 2/C"
_symmetry_group_IT_number 15
_symmetry_cell_setting 'monoclinic'
loop_
_space_group_symop_operation_xyz
x,y,z
-x,y,1/2-z
-x,-y,-z
x,-y,1/2+z
1/2+x,1/2+y,z
1/2-x,1/2+y,1/2-z
1/2-x,1/2-y,-z
1/2+x,1/2-y,1/2+z
loop_
_atom_site_type_symbol
_atom_site_label
_atom_site_fract_x
_atom_site_fract_y
_atom_site_fract_z
Si Si1 0.384374 0.549510 0.881781
Si Si2 0.438114 0.773613 0.396845
Si Si3 0.774600 0.933559 0.584595
Si Si4 0.858379 0.581544 0.017252
Si Si5 0.000000 0.126426 0.250000
Si Si6 0.900145 0.604278 0.425173
Si Si7 0.000000 0.843774 0.250000
O O1 0.347546 0.456357 0.782734
O O2 0.420493 0.601842 0.757796
O O3 0.309744 0.588018 0.936290
O O4 0.463271 0.563566 0.077492
O O5 0.363584 0.840347 0.389609
O O6 0.429159 0.699232 0.250342
O O7 0.522589 0.835630 0.444879
O O8 0.462635 0.716226 0.575267
O O9 0.695030 0.875304 0.581751
O O10 0.732416 0.033285 0.531441
O O11 0.894002 0.610071 0.224146
O O12 0.911636 0.497980 0.991286
#
# Coordination Sequence:
#
# PCOD9273459 Si02
#       7
#     8   8   8   8   4   8   4
#     4  11  24  48  63  98 123 166 231 269 329 380
#     4  11  21  41  65  96 136 174 225 244 319 408
#     4  10  22  40  71  97 132 157 216 289 326 371
#     4  10  20  37  66 106 126 174 207 276 328 362
#     4  10  28  41  65  90 134 184 210 266 316 402
#     4  10  20  37  67 104 131 169 212 274 324 369
#     4  10  24  41  63  84 132 178 212 264 312 402
#
# _framework density 25.112721000000001
#
# number of rings (size 3 to 8) (size 9 to 14) (size 15 to 20)
#    1.000    0.667    3.333    0.500    2.333    4.667 
#    0.000    8.333    0.000    0.000    0.000    0.000 
#    0.000    0.000    0.000    0.000    0.000    0.000 
#
# Total GULP energy -133948.584980 kJ/mol
# GULP energy per Si atom -5581.191041 kJ/mol
# Density = 2.505556 g / cm^3
# Si number density = 25.112721 Si / 1000 Ang^3
#
#
#
# Elastic Constant Matrix: (Units=GPa)
#
#
# Indices 1 2 3 4 5 6 
#
# 1 142.6676 39.8671 21.7789 0.0000 -25.1821 0.0000
# 2 39.8671 99.3626 36.6838 0.0000 -17.6704 0.0000
# 3 21.7789 36.6838 93.1376 0.0000 -15.2518 0.0000
# 4 0.0000 0.0000 0.0000 -7.2860 0.0000 37.7292
# 5 -25.1821 -17.6704 -15.2518 0.0000 45.4296 0.0000
# 6 0.0000 0.0000 0.0000 37.7292 0.0000 -27.9276
#
#
#
# Elastic Compliance Matrix: (Units=1/GPa)
#
#
# Indices 1 2 3 4 5 6 
#
# 1 0.008418 -0.002617 -0.000360 0.000000 0.003527 0.000000
# 2 -0.002617 0.013047 -0.004162 0.000000 0.002227 0.000000
# 3 -0.000360 -0.004162 0.012870 0.000000 0.002502 0.000000
# 4 0.000000 0.000000 0.000000 0.022891 0.000000 0.030925
# 5 0.003527 0.002227 0.002502 0.000000 0.025673 0.000000
# 6 0.000000 0.000000 0.000000 0.030925 0.000000 0.005972
#
#
# Mechanical properties :
#
#
# Convention : Reuss Voigt Hill
#
# Bulk Modulus (GPa) = 49.85963 59.09191 54.47577
# Shear Modulus (GPa) = 45.52226 17.83242 31.67734
#
# Velocity S-wave (km/s) = 4.26222 2.66765 3.55548
# Velocity P-wave (km/s) = 6.64225 5.75067 6.21248
#
# Compressibility (1/GPa) = 0.02005631
#
# Stress axis : x y z
#
# Youngs Moduli (GPa) = 118.78904 76.64648 77.69976
#
# Poissons Ratio (x) = 0.20062 0.02797
# Poissons Ratio (y) = 0.31093 0.32339
# Poissons Ratio (z) = 0.04276 0.31901
#
# Static dielectric constant tensor:
#      x y z
#    x 2.154770 0.000000 0.017170 
#    y 0.000000 1.960000 0.000000 
#    z 0.017170 0.000000 1.997820 
# 
# From -- ./inp_files/48107.got.cif
#   From: 2010.05.17/outbox.cif.g08.bks.cpg/sg15_25_cif.got.tgz:48107.got - 2010.06.03 18:47:42.
