data_PCOD9273430
_publ_section_title
;
Structure prediction by ZEFSAII (Michael W. Deem and Ramdas Pophale) SiO2 
 PCOD9273430
Probable space group: C 2/C
;
_chemical_formula_sum "Si O2"
_cell_formula_units_Z 56
_cell_length_a 24.724035
_cell_length_b 8.836739
_cell_length_c 15.658741
_cell_angle_alpha 90.000000
_cell_angle_beta 52.583504
_cell_angle_gamma 90.000000
_cell_volume 2717.188826
_symmetry_space_group_name_H-M "C 2/C"
_symmetry_group_IT_number 15
_symmetry_cell_setting 'monoclinic'
loop_
_space_group_symop_operation_xyz
x,y,z
-x,y,1/2-z
-x,-y,-z
x,-y,1/2+z
1/2+x,1/2+y,z
1/2-x,1/2+y,1/2-z
1/2-x,1/2-y,-z
1/2+x,1/2-y,1/2+z
loop_
_atom_site_type_symbol
_atom_site_label
_atom_site_fract_x
_atom_site_fract_y
_atom_site_fract_z
Si Si1 0.902474 0.384146 0.563492
Si Si2 0.999883 0.826940 0.075188
Si Si3 0.305770 0.844873 0.892149
Si Si4 0.604359 0.417455 0.839101
Si Si5 0.557532 0.079998 0.137913
Si Si6 0.661618 0.886058 0.248705
Si Si7 0.293647 0.673332 0.724708
O O1 0.959980 0.270038 0.541603
O O2 0.919023 0.473736 0.462275
O O3 0.890488 0.502425 0.652547
O O4 0.835260 0.280557 0.619980
O O5 0.017279 0.720405 0.136147
O O6 0.951137 0.966399 0.146303
O O7 0.069322 0.873585 0.962341
O O8 0.377008 0.857045 0.874315
O O9 0.305297 0.753502 0.804053
O O10 0.300486 0.020002 0.862670
O O11 0.250000 0.750000 0.000000
O O12 0.623228 0.270353 0.765990
O O13 0.671560 0.511108 0.797761
O O14 0.500000 0.998586 0.250000
O O15 0.717467 0.844802 0.266677
#
# Coordination Sequence:
#
# PCOD9273430 Si02
#       7
#     8   8   8   8   8   8   8
#     4  10  21  39  64  94 125 174 231 267 322 419
#     4  10  22  38  66  89 130 172 224 273 328 411
#     4  11  26  43  66 100 138 174 222 290 352 397
#     4  10  20  37  65  95 120 162 235 268 318 389
#     4  12  23  38  67  94 136 176 220 282 351 397
#     4  11  21  39  72  93 126 173 228 273 325 424
#     4  10  22  42  67  95 126 177 231 270 335 411
#
# _framework density 20.609535999999999
#
# number of rings (size 3 to 8) (size 9 to 14) (size 15 to 20)
#    0.000    1.429    1.429    5.571    4.000    0.000 
#    0.000    2.857   12.571    0.000    0.000    0.000 
#    0.000    0.000    0.000    0.000    0.000    0.000 
#
# Total GULP energy -156247.846418 kJ/mol
# GULP energy per Si atom -5580.280229 kJ/mol
# Density = 2.056263 g / cm^3
# Si number density = 20.609536 Si / 1000 Ang^3
#
#
#
# Elastic Constant Matrix: (Units=GPa)
#
#
# Indices 1 2 3 4 5 6 
#
# 1 75.2142 27.3320 33.9886 0.0000 1.1689 0.0000
# 2 27.3320 134.8243 49.8497 0.0001 -6.5524 -0.0003
# 3 33.9886 49.8497 101.1184 0.0000 -4.0680 0.0000
# 4 0.0000 0.0001 0.0000 39.9271 0.0000 -5.4720
# 5 1.1689 -6.5524 -4.0680 0.0000 21.0334 0.0000
# 6 0.0000 -0.0003 0.0000 -5.4720 0.0000 16.4081
#
#
#
# Elastic Compliance Matrix: (Units=1/GPa)
#
#
# Indices 1 2 3 4 5 6 
#
# 1 0.016039 -0.001634 -0.004678 0.000000 -0.002305 0.000000
# 2 -0.001634 0.009319 -0.003955 0.000000 0.002229 0.000000
# 3 -0.004678 -0.003955 0.013478 0.000000 0.001635 0.000000
# 4 0.000000 0.000000 0.000000 0.026245 0.000000 0.008753
# 5 -0.002305 0.002229 0.001635 0.000000 0.048682 0.000000
# 6 0.000000 0.000000 0.000000 0.008753 0.000000 0.063864
#
#
# Mechanical properties :
#
#
# Convention : Reuss Voigt Hill
#
# Bulk Modulus (GPa) = 54.64288 59.27749 56.96018
# Shear Modulus (GPa) = 24.47832 28.80617 26.64224
#
# Velocity S-wave (km/s) = 3.45007 3.74265 3.59933
# Velocity P-wave (km/s) = 6.51472 6.89211 6.70607
#
# Compressibility (1/GPa) = 0.01830065
#
# Stress axis : x y z
#
# Youngs Moduli (GPa) = 62.34794 107.30763 74.19710
#
# Poissons Ratio (x) = 0.17531 0.34713
# Poissons Ratio (y) = 0.10186 0.29347
# Poissons Ratio (z) = 0.29169 0.42444
#
# Static dielectric constant tensor:
#      x y z
#    x 1.704690 0.000000 -0.022690 
#    y 0.000000 1.790020 0.000000 
#    z -0.022690 0.000000 1.802040 
# 
# From -- ./inp_files/172270.got.cif
#   From: 2010.05.17/outbox.cif.g08.bks.cpg/sg15_87_cif.got.tgz:172270.got - 2010.06.03 18:47:42.
