data_PCOD9273441
_publ_section_title
;
Structure prediction by ZEFSAII (Michael W. Deem and Ramdas Pophale) SiO2 
 PCOD9273441
Probable space group: C 2/C
;
_chemical_formula_sum "Si O2"
_cell_formula_units_Z 40
_cell_length_a 13.215572
_cell_length_b 6.992141
_cell_length_c 20.393076
_cell_angle_alpha 90.000000
_cell_angle_beta 115.016220
_cell_angle_gamma 90.000000
_cell_volume 1707.643621
_symmetry_space_group_name_H-M "C 2/C"
_symmetry_group_IT_number 15
_symmetry_cell_setting 'monoclinic'
loop_
_space_group_symop_operation_xyz
x,y,z
-x,y,1/2-z
-x,-y,-z
x,-y,1/2+z
1/2+x,1/2+y,z
1/2-x,1/2+y,1/2-z
1/2-x,1/2-y,-z
1/2+x,1/2-y,1/2+z
loop_
_atom_site_type_symbol
_atom_site_label
_atom_site_fract_x
_atom_site_fract_y
_atom_site_fract_z
Si Si1 0.467166 0.782570 0.983482
Si Si2 0.489415 0.488488 0.607702
Si Si3 0.178956 0.798864 0.730682
Si Si4 0.378660 0.933831 0.713294
Si Si5 0.212796 0.772245 0.885954
O O1 0.507223 0.693387 0.925526
O O2 0.333079 0.758050 0.951492
O O3 0.518508 0.657539 0.056252
O O4 0.500000 0.000000 0.000000
O O5 0.586858 0.454423 0.686647
O O6 0.372555 0.419128 0.604812
O O7 0.619424 0.097310 0.728682
O O8 0.274596 0.802451 0.702603
O O9 0.232593 0.836532 0.816292
O O10 0.500000 0.842128 0.750000
O O11 0.347093 0.064623 0.641342
#
# Coordination Sequence:
#
# PCOD9273441 Si02
#       5
#     8   8   8   8   8
#     4  11  26  40  64  96 134 172 226 263 319 414
#     4  11  21  44  67  89 135 181 205 276 340 368
#     4  10  20  39  67  93 128 165 218 272 326 384
#     4  10  20  37  65  96 125 163 210 272 330 379
#     4  10  21  40  66  94 129 173 221 268 332 386
#
# _framework density 23.424092999999999
#
# number of rings (size 3 to 8) (size 9 to 14) (size 15 to 20)
#    1.200    0.400    4.000    1.200    2.800    0.800 
#    0.000    7.000    0.000    0.000    0.000    0.000 
#    0.000    0.000    0.000    0.000    0.000    0.000 
#
# Total GULP energy -111734.709512 kJ/mol
# GULP energy per Si atom -5586.735476 kJ/mol
# Density = 2.337078 g / cm^3
# Si number density = 23.424093 Si / 1000 Ang^3
#
#
#
# Elastic Constant Matrix: (Units=GPa)
#
#
# Indices 1 2 3 4 5 6 
#
# 1 89.3874 -3.8031 -1.7062 0.0000 21.9564 0.0000
# 2 -3.8031 70.3110 18.1539 0.0000 -4.5068 0.0000
# 3 -1.7062 18.1539 64.3363 0.0000 21.8188 0.0000
# 4 0.0000 0.0000 0.0000 14.0297 0.0000 -6.2425
# 5 21.9564 -4.5068 21.8188 0.0000 26.6007 0.0000
# 6 0.0000 0.0000 0.0000 -6.2425 0.0000 46.4297
#
#
#
# Elastic Compliance Matrix: (Units=1/GPa)
#
#
# Indices 1 2 3 4 5 6 
#
# 1 0.016269 -0.002524 0.008094 0.000000 -0.020495 0.000000
# 2 -0.002524 0.017264 -0.009195 0.000000 0.012550 0.000000
# 3 0.008094 -0.009195 0.029296 0.000000 -0.032268 0.000000
# 4 0.000000 0.000000 0.000000 0.075813 0.000000 0.010193
# 5 -0.020495 0.012550 -0.032268 0.000000 0.083103 0.000000
# 6 0.000000 0.000000 0.000000 0.010193 0.000000 0.022908
#
#
# Mechanical properties :
#
#
# Convention : Reuss Voigt Hill
#
# Bulk Modulus (GPa) = 17.99191 27.70267 22.84729
# Shear Modulus (GPa) = 18.48923 31.50469 24.99696
#
# Velocity S-wave (km/s) = 2.81254 3.67136 3.27027
# Velocity P-wave (km/s) = 4.27139 5.46114 4.90249
#
# Compressibility (1/GPa) = 0.05558053
#
# Stress axis : x y z
#
# Youngs Moduli (GPa) = 61.46840 57.92259 34.13471
#
# Poissons Ratio (x) = 0.14617 -0.27629
# Poissons Ratio (y) = 0.15512 0.31385
# Poissons Ratio (z) = -0.49753 0.53257
#
# Static dielectric constant tensor:
#      x y z
#    x 1.871910 0.000000 -0.049250 
#    y 0.000000 1.902700 0.000000 
#    z -0.049250 0.000000 1.851210 
# 
# From -- ./inp_files/142577.got.cif
#   From: 2010.05.17/outbox.cif.g08.bks.cpg/sg15_72_cif.got.tgz:142577.got - 2010.06.03 18:47:42.
