data_PCOD9273503
_publ_section_title
;
Structure prediction by ZEFSAII (Michael W. Deem and Ramdas Pophale) SiO2 
 PCOD9273503
Probable space group: C 2/C
;
_chemical_formula_sum "Si O2"
_cell_formula_units_Z 44
_cell_length_a 17.394330
_cell_length_b 11.620844
_cell_length_c 12.011844
_cell_angle_alpha 90.000000
_cell_angle_beta 61.249607
_cell_angle_gamma 90.000000
_cell_volume 2128.715810
_symmetry_space_group_name_H-M "C 2/C"
_symmetry_group_IT_number 15
_symmetry_cell_setting 'monoclinic'
loop_
_space_group_symop_operation_xyz
x,y,z
-x,y,1/2-z
-x,-y,-z
x,-y,1/2+z
1/2+x,1/2+y,z
1/2-x,1/2+y,1/2-z
1/2-x,1/2-y,-z
1/2+x,1/2-y,1/2+z
loop_
_atom_site_type_symbol
_atom_site_label
_atom_site_fract_x
_atom_site_fract_y
_atom_site_fract_z
Si Si1 0.737965 0.143306 0.091333
Si Si2 0.500000 0.668817 0.250000
Si Si3 0.557575 0.909740 0.619452
Si Si4 0.995258 0.351477 0.071951
Si Si5 0.801991 0.697806 0.126793
Si Si6 0.180259 0.080571 0.031352
O O1 0.650418 0.075946 0.112089
O O2 0.725656 0.184017 0.226329
O O3 0.750000 0.250000 0.000000
O O4 0.811315 0.047165 0.021817
O O5 0.466075 0.754646 0.177602
O O6 0.581589 0.601500 0.142626
O O7 0.500000 0.841662 0.750000
O O8 0.565804 0.852786 0.493285
O O9 0.503402 0.025679 0.627525
O O10 0.094869 0.330337 0.960713
O O11 0.744514 0.612532 0.089642
O O12 0.793579 0.825919 0.081482
#
# Coordination Sequence:
#
# PCOD9273503 Si02
#       6
#     8   4   8   8   8   8
#     4  12  27  43  66 100 134 183 221 279 340 400
#     4  10  22  42  68  96 128 182 220 268 338 408
#     4  11  21  37  62  97 133 164 221 283 329 391
#     4  10  20  37  66  98 128 170 218 276 335 392
#     4  10  22  42  68  94 132 171 223 275 340 393
#     4  10  24  45  68  97 133 178 223 279 332 412
#
# _framework density 20.669737999999999
#
# number of rings (size 3 to 8) (size 9 to 14) (size 15 to 20)
#    0.000    1.455    4.545    0.000    5.091    0.000 
#    1.636    0.909    0.000    0.000    0.000    0.000 
#    0.000    0.000    0.000    0.000    0.000    0.000 
#
# Total GULP energy -122869.904558 kJ/mol
# GULP energy per Si atom -5584.995662 kJ/mol
# Density = 2.062269 g / cm^3
# Si number density = 20.669738 Si / 1000 Ang^3
#
#
#
# Elastic Constant Matrix: (Units=GPa)
#
#
# Indices 1 2 3 4 5 6 
#
# 1 56.3033 7.2270 36.8899 0.0000 18.5999 0.0000
# 2 7.2270 91.4207 67.1201 0.0000 6.4922 0.0000
# 3 36.8899 67.1201 165.7397 0.0000 33.4017 0.0000
# 4 0.0000 0.0000 0.0000 10.8113 0.0000 -4.1271
# 5 18.5999 6.4922 33.4017 0.0000 38.2683 0.0000
# 6 0.0000 0.0000 0.0000 -4.1271 0.0000 10.3672
#
#
#
# Elastic Compliance Matrix: (Units=1/GPa)
#
#
# Indices 1 2 3 4 5 6 
#
# 1 0.022881 0.001907 -0.004318 0.000000 -0.007676 0.000000
# 2 0.001907 0.016116 -0.007539 0.000000 0.002920 0.000000
# 3 -0.004318 -0.007539 0.011366 0.000000 -0.006543 0.000000
# 4 0.000000 0.000000 0.000000 0.109071 0.000000 0.043421
# 5 -0.007676 0.002920 -0.006543 0.000000 0.035078 0.000000
# 6 0.000000 0.000000 0.000000 0.043421 0.000000 0.113744
#
#
# Mechanical properties :
#
#
# Convention : Reuss Voigt Hill
#
# Bulk Modulus (GPa) = 32.82799 59.54863 46.18831
# Shear Modulus (GPa) = 14.77928 25.37113 20.07521
#
# Velocity S-wave (km/s) = 2.67689 3.50730 3.11985
# Velocity P-wave (km/s) = 5.04687 6.72857 5.94746
#
# Compressibility (1/GPa) = 0.03046181
#
# Stress axis : x y z
#
# Youngs Moduli (GPa) = 43.70428 62.05195 87.97824
#
# Poissons Ratio (x) = -0.11830 0.37989
# Poissons Ratio (y) = -0.08332 0.66328
# Poissons Ratio (z) = 0.18872 0.46782
#
# Static dielectric constant tensor:
#      x y z
#    x 1.759730 0.000000 0.000450 
#    y 0.000000 1.742380 0.000000 
#    z 0.000450 0.000000 1.724280 
# 
# From -- ./inp_files/103870.got.cif
#   From: 2010.05.17/outbox.cif.g08.bks.cpg/sg15_52_cif.got.tgz:103870.got - 2010.06.03 18:47:42.
