data_PCOD9273915
_publ_section_title
;
Structure prediction by ZEFSAII (Michael W. Deem and Ramdas Pophale) SiO2 
 PCOD9273915
Probable space group: C 2/C
;
_chemical_formula_sum "Si O2"
_cell_formula_units_Z 64
_cell_length_a 31.070585
_cell_length_b 19.160505
_cell_length_c 8.978765
_cell_angle_alpha 90.000000
_cell_angle_beta 34.530416
_cell_angle_gamma 90.000000
_cell_volume 3029.955667
_symmetry_space_group_name_H-M "C 2/C"
_symmetry_group_IT_number 15
_symmetry_cell_setting 'monoclinic'
loop_
_space_group_symop_operation_xyz
x,y,z
-x,y,1/2-z
-x,-y,-z
x,-y,1/2+z
1/2+x,1/2+y,z
1/2-x,1/2+y,1/2-z
1/2-x,1/2-y,-z
1/2+x,1/2-y,1/2+z
loop_
_atom_site_type_symbol
_atom_site_label
_atom_site_fract_x
_atom_site_fract_y
_atom_site_fract_z
Si Si1 0.843207 0.694455 0.137180
Si Si2 0.281189 0.214959 0.648792
Si Si3 0.954711 0.444257 0.726089
Si Si4 0.533167 0.690180 0.303464
Si Si5 0.679888 0.953623 0.870910
Si Si6 0.213248 0.008988 0.181210
Si Si7 0.557336 0.214099 0.227019
Si Si8 0.341854 0.598159 0.419326
O O1 0.772675 0.718981 0.233739
O O2 0.815724 0.696910 0.386654
O O3 0.866537 0.616452 0.026573
O O4 0.909235 0.749751 0.918617
O O5 0.352658 0.225249 0.554812
O O6 0.227286 0.152720 0.858902
O O7 0.949916 0.364558 0.686639
O O8 0.000000 0.440851 0.750000
O O9 0.000000 0.500000 0.500000
O O10 0.871901 0.477647 0.984012
O O11 0.500000 0.655041 0.250000
O O12 0.469288 0.728466 0.580234
O O13 0.581120 0.638753 0.268916
O O14 0.722810 0.951686 0.904953
O O15 0.742342 0.960550 0.563577
O O16 0.168629 0.961139 0.424715
O O17 0.164785 0.062210 0.221609
O O18 0.500000 0.218578 0.250000
#
# Coordination Sequence:
#
# PCOD9273915 Si02
#       8
#     8   8   8   8   8   8   8   8
#     4  10  21  35  61  90 114 159 209 253 299 356
#     4  10  20  38  60  87 122 155 205 255 299 361
#     4  11  24  35  51  83 124 164 203 241 297 368
#     4  11  23  40  64  89 120 161 209 251 306 370
#     4  11  21  35  59  86 117 162 199 249 301 358
#     4  10  21  37  60  87 118 150 199 251 305 361
#     4  11  24  40  58  88 128 168 204 256 309 360
#     4  10  22  41  64  93 121 156 201 258 307 369
#
# _framework density 21.122422
#
# number of rings (size 3 to 8) (size 9 to 14) (size 15 to 20)
#    0.000    1.500    2.500    3.000    1.750    5.000 
#    0.000    4.375    0.000    0.000    0.000    0.000 
#    0.000    0.000    0.000    0.000    0.000    0.000 
#
# Total GULP energy -178859.050550 kJ/mol
# GULP energy per Si atom -5589.345330 kJ/mol
# Density = 2.107435 g / cm^3
# Si number density = 21.122422 Si / 1000 Ang^3
#
#
#
# Elastic Constant Matrix: (Units=GPa)
#
#
# Indices 1 2 3 4 5 6 
#
# 1 120.7097 26.2720 8.0040 0.0000 -11.9887 0.0000
# 2 26.2720 47.5884 2.5501 0.0000 -2.3335 0.0000
# 3 8.0040 2.5501 26.2931 0.0000 -7.2557 0.0000
# 4 0.0000 0.0000 0.0000 15.4049 0.0000 -5.0924
# 5 -11.9887 -2.3335 -7.2557 0.0000 29.3823 0.0000
# 6 0.0000 0.0000 0.0000 -5.0924 0.0000 30.6206
#
#
#
# Elastic Compliance Matrix: (Units=1/GPa)
#
#
# Indices 1 2 3 4 5 6 
#
# 1 0.009838 -0.005188 -0.001607 0.000000 0.003205 0.000000
# 2 -0.005188 0.023903 -0.000858 0.000000 -0.000430 0.000000
# 3 -0.001607 -0.000858 0.041214 0.000000 0.009453 0.000000
# 4 0.000000 0.000000 0.000000 0.068691 0.000000 0.011424
# 5 0.003205 -0.000430 0.009453 0.000000 0.037642 0.000000
# 6 0.000000 0.000000 0.000000 0.011424 0.000000 0.034558
#
#
# Mechanical properties :
#
#
# Convention : Reuss Voigt Hill
#
# Bulk Modulus (GPa) = 16.76480 29.80483 23.28481
# Shear Modulus (GPa) = 19.91756 25.59922 22.75839
#
# Velocity S-wave (km/s) = 3.07409 3.48508 3.28602
# Velocity P-wave (km/s) = 4.53368 5.50777 5.04429
#
# Compressibility (1/GPa) = 0.05964880
#
# Stress axis : x y z
#
# Youngs Moduli (GPa) = 101.64200 41.83647 24.26363
#
# Poissons Ratio (x) = 0.21705 0.03900
# Poissons Ratio (y) = 0.52734 0.02081
# Poissons Ratio (z) = 0.16336 0.03588
#
# Static dielectric constant tensor:
#      x y z
#    x 1.782270 0.000000 -0.010120 
#    y 0.000000 1.758960 0.000000 
#    z -0.010120 0.000000 1.747090 
# 
# From -- ./inp_files/70583.got.cif
#   From: 2010.05.17/outbox.cif.g08.bks.cpg/sg15_36_cif.got.tgz:70583.got - 2010.06.03 18:47:42.
