data_PCOD9273019
_publ_section_title
;
Structure prediction by ZEFSAII (Michael W. Deem and Ramdas Pophale) SiO2 
 PCOD9273019
Probable space group: C 2/C
;
_chemical_formula_sum "Si O2"
_cell_formula_units_Z 64
_cell_length_a 23.911139
_cell_length_b 14.659391
_cell_length_c 9.846725
_cell_angle_alpha 90.000000
_cell_angle_beta 82.901594
_cell_angle_gamma 90.000000
_cell_volume 3425.046529
_symmetry_space_group_name_H-M "C 2/C"
_symmetry_group_IT_number 15
_symmetry_cell_setting 'monoclinic'
loop_
_space_group_symop_operation_xyz
x,y,z
-x,y,1/2-z
-x,-y,-z
x,-y,1/2+z
1/2+x,1/2+y,z
1/2-x,1/2+y,1/2-z
1/2-x,1/2-y,-z
1/2+x,1/2-y,1/2+z
loop_
_atom_site_type_symbol
_atom_site_label
_atom_site_fract_x
_atom_site_fract_y
_atom_site_fract_z
Si Si1 0.499204 0.588447 0.592843
Si Si2 0.961452 0.463753 0.135030
Si Si3 0.128186 0.615723 0.274945
Si Si4 0.620364 0.321178 0.351822
Si Si5 0.358359 0.153417 0.548688
Si Si6 0.771066 0.513342 0.686628
Si Si7 0.806475 0.968685 0.035375
Si Si8 0.376363 0.646376 0.968358
O O1 0.500000 0.559322 0.750000
O O2 0.500000 0.500000 0.500000
O O3 0.442732 0.646606 0.595529
O O4 0.555915 0.643867 0.544958
O O5 0.925990 0.551927 0.193038
O O6 0.914595 0.389380 0.101594
O O7 0.000000 0.432132 0.250000
O O8 0.000000 0.500000 0.000000
O O9 0.122488 0.712489 0.349956
O O10 0.180478 0.562057 0.321729
O O11 0.138073 0.629938 0.112072
O O12 0.660909 0.375597 0.441125
O O13 0.635839 0.348992 0.190771
O O14 0.303156 0.104481 0.626555
O O15 0.355552 0.263075 0.550959
O O16 0.722145 0.480322 0.601360
O O17 0.743681 0.524758 0.841347
O O18 0.849403 0.054176 0.035394
#
# Coordination Sequence:
#
# PCOD9273019 Si02
#       8
#     8   8   8   8   8   8   8   8
#     4  10  20  37  62  87 121 154 197 254 301 363
#     4  11  22  38  64  94 126 162 204 252 307 367
#     4  10  22  40  62  93 124 165 206 252 307 368
#     4  10  22  38  64  93 122 161 211 249 307 374
#     4  10  22  41  63  92 124 163 207 252 307 371
#     4  11  24  40  64  88 127 159 208 265 304 357
#     4  12  22  40  64  92 119 167 210 256 310 358
#     4  10  22  39  65  92 120 164 211 247 308 376
#
# _framework density 18.685877000000001
#
# number of rings (size 3 to 8) (size 9 to 14) (size 15 to 20)
#    0.000    1.500    5.000    0.000    1.750    2.500 
#    0.000    1.875    0.000    0.000    0.000    0.000 
#    0.000    0.000    0.000    0.000    0.000    0.000 
#
# Total GULP energy -178643.318663 kJ/mol
# GULP energy per Si atom -5582.603708 kJ/mol
# Density = 1.864335 g / cm^3
# Si number density = 18.685877 Si / 1000 Ang^3
#
#
#
# Elastic Constant Matrix: (Units=GPa)
#
#
# Indices 1 2 3 4 5 6 
#
# 1 64.8929 24.2507 -4.1076 0.0000 4.8572 0.0000
# 2 24.2507 100.3050 12.7298 0.0000 2.6054 0.0000
# 3 -4.1076 12.7298 17.8134 0.0000 -4.3831 0.0000
# 4 0.0000 0.0000 0.0000 24.4589 0.0000 0.6175
# 5 4.8572 2.6054 -4.3831 0.0000 35.1795 0.0000
# 6 0.0000 0.0000 0.0000 0.6175 0.0000 11.9107
#
#
#
# Elastic Compliance Matrix: (Units=1/GPa)
#
#
# Indices 1 2 3 4 5 6 
#
# 1 0.017951 -0.005279 0.007632 0.000000 -0.001137 0.000000
# 2 -0.005279 0.012634 -0.010622 0.000000 -0.001530 0.000000
# 3 0.007632 -0.010622 0.067492 0.000000 0.008142 0.000000
# 4 0.000000 0.000000 0.000000 0.040939 0.000000 -0.002122
# 5 -0.001137 -0.001530 0.008142 0.000000 0.029710 0.000000
# 6 0.000000 0.000000 0.000000 -0.002122 0.000000 0.084068
#
#
# Mechanical properties :
#
#
# Convention : Reuss Voigt Hill
#
# Bulk Modulus (GPa) = 12.26417 27.63967 19.95192
# Shear Modulus (GPa) = 16.86281 24.31905 20.59093
#
# Velocity S-wave (km/s) = 3.00732 3.61150 3.32317
# Velocity P-wave (km/s) = 4.31696 5.67577 5.04235
#
# Compressibility (1/GPa) = 0.08153835
#
# Stress axis : x y z
#
# Youngs Moduli (GPa) = 55.70713 79.15315 14.81666
#
# Poissons Ratio (x) = 0.41786 -0.11308
# Poissons Ratio (y) = 0.29408 0.15738
# Poissons Ratio (z) = -0.42517 0.84078
#
# Static dielectric constant tensor:
#      x y z
#    x 1.707730 0.000000 -0.021730 
#    y 0.000000 1.635810 0.000000 
#    z -0.021730 0.000000 1.640850 
# 
# From -- ./inp_files/61911.got.cif
#   From: 2010.05.17/outbox.cif.g08.bks.cpg/sg15_31_cif.got.tgz:61911.got - 2010.06.03 18:47:42.
