data_PCOD9273280
_publ_section_title
;
Structure prediction by ZEFSAII (Michael W. Deem and Ramdas Pophale) SiO2 
 PCOD9273280
Probable space group: C 2/C
;
_chemical_formula_sum "Si O2"
_cell_formula_units_Z 56
_cell_length_a 9.524978
_cell_length_b 15.986428
_cell_length_c 21.771760
_cell_angle_alpha 90.000000
_cell_angle_beta 116.819627
_cell_angle_gamma 90.000000
_cell_volume 2958.582995
_symmetry_space_group_name_H-M "C 2/C"
_symmetry_group_IT_number 15
_symmetry_cell_setting 'monoclinic'
loop_
_space_group_symop_operation_xyz
x,y,z
-x,y,1/2-z
-x,-y,-z
x,-y,1/2+z
1/2+x,1/2+y,z
1/2-x,1/2+y,1/2-z
1/2-x,1/2-y,-z
1/2+x,1/2-y,1/2+z
loop_
_atom_site_type_symbol
_atom_site_label
_atom_site_fract_x
_atom_site_fract_y
_atom_site_fract_z
Si Si1 0.111534 0.538631 0.408953
Si Si2 0.813517 0.350520 0.821825
Si Si3 0.226954 0.338174 0.030871
Si Si4 0.267072 0.625775 0.333169
Si Si5 0.049129 0.785406 0.325957
Si Si6 0.883202 0.179954 0.100575
Si Si7 0.908333 0.353662 0.045718
O O1 0.218126 0.587745 0.479776
O O2 0.192025 0.552639 0.358886
O O3 0.085745 0.443959 0.422545
O O4 0.945641 0.587400 0.374467
O O5 0.762171 0.382521 0.744948
O O6 0.674333 0.340190 0.842438
O O7 0.901774 0.261828 0.827874
O O8 0.364227 0.344529 0.108613
O O9 0.061084 0.338514 0.033656
O O10 0.250000 0.250000 0.000000
O O11 0.172024 0.709622 0.335224
O O12 0.450548 0.638055 0.381309
O O13 0.000000 0.821521 0.250000
O O14 0.901963 0.279104 0.093607
O O15 0.746310 0.151826 0.027154
#
# Coordination Sequence:
#
# PCOD9273280 Si02
#       7
#     8   8   8   8   8   8   8
#     4  11  22  39  64  87 122 163 208 251 307 375
#     4  10  20  37  64  88 117 162 204 248 310 368
#     4  12  18  36  63  92 115 161 211 253 299 370
#     4  10  20  38  60  89 120 161 202 250 307 369
#     4   9  18  34  59  86 116 155 206 248 294 368
#     4  11  21  39  61  90 122 158 208 254 306 364
#     4  11  24  37  61  92 125 158 204 260 313 364
#
# _framework density 18.927980000000002
#
# number of rings (size 3 to 8) (size 9 to 14) (size 15 to 20)
#    0.000    1.429    5.714    2.143    0.000    1.714 
#    0.000    2.857    3.143    0.000    0.000    0.000 
#    0.000    0.000    0.000    0.000    0.000    0.000 
#
# Total GULP energy -156402.851809 kJ/mol
# GULP energy per Si atom -5585.816136 kJ/mol
# Density = 1.888490 g / cm^3
# Si number density = 18.927980 Si / 1000 Ang^3
#
#
#
# Elastic Constant Matrix: (Units=GPa)
#
#
# Indices 1 2 3 4 5 6 
#
# 1 112.9444 26.7290 20.7424 0.0000 -14.6619 0.0000
# 2 26.7290 78.3248 34.9146 0.0000 -15.0226 0.0000
# 3 20.7424 34.9146 92.3110 0.0000 -5.7760 0.0000
# 4 0.0000 0.0000 0.0000 8.1348 0.0000 -5.0795
# 5 -14.6619 -15.0226 -5.7760 0.0000 34.5604 0.0000
# 6 0.0000 0.0000 0.0000 -5.0795 0.0000 16.2422
#
#
#
# Elastic Compliance Matrix: (Units=1/GPa)
#
#
# Indices 1 2 3 4 5 6 
#
# 1 0.010013 -0.002303 -0.001188 0.000000 0.003048 0.000000
# 2 -0.002303 0.017113 -0.005610 0.000000 0.005524 0.000000
# 3 -0.001188 -0.005610 0.013175 0.000000 -0.000741 0.000000
# 4 0.000000 0.000000 0.000000 0.152759 0.000000 0.047774
# 5 0.003048 0.005524 -0.000741 0.000000 0.032506 0.000000
# 6 0.000000 0.000000 0.000000 0.047774 0.000000 0.076509
#
#
# Mechanical properties :
#
#
# Convention : Reuss Voigt Hill
#
# Bulk Modulus (GPa) = 45.24805 49.81693 47.53249
# Shear Modulus (GPa) = 15.26051 25.20042 20.23047
#
# Velocity S-wave (km/s) = 2.84252 3.65277 3.27282
# Velocity P-wave (km/s) = 5.89326 6.64580 6.28081
#
# Compressibility (1/GPa) = 0.02210040
#
# Stress axis : x y z
#
# Youngs Moduli (GPa) = 99.87235 58.43407 75.89936
#
# Poissons Ratio (x) = 0.13455 0.09019
# Poissons Ratio (y) = 0.22997 0.42577
# Poissons Ratio (z) = 0.11867 0.32780
#
# Static dielectric constant tensor:
#      x y z
#    x 1.644550 0.000000 -0.002740 
#    y 0.000000 1.627490 0.000000 
#    z -0.002740 0.000000 1.682490 
# 
# From -- ./inp_files/264805.got.cif
#   From: 2010.05.17/outbox.cif.g08.bks.cpg/sg15_133_cif.got.tgz:264805.got - 2010.06.03 18:47:42.
