data_PCOD9273615
_publ_section_title
;
Structure prediction by ZEFSAII (Michael W. Deem and Ramdas Pophale) SiO2 
 PCOD9273615
Probable space group: C 2/C
;
_chemical_formula_sum "Si O2"
_cell_formula_units_Z 28
_cell_length_a 11.435709
_cell_length_b 8.672771
_cell_length_c 14.232911
_cell_angle_alpha 90.000000
_cell_angle_beta 54.428355
_cell_angle_gamma 90.000000
_cell_volume 1148.187642
_symmetry_space_group_name_H-M "C 2/C"
_symmetry_group_IT_number 15
_symmetry_cell_setting 'monoclinic'
loop_
_space_group_symop_operation_xyz
x,y,z
-x,y,1/2-z
-x,-y,-z
x,-y,1/2+z
1/2+x,1/2+y,z
1/2-x,1/2+y,1/2-z
1/2-x,1/2-y,-z
1/2+x,1/2-y,1/2+z
loop_
_atom_site_type_symbol
_atom_site_label
_atom_site_fract_x
_atom_site_fract_y
_atom_site_fract_z
Si Si1 0.184001 0.115772 0.726150
Si Si2 0.500000 0.895244 0.750000
Si Si3 0.437042 0.590050 0.373392
Si Si4 0.513075 0.895348 0.085042
O O1 0.172824 0.026268 0.628809
O O2 0.071203 0.017383 0.841168
O O3 0.113985 0.282373 0.745491
O O4 0.343880 0.130468 0.686667
O O5 0.423591 0.000472 0.862345
O O6 0.500000 0.674569 0.250000
O O7 0.409529 0.729356 0.456952
O O8 0.500000 0.000000 0.000000
#
# Coordination Sequence:
#
# PCOD9273615 Si02
#       4
#     8   4   8   8
#     4   8  19  37  57  71 105 146 169 209 262 304
#     4  10  20  38  56  74 104 142 178 206 252 322
#     4   7  17  38  52  70 106 138 170 208 252 307
#     4  12  21  32  57  83 103 135 173 217 264 300
#
# _framework density 24.386258999999999
#
# number of rings (size 3 to 8) (size 9 to 14) (size 15 to 20)
#    1.714    1.143    1.429    1.714    0.000    2.286 
#    0.000    5.714    0.000    0.000    0.000    0.000 
#    0.000    0.000    0.000    0.000    0.000    0.000 
#
# Total GULP energy -77944.841714 kJ/mol
# GULP energy per Si atom -5567.488694 kJ/mol
# Density = 2.433075 g / cm^3
# Si number density = 24.386259 Si / 1000 Ang^3
#
#
#
# Elastic Constant Matrix: (Units=GPa)
#
#
# Indices 1 2 3 4 5 6 
#
# 1 80.3530 27.4589 -3.5103 0.0000 -21.2540 0.0000
# 2 27.4589 132.0892 10.3691 0.0000 3.3162 0.0000
# 3 -3.5103 10.3691 28.5501 0.0000 8.1353 0.0000
# 4 0.0000 0.0000 0.0000 17.4210 0.0000 17.1004
# 5 -21.2540 3.3162 8.1353 0.0000 23.4307 0.0000
# 6 0.0000 0.0000 0.0000 17.1004 0.0000 24.3718
#
#
#
# Elastic Compliance Matrix: (Units=1/GPa)
#
#
# Indices 1 2 3 4 5 6 
#
# 1 0.018553 -0.004205 -0.001284 0.000000 0.017870 0.000000
# 2 -0.004205 0.008746 -0.002501 0.000000 -0.004183 0.000000
# 3 -0.001284 -0.002501 0.039961 0.000000 -0.014685 0.000000
# 4 0.000000 0.000000 0.000000 0.184413 0.000000 -0.129392
# 5 0.017870 -0.004183 -0.014685 0.000000 0.064580 0.000000
# 6 0.000000 0.000000 0.000000 -0.129392 0.000000 0.131818
#
#
# Mechanical properties :
#
#
# Convention : Reuss Voigt Hill
#
# Bulk Modulus (GPa) = 19.50068 34.40310 26.95189
# Shear Modulus (GPa) = 10.39189 26.82301 18.60745
#
# Velocity S-wave (km/s) = 2.06655 3.32011 2.76530
# Velocity P-wave (km/s) = 3.70245 5.36989 4.61215
#
# Compressibility (1/GPa) = 0.05128026
#
# Stress axis : x y z
#
# Youngs Moduli (GPa) = 53.90098 114.33692 25.02417
#
# Poissons Ratio (x) = 0.48074 0.03213
# Poissons Ratio (y) = 0.22663 0.06260
# Poissons Ratio (z) = 0.06920 0.28601
#
# Static dielectric constant tensor:
#      x y z
#    x 1.926890 0.000000 -0.056460 
#    y 0.000000 1.927900 0.000000 
#    z -0.056460 0.000000 2.080040 
# 
# From -- ./inp_files/140371.got.cif
#   From: 2010.05.17/outbox.cif.g08.bks.cpg/sg15_71_cif.got.tgz:140371.got - 2010.06.03 18:47:42.
