data_PCOD9273451
_publ_section_title
;
Structure prediction by ZEFSAII (Michael W. Deem and Ramdas Pophale) SiO2 
 PCOD9273451
Probable space group: C 2/C
;
_chemical_formula_sum "Si O2"
_cell_formula_units_Z 56
_cell_length_a 12.002700
_cell_length_b 17.030386
_cell_length_c 16.741261
_cell_angle_alpha 90.000000
_cell_angle_beta 55.909816
_cell_angle_gamma 90.000000
_cell_volume 2834.026832
_symmetry_space_group_name_H-M "C 2/C"
_symmetry_group_IT_number 15
_symmetry_cell_setting 'monoclinic'
loop_
_space_group_symop_operation_xyz
x,y,z
-x,y,1/2-z
-x,-y,-z
x,-y,1/2+z
1/2+x,1/2+y,z
1/2-x,1/2+y,1/2-z
1/2-x,1/2-y,-z
1/2+x,1/2-y,1/2+z
loop_
_atom_site_type_symbol
_atom_site_label
_atom_site_fract_x
_atom_site_fract_y
_atom_site_fract_z
Si Si1 0.907944 0.621400 0.366245
Si Si2 0.962574 0.939875 0.942947
Si Si3 0.500000 0.148601 0.750000
Si Si4 0.500000 0.421085 0.750000
Si Si5 0.530498 0.167340 0.481435
Si Si6 0.332243 0.704626 0.119292
Si Si7 0.787253 0.216443 0.315521
Si Si8 0.853730 0.446267 0.442988
O O1 0.779195 0.675539 0.398251
O O2 0.859371 0.537884 0.420386
O O3 0.000000 0.611602 0.250000
O O4 0.990906 0.656083 0.405977
O O5 0.997557 0.965836 0.836440
O O6 0.052355 0.862102 0.920038
O O7 0.802646 0.923623 0.006368
O O8 0.000000 0.000000 0.000000
O O9 0.622268 0.207086 0.716115
O O10 0.547443 0.095309 0.659046
O O11 0.626345 0.361187 0.697878
O O12 0.408503 0.213660 0.571667
O O13 0.662737 0.221573 0.424868
O O14 0.583605 0.086600 0.499625
O O15 0.257044 0.708422 0.234146
#
# Coordination Sequence:
#
# PCOD9273451 Si02
#       8
#     8   8   4   4   8   8   8   8
#     4  12  25  44  65  92 135 182 214 262 335 405
#     4  11  22  40  67  95 132 171 215 275 343 393
#     4  11  22  38  64 102 127 156 218 288 327 382
#     4   9  20  36  64  96 125 172 218 264 331 412
#     4  12  24  42  69  95 130 175 224 270 323 400
#     4  11  23  42  67  95 128 172 217 270 328 398
#     4  10  20  37  65  98 126 161 218 275 332 379
#     4  12  24  42  67  98 129 168 224 277 331 393
#
# _framework density 19.759868999999998
#
# number of rings (size 3 to 8) (size 9 to 14) (size 15 to 20)
#    0.000    0.857    6.429    1.714    0.000    1.143 
#    0.000    0.000    1.571    0.000    0.000    0.000 
#    0.000    0.000    0.000    0.000    0.000    0.000 
#
# Total GULP energy -156142.553698 kJ/mol
# GULP energy per Si atom -5576.519775 kJ/mol
# Density = 1.971489 g / cm^3
# Si number density = 19.759869 Si / 1000 Ang^3
#
#
#
# Elastic Constant Matrix: (Units=GPa)
#
#
# Indices 1 2 3 4 5 6 
#
# 1 100.1558 11.2696 21.0062 0.0000 2.3727 0.0000
# 2 11.2696 32.5672 -2.4865 0.0000 2.1163 0.0000
# 3 21.0062 -2.4865 72.3424 0.0000 -2.2792 0.0000
# 4 0.0000 0.0000 0.0000 15.9591 0.0000 -2.3269
# 5 2.3727 2.1163 -2.2792 0.0000 39.0397 0.0000
# 6 0.0000 0.0000 0.0000 -2.3269 0.0000 51.4607
#
#
#
# Elastic Compliance Matrix: (Units=1/GPa)
#
#
# Indices 1 2 3 4 5 6 
#
# 1 0.011174 -0.004084 -0.003406 0.000000 -0.000657 0.000000
# 2 -0.004084 0.032381 0.002255 0.000000 -0.001375 0.000000
# 3 -0.003406 0.002255 0.014920 0.000000 0.000956 0.000000
# 4 0.000000 0.000000 0.000000 0.063076 0.000000 0.002852
# 5 -0.000657 -0.001375 0.000956 0.000000 0.025785 0.000000
# 6 0.000000 0.000000 0.000000 0.002852 0.000000 0.019561
#
#
# Mechanical properties :
#
#
# Convention : Reuss Voigt Hill
#
# Bulk Modulus (GPa) = 20.83080 29.40489 25.11785
# Shear Modulus (GPa) = 25.85764 32.97697 29.41730
#
# Velocity S-wave (km/s) = 3.62137 4.08963 3.86261
# Velocity P-wave (km/s) = 5.29629 6.10029 5.71245
#
# Compressibility (1/GPa) = 0.04800584
#
# Stress axis : x y z
#
# Youngs Moduli (GPa) = 89.49511 30.88277 67.02560
#
# Poissons Ratio (x) = 0.12612 0.22826
# Poissons Ratio (y) = 0.36549 -0.15117
# Poissons Ratio (z) = 0.30478 -0.06965
#
# Static dielectric constant tensor:
#      x y z
#    x 1.674580 0.000000 0.038750 
#    y 0.000000 1.679800 0.000000 
#    z 0.038750 0.000000 1.705040 
# 
# From -- ./inp_files/146023.got.cif
#   From: 2010.05.17/outbox.cif.g08.bks.cpg/sg15_74_cif.got.tgz:146023.got - 2010.06.03 18:47:42.
