data_PCOD9273535
_publ_section_title
;
Structure prediction by ZEFSAII (Michael W. Deem and Ramdas Pophale) SiO2 
 PCOD9273535
Probable space group: C 2/C
;
_chemical_formula_sum "Si O2"
_cell_formula_units_Z 44
_cell_length_a 13.480271
_cell_length_b 7.723886
_cell_length_c 24.723623
_cell_angle_alpha 90.000000
_cell_angle_beta 142.166740
_cell_angle_gamma 90.000000
_cell_volume 1578.941463
_symmetry_space_group_name_H-M "C 2/C"
_symmetry_group_IT_number 15
_symmetry_cell_setting 'monoclinic'
loop_
_space_group_symop_operation_xyz
x,y,z
-x,y,1/2-z
-x,-y,-z
x,-y,1/2+z
1/2+x,1/2+y,z
1/2-x,1/2+y,1/2-z
1/2-x,1/2-y,-z
1/2+x,1/2-y,1/2+z
loop_
_atom_site_type_symbol
_atom_site_label
_atom_site_fract_x
_atom_site_fract_y
_atom_site_fract_z
Si Si1 0.416240 0.812349 0.268107
Si Si2 0.530028 0.236004 0.516457
Si Si3 0.230558 0.151702 0.197222
Si Si4 0.000000 0.144314 0.750000
Si Si5 0.734937 0.567484 0.555861
Si Si6 0.257764 0.414227 0.046175
O O1 0.500000 0.740773 0.250000
O O2 0.333142 0.667980 0.269298
O O3 0.571660 0.921746 0.357306
O O4 0.273020 0.954136 0.201677
O O5 0.596076 0.245640 0.605450
O O6 0.639691 0.400737 0.540249
O O7 0.343900 0.278202 0.443892
O O8 0.579579 0.089909 0.495540
O O9 0.389623 0.247752 0.244549
O O10 0.869925 0.081745 0.647852
O O11 0.694997 0.563221 0.475031
O O12 0.250000 0.250000 0.000000
#
# Coordination Sequence:
#
# PCOD9273535 Si02
#       6
#     8   8   8   4   8   8
#     4  12  25  45  68 103 139 188 233 289 350 419
#     4   9  19  38  62  98 128 179 225 283 340 420
#     4  11  23  43  71  96 143 183 232 291 347 415
#     4  10  20  40  66  98 136 184 234 290 346 426
#     4  10  20  37  67  95 132 178 228 282 348 416
#     4   9  18  33  61  95 128 175 227 277 346 411
#
# _framework density 27.866769999999999
#
# number of rings (size 3 to 8) (size 9 to 14) (size 15 to 20)
#    0.000    1.818    2.727    2.182    2.545    3.636 
#    1.636    3.636    0.000    0.000    0.000    0.000 
#    0.000    0.000    0.000    0.000    0.000    0.000 
#
# Total GULP energy -122728.135401 kJ/mol
# GULP energy per Si atom -5578.551609 kJ/mol
# Density = 2.780334 g / cm^3
# Si number density = 27.866770 Si / 1000 Ang^3
#
#
#
# Elastic Constant Matrix: (Units=GPa)
#
#
# Indices 1 2 3 4 5 6 
#
# 1 227.5347 36.7408 50.3912 0.0000 -8.6184 0.0000
# 2 36.7408 74.1674 36.6598 0.0000 3.2921 0.0000
# 3 50.3912 36.6598 110.0811 0.0000 -7.9391 0.0000
# 4 0.0000 0.0000 0.0000 33.7949 0.0000 6.3536
# 5 -8.6184 3.2921 -7.9391 0.0000 41.0621 0.0000
# 6 0.0000 0.0000 0.0000 6.3536 0.0000 45.3509
#
#
#
# Elastic Compliance Matrix: (Units=1/GPa)
#
#
# Indices 1 2 3 4 5 6 
#
# 1 0.005080 -0.001721 -0.001689 0.000000 0.000878 0.000000
# 2 -0.001721 0.016952 -0.005052 0.000000 -0.002697 0.000000
# 3 -0.001689 -0.005052 0.011707 0.000000 0.002314 0.000000
# 4 0.000000 0.000000 0.000000 0.030391 0.000000 -0.004258
# 5 0.000878 -0.002697 0.002314 0.000000 0.025201 0.000000
# 6 0.000000 0.000000 0.000000 -0.004258 0.000000 0.022647
#
#
# Mechanical properties :
#
#
# Convention : Reuss Voigt Hill
#
# Bulk Modulus (GPa) = 59.47083 73.26297 66.36690
# Shear Modulus (GPa) = 37.17256 43.24099 40.20677
#
# Velocity S-wave (km/s) = 3.65627 3.94344 3.80257
# Velocity P-wave (km/s) = 6.26194 6.86162 6.56863
#
# Compressibility (1/GPa) = 0.01681497
#
# Stress axis : x y z
#
# Youngs Moduli (GPa) = 196.84642 58.98854 85.41924
#
# Poissons Ratio (x) = 0.10149 0.14429
# Poissons Ratio (y) = 0.33869 0.43158
# Poissons Ratio (z) = 0.33251 0.29804
#
# Static dielectric constant tensor:
#      x y z
#    x 2.133180 0.000000 -0.083190 
#    y 0.000000 2.558480 0.000000 
#    z -0.083190 0.000000 2.256460 
# 
# From -- ./inp_files/142213.got.cif
#   From: 2010.05.17/outbox.cif.g08.bks.cpg/sg15_72_cif.got.tgz:142213.got - 2010.06.03 18:47:42.
