data_PCOD9273998
_publ_section_title
;
Structure prediction by ZEFSAII (Michael W. Deem and Ramdas Pophale) SiO2 
 PCOD9273998
Probable space group: C 2/C
;
_chemical_formula_sum "Si O2"
_cell_formula_units_Z 44
_cell_length_a 16.112227
_cell_length_b 6.072713
_cell_length_c 20.936288
_cell_angle_alpha 90.000000
_cell_angle_beta 76.848383
_cell_angle_gamma 90.000000
_cell_volume 1994.780071
_symmetry_space_group_name_H-M "C 2/C"
_symmetry_group_IT_number 15
_symmetry_cell_setting 'monoclinic'
loop_
_space_group_symop_operation_xyz
x,y,z
-x,y,1/2-z
-x,-y,-z
x,-y,1/2+z
1/2+x,1/2+y,z
1/2-x,1/2+y,1/2-z
1/2-x,1/2-y,-z
1/2+x,1/2-y,1/2+z
loop_
_atom_site_type_symbol
_atom_site_label
_atom_site_fract_x
_atom_site_fract_y
_atom_site_fract_z
Si Si1 0.622325 0.333145 0.056026
Si Si2 0.991216 0.114229 0.142765
Si Si3 0.744036 0.180349 0.426446
Si Si4 0.500000 0.724376 0.750000
Si Si5 0.122268 0.535181 0.656902
Si Si6 0.083736 0.584058 0.945775
O O1 0.540688 0.488731 0.077312
O O2 0.696666 0.461554 0.080411
O O3 0.608147 0.104578 0.094931
O O4 0.632541 0.263742 0.981608
O O5 0.933446 0.293948 0.117975
O O6 0.061122 0.255626 0.168382
O O7 0.967316 0.926107 0.197010
O O8 0.750000 0.250000 0.500000
O O9 0.784774 0.358239 0.370873
O O10 0.648122 0.118198 0.426728
O O11 0.581908 0.871914 0.715947
O O12 0.000000 0.500000 0.000000
#
# Coordination Sequence:
#
# PCOD9273998 Si02
#       6
#     8   8   8   4   8   8
#     4  10  20  38  60  95 137 172 202 265 347 408
#     4  10  21  37  63  98 122 174 223 286 322 394
#     4  11  22  37  61 100 143 176 207 264 354 426
#     4  10  22  40  66  94 120 174 250 284 324 398
#     4  10  20  40  63  96 123 178 224 273 334 405
#     4  12  21  37  62 104 143 165 212 275 347 407
#
# _framework density 22.057569999999998
#
# number of rings (size 3 to 8) (size 9 to 14) (size 15 to 20)
#    0.000    1.455    3.636    2.727    0.000    0.000 
#    0.000    0.000    0.000    0.000   80.364    0.000 
#    0.000    0.000    0.000    0.000    0.000    0.000 
#
# Total GULP energy -122642.099499 kJ/mol
# GULP energy per Si atom -5574.640886 kJ/mol
# Density = 2.200737 g / cm^3
# Si number density = 22.057570 Si / 1000 Ang^3
#
#
#
# Elastic Constant Matrix: (Units=GPa)
#
#
# Indices 1 2 3 4 5 6 
#
# 1 97.6980 49.7878 43.4027 0.0000 -20.9500 0.0000
# 2 49.7878 105.2006 50.1573 0.0000 -19.3821 0.0000
# 3 43.4027 50.1573 90.8623 0.0000 -21.5693 0.0000
# 4 0.0000 0.0000 0.0000 46.7083 0.0000 -7.3987
# 5 -20.9500 -19.3821 -21.5693 0.0000 17.5888 0.0000
# 6 0.0000 0.0000 0.0000 -7.3987 0.0000 41.9180
#
#
#
# Elastic Compliance Matrix: (Units=1/GPa)
#
#
# Indices 1 2 3 4 5 6 
#
# 1 0.015950 -0.004247 -0.002646 0.000000 0.011073 0.000000
# 2 -0.004247 0.014824 -0.004905 0.000000 0.005261 0.000000
# 3 -0.002646 -0.004905 0.018262 0.000000 0.013838 0.000000
# 4 0.000000 0.000000 0.000000 0.022025 0.000000 0.003888
# 5 0.011073 0.005261 0.013838 0.000000 0.092811 0.000000
# 6 0.000000 0.000000 0.000000 0.003888 0.000000 0.024542
#
#
# Mechanical properties :
#
#
# Convention : Reuss Voigt Hill
#
# Bulk Modulus (GPa) = 39.30875 64.49519 51.90197
# Shear Modulus (GPa) = 22.67670 31.27054 26.97362
#
# Velocity S-wave (km/s) = 3.20983 3.76929 3.50075
# Velocity P-wave (km/s) = 5.62112 6.94596 6.31836
#
# Compressibility (1/GPa) = 0.02543963
#
# Stress axis : x y z
#
# Youngs Moduli (GPa) = 62.69650 67.46008 54.75750
#
# Poissons Ratio (x) = 0.28649 0.14488
# Poissons Ratio (y) = 0.26626 0.26860
# Poissons Ratio (z) = 0.16589 0.33091
#
# Static dielectric constant tensor:
#      x y z
#    x 1.908740 0.000000 -0.061640 
#    y 0.000000 1.906570 0.000000 
#    z -0.061640 0.000000 1.832620 
# 
# From -- ./inp_files/246475.got.cif
#   From: 2010.05.17/outbox.cif.g08.bks.cpg/sg15_124_cif.got.tgz:246475.got - 2010.06.03 18:47:42.
