data_PCOD9273117
_publ_section_title
;
Structure prediction by ZEFSAII (Michael W. Deem and Ramdas Pophale) SiO2 
 PCOD9273117
Probable space group: C 2/C
;
_chemical_formula_sum "Si O2"
_cell_formula_units_Z 40
_cell_length_a 24.904182
_cell_length_b 10.479114
_cell_length_c 22.406088
_cell_angle_alpha 90.000000
_cell_angle_beta 21.097176
_cell_angle_gamma 90.000000
_cell_volume 2104.776839
_symmetry_space_group_name_H-M "C 2/C"
_symmetry_group_IT_number 15
_symmetry_cell_setting 'monoclinic'
loop_
_space_group_symop_operation_xyz
x,y,z
-x,y,1/2-z
-x,-y,-z
x,-y,1/2+z
1/2+x,1/2+y,z
1/2-x,1/2+y,1/2-z
1/2-x,1/2-y,-z
1/2+x,1/2-y,1/2+z
loop_
_atom_site_type_symbol
_atom_site_label
_atom_site_fract_x
_atom_site_fract_y
_atom_site_fract_z
Si Si1 0.980577 0.917049 0.459274
Si Si2 0.502792 0.565676 0.310948
Si Si3 0.005935 0.399081 0.410568
Si Si4 0.743701 0.232482 0.405561
Si Si5 0.635471 0.846042 0.813947
O O1 0.811662 0.865900 0.634536
O O2 0.091953 0.797527 0.343450
O O3 0.000000 0.000000 0.500000
O O4 0.003101 0.992631 0.373887
O O5 0.500000 0.494290 0.250000
O O6 0.357744 0.655782 0.463056
O O7 0.647962 0.656162 0.163290
O O8 0.143610 0.302142 0.257520
O O9 0.065620 0.543366 0.344558
O O10 0.873567 0.363838 0.502839
O O11 0.937387 0.373596 0.546312
#
# Coordination Sequence:
#
# PCOD9273117 Si02
#       5
#     8   8   8   8   8
#     4  12  26  42  65  92 127 166 210 257 312 369
#     4  11  23  41  65  92 126 164 209 257 311 369
#     4  10  20  37  62  94 124 161 204 255 312 374
#     4  10  20  39  64  90 123 161 207 255 315 365
#     4  11  24  37  61  93 129 163 207 253 313 366
#
# _framework density 19.004389
#
# number of rings (size 3 to 8) (size 9 to 14) (size 15 to 20)
#    0.000    1.200    2.000    5.400    8.400    0.000 
#    0.000    1.000    0.000    0.000    0.000    0.000 
#    0.000    0.000    0.000    0.000    0.000    0.000 
#
# Total GULP energy -111641.909221 kJ/mol
# GULP energy per Si atom -5582.095461 kJ/mol
# Density = 1.896113 g / cm^3
# Si number density = 19.004389 Si / 1000 Ang^3
#
#
#
# Elastic Constant Matrix: (Units=GPa)
#
#
# Indices 1 2 3 4 5 6 
#
# 1 241.0695 126.6785 72.4584 -0.0003 -52.5353 0.0003
# 2 126.6785 142.0588 45.4232 0.0002 -36.1770 0.0000
# 3 72.4584 45.4232 104.0289 0.0007 -34.0179 -0.0003
# 4 -0.0003 0.0002 0.0007 33.3582 -0.0001 -8.1690
# 5 -52.5353 -36.1770 -34.0179 -0.0001 61.9664 -0.0001
# 6 0.0003 0.0000 -0.0003 -8.1690 -0.0001 21.1717
#
#
#
# Elastic Compliance Matrix: (Units=1/GPa)
#
#
# Indices 1 2 3 4 5 6 
#
# 1 0.008810 -0.006451 -0.002570 0.000000 0.002292 0.000000
# 2 -0.006451 0.013551 -0.000762 0.000000 0.002024 0.000000
# 3 -0.002570 -0.000762 0.013258 0.000000 0.004654 0.000000
# 4 0.000000 0.000000 0.000000 0.033106 0.000000 0.012774
# 5 0.002292 0.002024 0.004654 0.000000 0.021818 0.000000
# 6 0.000000 0.000000 0.000000 0.012774 0.000000 0.052161
#
#
# Mechanical properties :
#
#
# Convention : Reuss Voigt Hill
#
# Bulk Modulus (GPa) = 62.29481 108.47527 85.38504
# Shear Modulus (GPa) = 29.82956 39.47240 34.65098
#
# Velocity S-wave (km/s) = 3.96613 4.56237 4.27466
# Velocity P-wave (km/s) = 7.33648 9.21719 8.33008
#
# Compressibility (1/GPa) = 0.01605270
#
# Stress axis : x y z
#
# Youngs Moduli (GPa) = 113.50900 73.79780 75.42882
#
# Poissons Ratio (x) = 0.47603 0.19386
# Poissons Ratio (y) = 0.73219 0.05747
# Poissons Ratio (z) = 0.29174 0.05623
#
# Static dielectric constant tensor:
#      x y z
#    x 1.689260 0.000000 0.016410 
#    y 0.000000 1.675690 0.000000 
#    z 0.016410 0.000000 1.656130 
# 
# From -- ./inp_files/54056.got.cif
#   From: 2010.05.17/outbox.cif.g08.bks.cpg/sg15_28_cif.got.tgz:54056.got - 2010.06.03 18:47:42.
