data_PCOD9273859
_publ_section_title
;
Structure prediction by ZEFSAII (Michael W. Deem and Ramdas Pophale) SiO2 
 PCOD9273859
Probable space group: C 2/C
;
_chemical_formula_sum "Si O2"
_cell_formula_units_Z 48
_cell_length_a 10.053260
_cell_length_b 14.933765
_cell_length_c 26.276306
_cell_angle_alpha 90.000000
_cell_angle_beta 36.920452
_cell_angle_gamma 90.000000
_cell_volume 2369.748443
_symmetry_space_group_name_H-M "C 2/C"
_symmetry_group_IT_number 15
_symmetry_cell_setting 'monoclinic'
loop_
_space_group_symop_operation_xyz
x,y,z
-x,y,1/2-z
-x,-y,-z
x,-y,1/2+z
1/2+x,1/2+y,z
1/2-x,1/2+y,1/2-z
1/2-x,1/2-y,-z
1/2+x,1/2-y,1/2+z
loop_
_atom_site_type_symbol
_atom_site_label
_atom_site_fract_x
_atom_site_fract_y
_atom_site_fract_z
Si Si1 0.558381 0.552203 0.313085
Si Si2 0.436502 0.749152 0.366505
Si Si3 0.361918 0.060832 0.580035
Si Si4 0.729339 0.932188 0.647615
Si Si5 0.986661 0.441894 0.154776
Si Si6 0.557413 0.740292 0.449590
O O1 0.508626 0.656869 0.317917
O O2 0.370710 0.489775 0.346679
O O3 0.584496 0.547665 0.366744
O O4 0.787444 0.511106 0.224018
O O5 0.550208 0.841080 0.313560
O O6 0.500960 0.739982 0.406388
O O7 0.171426 0.763131 0.449105
O O8 0.500557 0.065019 0.589949
O O9 0.333184 0.163879 0.572230
O O10 0.500000 0.000000 0.500000
O O11 0.500000 0.915016 0.750000
O O12 0.789937 0.847003 0.594382
O O13 0.688857 0.015958 0.623463
#
# Coordination Sequence:
#
# PCOD9273859 Si02
#       6
#     8   8   8   8   8   8
#     4  10  20  38  60  82 114 149 189 239 280 340
#     4   9  18  35  57  82 111 154 186 223 292 348
#     4  11  21  37  58  85 114 149 192 234 285 337
#     4   9  20  38  58  84 114 149 193 239 285 338
#     4  10  22  37  59  87 113 150 194 233 286 342
#     4   9  18  34  59  80 111 152 192 229 274 352
#
# _framework density 20.255315
#
# number of rings (size 3 to 8) (size 9 to 14) (size 15 to 20)
#    0.000    2.333    1.667    0.500    2.333    6.000 
#    0.000    7.500    0.000    0.000    0.000    0.000 
#    0.000    0.000    0.000    0.000    0.000    0.000 
#
# Total GULP energy -133708.213782 kJ/mol
# GULP energy per Si atom -5571.175574 kJ/mol
# Density = 2.020921 g / cm^3
# Si number density = 20.255315 Si / 1000 Ang^3
#
#
#
# Elastic Constant Matrix: (Units=GPa)
#
#
# Indices 1 2 3 4 5 6 
#
# 1 55.6950 21.1966 -8.1081 -0.0002 -3.4845 0.0002
# 2 21.1966 127.2252 22.1786 -0.0007 -6.6637 -0.0002
# 3 -8.1081 22.1786 25.1896 -0.0002 -2.3828 0.0028
# 4 -0.0002 -0.0007 -0.0002 23.3860 -0.0005 -3.7956
# 5 -3.4845 -6.6637 -2.3828 -0.0005 12.4383 -0.0005
# 6 0.0002 -0.0002 0.0028 -3.7956 -0.0005 31.8576
#
#
#
# Elastic Compliance Matrix: (Units=1/GPa)
#
#
# Indices 1 2 3 4 5 6 
#
# 1 0.022294 -0.005626 0.012664 0.000000 0.005658 -0.000001
# 2 -0.005626 0.010854 -0.011169 0.000000 0.002099 0.000001
# 3 0.012664 -0.011169 0.054364 -0.000001 0.007979 -0.000005
# 4 0.000000 0.000000 -0.000001 0.043604 0.000002 0.005195
# 5 0.005658 0.002099 0.007979 0.000002 0.084635 0.000001
# 6 -0.000001 0.000001 -0.000005 0.005195 0.000001 0.032009
#
#
# Mechanical properties :
#
#
# Convention : Reuss Voigt Hill
#
# Bulk Modulus (GPa) = 12.61810 30.96042 21.78926
# Shear Modulus (GPa) = 17.70302 25.05922 21.38112
#
# Velocity S-wave (km/s) = 2.95955 3.52116 3.25250
# Velocity P-wave (km/s) = 4.23339 5.64355 4.98855
#
# Compressibility (1/GPa) = 0.07925126
#
# Stress axis : x y z
#
# Youngs Moduli (GPa) = 44.85594 92.12879 18.39447
#
# Poissons Ratio (x) = 0.51828 -0.23295
# Poissons Ratio (y) = 0.25234 0.20545
# Poissons Ratio (z) = -0.56807 1.02900
#
# Static dielectric constant tensor:
#      x y z
#    x 1.672240 0.000010 0.169990 
#    y 0.000010 1.742790 -0.000020 
#    z 0.169990 -0.000020 1.375440 
# 
# From -- ./inp_files/311137.got.cif
#   From: 2010.05.17/outbox.cif.g08.bks.cpg/sg15_156_cif.got.tgz:311137.got - 2010.06.03 18:47:42.
