data_PCOD9273533
_publ_section_title
;
Structure prediction by ZEFSAII (Michael W. Deem and Ramdas Pophale) SiO2 
 PCOD9273533
Probable space group: C 2/C
;
_chemical_formula_sum "Si O2"
_cell_formula_units_Z 60
_cell_length_a 8.597886
_cell_length_b 24.532780
_cell_length_c 17.958053
_cell_angle_alpha 90.000000
_cell_angle_beta 130.458345
_cell_angle_gamma 90.000000
_cell_volume 2882.124118
_symmetry_space_group_name_H-M "C 2/C"
_symmetry_group_IT_number 15
_symmetry_cell_setting 'monoclinic'
loop_
_space_group_symop_operation_xyz
x,y,z
-x,y,1/2-z
-x,-y,-z
x,-y,1/2+z
1/2+x,1/2+y,z
1/2-x,1/2+y,1/2-z
1/2-x,1/2-y,-z
1/2+x,1/2-y,1/2+z
loop_
_atom_site_type_symbol
_atom_site_label
_atom_site_fract_x
_atom_site_fract_y
_atom_site_fract_z
Si Si1 0.691913 0.168293 0.520694
Si Si2 0.150111 0.170843 0.664933
Si Si3 0.936911 0.493166 0.067854
Si Si4 0.873173 0.902022 0.490852
Si Si5 0.000000 0.759921 0.750000
Si Si6 0.275965 0.410402 0.179744
Si Si7 0.853548 0.398577 0.634367
Si Si8 0.769827 0.302915 0.955980
O O1 0.722232 0.114217 0.582183
O O2 0.642289 0.151807 0.421287
O O3 0.495907 0.198260 0.491945
O O4 0.918268 0.193554 0.594741
O O5 0.154692 0.124715 0.600690
O O6 0.311147 0.219006 0.705354
O O7 0.206127 0.140181 0.758490
O O8 0.925034 0.549518 0.107969
O O9 0.110990 0.453473 0.154083
O O10 0.729993 0.459628 0.021285
O O11 0.000000 0.500000 0.000000
O O12 0.759702 0.857932 0.507249
O O13 0.114924 0.905125 0.580870
O O14 0.083879 0.798099 0.840829
O O15 0.500000 0.436526 0.250000
O O16 0.000000 0.391755 0.750000
O O17 0.750000 0.250000 0.000000
#
# Coordination Sequence:
#
# PCOD9273533 Si02
#       8
#     8   8   8   8   4   8   8   8
#     4  10  22  46  65  93 139 174 213 278 334 387
#     4  10  22  42  69  97 129 170 225 280 328 386
#     4  12  23  42  67  94 132 174 217 274 334 397
#     4  11  24  45  66  91 139 172 213 284 329 387
#     4  12  24  38  68 102 124 170 230 258 332 398
#     4  10  20  37  67  95 124 165 215 272 331 377
#     4  11  26  43  65  98 131 179 226 265 333 404
#     4  12  24  44  69  99 133 174 222 273 336 397
#
# _framework density 20.817979999999999
#
# number of rings (size 3 to 8) (size 9 to 14) (size 15 to 20)
#    0.000    1.067    4.000    2.000    3.733    1.600 
#    0.000    0.000    0.000    0.000    0.000    0.000 
#    0.000    0.000    0.000    0.000    0.000    0.000 
#
# Total GULP energy -167617.550557 kJ/mol
# GULP energy per Si atom -5587.251685 kJ/mol
# Density = 2.077060 g / cm^3
# Si number density = 20.817980 Si / 1000 Ang^3
#
#
#
# Elastic Constant Matrix: (Units=GPa)
#
#
# Indices 1 2 3 4 5 6 
#
# 1 133.0928 19.8353 42.9866 0.0000 24.7166 0.0000
# 2 19.8353 26.8307 11.6341 0.0000 8.5169 0.0000
# 3 42.9866 11.6341 122.9893 0.0000 -0.3054 0.0000
# 4 0.0000 0.0000 0.0000 16.6173 0.0000 -2.9803
# 5 24.7166 8.5169 -0.3054 0.0000 35.6969 0.0000
# 6 0.0000 0.0000 0.0000 -2.9803 0.0000 25.3721
#
#
#
# Elastic Compliance Matrix: (Units=1/GPa)
#
#
# Indices 1 2 3 4 5 6 
#
# 1 0.010338 -0.004289 -0.003223 0.000000 -0.006162 0.000000
# 2 -0.004289 0.044001 -0.002682 0.000000 -0.007552 0.000000
# 3 -0.003223 -0.002682 0.009518 0.000000 0.002953 0.000000
# 4 0.000000 0.000000 0.000000 0.061473 0.000000 0.007221
# 5 -0.006162 -0.007552 0.002953 0.000000 0.034107 0.000000
# 6 0.000000 0.000000 0.000000 0.007221 0.000000 0.040262
#
#
# Mechanical properties :
#
#
# Convention : Reuss Voigt Hill
#
# Bulk Modulus (GPa) = 23.00435 47.98052 35.49244
# Shear Modulus (GPa) = 21.31486 29.43439 25.37462
#
# Velocity S-wave (km/s) = 3.20326 3.76426 3.49503
# Velocity P-wave (km/s) = 4.97548 6.48001 5.77693
#
# Compressibility (1/GPa) = 0.04347004
#
# Stress axis : x y z
#
# Youngs Moduli (GPa) = 96.72940 22.72650 105.06113
#
# Poissons Ratio (x) = 0.09748 0.33860
# Poissons Ratio (y) = 0.41488 0.28177
# Poissons Ratio (z) = 0.31175 0.06095
#
# Static dielectric constant tensor:
#      x y z
#    x 1.781780 0.000000 -0.019220 
#    y 0.000000 1.763990 0.000000 
#    z -0.019220 0.000000 1.726460 
# 
# From -- ./inp_files/193732.got.cif
#   From: 2010.05.17/outbox.cif.g08.bks.cpg/sg15_97_cif.got.tgz:193732.got - 2010.06.03 18:47:42.
