data_PCOD9273325
_publ_section_title
;
Structure prediction by ZEFSAII (Michael W. Deem and Ramdas Pophale) SiO2 
 PCOD9273325
Probable space group: C 2/C
;
_chemical_formula_sum "Si O2"
_cell_formula_units_Z 48
_cell_length_a 19.047560
_cell_length_b 5.194139
_cell_length_c 26.144782
_cell_angle_alpha 90.000000
_cell_angle_beta 49.879772
_cell_angle_gamma 90.000000
_cell_volume 1977.996852
_symmetry_space_group_name_H-M "C 2/C"
_symmetry_group_IT_number 15
_symmetry_cell_setting 'monoclinic'
loop_
_space_group_symop_operation_xyz
x,y,z
-x,y,1/2-z
-x,-y,-z
x,-y,1/2+z
1/2+x,1/2+y,z
1/2-x,1/2+y,1/2-z
1/2-x,1/2-y,-z
1/2+x,1/2-y,1/2+z
loop_
_atom_site_type_symbol
_atom_site_label
_atom_site_fract_x
_atom_site_fract_y
_atom_site_fract_z
Si Si1 0.225024 0.168924 0.594204
Si Si2 0.636249 0.695900 0.305323
Si Si3 0.528864 0.195673 0.393188
Si Si4 0.376285 0.784514 0.550252
Si Si5 0.850779 0.024200 0.965853
Si Si6 0.219625 0.480395 0.684840
O O1 0.175009 0.964466 0.580583
O O2 0.259328 0.386650 0.538519
O O3 0.171707 0.293188 0.666525
O O4 0.318088 0.044962 0.572775
O O5 0.584113 0.428354 0.339423
O O6 0.731950 0.675204 0.291850
O O7 0.575041 0.928947 0.355822
O O8 0.661310 0.790103 0.236690
O O9 0.540095 0.212435 0.449502
O O10 0.424186 0.245599 0.428178
O O11 0.394226 0.680567 0.484862
O O12 0.304042 0.600659 0.613617
#
# Coordination Sequence:
#
# PCOD9273325 Si02
#       6
#     8   8   8   8   8   8
#     4  10  21  40  65  89 125 176 216 264 321 393
#     4  11  23  39  67  93 127 164 213 268 326 369
#     4  11  24  40  63  99 130 167 207 275 327 383
#     4  10  20  37  64  93 121 167 216 266 319 373
#     4  10  23  39  60  93 133 168 216 260 331 393
#     4  10  21  39  63  95 120 163 222 265 310 391
#
# _framework density 24.266977000000001
#
# number of rings (size 3 to 8) (size 9 to 14) (size 15 to 20)
#    0.000    1.667    1.667    3.000    4.667    0.667 
#    0.000    0.833    0.000    0.000    0.000    0.000 
#    0.000    0.000    0.000    0.000    0.000    0.000 
#
# Total GULP energy -134119.170044 kJ/mol
# GULP energy per Si atom -5588.298752 kJ/mol
# Density = 2.421174 g / cm^3
# Si number density = 24.266977 Si / 1000 Ang^3
#
#
#
# Elastic Constant Matrix: (Units=GPa)
#
#
# Indices 1 2 3 4 5 6 
#
# 1 94.8521 8.9819 34.3360 0.0417 9.7233 -0.0296
# 2 8.9819 109.3150 38.9813 -0.0136 0.2868 -0.0124
# 3 34.3360 38.9813 88.9618 -0.0281 15.7240 0.0348
# 4 0.0417 -0.0136 -0.0281 50.6580 0.0299 -4.3084
# 5 9.7233 0.2868 15.7240 0.0299 32.4028 0.0260
# 6 -0.0296 -0.0124 0.0348 -4.3084 0.0260 7.4406
#
#
#
# Elastic Compliance Matrix: (Units=1/GPa)
#
#
# Indices 1 2 3 4 5 6 
#
# 1 0.012369 0.000715 -0.004846 -0.000006 -0.001366 0.000075
# 2 0.000715 0.011059 -0.005542 0.000001 0.002377 0.000040
# 3 -0.004846 -0.005542 0.016707 0.000009 -0.006604 -0.000078
# 4 -0.000006 0.000001 0.000009 0.020763 -0.000032 0.012022
# 5 -0.001366 0.002377 -0.006604 -0.000032 0.034455 -0.000109
# 6 0.000075 0.000040 -0.000078 0.012022 -0.000109 0.141361
#
#
# Mechanical properties :
#
#
# Convention : Reuss Voigt Hill
#
# Bulk Modulus (GPa) = 48.10063 50.85859 49.47961
# Shear Modulus (GPa) = 19.01214 32.15559 25.58387
#
# Velocity S-wave (km/s) = 2.80207 3.64411 3.25047
# Velocity P-wave (km/s) = 5.50756 6.22169 5.87549
#
# Compressibility (1/GPa) = 0.02078975
#
# Stress axis : x y z
#
# Youngs Moduli (GPa) = 80.84498 90.42269 59.85538
#
# Poissons Ratio (x) = -0.06468 0.29006
# Poissons Ratio (y) = -0.05783 0.33173
# Poissons Ratio (z) = 0.39178 0.50113
#
# Static dielectric constant tensor:
#      x y z
#    x 1.968760 -0.000070 0.043700 
#    y -0.000070 2.052300 -0.000080 
#    z 0.043700 -0.000080 1.949240 
# 
# From -- ./inp_files/250856.got.cif
#   From: 2010.05.17/outbox.cif.g08.bks.cpg/sg15_126_cif.got.tgz:250856.got - 2010.06.03 18:47:42.
