data_PCOD9273382
_publ_section_title
;
Structure prediction by ZEFSAII (Michael W. Deem and Ramdas Pophale) SiO2 
 PCOD9273382
Probable space group: C 2/C
;
_chemical_formula_sum "Si O2"
_cell_formula_units_Z 48
_cell_length_a 8.125676
_cell_length_b 17.542397
_cell_length_c 18.529362
_cell_angle_alpha 90.000000
_cell_angle_beta 134.122474
_cell_angle_gamma 90.000000
_cell_volume 1896.027308
_symmetry_space_group_name_H-M "C 2/C"
_symmetry_group_IT_number 15
_symmetry_cell_setting 'monoclinic'
loop_
_space_group_symop_operation_xyz
x,y,z
-x,y,1/2-z
-x,-y,-z
x,-y,1/2+z
1/2+x,1/2+y,z
1/2-x,1/2+y,1/2-z
1/2-x,1/2-y,-z
1/2+x,1/2-y,1/2+z
loop_
_atom_site_type_symbol
_atom_site_label
_atom_site_fract_x
_atom_site_fract_y
_atom_site_fract_z
Si Si1 0.000000 0.287967 0.250000
Si Si2 0.000000 0.135288 0.750000
Si Si3 0.648761 0.358444 0.880614
Si Si4 0.403456 0.201486 0.945846
Si Si5 0.317776 0.073841 0.278651
Si Si6 0.300071 0.362843 0.963418
Si Si7 0.340463 0.426261 0.336568
O O1 0.915372 0.227018 0.164884
O O2 0.791853 0.345883 0.199357
O O3 0.779895 0.187429 0.672439
O O4 0.011197 0.081004 0.821348
O O5 0.409297 0.394346 0.831406
O O6 0.742483 0.407153 0.839313
O O7 0.865858 0.345884 0.997910
O O8 0.302290 0.171008 0.991822
O O9 0.422582 0.291507 0.963026
O O10 0.571690 0.109337 0.352400
O O11 0.326271 0.989376 0.248563
O O12 0.490252 0.425988 0.043165
#
# Coordination Sequence:
#
# PCOD9273382 Si02
#       7
#     4   4   8   8   8   8   8
#     4  10  20  37  65  82 120 170 204 228 308 383
#     4  10  22  31  61  92 124 140 210 268 296 331
#     4   9  18  36  62  86 114 163 208 244 293 369
#     4   9  17  34  57  89 113 156 205 254 298 354
#     4   9  19  32  58  87 117 149 206 249 288 354
#     4   9  18  34  60  81 119 164 200 236 311 375
#     4  11  21  38  58  92 121 165 196 252 307 367
#
# _framework density 25.316089999999999
#
# number of rings (size 3 to 8) (size 9 to 14) (size 15 to 20)
#    0.000    2.667    1.667    1.000    7.000    1.333 
#    0.000   10.000    3.667    0.000    0.000    0.000 
#    0.000    0.000    0.000    0.000    0.000    0.000 
#
# Total GULP energy -133808.563228 kJ/mol
# GULP energy per Si atom -5575.356801 kJ/mol
# Density = 2.525847 g / cm^3
# Si number density = 25.316090 Si / 1000 Ang^3
#
#
#
# Elastic Constant Matrix: (Units=GPa)
#
#
# Indices 1 2 3 4 5 6 
#
# 1 60.3966 8.9049 3.9181 -0.0001 5.9371 -0.0001
# 2 8.9049 87.8638 13.0223 0.0000 -15.1690 0.0000
# 3 3.9181 13.0223 174.3956 -0.0001 12.0104 0.0000
# 4 -0.0001 0.0000 -0.0001 36.1830 -0.0001 -0.6897
# 5 5.9371 -15.1690 12.0104 -0.0001 19.5223 -0.0001
# 6 -0.0001 0.0000 0.0000 -0.6897 -0.0001 17.4350
#
#
#
# Elastic Compliance Matrix: (Units=1/GPa)
#
#
# Indices 1 2 3 4 5 6 
#
# 1 0.017824 -0.003288 0.000412 0.000000 -0.008229 0.000000
# 2 -0.003288 0.014289 -0.001907 0.000000 0.013276 0.000000
# 3 0.000412 -0.001907 0.006242 0.000000 -0.005448 0.000000
# 4 0.000000 0.000000 0.000000 0.027658 0.000000 0.001094
# 5 -0.008229 0.013276 -0.005448 0.000000 0.067393 0.000000
# 6 0.000000 0.000000 0.000000 0.001094 0.000000 0.057399
#
#
# Mechanical properties :
#
#
# Convention : Reuss Voigt Hill
#
# Bulk Modulus (GPa) = 34.73630 41.59406 38.16518
# Shear Modulus (GPa) = 23.81288 34.41544 29.11416
#
# Velocity S-wave (km/s) = 3.07028 3.69104 3.39488
# Velocity P-wave (km/s) = 5.13027 5.88478 5.52043
#
# Compressibility (1/GPa) = 0.02878833
#
# Stress axis : x y z
#
# Youngs Moduli (GPa) = 56.10335 69.98268 160.19346
#
# Poissons Ratio (x) = 0.23011 -0.06597
# Poissons Ratio (y) = 0.18448 0.30556
# Poissons Ratio (z) = -0.02310 0.13349
#
# Static dielectric constant tensor:
#      x y z
#    x 2.113750 0.000000 0.000180 
#    y 0.000000 1.982290 0.000000 
#    z 0.000180 0.000000 2.077970 
# 
# From -- ./inp_files/293405.got.cif
#   From: 2010.05.17/outbox.cif.g08.bks.cpg/sg15_147_cif.got.tgz:293405.got - 2010.06.03 18:47:42.
