data_PCOD9273349
_publ_section_title
;
Structure prediction by ZEFSAII (Michael W. Deem and Ramdas Pophale) SiO2 
 PCOD9273349
Probable space group: C 2/C
;
_chemical_formula_sum "Si O2"
_cell_formula_units_Z 44
_cell_length_a 25.026054
_cell_length_b 17.319332
_cell_length_c 14.305558
_cell_angle_alpha 90.000000
_cell_angle_beta 161.074445
_cell_angle_gamma 90.000000
_cell_volume 2011.073623
_symmetry_space_group_name_H-M "C 2/C"
_symmetry_group_IT_number 15
_symmetry_cell_setting 'monoclinic'
loop_
_space_group_symop_operation_xyz
x,y,z
-x,y,1/2-z
-x,-y,-z
x,-y,1/2+z
1/2+x,1/2+y,z
1/2-x,1/2+y,1/2-z
1/2-x,1/2-y,-z
1/2+x,1/2-y,1/2+z
loop_
_atom_site_type_symbol
_atom_site_label
_atom_site_fract_x
_atom_site_fract_y
_atom_site_fract_z
Si Si1 0.348829 0.441448 0.659460
Si Si2 0.676870 0.703384 0.288783
Si Si3 0.329543 0.880771 0.871759
Si Si4 0.500000 0.545308 0.750000
Si Si5 0.039561 0.352847 0.055393
Si Si6 0.569493 0.969169 0.775145
O O1 0.427213 0.368632 0.842841
O O2 0.452474 0.490942 0.759059
O O3 0.200562 0.400903 0.354959
O O4 0.252234 0.495190 0.574205
O O5 0.750000 0.750000 0.500000
O O6 0.803745 0.662242 0.427640
O O7 0.587172 0.772436 0.086522
O O8 0.153865 0.904024 0.538359
O O9 0.429686 0.830731 0.962911
O O10 0.438901 0.959441 0.055046
O O11 0.942241 0.413122 0.831686
O O12 0.500000 0.925159 0.750000
#
# Coordination Sequence:
#
# PCOD9273349 Si02
#       6
#     8   8   8   4   8   8
#     4  10  20  37  64  95 124 169 218 279 326 394
#     4  10  23  39  63  96 129 166 224 280 338 381
#     4  11  22  41  65  92 132 176 217 284 328 406
#     4  12  22  38  64  92 136 168 224 276 332 394
#     4  10  21  41  63  95 128 175 222 264 347 398
#     4  11  19  40  71  93 124 174 234 268 331 397
#
# _framework density 21.878862000000002
#
# number of rings (size 3 to 8) (size 9 to 14) (size 15 to 20)
#    0.000    1.455    5.455    1.091    0.000    3.636 
#    1.636    0.909    0.000    0.000    0.000    0.000 
#    0.000    0.000    0.000    0.000    0.000    0.000 
#
# Total GULP energy -122712.199387 kJ/mol
# GULP energy per Si atom -5577.827245 kJ/mol
# Density = 2.182906 g / cm^3
# Si number density = 21.878862 Si / 1000 Ang^3
#
#
#
# Elastic Constant Matrix: (Units=GPa)
#
#
# Indices 1 2 3 4 5 6 
#
# 1 111.4844 40.3611 8.3326 0.0000 24.2880 0.0000
# 2 40.3611 100.4661 23.8275 0.0000 7.7617 0.0000
# 3 8.3326 23.8275 59.9581 0.0000 11.7709 0.0000
# 4 0.0000 0.0000 0.0000 17.7589 0.0000 3.6866
# 5 24.2880 7.7617 11.7709 0.0000 30.3626 0.0000
# 6 0.0000 0.0000 0.0000 3.6866 0.0000 33.2193
#
#
#
# Elastic Compliance Matrix: (Units=1/GPa)
#
#
# Indices 1 2 3 4 5 6 
#
# 1 0.012681 -0.004834 0.002065 0.000000 -0.009708 0.000000
# 2 -0.004834 0.012873 -0.004933 0.000000 0.002488 0.000000
# 3 0.002065 -0.004933 0.019946 0.000000 -0.008123 0.000000
# 4 0.000000 0.000000 0.000000 0.057638 0.000000 -0.006396
# 5 -0.009708 0.002488 -0.008123 0.000000 0.043214 0.000000
# 6 0.000000 0.000000 0.000000 -0.006396 0.000000 0.030813
#
#
# Mechanical properties :
#
#
# Convention : Reuss Voigt Hill
#
# Bulk Modulus (GPa) = 33.22631 46.32789 39.77710
# Shear Modulus (GPa) = 24.67906 29.56067 27.11987
#
# Velocity S-wave (km/s) = 3.36219 3.67973 3.52454
# Velocity P-wave (km/s) = 5.50381 6.26694 5.89773
#
# Compressibility (1/GPa) = 0.03009663
#
# Stress axis : x y z
#
# Youngs Moduli (GPa) = 78.86025 77.68076 50.13439
#
# Poissons Ratio (x) = 0.37551 -0.10351
# Poissons Ratio (y) = 0.38121 0.24729
# Poissons Ratio (z) = -0.16282 0.38316
#
# Static dielectric constant tensor:
#      x y z
#    x 1.914650 0.000000 -0.061360 
#    y 0.000000 1.827130 0.000000 
#    z -0.061360 0.000000 1.823530 
# 
# From -- ./inp_files/145855.got.cif
#   From: 2010.05.17/outbox.cif.g08.bks.cpg/sg15_73_cif.got.tgz:145855.got - 2010.06.03 18:47:42.
