data_PCOD9273220
_publ_section_title
;
Structure prediction by ZEFSAII (Michael W. Deem and Ramdas Pophale) SiO2 
 PCOD9273220
Probable space group: C 2/C
;
_chemical_formula_sum "Si O2"
_cell_formula_units_Z 40
_cell_length_a 19.530691
_cell_length_b 7.347305
_cell_length_c 14.303155
_cell_angle_alpha 90.000000
_cell_angle_beta 49.716238
_cell_angle_gamma 90.000000
_cell_volume 1565.732571
_symmetry_space_group_name_H-M "C 2/C"
_symmetry_group_IT_number 15
_symmetry_cell_setting 'monoclinic'
loop_
_space_group_symop_operation_xyz
x,y,z
-x,y,1/2-z
-x,-y,-z
x,-y,1/2+z
1/2+x,1/2+y,z
1/2-x,1/2+y,1/2-z
1/2-x,1/2-y,-z
1/2+x,1/2-y,1/2+z
loop_
_atom_site_type_symbol
_atom_site_label
_atom_site_fract_x
_atom_site_fract_y
_atom_site_fract_z
Si Si1 0.796155 0.719765 0.817608
Si Si2 0.685168 0.219070 0.912806
Si Si3 0.923213 0.051518 0.700982
Si Si4 0.639018 0.112623 0.143393
Si Si5 0.099335 0.897891 0.487985
O O1 0.794923 0.657681 0.709532
O O2 0.834713 0.923723 0.792164
O O3 0.865157 0.585071 0.807866
O O4 0.692208 0.692497 0.941557
O O5 0.769244 0.311736 0.890112
O O6 0.619097 0.387744 0.959576
O O7 0.643221 0.091143 0.028282
O O8 0.007173 0.911073 0.626964
O O9 0.921956 0.217416 0.773942
O O10 0.918631 0.153429 0.603894
#
# Coordination Sequence:
#
# PCOD9273220 Si02
#       5
#     8   8   8   8   8
#     4  10  20  40  66  93 127 168 216 264 318 384
#     4   9  19  37  62  90 124 170 209 264 323 368
#     4  10  20  37  63  92 124 167 216 261 317 385
#     4  10  20  37  63  92 124 167 216 261 317 385
#     4   9  19  37  62  90 124 170 209 264 323 368
#
# _framework density 25.547145
#
# number of rings (size 3 to 8) (size 9 to 14) (size 15 to 20)
#    0.000    2.400    2.000    0.000    0.000    0.800 
#    0.000   26.000    0.000    2.400    0.000    0.000 
#    0.000    0.000    0.000    0.000    0.000    0.000 
#
# Total GULP energy -111648.403506 kJ/mol
# GULP energy per Si atom -5582.420175 kJ/mol
# Density = 2.548900 g / cm^3
# Si number density = 25.547145 Si / 1000 Ang^3
#
#
#
# Elastic Constant Matrix: (Units=GPa)
#
#
# Indices 1 2 3 4 5 6 
#
# 1 75.8482 17.0809 29.7870 -0.0001 -22.7505 0.0001
# 2 17.0809 108.7763 38.1757 -0.0002 0.2252 0.0007
# 3 29.7870 38.1757 96.8979 0.0006 -4.3504 -0.0004
# 4 -0.0001 -0.0002 0.0006 35.1141 -0.0001 1.9850
# 5 -22.7505 0.2252 -4.3504 -0.0001 56.2390 0.0000
# 6 0.0001 0.0007 -0.0004 1.9850 0.0000 5.2793
#
#
#
# Elastic Compliance Matrix: (Units=1/GPa)
#
#
# Indices 1 2 3 4 5 6 
#
# 1 0.017207 -0.001118 -0.004552 0.000000 0.006613 -0.000001
# 2 -0.001118 0.010749 -0.003927 0.000000 -0.000799 -0.000002
# 3 -0.004552 -0.003927 0.013231 0.000000 -0.000802 0.000002
# 4 0.000000 0.000000 0.000000 0.029097 0.000000 -0.010940
# 5 0.006613 -0.000799 -0.000802 0.000000 0.020398 0.000000
# 6 -0.000001 -0.000002 0.000002 -0.010940 0.000000 0.193531
#
#
# Mechanical properties :
#
#
# Convention : Reuss Voigt Hill
#
# Bulk Modulus (GPa) = 45.47071 50.17883 47.82477
# Shear Modulus (GPa) = 16.09076 32.42508 24.25792
#
# Velocity S-wave (km/s) = 2.51240 3.56648 3.08480
# Velocity P-wave (km/s) = 5.12382 6.05343 5.60792
#
# Compressibility (1/GPa) = 0.02199218
#
# Stress axis : x y z
#
# Youngs Moduli (GPa) = 58.11443 93.03573 75.58233
#
# Poissons Ratio (x) = 0.10402 0.34407
# Poissons Ratio (y) = 0.06498 0.29680
# Poissons Ratio (z) = 0.26455 0.36534
#
# Static dielectric constant tensor:
#      x y z
#    x 2.063480 0.000000 -0.035530 
#    y 0.000000 1.994860 0.000000 
#    z -0.035530 0.000000 2.188140 
# 
# From -- ./inp_files/166021.got.cif
#   From: 2010.05.17/outbox.cif.g08.bks.cpg/sg15_84_cif.got.tgz:166021.got - 2010.06.03 18:47:42.
