data_PCOD9273563
_publ_section_title
;
Structure prediction by ZEFSAII (Michael W. Deem and Ramdas Pophale) SiO2 
 PCOD9273563
Probable space group: C 2/C
;
_chemical_formula_sum "Si O2"
_cell_formula_units_Z 48
_cell_length_a 11.888060
_cell_length_b 20.696736
_cell_length_c 17.142309
_cell_angle_alpha 90.000000
_cell_angle_beta 149.987690
_cell_angle_gamma 90.000000
_cell_volume 2109.666207
_symmetry_space_group_name_H-M "C 2/C"
_symmetry_group_IT_number 15
_symmetry_cell_setting 'monoclinic'
loop_
_space_group_symop_operation_xyz
x,y,z
-x,y,1/2-z
-x,-y,-z
x,-y,1/2+z
1/2+x,1/2+y,z
1/2-x,1/2+y,1/2-z
1/2-x,1/2-y,-z
1/2+x,1/2-y,1/2+z
loop_
_atom_site_type_symbol
_atom_site_label
_atom_site_fract_x
_atom_site_fract_y
_atom_site_fract_z
Si Si1 0.244216 0.777965 0.582226
Si Si2 0.261661 0.936741 0.890935
Si Si3 0.594540 0.202998 0.019345
Si Si4 0.555865 0.596070 0.032743
Si Si5 0.667575 0.009364 0.723291
Si Si6 0.290659 0.830686 0.089305
O O1 0.500000 0.792879 0.750000
O O2 0.250000 0.750000 0.500000
O O3 0.115090 0.844905 0.512764
O O4 0.135472 0.729245 0.581015
O O5 0.353119 0.867383 0.915088
O O6 0.000000 0.927372 0.750000
O O7 0.274121 0.988999 0.829993
O O8 0.417161 0.961108 0.057771
O O9 0.754851 0.266245 0.121491
O O10 0.634397 0.188254 0.951882
O O11 0.772009 0.553719 0.187626
O O12 0.357640 0.557057 0.870867
O O13 0.436565 0.628717 0.037164
O O14 0.500000 0.868856 0.250000
#
# Coordination Sequence:
#
# PCOD9273563 Si02
#       6
#     8   8   8   8   8   8
#     4  11  28  46  72 104 141 193 238 296 361 443
#     4  11  23  42  69 102 141 182 242 290 361 417
#     4  10  23  40  68 102 138 171 234 290 362 414
#     4  10  23  46  70 102 145 182 247 282 369 423
#     4  10  24  43  68 101 141 192 229 298 344 440
#     4  10  20  37  71 101 133 175 222 306 353 410
#
# _framework density 22.752414999999999
#
# number of rings (size 3 to 8) (size 9 to 14) (size 15 to 20)
#    0.000    1.667    0.000    2.500    9.333    2.667 
#    3.000    3.333    0.000    0.000    0.000    0.000 
#    0.000    0.000    0.000    0.000    0.000    0.000 
#
# Total GULP energy -133778.257267 kJ/mol
# GULP energy per Si atom -5574.094053 kJ/mol
# Density = 2.270063 g / cm^3
# Si number density = 22.752415 Si / 1000 Ang^3
#
#
#
# Elastic Constant Matrix: (Units=GPa)
#
#
# Indices 1 2 3 4 5 6 
#
# 1 96.9189 46.7940 15.0069 -0.0044 5.6154 -0.0010
# 2 46.7940 110.5754 49.4242 -0.0042 3.6386 -0.0027
# 3 15.0069 49.4242 98.2804 -0.0168 -4.2637 -0.0084
# 4 -0.0044 -0.0042 -0.0168 18.8860 -0.0082 -7.9018
# 5 5.6154 3.6386 -4.2637 -0.0082 39.0990 -0.0028
# 6 -0.0010 -0.0027 -0.0084 -7.9018 -0.0028 23.5047
#
#
#
# Elastic Compliance Matrix: (Units=1/GPa)
#
#
# Indices 1 2 3 4 5 6 
#
# 1 0.013103 -0.005916 0.000921 0.000002 -0.001231 0.000001
# 2 -0.005916 0.014455 -0.006418 -0.000006 -0.001195 -0.000003
# 3 0.000921 -0.006418 0.013345 0.000015 0.001920 0.000009
# 4 0.000002 -0.000006 0.000015 0.061616 0.000016 0.020714
# 5 -0.001231 -0.001195 0.001920 0.000016 0.026073 0.000009
# 6 0.000001 -0.000003 0.000009 0.020714 0.000009 0.049508
#
#
# Mechanical properties :
#
#
# Convention : Reuss Voigt Hill
#
# Bulk Modulus (GPa) = 55.31797 58.69165 57.00481
# Shear Modulus (GPa) = 24.16009 29.26792 26.71401
#
# Velocity S-wave (km/s) = 3.26217 3.59048 3.43026
# Velocity P-wave (km/s) = 6.20925 6.56053 6.38731
#
# Compressibility (1/GPa) = 0.01807731
#
# Stress axis : x y z
#
# Youngs Moduli (GPa) = 76.31810 69.17919 74.93378
#
# Poissons Ratio (x) = 0.40928 -0.06902
# Poissons Ratio (y) = 0.45151 0.48091
# Poissons Ratio (z) = -0.07029 0.44398
#
# Static dielectric constant tensor:
#      x y z
#    x 1.827250 0.000000 -0.023450 
#    y 0.000000 1.928580 0.000000 
#    z -0.023450 0.000000 1.841180 
# 
# From -- ./inp_files/200975.got.cif
#   From: 2010.05.17/outbox.cif.g08.bks.cpg/sg15_101_cif.got.tgz:200975.got - 2010.06.03 18:47:42.
