data_PCOD9273602
_publ_section_title
;
Structure prediction by ZEFSAII (Michael W. Deem and Ramdas Pophale) SiO2 
 PCOD9273602
Probable space group: C 2/C
;
_chemical_formula_sum "Si O2"
_cell_formula_units_Z 56
_cell_length_a 17.925363
_cell_length_b 8.482406
_cell_length_c 23.583385
_cell_angle_alpha 90.000000
_cell_angle_beta 52.472288
_cell_angle_gamma 90.000000
_cell_volume 2843.796727
_symmetry_space_group_name_H-M "C 2/C"
_symmetry_group_IT_number 15
_symmetry_cell_setting 'monoclinic'
loop_
_space_group_symop_operation_xyz
x,y,z
-x,y,1/2-z
-x,-y,-z
x,-y,1/2+z
1/2+x,1/2+y,z
1/2-x,1/2+y,1/2-z
1/2-x,1/2-y,-z
1/2+x,1/2-y,1/2+z
loop_
_atom_site_type_symbol
_atom_site_label
_atom_site_fract_x
_atom_site_fract_y
_atom_site_fract_z
Si Si1 0.500026 0.284083 0.030947
Si Si2 0.346502 0.789338 0.882342
Si Si3 0.324619 0.455634 0.489645
Si Si4 0.466737 0.291113 0.913408
Si Si5 0.869249 0.007042 0.664246
Si Si6 0.516694 0.052045 0.361781
Si Si7 0.807810 0.705436 0.269823
O O1 0.595199 0.366961 0.009760
O O2 0.412891 0.394031 0.091557
O O3 0.490597 0.123993 0.071430
O O4 0.497480 0.268710 0.964977
O O5 0.319191 0.637791 0.932647
O O6 0.449802 0.840390 0.853815
O O7 0.336580 0.761950 0.820853
O O8 0.274150 0.927888 0.934144
O O9 0.364118 0.630190 0.461733
O O10 0.538510 0.419580 0.853837
O O11 0.480068 0.124870 0.877736
O O12 0.822494 0.135645 0.726965
O O13 0.795022 0.871737 0.683896
O O14 0.621237 0.077706 0.290538
#
# Coordination Sequence:
#
# PCOD9273602 Si02
#       7
#     8   8   8   8   8   8   8
#     4   9  18  35  57  80 104 140 178 223 270 305
#     4  10  20  38  55  74 108 146 175 215 265 322
#     4   9  19  34  58  81  99 137 187 218 266 318
#     4  11  19  35  55  81 111 136 177 232 262 301
#     4  10  21  35  58  81 103 137 181 219 267 321
#     4  10  22  33  52  82 111 144 181 210 260 325
#     4  11  21  38  55  77 109 142 175 219 267 320
#
# _framework density 19.691984000000001
#
# number of rings (size 3 to 8) (size 9 to 14) (size 15 to 20)
#    0.000    2.000    0.000    6.000    0.000    0.571 
#    0.000    8.571    0.000    0.000    0.000    0.000 
#    0.000    0.000    0.000    0.000    0.000    0.000 
#
# Total GULP energy -156325.418139 kJ/mol
# GULP energy per Si atom -5583.050648 kJ/mol
# Density = 1.964716 g / cm^3
# Si number density = 19.691984 Si / 1000 Ang^3
#
#
#
# Elastic Constant Matrix: (Units=GPa)
#
#
# Indices 1 2 3 4 5 6 
#
# 1 43.4848 0.8916 20.3991 0.0000 1.3814 0.0004
# 2 0.8916 63.1736 10.0959 0.0000 8.5755 0.0008
# 3 20.3991 10.0959 53.6916 0.0000 -2.0768 0.0000
# 4 0.0000 0.0000 0.0000 20.7280 0.0000 -9.0017
# 5 1.3814 8.5755 -2.0768 0.0000 35.3475 0.0000
# 6 0.0004 0.0008 0.0000 -9.0017 0.0000 22.5412
#
#
#
# Elastic Compliance Matrix: (Units=1/GPa)
#
#
# Indices 1 2 3 4 5 6 
#
# 1 0.028254 0.001674 -0.011133 0.000000 -0.002164 -0.000001
# 2 0.001674 0.017050 -0.004014 0.000000 -0.004438 -0.000001
# 3 -0.011133 -0.004014 0.023718 0.000000 0.002802 0.000000
# 4 0.000000 0.000000 0.000000 0.058366 0.000000 0.023308
# 5 -0.002164 -0.004438 0.002802 0.000000 0.029616 0.000000
# 6 -0.000001 -0.000001 0.000000 0.023308 0.000000 0.053671
#
#
# Mechanical properties :
#
#
# Convention : Reuss Voigt Hill
#
# Bulk Modulus (GPa) = 23.76645 24.79147 24.27896
# Shear Modulus (GPa) = 19.86930 24.32090 22.09510
#
# Velocity S-wave (km/s) = 3.17993 3.51816 3.35331
# Velocity P-wave (km/s) = 5.05746 5.39632 5.22963
#
# Compressibility (1/GPa) = 0.04207612
#
# Stress axis : x y z
#
# Youngs Moduli (GPa) = 35.39381 58.65249 42.16251
#
# Poissons Ratio (x) = -0.09820 0.46939
# Poissons Ratio (y) = -0.05926 0.16923
# Poissons Ratio (z) = 0.39404 0.23541
#
# Static dielectric constant tensor:
#      x y z
#    x 1.676720 0.000000 -0.011910 
#    y 0.000000 1.708740 0.000000 
#    z -0.011910 0.000000 1.681260 
# 
# From -- ./inp_files/276344.got.cif
#   From: 2010.05.17/outbox.cif.g08.bks.cpg/sg15_139_cif.got.tgz:276344.got - 2010.06.03 18:47:42.
