data_PCOD9273743
_publ_section_title
;
Structure prediction by ZEFSAII (Michael W. Deem and Ramdas Pophale) SiO2 
 PCOD9273743
Probable space group: C 2/C
;
_chemical_formula_sum "Si O2"
_cell_formula_units_Z 28
_cell_length_a 21.626279
_cell_length_b 5.660188
_cell_length_c 8.768972
_cell_angle_alpha 90.000000
_cell_angle_beta 94.668732
_cell_angle_gamma 90.000000
_cell_volume 1069.837795
_symmetry_space_group_name_H-M "C 2/C"
_symmetry_group_IT_number 15
_symmetry_cell_setting 'monoclinic'
loop_
_space_group_symop_operation_xyz
x,y,z
-x,y,1/2-z
-x,-y,-z
x,-y,1/2+z
1/2+x,1/2+y,z
1/2-x,1/2+y,1/2-z
1/2-x,1/2-y,-z
1/2+x,1/2-y,1/2+z
loop_
_atom_site_type_symbol
_atom_site_label
_atom_site_fract_x
_atom_site_fract_y
_atom_site_fract_z
Si Si1 0.583984 0.285275 0.015433
Si Si2 0.304324 0.495393 0.612150
Si Si3 0.678605 0.996564 0.894108
Si Si4 0.000000 0.031746 0.750000
O O1 0.642158 0.463891 0.005488
O O2 0.548752 0.310669 0.166146
O O3 0.535930 0.366865 0.876323
O O4 0.615406 0.037509 0.975627
O O5 0.317601 0.748037 0.689512
O O6 0.237432 0.501269 0.519602
O O7 0.313014 0.242477 0.696936
#
# Coordination Sequence:
#
# PCOD9273743 Si02
#       4
#     8   8   8   4
#     4   9  19  36  60  86 126 165 214 260 306 383
#     4   8  15  32  63  85 114 153 202 261 313 370
#     4   8  15  32  63  85 116 151 206 257 321 362
#     4  10  20  38  58  90 126 178 214 252 314 374
#
# _framework density 26.172193
#
# number of rings (size 3 to 8) (size 9 to 14) (size 15 to 20)
#    1.714    1.714    0.000    0.000    0.000    0.000 
#    0.000   11.429   25.143    0.000    0.000    0.000 
#    0.000   13.714    0.000    0.000    0.000    1.714 
#
# Total GULP energy -78173.598134 kJ/mol
# GULP energy per Si atom -5583.828438 kJ/mol
# Density = 2.611262 g / cm^3
# Si number density = 26.172193 Si / 1000 Ang^3
#
#
#
# Elastic Constant Matrix: (Units=GPa)
#
#
# Indices 1 2 3 4 5 6 
#
# 1 175.1866 13.0642 60.7261 0.0000 -22.5357 0.0000
# 2 13.0642 228.9615 37.8283 0.0000 -3.2287 0.0000
# 3 60.7261 37.8283 88.7239 0.0000 -8.7154 0.0000
# 4 0.0000 0.0000 0.0000 12.9443 0.0000 -1.8802
# 5 -22.5357 -3.2287 -8.7154 0.0000 47.6577 0.0000
# 6 0.0000 0.0000 0.0000 -1.8802 0.0000 36.0393
#
#
#
# Elastic Compliance Matrix: (Units=1/GPa)
#
#
# Indices 1 2 3 4 5 6 
#
# 1 0.007874 0.000468 -0.005315 0.000000 0.002783 0.000000
# 2 0.000468 0.004726 -0.002324 0.000000 0.000117 0.000000
# 3 -0.005315 -0.002324 0.015924 0.000000 0.000241 0.000000
# 4 0.000000 0.000000 0.000000 0.077844 0.000000 0.004061
# 5 0.002783 0.000117 0.000241 0.000000 0.022351 0.000000
# 6 0.000000 0.000000 0.000000 0.004061 0.000000 0.027959
#
#
# Mechanical properties :
#
#
# Convention : Reuss Voigt Hill
#
# Bulk Modulus (GPa) = 70.51633 79.56770 75.04202
# Shear Modulus (GPa) = 28.44982 44.74514 36.59748
#
# Velocity S-wave (km/s) = 3.30058 4.13927 3.74349
# Velocity P-wave (km/s) = 6.44413 7.30153 6.88619
#
# Compressibility (1/GPa) = 0.01418111
#
# Stress axis : x y z
#
# Youngs Moduli (GPa) = 127.00392 211.57454 62.80001
#
# Poissons Ratio (x) = -0.09905 0.33380
# Poissons Ratio (y) = -0.05946 0.14596
# Poissons Ratio (z) = 0.67507 0.49173
#
# Static dielectric constant tensor:
#      x y z
#    x 2.035570 0.000000 -0.009900 
#    y 0.000000 2.108260 0.000000 
#    z -0.009900 0.000000 1.972500 
# 
# From -- ./inp_files/64311.got.cif
#   From: 2010.05.17/outbox.cif.g08.bks.cpg/sg15_33_cif.got.tgz:64311.got - 2010.06.03 18:47:42.
