data_PCOD9273334
_publ_section_title
;
Structure prediction by ZEFSAII (Michael W. Deem and Ramdas Pophale) SiO2 
 PCOD9273334
Probable space group: C 2/C
;
_chemical_formula_sum "Si O2"
_cell_formula_units_Z 60
_cell_length_a 10.758403
_cell_length_b 12.969234
_cell_length_c 21.509966
_cell_angle_alpha 90.000000
_cell_angle_beta 64.934323
_cell_angle_gamma 90.000000
_cell_volume 2718.598569
_symmetry_space_group_name_H-M "C 2/C"
_symmetry_group_IT_number 15
_symmetry_cell_setting 'monoclinic'
loop_
_space_group_symop_operation_xyz
x,y,z
-x,y,1/2-z
-x,-y,-z
x,-y,1/2+z
1/2+x,1/2+y,z
1/2-x,1/2+y,1/2-z
1/2-x,1/2-y,-z
1/2+x,1/2-y,1/2+z
loop_
_atom_site_type_symbol
_atom_site_label
_atom_site_fract_x
_atom_site_fract_y
_atom_site_fract_z
Si Si1 0.898888 0.526057 0.461950
Si Si2 0.448381 0.797180 0.606419
Si Si3 0.500000 0.320651 0.750000
Si Si4 0.132630 0.879805 0.080717
Si Si5 0.617981 0.814024 0.015876
Si Si6 0.882418 0.032375 0.167212
Si Si7 0.324137 0.251320 0.629293
Si Si8 0.772081 0.679216 0.778564
O O1 0.762358 0.577022 0.517008
O O2 0.864702 0.414672 0.445415
O O3 0.000000 0.500000 0.500000
O O4 0.968122 0.600071 0.397631
O O5 0.547445 0.705954 0.562155
O O6 0.368652 0.829799 0.561468
O O7 0.363300 0.747830 0.679487
O O8 0.572842 0.398732 0.782687
O O9 0.383952 0.239166 0.797464
O O10 0.200664 0.809851 0.121126
O O11 0.023720 0.971085 0.118814
O O12 0.468701 0.772446 0.065462
O O13 0.750000 0.750000 0.000000
O O14 0.773239 0.939204 0.200994
O O15 0.822473 0.123485 0.135676
O O16 0.322562 0.200026 0.698141
#
# Coordination Sequence:
#
# PCOD9273334 Si02
#       8
#     8   8   4   8   8   8   8   8
#     4  10  20  37  64  94 120 171 216 262 323 388
#     4  10  23  41  64  91 130 170 212 270 329 389
#     4  10  22  40  72  84 134 178 212 276 324 388
#     4  11  21  42  67  92 137 164 220 270 328 394
#     4  11  24  41  64  98 129 165 225 269 321 398
#     4  10  23  42  64  98 129 176 220 268 337 387
#     4  11  23  41  68  96 129 171 219 268 325 395
#     4  10  24  42  64  99 130 170 223 266 327 394
#
# _framework density 22.070194000000001
#
# number of rings (size 3 to 8) (size 9 to 14) (size 15 to 20)
#    0.000    1.600    2.667    2.000    7.467    3.733 
#    4.800    8.667    0.000    0.000    0.000    0.000 
#    0.000    0.000    0.000    0.000    0.000    0.000 
#
# Total GULP energy -167009.342560 kJ/mol
# GULP energy per Si atom -5566.978085 kJ/mol
# Density = 2.201996 g / cm^3
# Si number density = 22.070194 Si / 1000 Ang^3
#
#
#
# Elastic Constant Matrix: (Units=GPa)
#
#
# Indices 1 2 3 4 5 6 
#
# 1 46.0602 23.4194 6.1346 0.0000 -17.2944 0.0000
# 2 23.4194 146.4211 10.2092 0.0000 -11.2771 0.0000
# 3 6.1346 10.2092 61.5252 0.0000 -10.1333 0.0000
# 4 0.0000 0.0000 0.0000 25.5613 0.0000 -0.8907
# 5 -17.2944 -11.2771 -10.1333 0.0000 27.1983 0.0000
# 6 0.0000 0.0000 0.0000 -0.8907 0.0000 33.2416
#
#
#
# Elastic Compliance Matrix: (Units=1/GPa)
#
#
# Indices 1 2 3 4 5 6 
#
# 1 0.030136 -0.003477 0.000523 0.000000 0.017915 0.000000
# 2 -0.003477 0.007487 -0.000797 0.000000 0.000597 0.000000
# 3 0.000523 -0.000797 0.017402 0.000000 0.006485 0.000000
# 4 0.000000 0.000000 0.000000 0.039158 0.000000 0.001049
# 5 0.017915 0.000597 0.006485 0.000000 0.050822 0.000000
# 6 0.000000 0.000000 0.000000 0.001049 0.000000 0.030111
#
#
# Mechanical properties :
#
#
# Convention : Reuss Voigt Hill
#
# Bulk Modulus (GPa) = 21.04292 37.05922 29.05107
# Shear Modulus (GPa) = 25.19406 31.48312 28.33859
#
# Velocity S-wave (km/s) = 3.38234 3.78100 3.58721
# Velocity P-wave (km/s) = 4.98085 5.99076 5.50900
#
# Compressibility (1/GPa) = 0.04752192
#
# Stress axis : x y z
#
# Youngs Moduli (GPa) = 33.18339 133.56043 57.46520
#
# Poissons Ratio (x) = 0.46435 -0.03004
# Poissons Ratio (y) = 0.11537 0.04583
# Poissons Ratio (z) = -0.01735 0.10651
#
# Static dielectric constant tensor:
#      x y z
#    x 1.926270 0.000000 0.031990 
#    y 0.000000 1.881480 0.000000 
#    z 0.031990 0.000000 1.792570 
# 
# From -- ./inp_files/292257.got.cif
#   From: 2010.05.17/outbox.cif.g08.bks.cpg/sg15_147_cif.got.tgz:292257.got - 2010.06.03 18:47:42.
