data_PCOD9273015
_publ_section_title
;
Structure prediction by ZEFSAII (Michael W. Deem and Ramdas Pophale) SiO2 
 PCOD9273015
Probable space group: C 2/C
;
_chemical_formula_sum "Si O2"
_cell_formula_units_Z 60
_cell_length_a 12.257168
_cell_length_b 17.633814
_cell_length_c 14.660497
_cell_angle_alpha 90.000000
_cell_angle_beta 90.349050
_cell_angle_gamma 90.000000
_cell_volume 3168.670120
_symmetry_space_group_name_H-M "C 2/C"
_symmetry_group_IT_number 15
_symmetry_cell_setting 'monoclinic'
loop_
_space_group_symop_operation_xyz
x,y,z
-x,y,1/2-z
-x,-y,-z
x,-y,1/2+z
1/2+x,1/2+y,z
1/2-x,1/2+y,1/2-z
1/2-x,1/2-y,-z
1/2+x,1/2-y,1/2+z
loop_
_atom_site_type_symbol
_atom_site_label
_atom_site_fract_x
_atom_site_fract_y
_atom_site_fract_z
Si Si1 0.270489 0.430829 0.961620
Si Si2 0.039306 0.827679 0.455991
Si Si3 0.097272 0.430121 0.187315
Si Si4 0.208471 0.940398 0.173074
Si Si5 0.788902 0.836573 0.498373
Si Si6 0.626786 0.939200 0.564051
Si Si7 0.420246 0.156623 0.993056
Si Si8 0.000000 0.859787 0.250000
O O1 0.311123 0.479521 0.876543
O O2 0.369874 0.390485 0.015907
O O3 0.195996 0.493883 0.014149
O O4 0.178890 0.367936 0.941457
O O5 0.064054 0.745495 0.497337
O O6 0.030687 0.818513 0.345541
O O7 0.919209 0.847666 0.495532
O O8 0.200835 0.444100 0.250019
O O9 0.070500 0.512009 0.142668
O O10 0.115034 0.368448 0.108495
O O11 0.000000 0.403556 0.250000
O O12 0.245492 0.879247 0.095856
O O13 0.100480 0.910634 0.219616
O O14 0.750000 0.750000 0.500000
O O15 0.722916 0.878275 0.578953
O O16 0.529686 0.892533 0.514567
#
# Coordination Sequence:
#
# PCOD9273015 Si02
#       8
#     8   8   8   8   8   8   8   4
#     4  10  21  38  61  89 118 160 208 252 308 377
#     4  11  23  39  65  90 125 168 205 259 319 377
#     4  11  21  36  60  91 121 161 204 263 304 359
#     4  10  22  38  60  87 120 158 207 256 307 364
#     4  10  20  39  62  84 117 163 210 249 312 382
#     4  10  20  37  62  87 117 159 210 257 305 379
#     4  11  21  39  63  90 125 166 209 252 320 378
#     4  10  22  40  60  88 124 158 204 256 316 364
#
# _framework density 18.935389000000001
#
# number of rings (size 3 to 8) (size 9 to 14) (size 15 to 20)
#    0.000    1.600    1.333    6.000    0.000    5.867 
#    3.600    1.333    1.467    0.000    0.000    0.000 
#    0.000    0.000    0.000    0.000    0.000    0.000 
#
# Total GULP energy -167030.104795 kJ/mol
# GULP energy per Si atom -5567.670160 kJ/mol
# Density = 1.889229 g / cm^3
# Si number density = 18.935389 Si / 1000 Ang^3
#
#
#
# Elastic Constant Matrix: (Units=GPa)
#
#
# Indices 1 2 3 4 5 6 
#
# 1 77.5333 16.9040 15.2412 0.0000 5.4831 0.0000
# 2 16.9040 76.0417 39.0897 0.0000 15.0338 0.0000
# 3 15.2412 39.0897 72.0831 0.0000 8.4717 0.0000
# 4 0.0000 0.0000 0.0000 21.4371 0.0000 1.5147
# 5 5.4831 15.0338 8.4717 0.0000 30.1540 0.0000
# 6 0.0000 0.0000 0.0000 1.5147 0.0000 32.9664
#
#
#
# Elastic Compliance Matrix: (Units=1/GPa)
#
#
# Indices 1 2 3 4 5 6 
#
# 1 0.013737 -0.001967 -0.001716 0.000000 -0.001035 0.000000
# 2 -0.001967 0.019849 -0.009542 0.000000 -0.006858 0.000000
# 3 -0.001716 -0.009542 0.019457 0.000000 -0.000397 0.000000
# 4 0.000000 0.000000 0.000000 0.046800 0.000000 -0.002150
# 5 -0.001035 -0.006858 -0.000397 0.000000 0.036882 0.000000
# 6 0.000000 0.000000 0.000000 -0.002150 0.000000 0.030433
#
#
# Mechanical properties :
#
#
# Convention : Reuss Voigt Hill
#
# Bulk Modulus (GPa) = 37.60443 40.90311 39.25377
# Shear Modulus (GPa) = 24.69484 27.20639 25.95061
#
# Velocity S-wave (km/s) = 3.61524 3.79463 3.70602
# Velocity P-wave (km/s) = 6.10975 6.39118 6.25205
#
# Compressibility (1/GPa) = 0.02659261
#
# Stress axis : x y z
#
# Youngs Moduli (GPa) = 72.79569 50.38097 51.39568
#
# Poissons Ratio (x) = 0.09909 0.08821
# Poissons Ratio (y) = 0.14317 0.49041
# Poissons Ratio (z) = 0.12494 0.48073
#
# Static dielectric constant tensor:
#      x y z
#    x 1.689280 0.000000 -0.033820 
#    y 0.000000 1.675250 0.000000 
#    z -0.033820 0.000000 1.704810 
# 
# From -- ./inp_files/145706.got.cif
#   From: 2010.05.17/outbox.cif.g08.bks.cpg/sg15_73_cif.got.tgz:145706.got - 2010.06.03 18:47:42.
