data_PCOD9273919
_publ_section_title
;
Structure prediction by ZEFSAII (Michael W. Deem and Ramdas Pophale) SiO2 
 PCOD9273919
Probable space group: C 2/C
;
_chemical_formula_sum "Si O2"
_cell_formula_units_Z 40
_cell_length_a 21.034300
_cell_length_b 10.540256
_cell_length_c 10.777577
_cell_angle_alpha 90.000000
_cell_angle_beta 59.068083
_cell_angle_gamma 90.000000
_cell_volume 2049.630691
_symmetry_space_group_name_H-M "C 2/C"
_symmetry_group_IT_number 15
_symmetry_cell_setting 'monoclinic'
loop_
_space_group_symop_operation_xyz
x,y,z
-x,y,1/2-z
-x,-y,-z
x,-y,1/2+z
1/2+x,1/2+y,z
1/2-x,1/2+y,1/2-z
1/2-x,1/2-y,-z
1/2+x,1/2-y,1/2+z
loop_
_atom_site_type_symbol
_atom_site_label
_atom_site_fract_x
_atom_site_fract_y
_atom_site_fract_z
Si Si1 0.264061 0.626088 0.068253
Si Si2 0.667864 0.282952 0.327815
Si Si3 0.414903 0.270782 0.830948
Si Si4 0.912877 0.928863 0.313893
Si Si5 0.715867 0.135237 0.615411
O O1 0.212744 0.658972 0.237383
O O2 0.229891 0.500350 0.040577
O O3 0.250000 0.750000 0.000000
O O4 0.353050 0.604615 0.983026
O O5 0.617005 0.258217 0.497763
O O6 0.619428 0.351701 0.271069
O O7 0.735100 0.370971 0.309786
O O8 0.500000 0.237525 0.750000
O O9 0.407259 0.419002 0.800935
O O10 0.368156 0.178576 0.789201
O O11 0.000000 0.900605 0.250000
O O12 0.750000 0.250000 0.500000
#
# Coordination Sequence:
#
# PCOD9273919 Si02
#       5
#     8   8   8   8   8
#     4  10  21  38  59  91 122 163 209 252 300 377
#     4  10  22  35  61  89 129 164 205 245 322 357
#     4  10  22  39  62  93 125 159 209 261 305 370
#     4  10  21  38  61  94 124 155 208 265 306 362
#     4  10  20  38  60  87 124 161 208 248 299 379
#
# _framework density 19.515711
#
# number of rings (size 3 to 8) (size 9 to 14) (size 15 to 20)
#    0.000    2.000    4.000    0.000    2.800    6.400 
#    0.000    5.000    0.000    0.000    0.000    0.000 
#    0.000    0.000    0.000    0.000    0.000    0.000 
#
# Total GULP energy -111337.597596 kJ/mol
# GULP energy per Si atom -5566.879880 kJ/mol
# Density = 1.947129 g / cm^3
# Si number density = 19.515711 Si / 1000 Ang^3
#
#
#
# Elastic Constant Matrix: (Units=GPa)
#
#
# Indices 1 2 3 4 5 6 
#
# 1 154.2759 48.9416 63.0323 0.0000 -40.3462 0.0000
# 2 48.9416 111.9262 25.6503 0.0000 -18.1403 0.0000
# 3 63.0323 25.6503 100.1993 0.0000 -28.3759 0.0000
# 4 0.0000 0.0000 0.0000 29.7116 0.0000 -7.2048
# 5 -40.3462 -18.1403 -28.3759 0.0000 43.1087 0.0000
# 6 0.0000 0.0000 0.0000 -7.2048 0.0000 25.4869
#
#
#
# Elastic Compliance Matrix: (Units=1/GPa)
#
#
# Indices 1 2 3 4 5 6 
#
# 1 0.010678 -0.002704 -0.004323 0.000000 0.006010 0.000000
# 2 -0.002704 0.010490 -0.000554 0.000000 0.001519 0.000000
# 3 -0.004323 -0.000554 0.014294 0.000000 0.005130 0.000000
# 4 0.000000 0.000000 0.000000 0.036134 0.000000 0.010215
# 5 0.006010 0.001519 0.005130 0.000000 0.032838 0.000000
# 6 0.000000 0.000000 0.000000 0.010215 0.000000 0.042123
#
#
# Mechanical properties :
#
#
# Convention : Reuss Voigt Hill
#
# Bulk Modulus (GPa) = 49.26237 71.29442 60.27840
# Shear Modulus (GPa) = 29.67613 34.91326 32.29470
#
# Velocity S-wave (km/s) = 3.90375 4.23422 4.07234
# Velocity P-wave (km/s) = 6.75398 7.77920 7.28465
#
# Compressibility (1/GPa) = 0.02029947
#
# Stress axis : x y z
#
# Youngs Moduli (GPa) = 93.65361 95.32838 69.95920
#
# Poissons Ratio (x) = 0.25779 0.30241
# Poissons Ratio (y) = 0.25326 0.03877
# Poissons Ratio (z) = 0.40484 0.05283
#
# Static dielectric constant tensor:
#      x y z
#    x 1.744290 0.000000 0.028220 
#    y 0.000000 1.740650 0.000000 
#    z 0.028220 0.000000 1.789760 
# 
# From -- ./inp_files/104629.got.cif
#   From: 2010.05.17/outbox.cif.g08.bks.cpg/sg15_53_cif.got.tgz:104629.got - 2010.06.03 18:47:42.
