data_PCOD9273878
_publ_section_title
;
Structure prediction by ZEFSAII (Michael W. Deem and Ramdas Pophale) SiO2 
 PCOD9273878
Probable space group: C 2/C
;
_chemical_formula_sum "Si O2"
_cell_formula_units_Z 52
_cell_length_a 16.630288
_cell_length_b 7.843615
_cell_length_c 18.143770
_cell_angle_alpha 90.000000
_cell_angle_beta 92.228929
_cell_angle_gamma 90.000000
_cell_volume 2364.911330
_symmetry_space_group_name_H-M "C 2/C"
_symmetry_group_IT_number 15
_symmetry_cell_setting 'monoclinic'
loop_
_space_group_symop_operation_xyz
x,y,z
-x,y,1/2-z
-x,-y,-z
x,-y,1/2+z
1/2+x,1/2+y,z
1/2-x,1/2+y,1/2-z
1/2-x,1/2-y,-z
1/2+x,1/2-y,1/2+z
loop_
_atom_site_type_symbol
_atom_site_label
_atom_site_fract_x
_atom_site_fract_y
_atom_site_fract_z
Si Si1 0.644257 0.165069 0.470868
Si Si2 0.516571 0.686264 0.593353
Si Si3 0.272985 0.061596 0.638539
Si Si4 0.000000 0.316450 0.750000
Si Si5 0.189160 0.633443 0.082843
Si Si6 0.858889 0.427489 0.289609
Si Si7 0.381871 0.378184 0.897306
O O1 0.550367 0.209060 0.454148
O O2 0.662211 0.323717 0.527160
O O3 0.679312 0.100749 0.393952
O O4 0.674039 0.008536 0.521483
O O5 0.489303 0.704095 0.677036
O O6 0.602172 0.775997 0.583736
O O7 0.538742 0.487652 0.581849
O O8 0.257799 0.222758 0.583697
O O9 0.314280 0.128433 0.714053
O O10 0.183160 0.991273 0.648871
O O11 0.926388 0.441057 0.765526
O O12 0.201298 0.530571 0.159425
O O13 0.896097 0.283587 0.344929
#
# Coordination Sequence:
#
# PCOD9273878 Si02
#       7
#     8   8   8   4   8   8   8
#     4  11  20  37  60  88 122 163 201 254 309 367
#     4  10  20  38  60  84 121 161 202 252 317 364
#     4  11  20  37  60  88 122 164 206 255 306 366
#     4  10  20  38  62  88 112 158 204 260 300 382
#     4   9  21  35  58  86 120 160 210 250 304 373
#     4  10  20  38  60  84 121 161 207 254 316 362
#     4  10  23  37  59  88 126 156 209 254 310 377
#
# _framework density 21.988139
#
# number of rings (size 3 to 8) (size 9 to 14) (size 15 to 20)
#    0.000    1.846    1.538    2.769    0.000    0.615 
#    0.000    0.000   13.538    0.000    0.000    0.000 
#    0.000    0.000    0.000    0.000    0.000    0.000 
#
# Total GULP energy -144734.812580 kJ/mol
# GULP energy per Si atom -5566.723561 kJ/mol
# Density = 2.193809 g / cm^3
# Si number density = 21.988139 Si / 1000 Ang^3
#
#
#
# Elastic Constant Matrix: (Units=GPa)
#
#
# Indices 1 2 3 4 5 6 
#
# 1 59.5255 38.1695 26.3829 0.0000 10.4711 0.0000
# 2 38.1695 102.3318 30.9730 0.0000 2.3387 0.0000
# 3 26.3829 30.9730 90.2174 0.0000 13.9410 0.0000
# 4 0.0000 0.0000 0.0000 25.1979 0.0000 -0.2762
# 5 10.4711 2.3387 13.9410 0.0000 28.1010 0.0000
# 6 0.0000 0.0000 0.0000 -0.2762 0.0000 35.0641
#
#
#
# Elastic Compliance Matrix: (Units=1/GPa)
#
#
# Indices 1 2 3 4 5 6 
#
# 1 0.024642 -0.008005 -0.003403 0.000000 -0.006828 0.000000
# 2 -0.008005 0.013534 -0.002807 0.000000 0.003249 0.000000
# 3 -0.003403 -0.002807 0.013875 0.000000 -0.005382 0.000000
# 4 0.000000 0.000000 0.000000 0.039689 0.000000 0.000313
# 5 -0.006828 0.003249 -0.005382 0.000000 0.040530 0.000000
# 6 0.000000 0.000000 0.000000 0.000313 0.000000 0.028522
#
#
# Mechanical properties :
#
#
# Convention : Reuss Voigt Hill
#
# Bulk Modulus (GPa) = 42.33805 49.23619 45.78712
# Shear Modulus (GPa) = 25.36843 28.10922 26.73883
#
# Velocity S-wave (km/s) = 3.40035 3.57932 3.49098
# Velocity P-wave (km/s) = 5.89180 6.28672 6.09246
#
# Compressibility (1/GPa) = 0.02361941
#
# Stress axis : x y z
#
# Youngs Moduli (GPa) = 40.58092 73.89030 72.07282
#
# Poissons Ratio (x) = 0.59153 0.24525
# Poissons Ratio (y) = 0.32487 0.20233
# Poissons Ratio (z) = 0.13809 0.20743
#
# Static dielectric constant tensor:
#      x y z
#    x 1.805750 0.000000 -0.010330 
#    y 0.000000 1.866210 0.000000 
#    z -0.010330 0.000000 1.870630 
# 
# From -- ./inp_files/209192.got.cif
#   From: 2010.05.17/outbox.cif.g08.bks.cpg/sg15_105_cif.got.tgz:209192.got - 2010.06.03 18:47:42.
