data_PCOD9273812
_publ_section_title
;
Structure prediction by ZEFSAII (Michael W. Deem and Ramdas Pophale) SiO2 
 PCOD9273812
Probable space group: C 2/C
;
_chemical_formula_sum "Si O2"
_cell_formula_units_Z 40
_cell_length_a 22.676494
_cell_length_b 8.402489
_cell_length_c 22.793913
_cell_angle_alpha 90.000000
_cell_angle_beta 22.672431
_cell_angle_gamma 90.000000
_cell_volume 1674.111700
_symmetry_space_group_name_H-M "C 2/C"
_symmetry_group_IT_number 15
_symmetry_cell_setting 'monoclinic'
loop_
_space_group_symop_operation_xyz
x,y,z
-x,y,1/2-z
-x,-y,-z
x,-y,1/2+z
1/2+x,1/2+y,z
1/2-x,1/2+y,1/2-z
1/2-x,1/2-y,-z
1/2+x,1/2-y,1/2+z
loop_
_atom_site_type_symbol
_atom_site_label
_atom_site_fract_x
_atom_site_fract_y
_atom_site_fract_z
Si Si1 0.500000 0.214386 0.250000
Si Si2 0.681862 0.039883 0.516755
Si Si3 0.673780 0.326413 0.198176
Si Si4 0.073372 0.783434 0.418109
Si Si5 0.000000 0.216913 0.250000
Si Si6 0.264256 0.440082 0.686792
O O1 0.551562 0.315859 0.258482
O O2 0.362074 0.100002 0.397430
O O3 0.845923 0.120718 0.377494
O O4 0.550775 0.170280 0.648723
O O5 0.696004 0.948091 0.442046
O O6 0.607802 0.366207 0.322489
O O7 0.729742 0.144469 0.156793
O O8 0.123163 0.604770 0.358441
O O9 0.899659 0.827582 0.588577
O O10 0.178248 0.881443 0.366691
#
# Coordination Sequence:
#
# PCOD9273812 Si02
#       6
#     4   8   8   8   4   8
#     4  11  21  36  64  98 127 167 202 260 322 380
#     4  10  20  38  59  87 127 164 211 251 316 377
#     4  10  21  36  65  93 124 164 205 264 309 386
#     4   9  20  39  61  90 119 164 205 265 305 371
#     4   9  21  38  58  84 127 171 206 254 306 390
#     4   9  20  39  62  87 123 160 214 254 316 362
#
# _framework density 23.893267000000002
#
# number of rings (size 3 to 8) (size 9 to 14) (size 15 to 20)
#    1.200    1.200    0.000    2.400    0.000    2.400 
#    0.000   10.000    0.000    0.000    0.000    0.000 
#    0.000    0.000    0.000    0.000    0.000    0.000 
#
# Total GULP energy -111423.303596 kJ/mol
# GULP energy per Si atom -5571.165180 kJ/mol
# Density = 2.383889 g / cm^3
# Si number density = 23.893267 Si / 1000 Ang^3
#
#
#
# Elastic Constant Matrix: (Units=GPa)
#
#
# Indices 1 2 3 4 5 6 
#
# 1 66.1763 16.6172 12.3680 0.0003 -0.0952 -0.0001
# 2 16.6172 43.1326 35.4492 -0.0003 0.9063 -0.0001
# 3 12.3680 35.4492 125.9249 0.0011 11.7131 -0.0008
# 4 0.0003 -0.0003 0.0011 14.6170 -0.0005 23.5927
# 5 -0.0952 0.9063 11.7131 -0.0005 22.9816 0.0003
# 6 -0.0001 -0.0001 -0.0008 23.5927 0.0003 13.0351
#
#
#
# Elastic Compliance Matrix: (Units=1/GPa)
#
#
# Indices 1 2 3 4 5 6 
#
# 1 0.016736 -0.006614 0.000197 0.000000 0.000230 -0.000001
# 2 -0.006614 0.033016 -0.008945 -0.000001 0.003230 0.000002
# 3 0.000197 -0.008945 0.010925 0.000001 -0.005215 -0.000001
# 4 0.000000 -0.000001 0.000001 -0.035607 -0.000002 0.064447
# 5 0.000230 0.003230 -0.005215 -0.000002 0.046044 0.000003
# 6 -0.000001 0.000002 -0.000001 0.064447 0.000003 -0.039928
#
#
# Mechanical properties :
#
#
# Convention : Reuss Voigt Hill
#
# Bulk Modulus (GPa) = 33.38678 40.45587 36.92132
# Shear Modulus (GPa) = 69.54558 21.51336 45.52947
#
# Velocity S-wave (km/s) = 5.40092 3.00391 4.36998
# Velocity P-wave (km/s) = 7.27303 5.38516 6.39910
#
# Compressibility (1/GPa) = 0.02995198
#
# Stress axis : x y z
#
# Youngs Moduli (GPa) = 59.75309 30.28798 91.53191
#
# Poissons Ratio (x) = 0.20033 -0.01802
# Poissons Ratio (y) = 0.39521 0.81878
# Poissons Ratio (z) = -0.01176 0.27093
#
# Static dielectric constant tensor:
#      x y z
#    x 1.920440 0.000000 -0.014350 
#    y 0.000000 1.934970 0.000000 
#    z -0.014350 0.000000 1.972910 
# 
# From -- ./inp_files/64558.got.cif
#   From: 2010.05.17/outbox.cif.g08.bks.cpg/sg15_33_cif.got.tgz:64558.got - 2010.06.03 18:47:42.
