data_PCOD9273603
_publ_section_title
;
Structure prediction by ZEFSAII (Michael W. Deem and Ramdas Pophale) SiO2 
 PCOD9273603
Probable space group: C 2/C
;
_chemical_formula_sum "Si O2"
_cell_formula_units_Z 48
_cell_length_a 26.121111
_cell_length_b 9.316585
_cell_length_c 9.406239
_cell_angle_alpha 90.000000
_cell_angle_beta 105.155075
_cell_angle_gamma 90.000000
_cell_volume 2209.487336
_symmetry_space_group_name_H-M "C 2/C"
_symmetry_group_IT_number 15
_symmetry_cell_setting 'monoclinic'
loop_
_space_group_symop_operation_xyz
x,y,z
-x,y,1/2-z
-x,-y,-z
x,-y,1/2+z
1/2+x,1/2+y,z
1/2-x,1/2+y,1/2-z
1/2-x,1/2-y,-z
1/2+x,1/2-y,1/2+z
loop_
_atom_site_type_symbol
_atom_site_label
_atom_site_fract_x
_atom_site_fract_y
_atom_site_fract_z
Si Si1 0.233901 0.928921 0.377230
Si Si2 0.910090 0.057774 0.495379
Si Si3 0.481939 0.772448 0.391166
Si Si4 0.205295 0.169290 0.162750
Si Si5 0.382916 0.668893 0.769978
Si Si6 0.048394 0.428876 0.671878
O O1 0.232060 0.909534 0.545217
O O2 0.281216 0.835825 0.345813
O O3 0.179971 0.850241 0.283226
O O4 0.228470 0.090424 0.317771
O O5 0.959197 0.145644 0.469557
O O6 0.856876 0.135935 0.397636
O O7 0.906929 0.069931 0.661868
O O8 0.905147 0.898000 0.431446
O O9 0.500000 0.721187 0.250000
O O10 0.526689 0.860214 0.509832
O O11 0.440112 0.902959 0.335218
O O12 0.402699 0.828361 0.752107
O O13 0.000000 0.413907 0.750000
#
# Coordination Sequence:
#
# PCOD9273603 Si02
#       6
#     8   8   8   8   8   8
#     4   9  19  36  56  81 107 140 173 218 263 315
#     4  10  21  37  54  80 108 141 176 220 262 314
#     4  10  22  36  55  78 107 140 181 220 262 310
#     4   9  19  36  57  78 109 139 176 216 264 312
#     4  10  21  36  56  79 109 139 178 217 264 313
#     4  10  20  38  55  75 106 144 176 221 264 308
#
# _framework density 21.724495000000001
#
# number of rings (size 3 to 8) (size 9 to 14) (size 15 to 20)
#    0.000    2.333    1.667    0.000    2.333    3.333 
#    0.000    0.000    0.000    0.000    0.000    0.000 
#    0.000    0.000    0.000    0.000    0.000    0.000 
#
# Total GULP energy -133987.011145 kJ/mol
# GULP energy per Si atom -5582.792131 kJ/mol
# Density = 2.167505 g / cm^3
# Si number density = 21.724495 Si / 1000 Ang^3
#
#
#
# Elastic Constant Matrix: (Units=GPa)
#
#
# Indices 1 2 3 4 5 6 
#
# 1 35.1462 13.3827 -14.6015 0.0000 -10.4173 0.0000
# 2 13.3827 39.1024 -20.7702 0.0000 -0.8731 0.0000
# 3 -14.6015 -20.7702 53.2108 0.0000 -1.6668 0.0000
# 4 0.0000 0.0000 0.0000 25.1493 0.0000 1.6727
# 5 -10.4173 -0.8731 -1.6668 0.0000 12.5767 0.0000
# 6 0.0000 0.0000 0.0000 1.6727 0.0000 24.6323
#
#
#
# Elastic Compliance Matrix: (Units=1/GPa)
#
#
# Indices 1 2 3 4 5 6 
#
# 1 0.049058 -0.010127 0.010804 0.000000 0.041363 0.000000
# 2 -0.010127 0.034548 0.010563 0.000000 -0.004590 0.000000
# 3 0.010804 0.010563 0.026293 0.000000 0.013167 0.000000
# 4 0.000000 0.000000 0.000000 0.039943 0.000000 -0.002712
# 5 0.041363 -0.004590 0.013167 0.000000 0.115200 0.000000
# 6 0.000000 0.000000 0.000000 -0.002712 0.000000 0.040781
#
#
# Mechanical properties :
#
#
# Convention : Reuss Voigt Hill
#
# Bulk Modulus (GPa) = 7.55410 9.27574 8.41492
# Shear Modulus (GPa) = 15.26857 22.43486 18.85171
#
# Velocity S-wave (km/s) = 2.65397 3.21705 2.94898
# Velocity P-wave (km/s) = 3.58834 4.25185 3.93410
#
# Compressibility (1/GPa) = 0.13237839
#
# Stress axis : x y z
#
# Youngs Moduli (GPa) = 20.38421 28.94524 38.03235
#
# Poissons Ratio (x) = 0.29314 -0.41092
# Poissons Ratio (y) = 0.20644 -0.40172
# Poissons Ratio (z) = -0.22024 -0.30574
#
# Static dielectric constant tensor:
#      x y z
#    x 1.797700 0.000000 0.027560 
#    y 0.000000 1.803880 0.000000 
#    z 0.027560 0.000000 1.809120 
# 
# From -- ./inp_files/68545.got.cif
#   From: 2010.05.17/outbox.cif.g08.bks.cpg/sg15_35_cif.got.tgz:68545.got - 2010.06.03 18:47:42.
