data_PCOD9273311
_publ_section_title
;
Structure prediction by ZEFSAII (Michael W. Deem and Ramdas Pophale) SiO2 
 PCOD9273311
Probable space group: C 2/C
;
_chemical_formula_sum "Si O2"
_cell_formula_units_Z 52
_cell_length_a 8.186442
_cell_length_b 16.634286
_cell_length_c 21.076464
_cell_angle_alpha 90.000000
_cell_angle_beta 129.580048
_cell_angle_gamma 90.000000
_cell_volume 2212.087383
_symmetry_space_group_name_H-M "C 2/C"
_symmetry_group_IT_number 15
_symmetry_cell_setting 'monoclinic'
loop_
_space_group_symop_operation_xyz
x,y,z
-x,y,1/2-z
-x,-y,-z
x,-y,1/2+z
1/2+x,1/2+y,z
1/2-x,1/2+y,1/2-z
1/2-x,1/2-y,-z
1/2+x,1/2-y,1/2+z
loop_
_atom_site_type_symbol
_atom_site_label
_atom_site_fract_x
_atom_site_fract_y
_atom_site_fract_z
Si Si1 0.776484 0.416088 0.935761
Si Si2 0.887050 0.364070 0.584375
Si Si3 0.179006 0.572576 0.611099
Si Si4 0.848381 0.610643 0.760769
Si Si5 0.437574 0.324987 0.092248
Si Si6 0.500000 0.144962 0.250000
Si Si7 0.946926 0.789266 0.810415
O O1 0.696256 0.505089 0.898834
O O2 0.609740 0.343965 0.891353
O O3 0.946856 0.406847 0.920531
O O4 0.927935 0.423689 0.034134
O O5 0.654653 0.363649 0.494982
O O6 0.951383 0.270457 0.592029
O O7 0.909730 0.392407 0.662082
O O8 0.221868 0.562982 0.695267
O O9 0.268124 0.655749 0.605599
O O10 0.654243 0.640610 0.671144
O O11 0.964048 0.692335 0.815277
O O12 0.000000 0.565306 0.750000
O O13 0.292078 0.191511 0.225856
O O14 0.000000 0.812334 0.750000
#
# Coordination Sequence:
#
# PCOD9273311 Si02
#       7
#     8   8   8   8   8   4   8
#     4  10  22  45  63  96 129 175 218 274 331 399
#     4  10  20  37  64  91 128 163 217 271 322 385
#     4  10  23  41  69  89 132 176 217 264 343 399
#     4  11  22  38  61  97 133 168 220 279 322 398
#     4  10  20  38  61  91 125 171 210 265 326 390
#     4  12  20  36  64  98 124 172 214 274 326 388
#     4  11  22  38  65  95 135 167 223 275 322 395
#
# _framework density 23.507210000000001
#
# number of rings (size 3 to 8) (size 9 to 14) (size 15 to 20)
#    0.000    1.538    3.077    2.308    0.000    3.077 
#    1.385    0.000    0.000    5.538    0.000    0.000 
#    0.000    0.000    0.000    0.000    0.000    0.000 
#
# Total GULP energy -145119.036799 kJ/mol
# GULP energy per Si atom -5581.501415 kJ/mol
# Density = 2.345371 g / cm^3
# Si number density = 23.507210 Si / 1000 Ang^3
#
#
#
# Elastic Constant Matrix: (Units=GPa)
#
#
# Indices 1 2 3 4 5 6 
#
# 1 74.7857 5.4098 25.5932 0.0000 -1.9755 0.0000
# 2 5.4098 56.6825 23.0135 0.0000 11.6709 0.0000
# 3 25.5932 23.0135 145.2966 0.0000 -7.3015 0.0000
# 4 0.0000 0.0000 0.0000 17.3366 0.0000 -11.0189
# 5 -1.9755 11.6709 -7.3015 0.0000 32.6300 0.0000
# 6 0.0000 0.0000 0.0000 -11.0189 0.0000 14.5004
#
#
#
# Elastic Compliance Matrix: (Units=1/GPa)
#
#
# Indices 1 2 3 4 5 6 
#
# 1 0.014244 -0.000484 -0.002407 0.000000 0.000497 0.000000
# 2 -0.000484 0.020877 -0.003639 0.000000 -0.008311 0.000000
# 3 -0.002407 -0.003639 0.008031 0.000000 0.002953 0.000000
# 4 0.000000 0.000000 0.000000 0.111566 0.000000 0.084780
# 5 0.000497 -0.008311 0.002953 0.000000 0.034310 0.000000
# 6 0.000000 0.000000 0.000000 0.084780 0.000000 0.133388
#
#
# Mechanical properties :
#
#
# Convention : Reuss Voigt Hill
#
# Bulk Modulus (GPa) = 33.23302 42.75531 37.99416
# Shear Modulus (GPa) = 14.47146 27.74331 21.10739
#
# Velocity S-wave (km/s) = 2.48386 3.43914 2.99977
# Velocity P-wave (km/s) = 4.73224 5.83077 5.30999
#
# Compressibility (1/GPa) = 0.03009055
#
# Stress axis : x y z
#
# Youngs Moduli (GPa) = 70.20744 47.89965 124.51340
#
# Poissons Ratio (x) = 0.02320 0.29973
# Poissons Ratio (y) = 0.03401 0.45311
# Poissons Ratio (z) = 0.16901 0.17431
#
# Static dielectric constant tensor:
#      x y z
#    x 1.885190 0.000000 0.013910 
#    y 0.000000 1.903350 0.000000 
#    z 0.013910 0.000000 1.934280 
# 
# From -- ./inp_files/233108.got.cif
#   From: 2010.05.17/outbox.cif.g08.bks.cpg/sg15_117_cif.got.tgz:233108.got - 2010.06.03 18:47:42.
