data_PCOD9273799
_publ_section_title
;
Structure prediction by ZEFSAII (Michael W. Deem and Ramdas Pophale) SiO2 
 PCOD9273799
Probable space group: C 2/C
;
_chemical_formula_sum "Si O2"
_cell_formula_units_Z 64
_cell_length_a 25.697313
_cell_length_b 14.304160
_cell_length_c 8.156108
_cell_angle_alpha 90.000000
_cell_angle_beta 106.896889
_cell_angle_gamma 90.000000
_cell_volume 2868.583776
_symmetry_space_group_name_H-M "C 2/C"
_symmetry_group_IT_number 15
_symmetry_cell_setting 'monoclinic'
loop_
_space_group_symop_operation_xyz
x,y,z
-x,y,1/2-z
-x,-y,-z
x,-y,1/2+z
1/2+x,1/2+y,z
1/2-x,1/2+y,1/2-z
1/2-x,1/2-y,-z
1/2+x,1/2-y,1/2+z
loop_
_atom_site_type_symbol
_atom_site_label
_atom_site_fract_x
_atom_site_fract_y
_atom_site_fract_z
Si Si1 0.442243 0.390321 0.000062
Si Si2 0.169520 0.797065 0.612806
Si Si3 0.445920 0.135650 0.256679
Si Si4 0.335302 0.907010 0.240190
Si Si5 0.264240 0.842695 0.911247
Si Si6 0.562667 0.395900 0.109761
Si Si7 0.847928 0.760996 0.253557
Si Si8 0.093252 0.538273 0.976066
O O1 0.502843 0.362555 0.996314
O O2 0.439962 0.391679 0.195394
O O3 0.391749 0.327574 0.900616
O O4 0.432369 0.496836 0.936240
O O5 0.174895 0.687950 0.669475
O O6 0.211428 0.860721 0.753654
O O7 0.181751 0.807434 0.429298
O O8 0.500000 0.186979 0.250000
O O9 0.392786 0.197814 0.203365
O O10 0.444846 0.095964 0.438706
O O11 0.438253 0.048950 0.128747
O O12 0.356315 0.991566 0.374270
O O13 0.284445 0.916317 0.067230
O O14 0.384357 0.900364 0.152976
O O15 0.310977 0.805251 0.830311
O O16 0.250000 0.750000 0.000000
O O17 0.615127 0.334107 0.110931
#
# Coordination Sequence:
#
# PCOD9273799 Si02
#       8
#     8   8   8   8   8   8   8   8
#     4   9  19  38  60  89 120 156 190 248 301 362
#     4  10  21  38  63  87 122 159 205 254 313 367
#     4  11  22  36  63  90 126 163 203 251 307 371
#     4  10  20  38  59  86 117 164 201 252 302 366
#     4  10  22  40  60  85 120 161 204 259 304 366
#     4   9  20  36  62  88 122 152 197 245 304 363
#     4  11  21  38  63  91 120 162 206 249 314 374
#     4  10  21  39  59  87 126 161 202 252 302 361
#
# _framework density 22.310661
#
# number of rings (size 3 to 8) (size 9 to 14) (size 15 to 20)
#    0.000    2.000    2.500    0.750    3.500    2.000 
#    0.000    5.000    2.750    0.000    0.000    0.000 
#    0.000    0.000    0.000    0.000    0.000    0.000 
#
# Total GULP energy -178517.877335 kJ/mol
# GULP energy per Si atom -5578.683667 kJ/mol
# Density = 2.225988 g / cm^3
# Si number density = 22.310661 Si / 1000 Ang^3
#
#
#
# Elastic Constant Matrix: (Units=GPa)
#
#
# Indices 1 2 3 4 5 6 
#
# 1 64.2188 10.0225 28.9694 0.0000 12.1476 0.0000
# 2 10.0225 39.2016 7.6772 0.0000 -1.0583 0.0000
# 3 28.9694 7.6772 63.0516 0.0000 10.7815 0.0000
# 4 0.0000 0.0000 0.0000 28.8832 0.0000 4.6960
# 5 12.1476 -1.0583 10.7815 0.0000 23.7055 0.0000
# 6 0.0000 0.0000 0.0000 4.6960 0.0000 24.5303
#
#
#
# Elastic Compliance Matrix: (Units=1/GPa)
#
#
# Indices 1 2 3 4 5 6 
#
# 1 0.021209 -0.004060 -0.007982 0.000000 -0.007420 0.000000
# 2 -0.004060 0.027086 -0.002164 0.000000 0.004274 0.000000
# 3 -0.007982 -0.002164 0.020719 0.000000 -0.005430 0.000000
# 4 0.000000 0.000000 0.000000 0.035734 0.000000 -0.006841
# 5 -0.007420 0.004274 -0.005430 0.000000 0.048647 0.000000
# 6 0.000000 0.000000 0.000000 -0.006841 0.000000 0.042075
#
#
# Mechanical properties :
#
#
# Convention : Reuss Voigt Hill
#
# Bulk Modulus (GPa) = 24.62767 28.86782 26.74775
# Shear Modulus (GPa) = 21.06006 23.41067 22.23537
#
# Velocity S-wave (km/s) = 3.07570 3.24281 3.16036
# Velocity P-wave (km/s) = 4.86577 5.19502 5.03309
#
# Compressibility (1/GPa) = 0.04060474
#
# Stress axis : x y z
#
# Youngs Moduli (GPa) = 47.14883 36.91924 48.26445
#
# Poissons Ratio (x) = 0.14988 0.38524
# Poissons Ratio (y) = 0.19141 0.10442
# Poissons Ratio (z) = 0.37633 0.07988
#
# Static dielectric constant tensor:
#      x y z
#    x 1.850230 0.000000 0.066110 
#    y 0.000000 1.842110 0.000000 
#    z 0.066110 0.000000 1.896680 
# 
# From -- ./inp_files/66257.got.cif
#   From: 2010.05.17/outbox.cif.g08.bks.cpg/sg15_34_cif.got.tgz:66257.got - 2010.06.03 18:47:42.
