data_PCOD9273046
_publ_section_title
;
Structure prediction by ZEFSAII (Michael W. Deem and Ramdas Pophale) SiO2 
 PCOD9273046
Probable space group: C 2/C
;
_chemical_formula_sum "Si O2"
_cell_formula_units_Z 60
_cell_length_a 10.510383
_cell_length_b 15.054509
_cell_length_c 17.790712
_cell_angle_alpha 90.000000
_cell_angle_beta 74.637623
_cell_angle_gamma 90.000000
_cell_volume 2714.419271
_symmetry_space_group_name_H-M "C 2/C"
_symmetry_group_IT_number 15
_symmetry_cell_setting 'monoclinic'
loop_
_space_group_symop_operation_xyz
x,y,z
-x,y,1/2-z
-x,-y,-z
x,-y,1/2+z
1/2+x,1/2+y,z
1/2-x,1/2+y,1/2-z
1/2-x,1/2-y,-z
1/2+x,1/2-y,1/2+z
loop_
_atom_site_type_symbol
_atom_site_label
_atom_site_fract_x
_atom_site_fract_y
_atom_site_fract_z
Si Si1 0.140930 0.087997 0.694715
Si Si2 0.778304 0.428492 0.317300
Si Si3 0.457994 0.120655 0.422359
Si Si4 0.500000 0.928240 0.750000
Si Si5 0.245860 0.271524 0.089516
Si Si6 0.948028 0.185883 0.938542
Si Si7 0.183356 0.023633 0.462878
Si Si8 0.751257 0.920485 0.907456
O O1 0.224123 0.121318 0.752698
O O2 0.000000 0.060921 0.750000
O O3 0.886955 0.155459 0.868600
O O4 0.215171 0.002251 0.650973
O O5 0.877803 0.504051 0.274532
O O6 0.835722 0.355203 0.366485
O O7 0.668011 0.482838 0.382662
O O8 0.496665 0.127637 0.327561
O O9 0.405204 0.213642 0.463202
O O10 0.335758 0.054441 0.445253
O O11 0.592531 0.089473 0.441012
O O12 0.394544 0.298779 0.089379
O O13 0.205820 0.176099 0.128962
O O14 0.250000 0.250000 0.000000
O O15 0.904726 0.108214 0.002233
O O16 0.175363 0.947314 0.527001
#
# Coordination Sequence:
#
# PCOD9273046 Si02
#       8
#     8   8   8   4   8   8   8   8
#     4  11  22  40  62  92 124 167 215 265 323 383
#     4  11  22  41  62  89 126 165 212 259 323 381
#     4  10  20  37  62  89 125 155 211 257 324 382
#     4  10  22  38  62  90 122 166 204 266 324 386
#     4  11  22  40  63  88 124 165 213 260 319 380
#     4  10  23  37  63  93 124 163 211 266 317 382
#     4  10  21  38  61  91 124 164 206 264 314 386
#     4  10  21  38  62  87 121 167 211 257 324 381
#
# _framework density 22.104175000000001
#
# number of rings (size 3 to 8) (size 9 to 14) (size 15 to 20)
#    0.000    1.600    4.000    0.800    0.933    1.600 
#    1.200    1.333    0.000    0.000    0.000    0.000 
#    0.000    0.000    0.000    0.000    0.000    0.000 
#
# Total GULP energy -167412.925095 kJ/mol
# GULP energy per Si atom -5580.430837 kJ/mol
# Density = 2.205387 g / cm^3
# Si number density = 22.104175 Si / 1000 Ang^3
#
#
#
# Elastic Constant Matrix: (Units=GPa)
#
#
# Indices 1 2 3 4 5 6 
#
# 1 48.9171 8.6552 10.1917 0.0000 9.9770 0.0000
# 2 8.6552 103.4017 7.0271 0.0000 -3.9248 0.0000
# 3 10.1917 7.0271 62.6569 0.0000 12.7719 0.0000
# 4 0.0000 0.0000 0.0000 18.2745 0.0000 -8.1517
# 5 9.9770 -3.9248 12.7719 0.0000 32.5262 0.0000
# 6 0.0000 0.0000 0.0000 -8.1517 0.0000 32.5937
#
#
#
# Elastic Compliance Matrix: (Units=1/GPa)
#
#
# Indices 1 2 3 4 5 6 
#
# 1 0.022528 -0.001978 -0.002158 0.000000 -0.006301 0.000000
# 2 -0.001978 0.010011 -0.001273 0.000000 0.002315 0.000000
# 3 -0.002158 -0.001273 0.017773 0.000000 -0.006470 0.000000
# 4 0.000000 0.000000 0.000000 0.061593 0.000000 0.015404
# 5 -0.006301 0.002315 -0.006470 0.000000 0.035497 0.000000
# 6 0.000000 0.000000 0.000000 0.015404 0.000000 0.034533
#
#
# Mechanical properties :
#
#
# Convention : Reuss Voigt Hill
#
# Bulk Modulus (GPa) = 25.32078 29.63596 27.47837
# Shear Modulus (GPa) = 24.28165 29.28565 26.78365
#
# Velocity S-wave (km/s) = 3.31797 3.64386 3.48473
# Velocity P-wave (km/s) = 5.11455 5.58033 5.35251
#
# Compressibility (1/GPa) = 0.03949325
#
# Stress axis : x y z
#
# Youngs Moduli (GPa) = 44.39011 99.89059 56.26635
#
# Poissons Ratio (x) = 0.19760 0.12142
# Poissons Ratio (y) = 0.08781 0.07161
# Poissons Ratio (z) = 0.09579 0.12714
#
# Static dielectric constant tensor:
#      x y z
#    x 1.864830 0.000000 0.015480 
#    y 0.000000 1.845980 0.000000 
#    z 0.015480 0.000000 1.870900 
# 
# From -- ./inp_files/199513.got.cif
#   From: 2010.05.17/outbox.cif.g08.bks.cpg/sg15_100_cif.got.tgz:199513.got - 2010.06.03 18:47:42.
