data_PCOD9273307
_publ_section_title
;
Structure prediction by ZEFSAII (Michael W. Deem and Ramdas Pophale) SiO2 
 PCOD9273307
Probable space group: C 2/C
;
_chemical_formula_sum "Si O2"
_cell_formula_units_Z 48
_cell_length_a 6.744859
_cell_length_b 25.094224
_cell_length_c 13.041072
_cell_angle_alpha 90.000000
_cell_angle_beta 80.912140
_cell_angle_gamma 90.000000
_cell_volume 2179.585264
_symmetry_space_group_name_H-M "C 2/C"
_symmetry_group_IT_number 15
_symmetry_cell_setting 'monoclinic'
loop_
_space_group_symop_operation_xyz
x,y,z
-x,y,1/2-z
-x,-y,-z
x,-y,1/2+z
1/2+x,1/2+y,z
1/2-x,1/2+y,1/2-z
1/2-x,1/2-y,-z
1/2+x,1/2-y,1/2+z
loop_
_atom_site_type_symbol
_atom_site_label
_atom_site_fract_x
_atom_site_fract_y
_atom_site_fract_z
Si Si1 0.143008 0.264978 0.651400
Si Si2 0.037272 0.414044 0.472265
Si Si3 0.830920 0.131106 0.404189
Si Si4 0.500000 0.538924 0.250000
Si Si5 0.283778 0.501274 0.578053
Si Si6 0.145982 0.163658 0.539091
Si Si7 0.500000 0.276670 0.750000
O O1 0.049979 0.211954 0.610544
O O2 0.222110 0.305358 0.558784
O O3 0.344118 0.245663 0.693645
O O4 0.000000 0.289037 0.750000
O O5 0.894865 0.372953 0.542811
O O6 0.873184 0.449866 0.425061
O O7 0.155317 0.452175 0.542189
O O8 0.214008 0.377671 0.410597
O O9 0.878502 0.078817 0.333792
O O10 0.977448 0.132567 0.489689
O O11 0.879897 0.183220 0.334477
O O12 0.650641 0.506119 0.309442
O O13 0.500000 0.500000 0.500000
#
# Coordination Sequence:
#
# PCOD9273307 Si02
#       7
#     8   8   8   4   8   8   4
#     4  10  21  38  63  91 131 165 209 263 324 385
#     4  11  21  39  65  87 126 165 210 256 329 381
#     4  10  20  37  64  91 121 154 213 268 311 371
#     4  11  20  40  64  88 126 156 206 278 314 363
#     4  11  23  41  62  92 126 160 207 273 317 381
#     4  10  21  39  63  93 126 168 211 268 318 381
#     4   9  20  36  58 100 116 150 216 258 310 389
#
# _framework density 22.022538999999998
#
# number of rings (size 3 to 8) (size 9 to 14) (size 15 to 20)
#    0.000    1.667    3.333    1.000    0.000    2.000 
#    0.000    5.000   18.333    0.000    0.000    0.000 
#    0.000    0.000    0.000    0.000    0.000    0.000 
#
# Total GULP energy -133856.794841 kJ/mol
# GULP energy per Si atom -5577.366452 kJ/mol
# Density = 2.197241 g / cm^3
# Si number density = 22.022539 Si / 1000 Ang^3
#
#
#
# Elastic Constant Matrix: (Units=GPa)
#
#
# Indices 1 2 3 4 5 6 
#
# 1 115.6235 33.8933 29.4615 0.0000 29.2266 0.0000
# 2 33.8933 45.6785 13.8717 0.0000 16.6289 0.0000
# 3 29.4615 13.8717 46.3521 0.0000 28.4749 0.0000
# 4 0.0000 0.0000 0.0000 6.6846 0.0000 6.2550
# 5 29.2266 16.6289 28.4749 0.0000 37.0602 0.0000
# 6 0.0000 0.0000 0.0000 6.2550 0.0000 -2.1675
#
#
#
# Elastic Compliance Matrix: (Units=1/GPa)
#
#
# Indices 1 2 3 4 5 6 
#
# 1 0.012564 -0.006737 -0.003295 0.000000 -0.004354 0.000000
# 2 -0.006737 0.029812 0.000595 0.000000 -0.008521 0.000000
# 3 -0.003295 0.000595 0.041777 0.000000 -0.029767 0.000000
# 4 0.000000 0.000000 0.000000 0.040428 0.000000 0.116667
# 5 -0.004354 -0.008521 -0.029767 0.000000 0.057111 0.000000
# 6 0.000000 0.000000 0.000000 0.116667 0.000000 -0.124680
#
#
# Mechanical properties :
#
#
# Convention : Reuss Voigt Hill
#
# Bulk Modulus (GPa) = 15.31900 40.23412 27.77656
# Shear Modulus (GPa) = 51.20595 17.01065 34.10830
#
# Velocity S-wave (km/s) = 4.82722 2.78226 3.93974
# Velocity P-wave (km/s) = 6.16771 5.35074 5.77369
#
# Compressibility (1/GPa) = 0.06527841
#
# Stress axis : x y z
#
# Youngs Moduli (GPa) = 79.59551 33.54344 23.93677
#
# Poissons Ratio (x) = 0.22597 0.07887
# Poissons Ratio (y) = 0.53620 -0.01423
# Poissons Ratio (z) = 0.26226 -0.01994
#
# Static dielectric constant tensor:
#      x y z
#    x 1.739470 0.000000 0.096210 
#    y 0.000000 1.808370 0.000000 
#    z 0.096210 0.000000 1.694690 
# 
# From -- ./inp_files/130093.got.cif
#   From: 2010.05.17/outbox.cif.g08.bks.cpg/sg15_66_cif.got.tgz:130093.got - 2010.06.03 18:47:42.
