data_PCOD9273288
_publ_section_title
;
Structure prediction by ZEFSAII (Michael W. Deem and Ramdas Pophale) SiO2 
 PCOD9273288
Probable space group: C 2/C
;
_chemical_formula_sum "Si O2"
_cell_formula_units_Z 40
_cell_length_a 24.156452
_cell_length_b 4.894870
_cell_length_c 13.454189
_cell_angle_alpha 90.000000
_cell_angle_beta 89.458271
_cell_angle_gamma 90.000000
_cell_volume 1590.788421
_symmetry_space_group_name_H-M "C 2/C"
_symmetry_group_IT_number 15
_symmetry_cell_setting 'monoclinic'
loop_
_space_group_symop_operation_xyz
x,y,z
-x,y,1/2-z
-x,-y,-z
x,-y,1/2+z
1/2+x,1/2+y,z
1/2-x,1/2+y,1/2-z
1/2-x,1/2-y,-z
1/2+x,1/2-y,1/2+z
loop_
_atom_site_type_symbol
_atom_site_label
_atom_site_fract_x
_atom_site_fract_y
_atom_site_fract_z
Si Si1 0.944967 0.836904 0.525377
Si Si2 0.241341 0.412975 0.181001
Si Si3 0.355335 0.710981 0.632400
Si Si4 0.524311 0.022590 0.153227
Si Si5 0.128218 0.275601 0.232511
O O1 0.898737 0.053360 0.560662
O O2 0.935808 0.683636 0.422252
O O3 0.971561 0.609925 0.599223
O O4 0.000000 0.000000 0.500000
O O5 0.250693 0.217171 0.277611
O O6 0.290856 0.334438 0.105904
O O7 0.177406 0.359854 0.156504
O O8 0.364213 0.019523 0.671361
O O9 0.362261 0.529825 0.731754
O O10 0.500000 0.178377 0.250000
O O11 0.566443 0.799100 0.194269
#
# Coordination Sequence:
#
# PCOD9273288 Si02
#       5
#     8   8   8   8   8
#     4  11  25  38  59  88 125 161 205 257 306 362
#     4   8  16  32  58  89 116 154 202 245 298 359
#     4  10  20  38  62  90 122 160 203 253 301 360
#     4  11  23  40  59  88 119 165 204 250 306 368
#     4  10  20  37  64  89 120 162 206 246 303 365
#
# _framework density 25.144763000000001
#
# number of rings (size 3 to 8) (size 9 to 14) (size 15 to 20)
#    0.000    2.000    2.000    1.200    5.600    0.800 
#    0.000    1.000    0.000    1.200    0.000    0.000 
#    0.000    0.000    0.000    0.000    0.000    0.000 
#
# Total GULP energy -111576.266718 kJ/mol
# GULP energy per Si atom -5578.813336 kJ/mol
# Density = 2.508753 g / cm^3
# Si number density = 25.144763 Si / 1000 Ang^3
#
#
#
# Elastic Constant Matrix: (Units=GPa)
#
#
# Indices 1 2 3 4 5 6 
#
# 1 149.1683 -4.6304 31.0234 0.0000 -43.4612 0.0000
# 2 -4.6304 77.2969 5.4144 0.0000 4.3811 0.0000
# 3 31.0234 5.4144 73.3531 0.0000 -18.8982 0.0000
# 4 0.0000 0.0000 0.0000 11.9262 0.0000 -11.8763
# 5 -43.4612 4.3811 -18.8982 0.0000 38.7210 0.0000
# 6 0.0000 0.0000 0.0000 -11.8763 0.0000 39.5289
#
#
#
# Elastic Compliance Matrix: (Units=1/GPa)
#
#
# Indices 1 2 3 4 5 6 
#
# 1 0.010114 0.000116 -0.001561 0.000000 0.010577 0.000000
# 2 0.000116 0.013175 -0.001569 0.000000 -0.002127 0.000000
# 3 -0.001561 -0.001569 0.016017 0.000000 0.006243 0.000000
# 4 0.000000 0.000000 0.000000 0.119645 0.000000 0.035947
# 5 0.010577 -0.002127 0.006243 0.000000 0.040985 0.000000
# 6 0.000000 0.000000 0.000000 0.035947 0.000000 0.036098
#
#
# Mechanical properties :
#
#
# Convention : Reuss Voigt Hill
#
# Bulk Modulus (GPa) = 30.05156 40.38145 35.21650
# Shear Modulus (GPa) = 19.75076 35.90260 27.82668
#
# Velocity S-wave (km/s) = 2.80569 3.78277 3.33026
# Velocity P-wave (km/s) = 4.74059 5.93073 5.36874
#
# Compressibility (1/GPa) = 0.03327615
#
# Stress axis : x y z
#
# Youngs Moduli (GPa) = 98.87550 75.90404 62.43348
#
# Poissons Ratio (x) = -0.00878 0.09746
# Poissons Ratio (y) = -0.01144 0.09798
# Poissons Ratio (z) = 0.15434 0.11912
#
# Static dielectric constant tensor:
#      x y z
#    x 1.882190 0.000000 -0.412970 
#    y 0.000000 2.172670 0.000000 
#    z -0.412970 0.000000 1.382090 
# 
# From -- ./inp_files/120701.got.cif
#   From: 2010.05.17/outbox.cif.g08.bks.cpg/sg15_61_cif.got.tgz:120701.got - 2010.06.03 18:47:42.
