data_PCOD9273369
_publ_section_title
;
Structure prediction by ZEFSAII (Michael W. Deem and Ramdas Pophale) SiO2 
 PCOD9273369
Probable space group: C 2/C
;
_chemical_formula_sum "Si O2"
_cell_formula_units_Z 56
_cell_length_a 19.325228
_cell_length_b 26.134012
_cell_length_c 5.283012
_cell_angle_alpha 90.000000
_cell_angle_beta 110.414097
_cell_angle_gamma 90.000000
_cell_volume 2500.591947
_symmetry_space_group_name_H-M "C 2/C"
_symmetry_group_IT_number 15
_symmetry_cell_setting 'monoclinic'
loop_
_space_group_symop_operation_xyz
x,y,z
-x,y,1/2-z
-x,-y,-z
x,-y,1/2+z
1/2+x,1/2+y,z
1/2-x,1/2+y,1/2-z
1/2-x,1/2-y,-z
1/2+x,1/2-y,1/2+z
loop_
_atom_site_type_symbol
_atom_site_label
_atom_site_fract_x
_atom_site_fract_y
_atom_site_fract_z
Si Si1 0.202597 0.198274 0.149314
Si Si2 0.916468 0.478277 0.428674
Si Si3 0.500000 0.210749 0.750000
Si Si4 0.500000 0.534878 0.250000
Si Si5 0.768708 0.139282 0.834336
Si Si6 0.337277 0.465726 0.525971
Si Si7 0.866353 0.725579 0.277520
Si Si8 0.101583 0.641158 0.533997
O O1 0.210357 0.159695 0.918411
O O2 0.143075 0.239985 0.985563
O O3 0.188623 0.169317 0.390916
O O4 0.283162 0.225528 0.278272
O O5 0.880262 0.508958 0.613439
O O6 0.917700 0.418462 0.492055
O O7 0.000000 0.500000 0.500000
O O8 0.434602 0.242301 0.533959
O O9 0.541079 0.173853 0.602918
O O10 0.500000 0.500000 0.500000
O O11 0.580375 0.560103 0.366565
O O12 0.782149 0.079596 0.891484
O O13 0.681592 0.147946 0.762396
O O14 0.330445 0.493130 0.789382
O O15 0.885984 0.667483 0.222051
#
# Coordination Sequence:
#
# PCOD9273369 Si02
#       8
#     8   8   4   4   8   8   8   8
#     4  10  23  44  65  94 125 170 216 278 354 389
#     4  10  23  38  55  81 123 172 210 271 322 367
#     4  12  22  40  65  96 122 172 224 281 314 398
#     4   8  16  32  57  86 116 152 202 251 308 374
#     4  11  23  41  66  95 133 174 219 278 327 404
#     4  10  20  37  64  97 130 171 219 263 319 400
#     4  10  24  40  69  90 125 164 229 284 329 409
#     4  11  25  39  64  94 127 175 236 268 332 391
#
# _framework density 22.394696
#
# number of rings (size 3 to 8) (size 9 to 14) (size 15 to 20)
#    0.000    1.714    1.429    2.143    8.000    2.857 
#    0.000    0.714    0.000    0.000    0.000    0.000 
#    0.000    0.000    0.000    0.000    0.000    0.000 
#
# Total GULP energy -156403.820566 kJ/mol
# GULP energy per Si atom -5585.850735 kJ/mol
# Density = 2.234372 g / cm^3
# Si number density = 22.394696 Si / 1000 Ang^3
#
#
#
# Elastic Constant Matrix: (Units=GPa)
#
#
# Indices 1 2 3 4 5 6 
#
# 1 50.4854 15.6628 38.3694 0.0000 6.3682 0.0000
# 2 15.6628 78.6732 28.0445 0.0000 7.2238 0.0000
# 3 38.3694 28.0445 131.4500 0.0000 6.0878 0.0000
# 4 0.0000 0.0000 0.0000 29.9476 0.0000 -0.1444
# 5 6.3682 7.2238 6.0878 0.0000 44.2928 0.0000
# 6 0.0000 0.0000 0.0000 -0.1444 0.0000 33.2165
#
#
#
# Elastic Compliance Matrix: (Units=1/GPa)
#
#
# Indices 1 2 3 4 5 6 
#
# 1 0.026211 -0.002501 -0.007006 0.000000 -0.002398 0.000000
# 2 -0.002501 0.014148 -0.002212 0.000000 -0.001644 0.000000
# 3 -0.007006 -0.002212 0.010126 0.000000 -0.000024 0.000000
# 4 0.000000 0.000000 0.000000 0.033392 0.000000 0.000145
# 5 -0.002398 -0.001644 -0.000024 0.000000 0.023193 0.000000
# 6 0.000000 0.000000 0.000000 0.000145 0.000000 0.030106
#
#
# Mechanical properties :
#
#
# Convention : Reuss Voigt Hill
#
# Bulk Modulus (GPa) = 36.97386 47.19577 42.08481
# Shear Modulus (GPa) = 29.47592 33.39352 31.43472
#
# Velocity S-wave (km/s) = 3.63188 3.86571 3.75062
# Velocity P-wave (km/s) = 5.84238 6.40666 6.13101
#
# Compressibility (1/GPa) = 0.02704614
#
# Stress axis : x y z
#
# Youngs Moduli (GPa) = 38.15233 70.68016 98.75921
#
# Poissons Ratio (x) = 0.17674 0.69193
# Poissons Ratio (y) = 0.09540 0.21850
# Poissons Ratio (z) = 0.26730 0.15638
#
# Static dielectric constant tensor:
#      x y z
#    x 1.839550 0.000000 -0.024590 
#    y 0.000000 1.815180 0.000000 
#    z -0.024590 0.000000 1.889760 
# 
# From -- ./inp_files/14340.got.cif
#   From: 2010.05.17/outbox.cif.g08.bks.cpg/sg15_8_cif.got.tgz:14340.got - 2010.06.03 18:47:42.
