data_PCOD9273801
_publ_section_title
;
Structure prediction by ZEFSAII (Michael W. Deem and Ramdas Pophale) SiO2 
 PCOD9273801
Probable space group: C 2/C
;
_chemical_formula_sum "Si O2"
_cell_formula_units_Z 44
_cell_length_a 9.454541
_cell_length_b 25.617895
_cell_length_c 11.846072
_cell_angle_alpha 90.000000
_cell_angle_beta 42.502410
_cell_angle_gamma 90.000000
_cell_volume 1938.480959
_symmetry_space_group_name_H-M "C 2/C"
_symmetry_group_IT_number 15
_symmetry_cell_setting 'monoclinic'
loop_
_space_group_symop_operation_xyz
x,y,z
-x,y,1/2-z
-x,-y,-z
x,-y,1/2+z
1/2+x,1/2+y,z
1/2-x,1/2+y,1/2-z
1/2-x,1/2-y,-z
1/2+x,1/2-y,1/2+z
loop_
_atom_site_type_symbol
_atom_site_label
_atom_site_fract_x
_atom_site_fract_y
_atom_site_fract_z
Si Si1 0.740789 0.404911 0.797696
Si Si2 0.795535 0.554796 0.511600
Si Si3 0.815221 0.147901 0.779609
Si Si4 0.350782 0.191086 0.089775
Si Si5 0.500000 0.462959 0.750000
Si Si6 0.251846 0.690177 0.594512
O O1 0.713543 0.417034 0.945671
O O2 0.778419 0.344424 0.737660
O O3 0.572800 0.429007 0.812802
O O4 0.955401 0.437535 0.642638
O O5 0.723481 0.589192 0.659555
O O6 0.691099 0.499116 0.592370
O O7 0.848724 0.151095 0.626692
O O8 0.000000 0.169442 0.750000
O O9 0.596245 0.177596 0.931896
O O10 0.326545 0.253495 0.096874
O O11 0.218365 0.177089 0.054146
O O12 0.000000 0.690682 0.750000
#
# Coordination Sequence:
#
# PCOD9273801 Si02
#       6
#     8   8   8   8   4   8
#     4  10  23  40  64  90 122 159 201 250 311 355
#     4  10  22  44  59  88 130 154 198 259 299 365
#     4  10  20  38  59  86 119 162 195 246 308 354
#     4   9  20  40  60  87 121 158 202 253 296 360
#     4  12  22  40  66  92 114 166 210 244 308 360
#     4   9  19  38  61  87 120 157 204 250 295 357
#
# _framework density 22.698186
#
# number of rings (size 3 to 8) (size 9 to 14) (size 15 to 20)
#    0.000    2.182    0.909    1.091    1.273    2.182 
#   16.364    0.000    0.000    0.000    0.000    0.000 
#    0.000    0.000    0.000    0.000    0.000    0.000 
#
# Total GULP energy -122845.823199 kJ/mol
# GULP energy per Si atom -5583.901055 kJ/mol
# Density = 2.264652 g / cm^3
# Si number density = 22.698186 Si / 1000 Ang^3
#
#
#
# Elastic Constant Matrix: (Units=GPa)
#
#
# Indices 1 2 3 4 5 6 
#
# 1 124.4326 48.8842 4.1423 0.0000 6.4175 0.0000
# 2 48.8842 63.4576 10.7072 0.0000 2.5054 0.0000
# 3 4.1423 10.7072 51.1022 0.0000 6.3289 0.0000
# 4 0.0000 0.0000 0.0000 14.0781 0.0000 -8.1040
# 5 6.4175 2.5054 6.3289 0.0000 44.0868 0.0000
# 6 0.0000 0.0000 0.0000 -8.1040 0.0000 39.6432
#
#
#
# Elastic Compliance Matrix: (Units=1/GPa)
#
#
# Indices 1 2 3 4 5 6 
#
# 1 0.011647 -0.009110 0.001131 0.000000 -0.001340 0.000000
# 2 -0.009110 0.023470 -0.004254 0.000000 0.000603 0.000000
# 3 0.001131 -0.004254 0.020727 0.000000 -0.002898 0.000000
# 4 0.000000 0.000000 0.000000 0.080506 0.000000 0.016457
# 5 -0.001340 0.000603 -0.002898 0.000000 0.023259 0.000000
# 6 0.000000 0.000000 0.000000 0.016457 0.000000 0.028589
#
#
# Mechanical properties :
#
#
# Convention : Reuss Voigt Hill
#
# Bulk Modulus (GPa) = 31.86943 40.71777 36.29360
# Shear Modulus (GPa) = 22.40897 31.24552 26.82725
#
# Velocity S-wave (km/s) = 3.14548 3.71423 3.44162
# Velocity P-wave (km/s) = 5.22140 6.03090 5.64069
#
# Compressibility (1/GPa) = 0.03137803
#
# Stress axis : x y z
#
# Youngs Moduli (GPa) = 85.85999 42.60697 48.24568
#
# Poissons Ratio (x) = 0.38815 -0.05455
# Poissons Ratio (y) = 0.78218 0.20523
# Poissons Ratio (z) = -0.09708 0.18124
#
# Static dielectric constant tensor:
#      x y z
#    x 1.836760 0.000000 -0.031520 
#    y 0.000000 1.824230 0.000000 
#    z -0.031520 0.000000 1.935370 
# 
# From -- ./inp_files/81121.got.cif
#   From: 2010.05.17/outbox.cif.g08.bks.cpg/sg15_41_cif.got.tgz:81121.got - 2010.06.03 18:47:42.
