data_PCOD9273249
_publ_section_title
;
Structure prediction by ZEFSAII (Michael W. Deem and Ramdas Pophale) SiO2 
 PCOD9273249
Probable space group: C 2/C
;
_chemical_formula_sum "Si O2"
_cell_formula_units_Z 52
_cell_length_a 14.636266
_cell_length_b 30.777609
_cell_length_c 5.327152
_cell_angle_alpha 90.000000
_cell_angle_beta 72.284415
_cell_angle_gamma 90.000000
_cell_volume 2285.920634
_symmetry_space_group_name_H-M "C 2/C"
_symmetry_group_IT_number 15
_symmetry_cell_setting 'monoclinic'
loop_
_space_group_symop_operation_xyz
x,y,z
-x,y,1/2-z
-x,-y,-z
x,-y,1/2+z
1/2+x,1/2+y,z
1/2-x,1/2+y,1/2-z
1/2-x,1/2-y,-z
1/2+x,1/2-y,1/2+z
loop_
_atom_site_type_symbol
_atom_site_label
_atom_site_fract_x
_atom_site_fract_y
_atom_site_fract_z
Si Si1 0.500000 0.607834 0.250000
Si Si2 0.312588 0.241618 0.198936
Si Si3 0.314487 0.152661 0.962407
Si Si4 0.371448 0.670352 0.698056
Si Si5 0.500000 0.945086 0.750000
Si Si6 0.214332 0.474210 0.449738
Si Si7 0.000000 0.608119 0.750000
Si Si8 0.176569 0.100154 0.392208
O O1 0.441375 0.639233 0.485970
O O2 0.582398 0.582046 0.331639
O O3 0.250000 0.250000 0.500000
O O4 0.339606 0.191305 0.136706
O O5 0.394587 0.278660 0.155390
O O6 0.250000 0.250000 0.000000
O O7 0.263904 0.111929 0.138288
O O8 0.233856 0.167371 0.835444
O O9 0.410043 0.137274 0.750428
O O10 0.358899 0.647306 0.975818
O O11 0.598970 0.967899 0.578517
O O12 0.473128 0.918871 0.519931
O O13 0.238461 0.494503 0.162328
O O14 0.277058 0.430714 0.438755
#
# Coordination Sequence:
#
# PCOD9273249 Si02
#       8
#     4   8   8   8   4   8   4   8
#     4  10  24  39  70 100 123 180 235 284 332 409
#     4  10  20  37  63  96 133 179 226 276 332 384
#     4  10  22  38  64  96 139 181 225 276 331 401
#     4  10  21  40  68  93 133 180 231 278 341 397
#     4  12  24  45  70 100 143 176 229 268 338 421
#     4  12  27  45  71 103 135 176 222 280 345 413
#     4  12  24  38  68 106 136 188 222 264 336 406
#     4  11  22  44  69  94 135 179 228 281 343 409
#
# _framework density 22.747945000000001
#
# number of rings (size 3 to 8) (size 9 to 14) (size 15 to 20)
#    0.000    1.231    3.077    2.769    4.308    0.615 
#    0.000    0.769    3.385    0.000    0.000    0.000 
#    0.000    0.000    0.000    0.000    0.000    0.000 
#
# Total GULP energy -145153.986940 kJ/mol
# GULP energy per Si atom -5582.845652 kJ/mol
# Density = 2.269617 g / cm^3
# Si number density = 22.747945 Si / 1000 Ang^3
#
#
#
# Elastic Constant Matrix: (Units=GPa)
#
#
# Indices 1 2 3 4 5 6 
#
# 1 109.3484 23.3466 6.0936 0.0000 3.8147 0.0000
# 2 23.3466 52.7010 -6.9131 0.0000 11.6840 0.0000
# 3 6.0936 -6.9131 61.7706 0.0000 4.7857 0.0000
# 4 0.0000 0.0000 0.0000 12.6047 0.0000 12.4556
# 5 3.8147 11.6840 4.7857 0.0000 28.6850 0.0000
# 6 0.0000 0.0000 0.0000 12.4556 0.0000 21.4510
#
#
#
# Elastic Compliance Matrix: (Units=1/GPa)
#
#
# Indices 1 2 3 4 5 6 
#
# 1 0.010265 -0.004970 -0.001641 0.000000 0.000933 0.000000
# 2 -0.004970 0.023840 0.003910 0.000000 -0.009702 0.000000
# 3 -0.001641 0.003910 0.017116 0.000000 -0.004230 0.000000
# 4 0.000000 0.000000 0.000000 0.186141 0.000000 -0.108084
# 5 0.000933 -0.009702 -0.004230 0.000000 0.039395 0.000000
# 6 0.000000 0.000000 0.000000 -0.108084 0.000000 0.109377
#
#
# Mechanical properties :
#
#
# Convention : Reuss Voigt Hill
#
# Bulk Modulus (GPa) = 21.82432 29.87493 25.84962
# Shear Modulus (GPa) = 12.29076 25.96765 19.12921
#
# Velocity S-wave (km/s) = 2.32696 3.38233 2.90301
# Velocity P-wave (km/s) = 4.10298 5.33058 4.75655
#
# Compressibility (1/GPa) = 0.04582045
#
# Stress axis : x y z
#
# Youngs Moduli (GPa) = 97.41831 41.94560 58.42438
#
# Poissons Ratio (x) = 0.20845 0.09588
# Poissons Ratio (y) = 0.48412 -0.22844
# Poissons Ratio (z) = 0.15987 -0.16401
#
# Static dielectric constant tensor:
#      x y z
#    x 1.748730 0.000000 -0.091610 
#    y 0.000000 1.972760 0.000000 
#    z -0.091610 0.000000 1.744310 
# 
# From -- ./inp_files/9050.got.cif
#   From: 2010.05.17/outbox.cif.g08.bks.cpg/sg15_5_cif.got.tgz:9050.got - 2010.06.03 18:47:42.
