data_PCOD9273538
_publ_section_title
;
Structure prediction by ZEFSAII (Michael W. Deem and Ramdas Pophale) SiO2 
 PCOD9273538
Probable space group: C 2/C
;
_chemical_formula_sum "Si O2"
_cell_formula_units_Z 64
_cell_length_a 18.186971
_cell_length_b 12.672052
_cell_length_c 29.390301
_cell_angle_alpha 90.000000
_cell_angle_beta 28.449137
_cell_angle_gamma 90.000000
_cell_volume 3226.736018
_symmetry_space_group_name_H-M "C 2/C"
_symmetry_group_IT_number 15
_symmetry_cell_setting 'monoclinic'
loop_
_space_group_symop_operation_xyz
x,y,z
-x,y,1/2-z
-x,-y,-z
x,-y,1/2+z
1/2+x,1/2+y,z
1/2-x,1/2+y,1/2-z
1/2-x,1/2-y,-z
1/2+x,1/2-y,1/2+z
loop_
_atom_site_type_symbol
_atom_site_label
_atom_site_fract_x
_atom_site_fract_y
_atom_site_fract_z
Si Si1 0.752645 0.600055 0.111919
Si Si2 0.861582 0.682274 0.796695
Si Si3 0.858816 0.146386 0.953307
Si Si4 0.510440 0.249043 0.623965
Si Si5 0.578896 0.192193 0.925784
Si Si6 0.404549 0.586022 0.756985
Si Si7 0.471201 0.390729 0.041765
Si Si8 0.771820 0.929275 0.978110
O O1 0.696293 0.721098 0.140424
O O2 0.661277 0.534255 0.199918
O O3 0.713398 0.552311 0.084060
O O4 0.938174 0.611300 0.014130
O O5 0.714825 0.617737 0.859648
O O6 0.000000 0.628859 0.750000
O O7 0.921303 0.737911 0.718946
O O8 0.989734 0.119887 0.843459
O O9 0.951963 0.135672 0.950695
O O10 0.749371 0.042574 0.012441
O O11 0.750000 0.250000 0.000000
O O12 0.420638 0.219862 0.627647
O O13 0.638806 0.156698 0.556823
O O14 0.581963 0.365823 0.581875
O O15 0.745496 0.149276 0.846199
O O16 0.538383 0.297406 0.974437
O O17 0.500000 0.610513 0.750000
O O18 0.500000 0.500000 0.000000
#
# Coordination Sequence:
#
# PCOD9273538 Si02
#       8
#     8   8   8   8   8   8   8   8
#     4  10  20  38  67 100 120 154 213 286 337 367
#     4  11  21  38  65 100 129 159 220 283 332 401
#     4  12  26  44  65  92 139 183 226 263 335 413
#     4  10  20  37  67  99 123 155 213 277 339 378
#     4  10  23  41  63  94 127 164 215 273 327 394
#     4  12  22  40  66  94 128 168 215 269 334 398
#     4  11  26  45  62  91 137 185 218 269 335 412
#     4  10  20  38  67  93 125 160 209 273 331 382
#
# _framework density 19.834285000000001
#
# number of rings (size 3 to 8) (size 9 to 14) (size 15 to 20)
#    0.000    1.250    2.500    3.750    3.500    0.000 
#    4.500    0.625    0.000    0.000    0.000    0.000 
#    0.000    0.000    0.000    0.000    0.000    0.000 
#
# Total GULP energy -178317.530523 kJ/mol
# GULP energy per Si atom -5572.422829 kJ/mol
# Density = 1.978914 g / cm^3
# Si number density = 19.834285 Si / 1000 Ang^3
#
#
#
# Elastic Constant Matrix: (Units=GPa)
#
#
# Indices 1 2 3 4 5 6 
#
# 1 153.7436 51.6000 55.0439 0.0001 -14.3580 0.0001
# 2 51.6000 111.8708 27.3037 0.0002 -14.3320 0.0001
# 3 55.0439 27.3037 78.3197 0.0009 -11.9591 0.0001
# 4 0.0001 0.0002 0.0009 16.8258 -0.0001 -6.1801
# 5 -14.3580 -14.3320 -11.9591 -0.0001 23.3306 0.0000
# 6 0.0001 0.0001 0.0001 -6.1801 0.0000 21.9087
#
#
#
# Elastic Compliance Matrix: (Units=1/GPa)
#
#
# Indices 1 2 3 4 5 6 
#
# 1 0.009576 -0.002905 -0.005522 0.000000 0.001278 0.000000
# 2 -0.002905 0.011133 -0.001159 0.000000 0.004457 0.000000
# 3 -0.005522 -0.001159 0.017820 -0.000001 0.005024 0.000000
# 4 0.000000 0.000000 -0.000001 0.066302 0.000000 0.018703
# 5 0.001278 0.004457 0.005024 0.000000 0.048962 0.000000
# 6 0.000000 0.000000 0.000000 0.018703 0.000000 0.050920
#
#
# Mechanical properties :
#
#
# Convention : Reuss Voigt Hill
#
# Bulk Modulus (GPa) = 51.66138 67.98102 59.82120
# Shear Modulus (GPa) = 21.70736 26.41212 24.05974
#
# Velocity S-wave (km/s) = 3.31182 3.65312 3.48665
# Velocity P-wave (km/s) = 6.38179 7.22099 6.81432
#
# Compressibility (1/GPa) = 0.01935682
#
# Stress axis : x y z
#
# Youngs Moduli (GPa) = 104.43014 89.82520 56.11607
#
# Poissons Ratio (x) = 0.26098 0.30987
# Poissons Ratio (y) = 0.30341 0.06502
# Poissons Ratio (z) = 0.57666 0.10407
#
# Static dielectric constant tensor:
#      x y z
#    x 1.722350 0.000000 -0.020710 
#    y 0.000000 1.752300 0.000000 
#    z -0.020710 0.000000 1.764060 
# 
# From -- ./inp_files/316178.got.cif
#   From: 2010.05.17/outbox.cif.g08.bks.cpg/sg15_159_cif.got.tgz:316178.got - 2010.06.03 18:47:42.
