data_PCOD9273051
_publ_section_title
;
Structure prediction by ZEFSAII (Michael W. Deem and Ramdas Pophale) SiO2 
 PCOD9273051
Probable space group: C 2/C
;
_chemical_formula_sum "Si O2"
_cell_formula_units_Z 56
_cell_length_a 7.911391
_cell_length_b 36.714062
_cell_length_c 18.969665
_cell_angle_alpha 90.000000
_cell_angle_beta 33.476807
_cell_angle_gamma 90.000000
_cell_volume 3039.266079
_symmetry_space_group_name_H-M "C 2/C"
_symmetry_group_IT_number 15
_symmetry_cell_setting 'monoclinic'
loop_
_space_group_symop_operation_xyz
x,y,z
-x,y,1/2-z
-x,-y,-z
x,-y,1/2+z
1/2+x,1/2+y,z
1/2-x,1/2+y,1/2-z
1/2-x,1/2-y,-z
1/2+x,1/2-y,1/2+z
loop_
_atom_site_type_symbol
_atom_site_label
_atom_site_fract_x
_atom_site_fract_y
_atom_site_fract_z
Si Si1 0.701983 0.836330 0.499372
Si Si2 0.699469 0.836330 0.000629
Si Si3 0.703646 0.209123 0.750000
Si Si4 0.706503 0.706937 0.250001
Si Si5 0.009572 0.912485 0.400589
Si Si6 0.611929 0.912485 0.099411
Si Si7 0.695946 0.966636 0.402027
O O1 0.478226 0.842413 0.510887
O O2 0.513605 0.814553 0.623717
O O3 0.983474 0.811764 0.375302
O O4 0.826232 0.875542 0.479078
O O5 0.484676 0.811764 0.124700
O O6 0.742545 0.875542 0.020922
O O7 0.008468 0.814552 0.876285
O O8 0.500000 0.208361 0.750000
O O9 0.761497 0.251092 0.750000
O O10 0.500000 0.707539 0.250000
O O11 0.295770 0.902412 0.250000
O O12 0.156884 0.926933 0.421558
O O13 0.813678 0.941688 0.425674
O O14 0.516374 0.941688 0.074326
O O15 0.000000 0.976849 0.250000
O O16 0.500000 0.000000 0.500000
#
# Coordination Sequence:
#
# PCOD9273051 Si02
#       7
#     8   8   8   8   8   8   8
#     4  11  20  36  58  82 112 157 205 249 298 357
#     4  11  20  36  58  82 112 157 205 249 298 357
#     4  11  21  35  55  81 113 154 205 253 303 358
#     4   9  22  37  51  79 119 157 196 255 314 353
#     4  10  20  37  62  90 118 156 201 239 284 354
#     4  10  20  37  62  90 118 156 201 239 284 354
#     4  10  22  42  66  94 122 154 192 238 298 356
#
# _framework density 18.4255
#
# number of rings (size 3 to 8) (size 9 to 14) (size 15 to 20)
#    0.000    1.714    2.857    2.143    0.000    0.571 
#    2.571    7.143    0.000    0.000    0.000    0.000 
#    0.000    0.000    0.000    0.000    0.000    0.000 
#
# Total GULP energy -156411.264566 kJ/mol
# GULP energy per Si atom -5586.116592 kJ/mol
# Density = 1.838356 g / cm^3
# Si number density = 18.425500 Si / 1000 Ang^3
#
#
#
# Elastic Constant Matrix: (Units=GPa)
#
#
# Indices 1 2 3 4 5 6 
#
# 1 97.9584 47.0632 23.1303 0.0000 -3.0401 0.0000
# 2 47.0632 132.4723 71.5484 0.0000 0.1842 0.0000
# 3 23.1303 71.5484 123.1940 0.0000 3.2056 0.0000
# 4 0.0000 0.0000 0.0000 44.1755 0.0000 0.2602
# 5 -3.0401 0.1842 3.2056 0.0000 -144.1728 0.0000
# 6 0.0000 0.0000 0.0000 0.2602 0.0000 12.8072
#
#
#
# Elastic Compliance Matrix: (Units=1/GPa)
#
#
# Indices 1 2 3 4 5 6 
#
# 1 0.012309 -0.004558 0.000343 0.000000 -0.000258 0.000000
# 2 -0.004558 0.012684 -0.006510 0.000000 -0.000032 0.000000
# 3 0.000343 -0.006510 0.011827 0.000000 0.000247 0.000000
# 4 0.000000 0.000000 0.000000 0.022640 0.000000 -0.000460
# 5 -0.000258 -0.000032 0.000247 0.000000 -0.006925 0.000000
# 6 0.000000 0.000000 0.000000 -0.000460 0.000000 0.078090
#
#
# Mechanical properties :
#
#
# Convention : Reuss Voigt Hill
#
# Bulk Modulus (GPa) = 65.06028 70.78985 67.92506
# Shear Modulus (GPa) = 31.80673 -3.31250 14.24711
#
# Velocity S-wave (km/s) = 4.15931 -1.34227 2.78371
# Velocity P-wave (km/s) = 7.64546 6.00838 6.87581
#
# Compressibility (1/GPa) = 0.01537036
#
# Stress axis : x y z
#
# Youngs Moduli (GPa) = 81.23969 78.83872 84.54931
#
# Poissons Ratio (x) = 0.35933 -0.02897
# Poissons Ratio (y) = 0.37027 0.55042
# Poissons Ratio (z) = -0.02784 0.51325
#
# Static dielectric constant tensor:
#      x y z
#    x 1.661290 0.000000 -0.000410 
#    y 0.000000 1.596610 0.000000 
#    z -0.000410 0.000000 1.612400 
# 
# From -- ./inp_files/234932.got.cif
#   From: 2010.05.17/outbox.cif.g08.bks.cpg/sg15_118_cif.got.tgz:234932.got - 2010.06.03 18:47:42.
