data_PCOD9273883
_publ_section_title
;
Structure prediction by ZEFSAII (Michael W. Deem and Ramdas Pophale) SiO2 
 PCOD9273883
Probable space group: C 2/C
;
_chemical_formula_sum "Si O2"
_cell_formula_units_Z 64
_cell_length_a 11.681998
_cell_length_b 20.319936
_cell_length_c 14.988415
_cell_angle_alpha 90.000000
_cell_angle_beta 87.479951
_cell_angle_gamma 90.000000
_cell_volume 3554.470891
_symmetry_space_group_name_H-M "C 2/C"
_symmetry_group_IT_number 15
_symmetry_cell_setting 'monoclinic'
loop_
_space_group_symop_operation_xyz
x,y,z
-x,y,1/2-z
-x,-y,-z
x,-y,1/2+z
1/2+x,1/2+y,z
1/2-x,1/2+y,1/2-z
1/2-x,1/2-y,-z
1/2+x,1/2-y,1/2+z
loop_
_atom_site_type_symbol
_atom_site_label
_atom_site_fract_x
_atom_site_fract_y
_atom_site_fract_z
Si Si1 0.369222 0.892080 0.229567
Si Si2 0.869896 0.548426 0.221610
Si Si3 0.844354 0.343559 0.030102
Si Si4 0.135084 0.875937 0.745074
Si Si5 0.618607 0.691435 0.057350
Si Si6 0.051086 0.428839 0.976261
Si Si7 0.632125 0.689483 0.430090
Si Si8 0.190222 0.335936 0.093523
O O1 0.500000 0.872672 0.250000
O O2 0.343337 0.875386 0.128185
O O3 0.292504 0.852770 0.303639
O O4 0.361478 0.970569 0.240332
O O5 0.749083 0.579713 0.258831
O O6 0.877389 0.563684 0.116019
O O7 0.000000 0.568818 0.250000
O O8 0.858461 0.265884 0.045199
O O9 0.728905 0.350787 0.977930
O O10 0.946859 0.377285 0.971950
O O11 0.153894 0.844505 0.647224
O O12 0.137739 0.821978 0.823852
O O13 0.000000 0.901747 0.750000
O O14 0.493146 0.667282 0.036857
O O15 0.617538 0.769138 0.081738
O O16 0.700611 0.677777 0.971740
O O17 0.125543 0.398587 0.053582
O O18 0.000000 0.500000 0.000000
#
# Coordination Sequence:
#
# PCOD9273883 Si02
#       8
#     8   8   8   8   8   8   8   8
#     4  11  20  37  58  84 115 154 200 246 291 356
#     4  11  22  37  58  89 119 150 201 251 301 354
#     4  11  21  36  57  88 119 151 196 244 305 353
#     4  10  21  39  59  83 117 160 197 240 297 366
#     4  10  20  38  60  85 115 155 204 243 291 360
#     4  12  20  36  60  86 116 149 190 252 294 340
#     4  10  21  36  57  85 121 154 189 246 299 358
#     4  11  21  35  61  85 114 151 203 246 289 344
#
# _framework density 18.005493000000001
#
# number of rings (size 3 to 8) (size 9 to 14) (size 15 to 20)
#    0.000    1.250    5.000    2.250    0.000    1.000 
#    0.000    1.875    0.000    3.750    0.000    0.000 
#    0.000    0.000    0.000    0.000    0.000    0.000 
#
# Total GULP energy -178309.084244 kJ/mol
# GULP energy per Si atom -5572.158883 kJ/mol
# Density = 1.796451 g / cm^3
# Si number density = 18.005493 Si / 1000 Ang^3
#
#
#
# Elastic Constant Matrix: (Units=GPa)
#
#
# Indices 1 2 3 4 5 6 
#
# 1 83.5036 20.6148 30.7938 0.0000 1.7566 0.0000
# 2 20.6148 59.4160 9.8587 0.0000 -7.3690 0.0000
# 3 30.7938 9.8587 72.6021 0.0000 -11.2900 0.0000
# 4 0.0000 0.0000 0.0000 27.8860 0.0000 -3.8773
# 5 1.7566 -7.3690 -11.2900 0.0000 31.2291 0.0000
# 6 0.0000 0.0000 0.0000 -3.8773 0.0000 21.8867
#
#
#
# Elastic Compliance Matrix: (Units=1/GPa)
#
#
# Indices 1 2 3 4 5 6 
#
# 1 0.015756 -0.004908 -0.006712 0.000000 -0.004471 0.000000
# 2 -0.004908 0.019097 0.000246 0.000000 0.004871 0.000000
# 3 -0.006712 0.000246 0.017647 0.000000 0.006815 0.000000
# 4 0.000000 0.000000 0.000000 0.036766 0.000000 0.006513
# 5 -0.004471 0.004871 0.006815 0.000000 0.035886 0.000000
# 6 0.000000 0.000000 0.000000 0.006513 0.000000 0.046844
#
#
# Mechanical properties :
#
#
# Convention : Reuss Voigt Hill
#
# Bulk Modulus (GPa) = 33.61031 37.56180 35.58605
# Shear Modulus (GPa) = 24.43078 26.48398 25.45738
#
# Velocity S-wave (km/s) = 3.68754 3.83937 3.76422
# Velocity P-wave (km/s) = 6.06942 6.36875 6.22088
#
# Compressibility (1/GPa) = 0.02975278
#
# Stress axis : x y z
#
# Youngs Moduli (GPa) = 63.46697 52.36551 56.66716
#
# Poissons Ratio (x) = 0.25699 0.38034
# Poissons Ratio (y) = 0.31147 -0.01393
# Poissons Ratio (z) = 0.42597 -0.01288
#
# Static dielectric constant tensor:
#      x y z
#    x 1.665900 0.000000 -0.000110 
#    y 0.000000 1.612790 0.000000 
#    z -0.000110 0.000000 1.616030 
# 
# From -- ./inp_files/146065.got.cif
#   From: 2010.05.17/outbox.cif.g08.bks.cpg/sg15_74_cif.got.tgz:146065.got - 2010.06.03 18:47:42.
