data_PCOD9273848
_publ_section_title
;
Structure prediction by ZEFSAII (Michael W. Deem and Ramdas Pophale) SiO2 
 PCOD9273848
Probable space group: C 2/C
;
_chemical_formula_sum "Si O2"
_cell_formula_units_Z 52
_cell_length_a 18.464164
_cell_length_b 8.275867
_cell_length_c 13.590715
_cell_angle_alpha 90.000000
_cell_angle_beta 84.156508
_cell_angle_gamma 90.000000
_cell_volume 2065.964498
_symmetry_space_group_name_H-M "C 2/C"
_symmetry_group_IT_number 15
_symmetry_cell_setting 'monoclinic'
loop_
_space_group_symop_operation_xyz
x,y,z
-x,y,1/2-z
-x,-y,-z
x,-y,1/2+z
1/2+x,1/2+y,z
1/2-x,1/2+y,1/2-z
1/2-x,1/2-y,-z
1/2+x,1/2-y,1/2+z
loop_
_atom_site_type_symbol
_atom_site_label
_atom_site_fract_x
_atom_site_fract_y
_atom_site_fract_z
Si Si1 0.000000 0.042555 0.750000
Si Si2 0.893108 0.480556 0.736477
Si Si3 0.380793 0.325533 0.780408
Si Si4 0.204820 0.981594 0.544261
Si Si5 0.506795 0.840302 0.085544
Si Si6 0.907708 0.252483 0.918020
Si Si7 0.648124 0.832579 0.945974
O O1 0.930503 0.946985 0.711793
O O2 0.962151 0.144845 0.841923
O O3 0.853757 0.654832 0.744403
O O4 0.033995 0.538866 0.833260
O O5 0.895230 0.402059 0.844168
O O6 0.857306 0.351480 0.669617
O O7 0.317079 0.414211 0.844949
O O8 0.444618 0.275268 0.850448
O O9 0.290501 0.956041 0.523137
O O10 0.169158 0.847802 0.476384
O O11 0.165828 0.153405 0.547242
O O12 0.552727 0.225123 0.982732
O O13 0.571585 0.886986 0.002333
#
# Coordination Sequence:
#
# PCOD9273848 Si02
#       7
#     4   8   8   8   8   8   8
#     4  10  20  38  60 102 140 176 226 304 350 424
#     4  12  25  41  70 108 137 187 244 299 357 437
#     4  10  22  41  67  97 143 182 235 294 363 423
#     4   9  23  49  67 101 146 194 234 295 364 444
#     4  11  24  40  71 104 138 184 240 309 354 424
#     4  11  26  41  72 107 143 186 251 300 366 427
#     4  10  23  42  75  98 147 191 234 287 372 433
#
# _framework density 25.169841000000002
#
# number of rings (size 3 to 8) (size 9 to 14) (size 15 to 20)
#    0.000    1.538    1.538    1.385   10.769    8.000 
#    0.000    0.769    0.000    0.000    0.000    0.000 
#    0.000    0.000    0.000    0.000    0.000    0.000 
#
# Total GULP energy -145093.554612 kJ/mol
# GULP energy per Si atom -5580.521331 kJ/mol
# Density = 2.511255 g / cm^3
# Si number density = 25.169841 Si / 1000 Ang^3
#
#
#
# Elastic Constant Matrix: (Units=GPa)
#
#
# Indices 1 2 3 4 5 6 
#
# 1 88.8339 18.7614 27.0319 0.0000 -17.6809 0.0000
# 2 18.7614 72.5401 13.4328 0.0000 -7.3175 0.0000
# 3 27.0319 13.4328 110.0215 0.0000 14.4481 0.0000
# 4 0.0000 0.0000 0.0000 39.6163 0.0000 -10.5795
# 5 -17.6809 -7.3175 14.4481 0.0000 29.9527 0.0000
# 6 0.0000 0.0000 0.0000 -10.5795 0.0000 24.4134
#
#
#
# Elastic Compliance Matrix: (Units=1/GPa)
#
#
# Indices 1 2 3 4 5 6 
#
# 1 0.015375 -0.001943 -0.004986 0.000000 0.011006 0.000000
# 2 -0.001943 0.014960 -0.001792 0.000000 0.003372 0.000000
# 3 -0.004986 -0.001792 0.011719 0.000000 -0.009034 0.000000
# 4 0.000000 0.000000 0.000000 0.028546 0.000000 0.012370
# 5 0.011006 0.003372 -0.009034 0.000000 0.045064 0.000000
# 6 0.000000 0.000000 0.000000 0.012370 0.000000 0.046322
#
#
# Mechanical properties :
#
#
# Convention : Reuss Voigt Hill
#
# Bulk Modulus (GPa) = 40.62912 43.31642 41.97277
# Shear Modulus (GPa) = 26.64801 32.94109 29.79455
#
# Velocity S-wave (km/s) = 3.25734 3.62159 3.44429
# Velocity P-wave (km/s) = 5.50673 5.89363 5.70346
#
# Compressibility (1/GPa) = 0.02461289
#
# Stress axis : x y z
#
# Youngs Moduli (GPa) = 65.04054 66.84490 85.33003
#
# Poissons Ratio (x) = 0.12988 0.42543
# Poissons Ratio (y) = 0.12638 0.15291
# Poissons Ratio (z) = 0.32427 0.11978
#
# Static dielectric constant tensor:
#      x y z
#    x 2.011920 0.000000 -0.025280 
#    y 0.000000 2.222050 0.000000 
#    z -0.025280 0.000000 2.050870 
# 
# From -- ./inp_files/171342.got.cif
#   From: 2010.05.17/outbox.cif.g08.bks.cpg/sg15_86_cif.got.tgz:171342.got - 2010.06.03 18:47:42.
