data_PCOD9273716
_publ_section_title
;
Structure prediction by ZEFSAII (Michael W. Deem and Ramdas Pophale) SiO2 
 PCOD9273716
Probable space group: C 2/C
;
_chemical_formula_sum "Si O2"
_cell_formula_units_Z 32
_cell_length_a 7.266549
_cell_length_b 31.444581
_cell_length_c 5.703032
_cell_angle_alpha 90.000000
_cell_angle_beta 90.717323
_cell_angle_gamma 90.000000
_cell_volume 1303.004124
_symmetry_space_group_name_H-M "C 2/C"
_symmetry_group_IT_number 15
_symmetry_cell_setting 'monoclinic'
loop_
_space_group_symop_operation_xyz
x,y,z
-x,y,1/2-z
-x,-y,-z
x,-y,1/2+z
1/2+x,1/2+y,z
1/2-x,1/2+y,1/2-z
1/2-x,1/2-y,-z
1/2+x,1/2-y,1/2+z
loop_
_atom_site_type_symbol
_atom_site_label
_atom_site_fract_x
_atom_site_fract_y
_atom_site_fract_z
Si Si1 0.292185 0.013680 0.711534
Si Si2 0.226482 0.693008 0.615622
Si Si3 0.500000 0.239789 0.250000
Si Si4 0.700331 0.391520 0.132001
Si Si5 0.000000 0.845818 0.750000
O O1 0.500000 0.996356 0.750000
O O2 0.297316 0.063724 0.656822
O O3 0.208986 0.993073 0.472024
O O4 0.322164 0.729747 0.770137
O O5 0.052048 0.710542 0.472464
O O6 0.204186 0.648402 0.743555
O O7 0.389146 0.682908 0.429851
O O8 0.500000 0.396484 0.250000
O O9 0.651454 0.376080 0.871456
#
# Coordination Sequence:
#
# PCOD9273716 Si02
#       5
#     8   8   4   8   4
#     4  10  24  44  66  95 129 166 212 267 320 390
#     4  10  21  39  58  89 124 165 206 264 309 380
#     4  10  20  40  58  85 128 158 213 262 312 372
#     4  10  22  40  61  91 125 162 208 258 323 378
#     4  10  20  38  58  87 120 166 207 254 314 380
#
# _framework density 24.558631999999999
#
# number of rings (size 3 to 8) (size 9 to 14) (size 15 to 20)
#    0.000    2.000    3.750    0.000    7.000    4.000 
#    2.250    0.000    0.000    0.000    0.000    0.000 
#    0.000    0.000    0.000    0.000    0.000    0.000 
#
# Total GULP energy -89459.359405 kJ/mol
# GULP energy per Si atom -5591.209963 kJ/mol
# Density = 2.450274 g / cm^3
# Si number density = 24.558632 Si / 1000 Ang^3
#
#
#
# Elastic Constant Matrix: (Units=GPa)
#
#
# Indices 1 2 3 4 5 6 
#
# 1 80.0478 11.2391 28.9012 0.0000 15.0954 0.0000
# 2 11.2391 172.7948 85.7838 0.0000 26.2209 0.0000
# 3 28.9012 85.7838 186.4396 0.0000 29.2914 0.0000
# 4 0.0000 0.0000 0.0000 38.2996 0.0000 9.7979
# 5 15.0954 26.2209 29.2914 0.0000 31.4723 0.0000
# 6 0.0000 0.0000 0.0000 9.7979 0.0000 32.1353
#
#
#
# Elastic Compliance Matrix: (Units=1/GPa)
#
#
# Indices 1 2 3 4 5 6 
#
# 1 0.014079 0.000781 -0.001615 0.000000 -0.005901 0.000000
# 2 0.000781 0.007900 -0.003119 0.000000 -0.004054 0.000000
# 3 -0.001615 -0.003119 0.007636 0.000000 -0.003733 0.000000
# 4 0.000000 0.000000 0.000000 0.028319 0.000000 -0.008634
# 5 -0.005901 -0.004054 -0.003733 0.000000 0.041456 0.000000
# 6 0.000000 0.000000 0.000000 -0.008634 0.000000 0.033751
#
#
# Mechanical properties :
#
#
# Convention : Reuss Voigt Hill
#
# Bulk Modulus (GPa) = 46.06380 76.79227 61.42804
# Shear Modulus (GPa) = 33.71956 41.27197 37.49576
#
# Velocity S-wave (km/s) = 3.70945 4.10390 3.91165
# Velocity P-wave (km/s) = 6.09460 7.33436 6.74303
#
# Compressibility (1/GPa) = 0.02170902
#
# Stress axis : x y z
#
# Youngs Moduli (GPa) = 71.02957 126.58179 130.96320
#
# Poissons Ratio (x) = -0.09891 0.21149
# Poissons Ratio (y) = -0.05550 0.40850
# Poissons Ratio (z) = 0.11471 0.39483
#
# Static dielectric constant tensor:
#      x y z
#    x 1.960990 0.000000 -0.031430 
#    y 0.000000 1.868660 0.000000 
#    z -0.031430 0.000000 2.051260 
# 
# From -- ./inp_files/2406.got.cif
#   From: 2010.05.17/outbox.cif.g08.bks.cpg/sg15_2_cif.got.tgz:2406.got - 2010.06.03 18:47:42.
