data_PCOD9273862
_publ_section_title
;
Structure prediction by ZEFSAII (Michael W. Deem and Ramdas Pophale) SiO2 
 PCOD9273862
Probable space group: C 2/C
;
_chemical_formula_sum "Si O2"
_cell_formula_units_Z 56
_cell_length_a 8.567020
_cell_length_b 26.095869
_cell_length_c 16.240948
_cell_angle_alpha 90.000000
_cell_angle_beta 60.135634
_cell_angle_gamma 90.000000
_cell_volume 3148.730549
_symmetry_space_group_name_H-M "C 2/C"
_symmetry_group_IT_number 15
_symmetry_cell_setting 'monoclinic'
loop_
_space_group_symop_operation_xyz
x,y,z
-x,y,1/2-z
-x,-y,-z
x,-y,1/2+z
1/2+x,1/2+y,z
1/2-x,1/2+y,1/2-z
1/2-x,1/2-y,-z
1/2+x,1/2-y,1/2+z
loop_
_atom_site_type_symbol
_atom_site_label
_atom_site_fract_x
_atom_site_fract_y
_atom_site_fract_z
Si Si1 0.500000 0.412928 0.250000
Si Si2 0.000000 0.623234 0.750000
Si Si3 0.667022 0.434273 0.916745
Si Si4 0.810007 0.272883 0.845844
Si Si5 0.337417 0.839691 0.126210
Si Si6 0.839909 0.051577 0.624413
Si Si7 0.453236 0.859980 0.921582
Si Si8 0.664132 0.358069 0.768809
O O1 0.662528 0.376232 0.178098
O O2 0.568373 0.445707 0.309458
O O3 0.066871 0.656015 0.810463
O O4 0.164975 0.587468 0.676557
O O5 0.706052 0.493732 0.889231
O O6 0.829944 0.406198 0.920838
O O7 0.641795 0.405152 0.837267
O O8 0.488374 0.429562 0.019611
O O9 0.722681 0.217788 0.879232
O O10 0.857494 0.308089 0.912110
O O11 0.686213 0.307935 0.819919
O O12 0.000000 0.265046 0.750000
O O13 0.457373 0.859040 0.018755
O O14 0.648372 0.863446 0.829374
O O15 0.500000 0.354124 0.750000
#
# Coordination Sequence:
#
# PCOD9273862 Si02
#       8
#     4   4   8   8   8   8   8   8
#     4  10  20  38  60  82 116 156 196 236 280 358
#     4  10  26  36  56  88 128 154 194 248 292 352
#     4  10  21  40  65  82 120 154 198 245 295 348
#     4   9  19  37  62  86 118 153 197 235 295 355
#     4  11  20  39  60  84 120 156 196 238 293 344
#     4  10  22  40  59  90 117 156 200 240 296 351
#     4  10  21  39  63  91 111 158 198 242 295 357
#     4  10  23  38  60  90 120 149 196 250 295 353
#
# _framework density 17.784943999999999
#
# number of rings (size 3 to 8) (size 9 to 14) (size 15 to 20)
#    0.000    2.000    2.143    1.714    6.000    0.000 
#    0.000    1.429    0.000    0.000    0.000    0.000 
#    0.000    0.000    0.000    0.000    0.000    0.000 
#
# Total GULP energy -156255.390455 kJ/mol
# GULP energy per Si atom -5580.549659 kJ/mol
# Density = 1.774446 g / cm^3
# Si number density = 17.784944 Si / 1000 Ang^3
#
#
#
# Elastic Constant Matrix: (Units=GPa)
#
#
# Indices 1 2 3 4 5 6 
#
# 1 97.6419 39.9569 40.3371 0.0000 8.5180 0.0000
# 2 39.9569 85.0868 46.8132 0.0000 -3.8719 0.0000
# 3 40.3371 46.8132 121.0688 0.0000 7.4150 0.0000
# 4 0.0000 0.0000 0.0000 20.1192 0.0000 -8.0160
# 5 8.5180 -3.8719 7.4150 0.0000 24.3162 0.0000
# 6 0.0000 0.0000 0.0000 -8.0160 0.0000 3.4223
#
#
#
# Elastic Compliance Matrix: (Units=1/GPa)
#
#
# Indices 1 2 3 4 5 6 
#
# 1 0.013845 -0.005545 -0.002158 0.000000 -0.005075 0.000000
# 2 -0.005545 0.017586 -0.005343 0.000000 0.006372 0.000000
# 3 -0.002158 -0.005343 0.011261 0.000000 -0.003529 0.000000
# 4 0.000000 0.000000 0.000000 0.744341 0.000000 1.743449
# 5 -0.005075 0.006372 -0.003529 0.000000 0.044993 0.000000
# 6 0.000000 0.000000 0.000000 1.743449 0.000000 4.375831
#
#
# Mechanical properties :
#
#
# Convention : Reuss Voigt Hill
#
# Bulk Modulus (GPa) = 60.24040 62.00131 61.12085
# Shear Modulus (GPa) = 0.95429 21.35092 11.15261
#
# Velocity S-wave (km/s) = 0.73331 3.46859 2.50688
# Velocity P-wave (km/s) = 5.88745 7.13995 6.54374
#
# Compressibility (1/GPa) = 0.01660015
#
# Stress axis : x y z
#
# Youngs Moduli (GPa) = 72.22892 56.86273 88.80500
#
# Poissons Ratio (x) = 0.31532 0.19162
# Poissons Ratio (y) = 0.40053 0.47446
# Poissons Ratio (z) = 0.15585 0.30380
#
# Static dielectric constant tensor:
#      x y z
#    x 1.580530 0.000000 0.006710 
#    y 0.000000 1.590260 0.000000 
#    z 0.006710 0.000000 1.594040 
# 
# From -- ./inp_files/137772.got.cif
#   From: 2010.05.17/outbox.cif.g08.bks.cpg/sg15_69_cif.got.tgz:137772.got - 2010.06.03 18:47:42.
