data_PCOD9273161
_publ_section_title
;
Structure prediction by ZEFSAII (Michael W. Deem and Ramdas Pophale) SiO2 
 PCOD9273161
Probable space group: C 2/C
;
_chemical_formula_sum "Si O2"
_cell_formula_units_Z 56
_cell_length_a 17.864384
_cell_length_b 12.085032
_cell_length_c 15.169649
_cell_angle_alpha 90.000000
_cell_angle_beta 124.356573
_cell_angle_gamma 90.000000
_cell_volume 2703.648814
_symmetry_space_group_name_H-M "C 2/C"
_symmetry_group_IT_number 15
_symmetry_cell_setting 'monoclinic'
loop_
_space_group_symop_operation_xyz
x,y,z
-x,y,1/2-z
-x,-y,-z
x,-y,1/2+z
1/2+x,1/2+y,z
1/2-x,1/2+y,1/2-z
1/2-x,1/2-y,-z
1/2+x,1/2-y,1/2+z
loop_
_atom_site_type_symbol
_atom_site_label
_atom_site_fract_x
_atom_site_fract_y
_atom_site_fract_z
Si Si1 0.238835 0.366378 0.573438
Si Si2 0.000000 0.593167 0.750000
Si Si3 0.696738 0.985820 0.358934
Si Si4 0.482686 0.498320 0.884361
Si Si5 0.094222 0.782215 0.906674
Si Si6 0.500000 0.679870 0.750000
Si Si7 0.771901 0.051724 0.726654
Si Si8 0.701576 0.763151 0.874044
O O1 0.228649 0.435155 0.473843
O O2 0.165869 0.267531 0.524297
O O3 0.339199 0.313338 0.631109
O O4 0.223392 0.452625 0.641139
O O5 0.088290 0.523799 0.786605
O O6 0.029689 0.678688 0.845377
O O7 0.725170 0.112307 0.363451
O O8 0.735716 0.925496 0.299714
O O9 0.534622 0.388565 0.887253
O O10 0.516534 0.599988 0.845824
O O11 0.375145 0.508231 0.799473
O O12 0.500000 0.500000 0.000000
O O13 0.592325 0.748958 0.803348
O O14 0.766280 0.164277 0.667384
O O15 0.750000 0.750000 0.000000
#
# Coordination Sequence:
#
# PCOD9273161 Si02
#       8
#     8   4   8   8   8   4   8   8
#     4  10  21  39  62  93 130 171 220 271 318 400
#     4  10  22  42  62  92 126 172 202 276 328 390
#     4  11  24  42  66  93 131 165 228 268 328 409
#     4  11  23  38  64  95 130 168 224 280 321 393
#     4  10  20  37  63  87 130 170 207 265 338 371
#     4  10  24  42  64  96 130 178 232 272 340 398
#     4  11  24  40  67  99 125 175 224 272 333 399
#     4  11  23  43  71  93 137 185 218 274 345 393
#
# _framework density 20.712748000000001
#
# number of rings (size 3 to 8) (size 9 to 14) (size 15 to 20)
#    0.000    1.429    1.429    4.286    2.000    6.857 
#    0.000    2.857    0.000    0.000    0.000    0.000 
#    0.000    0.000    0.000    0.000    0.000    0.000 
#
# Total GULP energy -156330.847409 kJ/mol
# GULP energy per Si atom -5583.244550 kJ/mol
# Density = 2.066561 g / cm^3
# Si number density = 20.712748 Si / 1000 Ang^3
#
#
#
# Elastic Constant Matrix: (Units=GPa)
#
#
# Indices 1 2 3 4 5 6 
#
# 1 35.0344 4.7346 6.6151 0.0000 -1.7366 0.0000
# 2 4.7346 92.4027 34.6872 0.0000 3.1844 0.0000
# 3 6.6151 34.6872 88.0318 0.0000 -11.7220 0.0000
# 4 0.0000 0.0000 0.0000 35.9074 0.0000 9.6927
# 5 -1.7366 3.1844 -11.7220 0.0000 25.3864 0.0000
# 6 0.0000 0.0000 0.0000 9.6927 0.0000 24.9408
#
#
#
# Elastic Compliance Matrix: (Units=1/GPa)
#
#
# Indices 1 2 3 4 5 6 
#
# 1 0.029044 -0.000918 -0.001642 0.000000 0.001344 0.000000
# 2 -0.000918 0.013156 -0.005693 0.000000 -0.004342 0.000000
# 3 -0.001642 -0.005693 0.014711 0.000000 0.007394 0.000000
# 4 0.000000 0.000000 0.000000 0.031113 0.000000 -0.012092
# 5 0.001344 -0.004342 0.007394 0.000000 0.043442 0.000000
# 6 0.000000 0.000000 0.000000 -0.012092 0.000000 0.044794
#
#
# Mechanical properties :
#
#
# Convention : Reuss Voigt Hill
#
# Bulk Modulus (GPa) = 24.74950 34.17143 29.46047
# Shear Modulus (GPa) = 24.24428 28.54239 26.39333
#
# Velocity S-wave (km/s) = 3.42497 3.71618 3.57354
# Velocity P-wave (km/s) = 5.25504 5.91159 5.59296
#
# Compressibility (1/GPa) = 0.04040485
#
# Stress axis : x y z
#
# Youngs Moduli (GPa) = 34.43046 76.01122 67.97776
#
# Poissons Ratio (x) = 0.06979 0.11160
# Poissons Ratio (y) = 0.03161 0.38700
# Poissons Ratio (z) = 0.05653 0.43273
#
# Static dielectric constant tensor:
#      x y z
#    x 1.747190 0.000000 0.007520 
#    y 0.000000 1.750920 0.000000 
#    z 0.007520 0.000000 1.785490 
# 
# From -- ./inp_files/161454.got.cif
#   From: 2010.05.17/outbox.cif.g08.bks.cpg/sg15_81_cif.got.tgz:161454.got - 2010.06.03 18:47:42.
