data_PCOD9273362
_publ_section_title
;
Structure prediction by ZEFSAII (Michael W. Deem and Ramdas Pophale) SiO2 
 PCOD9273362
Probable space group: C 2/C
;
_chemical_formula_sum "Si O2"
_cell_formula_units_Z 56
_cell_length_a 17.260347
_cell_length_b 8.985418
_cell_length_c 27.342688
_cell_angle_alpha 90.000000
_cell_angle_beta 141.118178
_cell_angle_gamma 90.000000
_cell_volume 2661.903415
_symmetry_space_group_name_H-M "C 2/C"
_symmetry_group_IT_number 15
_symmetry_cell_setting 'monoclinic'
loop_
_space_group_symop_operation_xyz
x,y,z
-x,y,1/2-z
-x,-y,-z
x,-y,1/2+z
1/2+x,1/2+y,z
1/2-x,1/2+y,1/2-z
1/2-x,1/2-y,-z
1/2+x,1/2-y,1/2+z
loop_
_atom_site_type_symbol
_atom_site_label
_atom_site_fract_x
_atom_site_fract_y
_atom_site_fract_z
Si Si1 0.143480 0.080992 0.315053
Si Si2 0.570152 0.714999 0.645518
Si Si3 0.566307 0.141392 0.331035
Si Si4 0.238535 0.493143 0.222295
Si Si5 0.440579 0.829215 0.295784
Si Si6 0.662475 0.371802 0.933342
Si Si7 0.677529 0.341535 0.506191
O O1 0.133170 0.247790 0.284977
O O2 0.202226 0.079394 0.397911
O O3 0.000000 0.034924 0.250000
O O4 0.217108 0.983037 0.311913
O O5 0.490598 0.756200 0.654430
O O6 0.641118 0.558661 0.687314
O O7 0.460657 0.717741 0.551162
O O8 0.672644 0.845469 0.693046
O O9 0.500000 0.190869 0.250000
O O10 0.714758 0.146383 0.400686
O O11 0.519608 0.972569 0.318185
O O12 0.138100 0.384855 0.196885
O O13 0.531868 0.703203 0.359132
O O14 0.750000 0.250000 0.000000
O O15 0.656018 0.502090 0.969105
O O16 0.750000 0.250000 0.500000
#
# Coordination Sequence:
#
# PCOD9273362 Si02
#       7
#     8   8   8   8   8   8   8
#     4  10  21  37  66  97 127 167 232 272 320 398
#     4  10  22  37  63  90 134 173 213 271 340 395
#     4  10  20  37  65  93 126 168 225 274 332 398
#     4  11  21  40  64  96 133 178 217 272 335 404
#     4  10  20  37  64  96 130 169 219 273 331 397
#     4  11  21  38  67  93 127 174 227 273 331 393
#     4  10  22  39  61  96 133 168 219 283 330 375
#
# _framework density 21.037578
#
# number of rings (size 3 to 8) (size 9 to 14) (size 15 to 20)
#    0.000    1.714    2.857    3.000    0.000    2.857 
#    0.000    0.714    3.143    4.286    0.000    0.000 
#    0.000    0.000    0.000    0.000    0.000    0.000 
#
# Total GULP energy -155978.990512 kJ/mol
# GULP energy per Si atom -5570.678233 kJ/mol
# Density = 2.098970 g / cm^3
# Si number density = 21.037578 Si / 1000 Ang^3
#
#
#
# Elastic Constant Matrix: (Units=GPa)
#
#
# Indices 1 2 3 4 5 6 
#
# 1 91.3203 10.3823 32.4016 0.0000 10.6618 0.0000
# 2 10.3823 66.3549 13.7258 0.0000 19.4375 0.0000
# 3 32.4016 13.7258 128.3864 0.0000 13.0063 0.0000
# 4 0.0000 0.0000 0.0000 -7.6656 0.0000 13.8995
# 5 10.6618 19.4375 13.0063 0.0000 30.1656 0.0000
# 6 0.0000 0.0000 0.0000 13.8995 0.0000 33.0616
#
#
#
# Elastic Compliance Matrix: (Units=1/GPa)
#
#
# Indices 1 2 3 4 5 6 
#
# 1 0.012322 -0.000529 -0.002767 0.000000 -0.002821 0.000000
# 2 -0.000529 0.018680 -0.000693 0.000000 -0.011551 0.000000
# 3 -0.002767 -0.000693 0.008802 0.000000 -0.002370 0.000000
# 4 0.000000 0.000000 0.000000 -0.074024 0.000000 0.031121
# 5 -0.002821 -0.011551 -0.002370 0.000000 0.042612 0.000000
# 6 0.000000 0.000000 0.000000 0.031121 0.000000 0.017163
#
#
# Mechanical properties :
#
#
# Convention : Reuss Voigt Hill
#
# Bulk Modulus (GPa) = 31.42287 44.34233 37.88260
# Shear Modulus (GPa) = 113.26838 26.41577 69.84208
#
# Velocity S-wave (km/s) = 7.34560 3.54736 5.76808
# Velocity P-wave (km/s) = 9.32270 6.15644 7.89983
#
# Compressibility (1/GPa) = 0.03182395
#
# Stress axis : x y z
#
# Youngs Moduli (GPa) = 81.15638 53.53216 113.61519
#
# Poissons Ratio (x) = 0.02833 0.31442
# Poissons Ratio (y) = 0.04295 0.07878
# Poissons Ratio (z) = 0.22459 0.03712
#
# Static dielectric constant tensor:
#      x y z
#    x 1.811190 0.000000 -0.008170 
#    y 0.000000 1.925240 0.000000 
#    z -0.008170 0.000000 1.894490 
# 
# From -- ./inp_files/298551.got.cif
#   From: 2010.05.17/outbox.cif.g08.bks.cpg/sg15_150_cif.got.tgz:298551.got - 2010.06.03 18:47:42.
