data_PCOD9273348
_publ_section_title
;
Structure prediction by ZEFSAII (Michael W. Deem and Ramdas Pophale) SiO2 
 PCOD9273348
Probable space group: C 2/C
;
_chemical_formula_sum "Si O2"
_cell_formula_units_Z 40
_cell_length_a 19.506057
_cell_length_b 12.074874
_cell_length_c 22.036603
_cell_angle_alpha 90.000000
_cell_angle_beta 21.898208
_cell_angle_gamma 90.000000
_cell_volume 1935.786961
_symmetry_space_group_name_H-M "C 2/C"
_symmetry_group_IT_number 15
_symmetry_cell_setting 'monoclinic'
loop_
_space_group_symop_operation_xyz
x,y,z
-x,y,1/2-z
-x,-y,-z
x,-y,1/2+z
1/2+x,1/2+y,z
1/2-x,1/2+y,1/2-z
1/2-x,1/2-y,-z
1/2+x,1/2-y,1/2+z
loop_
_atom_site_type_symbol
_atom_site_label
_atom_site_fract_x
_atom_site_fract_y
_atom_site_fract_z
Si Si1 0.371404 0.085321 0.238013
Si Si2 0.088317 0.369675 0.240019
Si Si3 0.006622 0.187703 0.406643
Si Si4 0.779839 0.492588 0.192829
Si Si5 0.130785 0.277605 0.434939
O O1 0.235109 0.174125 0.378513
O O2 0.468042 0.996867 0.201065
O O3 0.261102 0.007620 0.280349
O O4 0.503627 0.160050 0.087524
O O5 0.029663 0.292293 0.343855
O O6 0.000000 0.330017 0.250000
O O7 0.308380 0.363080 0.056490
O O8 0.030436 0.229706 0.456785
O O9 0.163200 0.095668 0.263928
O O10 0.733607 0.373226 0.203479
O O11 0.000000 0.500000 0.000000
#
# Coordination Sequence:
#
# PCOD9273348 Si02
#       5
#     8   8   8   8   8
#     4  10  22  36  62  92 126 153 205 251 320 366
#     4  12  26  43  60  88 129 173 216 250 294 377
#     4  11  23  40  67  93 125 163 209 258 322 361
#     4   9  18  35  62  93 124 148 192 260 319 363
#     4  10  20  37  64  95 123 151 194 272 319 367
#
# _framework density 20.663430999999999
#
# number of rings (size 3 to 8) (size 9 to 14) (size 15 to 20)
#    0.000    1.600    2.000    4.200    5.600    1.600 
#    0.000    1.000    0.000    0.000    0.000    0.000 
#    0.000    0.000    0.000    0.000    0.000    0.000 
#
# Total GULP energy -111614.036307 kJ/mol
# GULP energy per Si atom -5580.701815 kJ/mol
# Density = 2.061640 g / cm^3
# Si number density = 20.663431 Si / 1000 Ang^3
#
#
#
# Elastic Constant Matrix: (Units=GPa)
#
#
# Indices 1 2 3 4 5 6 
#
# 1 45.9300 18.6631 21.1337 0.0018 2.9153 0.0006
# 2 18.6631 112.3715 43.1224 -0.0070 -4.7092 0.0015
# 3 21.1337 43.1224 92.3552 -0.0186 -5.0509 -0.0001
# 4 0.0018 -0.0070 -0.0186 41.0435 -0.0003 0.7267
# 5 2.9153 -4.7092 -5.0509 -0.0003 8.0012 0.0009
# 6 0.0006 0.0015 -0.0001 0.7267 0.0009 13.9509
#
#
#
# Elastic Compliance Matrix: (Units=1/GPa)
#
#
# Indices 1 2 3 4 5 6 
#
# 1 0.026421 -0.002897 -0.005503 -0.000004 -0.014806 0.000000
# 2 -0.002897 0.011244 -0.004317 0.000000 0.004948 -0.000001
# 3 -0.005503 -0.004317 0.014576 0.000006 0.008666 0.000000
# 4 -0.000004 0.000000 0.000006 0.024387 0.000006 -0.001270
# 5 -0.014806 0.004948 0.008666 0.000006 0.138759 -0.000009
# 6 0.000000 -0.000001 0.000000 -0.001270 -0.000009 0.071746
#
#
# Mechanical properties :
#
#
# Convention : Reuss Voigt Hill
#
# Bulk Modulus (GPa) = 37.30121 46.27722 41.78922
# Shear Modulus (GPa) = 15.55197 23.78162 19.66679
#
# Velocity S-wave (km/s) = 2.74639 3.39618 3.08842
# Velocity P-wave (km/s) = 5.30546 6.15004 5.74330
#
# Compressibility (1/GPa) = 0.02680878
#
# Stress axis : x y z
#
# Youngs Moduli (GPa) = 37.84838 88.93637 68.60370
#
# Poissons Ratio (x) = 0.25763 0.37754
# Poissons Ratio (y) = 0.10964 0.29613
# Poissons Ratio (z) = 0.20828 0.38390
#
# Static dielectric constant tensor:
#      x y z
#    x 1.695590 -0.000020 0.123790 
#    y -0.000020 1.814630 0.000090 
#    z 0.123790 0.000090 1.168000 
# 
# From -- ./inp_files/46239.got.cif
#   From: 2010.05.17/outbox.cif.g08.bks.cpg/sg15_24_cif.got.tgz:46239.got - 2010.06.03 18:47:42.
