data_PCOD9273285
_publ_section_title
;
Structure prediction by ZEFSAII (Michael W. Deem and Ramdas Pophale) SiO2 
 PCOD9273285
Probable space group: C 2/C
;
_chemical_formula_sum "Si O2"
_cell_formula_units_Z 64
_cell_length_a 22.526676
_cell_length_b 15.033329
_cell_length_c 15.292831
_cell_angle_alpha 90.000000
_cell_angle_beta 28.785553
_cell_angle_gamma 90.000000
_cell_volume 2493.824852
_symmetry_space_group_name_H-M "C 2/C"
_symmetry_group_IT_number 15
_symmetry_cell_setting 'monoclinic'
loop_
_space_group_symop_operation_xyz
x,y,z
-x,y,1/2-z
-x,-y,-z
x,-y,1/2+z
1/2+x,1/2+y,z
1/2-x,1/2+y,1/2-z
1/2-x,1/2-y,-z
1/2+x,1/2-y,1/2+z
loop_
_atom_site_type_symbol
_atom_site_label
_atom_site_fract_x
_atom_site_fract_y
_atom_site_fract_z
Si Si1 0.125312 0.360074 0.033399
Si Si2 0.283534 0.578773 0.481502
Si Si3 0.390247 0.412528 0.447374
Si Si4 0.987859 0.841418 0.499330
Si Si5 0.610912 0.170593 0.942895
Si Si6 0.267464 0.760380 0.876853
Si Si7 0.522034 0.005603 0.369831
Si Si8 0.641738 0.329467 0.453532
O O1 0.248117 0.381932 0.931543
O O2 0.086886 0.451782 0.037018
O O3 0.000000 0.336709 0.250000
O O4 0.141141 0.277879 0.946030
O O5 0.366128 0.498080 0.415072
O O6 0.341009 0.657069 0.465717
O O7 0.146905 0.542114 0.681862
O O8 0.500000 0.366207 0.250000
O O9 0.434366 0.407765 0.493348
O O10 0.258596 0.362195 0.616355
O O11 0.116642 0.799372 0.298781
O O12 0.026682 0.869526 0.547800
O O13 0.911752 0.749371 0.596984
O O14 0.653398 0.216149 0.975440
O O15 0.734570 0.124769 0.745461
O O16 0.498100 0.109915 0.116774
O O17 0.250000 0.750000 0.000000
O O18 0.500000 0.000000 0.500000
#
# Coordination Sequence:
#
# PCOD9273285 Si02
#       8
#     8   8   8   8   8   8   8   8
#     4  10  25  44  71  97 128 177 225 281 328 391
#     4  11  25  43  64  98 131 172 220 273 328 391
#     4  11  23  40  60  95 137 168 215 262 329 400
#     4  10  22  40  65  95 127 175 211 266 334 392
#     4  10  22  38  65  99 123 167 211 269 336 384
#     4  10  20  37  64  88 129 170 208 263 318 406
#     4  11  21  42  70  94 128 161 216 277 326 385
#     4  11  23  44  67  93 131 169 231 269 324 399
#
# _framework density 25.663391000000001
#
# number of rings (size 3 to 8) (size 9 to 14) (size 15 to 20)
#    0.000    1.500    2.500    1.875    3.500    3.000 
#    4.500    0.000    0.000    0.000    0.000    0.000 
#    0.000    0.000    0.000    0.000    0.000    0.000 
#
# Total GULP energy -178339.104868 kJ/mol
# GULP energy per Si atom -5573.097027 kJ/mol
# Density = 2.560498 g / cm^3
# Si number density = 25.663391 Si / 1000 Ang^3
#
#
#
# Elastic Constant Matrix: (Units=GPa)
#
#
# Indices 1 2 3 4 5 6 
#
# 1 190.6393 22.2405 9.2797 0.0000 -33.9268 0.0000
# 2 22.2405 70.0925 4.5531 0.0000 -15.4672 0.0000
# 3 9.2797 4.5531 66.1646 0.0000 -30.8070 0.0000
# 4 0.0000 0.0000 0.0000 21.3791 0.0000 -1.3119
# 5 -33.9268 -15.4672 -30.8070 0.0000 38.6728 0.0000
# 6 0.0000 0.0000 0.0000 -1.3119 0.0000 35.8609
#
#
#
# Elastic Compliance Matrix: (Units=1/GPa)
#
#
# Indices 1 2 3 4 5 6 
#
# 1 0.006542 -0.000561 0.002685 0.000000 0.007654 0.000000
# 2 -0.000561 0.016059 0.002758 0.000000 0.008127 0.000000
# 3 0.002685 0.002758 0.025684 0.000000 0.023918 0.000000
# 4 0.000000 0.000000 0.000000 0.046880 0.000000 0.001715
# 5 0.007654 0.008127 0.023918 0.000000 0.054876 0.000000
# 6 0.000000 0.000000 0.000000 0.001715 0.000000 0.027948
#
#
# Mechanical properties :
#
#
# Convention : Reuss Voigt Hill
#
# Bulk Modulus (GPa) = 17.22723 44.33811 30.78267
# Shear Modulus (GPa) = 26.65567 38.57076 32.61322
#
# Velocity S-wave (km/s) = 3.22633 3.88099 3.56871
# Velocity P-wave (km/s) = 4.53941 6.11532 5.38532
#
# Compressibility (1/GPa) = 0.05804764
#
# Stress axis : x y z
#
# Youngs Moduli (GPa) = 152.84991 62.26931 38.93457
#
# Poissons Ratio (x) = 0.03496 -0.10452
# Poissons Ratio (y) = 0.08581 -0.10737
# Poissons Ratio (z) = -0.41034 -0.17172
#
# Static dielectric constant tensor:
#      x y z
#    x 2.049600 0.000000 -0.026890 
#    y 0.000000 2.482630 0.000000 
#    z -0.026890 0.000000 2.067980 
# 
# From -- ./inp_files/219709.got.cif
#   From: 2010.05.17/outbox.cif.g08.bks.cpg/sg15_110_cif.got.tgz:219709.got - 2010.06.03 18:47:42.
