data_PCOD9273474
_publ_section_title
;
Structure prediction by ZEFSAII (Michael W. Deem and Ramdas Pophale) SiO2 
 PCOD9273474
Probable space group: C 2/C
;
_chemical_formula_sum "Si O2"
_cell_formula_units_Z 56
_cell_length_a 14.345251
_cell_length_b 17.874820
_cell_length_c 13.119913
_cell_angle_alpha 90.000000
_cell_angle_beta 56.986318
_cell_angle_gamma 90.000000
_cell_volume 2821.011262
_symmetry_space_group_name_H-M "C 2/C"
_symmetry_group_IT_number 15
_symmetry_cell_setting 'monoclinic'
loop_
_space_group_symop_operation_xyz
x,y,z
-x,y,1/2-z
-x,-y,-z
x,-y,1/2+z
1/2+x,1/2+y,z
1/2-x,1/2+y,1/2-z
1/2-x,1/2-y,-z
1/2+x,1/2-y,1/2+z
loop_
_atom_site_type_symbol
_atom_site_label
_atom_site_fract_x
_atom_site_fract_y
_atom_site_fract_z
Si Si1 0.993589 0.146698 0.028248
Si Si2 0.794245 0.356656 0.585681
Si Si3 0.717451 0.440017 0.834678
Si Si4 0.537826 0.224045 0.377572
Si Si5 0.110609 0.259329 0.246532
Si Si6 0.675256 0.810763 0.601230
Si Si7 0.749948 0.605470 0.888481
O O1 0.914826 0.075069 0.082831
O O2 0.930989 0.208849 0.135027
O O3 0.999430 0.191157 0.918684
O O4 0.120587 0.128875 0.978956
O O5 0.762462 0.412103 0.697772
O O6 0.902226 0.311556 0.560084
O O7 0.695058 0.295864 0.637239
O O8 0.803718 0.393280 0.469510
O O9 0.764737 0.385154 0.894838
O O10 0.750249 0.524240 0.838450
O O11 0.432584 0.175882 0.404638
O O12 0.627504 0.223762 0.234359
O O13 0.182967 0.333787 0.218697
O O14 0.000000 0.277421 0.250000
O O15 0.750000 0.750000 0.500000
#
# Coordination Sequence:
#
# PCOD9273474 Si02
#       7
#     8   8   8   8   8   8   8
#     4  11  21  39  66  96 123 165 215 263 315 385
#     4  10  21  42  62  89 126 168 208 261 317 378
#     4  10  24  41  61  96 133 164 210 267 330 380
#     4  10  20  37  66  90 118 165 216 264 300 366
#     4  11  21  37  66  92 121 163 217 257 311 385
#     4  10  20  40  64  89 125 168 218 258 304 381
#     4  12  23  42  63  95 136 167 203 277 328 377
#
# _framework density 19.851037000000002
#
# number of rings (size 3 to 8) (size 9 to 14) (size 15 to 20)
#    0.000    1.429    4.286    1.714    0.000    0.000 
#   10.286    0.714    0.000    0.000    0.000    0.000 
#    0.000    0.000    0.000    0.000    0.000    0.000 
#
# Total GULP energy -156240.661380 kJ/mol
# GULP energy per Si atom -5580.023621 kJ/mol
# Density = 1.980586 g / cm^3
# Si number density = 19.851037 Si / 1000 Ang^3
#
#
#
# Elastic Constant Matrix: (Units=GPa)
#
#
# Indices 1 2 3 4 5 6 
#
# 1 75.1643 13.9536 13.9492 0.0000 -3.7769 0.0000
# 2 13.9536 120.7260 34.1645 0.0000 -2.7868 0.0000
# 3 13.9492 34.1645 47.3222 0.0000 -9.9003 0.0000
# 4 0.0000 0.0000 0.0000 24.9682 0.0000 -0.1360
# 5 -3.7769 -2.7868 -9.9003 0.0000 18.1895 0.0000
# 6 0.0000 0.0000 0.0000 -0.1360 0.0000 28.1643
#
#
#
# Elastic Compliance Matrix: (Units=1/GPa)
#
#
# Indices 1 2 3 4 5 6 
#
# 1 0.014119 -0.000612 -0.003528 0.000000 0.000918 0.000000
# 2 -0.000612 0.010566 -0.008053 0.000000 -0.002891 0.000000
# 3 -0.003528 -0.008053 0.031117 0.000000 0.014970 0.000000
# 4 0.000000 0.000000 0.000000 0.040052 0.000000 0.000193
# 5 0.000918 -0.002891 0.014970 0.000000 0.062872 0.000000
# 6 0.000000 0.000000 0.000000 0.000193 0.000000 0.035507
#
#
# Mechanical properties :
#
#
# Convention : Reuss Voigt Hill
#
# Bulk Modulus (GPa) = 31.83027 40.81634 36.32330
# Shear Modulus (GPa) = 21.82541 26.34075 24.08308
#
# Velocity S-wave (km/s) = 3.31941 3.64664 3.48687
# Velocity P-wave (km/s) = 5.54623 6.19166 5.87781
#
# Compressibility (1/GPa) = 0.03141664
#
# Stress axis : x y z
#
# Youngs Moduli (GPa) = 70.82826 94.64242 32.13658
#
# Poissons Ratio (x) = 0.05796 0.11337
# Poissons Ratio (y) = 0.04337 0.25878
# Poissons Ratio (z) = 0.24986 0.76212
#
# Static dielectric constant tensor:
#      x y z
#    x 1.759930 0.000000 -0.010870 
#    y 0.000000 1.688170 0.000000 
#    z -0.010870 0.000000 1.744830 
# 
# From -- ./inp_files/155146.got.cif
#   From: 2010.05.17/outbox.cif.g08.bks.cpg/sg15_78_cif.got.tgz:155146.got - 2010.06.03 18:47:42.
