data_PCOD9273619
_publ_section_title
;
Structure prediction by ZEFSAII (Michael W. Deem and Ramdas Pophale) SiO2 
 PCOD9273619
Probable space group: C 2/C
;
_chemical_formula_sum "Si O2"
_cell_formula_units_Z 36
_cell_length_a 6.779416
_cell_length_b 12.012403
_cell_length_c 20.936689
_cell_angle_alpha 90.000000
_cell_angle_beta 104.552235
_cell_angle_gamma 90.000000
_cell_volume 1650.323876
_symmetry_space_group_name_H-M "C 2/C"
_symmetry_group_IT_number 15
_symmetry_cell_setting 'monoclinic'
loop_
_space_group_symop_operation_xyz
x,y,z
-x,y,1/2-z
-x,-y,-z
x,-y,1/2+z
1/2+x,1/2+y,z
1/2-x,1/2+y,1/2-z
1/2-x,1/2-y,-z
1/2+x,1/2-y,1/2+z
loop_
_atom_site_type_symbol
_atom_site_label
_atom_site_fract_x
_atom_site_fract_y
_atom_site_fract_z
Si Si1 0.411171 0.753358 0.957062
Si Si2 0.000000 0.396540 0.250000
Si Si3 0.826539 0.797779 0.184978
Si Si4 0.638118 0.429473 0.138620
Si Si5 0.747942 0.627946 0.062393
O O1 0.320576 0.693190 0.887607
O O2 0.524029 0.868861 0.949122
O O3 0.250000 0.750000 0.000000
O O4 0.594633 0.675095 0.997044
O O5 0.873892 0.326252 0.291465
O O6 0.821767 0.462950 0.200146
O O7 0.770481 0.713301 0.123870
O O8 0.000000 0.758967 0.250000
O O9 0.929853 0.907714 0.160372
O O10 0.653797 0.516270 0.082844
#
# Coordination Sequence:
#
# PCOD9273619 Si02
#       5
#     8   4   8   8   8
#     4  10  21  37  56  81 114 148 185 234 284 334
#     4  10  20  38  56  78 110 148 180 232 290 330
#     4   9  20  38  54  79 116 145 186 242 281 336
#     4  10  21  36  56  83 113 144 192 236 276 346
#     4  10  21  36  57  82 110 148 187 231 287 336
#
# _framework density 21.8139
#
# number of rings (size 3 to 8) (size 9 to 14) (size 15 to 20)
#    0.000    2.222    0.000    2.000    1.556    2.667 
#    6.000    0.000    0.000    0.000    0.000    0.000 
#    0.000    0.000    0.000    0.000    0.000    0.000 
#
# Total GULP energy -100320.302470 kJ/mol
# GULP energy per Si atom -5573.350137 kJ/mol
# Density = 2.176425 g / cm^3
# Si number density = 21.813900 Si / 1000 Ang^3
#
#
#
# Elastic Constant Matrix: (Units=GPa)
#
#
# Indices 1 2 3 4 5 6 
#
# 1 145.2794 26.7561 20.0378 0.0000 -35.3283 0.0000
# 2 26.7561 42.8919 5.4994 0.0000 -0.4038 0.0000
# 3 20.0378 5.4994 71.7324 0.0000 -3.2982 0.0000
# 4 0.0000 0.0000 0.0000 38.3686 0.0000 -8.6362
# 5 -35.3283 -0.4038 -3.2982 0.0000 51.2942 0.0000
# 6 0.0000 0.0000 0.0000 -8.6362 0.0000 18.6515
#
#
#
# Elastic Compliance Matrix: (Units=1/GPa)
#
#
# Indices 1 2 3 4 5 6 
#
# 1 0.009835 -0.005817 -0.001998 0.000000 0.006599 0.000000
# 2 -0.005817 0.026986 -0.000620 0.000000 -0.003834 0.000000
# 3 -0.001998 -0.000620 0.014526 0.000000 -0.000447 0.000000
# 4 0.000000 0.000000 0.000000 0.029095 0.000000 0.013472
# 5 0.006599 -0.003834 -0.000447 0.000000 0.023982 0.000000
# 6 0.000000 0.000000 0.000000 0.013472 0.000000 0.059853
#
#
# Mechanical properties :
#
#
# Convention : Reuss Voigt Hill
#
# Bulk Modulus (GPa) = 29.00478 40.49894 34.75186
# Shear Modulus (GPa) = 25.95521 35.50355 30.72938
#
# Velocity S-wave (km/s) = 3.45316 4.03869 3.75735
# Velocity P-wave (km/s) = 5.40596 6.35248 5.89824
#
# Compressibility (1/GPa) = 0.03447707
#
# Stress axis : x y z
#
# Youngs Moduli (GPa) = 101.67818 37.05569 68.84295
#
# Poissons Ratio (x) = 0.21555 0.13754
# Poissons Ratio (y) = 0.59144 0.04271
# Poissons Ratio (z) = 0.20314 0.02299
#
# Static dielectric constant tensor:
#      x y z
#    x 1.828880 0.000000 -0.000160 
#    y 0.000000 1.859690 0.000000 
#    z -0.000160 0.000000 1.859550 
# 
# From -- ./inp_files/226435.got.cif
#   From: 2010.05.17/outbox.cif.g08.bks.cpg/sg15_114_cif.got.tgz:226435.got - 2010.06.03 18:47:42.
