data_PCOD9273079
_publ_section_title
;
Structure prediction by ZEFSAII (Michael W. Deem and Ramdas Pophale) SiO2 
 PCOD9273079
Probable space group: C 2/C
;
_chemical_formula_sum "Si O2"
_cell_formula_units_Z 60
_cell_length_a 20.133996
_cell_length_b 8.698482
_cell_length_c 18.474734
_cell_angle_alpha 90.000000
_cell_angle_beta 123.984601
_cell_angle_gamma 90.000000
_cell_volume 2682.900474
_symmetry_space_group_name_H-M "C 2/C"
_symmetry_group_IT_number 15
_symmetry_cell_setting 'monoclinic'
loop_
_space_group_symop_operation_xyz
x,y,z
-x,y,1/2-z
-x,-y,-z
x,-y,1/2+z
1/2+x,1/2+y,z
1/2-x,1/2+y,1/2-z
1/2-x,1/2-y,-z
1/2+x,1/2-y,1/2+z
loop_
_atom_site_type_symbol
_atom_site_label
_atom_site_fract_x
_atom_site_fract_y
_atom_site_fract_z
Si Si1 0.500000 0.942391 0.750000
Si Si2 0.584080 0.238686 0.636856
Si Si3 0.869876 0.568728 0.397291
Si Si4 0.437055 0.707499 0.823416
Si Si5 0.702942 0.506612 0.716398
Si Si6 0.205799 0.182953 0.569094
Si Si7 0.888645 0.702515 0.674709
Si Si8 0.060035 0.940509 0.903807
O O1 0.447611 0.833491 0.768434
O O2 0.438300 0.058721 0.673796
O O3 0.656189 0.354632 0.662317
O O4 0.600138 0.194830 0.731400
O O5 0.501974 0.334480 0.588396
O O6 0.585233 0.093204 0.584509
O O7 0.921709 0.695678 0.386521
O O8 0.786128 0.536041 0.303837
O O9 0.839793 0.652926 0.451560
O O10 0.360101 0.595208 0.769836
O O11 0.516036 0.602656 0.872475
O O12 0.716452 0.616245 0.656566
O O13 0.295950 0.198162 0.596820
O O14 0.146408 0.066412 0.493343
O O15 0.925459 0.857243 0.663992
#
# Coordination Sequence:
#
# PCOD9273079 Si02
#       8
#     4   8   8   8   8   8   8   8
#     4  12  22  38  66  90 116 160 210 260 290 356
#     4  11  20  37  65  91 118 160 207 259 301 356
#     4  11  19  39  63  93 116 158 210 256 300 356
#     4  10  23  35  60  91 123 154 206 248 307 354
#     4  10  20  37  62  91 120 153 211 255 300 359
#     4  11  24  40  63  87 130 162 200 255 314 364
#     4  12  21  41  64  89 124 162 212 254 294 370
#     4  11  25  40  58  93 127 167 197 248 316 374
#
# _framework density 22.363855000000001
#
# number of rings (size 3 to 8) (size 9 to 14) (size 15 to 20)
#    0.000    1.067    5.333    1.200    3.733    5.333 
#    0.000    2.000    0.000    0.000    0.000    0.000 
#    0.000    0.000    0.000    0.000    0.000    0.000 
#
# Total GULP energy -167691.371660 kJ/mol
# GULP energy per Si atom -5589.712389 kJ/mol
# Density = 2.231295 g / cm^3
# Si number density = 22.363855 Si / 1000 Ang^3
#
#
#
# Elastic Constant Matrix: (Units=GPa)
#
#
# Indices 1 2 3 4 5 6 
#
# 1 92.7720 33.6809 17.0796 0.0000 16.7523 0.0000
# 2 33.6809 115.3011 -0.3541 0.0000 4.0259 0.0000
# 3 17.0796 -0.3541 60.6462 0.0000 18.2270 0.0000
# 4 0.0000 0.0000 0.0000 13.8564 0.0000 3.3702
# 5 16.7523 4.0259 18.2270 0.0000 30.8123 0.0000
# 6 0.0000 0.0000 0.0000 3.3702 0.0000 39.8031
#
#
#
# Elastic Compliance Matrix: (Units=1/GPa)
#
#
# Indices 1 2 3 4 5 6 
#
# 1 0.013557 -0.003771 -0.002156 0.000000 -0.005603 0.000000
# 2 -0.003771 0.009773 0.001078 0.000000 0.000135 0.000000
# 3 -0.002156 0.001078 0.020424 0.000000 -0.011050 0.000000
# 4 0.000000 0.000000 0.000000 0.073686 0.000000 -0.006239
# 5 -0.005603 0.000135 -0.011050 0.000000 0.042020 0.000000
# 6 0.000000 0.000000 0.000000 -0.006239 0.000000 0.025652
#
#
# Mechanical properties :
#
#
# Convention : Reuss Voigt Hill
#
# Bulk Modulus (GPa) = 29.36350 41.05913 35.21132
# Shear Modulus (GPa) = 24.25284 31.44854 27.85069
#
# Velocity S-wave (km/s) = 3.29670 3.75403 3.53277
# Velocity P-wave (km/s) = 5.25826 6.09834 5.69382
#
# Compressibility (1/GPa) = 0.03405588
#
# Stress axis : x y z
#
# Youngs Moduli (GPa) = 73.76339 102.32143 48.96264
#
# Poissons Ratio (x) = 0.38587 0.10557
# Poissons Ratio (y) = 0.27817 -0.05280
# Poissons Ratio (z) = 0.15905 -0.11034
#
# Static dielectric constant tensor:
#      x y z
#    x 1.867390 0.000000 -0.014030 
#    y 0.000000 1.840490 0.000000 
#    z -0.014030 0.000000 1.847700 
# 
# From -- ./inp_files/214309.got.cif
#   From: 2010.05.17/outbox.cif.g08.bks.cpg/sg15_108_cif.got.tgz:214309.got - 2010.06.03 18:47:42.
