data_PCOD9273472
_publ_section_title
;
Structure prediction by ZEFSAII (Michael W. Deem and Ramdas Pophale) SiO2 
 PCOD9273472
Probable space group: C 2/C
;
_chemical_formula_sum "Si O2"
_cell_formula_units_Z 56
_cell_length_a 11.071353
_cell_length_b 11.815306
_cell_length_c 22.180647
_cell_angle_alpha 90.000000
_cell_angle_beta 108.967633
_cell_angle_gamma 90.000000
_cell_volume 2743.938330
_symmetry_space_group_name_H-M "C 2/C"
_symmetry_group_IT_number 15
_symmetry_cell_setting 'monoclinic'
loop_
_space_group_symop_operation_xyz
x,y,z
-x,y,1/2-z
-x,-y,-z
x,-y,1/2+z
1/2+x,1/2+y,z
1/2-x,1/2+y,1/2-z
1/2-x,1/2-y,-z
1/2+x,1/2-y,1/2+z
loop_
_atom_site_type_symbol
_atom_site_label
_atom_site_fract_x
_atom_site_fract_y
_atom_site_fract_z
Si Si1 0.207819 0.677304 0.660317
Si Si2 0.769666 0.626130 0.033245
Si Si3 0.631149 0.969755 0.252796
Si Si4 0.051651 0.651260 0.140103
Si Si5 0.870072 0.504715 0.942871
Si Si6 0.488965 0.611345 0.676296
Si Si7 0.650012 0.431207 0.634596
O O1 0.211082 0.611297 0.723090
O O2 0.114878 0.608434 0.601327
O O3 0.343452 0.657231 0.650055
O O4 0.163543 0.804261 0.662315
O O5 0.664447 0.590315 0.065478
O O6 0.907988 0.630027 0.090278
O O7 0.750000 0.750000 0.000000
O O8 0.770546 0.536740 0.978575
O O9 0.500000 0.910731 0.250000
O O10 0.583874 0.075799 0.204118
O O11 0.721141 0.007190 0.321362
O O12 0.143699 0.605175 0.101611
O O13 0.065040 0.780374 0.162556
O O14 0.000000 0.500000 0.000000
O O15 0.500000 0.588608 0.750000
O O16 0.534278 0.503692 0.644305
#
# Coordination Sequence:
#
# PCOD9273472 Si02
#       7
#     8   8   8   8   8   8   8
#     4  11  22  42  63  90 134 168 210 281 331 384
#     4  11  19  38  65  91 128 171 219 271 324 394
#     4  11  21  38  62  92 124 169 215 269 339 394
#     4  10  20  37  66  89 124 172 216 268 336 392
#     4   9  20  37  67  91 120 174 222 264 326 393
#     4  12  23  41  64  98 133 167 214 273 339 406
#     4  12  24  38  68  97 126 175 219 266 336 410
#
# _framework density 20.408621
#
# number of rings (size 3 to 8) (size 9 to 14) (size 15 to 20)
#    0.000    1.143    5.714    1.286    0.000    0.571 
#    0.000    3.571    0.000    0.000    0.000    0.000 
#    0.000    0.000    0.000    0.000    0.000    0.000 
#
# Total GULP energy -156045.065152 kJ/mol
# GULP energy per Si atom -5573.038041 kJ/mol
# Density = 2.036217 g / cm^3
# Si number density = 20.408621 Si / 1000 Ang^3
#
#
#
# Elastic Constant Matrix: (Units=GPa)
#
#
# Indices 1 2 3 4 5 6 
#
# 1 54.6112 55.5427 24.1865 0.0000 -16.6592 0.0000
# 2 55.5427 124.2416 33.3754 0.0000 -36.0687 0.0000
# 3 24.1865 33.3754 92.8735 0.0000 -34.0585 0.0000
# 4 0.0000 0.0000 0.0000 31.2815 0.0000 -2.9001
# 5 -16.6592 -36.0687 -34.0585 0.0000 34.7247 0.0000
# 6 0.0000 0.0000 0.0000 -2.9001 0.0000 20.7296
#
#
#
# Elastic Compliance Matrix: (Units=1/GPa)
#
#
# Indices 1 2 3 4 5 6 
#
# 1 0.035104 -0.015588 -0.005157 0.000000 -0.004408 0.000000
# 2 -0.015588 0.018454 0.002678 0.000000 0.014317 0.000000
# 3 -0.005157 0.002678 0.017586 0.000000 0.017556 0.000000
# 4 0.000000 0.000000 0.000000 0.032388 0.000000 0.004531
# 5 -0.004408 0.014317 0.017556 0.000000 0.058774 0.000000
# 6 0.000000 0.000000 0.000000 0.004531 0.000000 0.048874
#
#
# Mechanical properties :
#
#
# Convention : Reuss Voigt Hill
#
# Bulk Modulus (GPa) = 28.56185 55.32615 41.94400
# Shear Modulus (GPa) = 19.30617 27.92193 23.61405
#
# Velocity S-wave (km/s) = 3.07902 3.70286 3.40525
# Velocity P-wave (km/s) = 5.16390 6.74163 6.00481
#
# Compressibility (1/GPa) = 0.03501174
#
# Stress axis : x y z
#
# Youngs Moduli (GPa) = 28.48660 54.18756 56.86277
#
# Poissons Ratio (x) = 0.84467 0.29322
# Poissons Ratio (y) = 0.44404 -0.15227
# Poissons Ratio (z) = 0.14689 -0.14511
#
# Static dielectric constant tensor:
#      x y z
#    x 1.869820 0.000000 0.018720 
#    y 0.000000 1.737600 0.000000 
#    z 0.018720 0.000000 1.769830 
# 
# From -- ./inp_files/237143.got.cif
#   From: 2010.05.17/outbox.cif.g08.bks.cpg/sg15_119_cif.got.tgz:237143.got - 2010.06.03 18:47:42.
