data_PCOD9273392
_publ_section_title
;
Structure prediction by ZEFSAII (Michael W. Deem and Ramdas Pophale) SiO2 
 PCOD9273392
Probable space group: C 2/C
;
_chemical_formula_sum "Si O2"
_cell_formula_units_Z 40
_cell_length_a 20.471368
_cell_length_b 13.402514
_cell_length_c 12.399391
_cell_angle_alpha 90.000000
_cell_angle_beta 146.619687
_cell_angle_gamma 90.000000
_cell_volume 1871.755952
_symmetry_space_group_name_H-M "C 2/C"
_symmetry_group_IT_number 15
_symmetry_cell_setting 'monoclinic'
loop_
_space_group_symop_operation_xyz
x,y,z
-x,y,1/2-z
-x,-y,-z
x,-y,1/2+z
1/2+x,1/2+y,z
1/2-x,1/2+y,1/2-z
1/2-x,1/2-y,-z
1/2+x,1/2-y,1/2+z
loop_
_atom_site_type_symbol
_atom_site_label
_atom_site_fract_x
_atom_site_fract_y
_atom_site_fract_z
Si Si1 0.794275 0.563311 0.206240
Si Si2 0.384719 0.454122 0.656691
Si Si3 0.775200 0.650494 0.725596
Si Si4 0.592651 0.353129 0.587005
Si Si5 0.654920 0.727668 0.775962
O O1 0.840689 0.457133 0.313338
O O2 0.688422 0.597076 0.140514
O O3 0.876214 0.658853 0.305952
O O4 0.723506 0.532839 0.999169
O O5 0.500000 0.487313 0.750000
O O6 0.328143 0.364655 0.506137
O O7 0.417913 0.419319 0.820681
O O8 0.854411 0.745355 0.808332
O O9 0.716370 0.672229 0.760171
O O10 0.464640 0.330398 0.359292
O O11 0.750000 0.750000 0.000000
#
# Coordination Sequence:
#
# PCOD9273392 Si02
#       5
#     8   8   8   8   8
#     4   9  24  37  59  94 119 153 215 242 307 368
#     4  10  20  37  65  88 114 161 210 244 298 368
#     4   9  22  38  59  92 117 158 213 241 305 370
#     4  11  21  40  63  84 131 158 197 264 303 354
#     4  11  24  38  60  90 125 162 202 253 309 362
#
# _framework density 21.370307
#
# number of rings (size 3 to 8) (size 9 to 14) (size 15 to 20)
#    1.200    0.800    2.000    0.600    5.600    4.800 
#    0.000    0.000    0.000    0.000    0.000    0.000 
#    0.000    0.000    0.000    0.000    0.000    0.000 
#
# Total GULP energy -111534.505022 kJ/mol
# GULP energy per Si atom -5576.725251 kJ/mol
# Density = 2.132167 g / cm^3
# Si number density = 21.370307 Si / 1000 Ang^3
#
#
#
# Elastic Constant Matrix: (Units=GPa)
#
#
# Indices 1 2 3 4 5 6 
#
# 1 48.6540 17.4371 15.8583 0.0000 -4.2269 0.0000
# 2 17.4371 116.6547 9.0022 0.0000 -12.1974 0.0000
# 3 15.8583 9.0022 84.0767 0.0000 -16.3997 0.0000
# 4 0.0000 0.0000 0.0000 41.4418 0.0000 2.5782
# 5 -4.2269 -12.1974 -16.3997 0.0000 17.2319 0.0000
# 6 0.0000 0.0000 0.0000 2.5782 0.0000 26.2479
#
#
#
# Elastic Compliance Matrix: (Units=1/GPa)
#
#
# Indices 1 2 3 4 5 6 
#
# 1 0.022980 -0.003172 -0.004093 0.000000 -0.000504 0.000000
# 2 -0.003172 0.009704 0.000918 0.000000 0.006964 0.000000
# 3 -0.004093 0.000918 0.015348 0.000000 0.014252 0.000000
# 4 0.000000 0.000000 0.000000 0.024279 0.000000 -0.002385
# 5 -0.000504 0.006964 0.014252 0.000000 0.076401 0.000000
# 6 0.000000 0.000000 0.000000 -0.002385 0.000000 0.038332
#
#
# Mechanical properties :
#
#
# Convention : Reuss Voigt Hill
#
# Bulk Modulus (GPa) = 28.29883 37.10895 32.70389
# Shear Modulus (GPa) = 23.63871 30.79020 27.21445
#
# Velocity S-wave (km/s) = 3.32949 3.79990 3.57244
# Velocity P-wave (km/s) = 5.29637 6.05431 5.68798
#
# Compressibility (1/GPa) = 0.03533715
#
# Stress axis : x y z
#
# Youngs Moduli (GPa) = 43.51531 103.05292 65.15681
#
# Poissons Ratio (x) = 0.32686 0.26669
# Poissons Ratio (y) = 0.13802 -0.05979
# Poissons Ratio (z) = 0.17811 -0.09456
#
# Static dielectric constant tensor:
#      x y z
#    x 1.721860 0.000000 -0.008730 
#    y 0.000000 1.832660 0.000000 
#    z -0.008730 0.000000 1.797610 
# 
# From -- ./inp_files/118867.got.cif
#   From: 2010.05.17/outbox.cif.g08.bks.cpg/sg15_60_cif.got.tgz:118867.got - 2010.06.03 18:47:42.
