data_PCOD9273929
_publ_section_title
;
Structure prediction by ZEFSAII (Michael W. Deem and Ramdas Pophale) SiO2 
 PCOD9273929
Probable space group: C 2/C
;
_chemical_formula_sum "Si O2"
_cell_formula_units_Z 44
_cell_length_a 13.403960
_cell_length_b 8.003447
_cell_length_c 24.095417
_cell_angle_alpha 90.000000
_cell_angle_beta 132.498209
_cell_angle_gamma 90.000000
_cell_volume 1905.846710
_symmetry_space_group_name_H-M "C 2/C"
_symmetry_group_IT_number 15
_symmetry_cell_setting 'monoclinic'
loop_
_space_group_symop_operation_xyz
x,y,z
-x,y,1/2-z
-x,-y,-z
x,-y,1/2+z
1/2+x,1/2+y,z
1/2-x,1/2+y,1/2-z
1/2-x,1/2-y,-z
1/2+x,1/2-y,1/2+z
loop_
_atom_site_type_symbol
_atom_site_label
_atom_site_fract_x
_atom_site_fract_y
_atom_site_fract_z
Si Si1 0.889501 0.232740 0.422439
Si Si2 0.691164 0.891848 0.757650
Si Si3 0.097734 0.979138 0.470324
Si Si4 0.000000 0.832973 0.250000
Si Si5 0.732784 0.474044 0.903707
Si Si6 0.690128 0.716835 0.648764
O O1 0.807508 0.207783 0.334953
O O2 0.835123 0.107311 0.450696
O O3 0.863126 0.413527 0.437307
O O4 0.035204 0.158635 0.462851
O O5 0.559366 0.792246 0.726620
O O6 0.698771 0.870988 0.695012
O O7 0.711648 0.076912 0.788274
O O8 0.190365 0.999948 0.451515
O O9 0.961447 0.863824 0.408851
O O10 0.110460 0.945949 0.321854
O O11 0.757477 0.289769 0.889392
#
# Coordination Sequence:
#
# PCOD9273929 Si02
#       6
#     8   8   8   4   8   8
#     4   9  21  39  64  87 126 158 205 248 305 358
#     4  10  20  40  58  91 123 159 202 261 293 373
#     4  10  21  43  63  88 123 166 195 259 300 363
#     4  10  20  38  60  88 122 156 202 248 314 348
#     4  11  22  39  62  91 119 163 200 251 300 367
#     4  11  23  39  64  89 125 158 212 249 309 356
#
# _framework density 23.086852
#
# number of rings (size 3 to 8) (size 9 to 14) (size 15 to 20)
#    0.000    1.818    1.818    2.727    2.545    1.455 
#    3.273    8.182    0.000    0.000    0.000    0.000 
#    0.000    0.000    0.000    0.000    0.000    0.000 
#
# Total GULP energy -122847.720463 kJ/mol
# GULP energy per Si atom -5583.987294 kJ/mol
# Density = 2.303430 g / cm^3
# Si number density = 23.086852 Si / 1000 Ang^3
#
#
#
# Elastic Constant Matrix: (Units=GPa)
#
#
# Indices 1 2 3 4 5 6 
#
# 1 47.1742 28.8584 33.8049 0.0000 -19.5133 0.0000
# 2 28.8584 92.6160 19.1531 0.0000 10.9683 0.0000
# 3 33.8049 19.1531 79.6118 0.0000 -11.8067 0.0000
# 4 0.0000 0.0000 0.0000 34.5674 0.0000 0.7665
# 5 -19.5133 10.9683 -11.8067 0.0000 36.2598 0.0000
# 6 0.0000 0.0000 0.0000 0.7665 0.0000 32.7821
#
#
#
# Elastic Compliance Matrix: (Units=1/GPa)
#
#
# Indices 1 2 3 4 5 6 
#
# 1 0.054958 -0.017676 -0.014610 0.000000 0.030165 0.000000
# 2 -0.017676 0.017809 0.001063 0.000000 -0.014553 0.000000
# 3 -0.014610 0.001063 0.018173 0.000000 -0.002267 0.000000
# 4 0.000000 0.000000 0.000000 0.028944 0.000000 -0.000677
# 5 0.030165 -0.014553 -0.002267 0.000000 0.047476 0.000000
# 6 0.000000 0.000000 0.000000 -0.000677 0.000000 0.030520
#
#
# Mechanical properties :
#
#
# Convention : Reuss Voigt Hill
#
# Bulk Modulus (GPa) = 35.09587 42.55944 38.82765
# Shear Modulus (GPa) = 18.53054 29.89424 24.21239
#
# Velocity S-wave (km/s) = 2.83617 3.60232 3.24196
# Velocity P-wave (km/s) = 5.09508 5.98137 5.55593
#
# Compressibility (1/GPa) = 0.02849338
#
# Stress axis : x y z
#
# Youngs Moduli (GPa) = 18.19559 56.15283 55.02662
#
# Poissons Ratio (x) = 0.99253 0.80396
# Poissons Ratio (y) = 0.32162 -0.05848
# Poissons Ratio (z) = 0.26585 -0.05968
#
# Static dielectric constant tensor:
#      x y z
#    x 1.885860 0.000000 -0.008640 
#    y 0.000000 1.903470 0.000000 
#    z -0.008640 0.000000 1.883210 
# 
# From -- ./inp_files/202616.got.cif
#   From: 2010.05.17/outbox.cif.g08.bks.cpg/sg15_102_cif.got.tgz:202616.got - 2010.06.03 18:47:42.
