data_PCOD9273565
_publ_section_title
;
Structure prediction by ZEFSAII (Michael W. Deem and Ramdas Pophale) SiO2 
 PCOD9273565
Probable space group: C 2/C
;
_chemical_formula_sum "Si O2"
_cell_formula_units_Z 44
_cell_length_a 23.164970
_cell_length_b 14.967521
_cell_length_c 5.760937
_cell_angle_alpha 90.000000
_cell_angle_beta 98.752579
_cell_angle_gamma 90.000000
_cell_volume 1974.183689
_symmetry_space_group_name_H-M "C 2/C"
_symmetry_group_IT_number 15
_symmetry_cell_setting 'monoclinic'
loop_
_space_group_symop_operation_xyz
x,y,z
-x,y,1/2-z
-x,-y,-z
x,-y,1/2+z
1/2+x,1/2+y,z
1/2-x,1/2+y,1/2-z
1/2-x,1/2-y,-z
1/2+x,1/2-y,1/2+z
loop_
_atom_site_type_symbol
_atom_site_label
_atom_site_fract_x
_atom_site_fract_y
_atom_site_fract_z
Si Si1 0.000000 0.628098 0.750000
Si Si2 0.597391 0.695067 0.796400
Si Si3 0.128934 0.687137 0.934718
Si Si4 0.294026 0.712565 0.335533
Si Si5 0.500000 0.150077 0.250000
Si Si6 0.213617 0.552240 0.148580
Si Si7 0.000000 0.951559 0.250000
O O1 0.936696 0.678196 0.701357
O O2 0.999892 0.594079 0.485423
O O3 0.630232 0.721541 0.581518
O O4 0.555342 0.782271 0.797261
O O5 0.555947 0.611594 0.766760
O O6 0.646342 0.678268 0.014668
O O7 0.180487 0.701706 0.783411
O O8 0.150199 0.601893 0.095816
O O9 0.250000 0.750000 0.500000
O O10 0.261283 0.632252 0.186713
O O11 0.218598 0.502815 0.406028
O O12 0.000000 0.000000 0.500000
#
# Coordination Sequence:
#
# PCOD9273565 Si02
#       7
#     4   8   8   8   4   8   4
#     4  10  20  37  72 103 126 168 226 300 350 403
#     4  10  23  40  74  99 141 191 248 282 353 436
#     4  11  24  46  76 105 139 188 257 305 359 456
#     4  12  24  45  75 107 138 199 258 301 353 455
#     4   9  18  36  58 106 130 161 222 293 334 394
#     4  12  29  47  68 103 151 188 236 312 380 420
#     4  11  28  47  68 113 164 191 228 307 378 441
#
# _framework density 22.287693999999998
#
# number of rings (size 3 to 8) (size 9 to 14) (size 15 to 20)
#    0.000    1.091    3.636    1.636    5.091    2.909 
#    0.000    0.909    0.000    0.000    0.000    0.000 
#    0.000    0.000    0.000    0.000    0.000    0.000 
#
# Total GULP energy -122490.732275 kJ/mol
# GULP energy per Si atom -5567.760558 kJ/mol
# Density = 2.223697 g / cm^3
# Si number density = 22.287694 Si / 1000 Ang^3
#
#
#
# Elastic Constant Matrix: (Units=GPa)
#
#
# Indices 1 2 3 4 5 6 
#
# 1 118.9320 44.8046 48.0806 0.0000 23.4820 0.0000
# 2 44.8046 88.9691 56.4313 0.0000 12.0354 0.0000
# 3 48.0806 56.4313 184.1567 0.0000 8.8041 0.0000
# 4 0.0000 0.0000 0.0000 110.7351 0.0000 30.9266
# 5 23.4820 12.0354 8.8041 0.0000 59.1309 0.0000
# 6 0.0000 0.0000 0.0000 30.9266 0.0000 17.1803
#
#
#
# Elastic Compliance Matrix: (Units=1/GPa)
#
#
# Indices 1 2 3 4 5 6 
#
# 1 0.011290 -0.004295 -0.001469 0.000000 -0.003390 0.000000
# 2 -0.004295 0.015880 -0.003698 0.000000 -0.000976 0.000000
# 3 -0.001469 -0.003698 0.006933 0.000000 0.000304 0.000000
# 4 0.000000 0.000000 0.000000 0.018161 0.000000 -0.032692
# 5 -0.003390 -0.000976 0.000304 0.000000 0.018411 0.000000
# 6 0.000000 0.000000 0.000000 -0.032692 0.000000 0.117055
#
#
# Mechanical properties :
#
#
# Convention : Reuss Voigt Hill
#
# Bulk Modulus (GPa) = 65.88639 76.74344 71.31491
# Shear Modulus (GPa) = 23.61680 53.59202 38.60441
#
# Velocity S-wave (km/s) = 3.25873 4.90895 4.16636
# Velocity P-wave (km/s) = 6.61703 8.16322 7.43045
#
# Compressibility (1/GPa) = 0.01517764
#
# Stress axis : x y z
#
# Youngs Moduli (GPa) = 88.57770 62.97041 144.24727
#
# Poissons Ratio (x) = 0.27044 0.21196
# Poissons Ratio (y) = 0.38042 0.53347
# Poissons Ratio (z) = 0.13016 0.23288
#
# Static dielectric constant tensor:
#      x y z
#    x 1.848860 0.000000 -0.100340 
#    y 0.000000 1.848630 0.000000 
#    z -0.100340 0.000000 1.886900 
# 
# From -- ./inp_files/15129.got.cif
#   From: 2010.05.17/outbox.cif.g08.bks.cpg/sg15_8_cif.got.tgz:15129.got - 2010.06.03 18:47:42.
