data_PCOD9273802
_publ_section_title
;
Structure prediction by ZEFSAII (Michael W. Deem and Ramdas Pophale) SiO2 
 PCOD9273802
Probable space group: C 2/C
;
_chemical_formula_sum "Si O2"
_cell_formula_units_Z 48
_cell_length_a 6.513168
_cell_length_b 21.966463
_cell_length_c 16.172854
_cell_angle_alpha 90.000000
_cell_angle_beta 65.851792
_cell_angle_gamma 90.000000
_cell_volume 2111.384511
_symmetry_space_group_name_H-M "C 2/C"
_symmetry_group_IT_number 15
_symmetry_cell_setting 'monoclinic'
loop_
_space_group_symop_operation_xyz
x,y,z
-x,y,1/2-z
-x,-y,-z
x,-y,1/2+z
1/2+x,1/2+y,z
1/2-x,1/2+y,1/2-z
1/2-x,1/2-y,-z
1/2+x,1/2-y,1/2+z
loop_
_atom_site_type_symbol
_atom_site_label
_atom_site_fract_x
_atom_site_fract_y
_atom_site_fract_z
Si Si1 0.990825 0.255960 0.026331
Si Si2 0.737979 0.539161 0.672366
Si Si3 0.439113 0.216262 0.346557
Si Si4 0.071456 0.588765 0.373331
Si Si5 0.618451 0.884741 0.056581
Si Si6 0.587587 0.434424 0.011533
O O1 0.964627 0.324725 0.065528
O O2 0.831708 0.211026 0.103450
O O3 0.250000 0.250000 0.000000
O O4 0.966997 0.251081 0.930930
O O5 0.500000 0.557031 0.750000
O O6 0.692110 0.553614 0.583912
O O7 0.796547 0.468895 0.683756
O O8 0.972793 0.575030 0.644194
O O9 0.500000 0.247065 0.250000
O O10 0.588342 0.154969 0.328603
O O11 0.801646 0.580035 0.419143
O O12 0.143354 0.591434 0.457924
O O13 0.878261 0.887132 0.044818
O O14 0.500000 0.500000 0.000000
#
# Coordination Sequence:
#
# PCOD9273802 Si02
#       6
#     8   8   8   8   8   8
#     4  10  22  43  67  92 125 166 220 268 322 391
#     4  11  23  36  53  91 127 154 200 259 314 374
#     4  10  23  42  64  95 127 164 210 269 331 381
#     4  10  20  38  59  86 120 154 201 255 311 375
#     4  10  20  39  62  84 114 163 207 248 308 382
#     4  11  18  35  61  79 114 163 201 237 305 378
#
# _framework density 22.733899000000001
#
# number of rings (size 3 to 8) (size 9 to 14) (size 15 to 20)
#    0.000    1.667    3.333    2.000    0.000    4.667 
#    6.000    1.667    0.000    0.000    0.000    0.000 
#    0.000    0.000    0.000    0.000    0.000    0.000 
#
# Total GULP energy -133623.878323 kJ/mol
# GULP energy per Si atom -5567.661597 kJ/mol
# Density = 2.268216 g / cm^3
# Si number density = 22.733899 Si / 1000 Ang^3
#
#
#
# Elastic Constant Matrix: (Units=GPa)
#
#
# Indices 1 2 3 4 5 6 
#
# 1 85.1746 -2.2225 19.2368 0.0000 -17.6309 0.0000
# 2 -2.2225 59.4980 5.4455 0.0000 4.3291 0.0000
# 3 19.2368 5.4455 85.4885 0.0000 -6.3004 0.0000
# 4 0.0000 0.0000 0.0000 13.5299 0.0000 -11.5205
# 5 -17.6309 4.3291 -6.3004 0.0000 23.3931 0.0000
# 6 0.0000 0.0000 0.0000 -11.5205 0.0000 29.7468
#
#
#
# Elastic Compliance Matrix: (Units=1/GPa)
#
#
# Indices 1 2 3 4 5 6 
#
# 1 0.014413 0.000026 -0.002494 0.000000 0.010186 0.000000
# 2 0.000026 0.017189 -0.001361 0.000000 -0.003528 0.000000
# 3 -0.002494 -0.001361 0.012473 0.000000 0.001731 0.000000
# 4 0.000000 0.000000 0.000000 0.110276 0.000000 0.042708
# 5 0.010186 -0.003528 0.001731 0.000000 0.051544 0.000000
# 6 0.000000 0.000000 0.000000 0.042708 0.000000 0.050157
#
#
# Mechanical properties :
#
#
# Convention : Reuss Voigt Hill
#
# Bulk Modulus (GPa) = 27.45983 30.56453 29.01218
# Shear Modulus (GPa) = 18.12575 27.18072 22.65323
#
# Velocity S-wave (km/s) = 2.82671 3.46150 3.16009
# Velocity P-wave (km/s) = 4.77062 5.42675 5.10923
#
# Compressibility (1/GPa) = 0.03641682
#
# Stress axis : x y z
#
# Youngs Moduli (GPa) = 69.38129 58.17509 80.17319
#
# Poissons Ratio (x) = -0.00148 0.19997
# Poissons Ratio (y) = -0.00177 0.10909
# Poissons Ratio (z) = 0.17305 0.07916
#
# Static dielectric constant tensor:
#      x y z
#    x 2.016240 0.000000 -0.076230 
#    y 0.000000 3.539740 0.000000 
#    z -0.076230 0.000000 1.826270 
# 
# From -- ./inp_files/185734.got.cif
#   From: 2010.05.17/outbox.cif.g08.bks.cpg/sg15_93_cif.got.tgz:185734.got - 2010.06.03 18:47:42.
