data_PCOD9273884
_publ_section_title
;
Structure prediction by ZEFSAII (Michael W. Deem and Ramdas Pophale) SiO2 
 PCOD9273884
Probable space group: C 2/C
;
_chemical_formula_sum "Si O2"
_cell_formula_units_Z 40
_cell_length_a 9.971678
_cell_length_b 30.402863
_cell_length_c 5.445864
_cell_angle_alpha 90.000000
_cell_angle_beta 75.045492
_cell_angle_gamma 90.000000
_cell_volume 1595.091301
_symmetry_space_group_name_H-M "C 2/C"
_symmetry_group_IT_number 15
_symmetry_cell_setting 'monoclinic'
loop_
_space_group_symop_operation_xyz
x,y,z
-x,y,1/2-z
-x,-y,-z
x,-y,1/2+z
1/2+x,1/2+y,z
1/2-x,1/2+y,1/2-z
1/2-x,1/2-y,-z
1/2+x,1/2-y,1/2+z
loop_
_atom_site_type_symbol
_atom_site_label
_atom_site_fract_x
_atom_site_fract_y
_atom_site_fract_z
Si Si1 0.000000 0.360331 0.750000
Si Si2 0.000000 0.094523 0.250000
Si Si3 0.500000 0.029531 0.250000
Si Si4 0.310721 0.332438 0.076632
Si Si5 0.186681 0.972241 0.928185
Si Si6 0.000000 0.635243 0.750000
Si Si7 0.771596 0.798412 0.595514
O O1 0.868310 0.327638 0.812686
O O2 0.000435 0.389096 0.505499
O O3 0.884826 0.124419 0.438169
O O4 0.923600 0.065102 0.084165
O O5 0.658849 0.047226 0.169179
O O6 0.500000 0.000000 0.500000
O O7 0.143316 0.337879 0.178373
O O8 0.353530 0.321373 0.333733
O O9 0.334328 0.298296 0.840290
O O10 0.170887 0.006607 0.706156
O O11 0.750000 0.750000 0.500000
#
# Coordination Sequence:
#
# PCOD9273884 Si02
#       7
#     4   4   4   8   8   4   8
#     4   8  16  30  55  76 101 143 198 248 295 365
#     4  12  26  42  65 104 147 177 220 293 357 410
#     4   8  16  36  64  94 124 165 230 279 308 382
#     4  10  23  38  59  89 125 163 212 273 337 396
#     4  10  22  42  68  96 135 188 233 271 330 407
#     4   8  16  38  54  72 108 155 200 240 296 377
#     4  10  20  38  60  85 117 163 214 269 332 408
#
# _framework density 25.076933
#
# number of rings (size 3 to 8) (size 9 to 14) (size 15 to 20)
#    0.000    2.400    0.000    1.200    0.000    5.600 
#    0.000   14.000    0.000    0.000    0.000    0.000 
#    0.000    0.000    0.000    0.000    0.000    0.000 
#
# Total GULP energy -111629.648413 kJ/mol
# GULP energy per Si atom -5581.482421 kJ/mol
# Density = 2.501986 g / cm^3
# Si number density = 25.076933 Si / 1000 Ang^3
#
#
#
# Elastic Constant Matrix: (Units=GPa)
#
#
# Indices 1 2 3 4 5 6 
#
# 1 123.2769 20.1013 14.1655 0.0000 -39.5379 0.0000
# 2 20.1013 70.1347 15.5547 0.0000 -18.8470 0.0000
# 3 14.1655 15.5547 205.1761 0.0000 15.0069 0.0000
# 4 0.0000 0.0000 0.0000 17.0284 0.0000 -0.1359
# 5 -39.5379 -18.8470 15.0069 0.0000 27.4257 0.0000
# 6 0.0000 0.0000 0.0000 -0.1359 0.0000 -0.8269
#
#
#
# Elastic Compliance Matrix: (Units=1/GPa)
#
#
# Indices 1 2 3 4 5 6 
#
# 1 0.017484 0.003826 -0.003680 0.000000 0.029849 0.000000
# 2 0.003826 0.019430 -0.003247 0.000000 0.020645 0.000000
# 3 -0.003680 -0.003247 0.006172 0.000000 -0.010915 0.000000
# 4 0.000000 0.000000 0.000000 0.058648 0.000000 -0.009639
# 5 0.029849 0.020645 -0.010915 0.000000 0.099654 0.000000
# 6 0.000000 0.000000 0.000000 -0.009639 0.000000 -1.207807
#
#
# Mechanical properties :
#
#
# Convention : Reuss Voigt Hill
#
# Bulk Modulus (GPa) = 27.11213 55.35898 41.23556
# Shear Modulus (GPa) = -5.06113 31.97652 13.45770
#
# Velocity S-wave (km/s) = -1.42219 3.57478 2.31910
# Velocity P-wave (km/s) = 2.85276 6.25798 4.86315
#
# Compressibility (1/GPa) = 0.03688386
#
# Stress axis : x y z
#
# Youngs Moduli (GPa) = 57.19450 51.46764 162.00991
#
# Poissons Ratio (x) = -0.19693 0.59627
# Poissons Ratio (y) = -0.21885 0.52608
# Poissons Ratio (z) = 0.21050 0.16713
#
# Static dielectric constant tensor:
#      x y z
#    x 1.950570 0.000000 0.107120 
#    y 0.000000 2.100290 0.000000 
#    z 0.107120 0.000000 2.017040 
# 
# From -- ./inp_files/5751.got.cif
#   From: 2010.05.17/outbox.cif.g08.bks.cpg/sg15_3_cif.got.tgz:5751.got - 2010.06.03 18:47:42.
