data_PCOD9273010
_publ_section_title
;
Structure prediction by ZEFSAII (Michael W. Deem and Ramdas Pophale) SiO2 
 PCOD9273010
Probable space group: C 2/C
;
_chemical_formula_sum "Si O2"
_cell_formula_units_Z 52
_cell_length_a 29.283691
_cell_length_b 16.260680
_cell_length_c 15.130665
_cell_angle_alpha 90.000000
_cell_angle_beta 20.847356
_cell_angle_gamma 90.000000
_cell_volume 2564.044132
_symmetry_space_group_name_H-M "C 2/C"
_symmetry_group_IT_number 15
_symmetry_cell_setting 'monoclinic'
loop_
_space_group_symop_operation_xyz
x,y,z
-x,y,1/2-z
-x,-y,-z
x,-y,1/2+z
1/2+x,1/2+y,z
1/2-x,1/2+y,1/2-z
1/2-x,1/2-y,-z
1/2+x,1/2-y,1/2+z
loop_
_atom_site_type_symbol
_atom_site_label
_atom_site_fract_x
_atom_site_fract_y
_atom_site_fract_z
Si Si1 0.253625 0.769874 0.645905
Si Si2 0.850724 0.997822 0.244437
Si Si3 0.500000 0.124444 0.750000
Si Si4 0.768553 0.359749 0.438768
Si Si5 0.285006 0.344854 0.450992
Si Si6 0.553278 0.620974 0.562198
Si Si7 0.963599 0.581302 0.011229
O O1 0.379584 0.815733 0.450872
O O2 0.273764 0.676503 0.578582
O O3 0.214266 0.809432 0.621373
O O4 0.138897 0.796650 0.917000
O O5 0.777508 0.049060 0.453227
O O6 0.794032 0.906122 0.349303
O O7 0.853904 0.052088 0.149838
O O8 0.000000 0.000000 0.000000
O O9 0.522536 0.072838 0.619797
O O10 0.922340 0.356290 0.167378
O O11 0.250000 0.250000 0.500000
O O12 0.426886 0.355420 0.235177
O O13 0.173743 0.382562 0.714261
O O14 0.500000 0.588769 0.750000
O O15 0.000000 0.500000 0.000000
#
# Coordination Sequence:
#
# PCOD9273010 Si02
#       7
#     8   8   4   8   8   8   8
#     4   9  18  34  60  89 119 163 205 266 323 384
#     4   9  19  35  59  87 113 162 211 252 309 385
#     4  10  22  36  62  94 130 162 222 270 322 392
#     4   9  17  34  60  86 117 160 213 255 322 386
#     4  11  22  38  65  91 123 166 217 263 324 394
#     4  10  20  37  62  86 127 165 205 261 326 380
#     4  11  21  38  66  93 126 175 216 271 329 392
#
# _framework density 20.280462
#
# number of rings (size 3 to 8) (size 9 to 14) (size 15 to 20)
#    0.000    2.154    1.538    1.846    0.000    3.692 
#    0.000    0.000   32.154    0.000    0.000    0.000 
#    0.000    0.000    0.000    0.000    0.000    0.000 
#
# Total GULP energy -144736.330145 kJ/mol
# GULP energy per Si atom -5566.781929 kJ/mol
# Density = 2.023430 g / cm^3
# Si number density = 20.280462 Si / 1000 Ang^3
#
#
#
# Elastic Constant Matrix: (Units=GPa)
#
#
# Indices 1 2 3 4 5 6 
#
# 1 72.1473 39.0674 27.5051 0.0000 11.5727 0.0000
# 2 39.0674 117.1366 39.0863 0.0000 16.9047 0.0000
# 3 27.5051 39.0863 127.2199 -0.0001 2.0937 0.0000
# 4 0.0000 0.0000 -0.0001 24.0877 0.0000 -2.2978
# 5 11.5727 16.9047 2.0937 0.0000 33.8914 0.0000
# 6 0.0000 0.0000 0.0000 -2.2978 0.0000 16.3594
#
#
#
# Elastic Compliance Matrix: (Units=1/GPa)
#
#
# Indices 1 2 3 4 5 6 
#
# 1 0.017862 -0.004639 -0.002377 0.000000 -0.003638 0.000000
# 2 -0.004639 0.011481 -0.002459 0.000000 -0.003990 0.000000
# 3 -0.002377 -0.002459 0.009105 0.000000 0.001475 0.000000
# 4 0.000000 0.000000 0.000000 0.042079 0.000000 0.005910
# 5 -0.003638 -0.003990 0.001475 0.000000 0.032648 0.000000
# 6 0.000000 0.000000 0.000000 0.005910 0.000000 0.061957
#
#
# Mechanical properties :
#
#
# Convention : Reuss Voigt Hill
#
# Bulk Modulus (GPa) = 51.28390 58.64681 54.96535
# Shear Modulus (GPa) = 24.92766 28.92403 26.92585
#
# Velocity S-wave (km/s) = 3.50972 3.78061 3.64768
# Velocity P-wave (km/s) = 6.46270 6.93094 6.70091
#
# Compressibility (1/GPa) = 0.01949930
#
# Stress axis : x y z
#
# Youngs Moduli (GPa) = 55.98354 87.10352 109.82610
#
# Poissons Ratio (x) = 0.40410 0.26102
# Poissons Ratio (y) = 0.25973 0.27001
# Poissons Ratio (z) = 0.13305 0.21415
#
# Static dielectric constant tensor:
#      x y z
#    x 1.762880 0.000000 0.029960 
#    y 0.000000 1.859270 0.000000 
#    z 0.029960 0.000000 1.776470 
# 
# From -- ./inp_files/182824.got.cif
#   From: 2010.05.17/outbox.cif.g08.bks.cpg/sg15_92_cif.got.tgz:182824.got - 2010.06.03 18:47:42.
