data_PCOD9273315
_publ_section_title
;
Structure prediction by ZEFSAII (Michael W. Deem and Ramdas Pophale) SiO2 
 PCOD9273315
Probable space group: C 2/C
;
_chemical_formula_sum "Si O2"
_cell_formula_units_Z 44
_cell_length_a 17.879287
_cell_length_b 10.318552
_cell_length_c 28.159647
_cell_angle_alpha 90.000000
_cell_angle_beta 154.844467
_cell_angle_gamma 90.000000
_cell_volume 2208.328594
_symmetry_space_group_name_H-M "C 2/C"
_symmetry_group_IT_number 15
_symmetry_cell_setting 'monoclinic'
loop_
_space_group_symop_operation_xyz
x,y,z
-x,y,1/2-z
-x,-y,-z
x,-y,1/2+z
1/2+x,1/2+y,z
1/2-x,1/2+y,1/2-z
1/2-x,1/2-y,-z
1/2+x,1/2-y,1/2+z
loop_
_atom_site_type_symbol
_atom_site_label
_atom_site_fract_x
_atom_site_fract_y
_atom_site_fract_z
Si Si1 0.392240 0.595558 0.495146
Si Si2 0.324467 0.206802 0.299672
Si Si3 0.478215 0.305131 0.944698
Si Si4 0.500000 0.404276 0.250000
Si Si5 0.181745 0.579565 0.102679
Si Si6 0.908580 0.690125 0.121387
O O1 0.548123 0.674191 0.611902
O O2 0.454484 0.448993 0.527048
O O3 0.377951 0.673688 0.437310
O O4 0.198968 0.594636 0.406748
O O5 0.279853 0.126047 0.321260
O O6 0.445801 0.133415 0.330255
O O7 0.150691 0.243571 0.170634
O O8 0.635677 0.206656 0.045560
O O9 0.332777 0.494194 0.165538
O O10 0.478819 0.308961 0.193043
O O11 0.000000 0.500000 0.000000
O O12 0.750000 0.750000 0.000000
#
# Coordination Sequence:
#
# PCOD9273315 Si02
#       6
#     8   8   8   4   8   8
#     4   9  20  38  58  91 126 163 218 266 308 385
#     4  10  21  37  65  90 121 173 212 257 328 374
#     4  10  21  38  60  90 133 162 205 267 323 381
#     4  12  24  42  70  94 132 168 218 266 326 386
#     4  11  24  42  65  98 130 167 212 269 322 390
#     4  10  20  37  64  92 118 164 220 260 306 383
#
# _framework density 19.924569999999999
#
# number of rings (size 3 to 8) (size 9 to 14) (size 15 to 20)
#    0.000    1.818    0.000    5.455    7.636    0.000 
#    0.000    7.273    0.000    0.000    0.000    0.000 
#    0.000    0.000    0.000    0.000    0.000    0.000 
#
# Total GULP energy -122750.154029 kJ/mol
# GULP energy per Si atom -5579.552456 kJ/mol
# Density = 1.987922 g / cm^3
# Si number density = 19.924570 Si / 1000 Ang^3
#
#
#
# Elastic Constant Matrix: (Units=GPa)
#
#
# Indices 1 2 3 4 5 6 
#
# 1 82.3290 22.4872 49.2194 -0.0007 -5.7686 0.0001
# 2 22.4872 70.0302 32.5288 -0.0024 -5.7489 0.0009
# 3 49.2194 32.5288 99.1738 -0.0060 -14.0499 0.0031
# 4 -0.0007 -0.0024 -0.0060 20.7038 0.0013 5.0416
# 5 -5.7686 -5.7489 -14.0499 0.0013 44.7501 -0.0002
# 6 0.0001 0.0009 0.0031 5.0416 -0.0002 21.6790
#
#
#
# Elastic Compliance Matrix: (Units=1/GPa)
#
#
# Indices 1 2 3 4 5 6 
#
# 1 0.017488 -0.001879 -0.008140 -0.000002 -0.000543 0.000002
# 2 -0.001879 0.017057 -0.004590 0.000001 0.000508 0.000000
# 3 -0.008140 -0.004590 0.016113 0.000004 0.003420 -0.000003
# 4 -0.000002 0.000001 0.000004 0.051200 0.000000 -0.011907
# 5 -0.000543 0.000508 0.003420 0.000000 0.023415 0.000000
# 6 0.000002 0.000000 -0.000003 -0.011907 0.000000 0.048897
#
#
# Mechanical properties :
#
#
# Convention : Reuss Voigt Hill
#
# Bulk Modulus (GPa) = 46.64197 51.11154 48.87675
# Shear Modulus (GPa) = 23.74919 27.24642 25.49781
#
# Velocity S-wave (km/s) = 3.45622 3.70195 3.58119
# Velocity P-wave (km/s) = 6.27593 6.63180 6.45632
#
# Compressibility (1/GPa) = 0.02143992
#
# Stress axis : x y z
#
# Youngs Moduli (GPa) = 57.18258 58.62801 62.06174
#
# Poissons Ratio (x) = 0.11017 0.50516
# Poissons Ratio (y) = 0.10746 0.28486
# Poissons Ratio (z) = 0.46545 0.26910
#
# Static dielectric constant tensor:
#      x y z
#    x 1.802980 0.000000 -0.010210 
#    y 0.000000 1.691720 0.000000 
#    z -0.010210 0.000000 1.707090 
# 
# From -- ./inp_files/316273.got.cif
#   From: 2010.05.17/outbox.cif.g08.bks.cpg/sg15_159_cif.got.tgz:316273.got - 2010.06.03 18:47:42.
