data_PCOD9273580
_publ_section_title
;
Structure prediction by ZEFSAII (Michael W. Deem and Ramdas Pophale) SiO2 
 PCOD9273580
Probable space group: C 2/C
;
_chemical_formula_sum "Si O2"
_cell_formula_units_Z 60
_cell_length_a 20.490744
_cell_length_b 15.610511
_cell_length_c 8.598901
_cell_angle_alpha 90.000000
_cell_angle_beta 96.618816
_cell_angle_gamma 90.000000
_cell_volume 2732.206495
_symmetry_space_group_name_H-M "C 2/C"
_symmetry_group_IT_number 15
_symmetry_cell_setting 'monoclinic'
loop_
_space_group_symop_operation_xyz
x,y,z
-x,y,1/2-z
-x,-y,-z
x,-y,1/2+z
1/2+x,1/2+y,z
1/2-x,1/2+y,1/2-z
1/2-x,1/2-y,-z
1/2+x,1/2-y,1/2+z
loop_
_atom_site_type_symbol
_atom_site_label
_atom_site_fract_x
_atom_site_fract_y
_atom_site_fract_z
Si Si1 0.284769 0.861082 0.857099
Si Si2 0.949879 0.729905 0.854293
Si Si3 0.819617 0.024753 0.336565
Si Si4 0.189910 0.303035 0.303905
Si Si5 0.541874 0.415357 0.539176
Si Si6 0.000000 0.182090 0.750000
Si Si7 0.707788 0.374766 0.360384
Si Si8 0.613578 0.214229 0.333443
O O1 0.233115 0.932749 0.792805
O O2 0.243020 0.772837 0.834062
O O3 0.344537 0.854909 0.750498
O O4 0.309095 0.861153 0.041391
O O5 0.880890 0.735978 0.745660
O O6 0.980241 0.824331 0.896191
O O7 0.000000 0.683927 0.750000
O O8 0.926722 0.694572 0.018234
O O9 0.894170 0.057807 0.347187
O O10 0.799908 0.061403 0.498580
O O11 0.818634 0.923945 0.300660
O O12 0.217220 0.353659 0.161450
O O13 0.500000 0.500000 0.500000
O O14 0.545474 0.380846 0.363971
O O15 0.057534 0.245093 0.704876
O O16 0.667004 0.289033 0.386702
#
# Coordination Sequence:
#
# PCOD9273580 Si02
#       8
#     8   8   8   8   8   4   8   8
#     4  10  21  38  65  86 119 156 221 268 324 368
#     4  11  23  39  60  88 122 168 214 256 317 381
#     4  12  22  39  61  92 121 171 207 268 315 382
#     4  10  21  40  59  92 115 161 209 279 313 377
#     4  11  24  37  55  82 128 173 215 245 307 375
#     4  10  20  38  50  86 114 172 204 246 310 376
#     4  11  22  38  62  86 125 156 218 259 324 371
#     4  10  21  40  59  85 119 168 208 264 312 372
#
# _framework density 21.960272
#
# number of rings (size 3 to 8) (size 9 to 14) (size 15 to 20)
#    0.000    1.333    4.000    2.400    4.667    2.133 
#    2.400    0.000    0.000    0.000    1.733    2.800 
#    0.000    0.000    0.000    0.000    0.000    0.000 
#
# Total GULP energy -167035.378713 kJ/mol
# GULP energy per Si atom -5567.845957 kJ/mol
# Density = 2.191029 g / cm^3
# Si number density = 21.960272 Si / 1000 Ang^3
#
#
#
# Elastic Constant Matrix: (Units=GPa)
#
#
# Indices 1 2 3 4 5 6 
#
# 1 87.4814 6.3285 34.0732 0.0000 -6.3379 0.0000
# 2 6.3285 12.7240 3.2488 0.0000 0.5960 0.0000
# 3 34.0732 3.2488 66.7573 0.0000 -14.2975 0.0000
# 4 0.0000 0.0000 0.0000 28.9686 0.0000 7.5434
# 5 -6.3379 0.5960 -14.2975 0.0000 42.0694 0.0000
# 6 0.0000 0.0000 0.0000 7.5434 0.0000 31.3210
#
#
#
# Elastic Compliance Matrix: (Units=1/GPa)
#
#
# Indices 1 2 3 4 5 6 
#
# 1 0.014631 -0.005419 -0.007243 0.000000 -0.000180 0.000000
# 2 -0.005419 0.081860 -0.001770 0.000000 -0.002578 0.000000
# 3 -0.007243 -0.001770 0.019989 0.000000 0.005727 0.000000
# 4 0.000000 0.000000 0.000000 0.036830 0.000000 -0.008870
# 5 -0.000180 -0.002578 0.005727 0.000000 0.025726 0.000000
# 6 0.000000 0.000000 0.000000 -0.008870 0.000000 0.034064
#
#
# Mechanical properties :
#
#
# Convention : Reuss Voigt Hill
#
# Bulk Modulus (GPa) = 11.41340 28.25153 19.83246
# Shear Modulus (GPa) = 18.43875 28.69261 23.56568
#
# Velocity S-wave (km/s) = 2.90080 3.61857 3.27938
# Velocity P-wave (km/s) = 4.05316 5.50922 4.83630
#
# Compressibility (1/GPa) = 0.08761634
#
# Stress axis : x y z
#
# Youngs Moduli (GPa) = 68.34861 12.21602 50.02740
#
# Poissons Ratio (x) = 0.06620 0.36233
# Poissons Ratio (y) = 0.37040 0.08854
# Poissons Ratio (z) = 0.49502 0.02162
#
# Static dielectric constant tensor:
#      x y z
#    x 1.884670 0.000000 -0.026700 
#    y 0.000000 1.862730 0.000000 
#    z -0.026700 0.000000 1.977720 
# 
# From -- ./inp_files/56661.got.cif
#   From: 2010.05.17/outbox.cif.g08.bks.cpg/sg15_29_cif.got.tgz:56661.got - 2010.06.03 18:47:42.
