data_PCOD9273725
_publ_section_title
;
Structure prediction by ZEFSAII (Michael W. Deem and Ramdas Pophale) SiO2 
 PCOD9273725
Probable space group: C 2/C
;
_chemical_formula_sum "Si O2"
_cell_formula_units_Z 60
_cell_length_a 13.884943
_cell_length_b 8.878607
_cell_length_c 20.868877
_cell_angle_alpha 90.000000
_cell_angle_beta 103.715429
_cell_angle_gamma 90.000000
_cell_volume 2499.333730
_symmetry_space_group_name_H-M "C 2/C"
_symmetry_group_IT_number 15
_symmetry_cell_setting 'monoclinic'
loop_
_space_group_symop_operation_xyz
x,y,z
-x,y,1/2-z
-x,-y,-z
x,-y,1/2+z
1/2+x,1/2+y,z
1/2-x,1/2+y,1/2-z
1/2-x,1/2-y,-z
1/2+x,1/2-y,1/2+z
loop_
_atom_site_type_symbol
_atom_site_label
_atom_site_fract_x
_atom_site_fract_y
_atom_site_fract_z
Si Si1 0.513500 0.748430 0.510516
Si Si2 0.810060 0.337744 0.644461
Si Si3 0.353255 0.378530 0.780771
Si Si4 0.000000 0.330063 0.750000
Si Si5 0.405184 0.047128 0.835506
Si Si6 0.712971 0.503589 0.867335
Si Si7 0.489152 0.484934 0.599228
Si Si8 0.901322 0.475891 0.051370
O O1 0.518230 0.646216 0.574379
O O2 0.477945 0.634638 0.449599
O O3 0.610515 0.834024 0.497459
O O4 0.436932 0.880594 0.515971
O O5 0.741036 0.408355 0.688214
O O6 0.913824 0.269685 0.689949
O O7 0.765744 0.180637 0.614499
O O8 0.824683 0.458524 0.590572
O O9 0.368882 0.198419 0.793253
O O10 0.334391 0.443849 0.707533
O O11 0.448891 0.455828 0.827103
O O12 0.935631 0.431408 0.786505
O O13 0.326855 0.963752 0.869248
O O14 0.505233 0.076914 0.890565
O O15 0.628366 0.463842 0.905677
#
# Coordination Sequence:
#
# PCOD9273725 Si02
#       8
#     8   8   8   4   8   8   8   8
#     4  10  22  42  68  90 124 170 226 262 322 358
#     4  10  22  39  62  93 124 169 209 251 319 386
#     4  11  23  40  61  96 131 167 205 258 324 386
#     4  10  20  38  58  88 124 162 198 258 290 390
#     4  10  22  39  62  93 124 169 209 251 319 386
#     4  11  23  40  61  96 131 167 205 258 324 386
#     4  11  23  42  64  96 127 169 212 276 312 375
#     4  10  20  44  68  90 123 171 213 273 310 385
#
# _framework density 24.006398000000001
#
# number of rings (size 3 to 8) (size 9 to 14) (size 15 to 20)
#    0.000    1.600    4.000    0.400    3.733    0.000 
#    0.000    8.000    0.000    0.000    0.000    0.000 
#    0.000    0.000    0.000    0.000    0.000    0.000 
#
# Total GULP energy -167237.306675 kJ/mol
# GULP energy per Si atom -5574.576889 kJ/mol
# Density = 2.395176 g / cm^3
# Si number density = 24.006398 Si / 1000 Ang^3
#
#
#
# Elastic Constant Matrix: (Units=GPa)
#
#
# Indices 1 2 3 4 5 6 
#
# 1 93.3540 13.8548 3.8859 0.0000 -31.0590 0.0000
# 2 13.8548 80.9061 24.2524 0.0000 -13.5948 0.0000
# 3 3.8859 24.2524 59.1707 0.0000 -14.3802 0.0000
# 4 0.0000 0.0000 0.0000 41.7931 0.0000 0.5077
# 5 -31.0590 -13.5948 -14.3802 0.0000 34.9170 0.0000
# 6 0.0000 0.0000 0.0000 0.5077 0.0000 26.8727
#
#
#
# Elastic Compliance Matrix: (Units=1/GPa)
#
#
# Indices 1 2 3 4 5 6 
#
# 1 0.015651 -0.001106 0.003005 0.000000 0.014729 0.000000
# 2 -0.001106 0.014554 -0.005284 0.000000 0.002507 0.000000
# 3 0.003005 -0.005284 0.021133 0.000000 0.009319 0.000000
# 4 0.000000 0.000000 0.000000 0.023933 0.000000 -0.000452
# 5 0.014729 0.002507 0.009319 0.000000 0.046555 0.000000
# 6 0.000000 0.000000 0.000000 -0.000452 0.000000 0.037221
#
#
# Mechanical properties :
#
#
# Convention : Reuss Voigt Hill
#
# Bulk Modulus (GPa) = 22.43665 35.26854 28.85260
# Shear Modulus (GPa) = 27.67419 33.47909 30.57664
#
# Velocity S-wave (km/s) = 3.39895 3.73847 3.57275
# Velocity P-wave (km/s) = 4.97697 5.77565 5.39112
#
# Compressibility (1/GPa) = 0.04456994
#
# Stress axis : x y z
#
# Youngs Moduli (GPa) = 63.89244 68.70748 47.31854
#
# Poissons Ratio (x) = 0.07600 -0.14219
# Poissons Ratio (y) = 0.07067 0.25001
# Poissons Ratio (z) = -0.19200 0.36302
#
# Static dielectric constant tensor:
#      x y z
#    x 1.760280 0.000000 -0.386470 
#    y 0.000000 1.910480 0.000000 
#    z -0.386470 0.000000 1.128720 
# 
# From -- ./inp_files/272788.got.cif
#   From: 2010.05.17/outbox.cif.g08.bks.cpg/sg15_137_cif.got.tgz:272788.got - 2010.06.03 18:47:42.
