data_PCOD9273087
_publ_section_title
;
Structure prediction by ZEFSAII (Michael W. Deem and Ramdas Pophale) SiO2 
 PCOD9273087
Probable space group: C 2/C
;
_chemical_formula_sum "Si O2"
_cell_formula_units_Z 32
_cell_length_a 5.162677
_cell_length_b 39.070522
_cell_length_c 7.693299
_cell_angle_alpha 90.000000
_cell_angle_beta 88.546663
_cell_angle_gamma 90.000000
_cell_volume 1551.304493
_symmetry_space_group_name_H-M "C 2/C"
_symmetry_group_IT_number 15
_symmetry_cell_setting 'monoclinic'
loop_
_space_group_symop_operation_xyz
x,y,z
-x,y,1/2-z
-x,-y,-z
x,-y,1/2+z
1/2+x,1/2+y,z
1/2-x,1/2+y,1/2-z
1/2-x,1/2-y,-z
1/2+x,1/2-y,1/2+z
loop_
_atom_site_type_symbol
_atom_site_label
_atom_site_fract_x
_atom_site_fract_y
_atom_site_fract_z
Si Si1 0.156567 0.569410 0.563937
Si Si2 0.500000 0.521688 0.750000
Si Si3 0.744830 0.718113 0.872566
Si Si4 0.755024 0.856936 0.125999
Si Si5 0.500000 0.026502 0.250000
O O1 0.414907 0.547225 0.596883
O O2 0.227810 0.608419 0.516710
O O3 0.000000 0.569889 0.750000
O O4 0.994791 0.550397 0.419233
O O5 0.249778 0.497601 0.770714
O O6 0.500000 0.720674 0.750000
O O7 0.727037 0.680425 0.961604
O O8 0.000000 0.719068 0.750000
O O9 0.750000 0.750000 0.000000
O O10 0.500000 0.855381 0.250000
O O11 0.000000 0.861128 0.250000
#
# Coordination Sequence:
#
# PCOD9273087 Si02
#       5
#     8   4   8   8   4
#     4  11  24  42  64  85 121 162 198 248 307 354
#     4  12  24  42  62  86 119 160 197 252 308 356
#     4  10  20  37  62  91 123 158 200 245 296 361
#     4   9  19  36  61  84 113 160 198 231 293 363
#     4  12  28  38  60  94 117 148 211 254 294 362
#
# _framework density 20.627799
#
# number of rings (size 3 to 8) (size 9 to 14) (size 15 to 20)
#    0.000    1.500    2.500    2.250    3.500    0.000 
#    2.250    0.000    2.750    0.000    0.000    0.000 
#    0.000    0.000    0.000    0.000    0.000    0.000 
#
# Total GULP energy -89341.569646 kJ/mol
# GULP energy per Si atom -5583.848103 kJ/mol
# Density = 2.058085 g / cm^3
# Si number density = 20.627799 Si / 1000 Ang^3
#
#
#
# Elastic Constant Matrix: (Units=GPa)
#
#
# Indices 1 2 3 4 5 6 
#
# 1 151.0669 47.6603 20.9223 0.0000 9.2098 0.0000
# 2 47.6603 245.2400 62.8156 0.0000 12.1317 0.0000
# 3 20.9223 62.8156 63.2834 0.0000 9.9070 0.0000
# 4 0.0000 0.0000 0.0000 14.3927 0.0000 3.5347
# 5 9.2098 12.1317 9.9070 0.0000 17.0217 0.0000
# 6 0.0000 0.0000 0.0000 3.5347 0.0000 14.4764
#
#
#
# Elastic Compliance Matrix: (Units=1/GPa)
#
#
# Indices 1 2 3 4 5 6 
#
# 1 0.007238 -0.001031 -0.000959 0.000000 -0.002623 0.000000
# 2 -0.001031 0.005625 -0.005174 0.000000 -0.000440 0.000000
# 3 -0.000959 -0.005174 0.022660 0.000000 -0.008983 0.000000
# 4 0.000000 0.000000 0.000000 0.073912 0.000000 -0.018047
# 5 -0.002623 -0.000440 -0.008983 0.000000 0.065710 0.000000
# 6 0.000000 0.000000 0.000000 -0.018047 0.000000 0.073485
#
#
# Mechanical properties :
#
#
# Convention : Reuss Voigt Hill
#
# Bulk Modulus (GPa) = 47.17813 80.26517 63.72165
# Shear Modulus (GPa) = 18.51706 31.05763 24.78734
#
# Velocity S-wave (km/s) = 2.99937 3.88444 3.47024
# Velocity P-wave (km/s) = 5.90896 7.68857 6.85675
#
# Compressibility (1/GPa) = 0.02119626
#
# Stress axis : x y z
#
# Youngs Moduli (GPa) = 138.16700 177.77850 44.12972
#
# Poissons Ratio (x) = 0.18334 0.04230
# Poissons Ratio (y) = 0.14249 0.22831
# Poissons Ratio (z) = 0.13244 0.91975
#
# Static dielectric constant tensor:
#      x y z
#    x 1.742330 0.000000 -0.032930 
#    y 0.000000 1.805170 0.000000 
#    z -0.032930 0.000000 1.746300 
# 
# From -- ./inp_files/20249.got.cif
#   From: 2010.05.17/outbox.cif.g08.bks.cpg/sg15_11_cif.got.tgz:20249.got - 2010.06.03 18:47:42.
