data_PCOD9273141
_publ_section_title
;
Structure prediction by ZEFSAII (Michael W. Deem and Ramdas Pophale) SiO2 
 PCOD9273141
Probable space group: C 2/C
;
_chemical_formula_sum "Si O2"
_cell_formula_units_Z 32
_cell_length_a 10.118675
_cell_length_b 16.267910
_cell_length_c 10.068703
_cell_angle_alpha 90.000000
_cell_angle_beta 59.011205
_cell_angle_gamma 90.000000
_cell_volume 1420.841243
_symmetry_space_group_name_H-M "C 2/C"
_symmetry_group_IT_number 15
_symmetry_cell_setting 'monoclinic'
loop_
_space_group_symop_operation_xyz
x,y,z
-x,y,1/2-z
-x,-y,-z
x,-y,1/2+z
1/2+x,1/2+y,z
1/2-x,1/2+y,1/2-z
1/2-x,1/2-y,-z
1/2+x,1/2-y,1/2+z
loop_
_atom_site_type_symbol
_atom_site_label
_atom_site_fract_x
_atom_site_fract_y
_atom_site_fract_z
Si Si1 0.555558 0.429153 0.369853
Si Si2 0.619585 0.736959 0.453247
Si Si3 0.116639 0.332121 0.811706
Si Si4 0.106330 0.518683 0.817044
O O1 0.500000 0.448475 0.250000
O O2 0.500000 0.500000 0.500000
O O3 0.480182 0.343130 0.454824
O O4 0.740736 0.427094 0.259003
O O5 0.750000 0.750000 0.500000
O O6 0.727080 0.719392 0.271735
O O7 0.497352 0.810977 0.508576
O O8 0.165106 0.425180 0.761004
O O9 0.000000 0.311717 0.750000
O O10 0.000000 0.543569 0.750000
O O11 0.000000 0.500000 0.000000
#
# Coordination Sequence:
#
# PCOD9273141 Si02
#       4
#     8   8   8   8
#     4  12  24  41  68 101 134 176 228 283 337 397
#     4  10  20  37  62  97 126 171 231 276 320 394
#     4   9  19  34  58  89 124 166 224 271 315 392
#     4  11  24  41  64  96 137 173 221 278 341 402
#
# _framework density 22.521867
#
# number of rings (size 3 to 8) (size 9 to 14) (size 15 to 20)
#    0.000    1.500    2.500    3.750   10.500    0.000 
#    0.000    0.000    0.000    9.000    0.000    0.000 
#    0.000    0.000    0.000    0.000    0.000    0.000 
#
# Total GULP energy -89240.059474 kJ/mol
# GULP energy per Si atom -5577.503717 kJ/mol
# Density = 2.247061 g / cm^3
# Si number density = 22.521867 Si / 1000 Ang^3
#
#
#
# Elastic Constant Matrix: (Units=GPa)
#
#
# Indices 1 2 3 4 5 6 
#
# 1 102.8331 35.6155 62.3789 0.0000 -24.9734 0.0000
# 2 35.6155 80.7068 7.5403 0.0000 -24.4250 0.0000
# 3 62.3789 7.5403 121.7539 0.0000 -38.5322 0.0000
# 4 0.0000 0.0000 0.0000 39.5491 0.0000 -18.8005
# 5 -24.9734 -24.4250 -38.5322 0.0000 49.6274 0.0000
# 6 0.0000 0.0000 0.0000 -18.8005 0.0000 30.5520
#
#
#
# Elastic Compliance Matrix: (Units=1/GPa)
#
#
# Indices 1 2 3 4 5 6 
#
# 1 0.017265 -0.007359 -0.008997 0.000000 -0.001920 0.000000
# 2 -0.007359 0.018004 0.005684 0.000000 0.009571 0.000000
# 3 -0.008997 0.005684 0.015808 0.000000 0.010544 0.000000
# 4 0.000000 0.000000 0.000000 0.035740 0.000000 0.021993
# 5 -0.001920 0.009571 0.010544 0.000000 0.032081 0.000000
# 6 0.000000 0.000000 0.000000 0.021993 0.000000 0.046265
#
#
# Mechanical properties :
#
#
# Convention : Reuss Voigt Hill
#
# Bulk Modulus (GPa) = 33.63362 57.37369 45.50366
# Shear Modulus (GPa) = 25.45614 37.26296 31.35955
#
# Velocity S-wave (km/s) = 3.36562 4.07200 3.73554
# Velocity P-wave (km/s) = 5.48355 6.90204 6.23328
#
# Compressibility (1/GPa) = 0.02973216
#
# Stress axis : x y z
#
# Youngs Moduli (GPa) = 57.92123 55.54443 63.26051
#
# Poissons Ratio (x) = 0.40877 0.56916
# Poissons Ratio (y) = 0.42626 -0.35960
# Poissons Ratio (z) = 0.52113 -0.31574
#
# Static dielectric constant tensor:
#      x y z
#    x 1.815740 0.000000 -0.007090 
#    y 0.000000 -0.294810 0.000000 
#    z -0.007090 0.000000 1.916340 
# 
# From -- ./inp_files/76241.got.cif
#   From: 2010.05.17/outbox.cif.g08.bks.cpg/sg15_39_cif.got.tgz:76241.got - 2010.06.03 18:47:42.
