data_PCOD9273713
_publ_section_title
;
Structure prediction by ZEFSAII (Michael W. Deem and Ramdas Pophale) SiO2 
 PCOD9273713
Probable space group: C 2/C
;
_chemical_formula_sum "Si O2"
_cell_formula_units_Z 60
_cell_length_a 19.841789
_cell_length_b 11.536069
_cell_length_c 28.308651
_cell_angle_alpha 90.000000
_cell_angle_beta 25.736098
_cell_angle_gamma 90.000000
_cell_volume 2813.677862
_symmetry_space_group_name_H-M "C 2/C"
_symmetry_group_IT_number 15
_symmetry_cell_setting 'monoclinic'
loop_
_space_group_symop_operation_xyz
x,y,z
-x,y,1/2-z
-x,-y,-z
x,-y,1/2+z
1/2+x,1/2+y,z
1/2-x,1/2+y,1/2-z
1/2-x,1/2-y,-z
1/2+x,1/2-y,1/2+z
loop_
_atom_site_type_symbol
_atom_site_label
_atom_site_fract_x
_atom_site_fract_y
_atom_site_fract_z
Si Si1 0.970336 0.823517 0.393348
Si Si2 0.243126 0.043124 0.844593
Si Si3 0.429175 0.913253 0.472743
Si Si4 0.619974 0.116995 0.397916
Si Si5 0.168455 0.577314 0.048090
Si Si6 0.291941 0.200346 0.726113
Si Si7 0.000000 0.502082 0.750000
Si Si8 0.067997 0.835611 0.973261
O O1 0.911542 0.691579 0.423771
O O2 0.852514 0.897841 0.436230
O O3 0.938339 0.865784 0.467039
O O4 0.157522 0.824514 0.272274
O O5 0.289690 0.095443 0.765331
O O6 0.368651 0.070750 0.804745
O O7 0.215451 0.904211 0.860409
O O8 0.080304 0.105092 0.957691
O O9 0.316904 0.900329 0.588865
O O10 0.529269 0.796812 0.401155
O O11 0.557876 0.002604 0.412549
O O12 0.362075 0.970063 0.467810
O O13 0.732934 0.188369 0.292530
O O14 0.468137 0.199927 0.501617
O O15 0.090217 0.562685 0.149667
#
# Coordination Sequence:
#
# PCOD9273713 Si02
#       8
#     8   8   8   8   8   8   4   8
#     4   9  19  35  52  80 119 144 185 241 301 343
#     4   9  18  29  52  81 107 147 187 235 284 336
#     4  11  20  36  62  86 115 159 199 239 300 356
#     4   9  21  36  57  87 116 151 197 248 292 347
#     4  11  20  34  55  84 117 151 184 244 303 355
#     4  10  20  38  58  86 120 157 198 248 289 358
#     4  12  20  28  50  88 108 140 194 238 286 344
#     4   9  16  34  53  75 111 151 183 234 289 344
#
# _framework density 21.324403
#
# number of rings (size 3 to 8) (size 9 to 14) (size 15 to 20)
#    0.000    2.400    5.333    0.000    0.000    2.133 
#    0.000    0.000    0.000    9.600    0.000    0.000 
#    0.000    0.000    0.000    0.000    0.000    0.000 
#
# Total GULP energy -167025.901106 kJ/mol
# GULP energy per Si atom -5567.530037 kJ/mol
# Density = 2.127587 g / cm^3
# Si number density = 21.324403 Si / 1000 Ang^3
#
#
#
# Elastic Constant Matrix: (Units=GPa)
#
#
# Indices 1 2 3 4 5 6 
#
# 1 118.4802 19.5087 45.2695 -0.0006 -20.6435 0.0002
# 2 19.5087 49.6083 15.0752 -0.0013 -0.7494 -0.0002
# 3 45.2695 15.0752 46.3301 0.0006 -10.2903 0.0014
# 4 -0.0006 -0.0013 0.0006 20.8313 0.0008 -0.3874
# 5 -20.6435 -0.7494 -10.2903 0.0008 42.7931 0.0000
# 6 0.0002 -0.0002 0.0014 -0.3874 0.0000 30.0026
#
#
#
# Elastic Compliance Matrix: (Units=1/GPa)
#
#
# Indices 1 2 3 4 5 6 
#
# 1 0.014122 -0.001731 -0.012391 0.000001 0.003803 0.000000
# 2 -0.001731 0.022666 -0.006107 0.000002 -0.001907 0.000000
# 3 -0.012391 -0.006107 0.036265 -0.000002 0.002636 -0.000002
# 4 0.000001 0.000002 -0.000002 0.048016 -0.000001 0.000620
# 5 0.003803 -0.001907 0.002636 -0.000001 0.025803 0.000000
# 6 0.000000 0.000000 -0.000002 0.000620 0.000000 0.033338
#
#
# Mechanical properties :
#
#
# Convention : Reuss Voigt Hill
#
# Bulk Modulus (GPa) = 30.68081 41.56949 36.12515
# Shear Modulus (GPa) = 21.59514 27.69642 24.64578
#
# Velocity S-wave (km/s) = 3.18574 3.60781 3.40333
# Velocity P-wave (km/s) = 5.28685 6.07382 5.69395
#
# Compressibility (1/GPa) = 0.03259366
#
# Stress axis : x y z
#
# Youngs Moduli (GPa) = 70.81022 44.11959 27.57515
#
# Poissons Ratio (x) = 0.07636 0.34169
# Poissons Ratio (y) = 0.12255 0.16841
# Poissons Ratio (z) = 0.87742 0.26946
#
# Static dielectric constant tensor:
#      x y z
#    x 1.797990 0.000000 0.050160 
#    y 0.000000 1.815770 0.000000 
#    z 0.050160 0.000000 1.872400 
# 
# From -- ./inp_files/316064.got.cif
#   From: 2010.05.17/outbox.cif.g08.bks.cpg/sg15_159_cif.got.tgz:316064.got - 2010.06.03 18:47:42.
