data_PCOD9273987
_publ_section_title
;
Structure prediction by ZEFSAII (Michael W. Deem and Ramdas Pophale) SiO2 
 PCOD9273987
Probable space group: C 2/C
;
_chemical_formula_sum "Si O2"
_cell_formula_units_Z 64
_cell_length_a 18.460795
_cell_length_b 8.737844
_cell_length_c 18.122304
_cell_angle_alpha 90.000000
_cell_angle_beta 108.418945
_cell_angle_gamma 90.000000
_cell_volume 2773.510213
_symmetry_space_group_name_H-M "C 2/C"
_symmetry_group_IT_number 15
_symmetry_cell_setting 'monoclinic'
loop_
_space_group_symop_operation_xyz
x,y,z
-x,y,1/2-z
-x,-y,-z
x,-y,1/2+z
1/2+x,1/2+y,z
1/2-x,1/2+y,1/2-z
1/2-x,1/2-y,-z
1/2+x,1/2-y,1/2+z
loop_
_atom_site_type_symbol
_atom_site_label
_atom_site_fract_x
_atom_site_fract_y
_atom_site_fract_z
Si Si1 0.319032 0.745673 0.922304
Si Si2 0.173865 0.954158 0.214895
Si Si3 0.154346 0.525594 0.763429
Si Si4 0.981805 0.343796 0.033781
Si Si5 0.869698 0.252488 0.371167
Si Si6 0.431429 0.737519 0.170290
Si Si7 0.190340 0.963726 0.945985
Si Si8 0.692252 0.734276 0.858997
O O1 0.325443 0.688593 0.841001
O O2 0.260459 0.882716 0.923069
O O3 0.404228 0.785523 0.973192
O O4 0.296605 0.600115 0.967071
O O5 0.161276 0.893008 0.291666
O O6 0.260636 0.007295 0.235902
O O7 0.123753 0.097363 0.174899
O O8 0.120736 0.591747 0.674957
O O9 0.135158 0.670748 0.808473
O O10 0.144630 0.382955 0.817248
O O11 0.964047 0.344783 0.115634
O O12 0.059596 0.246853 0.050691
O O13 0.000000 0.500000 0.000000
O O14 0.783601 0.249974 0.374387
O O15 0.500000 0.703662 0.250000
O O16 0.388638 0.604714 0.111600
O O17 0.186627 0.145867 0.934693
#
# Coordination Sequence:
#
# PCOD9273987 Si02
#       8
#     8   8   8   8   8   8   8   8
#     4  10  22  38  64  87 128 166 203 249 311 367
#     4  10  21  36  63  93 116 160 197 261 297 359
#     4  10  20  38  60  94 118 153 208 253 303 358
#     4  11  24  38  60  89 121 167 200 246 308 373
#     4  10  21  39  60  89 123 156 202 245 309 359
#     4  11  21  38  67  82 117 164 203 252 305 365
#     4  10  21  41  61  92 122 162 208 250 304 372
#     4  10  22  35  67  92 118 156 206 262 297 351
#
# _framework density 23.075451000000001
#
# number of rings (size 3 to 8) (size 9 to 14) (size 15 to 20)
#    0.000    1.750    2.500    1.500    7.000    0.500 
#    2.250    1.875    0.000    0.000    0.000    0.000 
#    0.000    0.000    0.000    0.000    0.000    0.000 
#
# Total GULP energy -178308.887696 kJ/mol
# GULP energy per Si atom -5572.152741 kJ/mol
# Density = 2.302293 g / cm^3
# Si number density = 23.075451 Si / 1000 Ang^3
#
#
#
# Elastic Constant Matrix: (Units=GPa)
#
#
# Indices 1 2 3 4 5 6 
#
# 1 50.8544 11.5803 21.2949 0.0000 9.4846 0.0000
# 2 11.5803 52.4364 7.0964 0.0000 15.9458 0.0000
# 3 21.2949 7.0964 75.2350 0.0000 13.2131 0.0000
# 4 0.0000 0.0000 0.0000 38.3767 0.0000 -3.7650
# 5 9.4846 15.9458 13.2131 0.0000 38.4951 0.0000
# 6 0.0000 0.0000 0.0000 -3.7650 0.0000 20.9467
#
#
#
# Elastic Compliance Matrix: (Units=1/GPa)
#
#
# Indices 1 2 3 4 5 6 
#
# 1 0.023380 -0.003695 -0.005881 0.000000 -0.002211 0.000000
# 2 -0.003695 0.022421 0.000428 0.000000 -0.008524 0.000000
# 3 -0.005881 0.000428 0.015635 0.000000 -0.004095 0.000000
# 4 0.000000 0.000000 0.000000 0.026525 0.000000 0.004768
# 5 -0.002211 -0.008524 -0.004095 0.000000 0.031459 0.000000
# 6 0.000000 0.000000 0.000000 0.004768 0.000000 0.048597
#
#
# Mechanical properties :
#
#
# Convention : Reuss Voigt Hill
#
# Bulk Modulus (GPa) = 23.17993 28.71876 25.94935
# Shear Modulus (GPa) = 24.91366 28.80064 26.85715
#
# Velocity S-wave (km/s) = 3.28938 3.53669 3.41528
# Velocity P-wave (km/s) = 4.94912 5.39909 5.17900
#
# Compressibility (1/GPa) = 0.04314077
#
# Stress axis : x y z
#
# Youngs Moduli (GPa) = 42.77090 44.60124 63.95901
#
# Poissons Ratio (x) = 0.16480 0.37613
# Poissons Ratio (y) = 0.15804 -0.02738
# Poissons Ratio (z) = 0.25153 -0.01909
#
# Static dielectric constant tensor:
#      x y z
#    x 1.869740 0.000000 -0.040070 
#    y 0.000000 1.931550 0.000000 
#    z -0.040070 0.000000 1.750830 
# 
# From -- ./inp_files/251928.got.cif
#   From: 2010.05.17/outbox.cif.g08.bks.cpg/sg15_126_cif.got.tgz:251928.got - 2010.06.03 18:47:42.
