data_PCOD9273521
_publ_section_title
;
Structure prediction by ZEFSAII (Michael W. Deem and Ramdas Pophale) SiO2 
 PCOD9273521
Probable space group: C 2/C
;
_chemical_formula_sum "Si O2"
_cell_formula_units_Z 56
_cell_length_a 12.988424
_cell_length_b 17.980339
_cell_length_c 14.492354
_cell_angle_alpha 90.000000
_cell_angle_beta 118.689867
_cell_angle_gamma 90.000000
_cell_volume 2968.980033
_symmetry_space_group_name_H-M "C 2/C"
_symmetry_group_IT_number 15
_symmetry_cell_setting 'monoclinic'
loop_
_space_group_symop_operation_xyz
x,y,z
-x,y,1/2-z
-x,-y,-z
x,-y,1/2+z
1/2+x,1/2+y,z
1/2-x,1/2+y,1/2-z
1/2-x,1/2-y,-z
1/2+x,1/2-y,1/2+z
loop_
_atom_site_type_symbol
_atom_site_label
_atom_site_fract_x
_atom_site_fract_y
_atom_site_fract_z
Si Si1 0.385477 0.763667 0.138943
Si Si2 0.752353 0.584468 0.557349
Si Si3 0.888511 0.550586 0.431975
Si Si4 0.802440 0.999978 0.791477
Si Si5 0.546834 0.650632 0.666808
Si Si6 0.515754 0.585046 0.039710
Si Si7 0.136930 0.716767 0.082735
O O1 0.500000 0.753719 0.250000
O O2 0.326296 0.845391 0.125939
O O3 0.277011 0.711423 0.122647
O O4 0.412202 0.761242 0.040528
O O5 0.813276 0.557427 0.492300
O O6 0.750341 0.520089 0.631866
O O7 0.615232 0.605530 0.483530
O O8 0.803214 0.514595 0.321321
O O9 0.914554 0.636126 0.415333
O O10 0.000000 0.500000 0.500000
O O11 0.873813 0.075228 0.794246
O O12 0.886307 0.927473 0.840353
O O13 0.500000 0.664110 0.750000
O O14 0.457816 0.630428 0.542989
O O15 0.612545 0.721954 0.650843
O O16 0.500000 0.500000 0.000000
#
# Coordination Sequence:
#
# PCOD9273521 Si02
#       7
#     8   8   8   8   8   8   8
#     4  10  20  37  68  90 116 161 206 269 320 360
#     4   9  19  38  62  87 122 156 211 251 306 367
#     4  11  26  40  59  89 126 171 207 248 310 379
#     4  10  22  37  64  93 124 162 210 260 314 365
#     4  10  20  37  67  90 125 164 200 256 321 378
#     4   8  17  35  58  95 118 150 205 260 302 360
#     4  10  22  42  57  94 124 156 215 256 302 381
#
# _framework density 18.861695999999998
#
# number of rings (size 3 to 8) (size 9 to 14) (size 15 to 20)
#    0.000    2.571    2.857    0.000   10.000    1.143 
#    2.571    0.000    0.000    2.571    0.000    0.000 
#    0.000    0.000    0.000    0.000    0.000    0.000 
#
# Total GULP energy -155875.076621 kJ/mol
# GULP energy per Si atom -5566.967022 kJ/mol
# Density = 1.881877 g / cm^3
# Si number density = 18.861696 Si / 1000 Ang^3
#
#
#
# Elastic Constant Matrix: (Units=GPa)
#
#
# Indices 1 2 3 4 5 6 
#
# 1 80.7148 41.6400 69.9024 0.0000 -14.5812 0.0000
# 2 41.6400 100.6463 49.9758 0.0000 1.8669 0.0000
# 3 69.9024 49.9758 140.1710 0.0000 23.1317 0.0000
# 4 0.0000 0.0000 0.0000 21.4346 0.0000 -0.8403
# 5 -14.5812 1.8669 23.1317 0.0000 37.2212 0.0000
# 6 0.0000 0.0000 0.0000 -0.8403 0.0000 30.6734
#
#
#
# Elastic Compliance Matrix: (Units=1/GPa)
#
#
# Indices 1 2 3 4 5 6 
#
# 1 0.042106 -0.006051 -0.024082 0.000000 0.031764 0.000000
# 2 -0.006051 0.013123 -0.001294 0.000000 -0.002225 0.000000
# 3 -0.024082 -0.001294 0.023568 0.000000 -0.024016 0.000000
# 4 0.000000 0.000000 0.000000 0.046704 0.000000 0.001280
# 5 0.031764 -0.002225 -0.024016 0.000000 0.054347 0.000000
# 6 0.000000 0.000000 0.000000 0.001280 0.000000 0.032637
#
#
# Mechanical properties :
#
#
# Convention : Reuss Voigt Hill
#
# Bulk Modulus (GPa) = 62.72702 71.61873 67.17288
# Shear Modulus (GPa) = 17.81557 28.53343 23.17450
#
# Velocity S-wave (km/s) = 3.07667 3.89366 3.50902
# Velocity P-wave (km/s) = 6.77862 7.63328 7.21861
#
# Compressibility (1/GPa) = 0.01594209
#
# Stress axis : x y z
#
# Youngs Moduli (GPa) = 23.74978 76.20110 42.42974
#
# Poissons Ratio (x) = 0.46112 1.02180
# Poissons Ratio (y) = 0.14372 0.05490
# Poissons Ratio (z) = 0.57195 0.09860
#
# Static dielectric constant tensor:
#      x y z
#    x 1.672810 0.000000 0.000240 
#    y 0.000000 1.721930 0.000000 
#    z 0.000240 0.000000 1.741380 
# 
# From -- ./inp_files/146172.got.cif
#   From: 2010.05.17/outbox.cif.g08.bks.cpg/sg15_74_cif.got.tgz:146172.got - 2010.06.03 18:47:42.
