data_PCOD9273240
_publ_section_title
;
Structure prediction by ZEFSAII (Michael W. Deem and Ramdas Pophale) SiO2 
 PCOD9273240
Probable space group: C 2/C
;
_chemical_formula_sum "Si O2"
_cell_formula_units_Z 28
_cell_length_a 6.527627
_cell_length_b 19.389786
_cell_length_c 10.936458
_cell_angle_alpha 90.000000
_cell_angle_beta 120.401242
_cell_angle_gamma 90.000000
_cell_volume 1193.893255
_symmetry_space_group_name_H-M "C 2/C"
_symmetry_group_IT_number 15
_symmetry_cell_setting 'monoclinic'
loop_
_space_group_symop_operation_xyz
x,y,z
-x,y,1/2-z
-x,-y,-z
x,-y,1/2+z
1/2+x,1/2+y,z
1/2-x,1/2+y,1/2-z
1/2-x,1/2-y,-z
1/2+x,1/2-y,1/2+z
loop_
_atom_site_type_symbol
_atom_site_label
_atom_site_fract_x
_atom_site_fract_y
_atom_site_fract_z
Si Si1 0.280312 0.449883 0.969228
Si Si2 0.021919 0.580240 0.617491
Si Si3 0.254760 0.693363 0.105135
Si Si4 0.500000 0.838162 0.750000
O O1 0.057280 0.501460 0.894301
O O2 0.218751 0.387786 0.858139
O O3 0.500000 0.500000 0.000000
O O4 0.256822 0.420562 0.101737
O O5 0.827856 0.621903 0.480413
O O6 0.000000 0.608608 0.750000
O O7 0.500000 0.690588 0.250000
O O8 0.064257 0.707151 0.153569
O O9 0.250000 0.750000 0.000000
#
# Coordination Sequence:
#
# PCOD9273240 Si02
#       4
#     8   8   8   4
#     4  10  20  37  63  94 135 176 212 271 339 398
#     4  10  21  39  61  96 132 171 223 272 328 404
#     4  11  24  43  67  95 133 181 228 280 333 398
#     4  10  22  42  66 100 136 170 230 276 334 406
#
# _framework density 23.452683
#
# number of rings (size 3 to 8) (size 9 to 14) (size 15 to 20)
#    0.000    1.714    1.429    2.571    0.000    2.286 
#    0.000    2.857    0.000    0.000    0.000    0.000 
#    0.000    0.000    0.000    0.000    0.000    0.000 
#
# Total GULP energy -78068.006951 kJ/mol
# GULP energy per Si atom -5576.286211 kJ/mol
# Density = 2.339930 g / cm^3
# Si number density = 23.452683 Si / 1000 Ang^3
#
#
#
# Elastic Constant Matrix: (Units=GPa)
#
#
# Indices 1 2 3 4 5 6 
#
# 1 142.7510 45.4598 82.2604 0.0000 -40.1309 0.0000
# 2 45.4598 72.9888 36.8671 0.0000 -17.4560 0.0000
# 3 82.2604 36.8671 159.5479 0.0000 -30.9939 0.0000
# 4 0.0000 0.0000 0.0000 25.2813 0.0000 -18.3865
# 5 -40.1309 -17.4560 -30.9939 0.0000 48.3650 0.0000
# 6 0.0000 0.0000 0.0000 -18.3865 0.0000 28.4541
#
#
#
# Elastic Compliance Matrix: (Units=1/GPa)
#
#
# Indices 1 2 3 4 5 6 
#
# 1 0.012542 -0.004166 -0.004311 0.000000 0.006141 0.000000
# 2 -0.004166 0.017521 -0.001535 0.000000 0.001884 0.000000
# 3 -0.004311 -0.001535 0.009186 0.000000 0.001756 0.000000
# 4 0.000000 0.000000 0.000000 0.074625 0.000000 0.048221
# 5 0.006141 0.001884 0.001756 0.000000 0.027576 0.000000
# 6 0.000000 0.000000 0.000000 0.048221 0.000000 0.066304
#
#
# Mechanical properties :
#
#
# Convention : Reuss Voigt Hill
#
# Bulk Modulus (GPa) = 52.01245 78.27358 65.14301
# Shear Modulus (GPa) = 21.35038 34.46678 27.90858
#
# Velocity S-wave (km/s) = 3.02049 3.83773 3.45337
# Velocity P-wave (km/s) = 5.86432 7.28596 6.61345
#
# Compressibility (1/GPa) = 0.01922617
#
# Stress axis : x y z
#
# Youngs Moduli (GPa) = 79.72919 57.07425 108.85853
#
# Poissons Ratio (x) = 0.23775 0.46931
# Poissons Ratio (y) = 0.33212 0.16710
# Poissons Ratio (z) = 0.34373 0.08761
#
# Static dielectric constant tensor:
#      x y z
#    x 2.073710 0.000000 -0.017390 
#    y 0.000000 1.857640 0.000000 
#    z -0.017390 0.000000 1.999040 
# 
# From -- ./inp_files/71625.got.cif
#   From: 2010.05.17/outbox.cif.g08.bks.cpg/sg15_36_cif.got.tgz:71625.got - 2010.06.03 18:47:42.
