data_PCOD9273412
_publ_section_title
;
Structure prediction by ZEFSAII (Michael W. Deem and Ramdas Pophale) SiO2 
 PCOD9273412
Probable space group: C 2/C
;
_chemical_formula_sum "Si O2"
_cell_formula_units_Z 44
_cell_length_a 17.348348
_cell_length_b 14.449129
_cell_length_c 10.859778
_cell_angle_alpha 90.000000
_cell_angle_beta 37.738892
_cell_angle_gamma 90.000000
_cell_volume 1666.163286
_symmetry_space_group_name_H-M "C 2/C"
_symmetry_group_IT_number 15
_symmetry_cell_setting 'monoclinic'
loop_
_space_group_symop_operation_xyz
x,y,z
-x,y,1/2-z
-x,-y,-z
x,-y,1/2+z
1/2+x,1/2+y,z
1/2-x,1/2+y,1/2-z
1/2-x,1/2-y,-z
1/2+x,1/2-y,1/2+z
loop_
_atom_site_type_symbol
_atom_site_label
_atom_site_fract_x
_atom_site_fract_y
_atom_site_fract_z
Si Si1 0.128525 0.390190 0.318030
Si Si2 0.932427 0.050178 0.204962
Si Si3 0.750133 0.798590 0.844630
Si Si4 0.617922 0.209625 0.270583
Si Si5 0.259356 0.603621 0.893371
Si Si6 0.000000 0.399279 0.250000
O O1 0.227042 0.309261 0.154880
O O2 0.201254 0.435894 0.339658
O O3 0.012732 0.330583 0.518735
O O4 0.061650 0.447381 0.292490
O O5 0.868484 0.143608 0.239582
O O6 0.000000 0.064970 0.250000
O O7 0.817384 0.982739 0.387700
O O8 0.000000 0.000000 0.000000
O O9 0.731211 0.813126 0.722464
O O10 0.616339 0.835810 0.061456
O O11 0.628344 0.320688 0.258790
O O12 0.654323 0.161528 0.097540
#
# Coordination Sequence:
#
# PCOD9273412 Si02
#       6
#     8   8   8   8   8   4
#     4  10  20  37  65  92 124 165 219 267 325 383
#     4  12  27  43  66  97 138 179 221 275 341 402
#     4  10  22  40  62  94 131 170 216 267 335 394
#     4   9  19  39  64  93 124 169 220 275 316 390
#     4  10  21  38  63  92 129 167 224 266 326 388
#     4  10  22  38  60  92 126 168 214 268 322 392
#
# _framework density 26.407976999999999
#
# number of rings (size 3 to 8) (size 9 to 14) (size 15 to 20)
#    0.000    1.818    0.000    3.273    3.818    2.909 
#    3.273    1.818    0.000    0.000    0.000    0.000 
#    0.000    0.000    0.000    0.000    0.000    0.000 
#
# Total GULP energy -123039.670442 kJ/mol
# GULP energy per Si atom -5592.712293 kJ/mol
# Density = 2.634787 g / cm^3
# Si number density = 26.407977 Si / 1000 Ang^3
#
#
#
# Elastic Constant Matrix: (Units=GPa)
#
#
# Indices 1 2 3 4 5 6 
#
# 1 201.0391 34.3162 -0.6640 0.0000 9.6217 0.0000
# 2 34.3162 67.5880 4.6246 0.0000 -10.7090 0.0000
# 3 -0.6640 4.6246 110.0787 0.0000 -8.1634 0.0000
# 4 0.0000 0.0000 0.0000 24.6192 0.0000 -10.3389
# 5 9.6217 -10.7090 -8.1634 0.0000 34.8385 0.0000
# 6 0.0000 0.0000 0.0000 -10.3389 0.0000 31.0431
#
#
#
# Elastic Compliance Matrix: (Units=1/GPa)
#
#
# Indices 1 2 3 4 5 6 
#
# 1 0.005657 -0.003279 -0.000019 0.000000 -0.002575 0.000000
# 2 -0.003279 0.017464 -0.000293 0.000000 0.006205 0.000000
# 3 -0.000019 -0.000293 0.009251 0.000000 0.002083 0.000000
# 4 0.000000 0.000000 0.000000 0.047224 0.000000 0.015728
# 5 -0.002575 0.006205 0.002083 0.000000 0.031810 0.000000
# 6 0.000000 0.000000 0.000000 0.015728 0.000000 0.037451
#
#
# Mechanical properties :
#
#
# Convention : Reuss Voigt Hill
#
# Bulk Modulus (GPa) = 39.69964 50.58438 45.14201
# Shear Modulus (GPa) = 30.40699 40.79540 35.60120
#
# Velocity S-wave (km/s) = 3.39696 3.93468 3.67566
# Velocity P-wave (km/s) = 5.51830 6.31180 5.92834
#
# Compressibility (1/GPa) = 0.02518915
#
# Stress axis : x y z
#
# Youngs Moduli (GPa) = 176.77206 57.26228 108.09547
#
# Poissons Ratio (x) = 0.18775 0.00206
# Poissons Ratio (y) = 0.57961 0.03170
# Poissons Ratio (z) = 0.00337 0.01679
#
# Static dielectric constant tensor:
#      x y z
#    x 2.167480 0.000000 0.135140 
#    y 0.000000 2.041030 0.000000 
#    z 0.135140 0.000000 2.173660 
# 
# From -- ./inp_files/106605.got.cif
#   From: 2010.05.17/outbox.cif.g08.bks.cpg/sg15_54_cif.got.tgz:106605.got - 2010.06.03 18:47:42.
