data_PCOD9273631
_publ_section_title
;
Structure prediction by ZEFSAII (Michael W. Deem and Ramdas Pophale) SiO2 
 PCOD9273631
Probable space group: C 2/C
;
_chemical_formula_sum "Si O2"
_cell_formula_units_Z 48
_cell_length_a 14.846505
_cell_length_b 32.867366
_cell_length_c 14.691273
_cell_angle_alpha 90.000000
_cell_angle_beta 160.417673
_cell_angle_gamma 90.000000
_cell_volume 2402.713581
_symmetry_space_group_name_H-M "C 2/C"
_symmetry_group_IT_number 15
_symmetry_cell_setting 'monoclinic'
loop_
_space_group_symop_operation_xyz
x,y,z
-x,y,1/2-z
-x,-y,-z
x,-y,1/2+z
1/2+x,1/2+y,z
1/2-x,1/2+y,1/2-z
1/2-x,1/2-y,-z
1/2+x,1/2-y,1/2+z
loop_
_atom_site_type_symbol
_atom_site_label
_atom_site_fract_x
_atom_site_fract_y
_atom_site_fract_z
Si Si1 0.409989 0.277262 0.766962
Si Si2 0.541053 0.889268 0.989478
Si Si3 0.000000 0.595030 0.250000
Si Si4 0.534642 0.275246 0.174807
Si Si5 0.269048 0.480466 0.217655
Si Si6 0.000000 0.962095 0.250000
Si Si7 0.482168 0.344618 0.984938
O O1 0.500000 0.287500 0.750000
O O2 0.439049 0.315908 0.858278
O O3 0.113782 0.258641 0.489444
O O4 0.561276 0.880626 0.900194
O O5 0.229815 0.881662 0.715833
O O6 0.684349 0.932826 0.138210
O O7 0.715009 0.859784 0.217286
O O8 0.261117 0.566334 0.482092
O O9 0.500000 0.279849 0.250000
O O10 0.839727 0.260575 0.452818
O O11 0.448695 0.315770 0.041253
O O12 0.500000 0.500000 0.500000
O O13 0.364606 0.486678 0.203896
O O14 0.000000 0.500000 0.000000
#
# Coordination Sequence:
#
# PCOD9273631 Si02
#       7
#     8   8   4   8   8   4   8
#     4  10  21  39  64  87 110 154 212 260 307 361
#     4  11  24  36  60  91 121 160 200 247 308 367
#     4  10  20  38  56  86 126 155 204 250 288 363
#     4  10  21  35  51  77 117 160 197 232 286 354
#     4  11  22  41  67  88 126 161 207 255 308 370
#     4  10  20  38  64  94 114 157 208 258 294 359
#     4  12  22  36  59  86 123 153 202 250 309 356
#
# _framework density 19.977412999999999
#
# number of rings (size 3 to 8) (size 9 to 14) (size 15 to 20)
#    0.000    1.333    0.000    8.000    2.333    0.000 
#    0.000    0.000   11.000    0.000    0.000    0.000 
#    0.000    0.000    0.000    0.000    0.000    0.000 
#
# Total GULP energy -133960.168870 kJ/mol
# GULP energy per Si atom -5581.673703 kJ/mol
# Density = 1.993194 g / cm^3
# Si number density = 19.977413 Si / 1000 Ang^3
#
#
#
# Elastic Constant Matrix: (Units=GPa)
#
#
# Indices 1 2 3 4 5 6 
#
# 1 97.0401 28.4389 32.8419 0.0008 -8.6806 -0.0008
# 2 28.4389 47.8708 18.0163 0.0002 -15.3612 -0.0003
# 3 32.8419 18.0163 121.0425 0.0024 -3.8530 -0.0014
# 4 0.0008 0.0002 0.0024 83.4500 0.0013 -61.9731
# 5 -8.6806 -15.3612 -3.8530 0.0013 31.7477 -0.0006
# 6 -0.0008 -0.0003 -0.0014 -61.9731 -0.0006 68.3757
#
#
#
# Elastic Compliance Matrix: (Units=1/GPa)
#
#
# Indices 1 2 3 4 5 6 
#
# 1 0.013183 -0.006882 -0.002554 0.000000 -0.000035 0.000000
# 2 -0.006882 0.029720 -0.002167 0.000000 0.012235 0.000000
# 3 -0.002554 -0.002167 0.009257 0.000000 -0.000623 0.000000
# 4 0.000000 0.000000 0.000000 0.036657 -0.000001 0.033224
# 5 -0.000035 0.012235 -0.000623 -0.000001 0.037333 -0.000001
# 6 0.000000 0.000000 0.000000 0.033224 -0.000001 0.044738
#
#
# Mechanical properties :
#
#
# Convention : Reuss Voigt Hill
#
# Bulk Modulus (GPa) = 34.53657 47.17195 40.85426
# Shear Modulus (GPa) = 24.54057 49.15844 36.84950
#
# Velocity S-wave (km/s) = 3.50868 4.96593 4.29949
# Velocity P-wave (km/s) = 5.80859 7.51961 6.71879
#
# Compressibility (1/GPa) = 0.02895481
#
# Stress axis : x y z
#
# Youngs Moduli (GPa) = 75.85553 33.64789 108.02495
#
# Poissons Ratio (x) = 0.23156 0.27586
# Poissons Ratio (y) = 0.52203 0.23407
# Poissons Ratio (z) = 0.19371 0.07291
#
# Static dielectric constant tensor:
#      x y z
#    x 1.712400 0.000000 -0.007240 
#    y 0.000000 1.720740 0.000000 
#    z -0.007240 0.000000 1.705020 
# 
# From -- ./inp_files/8679.got.cif
#   From: 2010.05.17/outbox.cif.g08.bks.cpg/sg15_5_cif.got.tgz:8679.got - 2010.06.03 18:47:42.
