data_PCOD9273103
_publ_section_title
;
Structure prediction by ZEFSAII (Michael W. Deem and Ramdas Pophale) SiO2 
 PCOD9273103
Probable space group: C 2/C
;
_chemical_formula_sum "Si O2"
_cell_formula_units_Z 36
_cell_length_a 23.819473
_cell_length_b 9.583710
_cell_length_c 8.940507
_cell_angle_alpha 90.000000
_cell_angle_beta 112.045669
_cell_angle_gamma 90.000000
_cell_volume 1891.706691
_symmetry_space_group_name_H-M "C 2/C"
_symmetry_group_IT_number 15
_symmetry_cell_setting 'monoclinic'
loop_
_space_group_symop_operation_xyz
x,y,z
-x,y,1/2-z
-x,-y,-z
x,-y,1/2+z
1/2+x,1/2+y,z
1/2-x,1/2+y,1/2-z
1/2-x,1/2-y,-z
1/2+x,1/2-y,1/2+z
loop_
_atom_site_type_symbol
_atom_site_label
_atom_site_fract_x
_atom_site_fract_y
_atom_site_fract_z
Si Si1 0.302275 0.152793 0.123182
Si Si2 0.618883 0.362532 0.449775
Si Si3 0.500000 0.500002 0.250000
Si Si4 0.697725 0.847207 0.518633
Si Si5 0.118883 0.137469 0.287991
O O1 0.363655 0.230293 0.131091
O O2 0.298056 0.148118 0.298056
O O3 0.250000 0.250000 0.000000
O O4 0.299186 1.000000 0.049186
O O5 0.547545 0.400309 0.381700
O O6 0.646294 0.500001 0.396294
O O7 0.641278 0.347499 0.641278
O O8 0.547544 0.599694 0.213388
O O9 0.750000 0.750000 0.500000
O O10 0.636345 0.769708 0.403781
#
# Coordination Sequence:
#
# PCOD9273103 Si02
#       5
#     8   8   4   8   8
#     4  12  25  42  63  90 125 164 208 259 314 373
#     4  10  20  37  62  92 124 162 207 253 304 365
#     4   8  22  36  68  92 130 164 216 246 314 364
#     4  12  25  42  63  90 125 164 208 259 314 373
#     4  10  20  37  62  92 124 162 207 253 304 365
#
# _framework density 19.030434
#
# number of rings (size 3 to 8) (size 9 to 14) (size 15 to 20)
#    1.333    0.000    0.000    7.333    0.000    0.000 
#    0.000    1.111    0.000    5.333    0.000    0.000 
#    0.000    0.000    0.000    0.000    0.000    0.000 
#
# Total GULP energy -100302.411655 kJ/mol
# GULP energy per Si atom -5572.356203 kJ/mol
# Density = 1.898712 g / cm^3
# Si number density = 19.030434 Si / 1000 Ang^3
#
#
#
# Elastic Constant Matrix: (Units=GPa)
#
#
# Indices 1 2 3 4 5 6 
#
# 1 92.7207 54.6185 56.2885 0.0000 -8.8846 0.0000
# 2 54.6185 172.3369 79.0329 0.0000 -13.9102 0.0000
# 3 56.2885 79.0329 180.1852 0.0000 -40.9481 0.0000
# 4 0.0000 0.0000 0.0000 31.1584 0.0000 -2.0797
# 5 -8.8846 -13.9102 -40.9481 0.0000 44.2807 0.0000
# 6 0.0000 0.0000 0.0000 -2.0797 0.0000 27.5095
#
#
#
# Elastic Compliance Matrix: (Units=1/GPa)
#
#
# Indices 1 2 3 4 5 6 
#
# 1 0.014627 -0.003142 -0.003480 0.000000 -0.001270 0.000000
# 2 -0.003142 0.007964 -0.002641 0.000000 -0.000571 0.000000
# 3 -0.003480 -0.002641 0.009430 0.000000 0.007192 0.000000
# 4 0.000000 0.000000 0.000000 0.032257 0.000000 0.002439
# 5 -0.001270 -0.000571 0.007192 0.000000 0.028800 0.000000
# 6 0.000000 0.000000 0.000000 0.002439 0.000000 0.036535
#
#
# Mechanical properties :
#
#
# Convention : Reuss Voigt Hill
#
# Bulk Modulus (GPa) = 74.10777 91.68028 82.89402
# Shear Modulus (GPa) = 32.75750 37.60993 35.18372
#
# Velocity S-wave (km/s) = 4.15338 4.45039 4.30445
# Velocity P-wave (km/s) = 7.87572 8.64223 8.26786
#
# Compressibility (1/GPa) = 0.01349386
#
# Stress axis : x y z
#
# Youngs Moduli (GPa) = 68.36730 125.57081 106.04684
#
# Poissons Ratio (x) = 0.39460 0.36900
# Poissons Ratio (y) = 0.21484 0.28008
# Poissons Ratio (z) = 0.23789 0.33165
#
# Static dielectric constant tensor:
#      x y z
#    x 1.732780 0.000000 0.031110 
#    y 0.000000 1.636070 0.000000 
#    z 0.031110 0.000000 1.678180 
# 
# From -- ./inp_files/64633.got.cif
#   From: 2010.05.17/outbox.cif.g08.bks.cpg/sg15_33_cif.got.tgz:64633.got - 2010.06.03 18:47:42.
