data_PCOD9273007
_publ_section_title
;
Structure prediction by ZEFSAII (Michael W. Deem and Ramdas Pophale) SiO2 
 PCOD9273007
Probable space group: C 2/C
;
_chemical_formula_sum "Si O2"
_cell_formula_units_Z 60
_cell_length_a 22.939612
_cell_length_b 16.528290
_cell_length_c 19.227441
_cell_angle_alpha 90.000000
_cell_angle_beta 158.696256
_cell_angle_gamma 90.000000
_cell_volume 2648.593782
_symmetry_space_group_name_H-M "C 2/C"
_symmetry_group_IT_number 15
_symmetry_cell_setting 'monoclinic'
loop_
_space_group_symop_operation_xyz
x,y,z
-x,y,1/2-z
-x,-y,-z
x,-y,1/2+z
1/2+x,1/2+y,z
1/2-x,1/2+y,1/2-z
1/2-x,1/2-y,-z
1/2+x,1/2-y,1/2+z
loop_
_atom_site_type_symbol
_atom_site_label
_atom_site_fract_x
_atom_site_fract_y
_atom_site_fract_z
Si Si1 0.711908 0.576702 0.129481
Si Si2 0.821974 0.286944 0.650673
Si Si3 0.969847 0.063990 0.135737
Si Si4 0.387041 0.644622 0.830894
Si Si5 0.446600 0.290691 0.853790
Si Si6 0.612583 0.132052 0.040159
Si Si7 0.288928 0.012463 0.929450
Si Si8 0.000000 0.614832 0.250000
O O1 0.726367 0.641927 0.083098
O O2 0.848199 0.597864 0.338529
O O3 0.680768 0.487269 0.062863
O O4 0.550105 0.599633 0.990573
O O5 0.750000 0.250000 0.500000
O O6 0.856038 0.215890 0.741818
O O7 0.978174 0.330871 0.793622
O O8 0.992002 0.159361 0.144916
O O9 0.000000 0.046900 0.250000
O O10 0.122541 0.028915 0.263761
O O11 0.249049 0.578214 0.672082
O O12 0.421145 0.683107 0.942185
O O13 0.272600 0.320278 0.688654
O O14 0.466962 0.194582 0.872675
O O15 0.592877 0.054740 0.968514
O O16 0.351532 0.058114 0.067064
#
# Coordination Sequence:
#
# PCOD9273007 Si02
#       8
#     8   8   8   8   8   8   8   4
#     4  10  21  37  62  86 116 157 205 243 303 362
#     4  12  22  35  56  89 124 155 188 241 308 364
#     4  10  21  40  63  88 118 164 209 250 295 375
#     4  10  20  37  62  86 120 160 200 244 295 376
#     4  10  21  40  65  90 121 158 210 255 308 355
#     4  10  21  43  63  90 118 162 209 260 304 363
#     4  10  22  40  60  84 125 164 199 246 311 363
#     4  12  24  38  54  90 128 162 194 248 312 368
#
# _framework density 22.65353
#
# number of rings (size 3 to 8) (size 9 to 14) (size 15 to 20)
#    0.000    1.600    2.667    2.400    1.867    3.200 
#    6.000    2.000    0.000    0.000    0.000    0.000 
#    0.000    0.000    0.000    0.000    0.000    0.000 
#
# Total GULP energy -167448.748083 kJ/mol
# GULP energy per Si atom -5581.624936 kJ/mol
# Density = 2.260197 g / cm^3
# Si number density = 22.653530 Si / 1000 Ang^3
#
#
#
# Elastic Constant Matrix: (Units=GPa)
#
#
# Indices 1 2 3 4 5 6 
#
# 1 55.5462 21.7205 -9.4440 -0.0008 -10.0903 -0.0011
# 2 21.7205 57.3969 -0.7463 0.0038 -2.5574 0.0049
# 3 -9.4440 -0.7463 14.9554 -0.0001 1.5707 0.0005
# 4 -0.0008 0.0038 -0.0001 18.7948 0.0001 14.0035
# 5 -10.0903 -2.5574 1.5707 0.0001 18.9918 -0.0007
# 6 -0.0011 0.0049 0.0005 14.0035 -0.0007 6.8788
#
#
#
# Elastic Compliance Matrix: (Units=1/GPa)
#
#
# Indices 1 2 3 4 5 6 
#
# 1 0.026222 -0.009219 0.014895 0.000010 0.011458 -0.000009
# 2 -0.009219 0.020775 -0.004604 -0.000014 -0.001720 0.000013
# 3 0.014895 -0.004604 0.075936 -0.000004 0.001014 0.000008
# 4 0.000010 -0.000014 -0.000004 -0.102956 0.000011 0.209593
# 5 0.011458 -0.001720 0.001014 0.000011 0.058427 -0.000014
# 6 -0.000009 0.000013 0.000008 0.209593 -0.000014 -0.281305
#
#
# Mechanical properties :
#
#
# Convention : Reuss Voigt Hill
#
# Bulk Modulus (GPa) = 7.99511 16.77319 12.38415
# Shear Modulus (GPa) = -30.60833 16.69095 -6.95869
#
# Velocity S-wave (km/s) = -3.67979 2.71734 -1.75455
# Velocity P-wave (km/s) = 3.81018 4.15518 1.17219
#
# Compressibility (1/GPa) = 0.12507648
#
# Stress axis : x y z
#
# Youngs Moduli (GPa) = 38.13603 48.13546 13.16907
#
# Poissons Ratio (x) = 0.44375 -0.19616
# Poissons Ratio (y) = 0.35157 0.06063
# Poissons Ratio (z) = -0.56804 0.22162
#
# Static dielectric constant tensor:
#      x y z
#    x 1.839550 0.000000 0.029330 
#    y 0.000000 1.931870 0.000000 
#    z 0.029330 0.000000 1.843520 
# 
# From -- ./inp_files/255655.got.cif
#   From: 2010.05.17/outbox.cif.g08.bks.cpg/sg15_128_cif.got.tgz:255655.got - 2010.06.03 18:47:42.
