data_PCOD9273388
_publ_section_title
;
Structure prediction by ZEFSAII (Michael W. Deem and Ramdas Pophale) SiO2 
 PCOD9273388
Probable space group: C 2/C
;
_chemical_formula_sum "Si O2"
_cell_formula_units_Z 40
_cell_length_a 8.840612
_cell_length_b 12.435638
_cell_length_c 15.312696
_cell_angle_alpha 90.000000
_cell_angle_beta 81.477165
_cell_angle_gamma 90.000000
_cell_volume 1664.866508
_symmetry_space_group_name_H-M "C 2/C"
_symmetry_group_IT_number 15
_symmetry_cell_setting 'monoclinic'
loop_
_space_group_symop_operation_xyz
x,y,z
-x,y,1/2-z
-x,-y,-z
x,-y,1/2+z
1/2+x,1/2+y,z
1/2-x,1/2+y,1/2-z
1/2-x,1/2-y,-z
1/2+x,1/2-y,1/2+z
loop_
_atom_site_type_symbol
_atom_site_label
_atom_site_fract_x
_atom_site_fract_y
_atom_site_fract_z
Si Si1 0.518690 0.384536 0.608751
Si Si2 0.837022 0.695813 0.815007
Si Si3 0.384036 0.013125 0.427910
Si Si4 0.184560 0.298027 0.677003
Si Si5 0.897721 0.891766 0.440246
O O1 0.645131 0.308060 0.636758
O O2 0.355493 0.347764 0.660792
O O3 0.518388 0.364224 0.504855
O O4 0.544523 0.509948 0.623161
O O5 0.839156 0.596063 0.881353
O O6 0.693396 0.722387 0.763301
O O7 0.000000 0.678384 0.750000
O O8 0.420394 0.102085 0.348203
O O9 0.238194 0.059446 0.490509
O O10 0.500000 0.000000 0.500000
O O11 0.161602 0.210194 0.604484
#
# Coordination Sequence:
#
# PCOD9273388 Si02
#       5
#     8   8   8   8   8
#     4   9  19  37  61  84 110 155 198 243 297 360
#     4  10  21  37  58  82 121 158 194 242 307 356
#     4  11  21  37  63  89 119 160 201 245 306 364
#     4  10  21  38  62  86 122 158 199 252 306 356
#     4  10  20  37  65  87 114 153 207 247 294 367
#
# _framework density 24.025950999999999
#
# number of rings (size 3 to 8) (size 9 to 14) (size 15 to 20)
#    0.000    2.000    0.000    6.000    2.800    0.800 
#    0.000    2.000    0.000    0.000    0.000    0.000 
#    0.000    0.000    0.000    0.000    0.000    0.000 
#
# Total GULP energy -111561.195474 kJ/mol
# GULP energy per Si atom -5578.059774 kJ/mol
# Density = 2.397127 g / cm^3
# Si number density = 24.025951 Si / 1000 Ang^3
#
#
#
# Elastic Constant Matrix: (Units=GPa)
#
#
# Indices 1 2 3 4 5 6 
#
# 1 43.6071 12.4483 39.7454 0.0000 10.0463 0.0000
# 2 12.4483 121.5293 78.1609 0.0000 17.2121 0.0000
# 3 39.7454 78.1609 128.6729 0.0000 42.3109 0.0000
# 4 0.0000 0.0000 0.0000 45.5916 0.0000 3.5006
# 5 10.0463 17.2121 42.3109 0.0000 40.3748 0.0000
# 6 0.0000 0.0000 0.0000 3.5006 0.0000 20.0321
#
#
#
# Elastic Compliance Matrix: (Units=1/GPa)
#
#
# Indices 1 2 3 4 5 6 
#
# 1 0.034799 0.006179 -0.016461 0.000000 0.005958 0.000000
# 2 0.006179 0.015117 -0.012918 0.000000 0.005555 0.000000
# 3 -0.016461 -0.012918 0.026770 0.000000 -0.018451 0.000000
# 4 0.000000 0.000000 0.000000 0.022232 0.000000 -0.003885
# 5 0.005958 0.005555 -0.018451 0.000000 0.040253 0.000000
# 6 0.000000 0.000000 0.000000 -0.003885 0.000000 0.050599
#
#
# Mechanical properties :
#
#
# Convention : Reuss Voigt Hill
#
# Bulk Modulus (GPa) = 33.01906 61.61317 47.31612
# Shear Modulus (GPa) = 20.30325 32.09667 26.19996
#
# Velocity S-wave (km/s) = 2.91014 3.65898 3.30583
# Velocity P-wave (km/s) = 5.00647 6.59932 5.85729
#
# Compressibility (1/GPa) = 0.03028554
#
# Stress axis : x y z
#
# Youngs Moduli (GPa) = 28.73631 66.15161 37.35493
#
# Poissons Ratio (x) = -0.40873 0.61491
# Poissons Ratio (y) = -0.17755 0.48254
# Poissons Ratio (z) = 0.47303 0.85453
#
# Static dielectric constant tensor:
#      x y z
#    x 2.012020 0.000000 -0.004100 
#    y 0.000000 1.916710 0.000000 
#    z -0.004100 0.000000 2.067500 
# 
# From -- ./inp_files/141757.got.cif
#   From: 2010.05.17/outbox.cif.g08.bks.cpg/sg15_71_cif.got.tgz:141757.got - 2010.06.03 18:47:42.
