data_PCOD9273194
_publ_section_title
;
Structure prediction by ZEFSAII (Michael W. Deem and Ramdas Pophale) SiO2 
 PCOD9273194
Probable space group: C 2/C
;
_chemical_formula_sum "Si O2"
_cell_formula_units_Z 52
_cell_length_a 15.177062
_cell_length_b 12.201646
_cell_length_c 16.558493
_cell_angle_alpha 90.000000
_cell_angle_beta 117.755311
_cell_angle_gamma 90.000000
_cell_volume 2713.582061
_symmetry_space_group_name_H-M "C 2/C"
_symmetry_group_IT_number 15
_symmetry_cell_setting 'monoclinic'
loop_
_space_group_symop_operation_xyz
x,y,z
-x,y,1/2-z
-x,-y,-z
x,-y,1/2+z
1/2+x,1/2+y,z
1/2-x,1/2+y,1/2-z
1/2-x,1/2-y,-z
1/2+x,1/2-y,1/2+z
loop_
_atom_site_type_symbol
_atom_site_label
_atom_site_fract_x
_atom_site_fract_y
_atom_site_fract_z
Si Si1 0.741799 0.398963 0.073691
Si Si2 0.856069 0.828165 0.625638
Si Si3 0.127868 0.768761 0.536480
Si Si4 0.162854 0.379538 0.914645
Si Si5 0.000000 0.763899 0.250000
Si Si6 0.572624 0.355053 0.673391
Si Si7 0.058261 0.898127 0.118949
O O1 0.793101 0.281700 0.101230
O O2 0.822988 0.495830 0.107468
O O3 0.659199 0.398660 0.109108
O O4 0.688421 0.404745 0.963153
O O5 0.864268 0.876394 0.718876
O O6 0.968554 0.798707 0.649719
O O7 0.131283 0.651344 0.493215
O O8 0.225888 0.832243 0.549107
O O9 0.128190 0.779304 0.632784
O O10 0.029753 0.835490 0.466423
O O11 0.084000 0.311630 0.827589
O O12 0.053423 0.838443 0.204277
O O13 0.541562 0.473345 0.625820
#
# Coordination Sequence:
#
# PCOD9273194 Si02
#       7
#     8   8   8   8   4   8   8
#     4  11  22  42  60  87 123 170 184 253 305 363
#     4  10  24  37  61  87 127 150 210 241 306 353
#     4  10  20  37  63  91 115 156 196 256 290 352
#     4  10  22  39  62  87 127 152 204 242 308 350
#     4  10  24  38  58  98 122 158 200 256 284 370
#     4  11  20  39  62  92 113 159 205 255 283 361
#     4  11  21  38  66  88 124 154 206 246 307 335
#
# _framework density 19.162862000000001
#
# number of rings (size 3 to 8) (size 9 to 14) (size 15 to 20)
#    0.000    1.538    3.077    2.308    2.154    3.692 
#    0.000    0.769    0.000    0.000    0.000    0.000 
#    0.000    0.000    0.000    0.000    0.000    0.000 
#
# Total GULP energy -144919.402003 kJ/mol
# GULP energy per Si atom -5573.823154 kJ/mol
# Density = 1.911925 g / cm^3
# Si number density = 19.162862 Si / 1000 Ang^3
#
#
#
# Elastic Constant Matrix: (Units=GPa)
#
#
# Indices 1 2 3 4 5 6 
#
# 1 104.0275 49.3488 37.2718 0.0000 -22.3681 0.0000
# 2 49.3488 51.0545 16.9291 0.0000 -2.3550 0.0000
# 3 37.2718 16.9291 58.8021 0.0000 -22.8488 0.0000
# 4 0.0000 0.0000 0.0000 46.5160 0.0000 -23.5472
# 5 -22.3681 -2.3550 -22.8488 0.0000 31.1335 0.0000
# 6 0.0000 0.0000 0.0000 -23.5472 0.0000 60.2268
#
#
#
# Elastic Compliance Matrix: (Units=1/GPa)
#
#
# Indices 1 2 3 4 5 6 
#
# 1 0.023726 -0.020973 -0.004187 0.000000 0.012386 0.000000
# 2 -0.020973 0.040577 -0.004268 0.000000 -0.015131 0.000000
# 3 -0.004187 -0.004268 0.027412 0.000000 0.016786 0.000000
# 4 0.000000 0.000000 0.000000 0.026803 0.000000 0.010479
# 5 0.012386 -0.015131 0.016786 0.000000 0.052193 0.000000
# 6 0.000000 0.000000 0.000000 0.010479 0.000000 0.020701
#
#
# Mechanical properties :
#
#
# Convention : Reuss Voigt Hill
#
# Bulk Modulus (GPa) = 30.43451 46.77596 38.60524
# Shear Modulus (GPa) = 19.14091 34.93089 27.03590
#
# Velocity S-wave (km/s) = 3.16389 4.27411 3.76020
# Velocity P-wave (km/s) = 5.40957 6.98713 6.24834
#
# Compressibility (1/GPa) = 0.03285744
#
# Stress axis : x y z
#
# Youngs Moduli (GPa) = 42.14807 24.64466 36.48093
#
# Poissons Ratio (x) = 0.51688 0.15276
# Poissons Ratio (y) = 0.88399 0.15568
# Poissons Ratio (z) = 0.17649 0.10517
#
# Static dielectric constant tensor:
#      x y z
#    x 1.678410 0.000000 -0.029440 
#    y 0.000000 1.649580 0.000000 
#    z -0.029440 0.000000 1.737510 
# 
# From -- ./inp_files/204194.got.cif
#   From: 2010.05.17/outbox.cif.g08.bks.cpg/sg15_103_cif.got.tgz:204194.got - 2010.06.03 18:47:42.
