data_PCOD9273879
_publ_section_title
;
Structure prediction by ZEFSAII (Michael W. Deem and Ramdas Pophale) SiO2 
 PCOD9273879
Probable space group: C 2/C
;
_chemical_formula_sum "Si O2"
_cell_formula_units_Z 44
_cell_length_a 11.800399
_cell_length_b 13.775166
_cell_length_c 14.101330
_cell_angle_alpha 90.000000
_cell_angle_beta 62.758101
_cell_angle_gamma 90.000000
_cell_volume 2037.958632
_symmetry_space_group_name_H-M "C 2/C"
_symmetry_group_IT_number 15
_symmetry_cell_setting 'monoclinic'
loop_
_space_group_symop_operation_xyz
x,y,z
-x,y,1/2-z
-x,-y,-z
x,-y,1/2+z
1/2+x,1/2+y,z
1/2-x,1/2+y,1/2-z
1/2-x,1/2-y,-z
1/2+x,1/2-y,1/2+z
loop_
_atom_site_type_symbol
_atom_site_label
_atom_site_fract_x
_atom_site_fract_y
_atom_site_fract_z
Si Si1 0.500000 0.820469 0.750000
Si Si2 0.673452 0.743805 0.841897
Si Si3 0.701207 0.110334 0.013666
Si Si4 0.964967 0.112645 0.012520
Si Si5 0.605806 0.921131 0.996637
Si Si6 0.903339 0.711004 0.641260
O O1 0.599544 0.758696 0.771664
O O2 0.408202 0.873569 0.863172
O O3 0.589619 0.669577 0.932307
O O4 0.809254 0.700958 0.764314
O O5 0.664387 0.848323 0.896725
O O6 0.708728 0.994584 0.996152
O O7 0.843639 0.135859 0.991361
O O8 0.658901 0.167224 0.933721
O O9 0.925577 0.173524 0.121069
O O10 0.000000 0.000000 0.000000
O O11 0.531890 0.851157 0.097188
O O12 0.500000 0.000000 0.000000
#
# Coordination Sequence:
#
# PCOD9273879 Si02
#       6
#     4   8   8   8   8   8
#     4  12  18  32  68  90 110 150 200 238 300 328
#     4  11  21  35  60  88 121 155 193 244 299 343
#     4  11  21  38  63  90 119 149 204 247 288 353
#     4  11  23  37  56  89 118 154 197 245 290 345
#     4   9  19  37  58  89 118 152 193 243 292 353
#     4  10  20  38  60  84 122 151 194 243 292 345
#
# _framework density 21.590232
#
# number of rings (size 3 to 8) (size 9 to 14) (size 15 to 20)
#    0.000    1.455    7.273    1.636    0.000    4.364 
#    0.000    3.636    0.000    2.182    0.000    0.000 
#    0.000    0.000    0.000    0.000    0.000    0.000 
#
# Total GULP energy -122606.219799 kJ/mol
# GULP energy per Si atom -5573.009991 kJ/mol
# Density = 2.154109 g / cm^3
# Si number density = 21.590232 Si / 1000 Ang^3
#
#
#
# Elastic Constant Matrix: (Units=GPa)
#
#
# Indices 1 2 3 4 5 6 
#
# 1 19.7789 9.2247 11.3602 0.0000 -4.8054 0.0000
# 2 9.2247 114.1782 6.9167 0.0000 -4.9448 0.0000
# 3 11.3602 6.9167 104.7113 0.0000 -22.9618 0.0000
# 4 0.0000 0.0000 0.0000 12.7068 0.0000 -6.9551
# 5 -4.8054 -4.9448 -22.9618 0.0000 19.2090 0.0000
# 6 0.0000 0.0000 0.0000 -6.9551 0.0000 23.5748
#
#
#
# Elastic Compliance Matrix: (Units=1/GPa)
#
#
# Indices 1 2 3 4 5 6 
#
# 1 0.056774 -0.003980 -0.004075 0.000000 0.008307 0.000000
# 2 -0.003980 0.009137 0.000170 0.000000 0.001560 0.000000
# 3 -0.004075 0.000170 0.013237 0.000000 0.014847 0.000000
# 4 0.000000 0.000000 0.000000 0.093854 0.000000 0.027689
# 5 0.008307 0.001560 0.014847 0.000000 0.072287 0.000000
# 6 0.000000 0.000000 0.000000 0.027689 0.000000 0.050587
#
#
# Mechanical properties :
#
#
# Convention : Reuss Voigt Hill
#
# Bulk Modulus (GPa) = 15.77825 32.63017 24.20421
# Shear Modulus (GPa) = 15.02535 25.17591 20.10063
#
# Velocity S-wave (km/s) = 2.64092 3.41849 3.05455
# Velocity P-wave (km/s) = 4.07715 5.54325 4.86574
#
# Compressibility (1/GPa) = 0.06337837
#
# Stress axis : x y z
#
# Youngs Moduli (GPa) = 17.61365 109.44442 75.54761
#
# Poissons Ratio (x) = 0.43562 0.30784
# Poissons Ratio (y) = 0.07011 -0.01287
# Poissons Ratio (z) = 0.07177 -0.01864
#
# Static dielectric constant tensor:
#      x y z
#    x 1.921490 0.000000 -0.055530 
#    y 0.000000 1.831770 0.000000 
#    z -0.055530 0.000000 1.838740 
# 
# From -- ./inp_files/151778.got.cif
#   From: 2010.05.17/outbox.cif.g08.bks.cpg/sg15_76_cif.got.tgz:151778.got - 2010.06.03 18:47:42.
