data_PCOD9273002
_publ_section_title
;
Structure prediction by ZEFSAII (Michael W. Deem and Ramdas Pophale) SiO2 
 PCOD9273002
Probable space group: C 2/C
;
_chemical_formula_sum "Si O2"
_cell_formula_units_Z 40
_cell_length_a 8.866469
_cell_length_b 10.922655
_cell_length_c 23.640846
_cell_angle_alpha 90.000000
_cell_angle_beta 135.106834
_cell_angle_gamma 90.000000
_cell_volume 1615.904286
_symmetry_space_group_name_H-M "C 2/C"
_symmetry_group_IT_number 15
_symmetry_cell_setting 'monoclinic'
loop_
_space_group_symop_operation_xyz
x,y,z
-x,y,1/2-z
-x,-y,-z
x,-y,1/2+z
1/2+x,1/2+y,z
1/2-x,1/2+y,1/2-z
1/2-x,1/2-y,-z
1/2+x,1/2-y,1/2+z
loop_
_atom_site_type_symbol
_atom_site_label
_atom_site_fract_x
_atom_site_fract_y
_atom_site_fract_z
Si Si1 0.436710 0.736032 0.130372
Si Si2 0.271455 0.159040 0.938496
Si Si3 0.056163 0.114581 0.476678
Si Si4 0.080316 0.325576 0.622867
Si Si5 0.746124 0.064710 0.685818
O O1 0.451809 0.616568 0.093682
O O2 0.300971 0.705056 0.149385
O O3 0.653425 0.814020 0.191561
O O4 0.283811 0.832008 0.056140
O O5 0.384001 0.283573 0.947479
O O6 0.307937 0.071387 0.895710
O O7 0.028211 0.200904 0.883800
O O8 0.397730 0.129287 0.029329
O O9 0.000000 0.000000 0.500000
O O10 0.138586 0.438888 0.678921
O O11 0.000000 0.061363 0.750000
#
# Coordination Sequence:
#
# PCOD9273002 Si02
#       5
#     8   8   8   8   8
#     4   9  20  34  52  80 109 142 185 227 273 332
#     4   9  20  36  59  88 113 141 190 243 284 336
#     4   9  16  31  55  82 112 141 176 230 285 328
#     4  10  20  37  62  86 110 145 190 242 286 329
#     4  11  23  38  55  79 117 156 186 226 284 346
#
# _framework density 24.75394
#
# number of rings (size 3 to 8) (size 9 to 14) (size 15 to 20)
#    0.000    2.400    0.000    3.000    0.000    6.400 
#    0.000    0.000    0.000    0.000    0.000    0.000 
#    0.000    0.000    0.000    0.000    0.000    0.000 
#
# Total GULP energy -111733.555025 kJ/mol
# GULP energy per Si atom -5586.677751 kJ/mol
# Density = 2.469760 g / cm^3
# Si number density = 24.753940 Si / 1000 Ang^3
#
#
#
# Elastic Constant Matrix: (Units=GPa)
#
#
# Indices 1 2 3 4 5 6 
#
# 1 102.5793 32.5734 16.2047 0.0000 25.3812 0.0000
# 2 32.5734 105.4131 14.8003 0.0000 16.1933 0.0000
# 3 16.2047 14.8003 58.7560 0.0000 21.5610 0.0000
# 4 0.0000 0.0000 0.0000 21.7970 0.0000 12.2663
# 5 25.3812 16.1933 21.5610 0.0000 25.6194 0.0000
# 6 0.0000 0.0000 0.0000 12.2663 0.0000 46.1516
#
#
#
# Elastic Compliance Matrix: (Units=1/GPa)
#
#
# Indices 1 2 3 4 5 6 
#
# 1 0.013540 -0.002374 0.001788 0.000000 -0.013418 0.000000
# 2 -0.002374 0.010927 -0.000617 0.000000 -0.004036 0.000000
# 3 0.001788 -0.000617 0.024869 0.000000 -0.022310 0.000000
# 4 0.000000 0.000000 0.000000 0.053947 0.000000 -0.014338
# 5 -0.013418 -0.004036 -0.022310 0.000000 0.073653 0.000000
# 6 0.000000 0.000000 0.000000 -0.014338 0.000000 0.025479
#
#
# Mechanical properties :
#
#
# Convention : Reuss Voigt Hill
#
# Bulk Modulus (GPa) = 21.30850 43.76727 32.53788
# Shear Modulus (GPa) = 22.67957 32.25828 27.46892
#
# Velocity S-wave (km/s) = 3.03016 3.61384 3.33480
# Velocity P-wave (km/s) = 4.56830 5.92726 5.29159
#
# Compressibility (1/GPa) = 0.04692964
#
# Stress axis : x y z
#
# Youngs Moduli (GPa) = 73.85548 91.52050 40.21084
#
# Poissons Ratio (x) = 0.21724 -0.07188
# Poissons Ratio (y) = 0.17531 0.02480
# Poissons Ratio (z) = -0.13202 0.05644
#
# Static dielectric constant tensor:
#      x y z
#    x 2.005820 0.000000 -0.015230 
#    y 0.000000 1.978900 0.000000 
#    z -0.015230 0.000000 2.038040 
# 
# From -- ./inp_files/187901.got.cif
#   From: 2010.05.17/outbox.cif.g08.bks.cpg/sg15_94_cif.got.tgz:187901.got - 2010.06.03 18:47:42.
