data_PCOD9273154
_publ_section_title
;
Structure prediction by ZEFSAII (Michael W. Deem and Ramdas Pophale) SiO2 
 PCOD9273154
Probable space group: C 2/C
;
_chemical_formula_sum "Si O2"
_cell_formula_units_Z 40
_cell_length_a 14.591060
_cell_length_b 11.593748
_cell_length_c 12.091104
_cell_angle_alpha 90.000000
_cell_angle_beta 102.669324
_cell_angle_gamma 90.000000
_cell_volume 1995.591494
_symmetry_space_group_name_H-M "C 2/C"
_symmetry_group_IT_number 15
_symmetry_cell_setting 'monoclinic'
loop_
_space_group_symop_operation_xyz
x,y,z
-x,y,1/2-z
-x,-y,-z
x,-y,1/2+z
1/2+x,1/2+y,z
1/2-x,1/2+y,1/2-z
1/2-x,1/2-y,-z
1/2+x,1/2-y,1/2+z
loop_
_atom_site_type_symbol
_atom_site_label
_atom_site_fract_x
_atom_site_fract_y
_atom_site_fract_z
Si Si1 0.687608 0.241141 0.663564
Si Si2 0.447258 0.411589 0.125020
Si Si3 0.313003 0.831370 0.092859
Si Si4 0.514585 0.325236 0.912398
Si Si5 0.266041 0.908678 0.514138
O O1 0.716735 0.185331 0.786888
O O2 0.589520 0.304056 0.660147
O O3 0.668466 0.148123 0.561503
O O4 0.756893 0.333637 0.624056
O O5 0.500000 0.374066 0.250000
O O6 0.452940 0.550357 0.121259
O O7 0.502147 0.349017 0.039901
O O8 0.336630 0.394223 0.071496
O O9 0.417235 0.779827 0.100221
O O10 0.295209 0.962382 0.051204
O O11 0.250000 0.750000 0.000000
#
# Coordination Sequence:
#
# PCOD9273154 Si02
#       5
#     8   8   8   8   8
#     4  10  24  44  64  86 132 160 206 258 313 367
#     4  10  20  37  63  86 125 159 209 258 302 361
#     4  12  24  37  65  95 122 160 212 254 308 369
#     4  10  22  39  58  92 119 165 208 251 311 364
#     4  10  24  42  64  94 121 168 203 257 315 364
#
# _framework density 20.044183
#
# number of rings (size 3 to 8) (size 9 to 14) (size 15 to 20)
#    0.000    1.600    2.000    1.800    5.600    0.800 
#    0.000    0.000    0.000    0.000    0.000    0.000 
#    0.000    0.000    0.000    0.000    0.000    0.000 
#
# Total GULP energy -111558.186690 kJ/mol
# GULP energy per Si atom -5577.909335 kJ/mol
# Density = 1.999856 g / cm^3
# Si number density = 20.044183 Si / 1000 Ang^3
#
#
#
# Elastic Constant Matrix: (Units=GPa)
#
#
# Indices 1 2 3 4 5 6 
#
# 1 45.2046 19.4889 4.7022 0.0000 -10.3461 0.0000
# 2 19.4889 149.8124 35.1123 0.0000 -16.0618 0.0000
# 3 4.7022 35.1123 101.4381 0.0000 -10.4788 0.0000
# 4 0.0000 0.0000 0.0000 21.2749 0.0000 0.7466
# 5 -10.3461 -16.0618 -10.4788 0.0000 12.4305 0.0000
# 6 0.0000 0.0000 0.0000 0.7466 0.0000 29.7134
#
#
#
# Elastic Compliance Matrix: (Units=1/GPa)
#
#
# Indices 1 2 3 4 5 6 
#
# 1 0.027764 -0.001580 0.001573 0.000000 0.022394 0.000000
# 2 -0.001580 0.008152 -0.001968 0.000000 0.007560 0.000000
# 3 0.001573 -0.001968 0.011325 0.000000 0.008314 0.000000
# 4 0.000000 0.000000 0.000000 0.047045 0.000000 -0.001182
# 5 0.022394 0.007560 0.008314 0.000000 0.115864 0.000000
# 6 0.000000 0.000000 0.000000 -0.001182 0.000000 0.033685
#
#
# Mechanical properties :
#
#
# Convention : Reuss Voigt Hill
#
# Bulk Modulus (GPa) = 23.09821 46.11799 34.60810
# Shear Modulus (GPa) = 19.06834 28.49387 23.78110
#
# Velocity S-wave (km/s) = 3.08769 3.77444 3.44820
# Velocity P-wave (km/s) = 4.92549 6.48485 5.75820
#
# Compressibility (1/GPa) = 0.04329340
#
# Stress axis : x y z
#
# Youngs Moduli (GPa) = 36.01745 122.66571 88.29840
#
# Poissons Ratio (x) = 0.19377 -0.13890
# Poissons Ratio (y) = 0.05689 0.17374
# Poissons Ratio (z) = -0.05666 0.24136
#
# Static dielectric constant tensor:
#      x y z
#    x 1.759770 0.000000 0.005340 
#    y 0.000000 1.740760 0.000000 
#    z 0.005340 0.000000 1.742360 
# 
# From -- ./inp_files/94521.got.cif
#   From: 2010.05.17/outbox.cif.g08.bks.cpg/sg15_48_cif.got.tgz:94521.got - 2010.06.03 18:47:42.
