data_PCOD9273456
_publ_section_title
;
Structure prediction by ZEFSAII (Michael W. Deem and Ramdas Pophale) SiO2 
 PCOD9273456
Probable space group: C 2/C
;
_chemical_formula_sum "Si O2"
_cell_formula_units_Z 36
_cell_length_a 20.321037
_cell_length_b 5.040467
_cell_length_c 19.061796
_cell_angle_alpha 90.000000
_cell_angle_beta 133.008250
_cell_angle_gamma 90.000000
_cell_volume 1427.741559
_symmetry_space_group_name_H-M "C 2/C"
_symmetry_group_IT_number 15
_symmetry_cell_setting 'monoclinic'
loop_
_space_group_symop_operation_xyz
x,y,z
-x,y,1/2-z
-x,-y,-z
x,-y,1/2+z
1/2+x,1/2+y,z
1/2-x,1/2+y,1/2-z
1/2-x,1/2-y,-z
1/2+x,1/2-y,1/2+z
loop_
_atom_site_type_symbol
_atom_site_label
_atom_site_fract_x
_atom_site_fract_y
_atom_site_fract_z
Si Si1 0.814094 0.032137 0.079564
Si Si2 0.334929 0.818514 0.454678
Si Si3 0.500000 0.381778 0.250000
Si Si4 0.532182 0.015280 0.138680
Si Si5 0.091246 0.005620 0.112165
O O1 0.760117 0.965980 0.111503
O O2 0.750000 0.250000 0.000000
O O3 0.917214 0.074804 0.172498
O O4 0.827277 0.825219 0.024907
O O5 0.430259 0.974182 0.530835
O O6 0.338339 0.622065 0.391702
O O7 0.524344 0.177115 0.205183
O O8 0.599576 0.206871 0.144084
O O9 0.569506 0.719576 0.157260
O O10 0.000000 0.000000 0.000000
#
# Coordination Sequence:
#
# PCOD9273456 Si02
#       5
#     8   8   4   8   8
#     4  10  22  40  66  96 134 188 235 293 357 415
#     4   9  20  37  61  97 123 171 230 281 343 430
#     4  10  24  46  62 100 142 182 248 300 354 432
#     4  10  22  38  66  99 133 182 221 286 353 411
#     4  10  20  37  66 101 134 172 225 283 347 423
#
# _framework density 25.214646999999999
#
# number of rings (size 3 to 8) (size 9 to 14) (size 15 to 20)
#    0.000    2.222    0.000    2.667   12.444    0.889 
#    8.000    2.222    0.000    0.000    0.000    0.000 
#    0.000    0.000    0.000    0.000    0.000    0.000 
#
# Total GULP energy -100466.935978 kJ/mol
# GULP energy per Si atom -5581.496443 kJ/mol
# Density = 2.515726 g / cm^3
# Si number density = 25.214647 Si / 1000 Ang^3
#
#
#
# Elastic Constant Matrix: (Units=GPa)
#
#
# Indices 1 2 3 4 5 6 
#
# 1 148.0566 21.8600 26.5228 -0.0005 11.5372 0.0004
# 2 21.8600 89.7900 15.4954 -0.0018 11.9842 0.0003
# 3 26.5228 15.4954 77.3648 -0.0005 21.6408 -0.0002
# 4 -0.0005 -0.0018 -0.0005 21.5784 -0.0001 -5.4289
# 5 11.5372 11.9842 21.6408 -0.0001 43.1276 -0.0005
# 6 0.0004 0.0003 -0.0002 -5.4289 -0.0005 21.3873
#
#
#
# Elastic Compliance Matrix: (Units=1/GPa)
#
#
# Indices 1 2 3 4 5 6 
#
# 1 0.007374 -0.001360 -0.002105 0.000000 -0.000538 0.000000
# 2 -0.001360 0.012001 -0.001287 0.000001 -0.002325 0.000000
# 3 -0.002105 -0.001287 0.015876 0.000000 -0.007046 0.000000
# 4 0.000000 0.000001 0.000000 0.049504 0.000000 0.012566
# 5 -0.000538 -0.002325 -0.007046 0.000000 0.027512 0.000001
# 6 0.000000 0.000000 0.000000 0.012566 0.000001 0.049946
#
#
# Mechanical properties :
#
#
# Convention : Reuss Voigt Hill
#
# Bulk Modulus (GPa) = 38.84009 49.21864 44.02936
# Shear Modulus (GPa) = 27.73157 33.97422 30.85289
#
# Velocity S-wave (km/s) = 3.31995 3.67468 3.50181
# Velocity P-wave (km/s) = 5.48938 6.12916 5.81807
#
# Compressibility (1/GPa) = 0.02574660
#
# Stress axis : x y z
#
# Youngs Moduli (GPa) = 135.61097 83.32878 62.98807
#
# Poissons Ratio (x) = 0.11334 0.13259
# Poissons Ratio (y) = 0.18445 0.08106
# Poissons Ratio (z) = 0.28546 0.10724
#
# Static dielectric constant tensor:
#      x y z
#    x 1.923980 0.000000 -0.073930 
#    y 0.000000 2.068270 0.000000 
#    z -0.073930 0.000000 2.082600 
# 
# From -- ./inp_files/251177.got.cif
#   From: 2010.05.17/outbox.cif.g08.bks.cpg/sg15_126_cif.got.tgz:251177.got - 2010.06.03 18:47:42.
