data_PCOD9273839
_publ_section_title
;
Structure prediction by ZEFSAII (Michael W. Deem and Ramdas Pophale) SiO2 
 PCOD9273839
Probable space group: C 2/C
;
_chemical_formula_sum "Si O2"
_cell_formula_units_Z 60
_cell_length_a 11.101720
_cell_length_b 24.430099
_cell_length_c 11.000640
_cell_angle_alpha 90.000000
_cell_angle_beta 74.598093
_cell_angle_gamma 90.000000
_cell_volume 2876.401323
_symmetry_space_group_name_H-M "C 2/C"
_symmetry_group_IT_number 15
_symmetry_cell_setting 'monoclinic'
loop_
_space_group_symop_operation_xyz
x,y,z
-x,y,1/2-z
-x,-y,-z
x,-y,1/2+z
1/2+x,1/2+y,z
1/2-x,1/2+y,1/2-z
1/2-x,1/2-y,-z
1/2+x,1/2-y,1/2+z
loop_
_atom_site_type_symbol
_atom_site_label
_atom_site_fract_x
_atom_site_fract_y
_atom_site_fract_z
Si Si1 0.621928 0.595999 0.387411
Si Si2 0.853640 0.202339 0.254690
Si Si3 0.842306 0.122025 0.472952
Si Si4 0.196924 0.510074 0.272231
Si Si5 0.759153 0.819014 0.223491
Si Si6 0.611713 0.959970 0.051648
Si Si7 0.000000 0.378491 0.250000
Si Si8 0.859726 0.912748 0.337646
O O1 0.649338 0.660186 0.356845
O O2 0.473329 0.593702 0.406350
O O3 0.704817 0.559129 0.276038
O O4 0.645144 0.576602 0.518054
O O5 0.806774 0.165246 0.378972
O O6 0.766800 0.254880 0.260417
O O7 0.000000 0.215651 0.250000
O O8 0.850167 0.159063 0.592432
O O9 0.739830 0.075728 0.518096
O O10 0.131810 0.501370 0.158966
O O11 0.107178 0.521175 0.412628
O O12 0.274888 0.456118 0.288131
O O13 0.623480 0.843026 0.225276
O O14 0.808633 0.851703 0.326364
O O15 0.509412 0.917124 0.128777
O O16 0.000000 0.917711 0.250000
#
# Coordination Sequence:
#
# PCOD9273839 Si02
#       8
#     8   8   8   8   8   8   4   8
#     4  11  23  38  58  96 128 159 203 259 317 377
#     4  10  21  36  63  91 121 159 207 263 302 363
#     4  10  20  38  59  93 121 156 205 255 310 367
#     4  12  23  38  64  91 132 162 206 252 321 374
#     4  11  21  41  64  88 119 165 207 257 304 367
#     4  11  23  39  61  92 120 169 204 259 306 369
#     4  10  22  42  60  92 120 154 228 252 292 366
#     4  12  24  39  62  92 128 167 200 253 325 380
#
# _framework density 20.859397000000001
#
# number of rings (size 3 to 8) (size 9 to 14) (size 15 to 20)
#    0.000    1.067    7.333    0.400    1.867    2.133 
#    0.000    0.000    0.000    0.000    1.733    0.000 
#    0.000    0.000    0.000    0.000    0.000    0.000 
#
# Total GULP energy -167559.202445 kJ/mol
# GULP energy per Si atom -5585.306748 kJ/mol
# Density = 2.081192 g / cm^3
# Si number density = 20.859397 Si / 1000 Ang^3
#
#
#
# Elastic Constant Matrix: (Units=GPa)
#
#
# Indices 1 2 3 4 5 6 
#
# 1 57.7241 26.6873 29.4309 0.0000 -3.8719 0.0000
# 2 26.6873 85.3309 33.9721 0.0000 2.7098 0.0000
# 3 29.4309 33.9721 139.3858 0.0000 -1.1656 0.0000
# 4 0.0000 0.0000 0.0000 22.8379 0.0000 -5.8853
# 5 -3.8719 2.7098 -1.1656 0.0000 34.2568 0.0000
# 6 0.0000 0.0000 0.0000 -5.8853 0.0000 18.5936
#
#
#
# Elastic Compliance Matrix: (Units=1/GPa)
#
#
# Indices 1 2 3 4 5 6 
#
# 1 0.021737 -0.005614 -0.003198 0.000000 0.002792 0.000000
# 2 -0.005614 0.014472 -0.002358 0.000000 -0.001860 0.000000
# 3 -0.003198 -0.002358 0.008425 0.000000 0.000112 0.000000
# 4 0.000000 0.000000 0.000000 0.047676 0.000000 0.015090
# 5 0.002792 -0.001860 0.000112 0.000000 0.029658 0.000000
# 6 0.000000 0.000000 0.000000 0.015090 0.000000 0.058558
#
#
# Mechanical properties :
#
#
# Convention : Reuss Voigt Hill
#
# Bulk Modulus (GPa) = 44.85152 51.40239 48.12695
# Shear Modulus (GPa) = 23.77588 27.96101 25.86845
#
# Velocity S-wave (km/s) = 3.37978 3.66519 3.52537
# Velocity P-wave (km/s) = 6.06457 6.52743 6.30025
#
# Compressibility (1/GPa) = 0.02229579
#
# Stress axis : x y z
#
# Youngs Moduli (GPa) = 46.00447 69.09700 118.69227
#
# Poissons Ratio (x) = 0.38789 0.37960
# Poissons Ratio (y) = 0.25825 0.27982
# Poissons Ratio (z) = 0.14713 0.16290
#
# Static dielectric constant tensor:
#      x y z
#    x 1.774770 0.000000 0.006650 
#    y 0.000000 1.748010 0.000000 
#    z 0.006650 0.000000 1.790010 
# 
# From -- ./inp_files/91759.got.cif
#   From: 2010.05.17/outbox.cif.g08.bks.cpg/sg15_46_cif.got.tgz:91759.got - 2010.06.03 18:47:42.
