data_PCOD9273761
_publ_section_title
;
Structure prediction by ZEFSAII (Michael W. Deem and Ramdas Pophale) SiO2 
 PCOD9273761
Probable space group: C 2/C
;
_chemical_formula_sum "Si O2"
_cell_formula_units_Z 40
_cell_length_a 5.451588
_cell_length_b 15.981719
_cell_length_c 20.353906
_cell_angle_alpha 90.000000
_cell_angle_beta 116.270616
_cell_angle_gamma 90.000000
_cell_volume 1590.186307
_symmetry_space_group_name_H-M "C 2/C"
_symmetry_group_IT_number 15
_symmetry_cell_setting 'monoclinic'
loop_
_space_group_symop_operation_xyz
x,y,z
-x,y,1/2-z
-x,-y,-z
x,-y,1/2+z
1/2+x,1/2+y,z
1/2-x,1/2+y,1/2-z
1/2-x,1/2-y,-z
1/2+x,1/2-y,1/2+z
loop_
_atom_site_type_symbol
_atom_site_label
_atom_site_fract_x
_atom_site_fract_y
_atom_site_fract_z
Si Si1 0.769602 0.517474 0.325446
Si Si2 0.000000 0.809263 0.250000
Si Si3 0.117337 0.412503 0.044124
Si Si4 0.477406 0.399673 0.512167
Si Si5 0.115313 0.651916 0.336132
Si Si6 0.500000 0.912534 0.250000
O O1 0.500000 0.526197 0.250000
O O2 0.715101 0.451119 0.375626
O O3 0.021356 0.473877 0.315326
O O4 0.886006 0.609038 0.355574
O O5 0.877869 0.750241 0.177506
O O6 0.754265 0.857646 0.256266
O O7 0.314298 0.364717 0.017950
O O8 0.000000 0.500000 0.000000
O O9 0.833518 0.369354 0.030716
O O10 0.500000 0.500000 0.500000
O O11 0.604443 0.379044 0.598511
O O12 0.000000 0.625267 0.250000
#
# Coordination Sequence:
#
# PCOD9273761 Si02
#       6
#     8   4   8   8   8   4
#     4  12  25  39  73 106 130 170 238 283 331 391
#     4  10  27  44  65  96 138 184 218 278 339 392
#     4  10  22  35  60  96 138 164 200 279 347 382
#     4  10  20  38  58  98 138 163 202 276 351 379
#     4  10  23  40  70 107 123 172 233 284 321 396
#     4  12  25  48  61  98 140 182 220 280 335 404
#
# _framework density 25.154284000000001
#
# number of rings (size 3 to 8) (size 9 to 14) (size 15 to 20)
#    0.600    0.800    6.000    0.000    9.800    1.600 
#    0.000    0.000    0.000    7.200    0.000    0.000 
#    0.000    0.000    0.000    0.000    0.000    0.000 
#
# Total GULP energy -111488.208487 kJ/mol
# GULP energy per Si atom -5574.410424 kJ/mol
# Density = 2.509703 g / cm^3
# Si number density = 25.154284 Si / 1000 Ang^3
#
#
#
# Elastic Constant Matrix: (Units=GPa)
#
#
# Indices 1 2 3 4 5 6 
#
# 1 206.6389 26.5649 21.9123 0.0000 10.0673 0.0000
# 2 26.5649 57.5754 -15.7104 0.0000 2.1009 0.0000
# 3 21.9123 -15.7104 72.9761 0.0000 16.1332 0.0000
# 4 0.0000 0.0000 0.0000 13.9437 0.0000 0.1505
# 5 10.0673 2.1009 16.1332 0.0000 40.3055 0.0000
# 6 0.0000 0.0000 0.0000 0.1505 0.0000 17.5798
#
#
#
# Elastic Compliance Matrix: (Units=1/GPa)
#
#
# Indices 1 2 3 4 5 6 
#
# 1 0.005498 -0.003142 -0.002260 0.000000 -0.000305 0.000000
# 2 -0.003142 0.020541 0.005956 0.000000 -0.002670 0.000000
# 3 -0.002260 0.005956 0.017123 0.000000 -0.006600 0.000000
# 4 0.000000 0.000000 0.000000 0.071724 0.000000 -0.000614
# 5 -0.000305 -0.002670 -0.006600 0.000000 0.027668 0.000000
# 6 0.000000 0.000000 0.000000 -0.000614 0.000000 0.056889
#
#
# Mechanical properties :
#
#
# Convention : Reuss Voigt Hill
#
# Bulk Modulus (GPa) = 22.58917 44.74712 33.66814
# Shear Modulus (GPa) = 23.46426 34.66073 29.06250
#
# Velocity S-wave (km/s) = 3.05751 3.71607 3.40276
# Velocity P-wave (km/s) = 4.63295 6.01996 5.37141
#
# Compressibility (1/GPa) = 0.04426901
#
# Stress axis : x y z
#
# Youngs Moduli (GPa) = 181.89106 48.68352 58.40139
#
# Poissons Ratio (x) = 0.15297 0.13198
# Poissons Ratio (y) = 0.57153 -0.34782
# Poissons Ratio (z) = 0.41105 -0.28995
#
# Static dielectric constant tensor:
#      x y z
#    x 4.869290 0.000000 3.890650 
#    y 0.000000 2.064590 0.000000 
#    z 3.890650 0.000000 7.736690 
# 
# From -- ./inp_files/260815.got.cif
#   From: 2010.05.17/outbox.cif.g08.bks.cpg/sg15_131_cif.got.tgz:260815.got - 2010.06.03 18:47:42.
