data_PCOD9273332
_publ_section_title
;
Structure prediction by ZEFSAII (Michael W. Deem and Ramdas Pophale) SiO2 
 PCOD9273332
Probable space group: C 2/C
;
_chemical_formula_sum "Si O2"
_cell_formula_units_Z 32
_cell_length_a 4.722878
_cell_length_b 17.440014
_cell_length_c 16.759729
_cell_angle_alpha 90.000000
_cell_angle_beta 75.350891
_cell_angle_gamma 90.000000
_cell_volume 1335.574976
_symmetry_space_group_name_H-M "C 2/C"
_symmetry_group_IT_number 15
_symmetry_cell_setting 'monoclinic'
loop_
_space_group_symop_operation_xyz
x,y,z
-x,y,1/2-z
-x,-y,-z
x,-y,1/2+z
1/2+x,1/2+y,z
1/2-x,1/2+y,1/2-z
1/2-x,1/2-y,-z
1/2+x,1/2-y,1/2+z
loop_
_atom_site_type_symbol
_atom_site_label
_atom_site_fract_x
_atom_site_fract_y
_atom_site_fract_z
Si Si1 0.635986 0.866090 0.571767
Si Si2 0.685663 0.237479 0.663685
Si Si3 0.811282 0.141164 0.887426
Si Si4 0.394035 0.527757 0.420786
O O1 0.422960 0.799450 0.617552
O O2 0.832829 0.842717 0.481793
O O3 0.847554 0.910806 0.618988
O O4 0.403413 0.925704 0.552906
O O5 0.500000 0.269594 0.750000
O O6 0.458640 0.194575 0.620932
O O7 0.894566 0.168801 0.675386
O O8 0.816684 0.049071 0.877385
O O9 0.500000 0.500000 0.500000
#
# Coordination Sequence:
#
# PCOD9273332 Si02
#       4
#     8   8   8   8
#     4  11  21  39  65  92 120 159 205 255 310 370
#     4  12  25  40  59  90 128 165 205 254 307 371
#     4  11  21  40  64  90 120 160 206 256 310 368
#     4  10  20  37  64  94 120 150 203 263 309 363
#
# _framework density 23.959717000000001
#
# number of rings (size 3 to 8) (size 9 to 14) (size 15 to 20)
#    0.000    1.000    0.000   11.250    0.000    0.000 
#    0.000    5.000    0.000    0.000    0.000    0.000 
#    0.000    0.000    0.000    0.000    0.000    0.000 
#
# Total GULP energy -89265.677065 kJ/mol
# GULP energy per Si atom -5579.104817 kJ/mol
# Density = 2.390518 g / cm^3
# Si number density = 23.959717 Si / 1000 Ang^3
#
#
#
# Elastic Constant Matrix: (Units=GPa)
#
#
# Indices 1 2 3 4 5 6 
#
# 1 120.8745 39.7579 18.0870 0.0000 -25.3356 0.0000
# 2 39.7579 118.3458 27.7429 0.0000 -3.3160 0.0000
# 3 18.0870 27.7429 57.3377 0.0000 -13.5889 0.0000
# 4 0.0000 0.0000 0.0000 16.8902 0.0000 -16.4951
# 5 -25.3356 -3.3160 -13.5889 0.0000 30.1844 0.0000
# 6 0.0000 0.0000 0.0000 -16.4951 0.0000 53.9022
#
#
#
# Elastic Compliance Matrix: (Units=1/GPa)
#
#
# Indices 1 2 3 4 5 6 
#
# 1 0.011368 -0.003649 0.000387 0.000000 0.009315 0.000000
# 2 -0.003649 0.010738 -0.005027 0.000000 -0.004146 0.000000
# 3 0.000387 -0.005027 0.022050 0.000000 0.009699 0.000000
# 4 0.000000 0.000000 0.000000 0.084442 0.000000 0.025841
# 5 0.009315 -0.004146 0.009699 0.000000 0.044859 0.000000
# 6 0.000000 0.000000 0.000000 0.025841 0.000000 0.026460
#
#
# Mechanical properties :
#
#
# Convention : Reuss Voigt Hill
#
# Bulk Modulus (GPa) = 36.26122 51.97040 44.11581
# Shear Modulus (GPa) = 22.15458 34.26004 28.20731
#
# Velocity S-wave (km/s) = 3.04412 3.78551 3.43487
# Velocity P-wave (km/s) = 5.24620 6.39098 5.84668
#
# Compressibility (1/GPa) = 0.02757767
#
# Stress axis : x y z
#
# Youngs Moduli (GPa) = 87.96855 93.12801 45.35237
#
# Poissons Ratio (x) = 0.33980 -0.01756
# Poissons Ratio (y) = 0.32097 0.22800
# Poissons Ratio (z) = -0.03406 0.46817
#
# Static dielectric constant tensor:
#      x y z
#    x 1.945890 0.000000 0.074580 
#    y 0.000000 2.034130 0.000000 
#    z 0.074580 0.000000 2.001350 
# 
# From -- ./inp_files/183977.got.cif
#   From: 2010.05.17/outbox.cif.g08.bks.cpg/sg15_92_cif.got.tgz:183977.got - 2010.06.03 18:47:42.
