data_PCOD9273323
_publ_section_title
;
Structure prediction by ZEFSAII (Michael W. Deem and Ramdas Pophale) SiO2 
 PCOD9273323
Probable space group: C 2/C
;
_chemical_formula_sum "Si O2"
_cell_formula_units_Z 44
_cell_length_a 11.233159
_cell_length_b 20.211791
_cell_length_c 10.179760
_cell_angle_alpha 90.000000
_cell_angle_beta 70.079482
_cell_angle_gamma 90.000000
_cell_volume 2172.945661
_symmetry_space_group_name_H-M "C 2/C"
_symmetry_group_IT_number 15
_symmetry_cell_setting 'monoclinic'
loop_
_space_group_symop_operation_xyz
x,y,z
-x,y,1/2-z
-x,-y,-z
x,-y,1/2+z
1/2+x,1/2+y,z
1/2-x,1/2+y,1/2-z
1/2-x,1/2-y,-z
1/2+x,1/2-y,1/2+z
loop_
_atom_site_type_symbol
_atom_site_label
_atom_site_fract_x
_atom_site_fract_y
_atom_site_fract_z
Si Si1 0.777479 0.177456 0.695070
Si Si2 0.517997 0.923020 0.514287
Si Si3 0.377724 0.808149 0.709390
Si Si4 0.979094 0.937397 0.103384
Si Si5 0.000000 0.651119 0.750000
Si Si6 0.231039 0.142283 0.497805
O O1 0.853263 0.244040 0.629969
O O2 0.851979 0.108319 0.635039
O O3 0.637015 0.185277 0.688844
O O4 0.769651 0.176097 0.858321
O O5 0.413103 0.877777 0.627341
O O6 0.521022 0.892918 0.369200
O O7 0.652167 0.909414 0.534271
O O8 0.500000 0.000000 0.500000
O O9 0.500000 0.791070 0.750000
O O10 0.264826 0.817352 0.855226
O O11 0.000000 0.956327 0.250000
O O12 0.095581 0.889278 0.030599
O O13 0.000000 0.000000 0.000000
#
# Coordination Sequence:
#
# PCOD9273323 Si02
#       6
#     8   8   8   8   4   8
#     4  10  21  40  62  89 127 157 204 258 308 370
#     4  10  23  37  61  88 125 163 206 254 302 370
#     4  10  20  37  64  93 117 159 210 253 306 363
#     4  10  22  39  63  91 123 166 210 258 310 368
#     4  10  24  40  60  86 126 166 194 258 318 360
#     4   9  20  37  62  91 115 158 210 258 303 358
#
# _framework density 20.249012
#
# number of rings (size 3 to 8) (size 9 to 14) (size 15 to 20)
#    0.000    2.182    0.000    2.182    6.364    6.545 
#    0.000    0.000    2.000    0.000    0.000    0.000 
#    0.000    0.000    0.000    0.000    0.000    0.000 
#
# Total GULP energy -122527.321256 kJ/mol
# GULP energy per Si atom -5569.423693 kJ/mol
# Density = 2.020292 g / cm^3
# Si number density = 20.249012 Si / 1000 Ang^3
#
#
#
# Elastic Constant Matrix: (Units=GPa)
#
#
# Indices 1 2 3 4 5 6 
#
# 1 89.3455 45.1688 13.6280 0.0000 -6.0317 0.0000
# 2 45.1688 134.8378 26.9784 0.0000 -8.9838 0.0000
# 3 13.6280 26.9784 74.7459 0.0000 -14.7959 0.0000
# 4 0.0000 0.0000 0.0000 20.0699 0.0000 4.5107
# 5 -6.0317 -8.9838 -14.7959 0.0000 23.1960 0.0000
# 6 0.0000 0.0000 0.0000 4.5107 0.0000 1.6069
#
#
#
# Elastic Compliance Matrix: (Units=1/GPa)
#
#
# Indices 1 2 3 4 5 6 
#
# 1 0.013572 -0.004324 -0.000626 0.000000 0.001455 0.000000
# 2 -0.004324 0.009413 -0.002415 0.000000 0.000981 0.000000
# 3 -0.000626 -0.002415 0.016191 0.000000 0.009230 0.000000
# 4 0.000000 0.000000 0.000000 0.135000 0.000000 -0.378968
# 5 0.001455 0.000981 0.009230 0.000000 0.049757 0.000000
# 6 0.000000 0.000000 0.000000 -0.378968 0.000000 1.686165
#
#
# Mechanical properties :
#
#
# Convention : Reuss Voigt Hill
#
# Bulk Modulus (GPa) = 40.90466 52.27552 46.59009
# Shear Modulus (GPa) = 2.58668 23.18482 12.88575
#
# Velocity S-wave (km/s) = 1.13146 3.38743 2.52536
# Velocity P-wave (km/s) = 4.68526 6.41654 5.61799
#
# Compressibility (1/GPa) = 0.02444709
#
# Stress axis : x y z
#
# Youngs Moduli (GPa) = 73.67892 106.23049 61.76092
#
# Poissons Ratio (x) = 0.45939 0.03864
# Poissons Ratio (y) = 0.31862 0.14915
# Poissons Ratio (z) = 0.04610 0.25655
#
# Static dielectric constant tensor:
#      x y z
#    x 1.755560 0.000000 -0.048340 
#    y 0.000000 1.770660 0.000000 
#    z -0.048340 0.000000 1.785420 
# 
# From -- ./inp_files/87164.got.cif
#   From: 2010.05.17/outbox.cif.g08.bks.cpg/sg15_44_cif.got.tgz:87164.got - 2010.06.03 18:47:42.
