data_PCOD9273488
_publ_section_title
;
Structure prediction by ZEFSAII (Michael W. Deem and Ramdas Pophale) SiO2 
 PCOD9273488
Probable space group: C 2/C
;
_chemical_formula_sum "Si O2"
_cell_formula_units_Z 40
_cell_length_a 11.379013
_cell_length_b 18.441427
_cell_length_c 12.063301
_cell_angle_alpha 90.000000
_cell_angle_beta 136.321684
_cell_angle_gamma 90.000000
_cell_volume 1748.225127
_symmetry_space_group_name_H-M "C 2/C"
_symmetry_group_IT_number 15
_symmetry_cell_setting 'monoclinic'
loop_
_space_group_symop_operation_xyz
x,y,z
-x,y,1/2-z
-x,-y,-z
x,-y,1/2+z
1/2+x,1/2+y,z
1/2-x,1/2+y,1/2-z
1/2-x,1/2-y,-z
1/2+x,1/2-y,1/2+z
loop_
_atom_site_type_symbol
_atom_site_label
_atom_site_fract_x
_atom_site_fract_y
_atom_site_fract_z
Si Si1 0.874552 0.268273 0.810873
Si Si2 0.867421 0.401928 0.494707
Si Si3 0.988280 0.442398 0.118101
Si Si4 0.373495 0.352884 0.990664
Si Si5 0.663587 0.631208 0.284895
O O1 0.765429 0.289117 0.629400
O O2 0.745105 0.288317 0.822248
O O3 0.019140 0.329968 0.916609
O O4 0.954458 0.189804 0.866753
O O5 0.976822 0.470663 0.611350
O O6 0.701954 0.397305 0.458703
O O7 0.858992 0.417187 0.357608
O O8 0.000000 0.414131 0.250000
O O9 0.812626 0.415873 0.941553
O O10 0.377692 0.390676 0.871804
O O11 0.500000 0.630731 0.250000
#
# Coordination Sequence:
#
# PCOD9273488 Si02
#       5
#     8   8   8   8   8
#     4   9  20  36  63  90 125 160 208 255 315 366
#     4  10  20  37  66  94 128 157 203 265 307 367
#     4  10  21  38  67  92 122 168 208 241 314 383
#     4  10  20  39  63  94 121 163 207 259 314 359
#     4   9  22  42  60  87 132 166 202 260 315 363
#
# _framework density 22.880348999999999
#
# number of rings (size 3 to 8) (size 9 to 14) (size 15 to 20)
#    1.200    1.200    0.000    2.400    2.800    0.800 
#    7.200    4.000    0.000    0.000    0.000    0.000 
#    0.000    0.000    0.000    0.000    0.000    0.000 
#
# Total GULP energy -111526.107307 kJ/mol
# GULP energy per Si atom -5576.305365 kJ/mol
# Density = 2.282827 g / cm^3
# Si number density = 22.880349 Si / 1000 Ang^3
#
#
#
# Elastic Constant Matrix: (Units=GPa)
#
#
# Indices 1 2 3 4 5 6 
#
# 1 203.4442 56.3557 19.1916 0.0000 -62.2815 0.0000
# 2 56.3557 58.7025 37.1692 0.0000 7.7204 0.0000
# 3 19.1916 37.1692 -18.5985 0.0000 -89.9211 0.0000
# 4 0.0000 0.0000 0.0000 11.0984 0.0000 -0.2866
# 5 -62.2815 7.7204 -89.9211 0.0000 -0.1342 0.0000
# 6 0.0000 0.0000 0.0000 -0.2866 0.0000 29.0548
#
#
#
# Elastic Compliance Matrix: (Units=1/GPa)
#
#
# Indices 1 2 3 4 5 6 
#
# 1 0.006632 -0.003406 -0.004887 0.000000 0.001018 0.000000
# 2 -0.003406 0.017151 0.003823 0.000000 0.005572 0.000000
# 3 -0.004887 0.003823 0.003730 0.000000 -0.011355 0.000000
# 4 0.000000 0.000000 0.000000 0.090126 0.000000 0.000889
# 5 0.001018 0.005572 -0.011355 0.000000 0.004869 0.000000
# 6 0.000000 0.000000 0.000000 0.000889 0.000000 0.034427
#
#
# Mechanical properties :
#
#
# Convention : Reuss Voigt Hill
#
# Bulk Modulus (GPa) = 53.84060 52.10902 52.97481
# Shear Modulus (GPa) = 29.05880 16.72594 22.89237
#
# Velocity S-wave (km/s) = 3.56762 2.70667 3.16654
# Velocity P-wave (km/s) = 6.36812 5.70895 6.04752
#
# Compressibility (1/GPa) = 0.01857335
#
# Stress axis : x y z
#
# Youngs Moduli (GPa) = 150.79331 58.30494 268.08523
#
# Poissons Ratio (x) = 0.19858 1.31017
# Poissons Ratio (y) = 0.51360 -1.02497
# Poissons Ratio (z) = 0.73695 -0.22292
#
# Static dielectric constant tensor:
#      x y z
#    x 1.900020 0.000000 -0.003570 
#    y 0.000000 1.864520 0.000000 
#    z -0.003570 0.000000 1.902150 
# 
# From -- ./inp_files/88634.got.cif
#   From: 2010.05.17/outbox.cif.g08.bks.cpg/sg15_45_cif.got.tgz:88634.got - 2010.06.03 18:47:42.
