data_PCOD9273273
_publ_section_title
;
Structure prediction by ZEFSAII (Michael W. Deem and Ramdas Pophale) SiO2 
 PCOD9273273
Probable space group: C 2/C
;
_chemical_formula_sum "Si O2"
_cell_formula_units_Z 64
_cell_length_a 22.439108
_cell_length_b 11.937123
_cell_length_c 17.405893
_cell_angle_alpha 90.000000
_cell_angle_beta 42.833067
_cell_angle_gamma 90.000000
_cell_volume 3169.742812
_symmetry_space_group_name_H-M "C 2/C"
_symmetry_group_IT_number 15
_symmetry_cell_setting 'monoclinic'
loop_
_space_group_symop_operation_xyz
x,y,z
-x,y,1/2-z
-x,-y,-z
x,-y,1/2+z
1/2+x,1/2+y,z
1/2-x,1/2+y,1/2-z
1/2-x,1/2-y,-z
1/2+x,1/2-y,1/2+z
loop_
_atom_site_type_symbol
_atom_site_label
_atom_site_fract_x
_atom_site_fract_y
_atom_site_fract_z
Si Si1 0.337879 0.440875 0.350885
Si Si2 0.582915 0.388455 0.824478
Si Si3 0.852129 0.488555 0.914165
Si Si4 0.966126 0.700280 0.368373
Si Si5 0.161551 0.142397 0.414216
Si Si6 0.395033 0.756941 0.340273
Si Si7 0.655040 0.195588 0.210890
Si Si8 0.389278 0.433969 0.949365
O O1 0.376380 0.491565 0.236724
O O2 0.240735 0.486370 0.456219
O O3 0.331400 0.308388 0.351129
O O4 0.396840 0.489960 0.364574
O O5 0.609352 0.355579 0.884389
O O6 0.622289 0.299811 0.725685
O O7 0.479844 0.403793 0.905630
O O8 0.924727 0.423273 0.896235
O O9 0.874857 0.613647 0.868976
O O10 0.842237 0.409646 0.849084
O O11 0.893118 0.781147 0.473591
O O12 0.000000 0.732893 0.250000
O O13 0.055003 0.700648 0.334707
O O14 0.261298 0.185044 0.313391
O O15 0.163488 0.015238 0.444584
O O16 0.500000 0.742981 0.250000
O O17 0.352203 0.681131 0.448338
#
# Coordination Sequence:
#
# PCOD9273273 Si02
#       8
#     8   8   8   8   8   8   8   8
#     4  11  20  39  63  95 123 159 223 275 311 373
#     4  10  24  40  62  92 133 170 204 264 337 388
#     4  11  20  38  64  92 127 154 218 272 311 374
#     4  10  22  36  68  95 122 168 220 269 320 376
#     4  12  22  43  61  96 137 164 210 272 332 397
#     4   9  20  40  62  90 118 163 214 259 308 384
#     4  11  22  38  63  97 125 164 213 271 324 376
#     4  10  20  37  64  86 117 164 214 263 313 367
#
# _framework density 20.190912000000001
#
# number of rings (size 3 to 8) (size 9 to 14) (size 15 to 20)
#    0.000    1.500    2.500    5.250    0.000    4.500 
#    2.250    3.750    0.000    9.750    0.000    0.000 
#    0.000    0.000    0.000    0.000    0.000    0.000 
#
# Total GULP energy -178531.638053 kJ/mol
# GULP energy per Si atom -5579.113689 kJ/mol
# Density = 2.014496 g / cm^3
# Si number density = 20.190912 Si / 1000 Ang^3
#
#
#
# Elastic Constant Matrix: (Units=GPa)
#
#
# Indices 1 2 3 4 5 6 
#
# 1 112.3167 43.0311 29.3344 0.0000 -9.0627 0.0000
# 2 43.0311 139.7935 10.9513 0.0000 13.4075 0.0000
# 3 29.3344 10.9513 30.0883 0.0000 -7.0281 0.0000
# 4 0.0000 0.0000 0.0000 0.4731 0.0000 1.7466
# 5 -9.0627 13.4075 -7.0281 0.0000 31.3030 0.0000
# 6 0.0000 0.0000 0.0000 1.7466 0.0000 16.0365
#
#
#
# Elastic Compliance Matrix: (Units=1/GPa)
#
#
# Indices 1 2 3 4 5 6 
#
# 1 0.013386 -0.003530 -0.011089 0.000000 0.002897 0.000000
# 2 -0.003530 0.008791 -0.000926 0.000000 -0.004995 0.000000
# 3 -0.011089 -0.000926 0.046146 0.000000 0.007547 0.000000
# 4 0.000000 0.000000 0.000000 3.535179 0.000000 -0.385031
# 5 0.002897 -0.004995 0.007547 0.000000 0.036618 0.000000
# 6 0.000000 0.000000 0.000000 -0.385031 0.000000 0.104293
#
#
# Mechanical properties :
#
#
# Convention : Reuss Voigt Hill
#
# Bulk Modulus (GPa) = 26.85614 49.87025 38.36319
# Shear Modulus (GPa) = 1.31999 22.82130 12.07065
#
# Velocity S-wave (km/s) = 0.80943 3.36561 2.44770
# Velocity P-wave (km/s) = 3.76876 6.31316 5.19902
#
# Compressibility (1/GPa) = 0.03723543
#
# Stress axis : x y z
#
# Youngs Moduli (GPa) = 74.70755 113.74683 21.67039
#
# Poissons Ratio (x) = 0.40147 0.24030
# Poissons Ratio (y) = 0.26368 0.02006
# Poissons Ratio (z) = 0.82841 0.10527
#
# Static dielectric constant tensor:
#      x y z
#    x 1.756010 0.000000 -0.031690 
#    y 0.000000 1.724300 0.000000 
#    z -0.031690 0.000000 1.720520 
# 
# From -- ./inp_files/215048.got.cif
#   From: 2010.05.17/outbox.cif.g08.bks.cpg/sg15_108_cif.got.tgz:215048.got - 2010.06.03 18:47:42.
