data_PCOD9273846
_publ_section_title
;
Structure prediction by ZEFSAII (Michael W. Deem and Ramdas Pophale) SiO2 
 PCOD9273846
Probable space group: C 2/C
;
_chemical_formula_sum "Si O2"
_cell_formula_units_Z 52
_cell_length_a 18.647214
_cell_length_b 5.965552
_cell_length_c 18.285690
_cell_angle_alpha 90.000000
_cell_angle_beta 92.725923
_cell_angle_gamma 90.000000
_cell_volume 2031.815380
_symmetry_space_group_name_H-M "C 2/C"
_symmetry_group_IT_number 15
_symmetry_cell_setting 'monoclinic'
loop_
_space_group_symop_operation_xyz
x,y,z
-x,y,1/2-z
-x,-y,-z
x,-y,1/2+z
1/2+x,1/2+y,z
1/2-x,1/2+y,1/2-z
1/2-x,1/2-y,-z
1/2+x,1/2-y,1/2+z
loop_
_atom_site_type_symbol
_atom_site_label
_atom_site_fract_x
_atom_site_fract_y
_atom_site_fract_z
Si Si1 0.353595 0.231070 0.768086
Si Si2 0.007943 0.118976 0.603334
Si Si3 0.439801 0.215822 0.644255
Si Si4 0.138266 0.627874 0.447303
Si Si5 0.500000 0.172143 0.250000
Si Si6 0.138283 0.416851 0.595288
Si Si7 0.756544 0.961979 0.355981
O O1 0.402395 0.351368 0.707952
O O2 0.294477 0.117637 0.712679
O O3 0.320974 0.413438 0.819479
O O4 0.377224 0.036921 0.827018
O O5 0.928151 0.205622 0.575059
O O6 0.027557 0.167627 0.688280
O O7 0.069924 0.262224 0.568683
O O8 0.000884 0.850548 0.604806
O O9 0.386946 0.118423 0.581933
O O10 0.458335 0.001090 0.695163
O O11 0.148687 0.603898 0.533690
O O12 0.211652 0.637121 0.404272
O O13 0.207694 0.254299 0.603700
#
# Coordination Sequence:
#
# PCOD9273846 Si02
#       7
#     8   8   8   8   4   8   8
#     4  11  24  42  69  98 133 175 233 282 338 407
#     4  11  24  40  73  96 138 179 229 282 355 401
#     4  10  23  40  65  99 136 172 228 281 346 398
#     4  10  26  45  64 101 143 180 228 285 342 418
#     4  10  20  38  60 100 132 166 216 288 334 400
#     4  12  25  45  69 100 140 182 230 280 349 421
#     4  11  25  42  68  97 135 182 227 285 340 408
#
# _framework density 25.592874999999999
#
# number of rings (size 3 to 8) (size 9 to 14) (size 15 to 20)
#    0.000    1.231    3.077    1.385    6.462    2.462 
#    0.000    0.000    0.000    0.000    0.000    0.000 
#    0.000    0.000    0.000    0.000    0.000    0.000 
#
# Total GULP energy -145016.820504 kJ/mol
# GULP energy per Si atom -5577.570019 kJ/mol
# Density = 2.553462 g / cm^3
# Si number density = 25.592875 Si / 1000 Ang^3
#
#
#
# Elastic Constant Matrix: (Units=GPa)
#
#
# Indices 1 2 3 4 5 6 
#
# 1 96.5106 19.6574 32.4801 0.0000 10.9349 0.0000
# 2 19.6574 36.1958 16.8286 0.0000 16.4874 0.0000
# 3 32.4801 16.8286 125.6286 0.0000 1.7799 0.0000
# 4 0.0000 0.0000 0.0000 36.5432 0.0000 12.6639
# 5 10.9349 16.4874 1.7799 0.0000 29.9596 0.0000
# 6 0.0000 0.0000 0.0000 12.6639 0.0000 52.1496
#
#
#
# Elastic Compliance Matrix: (Units=1/GPa)
#
#
# Indices 1 2 3 4 5 6 
#
# 1 0.012382 -0.004742 -0.002541 0.000000 -0.001759 0.000000
# 2 -0.004742 0.041623 -0.004053 0.000000 -0.020934 0.000000
# 3 -0.002541 -0.004053 0.009123 0.000000 0.002616 0.000000
# 4 0.000000 0.000000 0.000000 0.029879 0.000000 -0.007256
# 5 -0.001759 -0.020934 0.002616 0.000000 0.045385 0.000000
# 6 0.000000 0.000000 0.000000 -0.007256 0.000000 0.020938
#
#
# Mechanical properties :
#
#
# Convention : Reuss Voigt Hill
#
# Bulk Modulus (GPa) = 24.71850 44.02968 34.37409
# Shear Modulus (GPa) = 25.57717 36.35508 30.96612
#
# Velocity S-wave (km/s) = 3.16474 3.77306 3.48221
# Velocity P-wave (km/s) = 4.79931 6.01852 5.44316
#
# Compressibility (1/GPa) = 0.04045553
#
# Stress axis : x y z
#
# Youngs Moduli (GPa) = 80.76341 24.02529 109.61524
#
# Poissons Ratio (x) = 0.11392 0.27854
# Poissons Ratio (y) = 0.38297 0.44428
# Poissons Ratio (z) = 0.20523 0.09738
#
# Static dielectric constant tensor:
#      x y z
#    x 2.179780 0.000000 -0.083000 
#    y 0.000000 2.129580 0.000000 
#    z -0.083000 0.000000 1.995940 
# 
# From -- ./inp_files/251108.got.cif
#   From: 2010.05.17/outbox.cif.g08.bks.cpg/sg15_126_cif.got.tgz:251108.got - 2010.06.03 18:47:42.
