data_PCOD9273208
_publ_section_title
;
Structure prediction by ZEFSAII (Michael W. Deem and Ramdas Pophale) SiO2 
 PCOD9273208
Probable space group: C 2/C
;
_chemical_formula_sum "Si O2"
_cell_formula_units_Z 52
_cell_length_a 16.873780
_cell_length_b 9.311075
_cell_length_c 18.099470
_cell_angle_alpha 90.000000
_cell_angle_beta 54.540445
_cell_angle_gamma 90.000000
_cell_volume 2316.234936
_symmetry_space_group_name_H-M "C 2/C"
_symmetry_group_IT_number 15
_symmetry_cell_setting 'monoclinic'
loop_
_space_group_symop_operation_xyz
x,y,z
-x,y,1/2-z
-x,-y,-z
x,-y,1/2+z
1/2+x,1/2+y,z
1/2-x,1/2+y,1/2-z
1/2-x,1/2-y,-z
1/2+x,1/2-y,1/2+z
loop_
_atom_site_type_symbol
_atom_site_label
_atom_site_fract_x
_atom_site_fract_y
_atom_site_fract_z
Si Si1 0.011182 0.765634 0.943527
Si Si2 0.473598 0.588253 0.923234
Si Si3 0.500000 0.522742 0.750000
Si Si4 0.248891 0.631229 0.065955
Si Si5 0.295954 0.423330 0.815046
Si Si6 0.675825 0.878383 0.020615
Si Si7 0.770737 0.292255 0.203032
O O1 0.114796 0.690832 0.877893
O O2 0.019711 0.931108 0.911360
O O3 0.928024 0.686253 0.943476
O O4 0.986618 0.790293 0.043350
O O5 0.483509 0.617388 0.831588
O O6 0.359743 0.572572 0.005428
O O7 0.404123 0.426399 0.789994
O O8 0.229377 0.700071 0.156335
O O9 0.250000 0.750000 0.000000
O O10 0.179362 0.500617 0.080777
O O11 0.221899 0.447240 0.921977
O O12 0.285066 0.558661 0.766894
O O13 0.268807 0.285294 0.782556
O O14 0.750000 0.750000 0.000000
#
# Coordination Sequence:
#
# PCOD9273208 Si02
#       7
#     8   8   4   8   8   8   8
#     4  10  22  41  66  96 132 178 223 273 330 403
#     4  10  20  37  63  91 129 179 219 263 333 401
#     4  12  20  40  62  96 128 178 222 264 324 412
#     4  11  21  44  64  95 136 174 223 276 330 393
#     4  12  27  43  69 101 136 176 225 279 341 397
#     4  12  24  41  71 103 130 180 234 271 327 410
#     4  11  26  46  67  99 138 179 220 285 340 400
#
# _framework density 22.450226000000001
#
# number of rings (size 3 to 8) (size 9 to 14) (size 15 to 20)
#    0.000    0.923    6.154    0.000    4.308    0.615 
#    0.000    1.538    0.000    0.000    0.000    0.000 
#    0.000    0.000    0.000    0.000    0.000    0.000 
#
# Total GULP energy -145480.574130 kJ/mol
# GULP energy per Si atom -5595.406697 kJ/mol
# Density = 2.239913 g / cm^3
# Si number density = 22.450226 Si / 1000 Ang^3
#
#
#
# Elastic Constant Matrix: (Units=GPa)
#
#
# Indices 1 2 3 4 5 6 
#
# 1 137.1963 45.0826 2.2903 0.0000 3.4989 0.0000
# 2 45.0826 63.2659 -17.6852 0.0000 -2.4761 0.0000
# 3 2.2903 -17.6852 35.0898 0.0000 4.9578 0.0000
# 4 0.0000 0.0000 0.0000 28.3303 0.0000 12.7506
# 5 3.4989 -2.4761 4.9578 0.0000 26.3658 0.0000
# 6 0.0000 0.0000 0.0000 12.7506 0.0000 43.9280
#
#
#
# Elastic Compliance Matrix: (Units=1/GPa)
#
#
# Indices 1 2 3 4 5 6 
#
# 1 0.010275 -0.008740 -0.004897 0.000000 -0.001264 0.000000
# 2 -0.008740 0.025833 0.013441 0.000000 0.001059 0.000000
# 3 -0.004897 0.013441 0.036286 0.000000 -0.004911 0.000000
# 4 0.000000 0.000000 0.000000 0.040602 0.000000 -0.011785
# 5 -0.001264 0.001059 -0.004911 0.000000 0.039119 0.000000
# 6 0.000000 0.000000 0.000000 -0.011785 0.000000 0.026185
#
#
# Mechanical properties :
#
#
# Convention : Reuss Voigt Hill
#
# Bulk Modulus (GPa) = 13.88876 32.76969 23.32923
# Shear Modulus (GPa) = 24.66789 33.44910 29.05849
#
# Velocity S-wave (km/s) = 3.31838 3.86414 3.60161
# Velocity P-wave (km/s) = 4.56970 5.87682 5.26399
#
# Compressibility (1/GPa) = 0.07200067
#
# Stress axis : x y z
#
# Youngs Moduli (GPa) = 97.32581 38.71027 27.55892
#
# Poissons Ratio (x) = 0.33833 0.13496
# Poissons Ratio (y) = 0.85063 -0.37041
# Poissons Ratio (z) = 0.47661 -0.52029
#
# Static dielectric constant tensor:
#      x y z
#    x 1.848970 0.000000 0.030200 
#    y 0.000000 1.837130 0.000000 
#    z 0.030200 0.000000 1.867550 
# 
# From -- ./inp_files/209470.got.cif
#   From: 2010.05.17/outbox.cif.g08.bks.cpg/sg15_105_cif.got.tgz:209470.got - 2010.06.03 18:47:42.
