data_PCOD9273707
_publ_section_title
;
Structure prediction by ZEFSAII (Michael W. Deem and Ramdas Pophale) SiO2 
 PCOD9273707
Probable space group: C 2/C
;
_chemical_formula_sum "Si O2"
_cell_formula_units_Z 48
_cell_length_a 16.061923
_cell_length_b 13.623284
_cell_length_c 11.690441
_cell_angle_alpha 90.000000
_cell_angle_beta 82.277920
_cell_angle_gamma 90.000000
_cell_volume 2534.859397
_symmetry_space_group_name_H-M "C 2/C"
_symmetry_group_IT_number 15
_symmetry_cell_setting 'monoclinic'
loop_
_space_group_symop_operation_xyz
x,y,z
-x,y,1/2-z
-x,-y,-z
x,-y,1/2+z
1/2+x,1/2+y,z
1/2-x,1/2+y,1/2-z
1/2-x,1/2-y,-z
1/2+x,1/2-y,1/2+z
loop_
_atom_site_type_symbol
_atom_site_label
_atom_site_fract_x
_atom_site_fract_y
_atom_site_fract_z
Si Si1 0.264775 0.077201 0.300915
Si Si2 0.283937 0.351413 0.150502
Si Si3 0.819911 0.824993 0.878228
Si Si4 0.902945 0.733305 0.305766
Si Si5 0.957558 0.954153 0.862166
Si Si6 0.389684 0.620827 0.012316
O O1 0.248583 0.107126 0.172117
O O2 0.352390 0.129655 0.316871
O O3 0.191777 0.126264 0.393130
O O4 0.244940 0.962039 0.319677
O O5 0.202085 0.282703 0.159983
O O6 0.350025 0.304784 0.228381
O O7 0.319863 0.336416 0.015113
O O8 0.908276 0.863458 0.818486
O O9 0.899884 0.785371 0.430138
O O10 0.000000 0.723814 0.250000
O O11 0.000000 0.011770 0.750000
O O12 0.888560 0.025266 0.930023
O O13 0.026618 0.909849 0.933531
#
# Coordination Sequence:
#
# PCOD9273707 Si02
#       6
#     8   8   8   8   8   8
#     4  11  22  39  61  90 119 155 200 246 299 355
#     4  10  22  39  62  84 118 160 202 240 293 359
#     4  10  20  38  58  85 117 160 196 241 292 356
#     4  11  24  40  62  88 123 158 199 246 303 355
#     4  11  20  33  57  90 122 148 197 245 300 350
#     4  11  22  34  60  91 120 150 190 258 299 351
#
# _framework density 18.935960000000001
#
# number of rings (size 3 to 8) (size 9 to 14) (size 15 to 20)
#    0.000    1.333    3.333    3.000    2.333    0.000 
#    0.000    0.833    0.000   10.000    0.000    0.000 
#    0.000    0.000    0.000    0.000    0.000    0.000 
#
# Total GULP energy -133712.249584 kJ/mol
# GULP energy per Si atom -5571.343733 kJ/mol
# Density = 1.889286 g / cm^3
# Si number density = 18.935960 Si / 1000 Ang^3
#
#
#
# Elastic Constant Matrix: (Units=GPa)
#
#
# Indices 1 2 3 4 5 6 
#
# 1 76.6061 34.3880 4.6159 0.0000 -10.5929 0.0000
# 2 34.3880 89.6766 9.5425 0.0000 -0.5893 0.0000
# 3 4.6159 9.5425 59.5208 0.0000 4.4360 0.0000
# 4 0.0000 0.0000 0.0000 20.2718 0.0000 -2.8952
# 5 -10.5929 -0.5893 4.4360 0.0000 25.4100 0.0000
# 6 0.0000 0.0000 0.0000 -2.8952 0.0000 29.4629
#
#
#
# Elastic Compliance Matrix: (Units=1/GPa)
#
#
# Indices 1 2 3 4 5 6 
#
# 1 0.016934 -0.006360 -0.000819 0.000000 0.007055 0.000000
# 2 -0.006360 0.013742 -0.001556 0.000000 -0.002061 0.000000
# 3 -0.000819 -0.001556 0.017368 0.000000 -0.003410 0.000000
# 4 0.000000 0.000000 0.000000 0.050032 0.000000 0.004916
# 5 0.007055 -0.002061 -0.003410 0.000000 0.042843 0.000000
# 6 0.000000 0.000000 0.000000 0.004916 0.000000 0.034424
#
#
# Mechanical properties :
#
#
# Convention : Reuss Voigt Hill
#
# Bulk Modulus (GPa) = 32.70923 35.87741 34.29332
# Shear Modulus (GPa) = 24.62997 26.84608 25.73802
#
# Velocity S-wave (km/s) = 3.61043 3.76936 3.69075
# Velocity P-wave (km/s) = 5.88994 6.15889 6.02592
#
# Compressibility (1/GPa) = 0.03057241
#
# Stress axis : x y z
#
# Youngs Moduli (GPa) = 59.05415 72.76925 57.57709
#
# Poissons Ratio (x) = 0.46281 0.04718
# Poissons Ratio (y) = 0.37558 0.08961
# Poissons Ratio (z) = 0.04839 0.11325
#
# Static dielectric constant tensor:
#      x y z
#    x 1.660760 0.000000 0.008220 
#    y 0.000000 1.709250 0.000000 
#    z 0.008220 0.000000 1.797010 
# 
# From -- ./inp_files/96317.got.cif
#   From: 2010.05.17/outbox.cif.g08.bks.cpg/sg15_49_cif.got.tgz:96317.got - 2010.06.03 18:47:42.
