data_PCOD9273428
_publ_section_title
;
Structure prediction by ZEFSAII (Michael W. Deem and Ramdas Pophale) SiO2 
 PCOD9273428
Probable space group: C 2/C
;
_chemical_formula_sum "Si O2"
_cell_formula_units_Z 52
_cell_length_a 19.798271
_cell_length_b 8.550367
_cell_length_c 14.066132
_cell_angle_alpha 90.000000
_cell_angle_beta 90.454405
_cell_angle_gamma 90.000000
_cell_volume 2381.074866
_symmetry_space_group_name_H-M "C 2/C"
_symmetry_group_IT_number 15
_symmetry_cell_setting 'monoclinic'
loop_
_space_group_symop_operation_xyz
x,y,z
-x,y,1/2-z
-x,-y,-z
x,-y,1/2+z
1/2+x,1/2+y,z
1/2-x,1/2+y,1/2-z
1/2-x,1/2-y,-z
1/2+x,1/2-y,1/2+z
loop_
_atom_site_type_symbol
_atom_site_label
_atom_site_fract_x
_atom_site_fract_y
_atom_site_fract_z
Si Si1 0.912773 0.694697 0.586000
Si Si2 0.032965 0.189881 0.952819
Si Si3 0.938344 0.973738 0.861266
Si Si4 0.265410 0.205826 0.852759
Si Si5 0.500000 0.811437 0.250000
Si Si6 0.840937 0.600079 0.032847
Si Si7 0.332917 0.431524 0.710279
O O1 0.855886 0.582583 0.543459
O O2 0.881111 0.851443 0.631910
O O3 0.970012 0.730309 0.508128
O O4 0.949421 0.608677 0.676461
O O5 0.091525 0.311271 0.932688
O O6 0.067897 0.067590 0.027365
O O7 0.999055 0.098415 0.864934
O O8 0.874838 0.015896 0.796175
O O9 0.959454 0.808435 0.816327
O O10 0.221301 0.337878 0.905792
O O11 0.295007 0.286081 0.759555
O O12 0.217851 0.057768 0.832714
O O13 0.324079 0.150174 0.924958
#
# Coordination Sequence:
#
# PCOD9273428 Si02
#       7
#     8   8   8   8   4   8   8
#     4  10  22  40  66  89 127 157 202 260 316 357
#     4  10  20  37  65  94 120 157 196 257 314 367
#     4   9  19  34  64  89 122 151 205 249 313 356
#     4  11  26  42  64  85 126 171 207 250 301 361
#     4   8  18  36  56  92 122 160 180 260 318 348
#     4  11  24  43  60  91 128 164 205 250 302 381
#     4  11  23  44  63  91 123 165 211 258 303 364
#
# _framework density 21.838875000000002
#
# number of rings (size 3 to 8) (size 9 to 14) (size 15 to 20)
#    0.000    1.846    1.538    1.385    8.615    1.846 
#    2.769    0.000    0.000    0.000    0.000    0.000 
#    0.000    0.000    0.000    0.000    0.000    0.000 
#
# Total GULP energy -145127.907883 kJ/mol
# GULP energy per Si atom -5581.842611 kJ/mol
# Density = 2.178917 g / cm^3
# Si number density = 21.838875 Si / 1000 Ang^3
#
#
#
# Elastic Constant Matrix: (Units=GPa)
#
#
# Indices 1 2 3 4 5 6 
#
# 1 85.8078 37.1681 26.0912 0.0000 14.5455 0.0000
# 2 37.1681 56.8710 25.2608 0.0000 21.5814 0.0000
# 3 26.0912 25.2608 49.7455 0.0000 -0.5087 0.0000
# 4 0.0000 0.0000 0.0000 27.7140 0.0000 4.7496
# 5 14.5455 21.5814 -0.5087 0.0000 38.3756 0.0000
# 6 0.0000 0.0000 0.0000 4.7496 0.0000 41.1222
#
#
#
# Elastic Compliance Matrix: (Units=1/GPa)
#
#
# Indices 1 2 3 4 5 6 
#
# 1 0.017002 -0.008330 -0.004706 0.000000 -0.001822 0.000000
# 2 -0.008330 0.035714 -0.013942 0.000000 -0.017112 0.000000
# 3 -0.004706 -0.013942 0.029753 0.000000 0.010018 0.000000
# 4 0.000000 0.000000 0.000000 0.036812 0.000000 -0.004252
# 5 -0.001822 -0.017112 0.010018 0.000000 0.036505 0.000000
# 6 0.000000 0.000000 0.000000 -0.004252 0.000000 0.024809
#
#
# Mechanical properties :
#
#
# Convention : Reuss Voigt Hill
#
# Bulk Modulus (GPa) = 35.07131 41.05164 38.06147
# Shear Modulus (GPa) = 20.48736 28.36929 24.42832
#
# Velocity S-wave (km/s) = 3.06619 3.60811 3.34813
# Velocity P-wave (km/s) = 5.35064 6.01633 5.69322
#
# Compressibility (1/GPa) = 0.02851334
#
# Stress axis : x y z
#
# Youngs Moduli (GPa) = 58.81699 28.00048 33.61047
#
# Poissons Ratio (x) = 0.23324 0.15818
# Poissons Ratio (y) = 0.48993 0.46858
# Poissons Ratio (z) = 0.27680 0.39037
#
# Static dielectric constant tensor:
#      x y z
#    x 1.842910 0.000000 0.008860 
#    y 0.000000 1.800000 0.000000 
#    z 0.008860 0.000000 1.837920 
# 
# From -- ./inp_files/166288.got.cif
#   From: 2010.05.17/outbox.cif.g08.bks.cpg/sg15_84_cif.got.tgz:166288.got - 2010.06.03 18:47:42.
