data_PCOD9273158
_publ_section_title
;
Structure prediction by ZEFSAII (Michael W. Deem and Ramdas Pophale) SiO2 
 PCOD9273158
Probable space group: C 2/C
;
_chemical_formula_sum "Si O2"
_cell_formula_units_Z 52
_cell_length_a 22.639363
_cell_length_b 15.046452
_cell_length_c 7.737713
_cell_angle_alpha 90.000000
_cell_angle_beta 70.553222
_cell_angle_gamma 90.000000
_cell_volume 2485.421908
_symmetry_space_group_name_H-M "C 2/C"
_symmetry_group_IT_number 15
_symmetry_cell_setting 'monoclinic'
loop_
_space_group_symop_operation_xyz
x,y,z
-x,y,1/2-z
-x,-y,-z
x,-y,1/2+z
1/2+x,1/2+y,z
1/2-x,1/2+y,1/2-z
1/2-x,1/2-y,-z
1/2+x,1/2-y,1/2+z
loop_
_atom_site_type_symbol
_atom_site_label
_atom_site_fract_x
_atom_site_fract_y
_atom_site_fract_z
Si Si1 0.122234 0.562936 0.155794
Si Si2 0.396594 0.448211 0.567709
Si Si3 0.195111 0.052296 0.070451
Si Si4 0.531714 0.184226 0.409997
Si Si5 0.000000 0.559041 0.750000
Si Si6 0.020933 0.119934 0.029240
Si Si7 0.712806 0.061970 0.784108
O O1 0.097335 0.636590 0.309922
O O2 0.167670 0.495308 0.207473
O O3 0.060731 0.504339 0.166883
O O4 0.163759 0.606445 0.962813
O O5 0.344133 0.472007 0.480016
O O6 0.428514 0.545366 0.572247
O O7 0.458203 0.391450 0.474432
O O8 0.358738 0.403448 0.762304
O O9 0.235052 0.106791 0.890728
O O10 0.244576 0.006142 0.148342
O O11 0.500000 0.190114 0.250000
O O12 0.495578 0.121831 0.584534
O O13 0.541909 0.280153 0.482379
O O14 0.000000 0.103407 0.250000
#
# Coordination Sequence:
#
# PCOD9273158 Si02
#       7
#     8   8   8   8   4   8   8
#     4  11  19  38  60  89 123 156 203 259 309 376
#     4  10  20  37  63  87 122 159 206 258 317 376
#     4   9  18  34  58  94 111 153 215 259 293 372
#     4  12  25  37  58  94 128 164 207 248 324 386
#     4  12  22  40  62  90 126 166 200 262 328 370
#     4  11  23  38  58  93 127 166 198 264 333 375
#     4   9  19  32  60  91 114 154 211 256 301 363
#
# _framework density 20.922001000000002
#
# number of rings (size 3 to 8) (size 9 to 14) (size 15 to 20)
#    0.000    1.538    4.615    1.385    2.154    0.000 
#    0.000    0.000    0.000    9.231   16.000    0.000 
#    0.000    0.000    0.000    0.000    0.000    0.000 
#
# Total GULP energy -144770.536034 kJ/mol
# GULP energy per Si atom -5568.097540 kJ/mol
# Density = 2.087438 g / cm^3
# Si number density = 20.922001 Si / 1000 Ang^3
#
#
#
# Elastic Constant Matrix: (Units=GPa)
#
#
# Indices 1 2 3 4 5 6 
#
# 1 93.5922 -1.1007 18.6326 0.0000 -10.4819 0.0000
# 2 -1.1007 70.4181 23.2633 0.0000 -16.2768 0.0000
# 3 18.6326 23.2633 137.9049 0.0000 -29.9731 0.0000
# 4 0.0000 0.0000 0.0000 19.6680 0.0000 9.4595
# 5 -10.4819 -16.2768 -29.9731 0.0000 36.8867 0.0000
# 6 0.0000 0.0000 0.0000 9.4595 0.0000 2.0599
#
#
#
# Elastic Compliance Matrix: (Units=1/GPa)
#
#
# Indices 1 2 3 4 5 6 
#
# 1 0.011235 0.001193 -0.001106 0.000000 0.002820 0.000000
# 2 0.001193 0.016166 -0.001535 0.000000 0.006225 0.000000
# 3 -0.001106 -0.001535 0.009041 0.000000 0.006355 0.000000
# 4 0.000000 0.000000 0.000000 -0.042066 0.000000 0.193175
# 5 0.002820 0.006225 0.006355 0.000000 0.035822 0.000000
# 6 0.000000 0.000000 0.000000 0.193175 0.000000 -0.401645
#
#
# Mechanical properties :
#
#
# Convention : Reuss Voigt Hill
#
# Bulk Modulus (GPa) = 29.81150 42.61171 36.21160
# Shear Modulus (GPa) = -13.99112 29.13092 7.56990
#
# Velocity S-wave (km/s) = -2.58878 3.73548 1.90421
# Velocity P-wave (km/s) = 2.31173 6.24630 4.70958
#
# Compressibility (1/GPa) = 0.03354410
#
# Stress axis : x y z
#
# Youngs Moduli (GPa) = 89.00961 61.85996 110.60755
#
# Poissons Ratio (x) = -0.07379 0.12236
# Poissons Ratio (y) = -0.10618 0.16981
# Poissons Ratio (z) = 0.09847 0.09497
#
# Static dielectric constant tensor:
#      x y z
#    x 1.769550 0.000000 0.019780 
#    y 0.000000 1.711560 0.000000 
#    z 0.019780 0.000000 1.905070 
# 
# From -- ./inp_files/61434.got.cif
#   From: 2010.05.17/outbox.cif.g08.bks.cpg/sg15_31_cif.got.tgz:61434.got - 2010.06.03 18:47:42.
