data_PCOD9273352
_publ_section_title
;
Structure prediction by ZEFSAII (Michael W. Deem and Ramdas Pophale) SiO2 
 PCOD9273352
Probable space group: C 2/C
;
_chemical_formula_sum "Si O2"
_cell_formula_units_Z 40
_cell_length_a 12.473559
_cell_length_b 11.276934
_cell_length_c 12.741767
_cell_angle_alpha 90.000000
_cell_angle_beta 106.764355
_cell_angle_gamma 90.000000
_cell_volume 1716.127179
_symmetry_space_group_name_H-M "C 2/C"
_symmetry_group_IT_number 15
_symmetry_cell_setting 'monoclinic'
loop_
_space_group_symop_operation_xyz
x,y,z
-x,y,1/2-z
-x,-y,-z
x,-y,1/2+z
1/2+x,1/2+y,z
1/2-x,1/2+y,1/2-z
1/2-x,1/2-y,-z
1/2+x,1/2-y,1/2+z
loop_
_atom_site_type_symbol
_atom_site_label
_atom_site_fract_x
_atom_site_fract_y
_atom_site_fract_z
Si Si1 0.000000 0.373950 0.750000
Si Si2 0.436267 0.286943 0.550040
Si Si3 0.500000 0.462828 0.750000
Si Si4 0.107886 0.477216 0.456331
Si Si5 0.687538 0.190232 0.580628
Si Si6 0.355292 0.329915 0.308026
O O1 0.917455 0.455220 0.659201
O O2 0.932172 0.285538 0.805616
O O3 0.446987 0.377799 0.647639
O O4 0.380182 0.160737 0.559976
O O5 0.564084 0.248948 0.552982
O O6 0.366058 0.342612 0.435086
O O7 0.589851 0.552254 0.724743
O O8 0.195019 0.552123 0.548088
O O9 0.000000 0.500000 0.500000
O O10 0.750000 0.250000 0.500000
O O11 0.743921 0.197758 0.710722
#
# Coordination Sequence:
#
# PCOD9273352 Si02
#       6
#     4   8   4   8   8   8
#     4  11  17  38  64  92 129 171 208 266 330 389
#     4  11  24  46  66  95 136 176 224 276 336 398
#     4  11  25  46  62  92 137 185 216 280 340 393
#     4  10  20  37  64  95 128 164 216 267 326 390
#     4  11  21  39  69 104 127 173 225 269 330 400
#     4  11  22  40  68  93 130 179 224 268 333 401
#
# _framework density 23.308295999999999
#
# number of rings (size 3 to 8) (size 9 to 14) (size 15 to 20)
#    0.000    1.200    6.000    2.400    0.000    1.600 
#    0.000    8.000    0.000    0.000    0.000    0.000 
#    0.000    0.000    0.000    0.000    0.000    0.000 
#
# Total GULP energy -111789.435329 kJ/mol
# GULP energy per Si atom -5589.471766 kJ/mol
# Density = 2.325525 g / cm^3
# Si number density = 23.308296 Si / 1000 Ang^3
#
#
#
# Elastic Constant Matrix: (Units=GPa)
#
#
# Indices 1 2 3 4 5 6 
#
# 1 64.0024 37.2004 38.7044 0.0000 8.7582 0.0000
# 2 37.2004 147.3750 67.1737 0.0000 -3.7993 0.0000
# 3 38.7044 67.1737 212.0660 0.0000 26.5087 0.0000
# 4 0.0000 0.0000 0.0000 49.5431 0.0000 10.0471
# 5 8.7582 -3.7993 26.5087 0.0000 32.3708 0.0000
# 6 0.0000 0.0000 0.0000 10.0471 0.0000 13.9517
#
#
#
# Elastic Compliance Matrix: (Units=1/GPa)
#
#
# Indices 1 2 3 4 5 6 
#
# 1 0.019776 -0.004346 -0.001671 0.000000 -0.004492 0.000000
# 2 -0.004346 0.009221 -0.002685 0.000000 0.004457 0.000000
# 3 -0.001671 -0.002685 0.006521 0.000000 -0.005203 0.000000
# 4 0.000000 0.000000 0.000000 0.023636 0.000000 -0.017021
# 5 -0.004492 0.004457 -0.005203 0.000000 0.036892 0.000000
# 6 0.000000 0.000000 0.000000 -0.017021 0.000000 0.083934
#
#
# Mechanical properties :
#
#
# Convention : Reuss Voigt Hill
#
# Bulk Modulus (GPa) = 55.20447 78.84447 67.02447
# Shear Modulus (GPa) = 24.57953 37.86410 31.22182
#
# Velocity S-wave (km/s) = 3.25089 4.03487 3.66391
# Velocity P-wave (km/s) = 6.15036 7.45702 6.83499
#
# Compressibility (1/GPa) = 0.01811447
#
# Stress axis : x y z
#
# Youngs Moduli (GPa) = 50.56713 108.44814 153.34186
#
# Poissons Ratio (x) = 0.47130 0.25626
# Poissons Ratio (y) = 0.21976 0.41168
# Poissons Ratio (z) = 0.08451 0.29116
#
# Static dielectric constant tensor:
#      x y z
#    x 1.888250 0.000000 -0.017990 
#    y 0.000000 1.844330 0.000000 
#    z -0.017990 0.000000 1.866900 
# 
# From -- ./inp_files/94914.got.cif
#   From: 2010.05.17/outbox.cif.g08.bks.cpg/sg15_48_cif.got.tgz:94914.got - 2010.06.03 18:47:42.
