data_PCOD9273973
_publ_section_title
;
Structure prediction by ZEFSAII (Michael W. Deem and Ramdas Pophale) SiO2 
 PCOD9273973
Probable space group: C 2/C
;
_chemical_formula_sum "Si O2"
_cell_formula_units_Z 56
_cell_length_a 33.906035
_cell_length_b 7.238889
_cell_length_c 16.132964
_cell_angle_alpha 90.000000
_cell_angle_beta 40.181527
_cell_angle_gamma 90.000000
_cell_volume 2554.848293
_symmetry_space_group_name_H-M "C 2/C"
_symmetry_group_IT_number 15
_symmetry_cell_setting 'monoclinic'
loop_
_space_group_symop_operation_xyz
x,y,z
-x,y,1/2-z
-x,-y,-z
x,-y,1/2+z
1/2+x,1/2+y,z
1/2-x,1/2+y,1/2-z
1/2-x,1/2-y,-z
1/2+x,1/2-y,1/2+z
loop_
_atom_site_type_symbol
_atom_site_label
_atom_site_fract_x
_atom_site_fract_y
_atom_site_fract_z
Si Si1 0.433417 0.206604 0.827419
Si Si2 0.442522 0.353928 0.286929
Si Si3 0.473261 0.736571 0.549771
Si Si4 0.905938 0.613342 0.688862
Si Si5 0.297628 0.997179 0.257343
Si Si6 0.674984 0.685267 0.421795
Si Si7 0.123327 0.831783 0.420384
O O1 0.500000 0.138912 0.750000
O O2 0.438371 0.425028 0.801284
O O3 0.409860 0.111480 0.781989
O O4 0.390072 0.210060 0.976146
O O5 0.500000 0.292365 0.250000
O O6 0.454897 0.315537 0.171567
O O7 0.380154 0.272043 0.426137
O O8 0.545624 0.731891 0.417928
O O9 0.439227 0.638328 0.528838
O O10 0.441226 0.937846 0.593850
O O11 0.837638 0.610765 0.762543
O O12 0.302665 0.863115 0.167624
O O13 0.228023 0.063354 0.381095
O O14 0.329831 0.198447 0.200971
O O15 0.648301 0.532723 0.401343
#
# Coordination Sequence:
#
# PCOD9273973 Si02
#       7
#     8   8   8   8   8   8   8
#     4  10  20  38  60  92 130 167 209 265 323 380
#     4  10  23  39  61  98 126 164 217 269 328 385
#     4  10  21  39  61  95 129 164 216 272 322 384
#     4  10  22  37  62  97 126 168 221 260 326 389
#     4  11  23  42  65  93 126 176 217 264 317 393
#     4  11  23  43  66  93 128 173 218 261 327 385
#     4  10  22  41  64  93 129 169 218 262 325 385
#
# _framework density 21.91911
#
# number of rings (size 3 to 8) (size 9 to 14) (size 15 to 20)
#    0.000    1.714    2.857    0.857    4.000    1.143 
#    0.000    7.143    0.000    0.000    0.000    0.000 
#    0.000    0.000    0.000    0.000    0.000    0.000 
#
# Total GULP energy -156171.371518 kJ/mol
# GULP energy per Si atom -5577.548983 kJ/mol
# Density = 2.186922 g / cm^3
# Si number density = 21.919110 Si / 1000 Ang^3
#
#
#
# Elastic Constant Matrix: (Units=GPa)
#
#
# Indices 1 2 3 4 5 6 
#
# 1 145.5982 5.2804 54.7454 0.0190 -12.1387 -0.0224
# 2 5.2804 58.3552 2.1887 -0.0521 -7.0565 0.0626
# 3 54.7454 2.1887 90.5814 -0.0089 -11.3278 0.0105
# 4 0.0190 -0.0521 -0.0089 373.2267 -0.0045 -387.9198
# 5 -12.1387 -7.0565 -11.3278 -0.0045 30.3067 0.0057
# 6 -0.0224 0.0626 0.0105 -387.9198 0.0057 457.9432
#
#
#
# Elastic Compliance Matrix: (Units=1/GPa)
#
#
# Indices 1 2 3 4 5 6 
#
# 1 0.008976 -0.000430 -0.005221 0.000000 0.001543 0.000001
# 2 -0.000430 0.017654 0.000342 0.000000 0.004066 -0.000003
# 3 -0.005221 0.000342 0.014619 0.000000 0.003452 -0.000001
# 4 0.000000 0.000000 0.000000 0.022410 0.000000 0.018983
# 5 0.001543 0.004066 0.003452 0.000000 0.035851 -0.000001
# 6 0.000001 -0.000003 -0.000001 0.018983 -0.000001 0.018264
#
#
# Mechanical properties :
#
#
# Convention : Reuss Voigt Hill
#
# Bulk Modulus (GPa) = 32.64773 46.55156 39.59964
# Shear Modulus (GPa) = 36.07421 187.78333 111.92877
#
# Velocity S-wave (km/s) = 4.06123 9.26591 7.15369
# Velocity P-wave (km/s) = 6.07606 11.65161 9.29189
#
# Compressibility (1/GPa) = 0.03063000
#
# Stress axis : x y z
#
# Youngs Moduli (GPa) = 111.41180 56.64375 68.40444
#
# Poissons Ratio (x) = 0.02434 0.35716
# Poissons Ratio (y) = 0.04788 -0.02337
# Poissons Ratio (z) = 0.58172 -0.01935
#
# Static dielectric constant tensor:
#      x y z
#    x 1.868470 0.000000 -0.029070 
#    y 0.000000 1.891140 0.000000 
#    z -0.029070 0.000000 1.802430 
# 
# From -- ./inp_files/180767.got.cif
#   From: 2010.05.17/outbox.cif.g08.bks.cpg/sg15_91_cif.got.tgz:180767.got - 2010.06.03 18:47:42.
