data_PCOD9273683
_publ_section_title
;
Structure prediction by ZEFSAII (Michael W. Deem and Ramdas Pophale) SiO2 
 PCOD9273683
Probable space group: C 2/C
;
_chemical_formula_sum "Si O2"
_cell_formula_units_Z 48
_cell_length_a 19.647181
_cell_length_b 5.000190
_cell_length_c 19.729339
_cell_angle_alpha 90.000000
_cell_angle_beta 111.249419
_cell_angle_gamma 90.000000
_cell_volume 1806.427684
_symmetry_space_group_name_H-M "C 2/C"
_symmetry_group_IT_number 15
_symmetry_cell_setting 'monoclinic'
loop_
_space_group_symop_operation_xyz
x,y,z
-x,y,1/2-z
-x,-y,-z
x,-y,1/2+z
1/2+x,1/2+y,z
1/2-x,1/2+y,1/2-z
1/2-x,1/2-y,-z
1/2+x,1/2-y,1/2+z
loop_
_atom_site_type_symbol
_atom_site_label
_atom_site_fract_x
_atom_site_fract_y
_atom_site_fract_z
Si Si1 0.084322 0.870928 0.730433
Si Si2 0.692473 0.550512 0.887330
Si Si3 0.281735 0.235559 0.799742
Si Si4 0.861724 0.446024 0.059300
Si Si5 0.053172 0.256067 0.532706
Si Si6 0.480298 0.865373 0.834316
O O1 0.137294 0.839230 0.684526
O O2 0.060493 0.565281 0.731122
O O3 0.132168 0.010777 0.805532
O O4 0.016226 0.060692 0.689218
O O5 0.761118 0.651393 0.868256
O O6 0.689609 0.258603 0.918804
O O7 0.672201 0.762793 0.938317
O O8 0.232184 0.481619 0.754677
O O9 0.943679 0.497746 0.118396
O O10 0.879688 0.303817 0.994018
O O11 0.069014 0.313481 0.616810
O O12 0.000000 0.500000 0.500000
O O13 0.000000 0.000000 0.500000
#
# Coordination Sequence:
#
# PCOD9273683 Si02
#       6
#     8   8   8   8   8   8
#     4  11  22  36  57  84 115 150 187 236 292 347
#     4  11  22  36  57  84 115 150 187 236 292 347
#     4  10  20  38  58  79 112 157 204 234 276 358
#     4  11  22  36  57  84 115 150 187 236 292 346
#     4  10  20  38  58  79 112 157 204 234 273 354
#     4  11  22  36  57  84 115 150 187 236 292 346
#
# _framework density 26.571783
#
# number of rings (size 3 to 8) (size 9 to 14) (size 15 to 20)
#    0.000    1.333    0.000   10.000    0.000    4.000 
#    0.000    0.000    0.000    6.000    0.000    0.000 
#    0.000    0.000    0.000    0.000    0.000    0.000 
#
# Total GULP energy -134108.445346 kJ/mol
# GULP energy per Si atom -5587.851889 kJ/mol
# Density = 2.651130 g / cm^3
# Si number density = 26.571783 Si / 1000 Ang^3
#
#
#
# Elastic Constant Matrix: (Units=GPa)
#
#
# Indices 1 2 3 4 5 6 
#
# 1 132.4180 23.9439 41.8781 -0.0001 -31.7271 0.0001
# 2 23.9439 213.4605 31.1607 -0.0005 11.6066 0.0009
# 3 41.8781 31.1607 90.6638 -0.0001 -34.1528 0.0002
# 4 -0.0001 -0.0005 -0.0001 19.7874 0.0000 -12.2753
# 5 -31.7271 11.6066 -34.1528 0.0000 34.1916 0.0000
# 6 0.0001 0.0009 0.0002 -12.2753 0.0000 27.5216
#
#
#
# Elastic Compliance Matrix: (Units=1/GPa)
#
#
# Indices 1 2 3 4 5 6 
#
# 1 0.010307 -0.001571 -0.000669 0.000000 0.009429 0.000000
# 2 -0.001571 0.005883 -0.004165 0.000000 -0.007615 0.000000
# 3 -0.000669 -0.004165 0.020953 0.000000 0.021722 0.000000
# 4 0.000000 0.000000 0.000000 0.069870 0.000000 0.031164
# 5 0.009429 -0.007615 0.021722 0.000000 0.062279 0.000000
# 6 0.000000 0.000000 0.000000 0.031164 0.000000 0.050235
#
#
# Mechanical properties :
#
#
# Convention : Reuss Voigt Hill
#
# Bulk Modulus (GPa) = 41.09646 70.05638 55.57642
# Shear Modulus (GPa) = 20.79464 38.93741 29.86603
#
# Velocity S-wave (km/s) = 2.80050 3.83216 3.35621
# Velocity P-wave (km/s) = 5.09479 6.78254 5.99832
#
# Compressibility (1/GPa) = 0.02433300
#
# Stress axis : x y z
#
# Youngs Moduli (GPa) = 97.02492 169.98233 47.72626
#
# Poissons Ratio (x) = 0.26707 0.03192
# Poissons Ratio (y) = 0.15244 0.19877
# Poissons Ratio (z) = 0.06489 0.70794
#
# Static dielectric constant tensor:
#      x y z
#    x 2.806890 0.000000 -0.050270 
#    y 0.000000 1.980570 0.000000 
#    z -0.050270 0.000000 2.175530 
# 
# From -- ./inp_files/250849.got.cif
#   From: 2010.05.17/outbox.cif.g08.bks.cpg/sg15_126_cif.got.tgz:250849.got - 2010.06.03 18:47:42.
