data_PCOD9273556
_publ_section_title
;
Structure prediction by ZEFSAII (Michael W. Deem and Ramdas Pophale) SiO2 
 PCOD9273556
Probable space group: C 2/C
;
_chemical_formula_sum "Si O2"
_cell_formula_units_Z 36
_cell_length_a 7.812314
_cell_length_b 22.328039
_cell_length_c 14.903128
_cell_angle_alpha 90.000000
_cell_angle_beta 144.034032
_cell_angle_gamma 90.000000
_cell_volume 1526.761215
_symmetry_space_group_name_H-M "C 2/C"
_symmetry_group_IT_number 15
_symmetry_cell_setting 'monoclinic'
loop_
_space_group_symop_operation_xyz
x,y,z
-x,y,1/2-z
-x,-y,-z
x,-y,1/2+z
1/2+x,1/2+y,z
1/2-x,1/2+y,1/2-z
1/2-x,1/2-y,-z
1/2+x,1/2-y,1/2+z
loop_
_atom_site_type_symbol
_atom_site_label
_atom_site_fract_x
_atom_site_fract_y
_atom_site_fract_z
Si Si1 0.837695 0.036770 0.009509
Si Si2 0.000000 0.367113 0.250000
Si Si3 0.287878 0.785687 0.314345
Si Si4 0.568684 0.931318 0.672143
Si Si5 0.500977 0.800343 0.917866
O O1 0.689342 0.091692 0.895662
O O2 0.594044 0.989362 0.936620
O O3 0.083336 0.058564 0.182436
O O4 0.000000 0.000000 0.000000
O O5 0.816105 0.326444 0.239383
O O6 0.544619 0.791103 0.495594
O O7 0.000000 0.803532 0.250000
O O8 0.245458 0.719397 0.257223
O O9 0.500000 0.926864 0.750000
O O10 0.452001 0.870299 0.578901
O O11 0.750000 0.750000 0.000000
#
# Coordination Sequence:
#
# PCOD9273556 Si02
#       5
#     8   4   8   8   8
#     4  10  21  38  69 103 137 201 232 295 366 430
#     4  12  24  44  72 104 146 186 244 300 364 428
#     4  10  25  42  71 102 144 186 242 293 366 430
#     4  10  20  37  69  98 145 186 247 286 365 428
#     4  10  22  42  67 105 140 195 238 295 363 436
#
# _framework density 23.579326999999999
#
# number of rings (size 3 to 8) (size 9 to 14) (size 15 to 20)
#    0.000    1.778    3.333    2.000   15.556    0.889 
#    0.000    1.111    4.889    0.000    0.000    0.000 
#    0.000    0.000    0.000    0.000    0.000    0.000 
#
# Total GULP energy -100490.273076 kJ/mol
# GULP energy per Si atom -5582.792949 kJ/mol
# Density = 2.352566 g / cm^3
# Si number density = 23.579327 Si / 1000 Ang^3
#
#
#
# Elastic Constant Matrix: (Units=GPa)
#
#
# Indices 1 2 3 4 5 6 
#
# 1 82.6988 47.9592 48.1352 0.0000 -13.9405 0.0000
# 2 47.9592 112.4810 44.3964 0.0000 -14.0338 0.0000
# 3 48.1352 44.3964 111.7652 0.0000 -2.8797 0.0000
# 4 0.0000 0.0000 0.0000 51.7036 0.0000 -1.5822
# 5 -13.9405 -14.0338 -2.8797 0.0000 34.7381 0.0000
# 6 0.0000 0.0000 0.0000 -1.5822 0.0000 13.8932
#
#
#
# Elastic Compliance Matrix: (Units=1/GPa)
#
#
# Indices 1 2 3 4 5 6 
#
# 1 0.019663 -0.005266 -0.006242 0.000000 0.005246 0.000000
# 2 -0.005266 0.012515 -0.002633 0.000000 0.002724 0.000000
# 3 -0.006242 -0.002633 0.012616 0.000000 -0.002523 0.000000
# 4 0.000000 0.000000 0.000000 0.019409 0.000000 0.002210
# 5 0.005246 0.002724 -0.002523 0.000000 0.031784 0.000000
# 6 0.000000 0.000000 0.000000 0.002210 0.000000 0.072229
#
#
# Mechanical properties :
#
#
# Convention : Reuss Voigt Hill
#
# Bulk Modulus (GPa) = 60.55757 65.32517 62.94137
# Shear Modulus (GPa) = 24.75225 31.16391 27.95808
#
# Velocity S-wave (km/s) = 3.24349 3.63941 3.44714
# Velocity P-wave (km/s) = 6.30597 6.73981 6.52649
#
# Compressibility (1/GPa) = 0.01651321
#
# Stress axis : x y z
#
# Youngs Moduli (GPa) = 50.85657 79.90519 79.26136
#
# Poissons Ratio (x) = 0.42076 0.49472
# Poissons Ratio (y) = 0.26780 0.20871
# Poissons Ratio (z) = 0.31743 0.21041
#
# Static dielectric constant tensor:
#      x y z
#    x 1.965250 0.000000 0.097590 
#    y 0.000000 1.206460 0.000000 
#    z 0.097590 0.000000 2.090430 
# 
# From -- ./inp_files/136540.got.cif
#   From: 2010.05.17/outbox.cif.g08.bks.cpg/sg15_69_cif.got.tgz:136540.got - 2010.06.03 18:47:42.
