data_PCOD9273599
_publ_section_title
;
Structure prediction by ZEFSAII (Michael W. Deem and Ramdas Pophale) SiO2 
 PCOD9273599
Probable space group: C 2/C
;
_chemical_formula_sum "Si O2"
_cell_formula_units_Z 52
_cell_length_a 5.003367
_cell_length_b 23.492660
_cell_length_c 19.213105
_cell_angle_alpha 90.000000
_cell_angle_beta 99.014903
_cell_angle_gamma 90.000000
_cell_volume 2230.458411
_symmetry_space_group_name_H-M "C 2/C"
_symmetry_group_IT_number 15
_symmetry_cell_setting 'monoclinic'
loop_
_space_group_symop_operation_xyz
x,y,z
-x,y,1/2-z
-x,-y,-z
x,-y,1/2+z
1/2+x,1/2+y,z
1/2-x,1/2+y,1/2-z
1/2-x,1/2-y,-z
1/2+x,1/2-y,1/2+z
loop_
_atom_site_type_symbol
_atom_site_label
_atom_site_fract_x
_atom_site_fract_y
_atom_site_fract_z
Si Si1 0.723846 0.965064 0.707051
Si Si2 0.809303 0.846830 0.644806
Si Si3 0.182858 0.750055 0.616616
Si Si4 0.191105 0.479774 0.412930
Si Si5 0.785289 0.075225 0.523760
Si Si6 0.044545 0.312401 0.991389
Si Si7 0.000000 0.270241 0.750000
O O1 0.500000 0.939013 0.750000
O O2 0.838062 0.911313 0.669268
O O3 0.000000 0.991476 0.750000
O O4 0.521439 0.005841 0.656242
O O5 0.662048 0.847403 0.564346
O O6 0.663333 0.810053 0.700918
O O7 0.073871 0.810840 0.638101
O O8 0.970824 0.712223 0.564380
O O9 0.386015 0.763230 0.561677
O O10 0.320005 0.729773 0.692650
O O11 0.290266 0.538989 0.452496
O O12 0.470372 0.445594 0.416981
O O13 0.003779 0.443194 0.456823
O O14 0.784212 0.142436 0.513466
#
# Coordination Sequence:
#
# PCOD9273599 Si02
#       7
#     8   8   8   8   8   8   4
#     4  12  24  38  64  96 132 172 217 274 344 407
#     4  11  21  36  60  91 130 166 215 274 336 397
#     4  10  22  37  61  89 129 168 210 277 321 401
#     4  10  22  39  61  92 120 168 208 269 324 386
#     4  10  21  39  64  87 126 160 214 268 323 385
#     4  10  22  38  60  94 123 167 223 269 332 386
#     4  10  20  38  54  88 122 164 214 256 332 400
#
# _framework density 23.313593000000001
#
# number of rings (size 3 to 8) (size 9 to 14) (size 15 to 20)
#    0.000    1.538    2.308    2.769    4.308    1.231 
#    0.000    0.000    5.077    0.000    0.000    0.000 
#    0.000    0.000    0.000    0.000    0.000    0.000 
#
# Total GULP energy -144875.085563 kJ/mol
# GULP energy per Si atom -5572.118676 kJ/mol
# Density = 2.326053 g / cm^3
# Si number density = 23.313593 Si / 1000 Ang^3
#
#
#
# Elastic Constant Matrix: (Units=GPa)
#
#
# Indices 1 2 3 4 5 6 
#
# 1 96.1339 20.2737 39.4777 0.0000 14.8216 0.0000
# 2 20.2737 62.2551 29.8747 0.0000 5.4008 0.0000
# 3 39.4777 29.8747 161.1753 0.0000 35.2144 0.0000
# 4 0.0000 0.0000 0.0000 19.7821 0.0000 7.8122
# 5 14.8216 5.4008 35.2144 0.0000 40.4123 0.0000
# 6 0.0000 0.0000 0.0000 7.8122 0.0000 7.0561
#
#
#
# Elastic Compliance Matrix: (Units=1/GPa)
#
#
# Indices 1 2 3 4 5 6 
#
# 1 0.012161 -0.002826 -0.001930 0.000000 -0.002400 0.000000
# 2 -0.002826 0.018300 -0.002954 0.000000 0.001165 0.000000
# 3 -0.001930 -0.002954 0.008626 0.000000 -0.006414 0.000000
# 4 0.000000 0.000000 0.000000 0.089826 0.000000 -0.099451
# 5 -0.002400 0.001165 -0.006414 0.000000 0.031059 0.000000
# 6 0.000000 0.000000 0.000000 -0.099451 0.000000 0.251829
#
#
# Mechanical properties :
#
#
# Convention : Reuss Voigt Hill
#
# Bulk Modulus (GPa) = 42.25495 55.42406 48.83950
# Shear Modulus (GPa) = 11.49136 28.77930 20.13533
#
# Velocity S-wave (km/s) = 2.22255 3.51728 2.94202
# Velocity P-wave (km/s) = 4.97496 6.34979 5.70395
#
# Compressibility (1/GPa) = 0.02366587
#
# Stress axis : x y z
#
# Youngs Moduli (GPa) = 82.23086 54.64540 115.92571
#
# Poissons Ratio (x) = 0.15441 0.22379
# Poissons Ratio (y) = 0.23235 0.34249
# Poissons Ratio (z) = 0.15874 0.16145
#
# Static dielectric constant tensor:
#      x y z
#    x 1.996180 0.000000 0.066260 
#    y 0.000000 1.970370 0.000000 
#    z 0.066260 0.000000 2.033590 
# 
# From -- ./inp_files/185925.got.cif
#   From: 2010.05.17/outbox.cif.g08.bks.cpg/sg15_93_cif.got.tgz:185925.got - 2010.06.03 18:47:42.
