data_PCOD9273277
_publ_section_title
;
Structure prediction by ZEFSAII (Michael W. Deem and Ramdas Pophale) SiO2 
 PCOD9273277
Probable space group: C 2/C
;
_chemical_formula_sum "Si O2"
_cell_formula_units_Z 52
_cell_length_a 20.647108
_cell_length_b 5.950238
_cell_length_c 27.048570
_cell_angle_alpha 90.000000
_cell_angle_beta 144.225410
_cell_angle_gamma 90.000000
_cell_volume 1942.652595
_symmetry_space_group_name_H-M "C 2/C"
_symmetry_group_IT_number 15
_symmetry_cell_setting 'monoclinic'
loop_
_space_group_symop_operation_xyz
x,y,z
-x,y,1/2-z
-x,-y,-z
x,-y,1/2+z
1/2+x,1/2+y,z
1/2-x,1/2+y,1/2-z
1/2-x,1/2-y,-z
1/2+x,1/2-y,1/2+z
loop_
_atom_site_type_symbol
_atom_site_label
_atom_site_fract_x
_atom_site_fract_y
_atom_site_fract_z
Si Si1 0.079830 0.832638 0.649253
Si Si2 0.870860 0.632873 0.104245
Si Si3 0.103590 0.752810 0.549457
Si Si4 0.000000 0.279285 0.250000
Si Si5 0.802609 0.992102 0.638744
Si Si6 0.333101 0.396476 0.494650
Si Si7 0.443107 0.165887 0.362560
O O1 0.952560 0.835413 0.588774
O O2 0.118025 0.573850 0.685523
O O3 0.074668 0.827517 0.586150
O O4 0.119155 0.093089 0.683314
O O5 0.747055 0.536667 0.019364
O O6 0.949981 0.681727 0.107371
O O7 0.931995 0.434713 0.171558
O O8 0.856866 0.824724 0.136574
O O9 0.211279 0.592581 0.618544
O O10 0.999925 0.658787 0.452718
O O11 0.148065 0.955225 0.542717
O O12 0.090681 0.138519 0.275135
O O13 0.729591 0.823236 0.561363
#
# Coordination Sequence:
#
# PCOD9273277 Si02
#       7
#     8   8   8   4   8   8   8
#     4  11  23  37  59  93 139 172 197 239 301 388
#     4  10  23  38  58  93 119 163 212 263 320 366
#     4  10  21  37  58  95 131 168 200 243 308 387
#     4  10  22  42  62  86 112 154 220 272 320 366
#     4  10  20  37  64  87 117 162 203 263 310 372
#     4   9  19  34  56  88 125 167 197 242 305 374
#     4  11  23  37  60  94 134 168 201 250 309 384
#
# _framework density 26.767523000000001
#
# number of rings (size 3 to 8) (size 9 to 14) (size 15 to 20)
#    0.000    1.846    1.538    2.769    6.462    6.154 
#    0.000    0.000    0.000    0.000   16.000    0.000 
#    0.000    0.000    0.000    0.000    0.000    0.000 
#
# Total GULP energy -145470.438865 kJ/mol
# GULP energy per Si atom -5595.016879 kJ/mol
# Density = 2.670660 g / cm^3
# Si number density = 26.767523 Si / 1000 Ang^3
#
#
#
# Elastic Constant Matrix: (Units=GPa)
#
#
# Indices 1 2 3 4 5 6 
#
# 1 112.6477 38.3793 24.1733 0.0053 -0.7545 -0.0116
# 2 38.3793 201.6569 25.9140 0.0083 8.2494 -0.0222
# 3 24.1733 25.9140 48.1519 0.0003 10.6595 -0.0017
# 4 0.0053 0.0083 0.0003 10.6660 0.0011 0.4298
# 5 -0.7545 8.2494 10.6595 0.0011 32.9240 -0.0003
# 6 -0.0116 -0.0222 -0.0017 0.4298 -0.0003 44.4236
#
#
#
# Elastic Compliance Matrix: (Units=1/GPa)
#
#
# Indices 1 2 3 4 5 6 
#
# 1 0.010447 -0.001441 -0.004957 -0.000004 0.002205 0.000002
# 2 -0.001441 0.005532 -0.002089 -0.000004 -0.000743 0.000002
# 3 -0.004957 -0.002089 0.026165 0.000004 -0.008061 -0.000001
# 4 -0.000004 -0.000004 0.000004 0.093792 -0.000004 -0.000907
# 5 0.002205 -0.000743 -0.008061 -0.000004 0.033220 0.000000
# 6 0.000002 0.000002 -0.000001 -0.000907 0.000000 0.022519
#
#
# Mechanical properties :
#
#
# Convention : Reuss Voigt Hill
#
# Bulk Modulus (GPa) = 39.73182 59.93220 49.83201
# Shear Modulus (GPa) = 23.03723 35.86872 29.45297
#
# Velocity S-wave (km/s) = 2.93685 3.66458 3.32071
# Velocity P-wave (km/s) = 5.13572 6.35170 5.77580
#
# Compressibility (1/GPa) = 0.02516874
#
# Stress axis : x y z
#
# Youngs Moduli (GPa) = 95.72268 180.76285 38.21892
#
# Poissons Ratio (x) = 0.26056 0.18945
# Poissons Ratio (y) = 0.13798 0.07985
# Poissons Ratio (z) = 0.47450 0.37764
#
# Static dielectric constant tensor:
#      x y z
#    x 2.070020 0.000000 -0.005430 
#    y 0.000000 2.250300 0.000000 
#    z -0.005430 0.000000 2.072930 
# 
# From -- ./inp_files/300146.got.cif
#   From: 2010.05.17/outbox.cif.g08.bks.cpg/sg15_151_cif.got.tgz:300146.got - 2010.06.03 18:47:42.
