data_PCOD9273306
_publ_section_title
;
Structure prediction by ZEFSAII (Michael W. Deem and Ramdas Pophale) SiO2 
 PCOD9273306
Probable space group: C 2/C
;
_chemical_formula_sum "Si O2"
_cell_formula_units_Z 56
_cell_length_a 13.012310
_cell_length_b 13.393285
_cell_length_c 14.304755
_cell_angle_alpha 90.000000
_cell_angle_beta 93.736528
_cell_angle_gamma 90.000000
_cell_volume 2487.698601
_symmetry_space_group_name_H-M "C 2/C"
_symmetry_group_IT_number 15
_symmetry_cell_setting 'monoclinic'
loop_
_space_group_symop_operation_xyz
x,y,z
-x,y,1/2-z
-x,-y,-z
x,-y,1/2+z
1/2+x,1/2+y,z
1/2-x,1/2+y,1/2-z
1/2-x,1/2-y,-z
1/2+x,1/2-y,1/2+z
loop_
_atom_site_type_symbol
_atom_site_label
_atom_site_fract_x
_atom_site_fract_y
_atom_site_fract_z
Si Si1 0.262683 0.593616 0.573685
Si Si2 0.719698 0.237136 0.745073
Si Si3 0.018345 0.043850 0.862914
Si Si4 0.826579 0.081353 0.380058
Si Si5 0.941245 0.741485 0.345496
Si Si6 0.567853 0.024133 0.116417
Si Si7 0.865953 0.449965 0.177239
O O1 0.251570 0.674877 0.654312
O O2 0.362361 0.527974 0.607916
O O3 0.288203 0.633412 0.472571
O O4 0.158887 0.529135 0.566458
O O5 0.678373 0.342285 0.706160
O O6 0.821422 0.247535 0.813267
O O7 0.641168 0.165416 0.794433
O O8 0.000000 0.041909 0.750000
O O9 0.986537 0.156735 0.890484
O O10 0.939212 0.964490 0.899414
O O11 0.745205 0.991500 0.359106
O O12 0.951977 0.640183 0.404088
O O13 0.000000 0.726795 0.250000
O O14 0.458351 0.968932 0.111248
O O15 0.607142 0.012041 0.226815
#
# Coordination Sequence:
#
# PCOD9273306 Si02
#       7
#     8   8   8   8   8   8   8
#     4  11  24  40  61  94 135 167 201 256 328 382
#     4  11  21  39  64  92 118 164 219 258 306 374
#     4  11  22  41  65  92 120 169 219 255 300 382
#     4  12  23  40  65  94 132 164 202 272 325 366
#     4  11  17  35  68  87 111 162 223 251 289 369
#     4  10  20  39  62  90 120 164 211 255 305 375
#     4  10  20  37  64  91 120 160 219 263 300 366
#
# _framework density 22.510764000000002
#
# number of rings (size 3 to 8) (size 9 to 14) (size 15 to 20)
#    0.000    1.143    7.143    1.714    0.000    0.571 
#    5.143    0.714    0.000    0.000    0.000    0.000 
#    0.000    0.000    0.000    0.000    0.000    0.000 
#
# Total GULP energy -156590.163374 kJ/mol
# GULP energy per Si atom -5592.505835 kJ/mol
# Density = 2.245953 g / cm^3
# Si number density = 22.510764 Si / 1000 Ang^3
#
#
#
# Elastic Constant Matrix: (Units=GPa)
#
#
# Indices 1 2 3 4 5 6 
#
# 1 136.3051 63.3432 22.3384 0.0000 -6.3023 0.0000
# 2 63.3432 111.9656 16.2829 0.0000 -25.4557 0.0000
# 3 22.3384 16.2829 45.9134 0.0000 2.3768 0.0000
# 4 0.0000 0.0000 0.0000 17.8907 0.0000 -2.0768
# 5 -6.3023 -25.4557 2.3768 0.0000 21.6162 0.0000
# 6 0.0000 0.0000 0.0000 -2.0768 0.0000 23.4936
#
#
#
# Elastic Compliance Matrix: (Units=1/GPa)
#
#
# Indices 1 2 3 4 5 6 
#
# 1 0.010651 -0.006662 -0.002589 0.000000 -0.004455 0.000000
# 2 -0.006662 0.017678 -0.004028 0.000000 0.019319 0.000000
# 3 -0.002589 -0.004028 0.024895 0.000000 -0.008236 0.000000
# 4 0.000000 0.000000 0.000000 0.056475 0.000000 0.004992
# 5 -0.004455 0.019319 -0.008236 0.000000 0.068619 0.000000
# 6 0.000000 0.000000 0.000000 0.004992 0.000000 0.043006
#
#
# Mechanical properties :
#
#
# Convention : Reuss Voigt Hill
#
# Bulk Modulus (GPa) = 37.50137 55.34590 46.42364
# Shear Modulus (GPa) = 19.47273 25.41474 22.44373
#
# Velocity S-wave (km/s) = 2.94435 3.36371 3.16099
# Velocity P-wave (km/s) = 5.31549 6.30284 5.83010
#
# Compressibility (1/GPa) = 0.02666569
#
# Stress axis : x y z
#
# Youngs Moduli (GPa) = 93.89107 56.56650 40.16940
#
# Poissons Ratio (x) = 0.37684 0.10398
# Poissons Ratio (y) = 0.62550 0.16181
# Poissons Ratio (z) = 0.24305 0.22787
#
# Static dielectric constant tensor:
#      x y z
#    x 1.813920 0.000000 -0.001740 
#    y 0.000000 1.815400 0.000000 
#    z -0.001740 0.000000 1.871460 
# 
# From -- ./inp_files/144229.got.cif
#   From: 2010.05.17/outbox.cif.g08.bks.cpg/sg15_73_cif.got.tgz:144229.got - 2010.06.03 18:47:42.
