data_PCOD9273313
_publ_section_title
;
Structure prediction by ZEFSAII (Michael W. Deem and Ramdas Pophale) SiO2 
 PCOD9273313
Probable space group: C 2/C
;
_chemical_formula_sum "Si O2"
_cell_formula_units_Z 60
_cell_length_a 12.027948
_cell_length_b 20.796548
_cell_length_c 24.178873
_cell_angle_alpha 90.000000
_cell_angle_beta 149.807494
_cell_angle_gamma 90.000000
_cell_volume 3041.630418
_symmetry_space_group_name_H-M "C 2/C"
_symmetry_group_IT_number 15
_symmetry_cell_setting 'monoclinic'
loop_
_space_group_symop_operation_xyz
x,y,z
-x,y,1/2-z
-x,-y,-z
x,-y,1/2+z
1/2+x,1/2+y,z
1/2-x,1/2+y,1/2-z
1/2-x,1/2-y,-z
1/2+x,1/2-y,1/2+z
loop_
_atom_site_type_symbol
_atom_site_label
_atom_site_fract_x
_atom_site_fract_y
_atom_site_fract_z
Si Si1 0.684557 0.636341 0.375661
Si Si2 0.633655 0.191061 0.585481
Si Si3 0.850583 0.568853 0.100965
Si Si4 0.394845 0.703726 0.343175
Si Si5 0.336420 0.498311 0.578018
Si Si6 0.000000 0.914951 0.250000
Si Si7 0.329807 0.565990 0.362095
Si Si8 0.125815 0.717825 0.396053
O O1 0.500000 0.623294 0.250000
O O2 0.555271 0.682702 0.362829
O O3 0.744468 0.568129 0.429622
O O4 0.917848 0.667745 0.458856
O O5 0.542993 0.231239 0.598554
O O6 0.789489 0.240730 0.619470
O O7 0.788278 0.131283 0.668447
O O8 0.696740 0.546055 0.085690
O O9 0.801252 0.644163 0.074717
O O10 0.093836 0.561934 0.230473
O O11 0.835106 0.536596 0.034268
O O12 0.396056 0.641258 0.384108
O O13 0.140398 0.715503 0.215111
O O14 0.440679 0.541971 0.671069
O O15 0.512605 0.476566 0.607707
O O16 0.250000 0.750000 0.500000
#
# Coordination Sequence:
#
# PCOD9273313 Si02
#       8
#     8   8   8   8   8   4   8   8
#     4  11  25  44  64  90 131 178 213 261 321 395
#     4  12  23  41  67  94 128 165 216 271 323 377
#     4  10  20  37  64  92 116 166 208 270 315 376
#     4  10  20  41  64  92 124 165 212 260 327 379
#     4  11  24  41  59  92 130 169 217 254 321 382
#     4  12  26  40  64  96 132 170 212 272 310 388
#     4   9  20  39  66  86 124 162 212 263 318 378
#     4  11  20  36  63  96 126 159 213 265 322 381
#
# _framework density 19.726261999999998
#
# number of rings (size 3 to 8) (size 9 to 14) (size 15 to 20)
#    0.000    1.333    3.333    2.400    1.867    2.667 
#    0.000    0.000    0.000    0.000    0.000    0.000 
#    0.000    0.000    0.000    0.000    0.000    0.000 
#
# Total GULP energy -167409.249130 kJ/mol
# GULP energy per Si atom -5580.308304 kJ/mol
# Density = 1.968136 g / cm^3
# Si number density = 19.726262 Si / 1000 Ang^3
#
#
#
# Elastic Constant Matrix: (Units=GPa)
#
#
# Indices 1 2 3 4 5 6 
#
# 1 41.4241 27.8189 24.6441 0.0089 -6.9030 -0.0160
# 2 27.8189 94.7616 42.1272 0.0064 -4.2763 -0.0099
# 3 24.6441 42.1272 88.9530 -0.0028 -12.2902 0.0064
# 4 0.0089 0.0064 -0.0028 139.9069 -0.0341 -185.0201
# 5 -6.9030 -4.2763 -12.2902 -0.0341 36.1981 0.0517
# 6 -0.0160 -0.0099 0.0064 -185.0201 0.0517 271.4718
#
#
#
# Elastic Compliance Matrix: (Units=1/GPa)
#
#
# Indices 1 2 3 4 5 6 
#
# 1 0.032589 -0.007109 -0.005161 0.000005 0.003622 0.000004
# 2 -0.007109 0.014930 -0.005293 0.000000 -0.001389 0.000001
# 3 -0.005161 -0.005293 0.015692 -0.000003 0.003718 -0.000004
# 4 0.000005 0.000000 -0.000003 0.072424 -0.000002 0.049360
# 5 0.003622 -0.001389 0.003718 -0.000002 0.029415 -0.000007
# 6 0.000004 0.000001 -0.000004 0.049360 -0.000007 0.037325
#
#
# Mechanical properties :
#
#
# Convention : Reuss Voigt Hill
#
# Bulk Modulus (GPa) = 35.60700 46.03545 40.82122
# Shear Modulus (GPa) = 20.25406 98.21860 59.23633
#
# Velocity S-wave (km/s) = 3.20778 7.06391 5.48583
# Velocity P-wave (km/s) = 5.63999 9.48260 7.80158
#
# Compressibility (1/GPa) = 0.02808437
#
# Stress axis : x y z
#
# Youngs Moduli (GPa) = 30.68520 66.97828 63.72518
#
# Poissons Ratio (x) = 0.47615 0.32891
# Poissons Ratio (y) = 0.21814 0.33731
# Poissons Ratio (z) = 0.15838 0.35453
#
# Static dielectric constant tensor:
#      x y z
#    x 1.736220 0.000000 -0.016520 
#    y 0.000000 1.854230 0.000000 
#    z -0.016520 0.000000 1.709820 
# 
# From -- ./inp_files/271054.got.cif
#   From: 2010.05.17/outbox.cif.g08.bks.cpg/sg15_136_cif.got.tgz:271054.got - 2010.06.03 18:47:42.
