data_PCOD9273287
_publ_section_title
;
Structure prediction by ZEFSAII (Michael W. Deem and Ramdas Pophale) SiO2 
 PCOD9273287
Probable space group: C 2/C
;
_chemical_formula_sum "Si O2"
_cell_formula_units_Z 60
_cell_length_a 17.006028
_cell_length_b 8.941246
_cell_length_c 26.399522
_cell_angle_alpha 90.000000
_cell_angle_beta 131.122327
_cell_angle_gamma 90.000000
_cell_volume 3023.911647
_symmetry_space_group_name_H-M "C 2/C"
_symmetry_group_IT_number 15
_symmetry_cell_setting 'monoclinic'
loop_
_space_group_symop_operation_xyz
x,y,z
-x,y,1/2-z
-x,-y,-z
x,-y,1/2+z
1/2+x,1/2+y,z
1/2-x,1/2+y,1/2-z
1/2-x,1/2-y,-z
1/2+x,1/2-y,1/2+z
loop_
_atom_site_type_symbol
_atom_site_label
_atom_site_fract_x
_atom_site_fract_y
_atom_site_fract_z
Si Si1 0.100425 0.931376 0.370283
Si Si2 0.826590 0.816946 0.461738
Si Si3 0.174296 0.835661 0.152893
Si Si4 0.000000 0.865764 0.750000
Si Si5 0.472088 0.611297 0.402451
Si Si6 0.102805 0.660188 0.707446
Si Si7 0.798699 0.506985 0.509897
Si Si8 0.996916 0.644336 0.361404
O O1 0.041972 0.773582 0.344209
O O2 0.084444 0.026293 0.312767
O O3 0.217361 0.915998 0.440727
O O4 0.042648 0.030024 0.389266
O O5 0.793020 0.794323 0.390088
O O6 0.817660 0.662530 0.488659
O O7 0.756168 0.940236 0.460797
O O8 0.948325 0.861952 0.517998
O O9 0.273798 0.840012 0.231425
O O10 0.087953 0.722716 0.138254
O O11 0.121354 0.998540 0.126487
O O12 0.947985 0.761947 0.770294
O O13 0.429550 0.762601 0.359216
O O14 0.056364 0.494473 0.689056
O O15 0.904396 0.419767 0.565830
#
# Coordination Sequence:
#
# PCOD9273287 Si02
#       8
#     8   8   8   4   8   8   8   8
#     4   9  20  38  61  88 125 158 198 255 318 360
#     4  10  20  37  64  89 117 163 214 247 303 379
#     4  11  23  37  61  88 122 162 209 261 304 369
#     4  10  22  40  64  90 122 164 206 256 302 380
#     4   9  19  39  57  81 122 164 202 250 315 365
#     4  11  22  39  62  87 121 169 206 249 313 380
#     4  10  20  38  64  91 121 163 199 258 315 367
#     4  11  23  39  63  90 128 159 205 260 314 362
#
# _framework density 19.841850000000001
#
# number of rings (size 3 to 8) (size 9 to 14) (size 15 to 20)
#    0.000    1.867    1.333    2.400    3.733    1.067 
#    0.000    0.000    0.000    0.000    0.000    0.000 
#    0.000    0.000    0.000    0.000    0.000    0.000 
#
# Total GULP energy -167543.457042 kJ/mol
# GULP energy per Si atom -5584.781901 kJ/mol
# Density = 1.979669 g / cm^3
# Si number density = 19.841850 Si / 1000 Ang^3
#
#
#
# Elastic Constant Matrix: (Units=GPa)
#
#
# Indices 1 2 3 4 5 6 
#
# 1 47.7764 28.9421 32.9331 0.0000 14.8445 0.0000
# 2 28.9421 110.7808 40.1107 0.0000 8.6522 0.0000
# 3 32.9331 40.1107 106.3213 0.0000 23.8002 0.0000
# 4 0.0000 0.0000 0.0000 12.5024 0.0000 1.5115
# 5 14.8445 8.6522 23.8002 0.0000 34.3530 0.0000
# 6 0.0000 0.0000 0.0000 1.5115 0.0000 19.5887
#
#
#
# Elastic Compliance Matrix: (Units=1/GPa)
#
#
# Indices 1 2 3 4 5 6 
#
# 1 0.030516 -0.005297 -0.005682 0.000000 -0.007916 0.000000
# 2 -0.005297 0.011375 -0.002984 0.000000 0.001492 0.000000
# 3 -0.005682 -0.002984 0.013698 0.000000 -0.006283 0.000000
# 4 0.000000 0.000000 0.000000 0.080738 0.000000 -0.006230
# 5 -0.007916 0.001492 -0.006283 0.000000 0.036507 0.000000
# 6 0.000000 0.000000 0.000000 -0.006230 0.000000 0.051531
#
#
# Mechanical properties :
#
#
# Convention : Reuss Voigt Hill
#
# Bulk Modulus (GPa) = 36.15108 52.09449 44.12279
# Shear Modulus (GPa) = 19.11962 24.14831 21.63397
#
# Velocity S-wave (km/s) = 3.10756 3.49239 3.30558
# Velocity P-wave (km/s) = 5.57988 6.52490 6.07080
#
# Compressibility (1/GPa) = 0.02766169
#
# Stress axis : x y z
#
# Youngs Moduli (GPa) = 32.76992 87.91395 73.00416
#
# Poissons Ratio (x) = 0.46567 0.41481
# Poissons Ratio (y) = 0.17358 0.21788
# Poissons Ratio (z) = 0.18620 0.26237
#
# Static dielectric constant tensor:
#      x y z
#    x 1.694380 0.000000 0.013990 
#    y 0.000000 1.691000 0.000000 
#    z 0.013990 0.000000 1.697010 
# 
# From -- ./inp_files/317291.got.cif
#   From: 2010.05.17/outbox.cif.g08.bks.cpg/sg15_159_cif.got.tgz:317291.got - 2010.06.03 18:47:42.
