data_PCOD9273948
_publ_section_title
;
Structure prediction by ZEFSAII (Michael W. Deem and Ramdas Pophale) SiO2 
 PCOD9273948
Probable space group: C 2/C
;
_chemical_formula_sum "Si O2"
_cell_formula_units_Z 52
_cell_length_a 8.396828
_cell_length_b 15.251093
_cell_length_c 19.231167
_cell_angle_alpha 90.000000
_cell_angle_beta 66.906921
_cell_angle_gamma 90.000000
_cell_volume 2265.415114
_symmetry_space_group_name_H-M "C 2/C"
_symmetry_group_IT_number 15
_symmetry_cell_setting 'monoclinic'
loop_
_space_group_symop_operation_xyz
x,y,z
-x,y,1/2-z
-x,-y,-z
x,-y,1/2+z
1/2+x,1/2+y,z
1/2-x,1/2+y,1/2-z
1/2-x,1/2-y,-z
1/2+x,1/2-y,1/2+z
loop_
_atom_site_type_symbol
_atom_site_label
_atom_site_fract_x
_atom_site_fract_y
_atom_site_fract_z
Si Si1 0.430236 0.325970 0.396127
Si Si2 0.045972 0.243600 0.324307
Si Si3 0.916634 0.384730 0.068787
Si Si4 0.135489 0.545647 0.337495
Si Si5 0.635986 0.840495 0.674278
Si Si6 0.324572 0.792368 0.575719
Si Si7 0.000000 0.945319 0.250000
O O1 0.255932 0.374633 0.448398
O O2 0.357038 0.228586 0.389267
O O3 0.581809 0.299522 0.422473
O O4 0.497576 0.384070 0.319629
O O5 0.876717 0.221771 0.397689
O O6 0.000000 0.255056 0.250000
O O7 0.113006 0.331575 0.352341
O O8 0.183071 0.166461 0.316810
O O9 0.928987 0.483886 0.089716
O O10 0.074973 0.343619 0.000856
O O11 0.956399 0.567330 0.326236
O O12 0.174363 0.642800 0.358125
O O13 0.319047 0.502178 0.281564
O O14 0.500000 0.796255 0.750000
#
# Coordination Sequence:
#
# PCOD9273948 Si02
#       7
#     8   8   8   8   8   8   4
#     4   9  19  37  67  89 129 165 216 253 324 381
#     4  11  24  39  66  91 124 170 226 270 312 378
#     4  10  22  42  61  96 131 168 209 268 321 389
#     4  10  23  37  63  90 136 163 211 257 337 382
#     4  10  20  38  60  89 127 164 208 265 324 382
#     4  11  22  39  65  92 129 175 213 255 322 394
#     4  10  20  38  62 102 132 166 210 284 310 386
#
# _framework density 22.953849999999999
#
# number of rings (size 3 to 8) (size 9 to 14) (size 15 to 20)
#    0.000    1.846    0.769    3.231    7.538    0.615 
#    0.000    0.769    0.000    0.000    0.000    0.000 
#    0.000    0.000    0.000    0.000    0.000    0.000 
#
# Total GULP energy -144758.797377 kJ/mol
# GULP energy per Si atom -5567.646053 kJ/mol
# Density = 2.290161 g / cm^3
# Si number density = 22.953850 Si / 1000 Ang^3
#
#
#
# Elastic Constant Matrix: (Units=GPa)
#
#
# Indices 1 2 3 4 5 6 
#
# 1 137.3177 39.3344 34.6454 0.0000 -24.4916 0.0000
# 2 39.3344 74.6005 9.6679 0.0000 3.4445 0.0000
# 3 34.6454 9.6679 69.2256 0.0000 -12.6217 0.0000
# 4 0.0000 0.0000 0.0000 10.7603 0.0000 1.6943
# 5 -24.4916 3.4445 -12.6217 0.0000 27.9798 0.0000
# 6 0.0000 0.0000 0.0000 1.6943 0.0000 32.7035
#
#
#
# Elastic Compliance Matrix: (Units=1/GPa)
#
#
# Indices 1 2 3 4 5 6 
#
# 1 0.011505 -0.006084 -0.003198 0.000000 0.009377 0.000000
# 2 -0.006084 0.017069 -0.000755 0.000000 -0.007768 0.000000
# 3 -0.003198 -0.000755 0.017061 0.000000 0.004990 0.000000
# 4 0.000000 0.000000 0.000000 0.093699 0.000000 -0.004854
# 5 0.009377 -0.007768 0.004990 0.000000 0.047155 0.000000
# 6 0.000000 0.000000 0.000000 -0.004854 0.000000 0.030829
#
#
# Mechanical properties :
#
#
# Convention : Reuss Voigt Hill
#
# Bulk Modulus (GPa) = 39.12417 49.82655 44.47536
# Shear Modulus (GPa) = 20.33234 27.45514 23.89374
#
# Velocity S-wave (km/s) = 2.97945 3.46222 3.22987
# Velocity P-wave (km/s) = 5.37754 6.14305 5.77300
#
# Compressibility (1/GPa) = 0.02555965
#
# Stress axis : x y z
#
# Youngs Moduli (GPa) = 86.92185 58.58443 58.61174
#
# Poissons Ratio (x) = 0.35645 0.18746
# Poissons Ratio (y) = 0.52887 0.04426
# Poissons Ratio (z) = 0.27801 0.04424
#
# Static dielectric constant tensor:
#      x y z
#    x 2.092520 0.000000 0.080240 
#    y 0.000000 1.852590 0.000000 
#    z 0.080240 0.000000 1.946840 
# 
# From -- ./inp_files/264158.got.cif
#   From: 2010.05.17/outbox.cif.g08.bks.cpg/sg15_133_cif.got.tgz:264158.got - 2010.06.03 18:47:42.
