data_PCOD9273594
_publ_section_title
;
Structure prediction by ZEFSAII (Michael W. Deem and Ramdas Pophale) SiO2 
 PCOD9273594
Probable space group: C 2/C
;
_chemical_formula_sum "Si O2"
_cell_formula_units_Z 60
_cell_length_a 11.902721
_cell_length_b 28.036188
_cell_length_c 9.957460
_cell_angle_alpha 90.000000
_cell_angle_beta 87.360088
_cell_angle_gamma 90.000000
_cell_volume 3319.346871
_symmetry_space_group_name_H-M "C 2/C"
_symmetry_group_IT_number 15
_symmetry_cell_setting 'monoclinic'
loop_
_space_group_symop_operation_xyz
x,y,z
-x,y,1/2-z
-x,-y,-z
x,-y,1/2+z
1/2+x,1/2+y,z
1/2-x,1/2+y,1/2-z
1/2-x,1/2-y,-z
1/2+x,1/2-y,1/2+z
loop_
_atom_site_type_symbol
_atom_site_label
_atom_site_fract_x
_atom_site_fract_y
_atom_site_fract_z
Si Si1 0.765823 0.315043 0.407044
Si Si2 0.749412 0.352168 0.710068
Si Si3 0.060084 0.239011 0.005357
Si Si4 0.615068 0.972481 0.448920
Si Si5 0.884945 0.633245 0.676348
Si Si6 0.000000 0.170448 0.250000
Si Si7 0.636674 0.048662 0.238418
Si Si8 0.839871 0.710556 0.445042
O O1 0.765288 0.336707 0.555980
O O2 0.863877 0.275194 0.409389
O O3 0.646994 0.288104 0.403279
O O4 0.790642 0.354155 0.292823
O O5 0.616725 0.357792 0.745278
O O6 0.815776 0.400500 0.727459
O O7 0.797226 0.312623 0.809552
O O8 0.961933 0.265263 0.931794
O O9 0.006021 0.203173 0.116589
O O10 0.601960 0.920846 0.379033
O O11 0.674923 0.964262 0.586705
O O12 0.500000 0.000000 0.500000
O O13 0.671315 0.008072 0.340999
O O14 0.858043 0.668379 0.553982
O O15 0.000000 0.644440 0.750000
O O16 0.500000 0.051288 0.250000
O O17 0.750000 0.750000 0.500000
#
# Coordination Sequence:
#
# PCOD9273594 Si02
#       8
#     8   8   8   8   8   4   8   8
#     4  10  24  36  58  84 122 166 206 246 304 365
#     4  11  24  39  62  90 121 161 214 257 312 367
#     4  10  20  38  54  83 121 162 209 247 293 358
#     4  10  22  39  62  91 130 157 194 259 330 387
#     4  12  23  40  60  90 126 168 207 251 322 386
#     4  10  20  42  60  80 120 166 206 252 308 368
#     4  10  22  38  60  94 122 151 193 252 319 383
#     4  12  24  38  62  88 124 171 215 260 303 369
#
# _framework density 18.075845000000001
#
# number of rings (size 3 to 8) (size 9 to 14) (size 15 to 20)
#    0.000    1.333    4.000    2.000   11.200    0.000 
#    0.000    0.000    0.000    0.800    3.467    0.000 
#    0.000    0.000    0.000    0.000    0.000    0.000 
#
# Total GULP energy -167469.822354 kJ/mol
# GULP energy per Si atom -5582.327412 kJ/mol
# Density = 1.803470 g / cm^3
# Si number density = 18.075845 Si / 1000 Ang^3
#
#
#
# Elastic Constant Matrix: (Units=GPa)
#
#
# Indices 1 2 3 4 5 6 
#
# 1 72.1042 36.7934 37.5465 0.0000 -1.5893 0.0000
# 2 36.7934 117.2537 51.0228 0.0000 -7.8351 0.0000
# 3 37.5465 51.0228 108.4548 0.0000 -5.6346 0.0000
# 4 0.0000 0.0000 0.0000 29.5015 0.0000 -13.6331
# 5 -1.5893 -7.8351 -5.6346 0.0000 21.2134 0.0000
# 6 0.0000 0.0000 0.0000 -13.6331 0.0000 11.2623
#
#
#
# Elastic Compliance Matrix: (Units=1/GPa)
#
#
# Indices 1 2 3 4 5 6 
#
# 1 0.018154 -0.003794 -0.004565 0.000000 -0.001254 0.000000
# 2 -0.003794 0.011667 -0.004022 0.000000 0.002957 0.000000
# 3 -0.004565 -0.004022 0.012774 0.000000 0.001566 0.000000
# 4 0.000000 0.000000 0.000000 0.076932 0.000000 0.093128
# 5 -0.001254 0.002957 0.001566 0.000000 0.048554 0.000000
# 6 0.000000 0.000000 0.000000 0.093128 0.000000 0.201524
#
#
# Mechanical properties :
#
#
# Convention : Reuss Voigt Hill
#
# Bulk Modulus (GPa) = 56.07347 60.94866 58.51106
# Shear Modulus (GPa) = 12.49026 23.89210 18.19118
#
# Velocity S-wave (km/s) = 2.63152 3.63956 3.17579
# Velocity P-wave (km/s) = 6.34994 7.17310 6.77404
#
# Compressibility (1/GPa) = 0.01783375
#
# Stress axis : x y z
#
# Youngs Moduli (GPa) = 55.08313 85.71515 78.28309
#
# Poissons Ratio (x) = 0.32520 0.35738
# Poissons Ratio (y) = 0.20898 0.31482
# Poissons Ratio (z) = 0.25147 0.34470
#
# Static dielectric constant tensor:
#      x y z
#    x 1.624550 0.000000 -0.015370 
#    y 0.000000 1.787970 0.000000 
#    z -0.015370 0.000000 1.650810 
# 
# From -- ./inp_files/34274.got.cif
#   From: 2010.05.17/outbox.cif.g08.bks.cpg/sg15_18_cif.got.tgz:34274.got - 2010.06.03 18:47:42.
