data_PCOD9273234
_publ_section_title
;
Structure prediction by ZEFSAII (Michael W. Deem and Ramdas Pophale) SiO2 
 PCOD9273234
Probable space group: C 2/C
;
_chemical_formula_sum "Si O2"
_cell_formula_units_Z 60
_cell_length_a 17.891180
_cell_length_b 11.346179
_cell_length_c 30.913447
_cell_angle_alpha 90.000000
_cell_angle_beta 27.253480
_cell_angle_gamma 90.000000
_cell_volume 2873.645321
_symmetry_space_group_name_H-M "C 2/C"
_symmetry_group_IT_number 15
_symmetry_cell_setting 'monoclinic'
loop_
_space_group_symop_operation_xyz
x,y,z
-x,y,1/2-z
-x,-y,-z
x,-y,1/2+z
1/2+x,1/2+y,z
1/2-x,1/2+y,1/2-z
1/2-x,1/2-y,-z
1/2+x,1/2-y,1/2+z
loop_
_atom_site_type_symbol
_atom_site_label
_atom_site_fract_x
_atom_site_fract_y
_atom_site_fract_z
Si Si1 0.391450 0.661429 0.685716
Si Si2 0.793296 0.197324 0.430902
Si Si3 0.375104 0.588636 0.010446
Si Si4 0.052991 0.028622 0.677203
Si Si5 0.000000 0.245297 0.750000
Si Si6 0.114341 0.652316 0.764752
Si Si7 0.994982 0.386661 0.828267
Si Si8 0.620733 0.332650 0.448173
O O1 0.499857 0.598337 0.593580
O O2 0.412250 0.578322 0.717417
O O3 0.213109 0.680336 0.757777
O O4 0.466488 0.791163 0.655134
O O5 0.750000 0.250000 0.500000
O O6 0.662159 0.234160 0.462192
O O7 0.829208 0.057874 0.409267
O O8 0.964249 0.262062 0.332894
O O9 0.195138 0.615031 0.086092
O O10 0.375083 0.456532 0.028823
O O11 0.452217 0.670834 0.008240
O O12 0.000000 0.967796 0.750000
O O13 0.115145 0.153677 0.664677
O O14 0.085264 0.329905 0.740161
O O15 0.237669 0.662183 0.661020
O O16 0.051600 0.519381 0.803691
#
# Coordination Sequence:
#
# PCOD9273234 Si02
#       8
#     8   8   8   8   4   8   8   8
#     4  10  23  40  60  95 128 170 206 267 326 376
#     4  12  24  41  64  94 130 170 210 266 321 383
#     4  10  20  37  63  94 126 158 207 272 317 373
#     4   9  20  40  62  82 126 168 205 246 323 381
#     4   8  20  38  60  92 114 170 202 250 316 368
#     4  11  24  39  66  95 124 167 223 263 317 384
#     4  11  20  39  64  91 126 165 215 260 310 389
#     4  10  21  40  63  95 122 162 213 266 321 372
#
# _framework density 20.879403
#
# number of rings (size 3 to 8) (size 9 to 14) (size 15 to 20)
#    0.400    1.333    1.333    3.200    1.867    0.000 
#    4.800    0.000    0.000    4.000    0.000    0.000 
#    0.000    0.000    0.000    0.000    0.000    0.000 
#
# Total GULP energy -167222.966287 kJ/mol
# GULP energy per Si atom -5574.098876 kJ/mol
# Density = 2.083188 g / cm^3
# Si number density = 20.879403 Si / 1000 Ang^3
#
#
#
# Elastic Constant Matrix: (Units=GPa)
#
#
# Indices 1 2 3 4 5 6 
#
# 1 114.8439 23.9334 6.7711 -0.0002 -10.8933 0.0000
# 2 23.9334 63.9899 -4.3287 -0.0008 -17.0519 0.0004
# 3 6.7711 -4.3287 38.5135 -0.0013 -2.2404 -0.0005
# 4 -0.0002 -0.0008 -0.0013 -7.6359 -0.0003 29.3107
# 5 -10.8933 -17.0519 -2.2404 -0.0003 33.3086 0.0005
# 6 0.0000 0.0004 -0.0005 29.3107 0.0005 6.2944
#
#
#
# Elastic Compliance Matrix: (Units=1/GPa)
#
#
# Indices 1 2 3 4 5 6 
#
# 1 0.009657 -0.003407 -0.002006 0.000000 0.001279 0.000000
# 2 -0.003407 0.019558 0.003328 0.000000 0.009122 0.000001
# 3 -0.002006 0.003328 0.026858 0.000000 0.002854 0.000001
# 4 0.000000 0.000000 0.000000 -0.006938 -0.000001 0.032310
# 5 0.001279 0.009122 0.002854 -0.000001 0.035302 0.000001
# 6 0.000000 0.000001 0.000001 0.032310 0.000001 0.008417
#
#
# Mechanical properties :
#
#
# Convention : Reuss Voigt Hill
#
# Bulk Modulus (GPa) = 19.26718 30.01097 24.63908
# Shear Modulus (GPa) = 43.73513 19.12486 31.42999
#
# Velocity S-wave (km/s) = 4.58170 3.02978 3.88404
# Velocity P-wave (km/s) = 6.10223 5.16179 5.65161
#
# Compressibility (1/GPa) = 0.05190172
#
# Stress axis : x y z
#
# Youngs Moduli (GPa) = 103.55109 51.13121 37.23329
#
# Poissons Ratio (x) = 0.17419 0.07470
# Poissons Ratio (y) = 0.35277 -0.12390
# Poissons Ratio (z) = 0.20775 -0.17015
#
# Static dielectric constant tensor:
#      x y z
#    x 1.791750 0.000000 0.040260 
#    y 0.000000 1.734830 0.000000 
#    z 0.040260 0.000000 1.794820 
# 
# From -- ./inp_files/316055.got.cif
#   From: 2010.05.17/outbox.cif.g08.bks.cpg/sg15_159_cif.got.tgz:316055.got - 2010.06.03 18:47:42.
