data_PCOD9273717
_publ_section_title
;
Structure prediction by ZEFSAII (Michael W. Deem and Ramdas Pophale) SiO2 
 PCOD9273717
Probable space group: C 2/C
;
_chemical_formula_sum "Si O2"
_cell_formula_units_Z 48
_cell_length_a 6.354792
_cell_length_b 14.536123
_cell_length_c 25.153273
_cell_angle_alpha 90.000000
_cell_angle_beta 83.017139
_cell_angle_gamma 90.000000
_cell_volume 2306.274913
_symmetry_space_group_name_H-M "C 2/C"
_symmetry_group_IT_number 15
_symmetry_cell_setting 'monoclinic'
loop_
_space_group_symop_operation_xyz
x,y,z
-x,y,1/2-z
-x,-y,-z
x,-y,1/2+z
1/2+x,1/2+y,z
1/2-x,1/2+y,1/2-z
1/2-x,1/2-y,-z
1/2+x,1/2-y,1/2+z
loop_
_atom_site_type_symbol
_atom_site_label
_atom_site_fract_x
_atom_site_fract_y
_atom_site_fract_z
Si Si1 0.130682 0.785140 0.903992
Si Si2 0.865808 0.933714 0.968452
Si Si3 0.975391 0.809114 0.140362
Si Si4 0.361359 0.327073 0.806839
Si Si5 0.623105 0.106984 0.576130
Si Si6 0.231879 0.484791 0.359258
O O1 0.379594 0.772833 0.888334
O O2 0.023027 0.850353 0.950102
O O3 0.019606 0.810648 0.851677
O O4 0.054326 0.684213 0.920940
O O5 0.806315 0.979129 0.914708
O O6 0.670862 0.914418 0.013498
O O7 0.000000 0.000000 0.000000
O O8 0.814663 0.754376 0.184268
O O9 0.831964 0.852835 0.098074
O O10 0.125625 0.892743 0.157889
O O11 0.500000 0.321661 0.750000
O O12 0.266077 0.429809 0.818346
O O13 0.516208 0.035968 0.620943
#
# Coordination Sequence:
#
# PCOD9273717 Si02
#       6
#     8   8   8   8   8   8
#     4   9  22  39  59  85 122 159 201 254 302 372
#     4  11  20  34  59  87 125 165 205 239 307 367
#     4  10  21  41  61  86 126 156 201 256 309 369
#     4  10  23  43  64  89 115 157 208 260 323 366
#     4  10  20  38  58  87 123 165 198 246 302 367
#     4  10  22  40  60  90 124 160 208 257 302 374
#
# _framework density 20.812785999999999
#
# number of rings (size 3 to 8) (size 9 to 14) (size 15 to 20)
#    0.000    2.000    1.667    1.000    2.333    1.333 
#   12.000    0.000    0.000    0.000    0.000    0.000 
#    0.000    0.000    0.000    0.000    0.000    0.000 
#
# Total GULP energy -133744.933263 kJ/mol
# GULP energy per Si atom -5572.705553 kJ/mol
# Density = 2.076542 g / cm^3
# Si number density = 20.812786 Si / 1000 Ang^3
#
#
#
# Elastic Constant Matrix: (Units=GPa)
#
#
# Indices 1 2 3 4 5 6 
#
# 1 64.6363 20.7016 23.1142 0.0000 -31.7546 0.0000
# 2 20.7016 93.3212 55.1252 0.0000 -28.6754 0.0000
# 3 23.1142 55.1252 124.4214 0.0000 -46.7627 0.0000
# 4 0.0000 0.0000 0.0000 24.4085 0.0000 -17.2406
# 5 -31.7546 -28.6754 -46.7627 0.0000 27.9461 0.0000
# 6 0.0000 0.0000 0.0000 -17.2406 0.0000 20.0860
#
#
#
# Elastic Compliance Matrix: (Units=1/GPa)
#
#
# Indices 1 2 3 4 5 6 
#
# 1 0.121951 0.014057 0.077118 0.000000 0.282038 0.000000
# 2 0.014057 0.017546 0.006426 0.000000 0.044728 0.000000
# 3 0.077118 0.006426 0.070806 0.000000 0.212703 0.000000
# 4 0.000000 0.000000 0.000000 0.104056 0.000000 0.089315
# 5 0.282038 0.044728 0.212703 0.000000 0.758073 0.000000
# 6 0.000000 0.000000 0.000000 0.089315 0.000000 0.126449
#
#
# Mechanical properties :
#
#
# Convention : Reuss Voigt Hill
#
# Bulk Modulus (GPa) = 2.46606 53.36233 27.91420
# Shear Modulus (GPa) = 4.39040 26.71730 15.55385
#
# Velocity S-wave (km/s) = 1.45398 3.58676 2.73668
# Velocity P-wave (km/s) = 2.00155 6.54584 4.84015
#
# Compressibility (1/GPa) = 0.40550465
#
# Stress axis : x y z
#
# Youngs Moduli (GPa) = 8.20001 56.99414 14.12301
#
# Poissons Ratio (x) = -0.80115 -1.08914
# Poissons Ratio (y) = -0.11527 -0.09075
# Poissons Ratio (z) = -0.63237 -0.36622
#
# Static dielectric constant tensor:
#      x y z
#    x 1.670120 0.000000 0.077680 
#    y 0.000000 1.865260 0.000000 
#    z 0.077680 0.000000 1.569270 
# 
# From -- ./inp_files/260846.got.cif
#   From: 2010.05.17/outbox.cif.g08.bks.cpg/sg15_131_cif.got.tgz:260846.got - 2010.06.03 18:47:42.
