data_PCOD9273798
_publ_section_title
;
Structure prediction by ZEFSAII (Michael W. Deem and Ramdas Pophale) SiO2 
 PCOD9273798
Probable space group: C 2/C
;
_chemical_formula_sum "Si O2"
_cell_formula_units_Z 60
_cell_length_a 27.247323
_cell_length_b 6.903258
_cell_length_c 24.416216
_cell_angle_alpha 90.000000
_cell_angle_beta 131.933641
_cell_angle_gamma 90.000000
_cell_volume 3416.505552
_symmetry_space_group_name_H-M "C 2/C"
_symmetry_group_IT_number 15
_symmetry_cell_setting 'monoclinic'
loop_
_space_group_symop_operation_xyz
x,y,z
-x,y,1/2-z
-x,-y,-z
x,-y,1/2+z
1/2+x,1/2+y,z
1/2-x,1/2+y,1/2-z
1/2-x,1/2-y,-z
1/2+x,1/2-y,1/2+z
loop_
_atom_site_type_symbol
_atom_site_label
_atom_site_fract_x
_atom_site_fract_y
_atom_site_fract_z
Si Si1 0.001857 0.502782 0.898573
Si Si2 0.000000 0.956246 0.750000
Si Si3 0.676913 0.156099 0.384301
Si Si4 0.103853 0.688049 0.890071
Si Si5 0.068378 0.158584 0.998867
Si Si6 0.437557 0.400582 0.884864
Si Si7 0.413593 0.319174 0.274020
Si Si8 0.673676 0.445318 0.484609
O O1 0.059617 0.580176 0.902212
O O2 0.037842 0.374295 0.971879
O O3 0.958688 0.685096 0.884395
O O4 0.953273 0.356304 0.831127
O O5 0.036021 0.084683 0.731531
O O6 0.054321 0.823545 0.819338
O O7 0.647761 0.239979 0.306393
O O8 0.668101 0.319331 0.424850
O O9 0.753031 0.093599 0.438766
O O10 0.636352 0.970147 0.374959
O O11 0.156896 0.832128 0.957426
O O12 0.094238 0.109251 0.078670
O O13 0.120906 0.126402 0.990046
O O14 0.006901 0.015713 0.942036
O O15 0.398862 0.518984 0.809323
#
# Coordination Sequence:
#
# PCOD9273798 Si02
#       8
#     8   4   8   8   8   8   8   8
#     4  11  19  34  59  87 115 144 186 241 298 342
#     4  12  20  34  56  82 124 148 174 248 292 348
#     4  11  24  37  57  82 120 156 193 232 279 351
#     4  12  20  35  56  87 116 150 189 231 300 343
#     4  10  20  38  59  86 116 145 191 240 288 337
#     4  10  21  36  60  86 116 148 183 244 292 340
#     4  11  22  36  53  86 119 151 189 233 294 340
#     4  11  22  40  58  82 117 156 193 235 279 342
#
# _framework density 17.561803999999999
#
# number of rings (size 3 to 8) (size 9 to 14) (size 15 to 20)
#    0.000    1.067    5.333    3.200    0.000    0.000 
#    0.000    0.000    2.933    0.000    0.000    0.000 
#    0.000    0.000    0.000    0.000    0.000    0.000 
#
# Total GULP energy -167520.424382 kJ/mol
# GULP energy per Si atom -5584.014146 kJ/mol
# Density = 1.752183 g / cm^3
# Si number density = 17.561804 Si / 1000 Ang^3
#
#
#
# Elastic Constant Matrix: (Units=GPa)
#
#
# Indices 1 2 3 4 5 6 
#
# 1 34.5381 3.5674 31.9679 -0.0003 -6.1227 0.0003
# 2 3.5674 97.7314 42.9346 -0.0008 -6.8986 -0.0013
# 3 31.9679 42.9346 115.4023 0.0003 -9.1268 0.0000
# 4 -0.0003 -0.0008 0.0003 18.2836 0.0004 -1.1546
# 5 -6.1227 -6.8986 -9.1268 0.0004 23.6728 0.0001
# 6 0.0003 -0.0013 0.0000 -1.1546 0.0001 16.5394
#
#
#
# Elastic Compliance Matrix: (Units=1/GPa)
#
#
# Indices 1 2 3 4 5 6 
#
# 1 0.041408 0.004524 -0.012586 0.000001 0.007176 0.000000
# 2 0.004524 0.012806 -0.005807 0.000001 0.002663 0.000001
# 3 -0.012586 -0.005807 0.014359 -0.000001 0.000588 0.000000
# 4 0.000001 0.000001 -0.000001 0.054936 -0.000001 0.003835
# 5 0.007176 0.002663 0.000588 -0.000001 0.045101 0.000000
# 6 0.000000 0.000001 0.000000 0.003835 0.000000 0.060729
#
#
# Mechanical properties :
#
#
# Convention : Reuss Voigt Hill
#
# Bulk Modulus (GPa) = 24.48887 44.95684 34.72285
# Shear Modulus (GPa) = 18.47135 22.97928 20.72531
#
# Velocity S-wave (km/s) = 3.24665 3.62122 3.43904
# Velocity P-wave (km/s) = 5.29424 6.56803 5.96523
#
# Compressibility (1/GPa) = 0.04083488
#
# Stress axis : x y z
#
# Youngs Moduli (GPa) = 24.14998 78.08776 69.64305
#
# Poissons Ratio (x) = -0.35330 0.87655
# Poissons Ratio (y) = -0.10926 0.40442
# Poissons Ratio (z) = 0.30396 0.45346
#
# Static dielectric constant tensor:
#      x y z
#    x 1.567490 0.000000 -0.019810 
#    y 0.000000 1.613950 0.000000 
#    z -0.019810 0.000000 1.615810 
# 
# From -- ./inp_files/256759.got.cif
#   From: 2010.05.17/outbox.cif.g08.bks.cpg/sg15_129_cif.got.tgz:256759.got - 2010.06.03 18:47:42.
