data_PCOD9273882
_publ_section_title
;
Structure prediction by ZEFSAII (Michael W. Deem and Ramdas Pophale) SiO2 
 PCOD9273882
Probable space group: C 2/C
;
_chemical_formula_sum "Si O2"
_cell_formula_units_Z 64
_cell_length_a 13.654665
_cell_length_b 17.871486
_cell_length_c 16.782768
_cell_angle_alpha 90.000000
_cell_angle_beta 131.048016
_cell_angle_gamma 90.000000
_cell_volume 3088.648736
_symmetry_space_group_name_H-M "C 2/C"
_symmetry_group_IT_number 15
_symmetry_cell_setting 'monoclinic'
loop_
_space_group_symop_operation_xyz
x,y,z
-x,y,1/2-z
-x,-y,-z
x,-y,1/2+z
1/2+x,1/2+y,z
1/2-x,1/2+y,1/2-z
1/2-x,1/2-y,-z
1/2+x,1/2-y,1/2+z
loop_
_atom_site_type_symbol
_atom_site_label
_atom_site_fract_x
_atom_site_fract_y
_atom_site_fract_z
Si Si1 0.512945 0.356589 0.509068
Si Si2 0.486087 0.130978 0.855124
Si Si3 0.254941 0.454243 0.848626
Si Si4 0.625343 0.156344 0.411504
Si Si5 0.777397 0.625290 0.609451
Si Si6 0.464401 0.690273 0.810991
Si Si7 0.179413 0.706236 0.607013
Si Si8 0.046931 0.526291 0.113284
O O1 0.596687 0.427564 0.580120
O O2 0.370047 0.346308 0.469417
O O3 0.491488 0.357703 0.402889
O O4 0.604073 0.284346 0.569655
O O5 0.374987 0.153272 0.732110
O O6 0.634890 0.152322 0.918376
O O7 0.422041 0.151411 0.904366
O O8 0.496870 0.041946 0.854585
O O9 0.187753 0.389677 0.870525
O O10 0.240503 0.535505 0.883156
O O11 0.192205 0.460558 0.726160
O O12 0.546700 0.232540 0.352514
O O13 0.712503 0.180183 0.534453
O O14 0.526265 0.099397 0.398447
O O15 0.500000 0.646851 0.750000
O O16 0.312653 0.709590 0.726101
O O17 0.000000 0.500000 0.000000
#
# Coordination Sequence:
#
# PCOD9273882 Si02
#       8
#     8   8   8   8   8   8   8   8
#     4  11  23  38  59  91 123 165 201 257 323 370
#     4  10  20  38  60  85 114 158 213 254 296 371
#     4  11  22  38  61  90 124 155 207 255 309 376
#     4  11  21  36  61  92 121 159 204 255 312 369
#     4  10  21  39  63  84 116 164 211 253 309 364
#     4  11  22  38  59  88 129 164 200 251 319 391
#     4  11  22  37  59  89 125 158 203 257 313 376
#     4  11  20  35  60  90 117 158 206 258 301 359
#
# _framework density 20.721036000000002
#
# number of rings (size 3 to 8) (size 9 to 14) (size 15 to 20)
#    0.000    1.250    3.750    3.750    0.000    2.500 
#    0.000    0.000    0.000    0.750    0.000    0.000 
#    0.000    0.000    0.000    0.000    0.000    0.000 
#
# Total GULP energy -178142.936356 kJ/mol
# GULP energy per Si atom -5566.966761 kJ/mol
# Density = 2.067387 g / cm^3
# Si number density = 20.721036 Si / 1000 Ang^3
#
#
#
# Elastic Constant Matrix: (Units=GPa)
#
#
# Indices 1 2 3 4 5 6 
#
# 1 89.0972 0.4036 37.7521 0.0000 15.4813 0.0000
# 2 0.4036 37.2678 13.0380 0.0000 2.5745 0.0000
# 3 37.7521 13.0380 125.1538 0.0000 12.9622 0.0000
# 4 0.0000 0.0000 0.0000 1.3894 0.0000 8.6765
# 5 15.4813 2.5745 12.9622 0.0000 27.4776 0.0000
# 6 0.0000 0.0000 0.0000 8.6765 0.0000 20.3006
#
#
#
# Elastic Compliance Matrix: (Units=1/GPa)
#
#
# Indices 1 2 3 4 5 6 
#
# 1 0.013865 0.001574 -0.003703 0.000000 -0.006212 0.000000
# 2 0.001574 0.028071 -0.003191 0.000000 -0.002012 0.000000
# 3 -0.003703 -0.003191 0.009665 0.000000 -0.002174 0.000000
# 4 0.000000 0.000000 0.000000 -0.431224 0.000000 0.184306
# 5 -0.006212 -0.002012 -0.002174 0.000000 0.041108 0.000000
# 6 0.000000 0.000000 0.000000 0.184306 0.000000 -0.029513
#
#
# Mechanical properties :
#
#
# Convention : Reuss Voigt Hill
#
# Bulk Modulus (GPa) = 24.41277 39.32288 31.86782
# Shear Modulus (GPa) = -14.54605 23.18852 4.32124
#
# Velocity S-wave (km/s) = -2.65239 3.34890 1.44567
# Velocity P-wave (km/s) = 1.55787 5.82855 4.26608
#
# Compressibility (1/GPa) = 0.04096218
#
# Stress axis : x y z
#
# Youngs Moduli (GPa) = 72.12393 35.62383 103.46929
#
# Poissons Ratio (x) = -0.05609 0.38314
# Poissons Ratio (y) = -0.11356 0.33016
# Poissons Ratio (z) = 0.26707 0.11367
#
# Static dielectric constant tensor:
#      x y z
#    x 1.816910 0.000000 -0.028720 
#    y 0.000000 1.765410 0.000000 
#    z -0.028720 0.000000 1.837890 
# 
# From -- ./inp_files/206472.got.cif
#   From: 2010.05.17/outbox.cif.g08.bks.cpg/sg15_104_cif.got.tgz:206472.got - 2010.06.03 18:47:42.
