data_PCOD9273512
_publ_section_title
;
Structure prediction by ZEFSAII (Michael W. Deem and Ramdas Pophale) SiO2 
 PCOD9273512
Probable space group: C 2/C
;
_chemical_formula_sum "Si O2"
_cell_formula_units_Z 52
_cell_length_a 8.363002
_cell_length_b 13.061601
_cell_length_c 20.494610
_cell_angle_alpha 90.000000
_cell_angle_beta 101.912291
_cell_angle_gamma 90.000000
_cell_volume 2190.500954
_symmetry_space_group_name_H-M "C 2/C"
_symmetry_group_IT_number 15
_symmetry_cell_setting 'monoclinic'
loop_
_space_group_symop_operation_xyz
x,y,z
-x,y,1/2-z
-x,-y,-z
x,-y,1/2+z
1/2+x,1/2+y,z
1/2-x,1/2+y,1/2-z
1/2-x,1/2-y,-z
1/2+x,1/2-y,1/2+z
loop_
_atom_site_type_symbol
_atom_site_label
_atom_site_fract_x
_atom_site_fract_y
_atom_site_fract_z
Si Si1 0.812564 0.116515 0.319006
Si Si2 0.066453 0.186478 0.547616
Si Si3 0.144390 0.449926 0.086164
Si Si4 0.430094 0.747016 0.096820
Si Si5 0.871994 0.614449 0.059664
Si Si6 0.495225 0.573988 0.658150
Si Si7 0.000000 0.734909 0.250000
O O1 0.741657 0.109077 0.387074
O O2 0.662879 0.166781 0.267775
O O3 0.973031 0.187594 0.339113
O O4 0.879094 0.006984 0.301908
O O5 0.240830 0.226767 0.588624
O O6 0.070777 0.181070 0.470174
O O7 0.036901 0.084863 0.585328
O O8 0.924862 0.268824 0.551174
O O9 0.305565 0.454573 0.142965
O O10 0.031148 0.351733 0.092995
O O11 0.036495 0.550236 0.086846
O O12 0.188756 0.434956 0.013301
O O13 0.510477 0.685867 0.690890
#
# Coordination Sequence:
#
# PCOD9273512 Si02
#       7
#     8   8   8   8   8   8   4
#     4  12  25  45  70  92 129 180 225 281 336 397
#     4  10  20  38  66 104 139 167 207 270 345 413
#     4  10  20  37  67 104 140 170 211 274 345 417
#     4  10  20  38  66 104 139 167 207 270 345 413
#     4  10  20  37  67 104 140 170 211 274 345 417
#     4  12  25  45  70  92 129 180 225 281 336 397
#     4  12  28  52  64  94 136 180 250 290 316 390
#
# _framework density 23.738861
#
# number of rings (size 3 to 8) (size 9 to 14) (size 15 to 20)
#    0.000    1.231    3.077    2.769    0.000    8.615 
#    5.538    0.000    0.000    0.000    0.000    0.000 
#    0.000    0.000    0.000    0.000    0.000    0.000 
#
# Total GULP energy -145518.351083 kJ/mol
# GULP energy per Si atom -5596.859657 kJ/mol
# Density = 2.368483 g / cm^3
# Si number density = 23.738861 Si / 1000 Ang^3
#
#
#
# Elastic Constant Matrix: (Units=GPa)
#
#
# Indices 1 2 3 4 5 6 
#
# 1 92.2073 24.2026 56.0558 0.0000 37.9170 0.0000
# 2 24.2026 75.8711 24.6185 0.0000 36.0143 0.0000
# 3 56.0558 24.6185 63.4589 0.0000 45.8097 0.0000
# 4 0.0000 0.0000 0.0000 26.3178 0.0000 15.5218
# 5 37.9170 36.0143 45.8097 0.0000 52.2210 0.0000
# 6 0.0000 0.0000 0.0000 15.5218 0.0000 33.8094
#
#
#
# Elastic Compliance Matrix: (Units=1/GPa)
#
#
# Indices 1 2 3 4 5 6 
#
# 1 0.023887 -0.002383 -0.024109 0.000000 0.005449 0.000000
# 2 -0.002383 0.020669 0.008528 0.000000 -0.020005 0.000000
# 3 -0.024109 0.008528 0.069135 0.000000 -0.049024 0.000000
# 4 0.000000 0.000000 0.000000 0.052106 0.000000 -0.023922
# 5 0.005449 -0.020005 -0.049024 0.000000 0.071995 0.000000
# 6 0.000000 0.000000 0.000000 -0.023922 0.000000 0.040560
#
#
# Mechanical properties :
#
#
# Convention : Reuss Voigt Hill
#
# Bulk Modulus (GPa) = 12.85952 49.03235 30.94594
# Shear Modulus (GPa) = 14.69721 30.91366 22.80544
#
# Velocity S-wave (km/s) = 2.49091 3.61257 3.10285
# Velocity P-wave (km/s) = 3.70158 6.17257 5.08932
#
# Compressibility (1/GPa) = 0.07776338
#
# Stress axis : x y z
#
# Youngs Moduli (GPa) = 41.86455 48.38060 14.46441
#
# Poissons Ratio (x) = 0.11531 0.34872
# Poissons Ratio (y) = 0.09978 -0.12336
# Poissons Ratio (z) = 1.00930 -0.41260
#
# Static dielectric constant tensor:
#      x y z
#    x 1.905980 0.000000 -0.048340 
#    y 0.000000 1.890290 0.000000 
#    z -0.048340 0.000000 1.953490 
# 
# From -- ./inp_files/272901.got.cif
#   From: 2010.05.17/outbox.cif.g08.bks.cpg/sg15_137_cif.got.tgz:272901.got - 2010.06.03 18:47:42.
