data_PCOD9273652
_publ_section_title
;
Structure prediction by ZEFSAII (Michael W. Deem and Ramdas Pophale) SiO2 
 PCOD9273652
Probable space group: C 2/C
;
_chemical_formula_sum "Si O2"
_cell_formula_units_Z 64
_cell_length_a 16.908052
_cell_length_b 25.419683
_cell_length_c 7.746998
_cell_angle_alpha 90.000000
_cell_angle_beta 99.246676
_cell_angle_gamma 90.000000
_cell_volume 3286.372634
_symmetry_space_group_name_H-M "C 2/C"
_symmetry_group_IT_number 15
_symmetry_cell_setting 'monoclinic'
loop_
_space_group_symop_operation_xyz
x,y,z
-x,y,1/2-z
-x,-y,-z
x,-y,1/2+z
1/2+x,1/2+y,z
1/2-x,1/2+y,1/2-z
1/2-x,1/2-y,-z
1/2+x,1/2-y,1/2+z
loop_
_atom_site_type_symbol
_atom_site_label
_atom_site_fract_x
_atom_site_fract_y
_atom_site_fract_z
Si Si1 0.984298 0.398563 0.047465
Si Si2 0.749579 0.659507 0.311546
Si Si3 0.917578 0.707084 0.456316
Si Si4 0.318750 0.055415 0.366790
Si Si5 0.124774 0.243171 0.213712
Si Si6 0.154713 0.439479 0.030008
Si Si7 0.239329 0.334191 0.100618
Si Si8 0.417659 0.298390 0.174137
O O1 0.000000 0.385187 0.250000
O O2 0.059470 0.434118 0.022864
O O3 0.976839 0.342342 0.949967
O O4 0.900022 0.427945 0.994126
O O5 0.827909 0.683542 0.426004
O O6 0.749557 0.598797 0.372021
O O7 0.672421 0.694576 0.317424
O O8 0.763568 0.666733 0.109848
O O9 0.924788 0.732072 0.647730
O O10 0.919654 0.748675 0.303633
O O11 0.307246 0.994132 0.396188
O O12 0.335501 0.062717 0.171028
O O13 0.188589 0.286444 0.164021
O O14 0.082718 0.221543 0.025074
O O15 0.197831 0.389465 0.132861
O O16 0.333291 0.327750 0.175747
O O17 0.500000 0.328277 0.250000
#
# Coordination Sequence:
#
# PCOD9273652 Si02
#       8
#     8   8   8   8   8   8   8   8
#     4  11  23  36  51  80 120 154 197 231 275 338
#     4   9  18  36  57  80 115 148 186 242 294 336
#     4  11  22  34  55  87 112 159 192 230 289 341
#     4  10  22  37  57  81 113 154 197 242 288 331
#     4  11  20  38  59  85 117 147 195 239 288 355
#     4  11  22  38  57  80 116 154 197 240 283 348
#     4  10  20  38  57  82 111 155 191 239 296 346
#     4  11  24  37  56  80 119 147 191 240 291 347
#
# _framework density 19.474357999999999
#
# number of rings (size 3 to 8) (size 9 to 14) (size 15 to 20)
#    0.000    1.500    2.500    3.375    3.500    1.000 
#    0.000    0.000    0.000    0.000    0.000    7.875 
#    0.000    0.000    0.000    0.000    0.000    0.000 
#
# Total GULP energy -178697.234583 kJ/mol
# GULP energy per Si atom -5584.288581 kJ/mol
# Density = 1.943003 g / cm^3
# Si number density = 19.474358 Si / 1000 Ang^3
#
#
#
# Elastic Constant Matrix: (Units=GPa)
#
#
# Indices 1 2 3 4 5 6 
#
# 1 61.6125 33.7363 24.6558 0.0000 27.5530 0.0000
# 2 33.7363 112.4413 16.0093 0.0000 21.8839 0.0000
# 3 24.6558 16.0093 62.1495 0.0000 19.2549 0.0000
# 4 0.0000 0.0000 0.0000 34.8878 0.0000 11.1335
# 5 27.5530 21.8839 19.2549 0.0000 27.8795 0.0000
# 6 0.0000 0.0000 0.0000 11.1335 0.0000 19.9678
#
#
#
# Elastic Compliance Matrix: (Units=1/GPa)
#
#
# Indices 1 2 3 4 5 6 
#
# 1 0.031036 -0.003912 -0.003503 0.000000 -0.025183 0.000000
# 2 -0.003912 0.010992 0.000249 0.000000 -0.004934 0.000000
# 3 -0.003503 0.000249 0.020869 0.000000 -0.011147 0.000000
# 4 0.000000 0.000000 0.000000 0.034867 0.000000 -0.019441
# 5 -0.025183 -0.004934 -0.011147 0.000000 0.072328 0.000000
# 6 0.000000 0.000000 0.000000 -0.019441 0.000000 0.060921
#
#
# Mechanical properties :
#
#
# Convention : Reuss Voigt Hill
#
# Bulk Modulus (GPa) = 20.59063 42.77847 31.68455
# Shear Modulus (GPa) = 19.11805 27.33381 23.22593
#
# Velocity S-wave (km/s) = 3.13661 3.75050 3.45721
# Velocity P-wave (km/s) = 4.86970 6.38508 5.67817
#
# Compressibility (1/GPa) = 0.04856577
#
# Stress axis : x y z
#
# Youngs Moduli (GPa) = 32.22084 90.97464 47.91750
#
# Poissons Ratio (x) = 0.35589 0.16785
# Poissons Ratio (y) = 0.12605 -0.01194
# Poissons Ratio (z) = 0.11286 -0.02266
#
# Static dielectric constant tensor:
#      x y z
#    x 1.720600 0.000000 -0.000730 
#    y 0.000000 1.671260 0.000000 
#    z -0.000730 0.000000 1.701220 
# 
# From -- ./inp_files/51270.got.cif
#   From: 2010.05.17/outbox.cif.g08.bks.cpg/sg15_26_cif.got.tgz:51270.got - 2010.06.03 18:47:42.
