data_PCOD9273165
_publ_section_title
;
Structure prediction by ZEFSAII (Michael W. Deem and Ramdas Pophale) SiO2 
 PCOD9273165
Probable space group: C 2/C
;
_chemical_formula_sum "Si O2"
_cell_formula_units_Z 40
_cell_length_a 33.434314
_cell_length_b 9.874148
_cell_length_c 9.467915
_cell_angle_alpha 90.000000
_cell_angle_beta 135.805883
_cell_angle_gamma 90.000000
_cell_volume 2178.894384
_symmetry_space_group_name_H-M "C 2/C"
_symmetry_group_IT_number 15
_symmetry_cell_setting 'monoclinic'
loop_
_space_group_symop_operation_xyz
x,y,z
-x,y,1/2-z
-x,-y,-z
x,-y,1/2+z
1/2+x,1/2+y,z
1/2-x,1/2+y,1/2-z
1/2-x,1/2-y,-z
1/2+x,1/2-y,1/2+z
loop_
_atom_site_type_symbol
_atom_site_label
_atom_site_fract_x
_atom_site_fract_y
_atom_site_fract_z
Si Si1 0.601074 0.396024 0.629271
Si Si2 0.442485 0.393722 0.682654
Si Si3 0.807651 0.663574 0.670827
Si Si4 0.834169 0.156772 0.746832
Si Si5 0.790415 0.599473 0.948404
O O1 0.557486 0.386864 0.649311
O O2 0.571229 0.455250 0.413083
O O3 0.637771 0.262057 0.701333
O O4 0.645525 0.518705 0.779019
O O5 0.500000 0.348537 0.750000
O O6 0.387022 0.311867 0.485161
O O7 0.750000 0.750000 0.500000
O O8 0.802887 0.603140 0.815253
O O9 0.808709 0.542085 0.562424
O O10 0.821547 0.276381 0.606769
O O11 0.777021 0.123356 0.689838
#
# Coordination Sequence:
#
# PCOD9273165 Si02
#       5
#     8   8   8   8   8
#     4  10  21  36  60  89 116 153 201 240 293 349
#     4  10  20  37  63  88 117 152 203 253 294 335
#     4  12  24  37  60  86 124 158 197 232 300 357
#     4   9  22  35  60  85 125 149 197 238 292 350
#     4  11  24  37  58  90 126 159 185 243 294 361
#
# _framework density 18.357934
#
# number of rings (size 3 to 8) (size 9 to 14) (size 15 to 20)
#    1.200    0.400    2.000    3.000    8.400    0.000 
#    0.000    0.000    0.000    2.400    0.000    0.000 
#    0.000    0.000    0.000    0.000    0.000    0.000 
#
# Total GULP energy -111567.638838 kJ/mol
# GULP energy per Si atom -5578.381942 kJ/mol
# Density = 1.831615 g / cm^3
# Si number density = 18.357934 Si / 1000 Ang^3
#
#
#
# Elastic Constant Matrix: (Units=GPa)
#
#
# Indices 1 2 3 4 5 6 
#
# 1 94.1616 23.0298 10.1951 0.0000 -20.6465 0.0000
# 2 23.0298 79.2807 14.5617 0.0000 -8.2172 0.0000
# 3 10.1951 14.5617 36.8241 0.0000 -6.1950 0.0000
# 4 0.0000 0.0000 0.0000 18.8464 0.0000 -7.9245
# 5 -20.6465 -8.2172 -6.1950 0.0000 36.0947 0.0000
# 6 0.0000 0.0000 0.0000 -7.9245 0.0000 21.3058
#
#
#
# Elastic Compliance Matrix: (Units=1/GPa)
#
#
# Indices 1 2 3 4 5 6 
#
# 1 0.012880 -0.002819 -0.001359 0.000000 0.006493 0.000000
# 2 -0.002819 0.014396 -0.004770 0.000000 0.000846 0.000000
# 3 -0.001359 -0.004770 0.029970 0.000000 0.003281 0.000000
# 4 0.000000 0.000000 0.000000 0.062897 0.000000 0.023394
# 5 0.006493 0.000846 0.003281 0.000000 0.032174 0.000000
# 6 0.000000 0.000000 0.000000 0.023394 0.000000 0.055637
#
#
# Mechanical properties :
#
#
# Convention : Reuss Voigt Hill
#
# Bulk Modulus (GPa) = 25.41234 33.98216 29.69725
# Shear Modulus (GPa) = 20.92328 26.08136 23.50232
#
# Velocity S-wave (km/s) = 3.37967 3.77332 3.58191
# Velocity P-wave (km/s) = 5.39465 6.12658 5.77223
#
# Compressibility (1/GPa) = 0.03935097
#
# Stress axis : x y z
#
# Youngs Moduli (GPa) = 77.63823 69.46328 33.36615
#
# Poissons Ratio (x) = 0.19581 0.04535
# Poissons Ratio (y) = 0.21886 0.15916
# Poissons Ratio (z) = 0.10551 0.33134
#
# Static dielectric constant tensor:
#      x y z
#    x 1.635730 0.000000 0.002960 
#    y 0.000000 1.611950 0.000000 
#    z 0.002960 0.000000 1.659410 
# 
# From -- ./inp_files/65273.got.cif
#   From: 2010.05.17/outbox.cif.g08.bks.cpg/sg15_33_cif.got.tgz:65273.got - 2010.06.03 18:47:42.
