data_PCOD9273724
_publ_section_title
;
Structure prediction by ZEFSAII (Michael W. Deem and Ramdas Pophale) SiO2 
 PCOD9273724
Probable space group: C 2/C
;
_chemical_formula_sum "Si O2"
_cell_formula_units_Z 44
_cell_length_a 16.271327
_cell_length_b 12.970026
_cell_length_c 9.954493
_cell_angle_alpha 90.000000
_cell_angle_beta 112.294352
_cell_angle_gamma 90.000000
_cell_volume 1943.751345
_symmetry_space_group_name_H-M "C 2/C"
_symmetry_group_IT_number 15
_symmetry_cell_setting 'monoclinic'
loop_
_space_group_symop_operation_xyz
x,y,z
-x,y,1/2-z
-x,-y,-z
x,-y,1/2+z
1/2+x,1/2+y,z
1/2-x,1/2+y,1/2-z
1/2-x,1/2-y,-z
1/2+x,1/2-y,1/2+z
loop_
_atom_site_type_symbol
_atom_site_label
_atom_site_fract_x
_atom_site_fract_y
_atom_site_fract_z
Si Si1 0.675805 0.036438 0.948253
Si Si2 0.842908 0.970759 0.345264
Si Si3 0.049222 0.838177 0.902229
Si Si4 0.500000 0.145273 0.750000
Si Si5 0.235293 0.662682 0.601527
Si Si6 0.704245 0.326472 0.805533
O O1 0.757309 0.032921 0.892420
O O2 0.586621 0.076801 0.824330
O O3 0.708946 0.112739 0.088346
O O4 0.665820 0.921890 0.004463
O O5 0.925226 0.911214 0.461302
O O6 0.817833 0.911348 0.192339
O O7 0.849546 0.091266 0.318573
O O8 0.144590 0.804929 0.898387
O O9 0.000000 0.897128 0.750000
O O10 0.997628 0.728616 0.873100
O O11 0.250000 0.750000 0.500000
O O12 0.219242 0.726127 0.727688
#
# Coordination Sequence:
#
# PCOD9273724 Si02
#       6
#     8   8   8   4   8   8
#     4  10  21  39  63  92 117 166 205 252 310 367
#     4  10  20  38  65  85 120 164 208 259 298 364
#     4   9  21  38  61  91 115 163 209 250 308 367
#     4  10  20  38  58  88 124 148 200 250 306 370
#     4  11  21  36  60  93 119 155 211 247 304 358
#     4  10  20  38  63  88 120 159 211 258 299 364
#
# _framework density 22.636641999999998
#
# number of rings (size 3 to 8) (size 9 to 14) (size 15 to 20)
#    0.545    1.455    1.818    2.182    0.000    3.636 
#    0.000   10.000    2.000    0.000    0.000    0.000 
#    0.000    0.000    0.000    0.000    0.000    0.000 
#
# Total GULP energy -122686.726274 kJ/mol
# GULP energy per Si atom -5576.669376 kJ/mol
# Density = 2.258512 g / cm^3
# Si number density = 22.636642 Si / 1000 Ang^3
#
#
#
# Elastic Constant Matrix: (Units=GPa)
#
#
# Indices 1 2 3 4 5 6 
#
# 1 43.1564 21.7168 17.9006 0.0000 7.7605 0.0000
# 2 21.7168 175.5044 60.5061 0.0000 7.5012 0.0000
# 3 17.9006 60.5061 105.3005 0.0000 18.1585 0.0000
# 4 0.0000 0.0000 0.0000 68.0012 0.0000 -3.7924
# 5 7.7605 7.5012 18.1585 0.0000 33.2312 0.0000
# 6 0.0000 0.0000 0.0000 -3.7924 0.0000 29.9375
#
#
#
# Elastic Compliance Matrix: (Units=1/GPa)
#
#
# Indices 1 2 3 4 5 6 
#
# 1 0.026054 -0.002205 -0.002427 0.000000 -0.004260 0.000000
# 2 -0.002205 0.007306 -0.004005 0.000000 0.001054 0.000000
# 3 -0.002427 -0.004005 0.013201 0.000000 -0.005742 0.000000
# 4 0.000000 0.000000 0.000000 0.014810 0.000000 0.001876
# 5 -0.004260 0.001054 -0.005742 0.000000 0.033987 0.000000
# 6 0.000000 0.000000 0.000000 0.001876 0.000000 0.033641
#
#
# Mechanical properties :
#
#
# Convention : Reuss Voigt Hill
#
# Bulk Modulus (GPa) = 34.14583 58.24537 46.19560
# Shear Modulus (GPa) = 32.04373 41.15649 36.60011
#
# Velocity S-wave (km/s) = 3.76649 4.26859 4.02537
# Velocity P-wave (km/s) = 5.83372 7.07678 6.48510
#
# Compressibility (1/GPa) = 0.02928615
#
# Stress axis : x y z
#
# Youngs Moduli (GPa) = 38.38177 136.86447 75.75185
#
# Poissons Ratio (x) = 0.30178 0.18388
# Poissons Ratio (y) = 0.08463 0.30341
# Poissons Ratio (z) = 0.09317 0.54818
#
# Static dielectric constant tensor:
#      x y z
#    x 1.925730 0.000000 0.004480 
#    y 0.000000 1.869990 0.000000 
#    z 0.004480 0.000000 1.907000 
# 
# From -- ./inp_files/110722.got.cif
#   From: 2010.05.17/outbox.cif.g08.bks.cpg/sg15_56_cif.got.tgz:110722.got - 2010.06.03 18:47:42.
