data_PCOD9273827
_publ_section_title
;
Structure prediction by ZEFSAII (Michael W. Deem and Ramdas Pophale) SiO2 
 PCOD9273827
Probable space group: C 2/C
;
_chemical_formula_sum "Si O2"
_cell_formula_units_Z 40
_cell_length_a 18.745020
_cell_length_b 11.143327
_cell_length_c 8.916777
_cell_angle_alpha 90.000000
_cell_angle_beta 91.477466
_cell_angle_gamma 90.000000
_cell_volume 1861.933991
_symmetry_space_group_name_H-M "C 2/C"
_symmetry_group_IT_number 15
_symmetry_cell_setting 'monoclinic'
loop_
_space_group_symop_operation_xyz
x,y,z
-x,y,1/2-z
-x,-y,-z
x,-y,1/2+z
1/2+x,1/2+y,z
1/2-x,1/2+y,1/2-z
1/2-x,1/2-y,-z
1/2+x,1/2-y,1/2+z
loop_
_atom_site_type_symbol
_atom_site_label
_atom_site_fract_x
_atom_site_fract_y
_atom_site_fract_z
Si Si1 0.151022 0.739150 0.726305
Si Si2 0.469563 0.117178 0.917787
Si Si3 0.420006 0.714423 0.966905
Si Si4 0.191379 0.837575 0.256665
Si Si5 0.641306 0.471311 0.550565
O O1 0.113905 0.639613 0.617737
O O2 0.126016 0.732262 0.897008
O O3 0.235833 0.732868 0.719206
O O4 0.123331 0.867415 0.666288
O O5 0.500000 0.121462 0.750000
O O6 0.503382 0.226616 0.013711
O O7 0.500000 0.000000 0.000000
O O8 0.374892 0.738306 0.813440
O O9 0.419840 0.570048 0.980565
O O10 0.168109 0.905917 0.404424
O O11 0.200461 0.940999 0.129584
#
# Coordination Sequence:
#
# PCOD9273827 Si02
#       5
#     8   8   8   8   8
#     4  11  21  38  61  88 119 157 197 245 295 352
#     4  10  24  41  60  87 120 159 195 240 301 355
#     4   9  20  41  59  83 121 156 191 246 290 345
#     4  10  21  35  62  89 120 151 197 248 293 349
#     4  10  20  38  59  90 116 155 202 238 302 340
#
# _framework density 21.483038000000001
#
# number of rings (size 3 to 8) (size 9 to 14) (size 15 to 20)
#    1.200    0.800    2.000    1.200    0.000    7.200 
#    0.000    0.000    0.000    0.000    0.000    0.000 
#    0.000    0.000    0.000    0.000    0.000    0.000 
#
# Total GULP energy -111423.597344 kJ/mol
# GULP energy per Si atom -5571.179867 kJ/mol
# Density = 2.143414 g / cm^3
# Si number density = 21.483038 Si / 1000 Ang^3
#
#
#
# Elastic Constant Matrix: (Units=GPa)
#
#
# Indices 1 2 3 4 5 6 
#
# 1 43.4422 -4.1105 19.3018 0.0000 19.9619 0.0000
# 2 -4.1105 53.1301 7.6878 0.0000 11.5121 0.0000
# 3 19.3018 7.6878 78.6496 0.0000 19.2401 0.0000
# 4 0.0000 0.0000 0.0000 36.4082 0.0000 3.7465
# 5 19.9619 11.5121 19.2401 0.0000 19.4293 0.0000
# 6 0.0000 0.0000 0.0000 3.7465 0.0000 18.6546
#
#
#
# Elastic Compliance Matrix: (Units=1/GPa)
#
#
# Indices 1 2 3 4 5 6 
#
# 1 0.057483 0.019920 0.001690 0.000000 -0.072535 0.000000
# 2 0.019920 0.028605 0.001937 0.000000 -0.039333 0.000000
# 3 0.001690 0.001937 0.016913 0.000000 -0.019633 0.000000
# 4 0.000000 0.000000 0.000000 0.028046 0.000000 -0.005633
# 5 -0.072535 -0.039333 -0.019633 0.000000 0.168739 0.000000
# 6 0.000000 0.000000 0.000000 -0.005633 0.000000 0.054737
#
#
# Mechanical properties :
#
#
# Convention : Reuss Voigt Hill
#
# Bulk Modulus (GPa) = 6.66242 24.55333 15.60787
# Shear Modulus (GPa) = 13.98750 25.05462 19.52106
#
# Velocity S-wave (km/s) = 2.55442 3.41875 3.01769
# Velocity P-wave (km/s) = 3.43629 5.19978 4.40714
#
# Compressibility (1/GPa) = 0.15009570
#
# Stress axis : x y z
#
# Youngs Moduli (GPa) = 17.39631 34.95879 59.12522
#
# Poissons Ratio (x) = -0.69637 -0.09992
# Poissons Ratio (y) = -0.34653 -0.11455
# Poissons Ratio (z) = -0.02940 -0.06773
#
# Static dielectric constant tensor:
#      x y z
#    x 1.774510 0.000000 0.031740 
#    y 0.000000 1.800300 0.000000 
#    z 0.031740 0.000000 1.801430 
# 
# From -- ./inp_files/54201.got.cif
#   From: 2010.05.17/outbox.cif.g08.bks.cpg/sg15_28_cif.got.tgz:54201.got - 2010.06.03 18:47:42.
