data_PCOD9273450
_publ_section_title
;
Structure prediction by ZEFSAII (Michael W. Deem and Ramdas Pophale) SiO2 
 PCOD9273450
Probable space group: C 2/C
;
_chemical_formula_sum "Si O2"
_cell_formula_units_Z 48
_cell_length_a 16.052580
_cell_length_b 5.843661
_cell_length_c 26.980613
_cell_angle_alpha 90.000000
_cell_angle_beta 57.070311
_cell_angle_gamma 90.000000
_cell_volume 2124.313982
_symmetry_space_group_name_H-M "C 2/C"
_symmetry_group_IT_number 15
_symmetry_cell_setting 'monoclinic'
loop_
_space_group_symop_operation_xyz
x,y,z
-x,y,1/2-z
-x,-y,-z
x,-y,1/2+z
1/2+x,1/2+y,z
1/2-x,1/2+y,1/2-z
1/2-x,1/2-y,-z
1/2+x,1/2-y,1/2+z
loop_
_atom_site_type_symbol
_atom_site_label
_atom_site_fract_x
_atom_site_fract_y
_atom_site_fract_z
Si Si1 0.702207 0.419229 0.657402
Si Si2 0.553922 0.940059 0.533563
Si Si3 0.394772 0.408188 0.110826
Si Si4 0.807579 0.121482 0.233686
Si Si5 0.213003 0.195966 0.425982
Si Si6 0.664448 0.806627 0.067460
O O1 0.801902 0.269698 0.635140
O O2 0.643412 0.387025 0.727330
O O3 0.739740 0.674427 0.635711
O O4 0.656957 0.348941 0.618810
O O5 0.494261 0.737095 0.578694
O O6 0.663199 0.862054 0.481470
O O7 0.500000 0.000000 0.500000
O O8 0.566790 0.151039 0.566680
O O9 0.377196 0.559243 0.165078
O O10 0.378765 0.551105 0.065879
O O11 0.737058 0.883954 0.257499
O O12 0.298193 0.044906 0.421622
O O13 0.750000 0.750000 0.000000
#
# Coordination Sequence:
#
# PCOD9273450 Si02
#       6
#     8   8   8   8   8   8
#     4  10  20  38  61  91 123 164 220 261 320 396
#     4  12  22  38  60  95 131 162 209 273 332 392
#     4  10  21  36  60  97 123 163 214 274 327 384
#     4  10  20  37  65  98 125 167 223 275 320 390
#     4  11  20  39  59  90 125 163 206 257 331 393
#     4  11  23  38  59  92 125 170 213 258 326 407
#
# _framework density 22.595528000000002
#
# number of rings (size 3 to 8) (size 9 to 14) (size 15 to 20)
#    0.000    1.333    5.000    2.000    0.000    0.000 
#    0.000    0.000    0.000    1.000   13.000    0.000 
#    0.000    0.000    0.000    0.000    0.000    0.000 
#
# Total GULP energy -133835.080556 kJ/mol
# GULP energy per Si atom -5576.461690 kJ/mol
# Density = 2.254410 g / cm^3
# Si number density = 22.595528 Si / 1000 Ang^3
#
#
#
# Elastic Constant Matrix: (Units=GPa)
#
#
# Indices 1 2 3 4 5 6 
#
# 1 68.9509 16.9498 29.3893 -0.0004 28.4669 -0.0009
# 2 16.9498 71.7450 12.7901 0.0111 6.9133 0.0115
# 3 29.3893 12.7901 89.6876 0.0029 31.5095 0.0043
# 4 -0.0004 0.0111 0.0029 42.6447 0.0000 7.2820
# 5 28.4669 6.9133 31.5095 0.0000 33.3727 -0.0007
# 6 -0.0009 0.0115 0.0043 7.2820 -0.0007 33.4751
#
#
#
# Elastic Compliance Matrix: (Units=1/GPa)
#
#
# Indices 1 2 3 4 5 6 
#
# 1 0.023314 -0.003611 -0.000600 0.000001 -0.018573 0.000001
# 2 -0.003611 0.014915 -0.001407 -0.000003 0.001319 -0.000004
# 3 -0.000600 -0.001407 0.016856 0.000000 -0.015112 -0.000002
# 4 0.000001 -0.000003 0.000000 0.024354 0.000000 -0.005298
# 5 -0.018573 0.001319 -0.015112 0.000000 0.059802 0.000002
# 6 0.000001 -0.000004 -0.000002 -0.005298 0.000002 0.031025
#
#
# Mechanical properties :
#
#
# Convention : Reuss Voigt Hill
#
# Bulk Modulus (GPa) = 22.80534 38.73798 30.77166
# Shear Modulus (GPa) = 25.49449 33.31546 29.40498
#
# Velocity S-wave (km/s) = 3.36266 3.84399 3.61135
# Velocity P-wave (km/s) = 5.01910 6.07314 5.57110
#
# Compressibility (1/GPa) = 0.04384939
#
# Stress axis : x y z
#
# Youngs Moduli (GPa) = 42.89195 67.04578 59.32510
#
# Poissons Ratio (x) = 0.24213 0.03558
# Poissons Ratio (y) = 0.15490 0.08348
# Poissons Ratio (z) = 0.02572 0.09434
#
# Static dielectric constant tensor:
#      x y z
#    x 1.875690 0.000000 0.029590 
#    y 0.000000 1.920330 0.000000 
#    z 0.029590 0.000000 1.863980 
# 
# From -- ./inp_files/275691.got.cif
#   From: 2010.05.17/outbox.cif.g08.bks.cpg/sg15_138_cif.got.tgz:275691.got - 2010.06.03 18:47:42.
