data_PCOD9273647
_publ_section_title
;
Structure prediction by ZEFSAII (Michael W. Deem and Ramdas Pophale) SiO2 
 PCOD9273647
Probable space group: C 2/C
;
_chemical_formula_sum "Si O2"
_cell_formula_units_Z 56
_cell_length_a 17.384815
_cell_length_b 24.433066
_cell_length_c 19.619808
_cell_angle_alpha 90.000000
_cell_angle_beta 157.466081
_cell_angle_gamma 90.000000
_cell_volume 3193.762625
_symmetry_space_group_name_H-M "C 2/C"
_symmetry_group_IT_number 15
_symmetry_cell_setting 'monoclinic'
loop_
_space_group_symop_operation_xyz
x,y,z
-x,y,1/2-z
-x,-y,-z
x,-y,1/2+z
1/2+x,1/2+y,z
1/2-x,1/2+y,1/2-z
1/2-x,1/2-y,-z
1/2+x,1/2-y,1/2+z
loop_
_atom_site_type_symbol
_atom_site_label
_atom_site_fract_x
_atom_site_fract_y
_atom_site_fract_z
Si Si1 0.523795 0.176880 0.110342
Si Si2 0.676080 0.523000 0.948830
Si Si3 0.830906 0.416089 0.843341
Si Si4 0.008646 0.482078 0.400690
Si Si5 0.081386 0.040971 0.508371
Si Si6 0.428106 0.713036 0.767819
Si Si7 0.792086 0.362769 0.610998
O O1 0.576137 0.144871 0.084002
O O2 0.594786 0.235495 0.199251
O O3 0.644386 0.135468 0.258809
O O4 0.282903 0.181867 0.915045
O O5 0.500000 0.532774 0.750000
O O6 0.860794 0.497449 0.058280
O O7 0.597367 0.487050 0.947343
O O8 0.745141 0.579693 0.038742
O O9 0.591556 0.413883 0.635376
O O10 0.940128 0.461491 0.882947
O O11 0.866582 0.445178 0.945175
O O12 0.808968 0.448806 0.216814
O O13 0.000000 0.000000 0.500000
O O14 0.500000 0.727534 0.750000
O O15 0.603711 0.675737 0.942520
O O16 0.000000 0.341225 0.750000
#
# Coordination Sequence:
#
# PCOD9273647 Si02
#       7
#     8   8   8   8   8   8   8
#     4  12  24  39  56  80 116 161 205 254 298 351
#     4  12  23  37  61  91 120 159 206 244 295 363
#     4  10  22  37  55  80 117 156 198 248 302 342
#     4  10  21  38  57  83 116 153 201 247 288 365
#     4  10  20  38  57  80 118 157 191 241 298 359
#     4  12  24  39  56  79 115 156 209 259 296 347
#     4  12  23  36  55  82 116 157 203 246 301 348
#
# _framework density 17.534178000000001
#
# number of rings (size 3 to 8) (size 9 to 14) (size 15 to 20)
#    0.000    0.857    4.286    5.143    2.000    1.143 
#    0.000    0.000    0.000    0.000    0.000    0.000 
#    0.000    4.571    0.000    0.000    0.000    0.000 
#
# Total GULP energy -156067.189048 kJ/mol
# GULP energy per Si atom -5573.828180 kJ/mol
# Density = 1.749427 g / cm^3
# Si number density = 17.534178 Si / 1000 Ang^3
#
#
#
# Elastic Constant Matrix: (Units=GPa)
#
#
# Indices 1 2 3 4 5 6 
#
# 1 75.6825 28.3130 11.5163 -0.0013 13.9273 0.0027
# 2 28.3130 65.7055 20.3920 -0.0008 13.3960 -0.0012
# 3 11.5163 20.3920 115.9328 0.0203 14.7817 0.0141
# 4 -0.0013 -0.0008 0.0203 12.0985 0.0137 7.6462
# 5 13.9273 13.3960 14.7817 0.0137 26.2431 -0.0033
# 6 0.0027 -0.0012 0.0141 7.6462 -0.0033 10.5890
#
#
#
# Elastic Compliance Matrix: (Units=1/GPa)
#
#
# Indices 1 2 3 4 5 6 
#
# 1 0.016489 -0.005972 0.000150 0.000022 -0.005787 -0.000023
# 2 -0.005972 0.019605 -0.002137 0.000014 -0.005634 -0.000005
# 3 0.000150 -0.002137 0.009543 -0.000004 -0.004364 -0.000011
# 4 0.000022 0.000014 -0.000004 0.152042 -0.000110 -0.109789
# 5 -0.005787 -0.005634 -0.004364 -0.000110 0.046511 0.000101
# 6 -0.000023 -0.000005 -0.000011 -0.109789 0.000101 0.173716
#
#
# Mechanical properties :
#
#
# Convention : Reuss Voigt Hill
#
# Bulk Modulus (GPa) = 33.64730 41.97372 37.81051
# Shear Modulus (GPa) = 11.26812 22.92607 17.09710
#
# Velocity S-wave (km/s) = 2.53778 3.61987 3.12600
# Velocity P-wave (km/s) = 5.27431 6.43906 5.88557
#
# Compressibility (1/GPa) = 0.02972007
#
# Stress axis : x y z
#
# Youngs Moduli (GPa) = 60.64508 51.00800 104.78824
#
# Poissons Ratio (x) = 0.30463 -0.01576
# Poissons Ratio (y) = 0.36218 0.22390
# Poissons Ratio (z) = -0.00912 0.10899
#
# Static dielectric constant tensor:
#      x y z
#    x 1.266550 -0.000100 0.122480 
#    y -0.000100 1.615230 0.000020 
#    z 0.122480 0.000020 1.575870 
# 
# From -- ./inp_files/216921.got.cif
#   From: 2010.05.17/outbox.cif.g08.bks.cpg/sg15_109_cif.got.tgz:216921.got - 2010.06.03 18:47:42.
