data_PCOD9273977
_publ_section_title
;
Structure prediction by ZEFSAII (Michael W. Deem and Ramdas Pophale) SiO2 
 PCOD9273977
Probable space group: C 2/C
;
_chemical_formula_sum "Si O2"
_cell_formula_units_Z 60
_cell_length_a 24.219450
_cell_length_b 13.950350
_cell_length_c 8.099580
_cell_angle_alpha 90.000000
_cell_angle_beta 99.495260
_cell_angle_gamma 90.000000
_cell_volume 2699.109995
_symmetry_space_group_name_H-M "C 2/C"
_symmetry_group_IT_number 15
_symmetry_cell_setting 'monoclinic'
loop_
_space_group_symop_operation_xyz
x,y,z
-x,y,1/2-z
-x,-y,-z
x,-y,1/2+z
1/2+x,1/2+y,z
1/2-x,1/2+y,1/2-z
1/2-x,1/2-y,-z
1/2+x,1/2-y,1/2+z
loop_
_atom_site_type_symbol
_atom_site_label
_atom_site_fract_x
_atom_site_fract_y
_atom_site_fract_z
Si Si1 0.398163 0.778292 0.357288
Si Si2 0.837518 0.437426 0.455355
Si Si3 0.574971 0.447014 0.028361
Si Si4 0.768857 0.178815 0.721502
Si Si5 0.000000 0.163864 0.250000
Si Si6 0.673689 0.137842 0.196901
Si Si7 0.112982 0.129194 0.886137
Si Si8 0.835882 0.196328 0.042836
O O1 0.388265 0.891351 0.373775
O O2 0.451122 0.734928 0.288133
O O3 0.398417 0.731779 0.539181
O O4 0.344747 0.737188 0.227786
O O5 0.783752 0.376444 0.371077
O O6 0.821545 0.547449 0.420945
O O7 0.849392 0.411416 0.650461
O O8 0.576300 0.407155 0.214017
O O9 0.520962 0.407811 0.905190
O O10 0.595556 0.555721 0.022264
O O11 0.624752 0.393967 0.954856
O O12 0.774624 0.294982 0.712840
O O13 0.823647 0.135093 0.653724
O O14 0.778266 0.166088 0.925099
O O15 0.642643 0.220168 0.074043
#
# Coordination Sequence:
#
# PCOD9273977 Si02
#       8
#     8   8   8   8   4   8   8   8
#     4  11  22  40  64  88 124 171 208 271 317 373
#     4  12  22  40  65  90 127 177 211 258 327 377
#     4  10  20  38  60  93 124 170 207 262 311 387
#     4   9  22  42  59  95 133 164 208 264 304 394
#     4  10  24  42  62  94 132 164 224 270 320 372
#     4  10  22  41  61  94 127 168 207 266 308 385
#     4  11  22  38  64  93 132 168 210 254 328 380
#     4   8  19  39  57  86 123 157 209 255 311 366
#
# _framework density 22.22955
#
# number of rings (size 3 to 8) (size 9 to 14) (size 15 to 20)
#    0.800    1.067    1.333    2.800    0.000    5.333 
#    4.800    0.000    0.000    7.200    0.000    0.000 
#    0.000    0.000    0.000    0.000    0.000    0.000 
#
# Total GULP energy -167078.573673 kJ/mol
# GULP energy per Si atom -5569.285789 kJ/mol
# Density = 2.217895 g / cm^3
# Si number density = 22.229550 Si / 1000 Ang^3
#
#
#
# Elastic Constant Matrix: (Units=GPa)
#
#
# Indices 1 2 3 4 5 6 
#
# 1 70.7221 26.9175 15.3322 0.0000 -8.7177 0.0000
# 2 26.9175 121.3528 7.1304 0.0000 1.5849 0.0000
# 3 15.3322 7.1304 89.2602 0.0000 10.2755 0.0000
# 4 0.0000 0.0000 0.0000 28.0750 0.0000 -8.9781
# 5 -8.7177 1.5849 10.2755 0.0000 19.3056 0.0000
# 6 0.0000 0.0000 0.0000 -8.9781 0.0000 23.2722
#
#
#
# Elastic Compliance Matrix: (Units=1/GPa)
#
#
# Indices 1 2 3 4 5 6 
#
# 1 0.017740 -0.003840 -0.003940 0.000000 0.010423 0.000000
# 2 -0.003840 0.009113 0.000231 0.000000 -0.002605 0.000000
# 3 -0.003940 0.000231 0.012856 0.000000 -0.008641 0.000000
# 4 0.000000 0.000000 0.000000 0.040632 0.000000 0.015675
# 5 0.010423 -0.002605 -0.008641 0.000000 0.061318 0.000000
# 6 0.000000 0.000000 0.000000 0.015675 0.000000 0.049017
#
#
# Mechanical properties :
#
#
# Convention : Reuss Voigt Hill
#
# Bulk Modulus (GPa) = 40.63055 42.23283 41.43169
# Shear Modulus (GPa) = 23.36695 29.59423 26.48059
#
# Velocity S-wave (km/s) = 3.24569 3.65266 3.45517
# Velocity P-wave (km/s) = 5.68888 6.06869 5.88185
#
# Compressibility (1/GPa) = 0.02461202
#
# Stress axis : x y z
#
# Youngs Moduli (GPa) = 56.36855 109.73901 77.78280
#
# Poissons Ratio (x) = 0.42136 0.30650
# Poissons Ratio (y) = 0.21643 -0.01801
# Poissons Ratio (z) = 0.22212 -0.02540
#
# Static dielectric constant tensor:
#      x y z
#    x 1.886740 0.000000 -0.012520 
#    y 0.000000 1.807870 0.000000 
#    z -0.012520 0.000000 1.908280 
# 
# From -- ./inp_files/65981.got.cif
#   From: 2010.05.17/outbox.cif.g08.bks.cpg/sg15_33_cif.got.tgz:65981.got - 2010.06.03 18:47:42.
