data_PCOD9273447
_publ_section_title
;
Structure prediction by ZEFSAII (Michael W. Deem and Ramdas Pophale) SiO2 
 PCOD9273447
Probable space group: C 2/C
;
_chemical_formula_sum "Si O2"
_cell_formula_units_Z 64
_cell_length_a 27.213660
_cell_length_b 14.428035
_cell_length_c 19.408878
_cell_angle_alpha 90.000000
_cell_angle_beta 156.436437
_cell_angle_gamma 90.000000
_cell_volume 3046.496182
_symmetry_space_group_name_H-M "C 2/C"
_symmetry_group_IT_number 15
_symmetry_cell_setting 'monoclinic'
loop_
_space_group_symop_operation_xyz
x,y,z
-x,y,1/2-z
-x,-y,-z
x,-y,1/2+z
1/2+x,1/2+y,z
1/2-x,1/2+y,1/2-z
1/2-x,1/2-y,-z
1/2+x,1/2-y,1/2+z
loop_
_atom_site_type_symbol
_atom_site_label
_atom_site_fract_x
_atom_site_fract_y
_atom_site_fract_z
Si Si1 0.746016 0.411289 0.197594
Si Si2 0.523720 0.605422 0.510794
Si Si3 0.382460 0.701163 0.139601
Si Si4 0.320182 0.265758 0.705163
Si Si5 0.008922 0.450697 0.937534
Si Si6 0.865833 0.837067 0.102746
Si Si7 0.866025 0.258361 0.746871
Si Si8 0.729845 0.980786 0.419572
O O1 0.613179 0.394014 0.059184
O O2 0.805910 0.319998 0.238698
O O3 0.737610 0.479595 0.120985
O O4 0.843975 0.442973 0.381708
O O5 0.500000 0.500000 0.500000
O O6 0.389260 0.650104 0.328399
O O7 0.592645 0.672666 0.653431
O O8 0.500000 0.667932 0.250000
O O9 0.399802 0.745843 0.236692
O O10 0.314808 0.772770 0.001346
O O11 0.292333 0.611752 0.029025
O O12 0.947814 0.349227 0.865274
O O13 0.918061 0.507029 0.769783
O O14 0.000000 0.500000 0.000000
O O15 0.882442 0.769597 0.188540
O O16 0.000000 0.863544 0.250000
O O17 0.777528 0.787716 0.932993
O O18 0.792321 0.928680 0.031275
#
# Coordination Sequence:
#
# PCOD9273447 Si02
#       8
#     8   8   8   8   8   8   8   8
#     4  10  21  41  63  93 125 174 218 271 333 396
#     4  12  27  42  65  96 138 167 218 286 337 392
#     4  10  20  37  65  97 132 170 221 272 329 392
#     4  10  21  40  62  91 128 173 216 270 329 391
#     4   9  18  39  63  92 125 164 217 260 323 395
#     4  10  22  37  64  89 124 172 214 256 327 391
#     4  10  23  41  59  94 125 166 213 272 322 389
#     4   9  19  35  64  94 124 168 215 269 312 401
#
# _framework density 21.007740999999999
#
# number of rings (size 3 to 8) (size 9 to 14) (size 15 to 20)
#    0.000    2.000    1.250    1.875    5.250    0.000 
#    4.500    3.750    0.000    0.750    0.000    0.000 
#    0.000    0.000    0.000    0.000    0.000    0.000 
#
# Total GULP energy -178248.143167 kJ/mol
# GULP energy per Si atom -5570.254474 kJ/mol
# Density = 2.095993 g / cm^3
# Si number density = 21.007741 Si / 1000 Ang^3
#
#
#
# Elastic Constant Matrix: (Units=GPa)
#
#
# Indices 1 2 3 4 5 6 
#
# 1 29.8623 22.5105 4.2359 0.0000 -2.9109 0.0000
# 2 22.5105 123.0329 41.8212 0.0000 -5.4952 0.0000
# 3 4.2359 41.8212 67.4815 0.0000 -2.6813 0.0000
# 4 0.0000 0.0000 0.0000 41.7421 0.0000 -9.0669
# 5 -2.9109 -5.4952 -2.6813 0.0000 19.9586 0.0000
# 6 0.0000 0.0000 0.0000 -9.0669 0.0000 19.7264
#
#
#
# Elastic Compliance Matrix: (Units=1/GPa)
#
#
# Indices 1 2 3 4 5 6 
#
# 1 0.039479 -0.007929 0.002592 0.000000 0.003923 0.000000
# 2 -0.007929 0.011969 -0.006871 0.000000 0.001216 0.000000
# 3 0.002592 -0.006871 0.018956 0.000000 0.001033 0.000000
# 4 0.000000 0.000000 0.000000 0.026614 0.000000 0.012232
# 5 0.003923 0.001216 0.001033 0.000000 0.051149 0.000000
# 6 0.000000 0.000000 0.000000 0.012232 0.000000 0.056316
#
#
# Mechanical properties :
#
#
# Convention : Reuss Voigt Hill
#
# Bulk Modulus (GPa) = 21.74592 39.72355 30.73474
# Shear Modulus (GPa) = 20.47267 26.40603 23.43935
#
# Velocity S-wave (km/s) = 3.12513 3.54922 3.34391
# Velocity P-wave (km/s) = 4.83692 5.97880 5.43791
#
# Compressibility (1/GPa) = 0.04598563
#
# Stress axis : x y z
#
# Youngs Moduli (GPa) = 25.33014 83.55156 52.75431
#
# Poissons Ratio (x) = 0.66247 -0.13672
# Poissons Ratio (y) = 0.20084 0.36250
# Poissons Ratio (z) = -0.06565 0.57412
#
# Static dielectric constant tensor:
#      x y z
#    x 1.731780 0.000000 -0.014790 
#    y 0.000000 1.902340 0.000000 
#    z -0.014790 0.000000 1.839670 
# 
# From -- ./inp_files/259468.got.cif
#   From: 2010.05.17/outbox.cif.g08.bks.cpg/sg15_130_cif.got.tgz:259468.got - 2010.06.03 18:47:42.
