data_PCOD9273829
_publ_section_title
;
Structure prediction by ZEFSAII (Michael W. Deem and Ramdas Pophale) SiO2 
 PCOD9273829
Probable space group: C 2/C
;
_chemical_formula_sum "Si O2"
_cell_formula_units_Z 56
_cell_length_a 11.017051
_cell_length_b 20.458662
_cell_length_c 12.720426
_cell_angle_alpha 90.000000
_cell_angle_beta 94.918150
_cell_angle_gamma 90.000000
_cell_volume 2856.553101
_symmetry_space_group_name_H-M "C 2/C"
_symmetry_group_IT_number 15
_symmetry_cell_setting 'monoclinic'
loop_
_space_group_symop_operation_xyz
x,y,z
-x,y,1/2-z
-x,-y,-z
x,-y,1/2+z
1/2+x,1/2+y,z
1/2-x,1/2+y,1/2-z
1/2-x,1/2-y,-z
1/2+x,1/2-y,1/2+z
loop_
_atom_site_type_symbol
_atom_site_label
_atom_site_fract_x
_atom_site_fract_y
_atom_site_fract_z
Si Si1 0.726885 0.385963 0.649512
Si Si2 0.380693 0.714981 0.508734
Si Si3 0.619512 0.071286 0.687223
Si Si4 0.857265 0.006838 0.500862
Si Si5 0.803061 0.425410 0.874551
Si Si6 0.627968 0.611790 0.814467
Si Si7 0.539955 0.147250 0.470239
O O1 0.628829 0.337886 0.586209
O O2 0.699746 0.458813 0.604685
O O3 0.732751 0.389716 0.774685
O O4 0.857749 0.364353 0.612352
O O5 0.250000 0.750000 0.500000
O O6 0.390863 0.678004 0.620718
O O7 0.471225 0.775684 0.505953
O O8 0.500000 0.077872 0.750000
O O9 0.744882 0.105305 0.739833
O O10 0.588914 0.108617 0.575850
O O11 0.642835 0.994262 0.666338
O O12 0.845570 0.058517 0.594208
O O13 0.786197 0.943940 0.536299
O O14 0.000000 0.000000 0.500000
O O15 0.914683 0.383040 0.922998
O O16 0.500000 0.596547 0.750000
#
# Coordination Sequence:
#
# PCOD9273829 Si02
#       7
#     8   8   8   8   8   8   8
#     4  10  20  38  59  90 122 159 206 249 314 364
#     4   9  18  38  62  82 122 163 207 255 301 376
#     4  11  22  36  61  93 128 161 198 270 321 372
#     4  10  23  38  59  85 128 164 195 253 314 380
#     4  11  23  35  62  97 123 158 208 266 312 380
#     4  10  21  38  60  89 117 163 216 245 306 382
#     4  11  20  39  61  90 121 162 207 253 319 366
#
# _framework density 19.604046
#
# number of rings (size 3 to 8) (size 9 to 14) (size 15 to 20)
#    0.000    1.714    5.714    1.714    6.000    2.286 
#    0.000    0.000    6.286    4.286    0.000    0.000 
#    0.000    0.000    0.000    0.000    0.000    0.000 
#
# Total GULP energy -156135.843661 kJ/mol
# GULP energy per Si atom -5576.280131 kJ/mol
# Density = 1.955943 g / cm^3
# Si number density = 19.604046 Si / 1000 Ang^3
#
#
#
# Elastic Constant Matrix: (Units=GPa)
#
#
# Indices 1 2 3 4 5 6 
#
# 1 118.5855 36.8218 36.0521 0.0000 12.4861 0.0000
# 2 36.8218 94.6371 32.1708 0.0000 4.5652 0.0000
# 3 36.0521 32.1708 53.5937 0.0000 19.1479 0.0000
# 4 0.0000 0.0000 0.0000 3.8951 0.0000 -2.9579
# 5 12.4861 4.5652 19.1479 0.0000 26.4065 0.0000
# 6 0.0000 0.0000 0.0000 -2.9579 0.0000 23.3065
#
#
#
# Elastic Compliance Matrix: (Units=1/GPa)
#
#
# Indices 1 2 3 4 5 6 
#
# 1 0.010962 -0.002263 -0.005809 0.000000 -0.000580 0.000000
# 2 -0.002263 0.014190 -0.008775 0.000000 0.004979 0.000000
# 3 -0.005809 -0.008775 0.035510 0.000000 -0.021485 0.000000
# 4 0.000000 0.000000 0.000000 0.284116 0.000000 0.036058
# 5 -0.000580 0.004979 -0.021485 0.000000 0.052862 0.000000
# 6 0.000000 0.000000 0.000000 0.036058 0.000000 0.047483
#
#
# Mechanical properties :
#
#
# Convention : Reuss Voigt Hill
#
# Bulk Modulus (GPa) = 37.07859 52.98951 45.03405
# Shear Modulus (GPa) = 10.24999 21.50639 15.87819
#
# Velocity S-wave (km/s) = 2.28907 3.31575 2.84904
# Velocity P-wave (km/s) = 5.09326 6.46123 5.81759
#
# Compressibility (1/GPa) = 0.02696974
#
# Stress axis : x y z
#
# Youngs Moduli (GPa) = 91.22113 70.47372 28.16116
#
# Poissons Ratio (x) = 0.15946 0.16358
# Poissons Ratio (y) = 0.20640 0.24710
# Poissons Ratio (z) = 0.52988 0.61838
#
# Static dielectric constant tensor:
#      x y z
#    x 1.731410 0.000000 -0.024930 
#    y 0.000000 1.718770 0.000000 
#    z -0.024930 0.000000 1.704510 
# 
# From -- ./inp_files/88913.got.cif
#   From: 2010.05.17/outbox.cif.g08.bks.cpg/sg15_45_cif.got.tgz:88913.got - 2010.06.03 18:47:42.
