data_PCOD9273869
_publ_section_title
;
Structure prediction by ZEFSAII (Michael W. Deem and Ramdas Pophale) SiO2 
 PCOD9273869
Probable space group: C 2/C
;
_chemical_formula_sum "Si O2"
_cell_formula_units_Z 40
_cell_length_a 33.352789
_cell_length_b 11.699942
_cell_length_c 22.151829
_cell_angle_alpha 90.000000
_cell_angle_beta 12.275232
_cell_angle_gamma 90.000000
_cell_volume 1837.828870
_symmetry_space_group_name_H-M "C 2/C"
_symmetry_group_IT_number 15
_symmetry_cell_setting 'monoclinic'
loop_
_space_group_symop_operation_xyz
x,y,z
-x,y,1/2-z
-x,-y,-z
x,-y,1/2+z
1/2+x,1/2+y,z
1/2-x,1/2+y,1/2-z
1/2-x,1/2-y,-z
1/2+x,1/2-y,1/2+z
loop_
_atom_site_type_symbol
_atom_site_label
_atom_site_fract_x
_atom_site_fract_y
_atom_site_fract_z
Si Si1 0.213438 0.902735 0.909672
Si Si2 0.254048 0.562164 0.530832
Si Si3 0.027983 0.820014 0.475052
Si Si4 0.116653 0.295430 0.134471
Si Si5 0.568879 0.462911 0.993884
O O1 0.296328 0.997954 0.833838
O O2 0.334348 0.787128 0.732430
O O3 0.193987 0.944903 0.869243
O O4 0.000000 0.883914 0.250000
O O5 0.096774 0.625026 0.721884
O O6 0.412256 0.660863 0.311400
O O7 0.359195 0.478569 0.330129
O O8 0.116835 0.927484 0.381128
O O9 0.952089 0.858706 0.521325
O O10 0.835593 0.795004 0.793749
O O11 0.000000 0.338053 0.250000
#
# Coordination Sequence:
#
# PCOD9273869 Si02
#       5
#     8   8   8   8   8
#     4  10  21  39  62  87 119 154 191 243 297 347
#     4   9  20  37  59  85 117 153 198 242 288 350
#     4  10  22  39  60  87 116 152 198 239 288 358
#     4  10  20  38  60  83 118 159 196 240 291 341
#     4   9  20  40  59  82 123 153 185 245 297 339
#
# _framework density 21.764810000000001
#
# number of rings (size 3 to 8) (size 9 to 14) (size 15 to 20)
#    0.000    2.400    0.000    1.800    0.000   10.400 
#    0.000   19.000    0.000    0.000    0.000    0.000 
#    0.000    0.000    0.000    0.000    0.000    0.000 
#
# Total GULP energy -111551.697199 kJ/mol
# GULP energy per Si atom -5577.584860 kJ/mol
# Density = 2.171527 g / cm^3
# Si number density = 21.764810 Si / 1000 Ang^3
#
#
#
# Elastic Constant Matrix: (Units=GPa)
#
#
# Indices 1 2 3 4 5 6 
#
# 1 210.8741 78.8949 22.2739 0.0002 24.8284 0.0008
# 2 78.8949 101.9102 23.3100 0.0015 4.6991 -0.0008
# 3 22.2739 23.3100 69.6224 0.0018 8.1575 0.0011
# 4 0.0002 0.0015 0.0018 31.7333 -0.0003 9.8400
# 5 24.8284 4.6991 8.1575 -0.0003 27.5691 -0.0008
# 6 0.0008 -0.0008 0.0011 9.8400 -0.0008 38.0444
#
#
#
# Elastic Compliance Matrix: (Units=1/GPa)
#
#
# Indices 1 2 3 4 5 6 
#
# 1 0.007499 -0.005570 0.000151 0.000000 -0.005849 0.000000
# 2 -0.005570 0.014780 -0.003583 -0.000001 0.003557 0.000001
# 3 0.000151 -0.003583 0.016014 -0.000001 -0.004264 0.000000
# 4 0.000000 -0.000001 -0.000001 0.034260 0.000000 -0.008861
# 5 -0.005849 0.003557 -0.004264 0.000000 0.042195 0.000001
# 6 0.000000 0.000001 0.000000 -0.008861 0.000001 0.028577
#
#
# Mechanical properties :
#
#
# Convention : Reuss Voigt Hill
#
# Bulk Modulus (GPa) = 49.28878 70.15159 59.72018
# Shear Modulus (GPa) = 29.74539 36.66455 33.20497
#
# Velocity S-wave (km/s) = 3.70087 4.10882 3.91016
# Velocity P-wave (km/s) = 6.39978 7.40348 6.91985
#
# Compressibility (1/GPa) = 0.02028859
#
# Stress axis : x y z
#
# Youngs Moduli (GPa) = 133.35465 67.65740 62.44476
#
# Poissons Ratio (x) = 0.37686 -0.00944
# Poissons Ratio (y) = 0.74281 0.22376
# Poissons Ratio (z) = -0.02016 0.24244
#
# Static dielectric constant tensor:
#      x y z
#    x 1.833470 0.000000 0.009760 
#    y 0.000000 1.843010 0.000000 
#    z 0.009760 0.000000 1.850640 
# 
# From -- ./inp_files/225332.got.cif
#   From: 2010.05.17/outbox.cif.g08.bks.cpg/sg15_113_cif.got.tgz:225332.got - 2010.06.03 18:47:42.
