data_PCOD9273597
_publ_section_title
;
Structure prediction by ZEFSAII (Michael W. Deem and Ramdas Pophale) SiO2 
 PCOD9273597
Probable space group: C 2/C
;
_chemical_formula_sum "Si O2"
_cell_formula_units_Z 44
_cell_length_a 11.624458
_cell_length_b 26.128856
_cell_length_c 7.928794
_cell_angle_alpha 90.000000
_cell_angle_beta 113.340162
_cell_angle_gamma 90.000000
_cell_volume 2211.173487
_symmetry_space_group_name_H-M "C 2/C"
_symmetry_group_IT_number 15
_symmetry_cell_setting 'monoclinic'
loop_
_space_group_symop_operation_xyz
x,y,z
-x,y,1/2-z
-x,-y,-z
x,-y,1/2+z
1/2+x,1/2+y,z
1/2-x,1/2+y,1/2-z
1/2-x,1/2-y,-z
1/2+x,1/2-y,1/2+z
loop_
_atom_site_type_symbol
_atom_site_label
_atom_site_fract_x
_atom_site_fract_y
_atom_site_fract_z
Si Si1 0.349868 0.865859 0.178789
Si Si2 0.618214 0.437458 0.607045
Si Si3 0.835138 0.045732 0.966986
Si Si4 0.000000 0.300285 0.750000
Si Si5 0.248143 0.338223 0.748527
Si Si6 0.843051 0.735815 0.897781
O O1 0.500000 0.873706 0.250000
O O2 0.270723 0.917381 0.172156
O O3 0.324835 0.817573 0.288866
O O4 0.298744 0.852499 0.963711
O O5 0.689853 0.485428 0.567849
O O6 0.472870 0.442619 0.470196
O O7 0.668582 0.380675 0.610488
O O8 0.640792 0.444593 0.820917
O O9 0.123090 0.332589 0.787790
O O10 0.976580 0.267556 0.568525
O O11 0.323567 0.285279 0.772997
O O12 0.750000 0.750000 0.000000
#
# Coordination Sequence:
#
# PCOD9273597 Si02
#       6
#     8   8   8   4   8   8
#     4  11  21  40  61  90 123 160 203 250 302 361
#     4   9  19  38  59  85 117 153 201 247 295 361
#     4   9  20  38  60  86 118 155 201 248 298 357
#     4  10  20  38  54  86 124 146 198 252 300 364
#     4  10  21  38  60  87 118 159 199 248 305 356
#     4  10  22  37  58  84 121 158 195 244 302 364
#
# _framework density 19.898937
#
# number of rings (size 3 to 8) (size 9 to 14) (size 15 to 20)
#    0.000    2.182    1.818    0.545    0.000    5.818 
#    8.182    3.636    0.000    0.000    0.000    0.000 
#    0.000    0.000    0.000    0.000    0.000    0.000 
#
# Total GULP energy -122494.868022 kJ/mol
# GULP energy per Si atom -5567.948546 kJ/mol
# Density = 1.985365 g / cm^3
# Si number density = 19.898937 Si / 1000 Ang^3
#
#
#
# Elastic Constant Matrix: (Units=GPa)
#
#
# Indices 1 2 3 4 5 6 
#
# 1 56.6938 48.0539 10.2097 0.0000 5.2579 0.0000
# 2 48.0539 114.7207 26.2639 0.0000 15.4492 0.0000
# 3 10.2097 26.2639 53.0749 0.0000 15.1059 0.0000
# 4 0.0000 0.0000 0.0000 34.7958 0.0000 3.1515
# 5 5.2579 15.4492 15.1059 0.0000 19.2280 0.0000
# 6 0.0000 0.0000 0.0000 3.1515 0.0000 33.7649
#
#
#
# Elastic Compliance Matrix: (Units=1/GPa)
#
#
# Indices 1 2 3 4 5 6 
#
# 1 0.027413 -0.011741 -0.000019 0.000000 0.001953 0.000000
# 2 -0.011741 0.015289 -0.003509 0.000000 -0.006317 0.000000
# 3 -0.000019 -0.003509 0.025473 0.000000 -0.017188 0.000000
# 4 0.000000 0.000000 0.000000 0.028984 0.000000 -0.002705
# 5 0.001953 -0.006317 -0.017188 0.000000 0.070052 0.000000
# 6 0.000000 0.000000 0.000000 -0.002705 0.000000 0.029869
#
#
# Mechanical properties :
#
#
# Convention : Reuss Voigt Hill
#
# Bulk Modulus (GPa) = 26.57003 43.72717 35.14860
# Shear Modulus (GPa) = 20.81905 26.88852 23.85378
#
# Velocity S-wave (km/s) = 3.23807 3.67993 3.46605
# Velocity P-wave (km/s) = 5.23083 6.33073 5.80688
#
# Compressibility (1/GPa) = 0.03763639
#
# Stress axis : x y z
#
# Youngs Moduli (GPa) = 36.47923 65.40630 39.25672
#
# Poissons Ratio (x) = 0.76795 0.00074
# Poissons Ratio (y) = 0.42831 0.13776
# Poissons Ratio (z) = 0.00069 0.22953
#
# Static dielectric constant tensor:
#      x y z
#    x 1.756380 0.000000 -0.032320 
#    y 0.000000 1.789660 0.000000 
#    z -0.032320 0.000000 1.756230 
# 
# From -- ./inp_files/32227.got.cif
#   From: 2010.05.17/outbox.cif.g08.bks.cpg/sg15_17_cif.got.tgz:32227.got - 2010.06.03 18:47:42.
