data_PCOD9273687
_publ_section_title
;
Structure prediction by ZEFSAII (Michael W. Deem and Ramdas Pophale) SiO2 
 PCOD9273687
Probable space group: C 2/C
;
_chemical_formula_sum "Si O2"
_cell_formula_units_Z 56
_cell_length_a 25.285485
_cell_length_b 17.176284
_cell_length_c 21.140430
_cell_angle_alpha 90.000000
_cell_angle_beta 20.763888
_cell_angle_gamma 90.000000
_cell_volume 3255.009315
_symmetry_space_group_name_H-M "C 2/C"
_symmetry_group_IT_number 15
_symmetry_cell_setting 'monoclinic'
loop_
_space_group_symop_operation_xyz
x,y,z
-x,y,1/2-z
-x,-y,-z
x,-y,1/2+z
1/2+x,1/2+y,z
1/2-x,1/2+y,1/2-z
1/2-x,1/2-y,-z
1/2+x,1/2-y,1/2+z
loop_
_atom_site_type_symbol
_atom_site_label
_atom_site_fract_x
_atom_site_fract_y
_atom_site_fract_z
Si Si1 0.391719 0.572617 0.128314
Si Si2 0.424396 0.985872 0.188040
Si Si3 0.276582 0.736689 0.584629
Si Si4 0.673496 0.417272 0.545985
Si Si5 0.409641 0.892618 0.606107
Si Si6 0.035024 0.226580 0.008736
Si Si7 0.820880 0.586121 0.015867
O O1 0.254643 0.578862 0.232477
O O2 0.484200 0.652741 0.025428
O O3 0.310143 0.568994 0.287474
O O4 0.500000 0.500000 0.000000
O O5 0.259280 0.966711 0.396748
O O6 0.439890 0.071647 0.141082
O O7 0.474437 0.930370 0.073772
O O8 0.538126 0.962434 0.116860
O O9 0.310703 0.672527 0.494188
O O10 0.102198 0.751665 0.791065
O O11 0.334020 0.707779 0.588693
O O12 0.349378 0.820865 0.489450
O O13 0.500000 0.435121 0.750000
O O14 0.761439 0.429449 0.512827
O O15 0.422002 0.800690 0.581496
#
# Coordination Sequence:
#
# PCOD9273687 Si02
#       7
#     8   8   8   8   8   8   8
#     4  10  22  36  57  85 120 148 191 253 296 346
#     4  10  21  36  56  75 111 157 197 241 276 339
#     4  11  20  34  50  79 117 159 191 231 277 351
#     4  12  23  32  53  81 118 159 193 234 289 344
#     4  10  20  38  58  81 110 155 199 240 296 333
#     4  11  19  36  57  81 116 150 199 234 289 349
#     4  10  21  38  50  82 113 159 201 230 286 348
#
# _framework density 17.204252
#
# number of rings (size 3 to 8) (size 9 to 14) (size 15 to 20)
#    0.000    1.429    5.714    2.571    4.000    2.286 
#    0.000    0.000    0.000    0.000    0.000    1.000 
#    0.000    0.000    0.000    0.000    0.000    0.000 
#
# Total GULP energy -156272.601937 kJ/mol
# GULP energy per Si atom -5581.164355 kJ/mol
# Density = 1.716509 g / cm^3
# Si number density = 17.204252 Si / 1000 Ang^3
#
#
#
# Elastic Constant Matrix: (Units=GPa)
#
#
# Indices 1 2 3 4 5 6 
#
# 1 84.0353 37.9599 30.8820 0.0011 0.2189 -0.0004
# 2 37.9599 75.7381 49.0078 0.0015 -1.8425 -0.0006
# 3 30.8820 49.0078 91.6561 0.0038 -1.8716 -0.0009
# 4 0.0011 0.0015 0.0038 19.9080 -0.0014 1.0650
# 5 0.2189 -1.8425 -1.8716 -0.0014 8.6072 0.0006
# 6 -0.0004 -0.0006 -0.0009 1.0650 0.0006 30.1700
#
#
#
# Elastic Compliance Matrix: (Units=1/GPa)
#
#
# Indices 1 2 3 4 5 6 
#
# 1 0.015583 -0.006785 -0.001668 0.000000 -0.002211 0.000000
# 2 -0.006785 0.023176 -0.010046 0.000001 0.002949 0.000000
# 3 -0.001668 -0.010046 0.016876 -0.000002 0.001561 0.000000
# 4 0.000000 0.000001 -0.000002 0.050326 0.000008 -0.001776
# 5 -0.002211 0.002949 0.001561 0.000008 0.117209 -0.000002
# 6 0.000000 0.000000 0.000000 -0.001776 -0.000002 0.033208
#
#
# Mechanical properties :
#
#
# Convention : Reuss Voigt Hill
#
# Bulk Modulus (GPa) = 53.65425 54.12544 53.88984
# Shear Modulus (GPa) = 16.68960 20.64237 18.66598
#
# Velocity S-wave (km/s) = 3.11800 3.46763 3.29745
# Velocity P-wave (km/s) = 6.64958 6.89648 6.77415
#
# Compressibility (1/GPa) = 0.01863785
#
# Stress axis : x y z
#
# Youngs Moduli (GPa) = 64.17138 43.14800 59.25718
#
# Poissons Ratio (x) = 0.29276 0.09883
# Poissons Ratio (y) = 0.43540 0.59528
# Poissons Ratio (z) = 0.10703 0.43345
#
# Static dielectric constant tensor:
#      x y z
#    x 1.597420 0.000000 -0.033510 
#    y 0.000000 1.586710 0.000000 
#    z -0.033510 0.000000 1.623820 
# 
# From -- ./inp_files/56071.got.cif
#   From: 2010.05.17/outbox.cif.g08.bks.cpg/sg15_29_cif.got.tgz:56071.got - 2010.06.03 18:47:42.
