data_PCOD9273824
_publ_section_title
;
Structure prediction by ZEFSAII (Michael W. Deem and Ramdas Pophale) SiO2 
 PCOD9273824
Probable space group: C 2/C
;
_chemical_formula_sum "Si O2"
_cell_formula_units_Z 56
_cell_length_a 21.268127
_cell_length_b 10.919468
_cell_length_c 16.102753
_cell_angle_alpha 90.000000
_cell_angle_beta 44.112419
_cell_angle_gamma 90.000000
_cell_volume 2603.051718
_symmetry_space_group_name_H-M "C 2/C"
_symmetry_group_IT_number 15
_symmetry_cell_setting 'monoclinic'
loop_
_space_group_symop_operation_xyz
x,y,z
-x,y,1/2-z
-x,-y,-z
x,-y,1/2+z
1/2+x,1/2+y,z
1/2-x,1/2+y,1/2-z
1/2-x,1/2-y,-z
1/2+x,1/2-y,1/2+z
loop_
_atom_site_type_symbol
_atom_site_label
_atom_site_fract_x
_atom_site_fract_y
_atom_site_fract_z
Si Si1 0.589169 0.927637 0.035803
Si Si2 0.477754 0.747698 0.535272
Si Si3 0.280975 0.740771 0.789532
Si Si4 0.500000 0.761486 0.250000
Si Si5 0.383553 0.200779 0.457742
Si Si6 0.955802 0.929562 0.658797
Si Si7 0.500000 0.369419 0.250000
Si Si8 0.762682 0.021952 0.263784
O O1 0.570526 0.840624 0.130829
O O2 0.529504 0.867391 0.017840
O O3 0.575002 0.064605 0.082185
O O4 0.688206 0.935045 0.901721
O O5 0.389050 0.745642 0.677162
O O6 0.567590 0.749207 0.504762
O O7 0.480411 0.629573 0.472272
O O8 0.223653 0.704975 0.925297
O O9 0.251998 0.624238 0.757601
O O10 0.250024 0.878266 0.796001
O O11 0.552872 0.677164 0.264766
O O12 0.416453 0.281243 0.349941
O O13 0.860768 0.961660 0.709463
O O14 0.990793 0.043656 0.678728
#
# Coordination Sequence:
#
# PCOD9273824 Si02
#       8
#     8   8   8   4   8   8   4   8
#     4   9  20  36  59  87 122 151 202 248 297 374
#     4  10  20  38  66  88 113 158 210 254 297 349
#     4  10  22  36  61  93 118 151 204 258 300 356
#     4   9  19  38  56  82 119 165 196 238 294 369
#     4  11  21  39  59  87 127 157 196 250 314 351
#     4  10  21  39  62  85 117 160 207 246 297 355
#     4  11  25  36  58  90 123 167 198 238 308 375
#     4  10  20  38  59  89 119 150 203 256 303 352
#
# _framework density 21.513210999999998
#
# number of rings (size 3 to 8) (size 9 to 14) (size 15 to 20)
#    0.000    2.000    1.429    1.714    2.000    1.714 
#    0.000    7.857    0.000    0.000    0.000    0.000 
#    0.000    0.000    0.000    0.000    0.000    0.000 
#
# Total GULP energy -156110.449455 kJ/mol
# GULP energy per Si atom -5575.373195 kJ/mol
# Density = 2.146425 g / cm^3
# Si number density = 21.513211 Si / 1000 Ang^3
#
#
#
# Elastic Constant Matrix: (Units=GPa)
#
#
# Indices 1 2 3 4 5 6 
#
# 1 46.4510 2.3058 11.7011 0.0000 -0.4191 0.0000
# 2 2.3058 114.6888 9.8447 0.0000 15.3709 0.0000
# 3 11.7011 9.8447 64.2243 0.0000 0.3431 0.0000
# 4 0.0000 0.0000 0.0000 36.8012 0.0000 -0.7014
# 5 -0.4191 15.3709 0.3431 0.0000 21.4707 0.0000
# 6 0.0000 0.0000 0.0000 -0.7014 0.0000 13.0273
#
#
#
# Elastic Compliance Matrix: (Units=1/GPa)
#
#
# Indices 1 2 3 4 5 6 
#
# 1 0.022573 -0.000189 -0.004087 0.000000 0.000641 0.000000
# 2 -0.000189 0.009782 -0.001428 0.000000 -0.006984 0.000000
# 3 -0.004087 -0.001428 0.016530 0.000000 0.000678 0.000000
# 4 0.000000 0.000000 0.000000 0.027201 0.000000 0.001464
# 5 0.000641 -0.006984 0.000678 0.000000 0.051576 0.000000
# 6 0.000000 0.000000 0.000000 0.001464 0.000000 0.076841
#
#
# Mechanical properties :
#
#
# Convention : Reuss Voigt Hill
#
# Bulk Modulus (GPa) = 26.68274 30.34079 28.51176
# Shear Modulus (GPa) = 21.89121 27.69400 24.79260
#
# Velocity S-wave (km/s) = 3.19340 3.59179 3.39844
# Velocity P-wave (km/s) = 5.10166 5.59779 5.35547
#
# Compressibility (1/GPa) = 0.03747741
#
# Stress axis : x y z
#
# Youngs Moduli (GPa) = 44.30119 102.23330 60.49505
#
# Poissons Ratio (x) = 0.01931 0.24724
# Poissons Ratio (y) = 0.00837 0.08637
# Poissons Ratio (z) = 0.18106 0.14595
#
# Static dielectric constant tensor:
#      x y z
#    x 1.768380 0.000000 0.024410 
#    y 0.000000 1.854580 0.000000 
#    z 0.024410 0.000000 1.771720 
# 
# From -- ./inp_files/219085.got.cif
#   From: 2010.05.17/outbox.cif.g08.bks.cpg/sg15_110_cif.got.tgz:219085.got - 2010.06.03 18:47:42.
