data_PCOD9273843
_publ_section_title
;
Structure prediction by ZEFSAII (Michael W. Deem and Ramdas Pophale) SiO2 
 PCOD9273843
Probable space group: C 2/C
;
_chemical_formula_sum "Si O2"
_cell_formula_units_Z 64
_cell_length_a 11.607506
_cell_length_b 14.248427
_cell_length_c 29.433600
_cell_angle_alpha 90.000000
_cell_angle_beta 143.541351
_cell_angle_gamma 90.000000
_cell_volume 2892.763415
_symmetry_space_group_name_H-M "C 2/C"
_symmetry_group_IT_number 15
_symmetry_cell_setting 'monoclinic'
loop_
_space_group_symop_operation_xyz
x,y,z
-x,y,1/2-z
-x,-y,-z
x,-y,1/2+z
1/2+x,1/2+y,z
1/2-x,1/2+y,1/2-z
1/2-x,1/2-y,-z
1/2+x,1/2-y,1/2+z
loop_
_atom_site_type_symbol
_atom_site_label
_atom_site_fract_x
_atom_site_fract_y
_atom_site_fract_z
Si Si1 0.215707 0.967455 0.827373
Si Si2 0.103794 0.783171 0.540773
Si Si3 0.696172 0.364934 0.249430
Si Si4 0.204573 0.479423 0.297127
Si Si5 0.268027 0.584284 0.579148
Si Si6 0.135184 0.574982 0.435470
Si Si7 0.274339 0.821694 0.692901
Si Si8 0.178530 0.931100 0.067611
O O1 0.207599 0.065033 0.795830
O O2 0.254144 0.000160 0.891618
O O3 0.000000 0.925738 0.750000
O O4 0.405051 0.911012 0.870472
O O5 0.125125 0.672351 0.541709
O O6 0.254965 0.838593 0.555000
O O7 0.162819 0.810045 0.610423
O O8 0.891766 0.827040 0.465983
O O9 0.826818 0.404563 0.251047
O O10 0.481353 0.374704 0.159301
O O11 0.757231 0.262443 0.282911
O O12 0.289919 0.577822 0.307048
O O13 0.300978 0.438403 0.372083
O O14 0.000000 0.512989 0.250000
O O15 0.237058 0.557703 0.516681
O O16 0.159480 0.482715 0.411250
O O17 0.500000 0.808028 0.750000
O O18 0.000000 0.000000 0.000000
#
# Coordination Sequence:
#
# PCOD9273843 Si02
#       8
#     8   8   8   8   8   8   8   8
#     4  10  22  40  61  90 129 171 219 263 317 392
#     4  11  21  39  64  95 128 160 216 274 324 384
#     4  11  21  37  65  94 126 170 221 268 326 386
#     4  11  23  38  65  93 128 169 212 268 332 384
#     4  11  22  39  62  92 125 171 213 268 325 388
#     4  11  22  38  65  93 129 168 216 267 325 381
#     4  11  20  38  63  94 125 164 219 272 313 387
#     4  10  20  38  59  97 129 155 211 268 313 385
#
# _framework density 22.124172999999999
#
# number of rings (size 3 to 8) (size 9 to 14) (size 15 to 20)
#    0.000    1.250    5.000    3.375    1.750    0.000 
#    0.000    0.625    0.000   12.000    0.000    0.000 
#    0.000    0.000    0.000    0.000    0.000    0.000 
#
# Total GULP energy -178616.516344 kJ/mol
# GULP energy per Si atom -5581.766136 kJ/mol
# Density = 2.207382 g / cm^3
# Si number density = 22.124173 Si / 1000 Ang^3
#
#
#
# Elastic Constant Matrix: (Units=GPa)
#
#
# Indices 1 2 3 4 5 6 
#
# 1 72.1934 13.4471 24.3664 0.0000 -15.6345 0.0000
# 2 13.4471 45.2515 17.2284 0.0000 -25.8445 0.0000
# 3 24.3664 17.2284 107.3765 0.0000 -28.8101 0.0000
# 4 0.0000 0.0000 0.0000 24.6366 0.0000 -6.9756
# 5 -15.6345 -25.8445 -28.8101 0.0000 36.8516 0.0000
# 6 0.0000 0.0000 0.0000 -6.9756 0.0000 32.2941
#
#
#
# Elastic Compliance Matrix: (Units=1/GPa)
#
#
# Indices 1 2 3 4 5 6 
#
# 1 0.015746 -0.001695 -0.002313 0.000000 0.003683 0.000000
# 2 -0.001695 0.037189 0.001547 0.000000 0.026572 0.000000
# 3 -0.002313 0.001547 0.012170 0.000000 0.009618 0.000000
# 4 0.000000 0.000000 0.000000 0.043234 0.000000 0.009339
# 5 0.003683 0.026572 0.009618 0.000000 0.054853 0.000000
# 6 0.000000 0.000000 0.000000 0.009339 0.000000 0.032983
#
#
# Mechanical properties :
#
#
# Convention : Reuss Voigt Hill
#
# Bulk Modulus (GPa) = 16.61565 37.21169 26.91367
# Shear Modulus (GPa) = 22.60832 30.07510 26.34171
#
# Velocity S-wave (km/s) = 3.20016 3.69097 3.45429
# Velocity P-wave (km/s) = 4.60230 5.91780 5.30102
#
# Compressibility (1/GPa) = 0.06018422
#
# Stress axis : x y z
#
# Youngs Moduli (GPa) = 63.50947 26.88949 82.16698
#
# Poissons Ratio (x) = 0.04557 0.19004
# Poissons Ratio (y) = 0.10763 -0.12712
# Poissons Ratio (z) = 0.14689 -0.04160
#
# Static dielectric constant tensor:
#      x y z
#    x 2.074300 0.000000 -0.076840 
#    y 0.000000 1.875990 0.000000 
#    z -0.076840 0.000000 1.949460 
# 
# From -- ./inp_files/293093.got.cif
#   From: 2010.05.17/outbox.cif.g08.bks.cpg/sg15_147_cif.got.tgz:293093.got - 2010.06.03 18:47:42.
