data_PCOD9273316
_publ_section_title
;
Structure prediction by ZEFSAII (Michael W. Deem and Ramdas Pophale) SiO2 
 PCOD9273316
Probable space group: C 2/C
;
_chemical_formula_sum "Si O2"
_cell_formula_units_Z 48
_cell_length_a 14.693092
_cell_length_b 12.581122
_cell_length_c 30.004942
_cell_angle_alpha 90.000000
_cell_angle_beta 25.507815
_cell_angle_gamma 90.000000
_cell_volume 2388.547509
_symmetry_space_group_name_H-M "C 2/C"
_symmetry_group_IT_number 15
_symmetry_cell_setting 'monoclinic'
loop_
_space_group_symop_operation_xyz
x,y,z
-x,y,1/2-z
-x,-y,-z
x,-y,1/2+z
1/2+x,1/2+y,z
1/2-x,1/2+y,1/2-z
1/2-x,1/2-y,-z
1/2+x,1/2-y,1/2+z
loop_
_atom_site_type_symbol
_atom_site_label
_atom_site_fract_x
_atom_site_fract_y
_atom_site_fract_z
Si Si1 0.593767 0.497928 0.067574
Si Si2 0.747175 0.690361 0.369846
Si Si3 0.409409 0.115396 0.864393
Si Si4 0.135193 0.209654 0.594329
Si Si5 0.348261 0.714002 0.184454
Si Si6 0.214252 0.055230 0.866991
O O1 0.624577 0.417923 0.094528
O O2 0.434088 0.593701 0.150581
O O3 0.482486 0.428873 0.078050
O O4 0.797295 0.547144 0.952661
O O5 0.730591 0.754584 0.422383
O O6 0.628540 0.736468 0.378910
O O7 0.699983 0.564448 0.392325
O O8 0.000000 0.695479 0.250000
O O9 0.512897 0.214360 0.843908
O O10 0.246574 0.132628 0.894937
O O11 0.592543 0.059721 0.753983
O O12 0.250000 0.250000 0.500000
O O13 0.899511 0.261662 0.698147
#
# Coordination Sequence:
#
# PCOD9273316 Si02
#       6
#     8   8   8   8   8   8
#     4  11  23  38  64  91 123 164 200 253 316 368
#     4   9  18  37  59  83 121 161 193 250 312 358
#     4  11  20  37  61  93 120 156 205 258 306 366
#     4  11  23  37  64  96 121 160 216 255 297 372
#     4  10  23  41  60  87 129 164 201 252 321 362
#     4  10  20  37  64  92 120 151 207 267 307 352
#
# _framework density 20.095894999999999
#
# number of rings (size 3 to 8) (size 9 to 14) (size 15 to 20)
#    0.000    1.667    3.333    2.000    4.667    1.333 
#    0.000    0.833   11.000    0.000    0.000    0.000 
#    0.000    0.000    0.000    0.000    0.000    0.000 
#
# Total GULP energy -133823.263015 kJ/mol
# GULP energy per Si atom -5575.969292 kJ/mol
# Density = 2.005016 g / cm^3
# Si number density = 20.095895 Si / 1000 Ang^3
#
#
#
# Elastic Constant Matrix: (Units=GPa)
#
#
# Indices 1 2 3 4 5 6 
#
# 1 147.3189 76.2459 12.2837 0.0013 12.7673 -0.0001
# 2 76.2459 101.8738 41.7952 0.0009 8.0312 -0.0004
# 3 12.2837 41.7952 93.3432 -0.0025 15.4050 0.0017
# 4 0.0013 0.0009 -0.0025 24.5018 -0.0001 -0.4679
# 5 12.7673 8.0312 15.4050 -0.0001 25.3088 -0.0001
# 6 -0.0001 -0.0004 0.0017 -0.4679 -0.0001 45.1975
#
#
#
# Elastic Compliance Matrix: (Units=1/GPa)
#
#
# Indices 1 2 3 4 5 6 
#
# 1 0.012298 -0.010390 0.003906 0.000000 -0.005284 0.000000
# 2 -0.010390 0.020811 -0.008589 -0.000001 0.003865 0.000001
# 3 0.003906 -0.008589 0.015475 0.000002 -0.008664 -0.000001
# 4 0.000000 -0.000001 0.000002 0.040821 0.000000 0.000423
# 5 -0.005284 0.003865 -0.008664 0.000000 0.046225 0.000000
# 6 0.000000 0.000001 -0.000001 0.000423 0.000000 0.022130
#
#
# Mechanical properties :
#
#
# Convention : Reuss Voigt Hill
#
# Bulk Modulus (GPa) = 54.23676 67.02063 60.62870
# Shear Modulus (GPa) = 25.76642 33.14902 29.45772
#
# Velocity S-wave (km/s) = 3.58463 4.06586 3.83281
# Velocity P-wave (km/s) = 6.64683 7.44745 7.05850
#
# Compressibility (1/GPa) = 0.01843768
#
# Stress axis : x y z
#
# Youngs Moduli (GPa) = 81.31683 48.05097 64.62097
#
# Poissons Ratio (x) = 0.49924 -0.25240
# Poissons Ratio (y) = 0.84487 0.55503
# Poissons Ratio (z) = -0.31761 0.41271
#
# Static dielectric constant tensor:
#      x y z
#    x 1.740060 0.000000 -0.029970 
#    y 0.000000 1.727420 0.000000 
#    z -0.029970 0.000000 1.823990 
# 
# From -- ./inp_files/313544.got.cif
#   From: 2010.05.17/outbox.cif.g08.bks.cpg/sg15_157_cif.got.tgz:313544.got - 2010.06.03 18:47:42.
