data_PCOD9273496
_publ_section_title
;
Structure prediction by ZEFSAII (Michael W. Deem and Ramdas Pophale) SiO2 
 PCOD9273496
Probable space group: C 2/C
;
_chemical_formula_sum "Si O2"
_cell_formula_units_Z 56
_cell_length_a 15.183653
_cell_length_b 8.757740
_cell_length_c 20.237532
_cell_angle_alpha 90.000000
_cell_angle_beta 84.367211
_cell_angle_gamma 90.000000
_cell_volume 2678.081253
_symmetry_space_group_name_H-M "C 2/C"
_symmetry_group_IT_number 15
_symmetry_cell_setting 'monoclinic'
loop_
_space_group_symop_operation_xyz
x,y,z
-x,y,1/2-z
-x,-y,-z
x,-y,1/2+z
1/2+x,1/2+y,z
1/2-x,1/2+y,1/2-z
1/2-x,1/2-y,-z
1/2+x,1/2-y,1/2+z
loop_
_atom_site_type_symbol
_atom_site_label
_atom_site_fract_x
_atom_site_fract_y
_atom_site_fract_z
Si Si1 0.803173 0.531928 0.589467
Si Si2 0.744469 0.324634 0.847365
Si Si3 0.972697 0.517360 0.148336
Si Si4 0.332383 0.688043 0.350085
Si Si5 0.686103 0.373593 0.277321
Si Si6 0.000000 0.253269 0.250000
Si Si7 0.862577 0.528521 0.937324
Si Si8 0.500000 0.262132 0.250000
O O1 0.813274 0.713303 0.601680
O O2 0.874412 0.449619 0.631891
O O3 0.707444 0.464838 0.615737
O O4 0.826143 0.491639 0.512882
O O5 0.703576 0.455163 0.802630
O O6 0.784028 0.197832 0.794905
O O7 0.808971 0.416517 0.891728
O O8 0.965033 0.367675 0.195256
O O9 0.021572 0.642905 0.189811
O O10 0.033600 0.502390 0.079917
O O11 0.251989 0.775257 0.319002
O O12 0.417412 0.673797 0.294597
O O13 0.354307 0.801662 0.408455
O O14 0.580658 0.352082 0.277294
#
# Coordination Sequence:
#
# PCOD9273496 Si02
#       8
#     8   8   8   8   8   4   8   4
#     4  12  22  39  65  97 135 181 216 261 321 404
#     4  11  24  40  62  94 126 172 217 272 330 385
#     4  10  20  37  66  96 127 173 218 268 330 383
#     4  10  21  38  68  99 131 172 222 267 332 384
#     4  11  22  41  66  92 127 163 216 275 335 391
#     4   9  20  38  63  98 136 166 216 278 326 390
#     4  10  22  41  63  94 136 178 224 260 316 400
#     4  11  20  40  65  94 130 158 214 288 334 380
#
# _framework density 20.910492999999999
#
# number of rings (size 3 to 8) (size 9 to 14) (size 15 to 20)
#    0.000    1.429    2.857    3.000    2.000    0.000 
#    0.000   11.429    0.000    0.857    0.000    0.000 
#    0.000    0.000    0.000    0.000    0.000    0.000 
#
# Total GULP energy -155888.000226 kJ/mol
# GULP energy per Si atom -5567.428580 kJ/mol
# Density = 2.086290 g / cm^3
# Si number density = 20.910493 Si / 1000 Ang^3
#
#
#
# Elastic Constant Matrix: (Units=GPa)
#
#
# Indices 1 2 3 4 5 6 
#
# 1 104.3919 25.7254 39.5702 0.0000 -13.9113 0.0000
# 2 25.7254 71.0090 36.6306 0.0000 -17.3974 0.0000
# 3 39.5702 36.6306 105.6746 0.0000 -19.0053 0.0000
# 4 0.0000 0.0000 0.0000 -31.0582 0.0000 -56.5275
# 5 -13.9113 -17.3974 -19.0053 0.0000 31.3318 0.0000
# 6 0.0000 0.0000 0.0000 -56.5275 0.0000 -38.1476
#
#
#
# Elastic Compliance Matrix: (Units=1/GPa)
#
#
# Indices 1 2 3 4 5 6 
#
# 1 0.011588 -0.002008 -0.003276 0.000000 0.002043 0.000000
# 2 -0.002008 0.018823 -0.004550 0.000000 0.006801 0.000000
# 3 -0.003276 -0.004550 0.012965 0.000000 0.003884 0.000000
# 4 0.000000 0.000000 0.000000 0.018974 0.000000 -0.028115
# 5 0.002043 0.006801 0.003884 0.000000 0.038955 0.000000
# 6 0.000000 0.000000 0.000000 -0.028115 0.000000 0.015448
#
#
# Mechanical properties :
#
#
# Convention : Reuss Voigt Hill
#
# Bulk Modulus (GPa) = 42.17673 53.88088 48.02881
# Shear Modulus (GPa) = 34.64440 4.36851 19.50645
#
# Velocity S-wave (km/s) = 4.07479 1.44696 3.05758
# Velocity P-wave (km/s) = 6.50788 5.34929 5.95682
#
# Compressibility (1/GPa) = 0.02370976
#
# Stress axis : x y z
#
# Youngs Moduli (GPa) = 86.29601 53.12542 77.12910
#
# Poissons Ratio (x) = 0.10666 0.25266
# Poissons Ratio (y) = 0.17326 0.35094
# Poissons Ratio (z) = 0.28268 0.24172
#
# Static dielectric constant tensor:
#      x y z
#    x 1.796550 0.000000 -0.019100 
#    y 0.000000 1.799140 0.000000 
#    z -0.019100 0.000000 1.759010 
# 
# From -- ./inp_files/242862.got.cif
#   From: 2010.05.17/outbox.cif.g08.bks.cpg/sg15_122_cif.got.tgz:242862.got - 2010.06.03 18:47:42.
