data_PCOD9273865
_publ_section_title
;
Structure prediction by ZEFSAII (Michael W. Deem and Ramdas Pophale) SiO2 
 PCOD9273865
Probable space group: C 2/C
;
_chemical_formula_sum "Si O2"
_cell_formula_units_Z 40
_cell_length_a 18.780997
_cell_length_b 11.562971
_cell_length_c 21.952028
_cell_angle_alpha 90.000000
_cell_angle_beta 18.405895
_cell_angle_gamma 90.000000
_cell_volume 1505.225255
_symmetry_space_group_name_H-M "C 2/C"
_symmetry_group_IT_number 15
_symmetry_cell_setting 'monoclinic'
loop_
_space_group_symop_operation_xyz
x,y,z
-x,y,1/2-z
-x,-y,-z
x,-y,1/2+z
1/2+x,1/2+y,z
1/2-x,1/2+y,1/2-z
1/2-x,1/2-y,-z
1/2+x,1/2-y,1/2+z
loop_
_atom_site_type_symbol
_atom_site_label
_atom_site_fract_x
_atom_site_fract_y
_atom_site_fract_z
Si Si1 0.334462 0.888232 0.136624
Si Si2 0.340976 0.396685 0.012305
Si Si3 0.500000 0.500000 0.000000
Si Si4 0.500000 0.087216 0.250000
Si Si5 0.738566 0.901181 0.442550
Si Si6 0.799999 0.653555 0.071799
O O1 0.105902 0.926951 0.354578
O O2 0.303035 0.851204 0.091945
O O3 0.485767 0.811932 0.059435
O O4 0.500000 0.000000 0.000000
O O5 0.589879 0.383228 0.783474
O O6 0.345551 0.425529 0.079649
O O7 0.237849 0.269527 0.086953
O O8 0.209878 0.502393 0.089523
O O9 0.428039 0.150922 0.370680
O O10 0.666445 0.037451 0.494752
O O11 0.000000 0.894388 0.250000
#
# Coordination Sequence:
#
# PCOD9273865 Si02
#       6
#     8   8   4   4   8   8
#     4  10  20  38  60  82 123 154 208 241 292 359
#     4  12  24  37  61  88 127 157 206 243 319 353
#     4  12  20  40  62  88 112 166 200 252 298 364
#     4  12  24  36  58  90 122 168 190 246 312 368
#     4  11  21  38  58  89 125 160 197 247 299 371
#     4  11  23  40  57  90 124 164 198 260 291 370
#
# _framework density 26.574097999999999
#
# number of rings (size 3 to 8) (size 9 to 14) (size 15 to 20)
#    0.000    0.800    6.000    4.800    1.400    1.600 
#    0.000    0.000    0.000    0.000    2.600    4.200 
#    0.000    0.000    0.000    0.000    0.000    0.000 
#
# Total GULP energy -111409.866791 kJ/mol
# GULP energy per Si atom -5570.493340 kJ/mol
# Density = 2.651361 g / cm^3
# Si number density = 26.574098 Si / 1000 Ang^3
#
#
#
# Elastic Constant Matrix: (Units=GPa)
#
#
# Indices 1 2 3 4 5 6 
#
# 1 183.3083 18.7247 80.5855 0.0109 24.9922 -0.0183
# 2 18.7247 71.3264 3.9273 0.2204 -13.5576 0.0254
# 3 80.5855 3.9273 153.0106 0.1876 8.0421 0.0328
# 4 0.0109 0.2204 0.1876 16.7237 -0.0249 -10.4228
# 5 24.9922 -13.5576 8.0421 -0.0249 58.6304 -0.0171
# 6 -0.0183 0.0254 0.0328 -10.4228 -0.0171 5.7265
#
#
#
# Elastic Compliance Matrix: (Units=1/GPa)
#
#
# Indices 1 2 3 4 5 6 
#
# 1 0.007896 -0.002503 -0.003914 -0.000721 -0.003408 -0.001264
# 2 -0.002503 0.015500 0.000678 0.001824 0.004560 0.003254
# 3 -0.003914 0.000678 0.008544 0.001043 0.000654 0.001836
# 4 -0.000721 0.001824 0.001043 -0.444701 0.000161 -0.809421
# 5 -0.003408 0.004560 0.000654 0.000161 0.019474 0.000317
# 6 -0.001264 0.003254 0.001836 -0.809421 0.000317 -1.298637
#
#
# Mechanical properties :
#
#
# Convention : Reuss Voigt Hill
#
# Bulk Modulus (GPa) = 48.87317 68.23557 58.55437
# Shear Modulus (GPa) = -2.98752 36.50996 16.76122
#
# Velocity S-wave (km/s) = -1.06144 3.71063 2.51417
# Velocity P-wave (km/s) = 4.11449 6.64015 5.52361
#
# Compressibility (1/GPa) = 0.02046112
#
# Stress axis : x y z
#
# Youngs Moduli (GPa) = 126.64175 64.51761 117.04789
#
# Poissons Ratio (x) = 0.16146 0.45815
# Poissons Ratio (y) = 0.31694 -0.07932
# Poissons Ratio (z) = 0.49570 -0.04372
#
# Static dielectric constant tensor:
#      x y z
#    x 2.185260 0.000120 0.019600 
#    y 0.000120 2.202250 0.000080 
#    z 0.019600 0.000080 2.019800 
# 
# From -- ./inp_files/215684.got.cif
#   From: 2010.05.17/outbox.cif.g08.bks.cpg/sg15_108_cif.got.tgz:215684.got - 2010.06.03 18:47:42.
