data_PCOD9273515
_publ_section_title
;
Structure prediction by ZEFSAII (Michael W. Deem and Ramdas Pophale) SiO2 
 PCOD9273515
Probable space group: C 2/C
;
_chemical_formula_sum "Si O2"
_cell_formula_units_Z 48
_cell_length_a 14.954538
_cell_length_b 17.862213
_cell_length_c 8.165090
_cell_angle_alpha 90.000000
_cell_angle_beta 92.868759
_cell_angle_gamma 90.000000
_cell_volume 2178.334848
_symmetry_space_group_name_H-M "C 2/C"
_symmetry_group_IT_number 15
_symmetry_cell_setting 'monoclinic'
loop_
_space_group_symop_operation_xyz
x,y,z
-x,y,1/2-z
-x,-y,-z
x,-y,1/2+z
1/2+x,1/2+y,z
1/2-x,1/2+y,1/2-z
1/2-x,1/2-y,-z
1/2+x,1/2-y,1/2+z
loop_
_atom_site_type_symbol
_atom_site_label
_atom_site_fract_x
_atom_site_fract_y
_atom_site_fract_z
Si Si1 0.734098 0.205725 0.750714
Si Si2 0.099653 0.112480 0.808194
Si Si3 0.326435 0.504291 0.967128
Si Si4 0.423413 0.892780 0.356448
Si Si5 0.630634 0.954849 0.829600
Si Si6 0.741037 0.862240 0.616674
O O1 0.830589 0.180626 0.691897
O O2 0.657934 0.165317 0.640545
O O3 0.725428 0.294142 0.769398
O O4 0.725663 0.170504 0.933531
O O5 0.135355 0.052925 0.677130
O O6 0.000000 0.134608 0.750000
O O7 0.110050 0.063414 0.973144
O O8 0.308792 0.568466 0.102957
O O9 0.227067 0.471024 0.925184
O O10 0.500000 0.857412 0.250000
O O11 0.437313 0.923023 0.541495
O O12 0.396816 0.966557 0.250302
O O13 0.652191 0.896182 0.688920
#
# Coordination Sequence:
#
# PCOD9273515 Si02
#       6
#     8   8   8   8   8   8
#     4  10  21  41  59  83 125 155 193 237 302 362
#     4  11  21  36  59  86 114 150 192 242 291 347
#     4  11  18  37  61  84 113 149 196 243 288 343
#     4  12  23  38  61  89 121 157 199 251 295 349
#     4  12  19  39  63  87 115 154 205 244 294 346
#     4  10  20  37  67  82 114 165 189 241 305 347
#
# _framework density 22.03518
#
# number of rings (size 3 to 8) (size 9 to 14) (size 15 to 20)
#    0.000    1.000    8.333    1.000    0.000    0.667 
#    0.000    6.667    0.000    0.000    0.000    0.000 
#    0.000    0.000    0.000    0.000    0.000    0.000 
#
# Total GULP energy -134111.017057 kJ/mol
# GULP energy per Si atom -5587.959044 kJ/mol
# Density = 2.198503 g / cm^3
# Si number density = 22.035180 Si / 1000 Ang^3
#
#
#
# Elastic Constant Matrix: (Units=GPa)
#
#
# Indices 1 2 3 4 5 6 
#
# 1 77.4989 8.2315 -15.3628 0.0000 -3.1828 0.0000
# 2 8.2315 75.1369 -0.1648 0.0000 6.2281 0.0000
# 3 -15.3628 -0.1648 21.6954 0.0000 -11.0044 0.0000
# 4 0.0000 0.0000 0.0000 17.6048 0.0000 1.1019
# 5 -3.1828 6.2281 -11.0044 0.0000 23.6014 0.0000
# 6 0.0000 0.0000 0.0000 1.1019 0.0000 3.6716
#
#
#
# Elastic Compliance Matrix: (Units=1/GPa)
#
#
# Indices 1 2 3 4 5 6 
#
# 1 0.017238 -0.002798 0.017995 0.000000 0.011453 0.000000
# 2 -0.002798 0.014145 -0.005185 0.000000 -0.006528 0.000000
# 3 0.017995 -0.005185 0.079529 0.000000 0.040876 0.000000
# 4 0.000000 0.000000 0.000000 0.057890 0.000000 -0.017374
# 5 0.011453 -0.006528 0.040876 0.000000 0.064697 0.000000
# 6 0.000000 0.000000 0.000000 -0.017374 0.000000 0.277575
#
#
# Mechanical properties :
#
#
# Convention : Reuss Voigt Hill
#
# Bulk Modulus (GPa) = 7.63740 17.74878 12.69309
# Shear Modulus (GPa) = 9.35109 21.08404 15.21757
#
# Velocity S-wave (km/s) = 2.06226 3.09663 2.63078
# Velocity P-wave (km/s) = 3.02392 4.56703 3.87310
#
# Compressibility (1/GPa) = 0.13093466
#
# Stress axis : x y z
#
# Youngs Moduli (GPa) = 58.01087 70.69473 12.57405
#
# Poissons Ratio (x) = 0.19783 -0.22627
# Poissons Ratio (y) = 0.16234 0.06520
# Poissons Ratio (z) = -1.04389 0.36656
#
# Static dielectric constant tensor:
#      x y z
#    x 1.824950 0.000000 -0.006310 
#    y 0.000000 1.777680 0.000000 
#    z -0.006310 0.000000 1.891960 
# 
# From -- ./inp_files/39605.got.cif
#   From: 2010.05.17/outbox.cif.g08.bks.cpg/sg15_20_cif.got.tgz:39605.got - 2010.06.03 18:47:42.
