data_PCOD9273796
_publ_section_title
;
Structure prediction by ZEFSAII (Michael W. Deem and Ramdas Pophale) SiO2 
 PCOD9273796
Probable space group: C 2/C
;
_chemical_formula_sum "Si O2"
_cell_formula_units_Z 60
_cell_length_a 28.208321
_cell_length_b 17.319928
_cell_length_c 9.285011
_cell_angle_alpha 90.000000
_cell_angle_beta 130.669798
_cell_angle_gamma 90.000000
_cell_volume 3440.715088
_symmetry_space_group_name_H-M "C 2/C"
_symmetry_group_IT_number 15
_symmetry_cell_setting 'monoclinic'
loop_
_space_group_symop_operation_xyz
x,y,z
-x,y,1/2-z
-x,-y,-z
x,-y,1/2+z
1/2+x,1/2+y,z
1/2-x,1/2+y,1/2-z
1/2-x,1/2-y,-z
1/2+x,1/2-y,1/2+z
loop_
_atom_site_type_symbol
_atom_site_label
_atom_site_fract_x
_atom_site_fract_y
_atom_site_fract_z
Si Si1 0.307654 0.909392 0.570232
Si Si2 0.134679 0.961510 0.970105
Si Si3 0.000000 0.808805 0.250000
Si Si4 0.553255 0.446629 0.534140
Si Si5 0.259321 0.716725 0.177427
Si Si6 0.316739 0.682343 0.756220
Si Si7 0.625683 0.766977 0.900673
Si Si8 0.263774 0.045703 0.280509
O O1 0.246004 0.855118 0.434536
O O2 0.362762 0.855912 0.619303
O O3 0.309436 0.934379 0.738997
O O4 0.294244 0.983347 0.445748
O O5 0.107400 0.940101 0.760989
O O6 0.147830 0.885330 0.089731
O O7 0.084456 0.012860 0.957192
O O8 0.199757 0.008461 0.090318
O O9 0.942788 0.756878 0.188045
O O10 0.024313 0.866222 0.424031
O O11 0.500000 0.500000 0.500000
O O12 0.206770 0.753691 0.177734
O O13 0.325012 0.743399 0.376969
O O14 0.253818 0.624524 0.173104
O O15 0.250000 0.750000 0.000000
O O16 0.355621 0.717942 0.703587
#
# Coordination Sequence:
#
# PCOD9273796 Si02
#       8
#     8   8   4   8   8   8   8   8
#     4  10  21  36  58  88 118 152 190 247 304 368
#     4  11  23  34  59  85 125 151 197 241 294 367
#     4  12  26  38  68  80 118 174 210 250 292 358
#     4  12  23  39  52  85 120 166 203 235 280 358
#     4  11  23  35  61  93 123 152 198 252 304 365
#     4  10  20  38  59  85 121 163 186 247 308 354
#     4  11  22  43  58  84 124 160 206 241 308 360
#     4  11  21  36  59  90 119 153 190 245 323 349
#
# _framework density 17.438234999999999
#
# number of rings (size 3 to 8) (size 9 to 14) (size 15 to 20)
#    0.000    1.067    4.000    4.000    9.333    0.000 
#    0.000    0.000    0.000    0.800    0.000    0.000 
#    0.000    0.000    0.000    0.000    0.000    0.000 
#
# Total GULP energy -167720.573898 kJ/mol
# GULP energy per Si atom -5590.685797 kJ/mol
# Density = 1.739854 g / cm^3
# Si number density = 17.438235 Si / 1000 Ang^3
#
#
#
# Elastic Constant Matrix: (Units=GPa)
#
#
# Indices 1 2 3 4 5 6 
#
# 1 116.9622 53.9846 49.3217 0.0000 -1.4016 0.0000
# 2 53.9846 112.9409 47.6118 0.0000 -0.5635 0.0000
# 3 49.3217 47.6118 95.2515 0.0000 -14.0011 0.0000
# 4 0.0000 0.0000 0.0000 22.8034 0.0000 -0.7681
# 5 -1.4016 -0.5635 -14.0011 0.0000 25.8144 0.0000
# 6 0.0000 0.0000 0.0000 -0.7681 0.0000 29.7842
#
#
#
# Elastic Compliance Matrix: (Units=1/GPa)
#
#
# Indices 1 2 3 4 5 6 
#
# 1 0.012319 -0.003911 -0.004714 0.000000 -0.001973 0.000000
# 2 -0.003911 0.012683 -0.004678 0.000000 -0.002473 0.000000
# 3 -0.004714 -0.004678 0.016544 0.000000 0.008615 0.000000
# 4 0.000000 0.000000 0.000000 0.043891 0.000000 0.001132
# 5 -0.001973 -0.002473 0.008615 0.000000 0.043250 0.000000
# 6 0.000000 0.000000 0.000000 0.001132 0.000000 0.033604
#
#
# Mechanical properties :
#
#
# Convention : Reuss Voigt Hill
#
# Bulk Modulus (GPa) = 66.93300 69.66565 68.29933
# Shear Modulus (GPa) = 25.78940 27.29617 26.54279
#
# Velocity S-wave (km/s) = 3.84982 3.96069 3.90565
# Velocity P-wave (km/s) = 7.63071 7.80722 7.71947
#
# Compressibility (1/GPa) = 0.01494031
#
# Stress axis : x y z
#
# Youngs Moduli (GPa) = 81.17461 78.84299 60.44408
#
# Poissons Ratio (x) = 0.30836 0.28493
# Poissons Ratio (y) = 0.31747 0.28277
# Poissons Ratio (z) = 0.38266 0.36884
#
# Static dielectric constant tensor:
#      x y z
#    x 1.588970 0.000000 -0.007640 
#    y 0.000000 1.600760 0.000000 
#    z -0.007640 0.000000 1.595700 
# 
# From -- ./inp_files/49097.got.cif
#   From: 2010.05.17/outbox.cif.g08.bks.cpg/sg15_25_cif.got.tgz:49097.got - 2010.06.03 18:47:42.
