data_PCOD9273726
_publ_section_title
;
Structure prediction by ZEFSAII (Michael W. Deem and Ramdas Pophale) SiO2 
 PCOD9273726
Probable space group: C 2/C
;
_chemical_formula_sum "Si O2"
_cell_formula_units_Z 36
_cell_length_a 12.308676
_cell_length_b 13.990338
_cell_length_c 10.119932
_cell_angle_alpha 90.000000
_cell_angle_beta 115.804464
_cell_angle_gamma 90.000000
_cell_volume 1568.906591
_symmetry_space_group_name_H-M "C 2/C"
_symmetry_group_IT_number 15
_symmetry_cell_setting 'monoclinic'
loop_
_space_group_symop_operation_xyz
x,y,z
-x,y,1/2-z
-x,-y,-z
x,-y,1/2+z
1/2+x,1/2+y,z
1/2-x,1/2+y,1/2-z
1/2-x,1/2-y,-z
1/2+x,1/2-y,1/2+z
loop_
_atom_site_type_symbol
_atom_site_label
_atom_site_fract_x
_atom_site_fract_y
_atom_site_fract_z
Si Si1 0.246098 0.279442 0.842647
Si Si2 0.078453 0.610552 0.610449
Si Si3 0.000000 0.799005 0.250000
Si Si4 0.648162 0.033897 0.924492
Si Si5 0.882317 0.951182 0.993446
O O1 0.340395 0.204377 0.830360
O O2 0.105256 0.262170 0.735363
O O3 0.297620 0.385945 0.853845
O O4 0.250000 0.250000 0.000000
O O5 0.117680 0.541755 0.752809
O O6 0.106823 0.559856 0.485750
O O7 0.934347 0.616932 0.554933
O O8 0.067117 0.872041 0.381268
O O9 0.792264 0.028711 0.009329
O O10 0.000000 0.000000 0.000000
#
# Coordination Sequence:
#
# PCOD9273726 Si02
#       5
#     8   8   4   8   8
#     4  10  20  40  62  92 126 170 225 264 321 392
#     4  10  20  40  66 100 130 174 225 275 321 402
#     4  10  20  38  58  88 126 160 228 264 316 380
#     4  10  21  38  68  95 136 172 223 272 330 382
#     4  11  23  40  62  96 129 174 217 275 326 395
#
# _framework density 22.945916
#
# number of rings (size 3 to 8) (size 9 to 14) (size 15 to 20)
#    0.000    1.778    4.444    1.333    0.000    1.778 
#    4.000    3.333    0.000    0.000    0.000    0.000 
#    0.000    0.000    0.000    0.000    0.000    0.000 
#
# Total GULP energy -100286.797493 kJ/mol
# GULP energy per Si atom -5571.488750 kJ/mol
# Density = 2.289369 g / cm^3
# Si number density = 22.945916 Si / 1000 Ang^3
#
#
#
# Elastic Constant Matrix: (Units=GPa)
#
#
# Indices 1 2 3 4 5 6 
#
# 1 226.6057 75.2111 34.3884 0.0000 49.8639 0.0000
# 2 75.2111 81.6643 28.6794 0.0000 12.8785 0.0000
# 3 34.3884 28.6794 57.1111 0.0000 -0.1032 0.0000
# 4 0.0000 0.0000 0.0000 13.0608 0.0000 5.6074
# 5 49.8639 12.8785 -0.1032 0.0000 45.1240 0.0000
# 6 0.0000 0.0000 0.0000 5.6074 0.0000 47.6453
#
#
#
# Elastic Compliance Matrix: (Units=1/GPa)
#
#
# Indices 1 2 3 4 5 6 
#
# 1 0.008285 -0.005688 -0.002146 0.000000 -0.007537 0.000000
# 2 -0.005688 0.019639 -0.006436 0.000000 0.000666 0.000000
# 3 -0.002146 -0.006436 0.022041 0.000000 0.004258 0.000000
# 4 0.000000 0.000000 0.000000 0.080640 0.000000 -0.009491
# 5 -0.007537 0.000666 0.004258 0.000000 0.030309 0.000000
# 6 0.000000 0.000000 0.000000 -0.009491 0.000000 0.022105
#
#
# Mechanical properties :
#
#
# Convention : Reuss Voigt Hill
#
# Bulk Modulus (GPa) = 46.67301 71.32655 58.99978
# Shear Modulus (GPa) = 22.86222 36.30617 29.58419
#
# Velocity S-wave (km/s) = 3.15993 3.98207 3.59458
# Velocity P-wave (km/s) = 5.80501 7.23150 6.55716
#
# Compressibility (1/GPa) = 0.02142566
#
# Stress axis : x y z
#
# Youngs Moduli (GPa) = 120.70125 50.91881 45.36908
#
# Poissons Ratio (x) = 0.28963 0.09736
# Poissons Ratio (y) = 0.68656 0.29199
# Poissons Ratio (z) = 0.25901 0.32771
#
# Static dielectric constant tensor:
#      x y z
#    x 1.940120 0.000000 -0.025480 
#    y 0.000000 2.076420 0.000000 
#    z -0.025480 0.000000 1.637870 
# 
# From -- ./inp_files/85365.got.cif
#   From: 2010.05.17/outbox.cif.g08.bks.cpg/sg15_43_cif.got.tgz:85365.got - 2010.06.03 18:47:42.
