data_PCOD9273627
_publ_section_title
;
Structure prediction by ZEFSAII (Michael W. Deem and Ramdas Pophale) SiO2 
 PCOD9273627
Probable space group: C 2/C
;
_chemical_formula_sum "Si O2"
_cell_formula_units_Z 48
_cell_length_a 19.703123
_cell_length_b 13.801063
_cell_length_c 15.989685
_cell_angle_alpha 90.000000
_cell_angle_beta 150.740578
_cell_angle_gamma 90.000000
_cell_volume 2125.139083
_symmetry_space_group_name_H-M "C 2/C"
_symmetry_group_IT_number 15
_symmetry_cell_setting 'monoclinic'
loop_
_space_group_symop_operation_xyz
x,y,z
-x,y,1/2-z
-x,-y,-z
x,-y,1/2+z
1/2+x,1/2+y,z
1/2-x,1/2+y,1/2-z
1/2-x,1/2-y,-z
1/2+x,1/2-y,1/2+z
loop_
_atom_site_type_symbol
_atom_site_label
_atom_site_fract_x
_atom_site_fract_y
_atom_site_fract_z
Si Si1 0.851375 0.176731 0.832475
Si Si2 0.188884 0.068844 0.058927
Si Si3 0.501794 0.025103 0.342753
Si Si4 0.418696 0.235715 0.033996
Si Si5 0.504550 0.621538 0.346755
Si Si6 0.724148 0.459403 0.787835
O O1 0.694758 0.212504 0.659313
O O2 0.844694 0.066134 0.792858
O O3 0.915418 0.178405 0.993598
O O4 0.940613 0.236091 0.861683
O O5 0.344638 0.037722 0.203716
O O6 0.136056 0.173384 0.970538
O O7 0.189744 0.082277 0.160181
O O8 0.087773 0.980653 0.927431
O O9 0.500000 0.977659 0.250000
O O10 0.563752 0.134048 0.400647
O O11 0.611641 0.970750 0.520177
O O12 0.500000 0.666826 0.250000
O O13 0.353575 0.597174 0.222352
#
# Coordination Sequence:
#
# PCOD9273627 Si02
#       6
#     8   8   8   8   8   8
#     4  10  20  38  56  83 107 149 188 217 267 338
#     4  11  20  37  60  80 109 150 186 220 271 329
#     4  11  24  36  53  88 119 139 177 231 281 322
#     4  11  20  36  60  77 111 152 181 217 270 333
#     4  11  21  36  60  84 109 142 186 234 272 313
#     4  10  20  38  60  79 110 150 187 219 267 335
#
# _framework density 22.586756000000001
#
# number of rings (size 3 to 8) (size 9 to 14) (size 15 to 20)
#    0.000    1.333    5.000    2.500    0.000    1.333 
#    0.000    0.833    0.000    0.000    0.000    0.000 
#    0.000    0.000    0.000    0.000    0.000    0.000 
#
# Total GULP energy -134141.052819 kJ/mol
# GULP energy per Si atom -5589.210534 kJ/mol
# Density = 2.253535 g / cm^3
# Si number density = 22.586756 Si / 1000 Ang^3
#
#
#
# Elastic Constant Matrix: (Units=GPa)
#
#
# Indices 1 2 3 4 5 6 
#
# 1 71.1664 -25.4437 20.9500 0.0000 4.6003 0.0000
# 2 -25.4437 19.6043 -4.8788 0.0000 0.6617 0.0000
# 3 20.9500 -4.8788 76.1434 0.0000 5.5852 0.0000
# 4 0.0000 0.0000 0.0000 0.7036 0.0000 -2.4297
# 5 4.6003 0.6617 5.5852 0.0000 43.4149 0.0000
# 6 0.0000 0.0000 0.0000 -2.4297 0.0000 4.3702
#
#
#
# Elastic Compliance Matrix: (Units=1/GPa)
#
#
# Indices 1 2 3 4 5 6 
#
# 1 0.028691 0.035997 -0.005375 0.000000 -0.002897 0.000000
# 2 0.035997 0.097065 -0.003328 -0.000001 -0.004866 0.000000
# 3 -0.005375 -0.003328 0.014490 0.000000 -0.001244 0.000000
# 4 0.000000 -0.000001 0.000000 -1.544925 0.000000 -0.858933
# 5 -0.002897 -0.004866 -0.001244 0.000000 0.023575 0.000000
# 6 0.000000 0.000000 0.000000 -0.858933 0.000000 -0.248719
#
#
# Mechanical properties :
#
#
# Convention : Reuss Voigt Hill
#
# Bulk Modulus (GPa) = 5.13257 16.46323 10.79790
# Shear Modulus (GPa) = -3.08744 21.45017 9.18137
#
# Velocity S-wave (km/s) = -1.17042 3.08503 2.01836
# Velocity P-wave (km/s) = 0.67141 4.47153 3.19729
#
# Compressibility (1/GPa) = 0.19483414
#
# Stress axis : x y z
#
# Youngs Moduli (GPa) = 34.85414 10.30240 69.01320
#
# Poissons Ratio (x) = -0.37086 0.37095
# Poissons Ratio (y) = -1.25465 0.22968
# Poissons Ratio (z) = 0.18734 0.03429
#
# Static dielectric constant tensor:
#      x y z
#    x 1.814560 0.000000 -0.004060 
#    y 0.000000 1.874320 0.000000 
#    z -0.004060 0.000000 1.838510 
# 
# From -- ./inp_files/48071.got.cif
#   From: 2010.05.17/outbox.cif.g08.bks.cpg/sg15_25_cif.got.tgz:48071.got - 2010.06.03 18:47:42.
