data_PCOD9273479
_publ_section_title
;
Structure prediction by ZEFSAII (Michael W. Deem and Ramdas Pophale) SiO2 
 PCOD9273479
Probable space group: C 2/C
;
_chemical_formula_sum "Si O2"
_cell_formula_units_Z 52
_cell_length_a 13.454840
_cell_length_b 11.587600
_cell_length_c 18.838892
_cell_angle_alpha 90.000000
_cell_angle_beta 121.142860
_cell_angle_gamma 90.000000
_cell_volume 2513.856582
_symmetry_space_group_name_H-M "C 2/C"
_symmetry_group_IT_number 15
_symmetry_cell_setting 'monoclinic'
loop_
_space_group_symop_operation_xyz
x,y,z
-x,y,1/2-z
-x,-y,-z
x,-y,1/2+z
1/2+x,1/2+y,z
1/2-x,1/2+y,1/2-z
1/2-x,1/2-y,-z
1/2+x,1/2-y,1/2+z
loop_
_atom_site_type_symbol
_atom_site_label
_atom_site_fract_x
_atom_site_fract_y
_atom_site_fract_z
Si Si1 0.848692 0.770820 0.122119
Si Si2 0.000000 0.581701 0.750000
Si Si3 0.111001 0.220728 0.699932
Si Si4 0.896394 0.028382 0.351771
Si Si5 0.169597 0.792086 0.789960
Si Si6 0.209376 0.472277 0.907539
Si Si7 0.156999 0.964030 0.917984
O O1 0.855528 0.740823 0.208765
O O2 0.777725 0.662697 0.065709
O O3 0.976998 0.755096 0.137560
O O4 0.823180 0.907122 0.106838
O O5 0.098361 0.672574 0.760210
O O6 0.079959 0.503204 0.831328
O O7 0.194464 0.269811 0.670884
O O8 0.122679 0.083295 0.703883
O O9 0.867578 0.136953 0.292742
O O10 0.808080 0.014151 0.383905
O O11 0.034590 0.033133 0.415439
O O12 0.148691 0.868270 0.852935
O O13 0.242570 0.551787 0.986681
#
# Coordination Sequence:
#
# PCOD9273479 Si02
#       7
#     8   4   8   8   8   8   8
#     4  10  21  40  66  95 125 164 218 263 321 377
#     4  12  26  42  62  94 132 174 212 262 330 386
#     4  10  20  37  66  92 122 171 214 261 310 384
#     4  11  21  40  67  93 125 172 218 254 312 394
#     4  12  22  42  66  95 130 170 219 264 322 385
#     4  12  25  42  64  96 134 167 212 268 325 381
#     4  11  24  42  66  97 130 167 213 272 318 375
#
# _framework density 20.685348000000001
#
# number of rings (size 3 to 8) (size 9 to 14) (size 15 to 20)
#    0.000    0.923    6.154    1.846    0.000    0.615 
#    0.000    0.769    0.000    0.000    0.000    0.000 
#    0.000    0.000    0.000    0.000    0.000    0.000 
#
# Total GULP energy -144921.370573 kJ/mol
# GULP energy per Si atom -5573.898868 kJ/mol
# Density = 2.063827 g / cm^3
# Si number density = 20.685348 Si / 1000 Ang^3
#
#
#
# Elastic Constant Matrix: (Units=GPa)
#
#
# Indices 1 2 3 4 5 6 
#
# 1 105.2838 11.9526 22.2454 0.0000 0.1685 0.0000
# 2 11.9526 85.0177 10.7898 0.0000 -1.1357 0.0000
# 3 22.2454 10.7898 84.7538 0.0000 8.3238 0.0000
# 4 0.0000 0.0000 0.0000 8.5553 0.0000 1.8572
# 5 0.1685 -1.1357 8.3238 0.0000 14.1796 0.0000
# 6 0.0000 0.0000 0.0000 1.8572 0.0000 34.1893
#
#
#
# Elastic Compliance Matrix: (Units=1/GPa)
#
#
# Indices 1 2 3 4 5 6 
#
# 1 0.010182 -0.001075 -0.002669 0.000000 0.001360 0.000000
# 2 -0.001075 0.012121 -0.001441 0.000000 0.001829 0.000000
# 3 -0.002669 -0.001441 0.013468 0.000000 -0.007989 0.000000
# 4 0.000000 0.000000 0.000000 0.118281 0.000000 -0.006425
# 5 0.001360 0.001829 -0.007989 0.000000 0.075344 0.000000
# 6 0.000000 0.000000 0.000000 -0.006425 0.000000 0.029598
#
#
# Mechanical properties :
#
#
# Convention : Reuss Voigt Hill
#
# Bulk Modulus (GPa) = 39.36819 40.55899 39.96359
# Shear Modulus (GPa) = 17.99667 26.72269 22.35968
#
# Velocity S-wave (km/s) = 2.95281 3.59815 3.29134
# Velocity P-wave (km/s) = 5.54064 6.07556 5.81425
#
# Compressibility (1/GPa) = 0.02540122
#
# Stress axis : x y z
#
# Youngs Moduli (GPa) = 98.21318 82.50416 74.25260
#
# Poissons Ratio (x) = 0.08865 0.19820
# Poissons Ratio (y) = 0.10553 0.10697
# Poissons Ratio (z) = 0.26215 0.11886
#
# Static dielectric constant tensor:
#      x y z
#    x 1.740760 0.000000 0.025210 
#    y 0.000000 1.763910 0.000000 
#    z 0.025210 0.000000 1.784110 
# 
# From -- ./inp_files/237690.got.cif
#   From: 2010.05.17/outbox.cif.g08.bks.cpg/sg15_119_cif.got.tgz:237690.got - 2010.06.03 18:47:42.
