data_PCOD9273776
_publ_section_title
;
Structure prediction by ZEFSAII (Michael W. Deem and Ramdas Pophale) SiO2 
 PCOD9273776
Probable space group: C 2/C
;
_chemical_formula_sum "Si O2"
_cell_formula_units_Z 24
_cell_length_a 21.422053
_cell_length_b 5.057346
_cell_length_c 14.946567
_cell_angle_alpha 90.000000
_cell_angle_beta 144.504180
_cell_angle_gamma 90.000000
_cell_volume 940.231558
_symmetry_space_group_name_H-M "C 2/C"
_symmetry_group_IT_number 15
_symmetry_cell_setting 'monoclinic'
loop_
_space_group_symop_operation_xyz
x,y,z
-x,y,1/2-z
-x,-y,-z
x,-y,1/2+z
1/2+x,1/2+y,z
1/2-x,1/2+y,1/2-z
1/2-x,1/2-y,-z
1/2+x,1/2-y,1/2+z
loop_
_atom_site_type_symbol
_atom_site_label
_atom_site_fract_x
_atom_site_fract_y
_atom_site_fract_z
Si Si1 0.902449 0.298468 0.396306
Si Si2 0.397588 0.468873 0.070406
Si Si3 0.728018 0.022964 0.104134
O O1 0.929761 0.083653 0.504480
O O2 0.845532 0.150753 0.247364
O O3 0.809341 0.474960 0.336011
O O4 0.000000 0.500000 0.500000
O O5 0.500000 0.411888 0.250000
O O6 0.352129 0.760189 0.029496
O O7 0.301592 0.257450 0.972828
#
# Coordination Sequence:
#
# PCOD9273776 Si02
#       3
#     8   8   8
#     4  10  21  39  63  85 114 156 196 234 287 345
#     4  10  20  38  59  82 120 152 186 242 291 330
#     4  10  20  39  58  83 117 147 196 238 279 343
#
# _framework density 25.525624000000001
#
# number of rings (size 3 to 8) (size 9 to 14) (size 15 to 20)
#    2.000    0.000    3.333    1.000    0.000    1.333 
#    0.000    3.333    0.000    0.000    0.000    0.000 
#    0.000    0.000    0.000    0.000    0.000    0.000 
#
# Total GULP energy -67050.155372 kJ/mol
# GULP energy per Si atom -5587.512948 kJ/mol
# Density = 2.546753 g / cm^3
# Si number density = 25.525624 Si / 1000 Ang^3
#
#
#
# Elastic Constant Matrix: (Units=GPa)
#
#
# Indices 1 2 3 4 5 6 
#
# 1 48.6566 -18.1419 -4.6599 0.0006 4.9185 0.0005
# 2 -18.1419 98.9724 -3.5579 0.0031 4.3653 0.0026
# 3 -4.6599 -3.5579 134.1028 0.0009 -6.4255 0.0011
# 4 0.0006 0.0031 0.0009 58.7759 0.0002 15.9758
# 5 4.9185 4.3653 -6.4255 0.0002 34.8429 0.0001
# 6 0.0005 0.0026 0.0011 15.9758 0.0001 2.4978
#
#
#
# Elastic Compliance Matrix: (Units=1/GPa)
#
#
# Indices 1 2 3 4 5 6 
#
# 1 0.022599 0.004327 0.000728 -0.000003 -0.003598 0.000009
# 2 0.004327 0.010994 0.000350 -0.000004 -0.001924 0.000011
# 3 0.000728 0.000350 0.007551 -0.000001 0.001246 0.000004
# 4 -0.000003 -0.000004 -0.000001 -0.023040 0.000000 0.147360
# 5 -0.003598 -0.001924 0.001246 0.000000 0.029679 -0.000001
# 6 0.000009 0.000011 0.000004 0.147360 -0.000001 -0.542145
#
#
# Mechanical properties :
#
#
# Convention : Reuss Voigt Hill
#
# Bulk Modulus (GPa) = 19.24758 25.44582 22.34670
# Shear Modulus (GPa) = -10.24900 39.76277 14.75689
#
# Velocity S-wave (km/s) = -2.00597 3.95113 2.40702
# Velocity P-wave (km/s) = 1.48043 5.55028 4.06185
#
# Compressibility (1/GPa) = 0.05195459
#
# Stress axis : x y z
#
# Youngs Moduli (GPa) = 44.24962 90.95485 132.42862
#
# Poissons Ratio (x) = -0.39359 -0.09637
# Poissons Ratio (y) = -0.19148 -0.04634
# Poissons Ratio (z) = -0.03220 -0.03182
#
# Static dielectric constant tensor:
#      x y z
#    x 2.174320 0.000000 0.016430 
#    y 0.000000 1.970300 0.000000 
#    z 0.016430 0.000000 1.972010 
# 
# From -- ./inp_files/101906.got.cif
#   From: 2010.05.17/outbox.cif.g08.bks.cpg/sg15_51_cif.got.tgz:101906.got - 2010.06.03 18:47:42.
