data_PCOD9273251
_publ_section_title
;
Structure prediction by ZEFSAII (Michael W. Deem and Ramdas Pophale) SiO2 
 PCOD9273251
Probable space group: C 2/C
;
_chemical_formula_sum "Si O2"
_cell_formula_units_Z 48
_cell_length_a 17.781993
_cell_length_b 10.893119
_cell_length_c 11.468991
_cell_angle_alpha 90.000000
_cell_angle_beta 89.253888
_cell_angle_gamma 90.000000
_cell_volume 2221.370863
_symmetry_space_group_name_H-M "C 2/C"
_symmetry_group_IT_number 15
_symmetry_cell_setting 'monoclinic'
loop_
_space_group_symop_operation_xyz
x,y,z
-x,y,1/2-z
-x,-y,-z
x,-y,1/2+z
1/2+x,1/2+y,z
1/2-x,1/2+y,1/2-z
1/2-x,1/2-y,-z
1/2+x,1/2-y,1/2+z
loop_
_atom_site_type_symbol
_atom_site_label
_atom_site_fract_x
_atom_site_fract_y
_atom_site_fract_z
Si Si1 0.306406 0.924158 0.811805
Si Si2 0.923591 0.202792 0.831177
Si Si3 0.635513 0.478317 0.792394
Si Si4 0.855383 0.829396 0.996125
Si Si5 0.805089 0.435329 0.557467
Si Si6 0.011824 0.868643 0.936470
O O1 0.359408 0.804207 0.809264
O O2 0.215651 0.911479 0.804196
O O3 0.322605 0.990902 0.685415
O O4 0.317598 0.988656 0.937910
O O5 0.000000 0.210299 0.750000
O O6 0.885799 0.067807 0.814616
O O7 0.951252 0.214032 0.963539
O O8 0.568650 0.389499 0.831378
O O9 0.635192 0.583358 0.893133
O O10 0.780698 0.883822 0.939991
O O11 0.927723 0.827071 0.913151
O O12 0.848652 0.691652 0.041162
O O13 0.000000 0.000000 0.000000
#
# Coordination Sequence:
#
# PCOD9273251 Si02
#       6
#     8   8   8   8   8   8
#     4  11  25  41  68  99 135 179 225 274 339 404
#     4  12  22  42  71  93 135 180 220 275 349 401
#     4  10  22  38  64  92 126 170 223 273 328 397
#     4   9  18  39  65  89 126 176 223 269 339 398
#     4  10  21  42  66  94 137 182 222 270 340 406
#     4  10  20  37  63  98 120 165 231 279 321 395
#
# _framework density 21.608279
#
# number of rings (size 3 to 8) (size 9 to 14) (size 15 to 20)
#    0.000    1.667    5.000    0.000    7.000    0.667 
#    0.000    3.333    0.000    0.000    0.000    0.000 
#    0.000    0.000    0.000    0.000    0.000    0.000 
#
# Total GULP energy -133695.575403 kJ/mol
# GULP energy per Si atom -5570.648975 kJ/mol
# Density = 2.155910 g / cm^3
# Si number density = 21.608279 Si / 1000 Ang^3
#
#
#
# Elastic Constant Matrix: (Units=GPa)
#
#
# Indices 1 2 3 4 5 6 
#
# 1 141.4815 63.1652 34.0708 0.0000 -21.1270 0.0000
# 2 63.1652 44.1461 35.0957 0.0000 -13.5935 0.0000
# 3 34.0708 35.0957 151.8240 0.0000 -6.2966 0.0000
# 4 0.0000 0.0000 0.0000 11.0395 0.0000 -0.6098
# 5 -21.1270 -13.5935 -6.2966 0.0000 12.1623 0.0000
# 6 0.0000 0.0000 0.0000 -0.6098 0.0000 39.7007
#
#
#
# Elastic Compliance Matrix: (Units=1/GPa)
#
#
# Indices 1 2 3 4 5 6 
#
# 1 0.020472 -0.030450 0.002563 0.000000 0.002855 0.000000
# 2 -0.030450 0.087568 -0.011797 0.000000 0.038871 0.000000
# 3 0.002563 -0.011797 0.008560 0.000000 -0.004301 0.000000
# 4 0.000000 0.000000 0.000000 0.090661 0.000000 0.001392
# 5 0.002855 0.038871 -0.004301 0.000000 0.128399 0.000000
# 6 0.000000 0.000000 0.000000 0.001392 0.000000 0.025210
#
#
# Mechanical properties :
#
#
# Convention : Reuss Voigt Hill
#
# Bulk Modulus (GPa) = 26.85828 66.90166 46.87997
# Shear Modulus (GPa) = 11.04613 26.25517 18.65065
#
# Velocity S-wave (km/s) = 2.26342 3.48954 2.94109
# Velocity P-wave (km/s) = 4.39174 6.87490 5.76852
#
# Compressibility (1/GPa) = 0.03723246
#
# Stress axis : x y z
#
# Youngs Moduli (GPa) = 48.84815 11.41969 116.82266
#
# Poissons Ratio (x) = 0.34773 -0.29944
# Poissons Ratio (y) = 1.48742 1.37815
# Poissons Ratio (z) = -0.12521 0.13472
#
# Static dielectric constant tensor:
#      x y z
#    x 1.824420 0.000000 0.020690 
#    y 0.000000 1.760460 0.000000 
#    z 0.020690 0.000000 1.930180 
# 
# From -- ./inp_files/103768.got.cif
#   From: 2010.05.17/outbox.cif.g08.bks.cpg/sg15_52_cif.got.tgz:103768.got - 2010.06.03 18:47:42.
