data_PCOD9273864
_publ_section_title
;
Structure prediction by ZEFSAII (Michael W. Deem and Ramdas Pophale) SiO2 
 PCOD9273864
Probable space group: C 2/C
;
_chemical_formula_sum "Si O2"
_cell_formula_units_Z 52
_cell_length_a 14.251119
_cell_length_b 14.599022
_cell_length_c 20.030766
_cell_angle_alpha 90.000000
_cell_angle_beta 43.676502
_cell_angle_gamma 90.000000
_cell_volume 2877.981272
_symmetry_space_group_name_H-M "C 2/C"
_symmetry_group_IT_number 15
_symmetry_cell_setting 'monoclinic'
loop_
_space_group_symop_operation_xyz
x,y,z
-x,y,1/2-z
-x,-y,-z
x,-y,1/2+z
1/2+x,1/2+y,z
1/2-x,1/2+y,1/2-z
1/2-x,1/2-y,-z
1/2+x,1/2-y,1/2+z
loop_
_atom_site_type_symbol
_atom_site_label
_atom_site_fract_x
_atom_site_fract_y
_atom_site_fract_z
Si Si1 0.783111 0.667250 0.357941
Si Si2 0.390999 0.928053 0.195772
Si Si3 0.719039 0.272140 0.440237
Si Si4 0.158182 0.969604 0.413170
Si Si5 0.500000 0.208316 0.750000
Si Si6 0.001038 0.369914 0.854598
Si Si7 0.943590 0.322413 0.035424
O O1 0.731576 0.563743 0.394091
O O2 0.886820 0.675444 0.366305
O O3 0.664627 0.740679 0.416304
O O4 0.861528 0.673288 0.246727
O O5 0.236205 0.941281 0.303530
O O6 0.469380 0.854309 0.201276
O O7 0.396528 0.894453 0.116426
O O8 0.472052 0.021881 0.167855
O O9 0.750000 0.250000 0.500000
O O10 0.690817 0.380333 0.441269
O O11 0.857528 0.241201 0.332199
O O12 0.586744 0.219144 0.484827
O O13 0.000000 0.000000 0.500000
O O14 0.967165 0.359000 0.949056
#
# Coordination Sequence:
#
# PCOD9273864 Si02
#       7
#     8   8   8   8   4   8   8
#     4  10  22  39  61  85 113 160 204 234 293 371
#     4  10  21  38  61  86 118 157 202 243 299 362
#     4  11  22  36  59  89 118 151 196 250 301 354
#     4  10  20  39  62  85 117 158 201 242 293 365
#     4  10  20  38  60  82 118 158 194 238 296 364
#     4  10  22  40  59  83 118 159 197 243 298 363
#     4  12  23  35  61  92 120 150 200 260 300 347
#
# _framework density 18.068218999999999
#
# number of rings (size 3 to 8) (size 9 to 14) (size 15 to 20)
#    0.000    1.538    3.077    3.692    4.308    0.000 
#    0.000    0.000    0.000    0.000    0.000    0.000 
#    0.000    0.000    0.000    0.000    0.000    0.000 
#
# Total GULP energy -144791.569169 kJ/mol
# GULP energy per Si atom -5568.906506 kJ/mol
# Density = 1.802710 g / cm^3
# Si number density = 18.068219 Si / 1000 Ang^3
#
#
#
# Elastic Constant Matrix: (Units=GPa)
#
#
# Indices 1 2 3 4 5 6 
#
# 1 76.2468 13.0690 63.3727 0.0000 -8.4951 0.0000
# 2 13.0690 31.9756 28.9496 0.0000 -10.7795 0.0000
# 3 63.3727 28.9496 127.4231 0.0000 -6.8134 0.0000
# 4 0.0000 0.0000 0.0000 32.6515 0.0000 5.1562
# 5 -8.4951 -10.7795 -6.8134 0.0000 42.4457 0.0000
# 6 0.0000 0.0000 0.0000 5.1562 0.0000 -18.0329
#
#
#
# Elastic Compliance Matrix: (Units=1/GPa)
#
#
# Indices 1 2 3 4 5 6 
#
# 1 0.022804 0.002389 -0.011708 0.000000 0.003291 0.000000
# 2 0.002389 0.043034 -0.010445 0.000000 0.009730 0.000000
# 3 -0.011708 -0.010445 0.015913 0.000000 -0.002441 0.000000
# 4 0.000000 0.000000 0.000000 0.029303 0.000000 0.008379
# 5 0.003291 0.009730 -0.002441 0.000000 0.026297 0.000000
# 6 0.000000 0.000000 0.000000 0.008379 0.000000 -0.053058
#
#
# Mechanical properties :
#
#
# Convention : Reuss Voigt Hill
#
# Bulk Modulus (GPa) = 23.68342 49.60311 36.64326
# Shear Modulus (GPa) = 36.25930 20.09647 28.17789
#
# Velocity S-wave (km/s) = 4.48459 3.33867 3.95337
# Velocity P-wave (km/s) = 6.32073 6.50962 6.41587
#
# Compressibility (1/GPa) = 0.04222364
#
# Stress axis : x y z
#
# Youngs Moduli (GPa) = 43.85268 23.23730 62.84069
#
# Poissons Ratio (x) = -0.05552 0.73574
# Poissons Ratio (y) = -0.10478 0.65638
# Poissons Ratio (z) = 0.51343 0.24272
#
# Static dielectric constant tensor:
#      x y z
#    x 1.614010 0.000000 -0.018910 
#    y 0.000000 1.605610 0.000000 
#    z -0.018910 0.000000 1.678200 
# 
# From -- ./inp_files/205204.got.cif
#   From: 2010.05.17/outbox.cif.g08.bks.cpg/sg15_103_cif.got.tgz:205204.got - 2010.06.03 18:47:42.
