data_PCOD9273557
_publ_section_title
;
Structure prediction by ZEFSAII (Michael W. Deem and Ramdas Pophale) SiO2 
 PCOD9273557
Probable space group: C 2/C
;
_chemical_formula_sum "Si O2"
_cell_formula_units_Z 64
_cell_length_a 12.455896
_cell_length_b 14.632286
_cell_length_c 18.327570
_cell_angle_alpha 90.000000
_cell_angle_beta 98.740826
_cell_angle_gamma 90.000000
_cell_volume 3301.555203
_symmetry_space_group_name_H-M "C 2/C"
_symmetry_group_IT_number 15
_symmetry_cell_setting 'monoclinic'
loop_
_space_group_symop_operation_xyz
x,y,z
-x,y,1/2-z
-x,-y,-z
x,-y,1/2+z
1/2+x,1/2+y,z
1/2-x,1/2+y,1/2-z
1/2-x,1/2-y,-z
1/2+x,1/2-y,1/2+z
loop_
_atom_site_type_symbol
_atom_site_label
_atom_site_fract_x
_atom_site_fract_y
_atom_site_fract_z
Si Si1 0.361862 0.275847 0.911539
Si Si2 0.913455 0.509940 0.055457
Si Si3 0.493573 0.462001 0.917274
Si Si4 0.273510 0.397971 0.532740
Si Si5 0.730947 0.726679 0.609496
Si Si6 0.530021 0.841775 0.337732
Si Si7 0.118736 0.718318 0.417448
Si Si8 0.047259 0.144354 0.674405
O O1 0.412413 0.376405 0.905350
O O2 0.431728 0.207032 0.869954
O O3 0.232947 0.271842 0.887162
O O4 0.373768 0.247737 0.997262
O O5 0.943627 0.438275 0.121549
O O6 0.910604 0.611881 0.085014
O O7 0.799062 0.479617 0.006806
O O8 0.000000 0.500000 0.000000
O O9 0.617363 0.430262 0.916686
O O10 0.457770 0.544363 0.862021
O O11 0.500000 0.500000 0.000000
O O12 0.300738 0.335752 0.464238
O O13 0.209200 0.330146 0.580712
O O14 0.859241 0.715574 0.637101
O O15 0.665307 0.688142 0.671434
O O16 0.500000 0.849145 0.250000
O O17 0.030992 0.785405 0.375162
O O18 0.000000 0.138379 0.750000
#
# Coordination Sequence:
#
# PCOD9273557 Si02
#       8
#     8   8   8   8   8   8   8   8
#     4  11  23  42  68  99 127 172 219 278 325 387
#     4  11  22  39  67 101 130 173 223 271 325 400
#     4  12  21  41  69  98 127 171 224 276 323 384
#     4  10  20  37  70 100 119 165 230 274 314 377
#     4  10  21  42  67  93 130 170 218 272 324 391
#     4  11  25  42  67  96 133 176 220 272 330 393
#     4  11  24  42  67  99 135 170 221 269 333 392
#     4  12  28  44  64  96 138 177 215 272 342 397
#
# _framework density 19.384803999999999
#
# number of rings (size 3 to 8) (size 9 to 14) (size 15 to 20)
#    0.000    1.000    5.000    1.500    7.000    1.000 
#    0.000    0.000    0.000    0.000    0.000    0.000 
#    0.000    0.000    0.000    0.000    0.000    0.000 
#
# Total GULP energy -178805.684301 kJ/mol
# GULP energy per Si atom -5587.677634 kJ/mol
# Density = 1.934068 g / cm^3
# Si number density = 19.384804 Si / 1000 Ang^3
#
#
#
# Elastic Constant Matrix: (Units=GPa)
#
#
# Indices 1 2 3 4 5 6 
#
# 1 99.7803 31.3916 14.5328 0.0000 -18.0987 0.0000
# 2 31.3916 117.5684 16.5325 0.0000 -5.3175 0.0000
# 3 14.5328 16.5325 70.4828 0.0000 -17.1335 0.0000
# 4 0.0000 0.0000 0.0000 11.6333 0.0000 -19.6309
# 5 -18.0987 -5.3175 -17.1335 0.0000 29.2393 0.0000
# 6 0.0000 0.0000 0.0000 -19.6309 0.0000 6.7642
#
#
#
# Elastic Compliance Matrix: (Units=1/GPa)
#
#
# Indices 1 2 3 4 5 6 
#
# 1 0.012225 -0.002930 -0.000144 0.000000 0.006950 0.000000
# 2 -0.002930 0.009503 -0.001919 0.000000 -0.001210 0.000000
# 3 -0.000144 -0.001919 0.016980 0.000000 0.009512 0.000000
# 4 0.000000 0.000000 0.000000 -0.022056 0.000000 -0.064010
# 5 0.006950 -0.001210 0.009512 0.000000 0.043856 0.000000
# 6 0.000000 0.000000 0.000000 -0.064010 0.000000 -0.037933
#
#
# Mechanical properties :
#
#
# Convention : Reuss Voigt Hill
#
# Bulk Modulus (GPa) = 34.81564 45.86059 40.33811
# Shear Modulus (GPa) = 118.66519 24.55235 71.60877
#
# Velocity S-wave (km/s) = 7.83253 3.56276 6.08448
# Velocity P-wave (km/s) = 9.98986 6.37446 8.37947
#
# Compressibility (1/GPa) = 0.02872273
#
# Stress axis : x y z
#
# Youngs Moduli (GPa) = 81.79739 105.22919 58.89328
#
# Poissons Ratio (x) = 0.30828 0.00849
# Poissons Ratio (y) = 0.23964 0.11302
# Poissons Ratio (z) = 0.01179 0.20194
#
# Static dielectric constant tensor:
#      x y z
#    x 1.713960 0.000000 -0.016970 
#    y 0.000000 1.691700 0.000000 
#    z -0.016970 0.000000 1.639850 
# 
# From -- ./inp_files/198362.got.cif
#   From: 2010.05.17/outbox.cif.g08.bks.cpg/sg15_100_cif.got.tgz:198362.got - 2010.06.03 18:47:42.
