data_PCOD9273673
_publ_section_title
;
Structure prediction by ZEFSAII (Michael W. Deem and Ramdas Pophale) SiO2 
 PCOD9273673
Probable space group: C 2/C
;
_chemical_formula_sum "Si O2"
_cell_formula_units_Z 36
_cell_length_a 34.188613
_cell_length_b 9.092030
_cell_length_c 7.646444
_cell_angle_alpha 90.000000
_cell_angle_beta 135.227701
_cell_angle_gamma 90.000000
_cell_volume 1673.994534
_symmetry_space_group_name_H-M "C 2/C"
_symmetry_group_IT_number 15
_symmetry_cell_setting 'monoclinic'
loop_
_space_group_symop_operation_xyz
x,y,z
-x,y,1/2-z
-x,-y,-z
x,-y,1/2+z
1/2+x,1/2+y,z
1/2-x,1/2+y,1/2-z
1/2-x,1/2-y,-z
1/2+x,1/2-y,1/2+z
loop_
_atom_site_type_symbol
_atom_site_label
_atom_site_fract_x
_atom_site_fract_y
_atom_site_fract_z
Si Si1 0.500000 0.110162 0.250000
Si Si2 0.649148 0.654422 0.750740
Si Si3 0.075075 0.374907 0.685132
Si Si4 0.190765 0.644884 0.676917
Si Si5 0.187364 0.858061 0.981759
O O1 0.462909 0.188502 0.278899
O O2 0.542324 0.003659 0.487066
O O3 0.593501 0.747400 0.610118
O O4 0.645578 0.481506 0.776592
O O5 0.673065 0.676841 0.634724
O O6 0.688650 0.723844 0.026420
O O7 0.133213 0.435729 0.950962
O O8 0.186760 0.717197 0.854456
O O9 0.250555 0.573615 0.842473
#
# Coordination Sequence:
#
# PCOD9273673 Si02
#       5
#     4   8   8   8   8
#     4  10  20  44  60  80 116 154 202 274 284 354
#     4  10  20  38  57  92 120 162 192 242 283 364
#     4   9  22  38  62  87 114 154 206 245 313 330
#     4   9  22  37  57  95 116 170 183 236 292 365
#     4  11  19  37  63  86 139 149 194 228 298 362
#
# _framework density 21.505445000000002
#
# number of rings (size 3 to 8) (size 9 to 14) (size 15 to 20)
#    1.333    0.889    2.222    0.667    0.000    5.333 
#    0.000    0.000    0.000   16.000    0.000    0.000 
#    0.000    0.000    0.000    0.000    0.000    0.000 
#
# Total GULP energy -100369.045146 kJ/mol
# GULP energy per Si atom -5576.058064 kJ/mol
# Density = 2.145650 g / cm^3
# Si number density = 21.505445 Si / 1000 Ang^3
#
#
#
# Elastic Constant Matrix: (Units=GPa)
#
#
# Indices 1 2 3 4 5 6 
#
# 1 175.0713 18.4825 21.0241 0.0000 -2.9887 0.0000
# 2 18.4825 20.7674 -0.9320 0.0000 14.1068 0.0000
# 3 21.0241 -0.9320 85.3345 0.0000 10.4796 0.0000
# 4 0.0000 0.0000 0.0000 13.9966 0.0000 7.2145
# 5 -2.9887 14.1068 10.4796 0.0000 35.6972 0.0000
# 6 0.0000 0.0000 0.0000 7.2145 0.0000 5.1085
#
#
#
# Elastic Compliance Matrix: (Units=1/GPa)
#
#
# Indices 1 2 3 4 5 6 
#
# 1 0.007178 -0.010138 -0.002536 0.000000 0.005352 0.000000
# 2 -0.010138 0.081522 0.007727 0.000000 -0.035333 0.000000
# 3 -0.002536 0.007727 0.013309 0.000000 -0.007173 0.000000
# 4 0.000000 0.000000 0.000000 0.262617 0.000000 -0.370884
# 5 0.005352 -0.035333 -0.007173 0.000000 0.044530 0.000000
# 6 0.000000 0.000000 0.000000 -0.370884 0.000000 0.719537
#
#
# Mechanical properties :
#
#
# Convention : Reuss Voigt Hill
#
# Bulk Modulus (GPa) = 10.85592 39.81360 25.33476
# Shear Modulus (GPa) = 4.27609 27.13371 15.70490
#
# Velocity S-wave (km/s) = 1.41163 3.55591 2.70529
# Velocity P-wave (km/s) = 2.77774 5.95087 4.64374
#
# Compressibility (1/GPa) = 0.09211564
#
# Stress axis : x y z
#
# Youngs Moduli (GPa) = 139.31160 12.26656 75.13835
#
# Poissons Ratio (x) = 0.12435 0.19058
# Poissons Ratio (y) = 1.41228 -0.58060
# Poissons Ratio (z) = 0.35336 -0.09479
#
# Static dielectric constant tensor:
#      x y z
#    x 1.785630 0.000000 0.008430 
#    y 0.000000 1.767340 0.000000 
#    z 0.008430 0.000000 1.816960 
# 
# From -- ./inp_files/65298.got.cif
#   From: 2010.05.17/outbox.cif.g08.bks.cpg/sg15_33_cif.got.tgz:65298.got - 2010.06.03 18:47:42.
