data_PCOD9273379
_publ_section_title
;
Structure prediction by ZEFSAII (Michael W. Deem and Ramdas Pophale) SiO2 
 PCOD9273379
Probable space group: C 2/C
;
_chemical_formula_sum "Si O2"
_cell_formula_units_Z 48
_cell_length_a 15.170254
_cell_length_b 13.147962
_cell_length_c 11.073270
_cell_angle_alpha 90.000000
_cell_angle_beta 88.406306
_cell_angle_gamma 90.000000
_cell_volume 2207.797090
_symmetry_space_group_name_H-M "C 2/C"
_symmetry_group_IT_number 15
_symmetry_cell_setting 'monoclinic'
loop_
_space_group_symop_operation_xyz
x,y,z
-x,y,1/2-z
-x,-y,-z
x,-y,1/2+z
1/2+x,1/2+y,z
1/2-x,1/2+y,1/2-z
1/2-x,1/2-y,-z
1/2+x,1/2-y,1/2+z
loop_
_atom_site_type_symbol
_atom_site_label
_atom_site_fract_x
_atom_site_fract_y
_atom_site_fract_z
Si Si1 0.588986 0.971368 0.173910
Si Si2 0.103952 0.796907 0.229070
Si Si3 0.257339 0.457308 0.346878
Si Si4 0.739461 0.184093 0.381298
Si Si5 0.591161 0.243129 0.750532
Si Si6 0.132058 0.650743 0.004107
O O1 0.500000 0.999560 0.250000
O O2 0.678154 0.977319 0.252265
O O3 0.594673 0.045229 0.059834
O O4 0.584532 0.850100 0.154777
O O5 0.147516 0.721311 0.326817
O O6 0.119160 0.734139 0.105846
O O7 0.000000 0.813715 0.250000
O O8 0.160403 0.901892 0.220191
O O9 0.260202 0.567147 0.408167
O O10 0.228818 0.619693 0.954407
O O11 0.750000 0.250000 0.500000
O O12 0.815679 0.207503 0.279764
O O13 0.500000 0.305328 0.750000
O O14 0.592764 0.192073 0.881530
#
# Coordination Sequence:
#
# PCOD9273379 Si02
#       6
#     8   8   8   8   8   8
#     4  10  20  37  65 104 133 172 229 288 350 407
#     4  12  27  48  70 104 139 192 235 283 355 430
#     4  11  25  42  70  99 138 179 231 291 347 417
#     4  12  26  45  69 102 140 180 235 296 349 416
#     4  10  24  41  65 101 137 178 228 288 361 412
#     4  11  22  43  71  98 138 180 235 284 351 425
#
# _framework density 21.741128
#
# number of rings (size 3 to 8) (size 9 to 14) (size 15 to 20)
#    0.000    1.000    5.000    2.000    2.333    6.667 
#    0.000    0.833    0.000    0.000    0.000    0.000 
#    0.000    0.000    0.000    0.000    0.000    0.000 
#
# Total GULP energy -133813.844293 kJ/mol
# GULP energy per Si atom -5575.576846 kJ/mol
# Density = 2.169164 g / cm^3
# Si number density = 21.741128 Si / 1000 Ang^3
#
#
#
# Elastic Constant Matrix: (Units=GPa)
#
#
# Indices 1 2 3 4 5 6 
#
# 1 152.5772 42.5296 42.9423 0.0000 1.8535 0.0000
# 2 42.5296 94.3676 27.7932 0.0000 4.2094 0.0000
# 3 42.9423 27.7932 61.1839 0.0000 -6.2088 0.0000
# 4 0.0000 0.0000 0.0000 26.3808 0.0000 -14.6230
# 5 1.8535 4.2094 -6.2088 0.0000 19.6077 0.0000
# 6 0.0000 0.0000 0.0000 -14.6230 0.0000 17.8936
#
#
#
# Elastic Compliance Matrix: (Units=1/GPa)
#
#
# Indices 1 2 3 4 5 6 
#
# 1 0.008697 -0.002277 -0.005273 0.000000 -0.002003 0.000000
# 2 -0.002277 0.013232 -0.004834 0.000000 -0.004156 0.000000
# 3 -0.005273 -0.004834 0.023141 0.000000 0.008864 0.000000
# 4 0.000000 0.000000 0.000000 0.069298 0.000000 0.056631
# 5 -0.002003 -0.004156 0.008864 0.000000 0.054889 0.000000
# 6 0.000000 0.000000 0.000000 0.056631 0.000000 0.102166
#
#
# Mechanical properties :
#
#
# Convention : Reuss Voigt Hill
#
# Bulk Modulus (GPa) = 49.25884 59.40655 54.33270
# Shear Modulus (GPa) = 16.50389 25.76732 21.13561
#
# Velocity S-wave (km/s) = 2.75818 3.44639 3.12131
# Velocity P-wave (km/s) = 5.73146 6.57424 6.16726
#
# Compressibility (1/GPa) = 0.02030092
#
# Stress axis : x y z
#
# Youngs Moduli (GPa) = 114.97903 75.57209 43.21423
#
# Poissons Ratio (x) = 0.17210 0.22787
# Poissons Ratio (y) = 0.26184 0.20891
# Poissons Ratio (z) = 0.60628 0.36534
#
# Static dielectric constant tensor:
#      x y z
#    x 1.881010 0.000000 0.021050 
#    y 0.000000 1.866960 0.000000 
#    z 0.021050 0.000000 1.818360 
# 
# From -- ./inp_files/96551.got.cif
#   From: 2010.05.17/outbox.cif.g08.bks.cpg/sg15_49_cif.got.tgz:96551.got - 2010.06.03 18:47:42.
