data_PCOD9273643
_publ_section_title
;
Structure prediction by ZEFSAII (Michael W. Deem and Ramdas Pophale) SiO2 
 PCOD9273643
Probable space group: C 2/C
;
_chemical_formula_sum "Si O2"
_cell_formula_units_Z 52
_cell_length_a 15.720957
_cell_length_b 11.504127
_cell_length_c 14.635392
_cell_angle_alpha 90.000000
_cell_angle_beta 69.980853
_cell_angle_gamma 90.000000
_cell_volume 2486.966710
_symmetry_space_group_name_H-M "C 2/C"
_symmetry_group_IT_number 15
_symmetry_cell_setting 'monoclinic'
loop_
_space_group_symop_operation_xyz
x,y,z
-x,y,1/2-z
-x,-y,-z
x,-y,1/2+z
1/2+x,1/2+y,z
1/2-x,1/2+y,1/2-z
1/2-x,1/2-y,-z
1/2+x,1/2-y,1/2+z
loop_
_atom_site_type_symbol
_atom_site_label
_atom_site_fract_x
_atom_site_fract_y
_atom_site_fract_z
Si Si1 0.657583 0.621639 0.279788
Si Si2 0.733673 0.304997 0.170077
Si Si3 0.500000 0.494491 0.750000
Si Si4 0.403495 0.673655 0.914947
Si Si5 0.598564 0.747178 0.890970
Si Si6 0.219477 0.440649 0.921285
Si Si7 0.817404 0.977810 0.066180
O O1 0.678893 0.738599 0.324639
O O2 0.555568 0.580803 0.302005
O O3 0.700551 0.626958 0.162965
O O4 0.707769 0.523083 0.323353
O O5 0.678716 0.257065 0.101627
O O6 0.660681 0.280852 0.278592
O O7 0.769247 0.430025 0.123307
O O8 0.431940 0.579777 0.826842
O O9 0.492867 0.745063 0.905370
O O10 0.371249 0.588413 0.006513
O O11 0.632324 0.866135 0.924758
O O12 0.620465 0.635684 0.946117
O O13 0.240244 0.447466 0.021224
#
# Coordination Sequence:
#
# PCOD9273643 Si02
#       7
#     8   8   4   8   8   8   8
#     4  11  22  35  60  83 115 146 186 236 280 329
#     4  10  20  38  57  79 115 153 186 224 282 336
#     4  12  18  38  56  88 108 142 188 240 274 326
#     4  11  19  33  60  85 112 142 192 232 276 327
#     4  11  19  33  58  88 113 144 187 238 274 327
#     4  10  21  36  56  82 118 150 187 224 280 338
#     4  11  20  35  58  89 113 144 187 233 286 323
#
# _framework density 20.909006000000002
#
# number of rings (size 3 to 8) (size 9 to 14) (size 15 to 20)
#    0.000    1.231    7.692    0.923    0.000    2.462 
#    0.000    0.000    6.769    1.846    0.000    0.000 
#    0.000    0.000    0.000    0.000    0.000    0.000 
#
# Total GULP energy -144918.815625 kJ/mol
# GULP energy per Si atom -5573.800601 kJ/mol
# Density = 2.086142 g / cm^3
# Si number density = 20.909006 Si / 1000 Ang^3
#
#
#
# Elastic Constant Matrix: (Units=GPa)
#
#
# Indices 1 2 3 4 5 6 
#
# 1 102.5645 41.9418 29.3165 0.0000 39.2916 0.0000
# 2 41.9418 35.6401 1.4069 0.0000 25.5078 0.0000
# 3 29.3165 1.4069 74.8260 0.0000 19.7711 0.0000
# 4 0.0000 0.0000 0.0000 24.0056 0.0000 11.8717
# 5 39.2916 25.5078 19.7711 0.0000 35.5806 0.0000
# 6 0.0000 0.0000 0.0000 11.8717 0.0000 45.0151
#
#
#
# Elastic Compliance Matrix: (Units=1/GPa)
#
#
# Indices 1 2 3 4 5 6 
#
# 1 0.023506 -0.024252 -0.007605 0.000000 -0.004345 0.000000
# 2 -0.024252 0.092588 0.021359 0.000000 -0.051463 0.000000
# 3 -0.007605 0.021359 0.020827 0.000000 -0.018487 0.000000
# 4 0.000000 0.000000 0.000000 0.047905 0.000000 -0.012634
# 5 -0.004345 -0.051463 -0.018487 0.000000 0.080070 0.000000
# 6 0.000000 0.000000 0.000000 -0.012634 0.000000 0.025547
#
#
# Mechanical properties :
#
#
# Convention : Reuss Voigt Hill
#
# Bulk Modulus (GPa) = 8.62633 39.81789 24.22211
# Shear Modulus (GPa) = 14.28243 30.27795 22.28019
#
# Velocity S-wave (km/s) = 2.61641 3.80950 3.26786
# Velocity P-wave (km/s) = 3.64171 6.19955 5.08412
#
# Compressibility (1/GPa) = 0.11592414
#
# Stress axis : x y z
#
# Youngs Moduli (GPa) = 42.54278 10.80058 48.01414
#
# Poissons Ratio (x) = 0.26193 0.36516
# Poissons Ratio (y) = 1.03174 -1.02553
# Poissons Ratio (z) = 0.32355 -0.23069
#
# Static dielectric constant tensor:
#      x y z
#    x 1.760100 0.000000 0.005880 
#    y 0.000000 1.780730 0.000000 
#    z 0.005880 0.000000 1.839460 
# 
# From -- ./inp_files/160383.got.cif
#   From: 2010.05.17/outbox.cif.g08.bks.cpg/sg15_81_cif.got.tgz:160383.got - 2010.06.03 18:47:42.
