data_PCOD9273539
_publ_section_title
;
Structure prediction by ZEFSAII (Michael W. Deem and Ramdas Pophale) SiO2 
 PCOD9273539
Probable space group: C 2/C
;
_chemical_formula_sum "Si O2"
_cell_formula_units_Z 32
_cell_length_a 20.857708
_cell_length_b 8.941243
_cell_length_c 9.452805
_cell_angle_alpha 90.000000
_cell_angle_beta 43.997481
_cell_angle_gamma 90.000000
_cell_volume 1224.550445
_symmetry_space_group_name_H-M "C 2/C"
_symmetry_group_IT_number 15
_symmetry_cell_setting 'monoclinic'
loop_
_space_group_symop_operation_xyz
x,y,z
-x,y,1/2-z
-x,-y,-z
x,-y,1/2+z
1/2+x,1/2+y,z
1/2-x,1/2+y,1/2-z
1/2-x,1/2-y,-z
1/2+x,1/2-y,1/2+z
loop_
_atom_site_type_symbol
_atom_site_label
_atom_site_fract_x
_atom_site_fract_y
_atom_site_fract_z
Si Si1 0.083768 0.070620 0.018419
Si Si2 0.603195 0.027542 0.627555
Si Si3 0.227441 0.467528 0.165252
Si Si4 0.120133 0.820327 0.154515
O O1 0.000000 0.123522 0.250000
O O2 0.090004 0.894859 0.052058
O O3 0.184873 0.123922 0.913815
O O4 0.076502 0.111247 0.866841
O O5 0.500000 0.070119 0.750000
O O6 0.668241 0.028449 0.388352
O O7 0.599627 0.853355 0.681696
O O8 0.655969 0.109139 0.671999
O O9 0.277531 0.605322 0.005070
#
# Coordination Sequence:
#
# PCOD9273539 Si02
#       4
#     8   8   8   8
#     4  10  20  37  67  99 132 159 212 276 325 377
#     4  12  24  44  66  92 135 179 213 263 322 387
#     4  10  22  40  66  95 129 171 215 265 320 383
#     4  10  22  41  66  94 130 167 214 266 324 376
#
# _framework density 26.132038999999999
#
# number of rings (size 3 to 8) (size 9 to 14) (size 15 to 20)
#    1.500    0.000    2.500    3.000    0.000    0.000 
#    0.000   11.250    0.000    0.000    0.000    0.000 
#    0.000    0.000    0.000    0.000    0.000    0.000 
#
# Total GULP energy -89355.011519 kJ/mol
# GULP energy per Si atom -5584.688220 kJ/mol
# Density = 2.607256 g / cm^3
# Si number density = 26.132039 Si / 1000 Ang^3
#
#
#
# Elastic Constant Matrix: (Units=GPa)
#
#
# Indices 1 2 3 4 5 6 
#
# 1 212.8584 -12.7103 58.3938 0.0000 -18.1757 0.0000
# 2 -12.7103 69.3712 -11.6085 0.0000 10.1522 0.0000
# 3 58.3938 -11.6085 203.5651 0.0000 -4.4255 0.0000
# 4 0.0000 0.0000 0.0000 -29.9144 0.0000 -12.0335
# 5 -18.1757 10.1522 -4.4255 0.0000 60.8320 0.0000
# 6 0.0000 0.0000 0.0000 -12.0335 0.0000 -24.7360
#
#
#
# Elastic Compliance Matrix: (Units=1/GPa)
#
#
# Indices 1 2 3 4 5 6 
#
# 1 0.005243 0.000518 -0.001444 0.000000 0.001375 0.000000
# 2 0.000518 0.014955 0.000654 0.000000 -0.002294 0.000000
# 3 -0.001444 0.000654 0.005361 0.000000 -0.000151 0.000000
# 4 0.000000 0.000000 0.000000 -0.041562 0.000000 0.020219
# 5 0.001375 -0.002294 -0.000151 0.000000 0.017221 0.000000
# 6 0.000000 0.000000 0.000000 0.020219 0.000000 -0.050263
#
#
# Mechanical properties :
#
#
# Convention : Reuss Voigt Hill
#
# Bulk Modulus (GPa) = 39.97775 61.54940 50.76358
# Shear Modulus (GPa) = -124.49489 31.35095 -46.57197
#
# Velocity S-wave (km/s) = -6.90971 3.46745 -4.22617
# Velocity P-wave (km/s) = 6.95178 6.29565 2.08471
#
# Compressibility (1/GPa) = 0.02501391
#
# Stress axis : x y z
#
# Youngs Moduli (GPa) = 190.74779 66.86629 186.53854
#
# Poissons Ratio (x) = -0.03461 0.26944
# Poissons Ratio (y) = -0.09873 -0.12209
# Poissons Ratio (z) = 0.27552 -0.04376
#
# Static dielectric constant tensor:
#      x y z
#    x 2.181350 0.000000 -0.092960 
#    y 0.000000 2.073220 0.000000 
#    z -0.092960 0.000000 1.970900 
# 
# From -- ./inp_files/45646.got.cif
#   From: 2010.05.17/outbox.cif.g08.bks.cpg/sg15_23_cif.got.tgz:45646.got - 2010.06.03 18:47:42.
