data_PCOD9273050
_publ_section_title
;
Structure prediction by ZEFSAII (Michael W. Deem and Ramdas Pophale) SiO2 
 PCOD9273050
Probable space group: C 2/C
;
_chemical_formula_sum "Si O2"
_cell_formula_units_Z 56
_cell_length_a 24.039907
_cell_length_b 15.221746
_cell_length_c 9.258139
_cell_angle_alpha 90.000000
_cell_angle_beta 55.723972
_cell_angle_gamma 90.000000
_cell_volume 2799.474857
_symmetry_space_group_name_H-M "C 2/C"
_symmetry_group_IT_number 15
_symmetry_cell_setting 'monoclinic'
loop_
_space_group_symop_operation_xyz
x,y,z
-x,y,1/2-z
-x,-y,-z
x,-y,1/2+z
1/2+x,1/2+y,z
1/2-x,1/2+y,1/2-z
1/2-x,1/2-y,-z
1/2+x,1/2-y,1/2+z
loop_
_atom_site_type_symbol
_atom_site_label
_atom_site_fract_x
_atom_site_fract_y
_atom_site_fract_z
Si Si1 0.353818 0.742292 0.407821
Si Si2 0.339850 0.513918 0.754310
Si Si3 0.721805 0.776264 0.271805
Si Si4 0.924496 0.581362 0.805665
Si Si5 0.858490 0.453052 0.111119
Si Si6 0.924828 0.916303 0.874349
Si Si7 0.256475 0.410917 0.632076
O O1 0.327966 0.740796 0.281659
O O2 0.292225 0.702643 0.589461
O O3 0.371871 0.841295 0.423676
O O4 0.419204 0.685773 0.343852
O O5 0.380071 0.460140 0.815752
O O6 0.392343 0.566468 0.577814
O O7 0.301023 0.451760 0.698226
O O8 0.289134 0.569353 0.928373
O O9 0.685741 0.867472 0.366608
O O10 0.740264 0.694494 0.348365
O O11 0.913888 0.573347 0.649906
O O12 0.000000 0.598753 0.750000
O O13 0.896910 0.494138 0.920823
O O14 0.810736 0.529327 0.251105
O O15 0.000000 0.950035 0.750000
#
# Coordination Sequence:
#
# PCOD9273050 Si02
#       7
#     8   8   8   8   8   8   8
#     4  10  20  37  62  90 112 160 205 251 308 365
#     4  10  22  35  61  87 122 159 199 253 316 357
#     4  10  20  37  63  87 124 151 198 260 317 361
#     4  11  23  42  62  88 124 168 209 251 301 383
#     4  11  23  39  65  92 121 165 203 257 322 362
#     4  11  21  38  57  86 120 162 205 243 298 380
#     4  11  20  40  60  93 124 153 202 266 313 369
#
# _framework density 20.003751000000001
#
# number of rings (size 3 to 8) (size 9 to 14) (size 15 to 20)
#    0.000    1.429    2.857    3.857    2.000    0.000 
#    2.571    2.143    0.000    0.000    0.000    0.000 
#    0.000    0.000    0.000    0.000    0.000    0.000 
#
# Total GULP energy -156175.210991 kJ/mol
# GULP energy per Si atom -5577.686107 kJ/mol
# Density = 1.995822 g / cm^3
# Si number density = 20.003751 Si / 1000 Ang^3
#
#
#
# Elastic Constant Matrix: (Units=GPa)
#
#
# Indices 1 2 3 4 5 6 
#
# 1 83.3908 16.2047 13.9901 0.0000 8.5228 0.0000
# 2 16.2047 80.0167 7.8271 0.0000 7.7083 0.0000
# 3 13.9901 7.8271 65.7918 0.0000 12.9867 0.0000
# 4 0.0000 0.0000 0.0000 0.4423 0.0000 -41.0087
# 5 8.5228 7.7083 12.9867 0.0000 20.2152 0.0000
# 6 0.0000 0.0000 0.0000 -41.0087 0.0000 -39.3329
#
#
#
# Elastic Compliance Matrix: (Units=1/GPa)
#
#
# Indices 1 2 3 4 5 6 
#
# 1 0.013073 -0.002129 -0.001831 0.000000 -0.003523 0.000000
# 2 -0.002129 0.013345 -0.000352 0.000000 -0.003965 0.000000
# 3 -0.001831 -0.000352 0.017696 0.000000 -0.010462 0.000000
# 4 0.000000 0.000000 0.000000 0.023149 0.000000 -0.024135
# 5 -0.003523 -0.003965 -0.010462 0.000000 0.059186 0.000000
# 6 0.000000 0.000000 0.000000 -0.024135 0.000000 -0.000260
#
#
# Mechanical properties :
#
#
# Convention : Reuss Voigt Hill
#
# Bulk Modulus (GPa) = 28.17785 33.91590 31.04687
# Shear Modulus (GPa) = 34.09658 9.01009 21.55333
#
# Velocity S-wave (km/s) = 4.13305 2.12461 3.28604
# Velocity P-wave (km/s) = 6.07396 4.79690 5.47281
#
# Compressibility (1/GPa) = 0.03548887
#
# Stress axis : x y z
#
# Youngs Moduli (GPa) = 76.49521 74.93482 56.51054
#
# Poissons Ratio (x) = 0.15953 0.10347
# Poissons Ratio (y) = 0.16285 0.01991
# Poissons Ratio (z) = 0.14007 0.02640
#
# Static dielectric constant tensor:
#      x y z
#    x 1.689020 0.000000 0.002760 
#    y 0.000000 1.771080 0.000000 
#    z 0.002760 0.000000 1.684980 
# 
# From -- ./inp_files/61606.got.cif
#   From: 2010.05.17/outbox.cif.g08.bks.cpg/sg15_31_cif.got.tgz:61606.got - 2010.06.03 18:47:42.
