data_PCOD9273955
_publ_section_title
;
Structure prediction by ZEFSAII (Michael W. Deem and Ramdas Pophale) SiO2 
 PCOD9273955
Probable space group: C 2/C
;
_chemical_formula_sum "Si O2"
_cell_formula_units_Z 60
_cell_length_a 30.364808
_cell_length_b 11.684191
_cell_length_c 7.547829
_cell_angle_alpha 90.000000
_cell_angle_beta 70.794563
_cell_angle_gamma 90.000000
_cell_volume 2528.843758
_symmetry_space_group_name_H-M "C 2/C"
_symmetry_group_IT_number 15
_symmetry_cell_setting 'monoclinic'
loop_
_space_group_symop_operation_xyz
x,y,z
-x,y,1/2-z
-x,-y,-z
x,-y,1/2+z
1/2+x,1/2+y,z
1/2-x,1/2+y,1/2-z
1/2-x,1/2-y,-z
1/2+x,1/2-y,1/2+z
loop_
_atom_site_type_symbol
_atom_site_label
_atom_site_fract_x
_atom_site_fract_y
_atom_site_fract_z
Si Si1 0.636106 0.401174 0.952014
Si Si2 0.542776 0.156786 0.908828
Si Si3 0.470874 0.397003 0.459634
Si Si4 0.218185 0.346719 0.856941
Si Si5 0.810995 0.117807 0.465157
Si Si6 0.827026 0.486071 0.292753
Si Si7 0.500000 0.988393 0.750000
Si Si8 0.131025 0.343777 0.551708
O O1 0.648933 0.359794 0.735691
O O2 0.581543 0.434529 0.024349
O O3 0.670370 0.503039 0.965528
O O4 0.640487 0.289212 0.070342
O O5 0.542007 0.078163 0.735887
O O6 0.533575 0.290501 0.900170
O O7 0.503186 0.097345 0.081052
O O8 0.586759 0.148704 0.981548
O O9 0.500000 0.355689 0.250000
O O10 0.500000 0.500000 0.500000
O O11 0.265447 0.374581 0.898503
O O12 0.214595 0.422754 0.686041
O O13 0.203618 0.214484 0.871990
O O14 0.178939 0.401700 0.036002
O O15 0.869323 0.573807 0.278021
O O16 0.829488 0.400884 0.123997
#
# Coordination Sequence:
#
# PCOD9273955 Si02
#       8
#     8   8   8   8   8   8   4   8
#     4  11  24  42  65  92 127 161 220 259 318 378
#     4  10  21  38  61  89 122 157 206 259 309 378
#     4  11  24  44  64  91 126 165 212 266 317 378
#     4  10  22  40  64  89 130 158 213 250 316 375
#     4  11  23  42  61  94 123 167 203 266 306 378
#     4  10  20  40  60  91 119 168 200 254 311 365
#     4  10  20  38  60  90 120 160 204 256 328 370
#     4  10  21  38  62  87 126 157 213 255 311 369
#
# _framework density 23.726258000000001
#
# number of rings (size 3 to 8) (size 9 to 14) (size 15 to 20)
#    0.000    1.600    2.000    2.400    2.800    0.000 
#    0.000    3.333    0.000    0.000    0.000    0.000 
#    0.000    0.000    0.000    0.000    0.000    0.000 
#
# Total GULP energy -167181.886853 kJ/mol
# GULP energy per Si atom -5572.729562 kJ/mol
# Density = 2.367226 g / cm^3
# Si number density = 23.726258 Si / 1000 Ang^3
#
#
#
# Elastic Constant Matrix: (Units=GPa)
#
#
# Indices 1 2 3 4 5 6 
#
# 1 111.9809 77.8238 6.7816 0.0000 9.8703 0.0000
# 2 77.8238 173.7013 5.7222 0.0000 15.1369 0.0000
# 3 6.7816 5.7222 38.4891 0.0000 6.3222 0.0000
# 4 0.0000 0.0000 0.0000 20.2294 0.0000 10.3376
# 5 9.8703 15.1369 6.3222 0.0000 28.4374 0.0000
# 6 0.0000 0.0000 0.0000 10.3376 0.0000 21.4399
#
#
#
# Elastic Compliance Matrix: (Units=1/GPa)
#
#
# Indices 1 2 3 4 5 6 
#
# 1 0.013085 -0.005715 -0.001255 0.000000 -0.001221 0.000000
# 2 -0.005715 0.008538 0.000164 0.000000 -0.002598 0.000000
# 3 -0.001255 0.000164 0.027111 0.000000 -0.005679 0.000000
# 4 0.000000 0.000000 0.000000 0.065595 0.000000 -0.031628
# 5 -0.001221 -0.002598 -0.005679 0.000000 0.038234 0.000000
# 6 0.000000 0.000000 0.000000 -0.031628 0.000000 0.061892
#
#
# Mechanical properties :
#
#
# Convention : Reuss Voigt Hill
#
# Bulk Modulus (GPa) = 28.47168 56.09182 42.28175
# Shear Modulus (GPa) = 20.85279 29.61093 25.23186
#
# Velocity S-wave (km/s) = 2.96783 3.53657 3.26461
# Velocity P-wave (km/s) = 4.87546 6.35366 5.66300
#
# Compressibility (1/GPa) = 0.03512262
#
# Stress axis : x y z
#
# Youngs Moduli (GPa) = 76.42055 117.11686 36.88543
#
# Poissons Ratio (x) = 0.66932 0.04631
# Poissons Ratio (y) = 0.43674 -0.00606
# Poissons Ratio (z) = 0.09594 -0.01924
#
# Static dielectric constant tensor:
#      x y z
#    x 1.989590 0.000000 0.035600 
#    y 0.000000 1.906460 0.000000 
#    z 0.035600 0.000000 2.082740 
# 
# From -- ./inp_files/69081.got.cif
#   From: 2010.05.17/outbox.cif.g08.bks.cpg/sg15_35_cif.got.tgz:69081.got - 2010.06.03 18:47:42.
