data_PCOD9273861
_publ_section_title
;
Structure prediction by ZEFSAII (Michael W. Deem and Ramdas Pophale) SiO2 
 PCOD9273861
Probable space group: C 2/C
;
_chemical_formula_sum "Si O2"
_cell_formula_units_Z 64
_cell_length_a 14.089712
_cell_length_b 13.941875
_cell_length_c 15.954601
_cell_angle_alpha 90.000000
_cell_angle_beta 57.661310
_cell_angle_gamma 90.000000
_cell_volume 2647.981670
_symmetry_space_group_name_H-M "C 2/C"
_symmetry_group_IT_number 15
_symmetry_cell_setting 'monoclinic'
loop_
_space_group_symop_operation_xyz
x,y,z
-x,y,1/2-z
-x,-y,-z
x,-y,1/2+z
1/2+x,1/2+y,z
1/2-x,1/2+y,1/2-z
1/2-x,1/2-y,-z
1/2+x,1/2-y,1/2+z
loop_
_atom_site_type_symbol
_atom_site_label
_atom_site_fract_x
_atom_site_fract_y
_atom_site_fract_z
Si Si1 0.827877 0.112758 0.904789
Si Si2 0.583580 0.730677 0.080851
Si Si3 0.796514 0.386994 0.195616
Si Si4 0.829618 0.210567 0.276466
Si Si5 0.885324 0.031755 0.512785
Si Si6 0.007310 0.384387 0.997355
Si Si7 0.400802 0.176209 0.388650
Si Si8 0.197438 0.432329 0.718450
O O1 0.803064 0.087880 0.820026
O O2 0.899347 0.209560 0.878438
O O3 0.712998 0.140290 0.009405
O O4 0.877084 0.021357 0.927468
O O5 0.456694 0.714449 0.177958
O O6 0.658214 0.718667 0.129287
O O7 0.589714 0.830843 0.024353
O O8 0.612573 0.644396 0.004850
O O9 0.767664 0.306507 0.274698
O O10 0.889894 0.344950 0.089429
O O11 0.856426 0.475975 0.211422
O O12 0.762220 0.126737 0.260456
O O13 0.789115 0.986693 0.616566
O O14 0.000000 0.000000 0.500000
O O15 0.002581 0.351873 0.902842
O O16 0.000000 0.500000 0.000000
O O17 0.379686 0.128530 0.307866
#
# Coordination Sequence:
#
# PCOD9273861 Si02
#       8
#     8   8   8   8   8   8   8   8
#     4   9  17  33  58  82 109 147 187 230 280 348
#     4  10  21  37  58  86 116 150 194 240 289 351
#     4  10  21  38  58  83 112 153 193 233 287 345
#     4  10  20  38  60  82 115 157 190 234 294 350
#     4  11  20  34  59  89 117 145 187 238 297 346
#     4  10  22  40  60  81 112 157 200 233 280 345
#     4   9  18  33  59  82 108 146 194 229 274 338
#     4  11  21  36  60  87 117 147 192 244 288 344
#
# _framework density 24.169350999999999
#
# number of rings (size 3 to 8) (size 9 to 14) (size 15 to 20)
#    0.000    2.000    2.500    1.500    5.250    0.000 
#    2.250    0.625    0.000    1.500    0.000    0.000 
#    0.000    0.000    0.000    0.000    0.000    0.000 
#
# Total GULP energy -178662.908726 kJ/mol
# GULP energy per Si atom -5583.215898 kJ/mol
# Density = 2.411434 g / cm^3
# Si number density = 24.169351 Si / 1000 Ang^3
#
#
#
# Elastic Constant Matrix: (Units=GPa)
#
#
# Indices 1 2 3 4 5 6 
#
# 1 65.4980 6.0483 42.3329 0.0000 16.2044 0.0000
# 2 6.0483 124.8980 49.4706 0.0000 25.2015 0.0000
# 3 42.3329 49.4706 146.6848 0.0000 35.2800 0.0000
# 4 0.0000 0.0000 0.0000 39.4836 0.0000 13.1620
# 5 16.2044 25.2015 35.2800 0.0000 40.4650 0.0000
# 6 0.0000 0.0000 0.0000 13.1620 0.0000 25.6556
#
#
#
# Elastic Compliance Matrix: (Units=1/GPa)
#
#
# Indices 1 2 3 4 5 6 
#
# 1 0.019598 0.002049 -0.005254 0.000000 -0.004543 0.000000
# 2 0.002049 0.009953 -0.002859 0.000000 -0.004526 0.000000
# 3 -0.005254 -0.002859 0.010583 0.000000 -0.005342 0.000000
# 4 0.000000 0.000000 0.000000 0.030552 0.000000 -0.015674
# 5 -0.004543 -0.004526 -0.005342 0.000000 0.034008 0.000000
# 6 0.000000 0.000000 0.000000 -0.015674 0.000000 0.047019
#
#
# Mechanical properties :
#
#
# Convention : Reuss Voigt Hill
#
# Bulk Modulus (GPa) = 35.70835 59.19827 47.45331
# Shear Modulus (GPa) = 28.87188 37.06943 32.97066
#
# Velocity S-wave (km/s) = 3.46000 3.92054 3.69745
# Velocity P-wave (km/s) = 5.54693 6.71122 6.15666
#
# Compressibility (1/GPa) = 0.02800466
#
# Stress axis : x y z
#
# Youngs Moduli (GPa) = 51.02438 100.47022 94.49201
#
# Poissons Ratio (x) = -0.20585 0.49649
# Poissons Ratio (y) = -0.10454 0.27020
# Poissons Ratio (z) = 0.26810 0.28729
#
# Static dielectric constant tensor:
#      x y z
#    x 1.991910 0.000000 0.058910 
#    y 0.000000 2.002450 0.000000 
#    z 0.058910 0.000000 2.217550 
# 
# From -- ./inp_files/161349.got.cif
#   From: 2010.05.17/outbox.cif.g08.bks.cpg/sg15_81_cif.got.tgz:161349.got - 2010.06.03 18:47:42.
