data_PCOD9273701
_publ_section_title
;
Structure prediction by ZEFSAII (Michael W. Deem and Ramdas Pophale) SiO2 
 PCOD9273701
Probable space group: C 2/C
;
_chemical_formula_sum "Si O2"
_cell_formula_units_Z 48
_cell_length_a 14.598558
_cell_length_b 28.521973
_cell_length_c 8.420781
_cell_angle_alpha 90.000000
_cell_angle_beta 37.421931
_cell_angle_gamma 90.000000
_cell_volume 2130.672734
_symmetry_space_group_name_H-M "C 2/C"
_symmetry_group_IT_number 15
_symmetry_cell_setting 'monoclinic'
loop_
_space_group_symop_operation_xyz
x,y,z
-x,y,1/2-z
-x,-y,-z
x,-y,1/2+z
1/2+x,1/2+y,z
1/2-x,1/2+y,1/2-z
1/2-x,1/2-y,-z
1/2+x,1/2-y,1/2+z
loop_
_atom_site_type_symbol
_atom_site_label
_atom_site_fract_x
_atom_site_fract_y
_atom_site_fract_z
Si Si1 0.335951 0.771537 0.136293
Si Si2 0.648488 0.891000 0.935566
Si Si3 0.169909 0.507947 0.499785
Si Si4 0.327985 0.345646 0.958877
Si Si5 0.331413 0.805980 0.801982
Si Si6 0.333959 0.443855 0.059425
O O1 0.264492 0.798939 0.381292
O O2 0.281898 0.719948 0.162761
O O3 0.285613 0.800886 0.047989
O O4 0.513541 0.776379 0.916119
O O5 0.665637 0.946475 0.888492
O O6 0.637082 0.858506 0.797847
O O7 0.500000 0.884095 0.250000
O O8 0.786372 0.870289 0.849925
O O9 0.297309 0.471575 0.270018
O O10 0.217983 0.532209 0.597266
O O11 0.000000 0.488780 0.750000
O O12 0.296059 0.388989 0.122672
O O13 0.500000 0.333254 0.750000
O O14 0.500000 0.447655 0.750000
#
# Coordination Sequence:
#
# PCOD9273701 Si02
#       6
#     8   8   8   8   8   8
#     4  10  22  40  58  84 115 148 187 234 285 339
#     4  10  20  38  58  84 117 148 190 238 283 332
#     4  10  21  37  60  87 117 150 194 243 285 338
#     4  10  22  38  57  85 117 151 190 235 281 337
#     4  10  22  39  60  83 115 148 187 235 284 340
#     4  10  21  39  59  84 120 155 192 237 288 343
#
# _framework density 22.528096000000001
#
# number of rings (size 3 to 8) (size 9 to 14) (size 15 to 20)
#    0.000    2.000    1.667    1.000    2.333    2.667 
#    3.000    0.000    0.000    0.000    0.000    0.000 
#    0.000    0.000    0.000    0.000    0.000    0.000 
#
# Total GULP energy -133975.225747 kJ/mol
# GULP energy per Si atom -5582.301073 kJ/mol
# Density = 2.247682 g / cm^3
# Si number density = 22.528096 Si / 1000 Ang^3
#
#
#
# Elastic Constant Matrix: (Units=GPa)
#
#
# Indices 1 2 3 4 5 6 
#
# 1 38.0647 -9.9868 2.3493 0.0000 -21.3961 0.0000
# 2 -9.9868 87.7872 19.5402 0.0000 15.3159 0.0000
# 3 2.3493 19.5402 38.9593 0.0000 -5.6282 0.0000
# 4 0.0000 0.0000 0.0000 14.0283 0.0000 5.0769
# 5 -21.3961 15.3159 -5.6282 0.0000 28.1821 0.0000
# 6 0.0000 0.0000 0.0000 5.0769 0.0000 30.0241
#
#
#
# Elastic Compliance Matrix: (Units=1/GPa)
#
#
# Indices 1 2 3 4 5 6 
#
# 1 0.046286 -0.001958 0.003523 0.000000 0.036908 0.000000
# 2 -0.001958 0.015242 -0.009204 0.000000 -0.011608 0.000000
# 3 0.003523 -0.009204 0.032107 0.000000 0.014088 0.000000
# 4 0.000000 0.000000 0.000000 0.075931 0.000000 -0.012840
# 5 0.036908 -0.011608 0.014088 0.000000 0.072627 0.000000
# 6 0.000000 0.000000 0.000000 -0.012840 0.000000 0.035478
#
#
# Mechanical properties :
#
#
# Convention : Reuss Voigt Hill
#
# Bulk Modulus (GPa) = 12.76201 20.95741 16.85971
# Shear Modulus (GPa) = 15.67065 24.64080 20.15573
#
# Velocity S-wave (km/s) = 2.64029 3.31082 2.99439
# Velocity P-wave (km/s) = 3.86938 4.89269 4.41081
#
# Compressibility (1/GPa) = 0.07835758
#
# Stress axis : x y z
#
# Youngs Moduli (GPa) = 21.60472 65.60691 31.14607
#
# Poissons Ratio (x) = 0.12844 -0.10972
# Poissons Ratio (y) = 0.04230 0.28666
# Poissons Ratio (z) = -0.07611 0.60383
#
# Static dielectric constant tensor:
#      x y z
#    x 1.863220 0.000000 0.028180 
#    y 0.000000 1.826220 0.000000 
#    z 0.028180 0.000000 1.858170 
# 
# From -- ./inp_files/33380.got.cif
#   From: 2010.05.17/outbox.cif.g08.bks.cpg/sg15_17_cif.got.tgz:33380.got - 2010.06.03 18:47:42.
