data_PCOD9273608
_publ_section_title
;
Structure prediction by ZEFSAII (Michael W. Deem and Ramdas Pophale) SiO2 
 PCOD9273608
Probable space group: C 2/C
;
_chemical_formula_sum "Si O2"
_cell_formula_units_Z 56
_cell_length_a 12.597543
_cell_length_b 8.892350
_cell_length_c 26.326101
_cell_angle_alpha 90.000000
_cell_angle_beta 53.885169
_cell_angle_gamma 90.000000
_cell_volume 2382.390046
_symmetry_space_group_name_H-M "C 2/C"
_symmetry_group_IT_number 15
_symmetry_cell_setting 'monoclinic'
loop_
_space_group_symop_operation_xyz
x,y,z
-x,y,1/2-z
-x,-y,-z
x,-y,1/2+z
1/2+x,1/2+y,z
1/2-x,1/2+y,1/2-z
1/2-x,1/2-y,-z
1/2+x,1/2-y,1/2+z
loop_
_atom_site_type_symbol
_atom_site_label
_atom_site_fract_x
_atom_site_fract_y
_atom_site_fract_z
Si Si1 0.284844 0.875647 0.146168
Si Si2 0.280042 0.193004 0.883055
Si Si3 0.478016 0.667636 0.127509
Si Si4 0.353627 0.628229 0.266953
Si Si5 0.371296 0.594615 0.959748
Si Si6 0.703775 0.149551 0.094462
Si Si7 0.143628 0.432114 0.966690
O O1 0.430666 0.810824 0.109525
O O2 0.203667 0.736322 0.147885
O O3 0.226386 0.972702 0.207452
O O4 0.280428 0.993466 0.102110
O O5 0.391288 0.286892 0.880795
O O6 0.287528 0.243000 0.821561
O O7 0.152932 0.255169 0.949918
O O8 0.316926 0.021978 0.884068
O O9 0.371197 0.659545 0.202591
O O10 0.509643 0.517339 0.087170
O O11 0.500000 0.605710 0.250000
O O12 0.377980 0.741656 0.921104
O O13 0.234395 0.498130 0.986663
O O14 0.343909 0.647996 0.024686
O O15 0.000000 0.500000 0.000000
#
# Coordination Sequence:
#
# PCOD9273608 Si02
#       7
#     8   8   8   8   8   8   8
#     4  10  22  37  58  86 114 150 193 239 299 344
#     4   9  20  36  60  84 112 154 194 237 286 348
#     4  10  21  39  62  83 115 154 197 241 290 352
#     4   9  19  42  61  77 114 158 195 240 297 355
#     4   9  21  38  57  83 122 160 187 234 300 351
#     4  10  20  38  55  86 123 147 200 233 294 349
#     4   9  19  35  56  84 116 156 188 230 287 355
#
# _framework density 23.505807000000001
#
# number of rings (size 3 to 8) (size 9 to 14) (size 15 to 20)
#    0.000    2.571    0.000    2.571    4.000    2.857 
#    5.143    9.286    0.000    0.000    0.000    0.000 
#    0.000    0.000    0.000    0.000    0.000    0.000 
#
# Total GULP energy -155922.990553 kJ/mol
# GULP energy per Si atom -5568.678234 kJ/mol
# Density = 2.345231 g / cm^3
# Si number density = 23.505807 Si / 1000 Ang^3
#
#
#
# Elastic Constant Matrix: (Units=GPa)
#
#
# Indices 1 2 3 4 5 6 
#
# 1 38.6891 15.4123 12.2874 0.0000 -0.0247 0.0000
# 2 15.4123 142.3814 36.0542 0.0000 1.4869 0.0000
# 3 12.2874 36.0542 61.6945 0.0000 9.1312 0.0000
# 4 0.0000 0.0000 0.0000 30.6030 0.0000 -5.6853
# 5 -0.0247 1.4869 9.1312 0.0000 24.4556 0.0000
# 6 0.0000 0.0000 0.0000 -5.6853 0.0000 29.3494
#
#
#
# Elastic Compliance Matrix: (Units=1/GPa)
#
#
# Indices 1 2 3 4 5 6 
#
# 1 0.028110 -0.001846 -0.004806 0.000000 0.001935 0.000000
# 2 -0.001846 0.008408 -0.004732 0.000000 0.001254 0.000000
# 3 -0.004806 -0.004732 0.021053 0.000000 -0.007578 0.000000
# 4 0.000000 0.000000 0.000000 0.033896 0.000000 0.006566
# 5 0.001935 0.001254 -0.007578 0.000000 0.043646 0.000000
# 6 0.000000 0.000000 0.000000 0.006566 0.000000 0.035344
#
#
# Mechanical properties :
#
#
# Convention : Reuss Voigt Hill
#
# Bulk Modulus (GPa) = 28.73272 41.14145 34.93709
# Shear Modulus (GPa) = 24.41095 28.81568 26.61331
#
# Velocity S-wave (km/s) = 3.22608 3.50508 3.36847
# Velocity P-wave (km/s) = 5.11146 5.82421 5.47944
#
# Compressibility (1/GPa) = 0.03480352
#
# Stress axis : x y z
#
# Youngs Moduli (GPa) = 35.57444 118.93026 47.49944
#
# Poissons Ratio (x) = 0.21954 0.22829
# Poissons Ratio (y) = 0.06567 0.22475
# Poissons Ratio (z) = 0.17098 0.56274
#
# Static dielectric constant tensor:
#      x y z
#    x 1.974860 0.000000 -0.005950 
#    y 0.000000 2.026150 0.000000 
#    z -0.005950 0.000000 1.998530 
# 
# From -- ./inp_files/312852.got.cif
#   From: 2010.05.17/outbox.cif.g08.bks.cpg/sg15_157_cif.got.tgz:312852.got - 2010.06.03 18:47:42.
