data_PCOD9273135
_publ_section_title
;
Structure prediction by ZEFSAII (Michael W. Deem and Ramdas Pophale) SiO2 
 PCOD9273135
Probable space group: C 2/C
;
_chemical_formula_sum "Si O2"
_cell_formula_units_Z 56
_cell_length_a 10.297808
_cell_length_b 21.786818
_cell_length_c 15.935478
_cell_angle_alpha 90.000000
_cell_angle_beta 53.442463
_cell_angle_gamma 90.000000
_cell_volume 2871.834182
_symmetry_space_group_name_H-M "C 2/C"
_symmetry_group_IT_number 15
_symmetry_cell_setting 'monoclinic'
loop_
_space_group_symop_operation_xyz
x,y,z
-x,y,1/2-z
-x,-y,-z
x,-y,1/2+z
1/2+x,1/2+y,z
1/2-x,1/2+y,1/2-z
1/2-x,1/2-y,-z
1/2+x,1/2-y,1/2+z
loop_
_atom_site_type_symbol
_atom_site_label
_atom_site_fract_x
_atom_site_fract_y
_atom_site_fract_z
Si Si1 0.439982 0.240061 0.915941
Si Si2 0.622717 0.486372 0.528407
Si Si3 0.500000 0.454133 0.250000
Si Si4 0.466931 0.947867 0.860578
Si Si5 0.500000 0.140519 0.750000
Si Si6 0.598474 0.367505 0.633623
Si Si7 0.529490 0.144917 0.472409
Si Si8 0.342111 0.935233 0.177429
O O1 0.452455 0.186896 0.841885
O O2 0.494517 0.306104 0.861206
O O3 0.250000 0.250000 0.000000
O O4 0.517517 0.211256 0.970401
O O5 0.500000 0.500000 0.500000
O O6 0.556198 0.512419 0.642588
O O7 0.797916 0.516264 0.442111
O O8 0.625568 0.413813 0.546344
O O9 0.663219 0.420671 0.215539
O O10 0.500000 0.939456 0.750000
O O11 0.469167 0.883352 0.908663
O O12 0.611012 0.992951 0.837930
O O13 0.628892 0.094818 0.742684
O O14 0.500000 0.394014 0.750000
O O15 0.776783 0.353975 0.600360
O O16 0.464880 0.095406 0.564662
#
# Coordination Sequence:
#
# PCOD9273135 Si02
#       8
#     8   8   4   8   4   8   8   8
#     4   9  20  36  62  93 118 156 209 269 315 370
#     4  12  26  39  60  99 135 168 215 269 331 392
#     4  12  24  39  60  94 130 177 214 264 330 390
#     4  12  23  39  60  91 131 176 210 257 333 400
#     4  10  20  37  62  96 118 165 212 256 322 380
#     4  11  21  38  64  98 126 158 213 273 323 375
#     4  10  21  38  61  88 126 164 204 264 320 385
#     4  11  21  38  61  88 133 167 213 262 319 390
#
# _framework density 19.499732000000002
#
# number of rings (size 3 to 8) (size 9 to 14) (size 15 to 20)
#    0.000    1.143    5.000    2.143    2.000    0.000 
#    0.000    0.000    0.000    0.857   27.857    0.000 
#    0.000    0.000    0.000    0.000    0.000    0.000 
#
# Total GULP energy -156071.657586 kJ/mol
# GULP energy per Si atom -5573.987771 kJ/mol
# Density = 1.945535 g / cm^3
# Si number density = 19.499732 Si / 1000 Ang^3
#
#
#
# Elastic Constant Matrix: (Units=GPa)
#
#
# Indices 1 2 3 4 5 6 
#
# 1 103.0141 37.8861 32.8406 0.0000 5.4882 0.0000
# 2 37.8861 78.6324 34.4904 0.0000 16.4385 0.0000
# 3 32.8406 34.4904 112.8178 0.0000 13.4722 0.0000
# 4 0.0000 0.0000 0.0000 13.9990 0.0000 -1.2423
# 5 5.4882 16.4385 13.4722 0.0000 29.1276 0.0000
# 6 0.0000 0.0000 0.0000 -1.2423 0.0000 19.1097
#
#
#
# Elastic Compliance Matrix: (Units=1/GPa)
#
#
# Indices 1 2 3 4 5 6 
#
# 1 0.012256 -0.005317 -0.002143 0.000000 0.001683 0.000000
# 2 -0.005317 0.018288 -0.003102 0.000000 -0.007885 0.000000
# 3 -0.002143 -0.003102 0.010774 0.000000 -0.002829 0.000000
# 4 0.000000 0.000000 0.000000 0.071848 0.000000 0.004671
# 5 0.001683 -0.007885 -0.002829 0.000000 0.039773 0.000000
# 6 0.000000 0.000000 0.000000 0.004671 0.000000 0.052633
#
#
# Mechanical properties :
#
#
# Convention : Reuss Voigt Hill
#
# Bulk Modulus (GPa) = 49.51857 56.09983 52.80920
# Shear Modulus (GPa) = 21.41994 25.06376 23.24185
#
# Velocity S-wave (km/s) = 3.31792 3.58905 3.45614
# Velocity P-wave (km/s) = 6.33465 6.78285 6.56257
#
# Compressibility (1/GPa) = 0.02019444
#
# Stress axis : x y z
#
# Youngs Moduli (GPa) = 81.58943 54.68060 92.81809
#
# Poissons Ratio (x) = 0.29074 0.19893
# Poissons Ratio (y) = 0.43381 0.28789
# Poissons Ratio (z) = 0.17486 0.16960
#
# Static dielectric constant tensor:
#      x y z
#    x 1.680580 0.000000 0.014410 
#    y 0.000000 1.753940 0.000000 
#    z 0.014410 0.000000 1.721680 
# 
# From -- ./inp_files/137768.got.cif
#   From: 2010.05.17/outbox.cif.g08.bks.cpg/sg15_69_cif.got.tgz:137768.got - 2010.06.03 18:47:42.
