data_PCOD9273868
_publ_section_title
;
Structure prediction by ZEFSAII (Michael W. Deem and Ramdas Pophale) SiO2 
 PCOD9273868
Probable space group: C 2/C
;
_chemical_formula_sum "Si O2"
_cell_formula_units_Z 64
_cell_length_a 21.555914
_cell_length_b 10.435570
_cell_length_c 16.912156
_cell_angle_alpha 90.000000
_cell_angle_beta 131.030392
_cell_angle_gamma 90.000000
_cell_volume 2869.862531
_symmetry_space_group_name_H-M "C 2/C"
_symmetry_group_IT_number 15
_symmetry_cell_setting 'monoclinic'
loop_
_space_group_symop_operation_xyz
x,y,z
-x,y,1/2-z
-x,-y,-z
x,-y,1/2+z
1/2+x,1/2+y,z
1/2-x,1/2+y,1/2-z
1/2-x,1/2-y,-z
1/2+x,1/2-y,1/2+z
loop_
_atom_site_type_symbol
_atom_site_label
_atom_site_fract_x
_atom_site_fract_y
_atom_site_fract_z
Si Si1 0.700958 0.834972 0.837674
Si Si2 0.019234 0.123239 0.351948
Si Si3 0.997426 0.279436 0.495250
Si Si4 0.673485 0.741691 0.492094
Si Si5 0.092325 0.498709 0.359264
Si Si6 0.672898 0.893594 0.636516
Si Si7 0.343594 0.150360 0.946909
Si Si8 0.955898 0.840380 0.296142
O O1 0.661296 0.949576 0.855664
O O2 0.705737 0.881277 0.751548
O O3 0.787671 0.767402 0.928799
O O4 0.634152 0.720425 0.785595
O O5 0.118896 0.114517 0.437573
O O6 0.000000 0.183196 0.250000
O O7 0.002634 0.200174 0.418469
O O8 0.968420 0.992652 0.309876
O O9 0.903478 0.321967 0.424087
O O10 0.072289 0.382482 0.555602
O O11 0.012407 0.205048 0.590755
O O12 0.750000 0.750000 0.500000
O O13 0.696549 0.772793 0.601532
O O14 0.617694 0.862536 0.417194
O O15 0.098373 0.601242 0.434532
O O16 0.000000 0.495322 0.250000
O O17 0.704067 0.022224 0.620140
O O18 0.000000 0.801631 0.250000
#
# Coordination Sequence:
#
# PCOD9273868 Si02
#       8
#     8   8   8   8   8   8   8   8
#     4  11  23  38  61  93 124 163 211 263 319 372
#     4  10  22  37  59  87 118 162 205 250 314 380
#     4  10  20  38  60  83 117 162 208 251 312 388
#     4  10  23  41  62  90 123 159 209 266 318 375
#     4  11  23  42  65  91 127 170 212 258 319 392
#     4   9  22  40  56  84 122 159 201 257 316 378
#     4  11  23  38  62  91 121 159 210 265 313 371
#     4  10  21  38  60  85 121 160 205 258 312 380
#
# _framework density 22.300719000000001
#
# number of rings (size 3 to 8) (size 9 to 14) (size 15 to 20)
#    0.000    1.750    0.000    4.125    0.000   11.000 
#    0.000    0.000    0.000    0.000    0.000    0.000 
#    0.000    0.000    0.000    0.000    0.000    0.000 
#
# Total GULP energy -178515.186630 kJ/mol
# GULP energy per Si atom -5578.599582 kJ/mol
# Density = 2.224996 g / cm^3
# Si number density = 22.300719 Si / 1000 Ang^3
#
#
#
# Elastic Constant Matrix: (Units=GPa)
#
#
# Indices 1 2 3 4 5 6 
#
# 1 78.4555 1.3601 21.5797 0.0000 -28.1847 0.0000
# 2 1.3601 54.2623 21.6775 0.0000 -10.5822 0.0000
# 3 21.5797 21.6775 62.2083 0.0000 -27.6765 0.0000
# 4 0.0000 0.0000 0.0000 17.1358 0.0000 -0.1315
# 5 -28.1847 -10.5822 -27.6765 0.0000 37.3221 0.0000
# 6 0.0000 0.0000 0.0000 -0.1315 0.0000 28.8042
#
#
#
# Elastic Compliance Matrix: (Units=1/GPa)
#
#
# Indices 1 2 3 4 5 6 
#
# 1 0.017809 0.002616 -0.001158 0.000000 0.013332 0.000000
# 2 0.002616 0.021810 -0.007279 0.000000 0.002762 0.000000
# 3 -0.001158 -0.007279 0.026424 0.000000 0.016656 0.000000
# 4 0.000000 0.000000 0.000000 0.058360 0.000000 0.000266
# 5 0.013332 0.002762 0.016656 0.000000 0.049996 0.000000
# 6 0.000000 0.000000 0.000000 0.000266 0.000000 0.034718
#
#
# Mechanical properties :
#
#
# Convention : Reuss Voigt Hill
#
# Bulk Modulus (GPa) = 18.38215 31.57339 24.97777
# Shear Modulus (GPa) = 20.93006 26.67300 23.80153
#
# Velocity S-wave (km/s) = 3.06688 3.46216 3.27050
# Velocity P-wave (km/s) = 4.56089 5.49280 5.04840
#
# Compressibility (1/GPa) = 0.05440060
#
# Stress axis : x y z
#
# Youngs Moduli (GPa) = 56.15282 45.85072 37.84500
#
# Poissons Ratio (x) = -0.11996 0.04383
# Poissons Ratio (y) = -0.14691 0.27547
# Poissons Ratio (z) = 0.06503 0.33374
#
# Static dielectric constant tensor:
#      x y z
#    x 1.849440 0.000000 0.018500 
#    y 0.000000 1.854920 0.000000 
#    z 0.018500 0.000000 1.835960 
# 
# From -- ./inp_files/215076.got.cif
#   From: 2010.05.17/outbox.cif.g08.bks.cpg/sg15_108_cif.got.tgz:215076.got - 2010.06.03 18:47:42.
