data_PCOD9273734
_publ_section_title
;
Structure prediction by ZEFSAII (Michael W. Deem and Ramdas Pophale) SiO2 
 PCOD9273734
Probable space group: C 2/C
;
_chemical_formula_sum "Si O2"
_cell_formula_units_Z 48
_cell_length_a 18.621656
_cell_length_b 10.130086
_cell_length_c 10.426836
_cell_angle_alpha 90.000000
_cell_angle_beta 78.122113
_cell_angle_gamma 90.000000
_cell_volume 1924.793221
_symmetry_space_group_name_H-M "C 2/C"
_symmetry_group_IT_number 15
_symmetry_cell_setting 'monoclinic'
loop_
_space_group_symop_operation_xyz
x,y,z
-x,y,1/2-z
-x,-y,-z
x,-y,1/2+z
1/2+x,1/2+y,z
1/2-x,1/2+y,1/2-z
1/2-x,1/2-y,-z
1/2+x,1/2-y,1/2+z
loop_
_atom_site_type_symbol
_atom_site_label
_atom_site_fract_x
_atom_site_fract_y
_atom_site_fract_z
Si Si1 0.929832 0.094823 0.013697
Si Si2 0.911764 0.375163 0.940550
Si Si3 0.919887 0.059406 0.295812
Si Si4 0.600846 0.162812 0.585026
Si Si5 0.706037 0.906182 0.286101
Si Si6 0.673190 0.192213 0.283723
O O1 0.953129 0.245188 0.975870
O O2 0.882128 0.031987 0.915868
O O3 0.890103 0.081763 0.164896
O O4 0.000000 0.000000 0.000000
O O5 0.943003 0.524280 0.915581
O O6 0.883530 0.334728 0.810146
O O7 0.845783 0.387011 0.069510
O O8 0.933925 0.203892 0.349131
O O9 0.000000 0.992629 0.250000
O O10 0.661613 0.128817 0.671761
O O11 0.634538 0.200631 0.435479
O O12 0.776471 0.815485 0.264368
O O13 0.722264 0.060781 0.274156
#
# Coordination Sequence:
#
# PCOD9273734 Si02
#       6
#     8   8   8   8   8   8
#     4  10  22  41  63  88 121 158 206 263 315 372
#     4  10  21  39  62  87 127 166 206 256 309 370
#     4  10  22  41  62  89 119 158 207 261 319 372
#     4  10  21  39  62  88 127 165 208 255 312 369
#     4  10  20  38  58  89 128 167 205 257 305 376
#     4  10  22  34  60  93 124 164 210 248 313 375
#
# _framework density 24.937743000000001
#
# number of rings (size 3 to 8) (size 9 to 14) (size 15 to 20)
#    0.000    2.000    1.667    1.000    2.333    2.667 
#    0.000    5.833    0.000    0.000    0.000    0.000 
#    0.000    0.000    0.000    0.000    0.000    0.000 
#
# Total GULP energy -134140.106178 kJ/mol
# GULP energy per Si atom -5589.171091 kJ/mol
# Density = 2.488098 g / cm^3
# Si number density = 24.937743 Si / 1000 Ang^3
#
#
#
# Elastic Constant Matrix: (Units=GPa)
#
#
# Indices 1 2 3 4 5 6 
#
# 1 27.4050 15.3190 17.7855 0.0000 -0.6470 0.0000
# 2 15.3190 174.5093 41.9981 0.0000 -4.2601 0.0000
# 3 17.7855 41.9981 212.5750 0.0000 13.7317 0.0000
# 4 0.0000 0.0000 0.0000 45.8803 0.0000 8.6957
# 5 -0.6470 -4.2601 13.7317 0.0000 20.4311 0.0000
# 6 0.0000 0.0000 0.0000 8.6957 0.0000 33.4046
#
#
#
# Elastic Compliance Matrix: (Units=1/GPa)
#
#
# Indices 1 2 3 4 5 6 
#
# 1 0.040015 -0.002729 -0.002983 0.000000 0.002703 0.000000
# 2 -0.002729 0.006294 -0.001144 0.000000 0.001995 0.000000
# 3 -0.002983 -0.001144 0.005437 0.000000 -0.003988 0.000000
# 4 0.000000 0.000000 0.000000 0.022927 0.000000 -0.005968
# 5 0.002703 0.001995 -0.003988 0.000000 0.052127 0.000000
# 6 0.000000 0.000000 0.000000 -0.005968 0.000000 0.031490
#
#
# Mechanical properties :
#
#
# Convention : Reuss Voigt Hill
#
# Bulk Modulus (GPa) = 26.29225 62.74382 44.51803
# Shear Modulus (GPa) = 27.07389 42.56899 34.82144
#
# Velocity S-wave (km/s) = 3.29851 4.13608 3.74081
# Velocity P-wave (km/s) = 5.00729 6.92996 6.04555
#
# Compressibility (1/GPa) = 0.03803402
#
# Stress axis : x y z
#
# Youngs Moduli (GPa) = 24.99066 158.88370 183.90978
#
# Poissons Ratio (x) = 0.43354 0.54869
# Poissons Ratio (y) = 0.06819 0.21040
# Poissons Ratio (z) = 0.07456 0.18177
#
# Static dielectric constant tensor:
#      x y z
#    x 2.008480 0.000000 0.069490 
#    y 0.000000 1.982250 0.000000 
#    z 0.069490 0.000000 2.045200 
# 
# From -- ./inp_files/60511.got.cif
#   From: 2010.05.17/outbox.cif.g08.bks.cpg/sg15_31_cif.got.tgz:60511.got - 2010.06.03 18:47:42.
