data_PCOD9273493
_publ_section_title
;
Structure prediction by ZEFSAII (Michael W. Deem and Ramdas Pophale) SiO2 
 PCOD9273493
Probable space group: C 2/C
;
_chemical_formula_sum "Si O2"
_cell_formula_units_Z 56
_cell_length_a 10.806785
_cell_length_b 18.640408
_cell_length_c 16.406292
_cell_angle_alpha 90.000000
_cell_angle_beta 127.487541
_cell_angle_gamma 90.000000
_cell_volume 2622.415269
_symmetry_space_group_name_H-M "C 2/C"
_symmetry_group_IT_number 15
_symmetry_cell_setting 'monoclinic'
loop_
_space_group_symop_operation_xyz
x,y,z
-x,y,1/2-z
-x,-y,-z
x,-y,1/2+z
1/2+x,1/2+y,z
1/2-x,1/2+y,1/2-z
1/2-x,1/2-y,-z
1/2+x,1/2-y,1/2+z
loop_
_atom_site_type_symbol
_atom_site_label
_atom_site_fract_x
_atom_site_fract_y
_atom_site_fract_z
Si Si1 0.108042 0.339040 0.712750
Si Si2 0.221826 0.171265 0.521145
Si Si3 0.831466 0.825410 0.304192
Si Si4 0.025346 0.408963 0.166037
Si Si5 0.556333 0.046561 0.446667
Si Si6 0.580364 0.564372 0.925677
Si Si7 0.074855 0.081831 0.119766
O O1 0.155078 0.256446 0.717833
O O2 0.265456 0.384614 0.786311
O O3 0.000000 0.344114 0.750000
O O4 0.014207 0.375540 0.600458
O O5 0.250000 0.250000 0.500000
O O6 0.195200 0.172947 0.608276
O O7 0.374848 0.124834 0.562266
O O8 0.069511 0.134806 0.422136
O O9 0.687756 0.870911 0.208038
O O10 0.993436 0.866953 0.354624
O O11 0.000000 0.391031 0.250000
O O12 0.006669 0.494252 0.150274
O O13 0.741977 0.052658 0.527263
O O14 0.500000 0.000000 0.500000
O O15 0.472428 0.495486 0.864231
O O16 0.585725 0.572279 0.026225
#
# Coordination Sequence:
#
# PCOD9273493 Si02
#       7
#     8   8   8   8   8   8   8
#     4  12  25  43  64  96 134 174 216 262 327 403
#     4  10  20  37  66  95 132 168 212 272 328 381
#     4  10  24  39  63  98 132 172 214 266 328 395
#     4  10  21  42  66  94 123 166 219 267 317 379
#     4  12  26  42  66  96 129 170 220 273 321 387
#     4  10  21  42  65  95 125 168 222 268 325 381
#     4  10  20  40  70  92 121 173 224 266 317 393
#
# _framework density 21.35436
#
# number of rings (size 3 to 8) (size 9 to 14) (size 15 to 20)
#    0.000    1.429    2.857    2.143    4.000    1.714 
#    0.000    3.571    0.000    0.000    0.000    0.000 
#    0.000    0.000    0.000    0.000    0.000    0.000 
#
# Total GULP energy -156459.539430 kJ/mol
# GULP energy per Si atom -5587.840694 kJ/mol
# Density = 2.130576 g / cm^3
# Si number density = 21.354360 Si / 1000 Ang^3
#
#
#
# Elastic Constant Matrix: (Units=GPa)
#
#
# Indices 1 2 3 4 5 6 
#
# 1 96.2534 49.7493 54.5690 0.0000 40.2110 0.0000
# 2 49.7493 127.4037 35.3818 0.0000 36.2520 0.0000
# 3 54.5690 35.3818 60.6789 0.0000 36.0624 0.0000
# 4 0.0000 0.0000 0.0000 21.8147 0.0000 -2.4406
# 5 40.2110 36.2520 36.0624 0.0000 41.5949 0.0000
# 6 0.0000 0.0000 0.0000 -2.4406 0.0000 31.0485
#
#
#
# Elastic Compliance Matrix: (Units=1/GPa)
#
#
# Indices 1 2 3 4 5 6 
#
# 1 0.023446 -0.002967 -0.015310 0.000000 -0.006807 0.000000
# 2 -0.002967 0.010871 0.000527 0.000000 -0.007064 0.000000
# 3 -0.015310 0.000527 0.044185 0.000000 -0.023967 0.000000
# 4 0.000000 0.000000 0.000000 0.046247 0.000000 0.003635
# 5 -0.006807 -0.007064 -0.023967 0.000000 0.057557 0.000000
# 6 0.000000 0.000000 0.000000 0.003635 0.000000 0.032493
#
#
# Mechanical properties :
#
#
# Convention : Reuss Voigt Hill
#
# Bulk Modulus (GPa) = 23.25408 62.63734 42.94571
# Shear Modulus (GPa) = 18.89410 28.53399 23.71405
#
# Velocity S-wave (km/s) = 2.97777 3.65939 3.33603
# Velocity P-wave (km/s) = 4.76823 6.87393 5.91553
#
# Compressibility (1/GPa) = 0.04300320
#
# Stress axis : x y z
#
# Youngs Moduli (GPa) = 42.65172 91.98747 22.63211
#
# Poissons Ratio (x) = 0.27290 0.34649
# Poissons Ratio (y) = 0.12653 -0.01193
# Poissons Ratio (z) = 0.65299 -0.04849
#
# Static dielectric constant tensor:
#      x y z
#    x 1.787080 0.000000 -0.049640 
#    y 0.000000 2.017120 0.000000 
#    z -0.049640 0.000000 1.832160 
# 
# From -- ./inp_files/199558.got.cif
#   From: 2010.05.17/outbox.cif.g08.bks.cpg/sg15_100_cif.got.tgz:199558.got - 2010.06.03 18:47:42.
