data_PCOD9273698
_publ_section_title
;
Structure prediction by ZEFSAII (Michael W. Deem and Ramdas Pophale) SiO2 
 PCOD9273698
Probable space group: C 2/C
;
_chemical_formula_sum "Si O2"
_cell_formula_units_Z 48
_cell_length_a 9.478395
_cell_length_b 29.728542
_cell_length_c 18.202094
_cell_angle_alpha 90.000000
_cell_angle_beta 31.183497
_cell_angle_gamma 90.000000
_cell_volume 2655.678847
_symmetry_space_group_name_H-M "C 2/C"
_symmetry_group_IT_number 15
_symmetry_cell_setting 'monoclinic'
loop_
_space_group_symop_operation_xyz
x,y,z
-x,y,1/2-z
-x,-y,-z
x,-y,1/2+z
1/2+x,1/2+y,z
1/2-x,1/2+y,1/2-z
1/2-x,1/2-y,-z
1/2+x,1/2-y,1/2+z
loop_
_atom_site_type_symbol
_atom_site_label
_atom_site_fract_x
_atom_site_fract_y
_atom_site_fract_z
Si Si1 0.301018 0.776207 0.902317
Si Si2 0.167138 0.379223 0.604426
Si Si3 0.701259 0.460349 0.555513
Si Si4 0.738047 0.116745 0.590184
Si Si5 0.916324 0.456380 0.625400
Si Si6 0.215211 0.720338 0.589468
O O1 0.500000 0.757163 0.750000
O O2 0.400880 0.826643 0.876931
O O3 0.250000 0.750000 0.000000
O O4 0.009050 0.779201 0.995270
O O5 0.482908 0.382411 0.486745
O O6 0.000000 0.394698 0.750000
O O7 0.058971 0.410585 0.588184
O O8 0.738525 0.417574 0.486969
O O9 0.833586 0.452299 0.576788
O O10 0.375421 0.467089 0.707215
O O11 0.866714 0.504156 0.455388
O O12 0.500000 0.101583 0.750000
O O13 0.664126 0.167372 0.596058
O O14 0.250000 0.750000 0.500000
O O15 0.000000 0.734524 0.750000
#
# Coordination Sequence:
#
# PCOD9273698 Si02
#       6
#     8   8   8   8   8   8
#     4  10  21  37  60  85 118 152 192 240 287 341
#     4  10  20  38  58  84 115 150 193 236 280 340
#     4  10  22  40  58  85 115 150 188 237 288 344
#     4  10  22  38  57  85 119 150 190 238 286 338
#     4  10  22  39  60  84 115 148 192 236 287 344
#     4  10  21  39  59  86 119 153 194 242 289 343
#
# _framework density 18.074476000000001
#
# number of rings (size 3 to 8) (size 9 to 14) (size 15 to 20)
#    0.000    2.000    1.667    1.000    2.333    2.667 
#    3.000    0.000    0.000    0.000    0.000    0.000 
#    0.000    0.000    0.000    0.000    0.000    0.000 
#
# Total GULP energy -133733.675598 kJ/mol
# GULP energy per Si atom -5572.236483 kJ/mol
# Density = 1.803334 g / cm^3
# Si number density = 18.074476 Si / 1000 Ang^3
#
#
#
# Elastic Constant Matrix: (Units=GPa)
#
#
# Indices 1 2 3 4 5 6 
#
# 1 54.4913 52.6605 33.4576 0.0000 5.5344 0.0001
# 2 52.6605 83.3696 33.8710 0.0000 18.8819 0.0000
# 3 33.4576 33.8710 134.5621 -0.0002 11.1598 -0.0004
# 4 0.0000 0.0000 -0.0002 23.0067 0.0000 38.9137
# 5 5.5344 18.8819 11.1598 0.0000 28.9080 -0.0001
# 6 0.0001 0.0000 -0.0004 38.9137 -0.0001 -191.5640
#
#
#
# Elastic Compliance Matrix: (Units=1/GPa)
#
#
# Indices 1 2 3 4 5 6 
#
# 1 0.055032 -0.035776 -0.005932 0.000000 0.015122 0.000000
# 2 -0.035776 0.038499 0.000746 0.000000 -0.018585 0.000000
# 3 -0.005932 0.000746 0.008951 0.000000 -0.002807 0.000000
# 4 0.000000 0.000000 0.000000 0.032350 0.000000 0.006572
# 5 0.015122 -0.018585 -0.002807 0.000000 0.044920 0.000000
# 6 0.000000 0.000000 0.000000 0.006572 0.000000 -0.003885
#
#
# Mechanical properties :
#
#
# Convention : Reuss Voigt Hill
#
# Bulk Modulus (GPa) = 48.64185 56.93346 52.78766
# Shear Modulus (GPa) = 18.89335 -17.76761 0.56287
#
# Velocity S-wave (km/s) = 3.23663 -3.13872 0.55865
# Velocity P-wave (km/s) = 6.39828 4.29329 5.44841
#
# Compressibility (1/GPa) = 0.02055843
#
# Stress axis : x y z
#
# Youngs Moduli (GPa) = 18.17139 25.97494 111.71321
#
# Poissons Ratio (x) = 0.92927 0.66268
# Poissons Ratio (y) = 0.65009 -0.08334
# Poissons Ratio (z) = 0.10779 -0.01938
#
# Static dielectric constant tensor:
#      x y z
#    x 0.906160 0.000000 -0.366200 
#    y 0.000000 1.700340 0.000000 
#    z -0.366200 0.000000 1.441810 
# 
# From -- ./inp_files/52886.got.cif
#   From: 2010.05.17/outbox.cif.g08.bks.cpg/sg15_27_cif.got.tgz:52886.got - 2010.06.03 18:47:42.
