data_PCOD9273193
_publ_section_title
;
Structure prediction by ZEFSAII (Michael W. Deem and Ramdas Pophale) SiO2 
 PCOD9273193
Probable space group: C 2/C
;
_chemical_formula_sum "Si O2"
_cell_formula_units_Z 44
_cell_length_a 8.224031
_cell_length_b 16.606714
_cell_length_c 29.562458
_cell_angle_alpha 90.000000
_cell_angle_beta 152.079634
_cell_angle_gamma 90.000000
_cell_volume 1890.519387
_symmetry_space_group_name_H-M "C 2/C"
_symmetry_group_IT_number 15
_symmetry_cell_setting 'monoclinic'
loop_
_space_group_symop_operation_xyz
x,y,z
-x,y,1/2-z
-x,-y,-z
x,-y,1/2+z
1/2+x,1/2+y,z
1/2-x,1/2+y,1/2-z
1/2-x,1/2-y,-z
1/2+x,1/2-y,1/2+z
loop_
_atom_site_type_symbol
_atom_site_label
_atom_site_fract_x
_atom_site_fract_y
_atom_site_fract_z
Si Si1 0.970215 0.325908 0.380887
Si Si2 0.827511 0.861782 0.281291
Si Si3 0.547957 0.834133 0.955744
Si Si4 0.500000 0.715067 0.250000
Si Si5 0.429476 0.654990 0.075249
Si Si6 0.384803 0.477228 0.075171
O O1 0.677907 0.369157 0.338477
O O2 0.967585 0.360528 0.329982
O O3 0.315607 0.331269 0.495428
O O4 0.858895 0.231956 0.355793
O O5 0.766751 0.776441 0.290930
O O6 0.875815 0.929101 0.330817
O O7 0.393289 0.836814 0.968721
O O8 0.225639 0.834174 0.841691
O O9 0.787074 0.913466 0.011829
O O10 0.750000 0.750000 0.000000
O O11 0.556533 0.563603 0.108009
O O12 0.000000 0.500000 0.000000
#
# Coordination Sequence:
#
# PCOD9273193 Si02
#       6
#     8   8   8   4   8   8
#     4  10  20  37  63  91 114 167 206 249 302 389
#     4  11  21  37  64  91 123 157 216 252 310 370
#     4  11  20  37  62  86 122 163 205 247 314 372
#     4  12  22  38  62  94 120 166 208 262 308 380
#     4  10  20  39  62  87 124 160 205 251 318 360
#     4  10  20  39  59  92 121 164 193 267 310 362
#
# _framework density 23.274025999999999
#
# number of rings (size 3 to 8) (size 9 to 14) (size 15 to 20)
#    0.000    1.455    7.273    0.000    0.000    0.000 
#    6.545    1.818    0.000   15.273    0.000    0.000 
#    0.000    0.000    0.000    0.000    0.000    0.000 
#
# Total GULP energy -122695.190500 kJ/mol
# GULP energy per Si atom -5577.054114 kJ/mol
# Density = 2.322105 g / cm^3
# Si number density = 23.274026 Si / 1000 Ang^3
#
#
#
# Elastic Constant Matrix: (Units=GPa)
#
#
# Indices 1 2 3 4 5 6 
#
# 1 37.4072 11.5429 31.4755 0.0018 -16.7902 0.0001
# 2 11.5429 174.8923 76.5948 0.0001 -31.8165 0.0012
# 3 31.4755 76.5948 155.5183 -0.0111 -43.2722 0.0008
# 4 0.0018 0.0001 -0.0111 22.9916 -0.0006 -2.0759
# 5 -16.7902 -31.8165 -43.2722 -0.0006 42.1025 0.0007
# 6 0.0001 0.0012 0.0008 -2.0759 0.0007 25.1534
#
#
#
# Elastic Compliance Matrix: (Units=1/GPa)
#
#
# Indices 1 2 3 4 5 6 
#
# 1 0.035029 0.001775 -0.005187 -0.000005 0.009980 -0.000001
# 2 0.001775 0.007581 -0.003224 -0.000002 0.003123 0.000000
# 3 -0.005187 -0.003224 0.010944 0.000006 0.006743 0.000000
# 4 -0.000005 -0.000002 0.000006 0.043821 0.000003 0.003617
# 5 0.009980 0.003123 0.006743 0.000003 0.037022 -0.000001
# 6 -0.000001 0.000000 0.000000 0.003617 -0.000001 0.040055
#
#
# Mechanical properties :
#
#
# Convention : Reuss Voigt Hill
#
# Bulk Modulus (GPa) = 24.82474 67.44935 46.13705
# Shear Modulus (GPa) = 24.85708 34.59647 29.72678
#
# Velocity S-wave (km/s) = 3.27160 3.85968 3.57774
# Velocity P-wave (km/s) = 4.99606 6.99330 6.07729
#
# Compressibility (1/GPa) = 0.04028239
#
# Stress axis : x y z
#
# Youngs Moduli (GPa) = 28.54774 131.91345 91.37430
#
# Poissons Ratio (x) = -0.23419 0.47397
# Poissons Ratio (y) = -0.05068 0.29458
# Poissons Ratio (z) = 0.14808 0.42527
#
# Static dielectric constant tensor:
#      x y z
#    x 1.931310 0.000000 0.067120 
#    y 0.000000 1.907640 0.000010 
#    z 0.067120 0.000010 2.022500 
# 
# From -- ./inp_files/308691.got.cif
#   From: 2010.05.17/outbox.cif.g08.bks.cpg/sg15_155_cif.got.tgz:308691.got - 2010.06.03 18:47:42.
