data_PCOD9273860
_publ_section_title
;
Structure prediction by ZEFSAII (Michael W. Deem and Ramdas Pophale) SiO2 
 PCOD9273860
Probable space group: C 2/C
;
_chemical_formula_sum "Si O2"
_cell_formula_units_Z 64
_cell_length_a 17.824541
_cell_length_b 25.445446
_cell_length_c 15.669331
_cell_angle_alpha 90.000000
_cell_angle_beta 151.216065
_cell_angle_gamma 90.000000
_cell_volume 3422.018392
_symmetry_space_group_name_H-M "C 2/C"
_symmetry_group_IT_number 15
_symmetry_cell_setting 'monoclinic'
loop_
_space_group_symop_operation_xyz
x,y,z
-x,y,1/2-z
-x,-y,-z
x,-y,1/2+z
1/2+x,1/2+y,z
1/2-x,1/2+y,1/2-z
1/2-x,1/2-y,-z
1/2+x,1/2-y,1/2+z
loop_
_atom_site_type_symbol
_atom_site_label
_atom_site_fract_x
_atom_site_fract_y
_atom_site_fract_z
Si Si1 0.187462 0.141271 0.431902
Si Si2 0.820199 0.995109 0.345140
Si Si3 0.680472 0.476290 0.955512
Si Si4 0.183075 0.694753 0.108823
Si Si5 0.186085 0.411126 0.937045
Si Si6 0.812551 0.605395 0.877128
Si Si7 0.308688 0.188460 0.730274
Si Si8 0.811475 0.607869 0.250300
O O1 0.234120 0.079813 0.473220
O O2 0.247301 0.172267 0.409572
O O3 0.254456 0.166267 0.585014
O O4 0.000000 0.143028 0.250000
O O5 0.806807 0.975440 0.429334
O O6 0.740608 0.952038 0.206159
O O7 0.745349 0.052856 0.266738
O O8 0.000000 0.000000 0.500000
O O9 0.500000 0.483754 0.750000
O O10 0.774449 0.527021 0.018706
O O11 0.237890 0.754237 0.174706
O O12 0.236241 0.656736 0.238885
O O13 0.995910 0.692409 0.917335
O O14 0.246425 0.390715 0.905752
O O15 0.000000 0.404921 0.750000
O O16 0.244226 0.385319 0.082678
O O17 0.758302 0.648219 0.754439
O O18 0.000560 0.606652 0.064449
#
# Coordination Sequence:
#
# PCOD9273860 Si02
#       8
#     8   8   8   8   8   8   8   8
#     4  11  23  38  58  83 119 153 192 235 284 342
#     4  11  21  33  57  84 118 149 187 234 282 338
#     4  10  21  35  50  85 120 150 188 224 279 343
#     4  11  24  39  63  80 116 152 193 246 282 343
#     4   9  19  37  59  82 114 150 187 231 279 336
#     4  10  20  38  60  82 115 150 187 236 282 340
#     4  11  23  42  58  87 112 151 200 234 292 339
#     4   9  22  38  57  86 111 149 193 231 284 341
#
# _framework density 18.702411999999999
#
# number of rings (size 3 to 8) (size 9 to 14) (size 15 to 20)
#    0.000    1.750    1.250    2.625    5.250    2.000 
#    0.000    0.625    0.000    0.000    0.000    0.000 
#    0.000    0.000    0.000    0.000    0.000    0.000 
#
# Total GULP energy -178737.752307 kJ/mol
# GULP energy per Si atom -5585.554760 kJ/mol
# Density = 1.865984 g / cm^3
# Si number density = 18.702412 Si / 1000 Ang^3
#
#
#
# Elastic Constant Matrix: (Units=GPa)
#
#
# Indices 1 2 3 4 5 6 
#
# 1 101.4578 65.4900 38.4985 0.0000 -35.7240 0.0000
# 2 65.4900 99.7589 27.2389 0.0000 -24.2925 0.0000
# 3 38.4985 27.2389 43.6822 0.0000 -22.7148 0.0000
# 4 0.0000 0.0000 0.0000 29.2307 0.0000 0.5651
# 5 -35.7240 -24.2925 -22.7148 0.0000 30.0706 0.0000
# 6 0.0000 0.0000 0.0000 0.5651 0.0000 17.4367
#
#
#
# Elastic Compliance Matrix: (Units=1/GPa)
#
#
# Indices 1 2 3 4 5 6 
#
# 1 0.024938 -0.010592 -0.007275 0.000000 0.015574 0.000000
# 2 -0.010592 0.017460 -0.001253 0.000000 0.000574 0.000000
# 3 -0.007275 -0.001253 0.041280 0.000000 0.021527 0.000000
# 4 0.000000 0.000000 0.000000 0.034232 0.000000 -0.001109
# 5 0.015574 0.000574 0.021527 0.000000 0.068482 0.000000
# 6 0.000000 0.000000 0.000000 -0.001109 0.000000 0.057386
#
#
# Mechanical properties :
#
#
# Convention : Reuss Voigt Hill
#
# Bulk Modulus (GPa) = 22.00900 56.37260 39.19080
# Shear Modulus (GPa) = 16.82570 22.92569 19.87570
#
# Velocity S-wave (km/s) = 3.00268 3.50496 3.26350
# Velocity P-wave (km/s) = 4.88006 6.82547 5.93304
#
# Compressibility (1/GPa) = 0.04543596
#
# Stress axis : x y z
#
# Youngs Moduli (GPa) = 40.09998 57.27370 24.22491
#
# Poissons Ratio (x) = 0.60667 0.17624
# Poissons Ratio (y) = 0.42475 0.03036
# Poissons Ratio (z) = 0.29173 0.07179
#
# Static dielectric constant tensor:
#      x y z
#    x 1.645610 0.000000 -0.019270 
#    y 0.000000 1.614160 0.000000 
#    z -0.019270 0.000000 1.646200 
# 
# From -- ./inp_files/164219.got.cif
#   From: 2010.05.17/outbox.cif.g08.bks.cpg/sg15_83_cif.got.tgz:164219.got - 2010.06.03 18:47:42.
