data_PCOD9273276
_publ_section_title
;
Structure prediction by ZEFSAII (Michael W. Deem and Ramdas Pophale) SiO2 
 PCOD9273276
Probable space group: C 2/C
;
_chemical_formula_sum "Si O2"
_cell_formula_units_Z 56
_cell_length_a 13.205234
_cell_length_b 7.900430
_cell_length_c 26.863032
_cell_angle_alpha 90.000000
_cell_angle_beta 120.979441
_cell_angle_gamma 90.000000
_cell_volume 2402.763645
_symmetry_space_group_name_H-M "C 2/C"
_symmetry_group_IT_number 15
_symmetry_cell_setting 'monoclinic'
loop_
_space_group_symop_operation_xyz
x,y,z
-x,y,1/2-z
-x,-y,-z
x,-y,1/2+z
1/2+x,1/2+y,z
1/2-x,1/2+y,1/2-z
1/2-x,1/2-y,-z
1/2+x,1/2-y,1/2+z
loop_
_atom_site_type_symbol
_atom_site_label
_atom_site_fract_x
_atom_site_fract_y
_atom_site_fract_z
Si Si1 0.994627 0.059763 0.110725
Si Si2 0.469061 0.207027 0.687678
Si Si3 0.376466 0.134137 0.142805
Si Si4 0.377533 0.817625 0.425917
Si Si5 0.681165 0.982390 0.182445
Si Si6 0.114920 0.828135 0.212048
Si Si7 0.888245 0.717800 0.039580
O O1 0.102635 0.980758 0.169668
O O2 0.940495 0.898687 0.069279
O O3 0.032058 0.195562 0.079686
O O4 0.922300 0.154954 0.136360
O O5 0.500000 0.276493 0.750000
O O6 0.586046 0.125912 0.690974
O O7 0.384221 0.044231 0.672651
O O8 0.248711 0.218877 0.108494
O O9 0.482371 0.257000 0.187720
O O10 0.408209 0.099493 0.092404
O O11 0.355277 0.976212 0.384407
O O12 0.420125 0.844281 0.492814
O O13 0.806885 0.894277 0.223153
O O14 0.679915 0.170151 0.203191
O O15 0.750000 0.750000 0.000000
#
# Coordination Sequence:
#
# PCOD9273276 Si02
#       7
#     8   8   8   8   8   8   8
#     4  10  21  40  59  88 116 158 207 249 302 358
#     4  10  22  38  60  89 125 154 197 246 303 360
#     4   9  21  38  62  86 123 157 195 245 303 359
#     4  10  20  37  64  87 116 160 199 249 299 356
#     4  10  21  37  58  87 120 153 199 243 297 363
#     4  10  21  40  56  83 126 154 195 250 299 363
#     4   9  19  41  58  85 120 158 204 250 299 358
#
# _framework density 23.306497
#
# number of rings (size 3 to 8) (size 9 to 14) (size 15 to 20)
#    0.000    2.286    0.000    2.143    6.000    0.000 
#   15.429   15.714    0.000    0.000    0.000    0.000 
#    0.000    0.000    0.000    0.000    0.000    0.000 
#
# Total GULP energy -156425.764126 kJ/mol
# GULP energy per Si atom -5586.634433 kJ/mol
# Density = 2.325345 g / cm^3
# Si number density = 23.306497 Si / 1000 Ang^3
#
#
#
# Elastic Constant Matrix: (Units=GPa)
#
#
# Indices 1 2 3 4 5 6 
#
# 1 48.1812 -1.8445 15.8284 0.0000 -4.8130 0.0000
# 2 -1.8445 53.0208 -10.8729 0.0000 -3.1038 0.0000
# 3 15.8284 -10.8729 112.3094 0.0000 -19.5303 0.0000
# 4 0.0000 0.0000 0.0000 28.2835 0.0000 -1.3236
# 5 -4.8130 -3.1038 -19.5303 0.0000 38.2042 0.0000
# 6 0.0000 0.0000 0.0000 -1.3236 0.0000 20.7882
#
#
#
# Elastic Compliance Matrix: (Units=1/GPa)
#
#
# Indices 1 2 3 4 5 6 
#
# 1 0.021824 0.000259 -0.002820 0.000000 0.001329 0.000000
# 2 0.000259 0.019515 0.002342 0.000000 0.002816 0.000000
# 3 -0.002820 0.002342 0.010426 0.000000 0.005165 0.000000
# 4 0.000000 0.000000 0.000000 0.035462 0.000000 0.002258
# 5 0.001329 0.002816 0.005165 0.000000 0.029212 0.000000
# 6 0.000000 0.000000 0.000000 0.002258 0.000000 0.048248
#
#
# Mechanical properties :
#
#
# Convention : Reuss Voigt Hill
#
# Bulk Modulus (GPa) = 19.48248 24.41481 21.94865
# Shear Modulus (GPa) = 27.43742 31.48187 29.45964
#
# Velocity S-wave (km/s) = 3.43482 3.67928 3.55915
# Velocity P-wave (km/s) = 4.90999 5.34301 5.13107
#
# Compressibility (1/GPa) = 0.05132817
#
# Stress axis : x y z
#
# Youngs Moduli (GPa) = 45.82128 51.24339 95.91102
#
# Poissons Ratio (x) = -0.01326 0.27043
# Poissons Ratio (y) = -0.01186 -0.22466
# Poissons Ratio (z) = 0.12920 -0.12003
#
# Static dielectric constant tensor:
#      x y z
#    x 1.951650 0.000000 -0.065510 
#    y 0.000000 1.904420 0.000000 
#    z -0.065510 0.000000 1.952230 
# 
# From -- ./inp_files/273265.got.cif
#   From: 2010.05.17/outbox.cif.g08.bks.cpg/sg15_137_cif.got.tgz:273265.got - 2010.06.03 18:47:42.
