data_PCOD9273733
_publ_section_title
;
Structure prediction by ZEFSAII (Michael W. Deem and Ramdas Pophale) SiO2 
 PCOD9273733
Probable space group: C 2/C
;
_chemical_formula_sum "Si O2"
_cell_formula_units_Z 52
_cell_length_a 18.066294
_cell_length_b 13.053522
_cell_length_c 17.915958
_cell_angle_alpha 90.000000
_cell_angle_beta 37.735275
_cell_angle_gamma 90.000000
_cell_volume 2585.819516
_symmetry_space_group_name_H-M "C 2/C"
_symmetry_group_IT_number 15
_symmetry_cell_setting 'monoclinic'
loop_
_space_group_symop_operation_xyz
x,y,z
-x,y,1/2-z
-x,-y,-z
x,-y,1/2+z
1/2+x,1/2+y,z
1/2-x,1/2+y,1/2-z
1/2-x,1/2-y,-z
1/2+x,1/2-y,1/2+z
loop_
_atom_site_type_symbol
_atom_site_label
_atom_site_fract_x
_atom_site_fract_y
_atom_site_fract_z
Si Si1 0.387348 0.695367 0.973661
Si Si2 0.563629 0.912083 0.071592
Si Si3 0.000000 0.251701 0.250000
Si Si4 0.299349 0.102533 0.470952
Si Si5 0.147006 0.680001 0.848124
Si Si6 0.315536 0.354274 0.802317
Si Si7 0.868319 0.075862 0.751823
O O1 0.271349 0.620193 0.050945
O O2 0.508273 0.635896 0.856954
O O3 0.365755 0.791048 0.935639
O O4 0.395802 0.750525 0.047423
O O5 0.538136 0.823659 0.151666
O O6 0.448787 0.902968 0.107630
O O7 0.679817 0.884729 0.929622
O O8 0.604610 0.012797 0.085962
O O9 0.113528 0.182518 0.181116
O O10 0.190968 0.086284 0.618211
O O11 0.178133 0.761363 0.759624
O O12 0.266202 0.622684 0.780131
O O13 0.382662 0.456445 0.721763
#
# Coordination Sequence:
#
# PCOD9273733 Si02
#       7
#     8   8   4   8   8   8   8
#     4  10  20  38  58  89 127 151 205 248 296 361
#     4  10  21  41  62  87 119 157 204 247 301 361
#     4  10  22  40  60  90 112 152 202 252 290 356
#     4   9  21  38  59  90 116 164 200 247 302 357
#     4  10  22  39  57  92 121 158 201 246 305 356
#     4  10  22  38  61  85 118 159 195 245 300 357
#     4  10  21  36  62  83 117 165 195 245 303 362
#
# _framework density 20.109679
#
# number of rings (size 3 to 8) (size 9 to 14) (size 15 to 20)
#    0.000    2.154    0.000    1.846    4.308    7.385 
#   13.846    0.000    0.000    0.000    0.000    0.000 
#    0.000    0.000    0.000    0.000    0.000    0.000 
#
# Total GULP energy -145007.587605 kJ/mol
# GULP energy per Si atom -5577.214908 kJ/mol
# Density = 2.006391 g / cm^3
# Si number density = 20.109679 Si / 1000 Ang^3
#
#
#
# Elastic Constant Matrix: (Units=GPa)
#
#
# Indices 1 2 3 4 5 6 
#
# 1 103.5592 34.6203 17.8913 0.0000 -22.2101 0.0000
# 2 34.6203 99.3266 15.7824 0.0000 -17.8160 0.0000
# 3 17.8913 15.7824 31.8602 0.0000 -19.3639 0.0000
# 4 0.0000 0.0000 0.0000 62.6787 0.0000 -16.7850
# 5 -22.2101 -17.8160 -19.3639 0.0000 25.6194 0.0000
# 6 0.0000 0.0000 0.0000 -16.7850 0.0000 33.1512
#
#
#
# Elastic Compliance Matrix: (Units=1/GPa)
#
#
# Indices 1 2 3 4 5 6 
#
# 1 0.012491 -0.002744 -0.000432 0.000000 0.008595 0.000000
# 2 -0.002744 0.012147 -0.001458 0.000000 0.004967 0.000000
# 3 -0.000432 -0.001458 0.058281 0.000000 0.042662 0.000000
# 4 0.000000 0.000000 0.000000 0.018457 0.000000 0.009345
# 5 0.008595 0.004967 0.042662 0.000000 0.082183 0.000000
# 6 0.000000 0.000000 0.000000 0.009345 0.000000 0.034896
#
#
# Mechanical properties :
#
#
# Convention : Reuss Voigt Hill
#
# Bulk Modulus (GPa) = 13.57733 41.25934 27.41833
# Shear Modulus (GPa) = 19.81989 35.38667 27.60328
#
# Velocity S-wave (km/s) = 3.14282 4.19941 3.70893
# Velocity P-wave (km/s) = 4.46498 6.63891 5.65734
#
# Compressibility (1/GPa) = 0.07365219
#
# Stress axis : x y z
#
# Youngs Moduli (GPa) = 80.05478 82.32783 17.15838
#
# Poissons Ratio (x) = 0.22588 0.00741
# Poissons Ratio (y) = 0.21964 0.02501
# Poissons Ratio (z) = 0.03457 0.12001
#
# Static dielectric constant tensor:
#      x y z
#    x 1.773340 0.000000 0.004810 
#    y 0.000000 1.721630 0.000000 
#    z 0.004810 0.000000 1.685450 
# 
# From -- ./inp_files/248576.got.cif
#   From: 2010.05.17/outbox.cif.g08.bks.cpg/sg15_125_cif.got.tgz:248576.got - 2010.06.03 18:47:42.
