data_PCOD9273387
_publ_section_title
;
Structure prediction by ZEFSAII (Michael W. Deem and Ramdas Pophale) SiO2 
 PCOD9273387
Probable space group: C 2/C
;
_chemical_formula_sum "Si O2"
_cell_formula_units_Z 48
_cell_length_a 31.096654
_cell_length_b 9.794156
_cell_length_c 16.792591
_cell_angle_alpha 90.000000
_cell_angle_beta 149.902845
_cell_angle_gamma 90.000000
_cell_volume 2564.728639
_symmetry_space_group_name_H-M "C 2/C"
_symmetry_group_IT_number 15
_symmetry_cell_setting 'monoclinic'
loop_
_space_group_symop_operation_xyz
x,y,z
-x,y,1/2-z
-x,-y,-z
x,-y,1/2+z
1/2+x,1/2+y,z
1/2-x,1/2+y,1/2-z
1/2-x,1/2-y,-z
1/2+x,1/2-y,1/2+z
loop_
_atom_site_type_symbol
_atom_site_label
_atom_site_fract_x
_atom_site_fract_y
_atom_site_fract_z
Si Si1 0.358649 0.449820 0.474721
Si Si2 0.594887 0.742375 0.878545
Si Si3 0.512224 0.342541 0.616344
Si Si4 0.740327 0.045449 0.632565
Si Si5 0.178818 0.268435 0.453826
Si Si6 0.901967 0.865730 0.289260
O O1 0.390351 0.592627 0.560776
O O2 0.439349 0.370579 0.565235
O O3 0.291867 0.477392 0.296830
O O4 0.319340 0.356505 0.480801
O O5 0.500000 0.788393 0.750000
O O6 0.603215 0.726964 0.796743
O O7 0.666548 0.843747 0.025345
O O8 0.584903 0.240013 0.762978
O O9 0.464109 0.305828 0.457224
O O10 0.558346 0.488201 0.673502
O O11 0.810493 0.103059 0.682437
O O12 0.699503 0.907279 0.533201
O O13 0.250000 0.250000 0.500000
#
# Coordination Sequence:
#
# PCOD9273387 Si02
#       6
#     8   8   8   8   8   8
#     4  11  22  41  64  88 119 169 215 246 298 381
#     4  12  22  39  61  90 121 163 203 255 308 371
#     4  10  20  37  65  87 111 159 216 252 289 369
#     4  11  25  38  60  93 129 154 201 267 319 355
#     4  12  22  39  62  95 125 163 202 259 312 367
#     4  10  20  39  61  87 116 158 208 253 302 367
#
# _framework density 18.715430000000001
#
# number of rings (size 3 to 8) (size 9 to 14) (size 15 to 20)
#    0.000    1.000    5.000    2.000    0.000    2.667 
#    0.000    0.833    0.000    0.000    0.000    0.000 
#    0.000    0.000    0.000    0.000    0.000    0.000 
#
# Total GULP energy -134167.483394 kJ/mol
# GULP energy per Si atom -5590.311808 kJ/mol
# Density = 1.867283 g / cm^3
# Si number density = 18.715430 Si / 1000 Ang^3
#
#
#
# Elastic Constant Matrix: (Units=GPa)
#
#
# Indices 1 2 3 4 5 6 
#
# 1 107.9134 20.7068 54.1267 0.0000 3.7246 0.0000
# 2 20.7068 28.1886 44.9521 0.0000 9.3635 0.0000
# 3 54.1267 44.9521 153.6145 0.0000 -1.0513 0.0000
# 4 0.0000 0.0000 0.0000 33.1980 0.0000 3.1444
# 5 3.7246 9.3635 -1.0513 0.0000 30.5248 0.0000
# 6 0.0000 0.0000 0.0000 3.1444 0.0000 19.3247
#
#
#
# Elastic Compliance Matrix: (Units=1/GPa)
#
#
# Indices 1 2 3 4 5 6 
#
# 1 0.011464 -0.003419 -0.003042 0.000000 -0.000455 0.000000
# 2 -0.003419 0.084566 -0.023722 0.000000 -0.026340 0.000000
# 3 -0.003042 -0.023722 0.014579 0.000000 0.008150 0.000000
# 4 0.000000 0.000000 0.000000 0.030594 0.000000 -0.004978
# 5 -0.000455 -0.026340 0.008150 0.000000 0.041176 0.000000
# 6 0.000000 0.000000 0.000000 -0.004978 0.000000 0.052557
#
#
# Mechanical properties :
#
#
# Convention : Reuss Voigt Hill
#
# Bulk Modulus (GPa) = 19.90335 58.80973 39.35654
# Shear Modulus (GPa) = 16.02305 27.93823 21.98064
#
# Velocity S-wave (km/s) = 2.92916 3.86786 3.43077
# Velocity P-wave (km/s) = 4.70083 7.17206 6.06367
#
# Compressibility (1/GPa) = 0.05024279
#
# Stress axis : x y z
#
# Youngs Moduli (GPa) = 87.22735 11.82512 68.59114
#
# Poissons Ratio (x) = 0.04043 0.20865
# Poissons Ratio (y) = 0.29826 1.62711
# Poissons Ratio (z) = 0.26535 0.28051
#
# Static dielectric constant tensor:
#      x y z
#    x 1.641000 0.000000 -0.010980 
#    y 0.000000 1.607460 0.000000 
#    z -0.010980 0.000000 1.651940 
# 
# From -- ./inp_files/177883.got.cif
#   From: 2010.05.17/outbox.cif.g08.bks.cpg/sg15_89_cif.got.tgz:177883.got - 2010.06.03 18:47:42.
