data_PCOD9273720
_publ_section_title
;
Structure prediction by ZEFSAII (Michael W. Deem and Ramdas Pophale) SiO2 
 PCOD9273720
Probable space group: C 2/C
;
_chemical_formula_sum "Si O2"
_cell_formula_units_Z 40
_cell_length_a 5.653088
_cell_length_b 27.572266
_cell_length_c 10.944624
_cell_angle_alpha 90.000000
_cell_angle_beta 95.402110
_cell_angle_gamma 90.000000
_cell_volume 1698.344682
_symmetry_space_group_name_H-M "C 2/C"
_symmetry_group_IT_number 15
_symmetry_cell_setting 'monoclinic'
loop_
_space_group_symop_operation_xyz
x,y,z
-x,y,1/2-z
-x,-y,-z
x,-y,1/2+z
1/2+x,1/2+y,z
1/2-x,1/2+y,1/2-z
1/2-x,1/2-y,-z
1/2+x,1/2-y,1/2+z
loop_
_atom_site_type_symbol
_atom_site_label
_atom_site_fract_x
_atom_site_fract_y
_atom_site_fract_z
Si Si1 0.500000 0.698567 0.250000
Si Si2 0.500000 0.041151 0.250000
Si Si3 0.139997 0.888869 0.592531
Si Si4 0.260461 0.711490 0.869989
Si Si5 0.624252 0.478316 0.886711
Si Si6 0.732855 0.175289 0.601365
O O1 0.381608 0.662053 0.339695
O O2 0.309731 0.735071 0.180541
O O3 0.683017 0.076602 0.326362
O O4 0.609588 0.010848 0.143220
O O5 0.223250 0.875873 0.461168
O O6 0.899009 0.920151 0.589393
O O7 0.247657 0.677634 0.748619
O O8 0.532528 0.706815 0.925659
O O9 0.034252 0.694441 0.939867
O O10 0.500000 0.491010 0.750000
O O11 0.500000 0.500000 0.000000
#
# Coordination Sequence:
#
# PCOD9273720 Si02
#       6
#     4   4   8   8   8   8
#     4  10  20  38  58  87 130 172 229 278 332 402
#     4  10  22  42  68  97 132 176 219 290 348 432
#     4  11  22  38  63  95 125 171 225 282 342 419
#     4   9  21  38  54  89 132 177 225 281 327 402
#     4  10  23  46  67 104 134 173 226 286 361 436
#     4   9  20  38  58  87 129 172 225 273 336 394
#
# _framework density 23.552347000000001
#
# number of rings (size 3 to 8) (size 9 to 14) (size 15 to 20)
#    0.000    2.400    3.000    0.000    2.800   10.400 
#    3.600    2.000    0.000    1.200    0.000    0.000 
#    0.000    0.000    0.000    0.000    0.000    0.000 
#
# Total GULP energy -111349.935437 kJ/mol
# GULP energy per Si atom -5567.496772 kJ/mol
# Density = 2.349874 g / cm^3
# Si number density = 23.552347 Si / 1000 Ang^3
#
#
#
# Elastic Constant Matrix: (Units=GPa)
#
#
# Indices 1 2 3 4 5 6 
#
# 1 140.4857 21.4013 37.7810 0.0000 -37.3521 0.0000
# 2 21.4013 39.8295 38.6753 0.0000 -15.6041 0.0000
# 3 37.7810 38.6753 153.2544 0.0000 -33.1189 0.0000
# 4 0.0000 0.0000 0.0000 -100.0690 0.0000 -11.2831
# 5 -37.3521 -15.6041 -33.1189 0.0000 34.4952 0.0000
# 6 0.0000 0.0000 0.0000 -11.2831 0.0000 24.0733
#
#
#
# Elastic Compliance Matrix: (Units=1/GPa)
#
#
# Indices 1 2 3 4 5 6 
#
# 1 0.010060 -0.001476 0.000129 0.000000 0.010349 0.000000
# 2 -0.001476 0.035742 -0.006949 0.000000 0.007898 0.000000
# 3 0.000129 -0.006949 0.009587 0.000000 0.006201 0.000000
# 4 0.000000 0.000000 0.000000 -0.009492 0.000000 -0.004449
# 5 0.010349 0.007898 0.006201 0.000000 0.049722 0.000000
# 6 0.000000 0.000000 0.000000 -0.004449 0.000000 0.039455
#
#
# Mechanical properties :
#
#
# Convention : Reuss Voigt Hill
#
# Bulk Modulus (GPa) = 25.77563 58.80941 42.29252
# Shear Modulus (GPa) = 30.37680 7.41402 18.89541
#
# Velocity S-wave (km/s) = 3.59521 1.77615 2.83552
# Velocity P-wave (km/s) = 5.31054 5.40649 5.35873
#
# Compressibility (1/GPa) = 0.03879634
#
# Stress axis : x y z
#
# Youngs Moduli (GPa) = 99.40352 27.97813 104.30796
#
# Poissons Ratio (x) = 0.04130 -0.01346
# Poissons Ratio (y) = 0.14674 0.72486
# Poissons Ratio (z) = -0.01282 0.19443
#
# Static dielectric constant tensor:
#      x y z
#    x 2.187190 0.000000 -0.041000 
#    y 0.000000 1.858660 0.000000 
#    z -0.041000 0.000000 1.979480 
# 
# From -- ./inp_files/73158.got.cif
#   From: 2010.05.17/outbox.cif.g08.bks.cpg/sg15_37_cif.got.tgz:73158.got - 2010.06.03 18:47:42.
