data_PCOD9273815
_publ_section_title
;
Structure prediction by ZEFSAII (Michael W. Deem and Ramdas Pophale) SiO2 
 PCOD9273815
Probable space group: C 2/C
;
_chemical_formula_sum "Si O2"
_cell_formula_units_Z 48
_cell_length_a 7.492288
_cell_length_b 13.146549
_cell_length_c 20.875630
_cell_angle_alpha 90.000000
_cell_angle_beta 81.267953
_cell_angle_gamma 90.000000
_cell_volume 2032.369019
_symmetry_space_group_name_H-M "C 2/C"
_symmetry_group_IT_number 15
_symmetry_cell_setting 'monoclinic'
loop_
_space_group_symop_operation_xyz
x,y,z
-x,y,1/2-z
-x,-y,-z
x,-y,1/2+z
1/2+x,1/2+y,z
1/2-x,1/2+y,1/2-z
1/2-x,1/2-y,-z
1/2+x,1/2-y,1/2+z
loop_
_atom_site_type_symbol
_atom_site_label
_atom_site_fract_x
_atom_site_fract_y
_atom_site_fract_z
Si Si1 0.852461 0.799006 0.420444
Si Si2 0.598470 0.586390 0.806281
Si Si3 0.784548 0.209200 0.268240
Si Si4 0.189514 0.153522 0.093757
Si Si5 0.468399 0.184181 0.981835
Si Si6 0.220355 0.901689 0.860276
O O1 0.662801 0.852747 0.447682
O O2 0.808170 0.681045 0.402817
O O3 0.952092 0.862266 0.360971
O O4 0.975737 0.780761 0.475797
O O5 0.500000 0.532097 0.750000
O O6 0.705997 0.678821 0.769425
O O7 0.734594 0.520587 0.843170
O O8 0.732019 0.160977 0.339293
O O9 0.725172 0.146107 0.210715
O O10 0.000000 0.214836 0.250000
O O11 0.335039 0.117833 0.033173
O O12 0.995238 0.101301 0.111702
O O13 0.136138 0.267023 0.072201
#
# Coordination Sequence:
#
# PCOD9273815 Si02
#       6
#     8   8   8   8   8   8
#     4  10  20  38  60  90 120 156 211 254 299 372
#     4  12  22  39  64  92 122 163 202 258 323 366
#     4  10  20  38  59  88 121 156 204 257 309 370
#     4   9  17  35  61  84 118 164 199 246 310 358
#     4   9  18  34  62  83 118 170 200 247 310 357
#     4  10  22  39  61  89 123 157 203 257 312 370
#
# _framework density 23.617759
#
# number of rings (size 3 to 8) (size 9 to 14) (size 15 to 20)
#    0.000    2.000    3.333    1.500    0.000    0.000 
#    3.000    8.333    0.000    0.000    0.000    0.000 
#    0.000    0.000    0.000    0.000    0.000    0.000 
#
# Total GULP energy -133811.731203 kJ/mol
# GULP energy per Si atom -5575.488800 kJ/mol
# Density = 2.356400 g / cm^3
# Si number density = 23.617759 Si / 1000 Ang^3
#
#
#
# Elastic Constant Matrix: (Units=GPa)
#
#
# Indices 1 2 3 4 5 6 
#
# 1 44.8326 10.6172 10.4451 0.0000 -20.3277 0.0000
# 2 10.6172 74.1009 14.9448 0.0000 -12.9266 0.0000
# 3 10.4451 14.9448 109.6136 0.0000 -16.2265 0.0000
# 4 0.0000 0.0000 0.0000 10.9702 0.0000 0.9803
# 5 -20.3277 -12.9266 -16.2265 0.0000 38.4367 0.0000
# 6 0.0000 0.0000 0.0000 0.9803 0.0000 17.1535
#
#
#
# Elastic Compliance Matrix: (Units=1/GPa)
#
#
# Indices 1 2 3 4 5 6 
#
# 1 0.029534 -0.001547 -0.000393 0.000000 0.014933 0.000000
# 2 -0.001547 0.014600 -0.001320 0.000000 0.003534 0.000000
# 3 -0.000393 -0.001320 0.009860 0.000000 0.003511 0.000000
# 4 0.000000 0.000000 0.000000 0.091624 0.000000 -0.005236
# 5 0.014933 0.003534 0.003511 0.000000 0.036585 0.000000
# 6 0.000000 0.000000 0.000000 -0.005236 0.000000 0.058597
#
#
# Mechanical properties :
#
#
# Convention : Reuss Voigt Hill
#
# Bulk Modulus (GPa) = 21.06428 33.39570 27.22999
# Shear Modulus (GPa) = 19.00099 26.14805 22.57452
#
# Velocity S-wave (km/s) = 2.83949 3.33097 3.09500
# Velocity P-wave (km/s) = 4.43716 5.38188 4.93219
#
# Compressibility (1/GPa) = 0.04747373
#
# Stress axis : x y z
#
# Youngs Moduli (GPa) = 33.85923 68.49510 101.41914
#
# Poissons Ratio (x) = 0.10599 0.03983
# Poissons Ratio (y) = 0.05239 0.13386
# Poissons Ratio (z) = 0.01330 0.09040
#
# Static dielectric constant tensor:
#      x y z
#    x 1.945800 0.000000 0.012360 
#    y 0.000000 1.901100 0.000000 
#    z 0.012360 0.000000 1.936280 
# 
# From -- ./inp_files/231069.got.cif
#   From: 2010.05.17/outbox.cif.g08.bks.cpg/sg15_116_cif.got.tgz:231069.got - 2010.06.03 18:47:42.
