data_PCOD9273076
_publ_section_title
;
Structure prediction by ZEFSAII (Michael W. Deem and Ramdas Pophale) SiO2 
 PCOD9273076
Probable space group: C 2/C
;
_chemical_formula_sum "Si O2"
_cell_formula_units_Z 56
_cell_length_a 16.020040
_cell_length_b 11.604229
_cell_length_c 14.166555
_cell_angle_alpha 90.000000
_cell_angle_beta 90.034297
_cell_angle_gamma 90.000000
_cell_volume 2633.565117
_symmetry_space_group_name_H-M "C 2/C"
_symmetry_group_IT_number 15
_symmetry_cell_setting 'monoclinic'
loop_
_space_group_symop_operation_xyz
x,y,z
-x,y,1/2-z
-x,-y,-z
x,-y,1/2+z
1/2+x,1/2+y,z
1/2-x,1/2+y,1/2-z
1/2-x,1/2-y,-z
1/2+x,1/2-y,1/2+z
loop_
_atom_site_type_symbol
_atom_site_label
_atom_site_fract_x
_atom_site_fract_y
_atom_site_fract_z
Si Si1 0.345771 0.293664 0.152459
Si Si2 0.110619 0.718732 0.021232
Si Si3 0.741541 0.414383 0.043055
Si Si4 0.413618 0.908247 0.787928
Si Si5 0.962246 0.872457 0.979454
Si Si6 0.733221 0.523392 0.322552
Si Si7 0.192928 0.857796 0.649105
O O1 0.387949 0.197357 0.218277
O O2 0.320358 0.411827 0.203426
O O3 0.256436 0.242425 0.118351
O O4 0.407214 0.329885 0.068520
O O5 0.166448 0.638233 0.955423
O O6 0.039228 0.787179 0.969019
O O7 0.175253 0.813618 0.063350
O O8 0.074758 0.645785 0.108150
O O9 0.731618 0.524286 0.107713
O O10 0.726309 0.452895 0.934043
O O11 0.500000 0.959439 0.750000
O O12 0.331376 0.987144 0.797564
O O13 0.899587 0.860102 0.891928
O O14 0.000000 0.000000 0.000000
O O15 0.698916 0.630115 0.261774
#
# Coordination Sequence:
#
# PCOD9273076 Si02
#       7
#     8   8   8   8   8   8   8
#     4  11  22  38  63  87 127 160 204 258 313 362
#     4  10  20  37  62  91 125 161 205 259 305 364
#     4  10  20  39  62  88 125 164 207 251 311 374
#     4  10  20  37  62  91 118 161 213 254 300 378
#     4  12  22  37  59  94 122 155 207 261 303 359
#     4  10  22  38  60  89 122 169 203 247 321 374
#     4  11  23  40  62  92 123 164 209 255 312 376
#
# _framework density 21.263950999999999
#
# number of rings (size 3 to 8) (size 9 to 14) (size 15 to 20)
#    0.000    1.429    4.286    1.286    0.000    1.143 
#    0.000    5.714    0.000    0.000    0.000    0.000 
#    0.000    0.000    0.000    0.000    0.000    0.000 
#
# Total GULP energy -156433.203466 kJ/mol
# GULP energy per Si atom -5586.900124 kJ/mol
# Density = 2.121555 g / cm^3
# Si number density = 21.263951 Si / 1000 Ang^3
#
#
#
# Elastic Constant Matrix: (Units=GPa)
#
#
# Indices 1 2 3 4 5 6 
#
# 1 99.9535 7.9959 6.6474 0.0000 6.8776 0.0000
# 2 7.9959 23.9326 -0.3566 0.0000 -5.0229 0.0000
# 3 6.6474 -0.3566 49.0067 0.0000 -0.3726 0.0000
# 4 0.0000 0.0000 0.0000 20.4953 0.0000 -8.2995
# 5 6.8776 -5.0229 -0.3726 0.0000 31.3231 0.0000
# 6 0.0000 0.0000 0.0000 -8.2995 0.0000 45.6723
#
#
#
# Elastic Compliance Matrix: (Units=1/GPa)
#
#
# Indices 1 2 3 4 5 6 
#
# 1 0.010650 -0.004217 -0.001498 0.000000 -0.003033 0.000000
# 2 -0.004217 0.044916 0.000961 0.000000 0.008140 0.000000
# 3 -0.001498 0.000961 0.020621 0.000000 0.000728 0.000000
# 4 0.000000 0.000000 0.000000 0.052667 0.000000 0.009571
# 5 -0.003033 0.008140 0.000728 0.000000 0.033905 0.000000
# 6 0.000000 0.000000 0.000000 0.009571 0.000000 0.023634
#
#
# Mechanical properties :
#
#
# Convention : Reuss Voigt Hill
#
# Bulk Modulus (GPa) = 14.99753 22.38513 18.69133
# Shear Modulus (GPa) = 22.92223 30.07190 26.49707
#
# Velocity S-wave (km/s) = 3.28683 3.76469 3.53385
# Velocity P-wave (km/s) = 4.63386 5.42654 5.04579
#
# Compressibility (1/GPa) = 0.06667763
#
# Stress axis : x y z
#
# Youngs Moduli (GPa) = 93.89400 22.26399 48.49396
#
# Poissons Ratio (x) = 0.09389 0.07266
# Poissons Ratio (y) = 0.39596 -0.04659
# Poissons Ratio (z) = 0.14069 -0.02139
#
# Static dielectric constant tensor:
#      x y z
#    x 1.771660 0.000000 0.011300 
#    y 0.000000 1.772090 0.000000 
#    z 0.011300 0.000000 1.776860 
# 
# From -- ./inp_files/152626.got.cif
#   From: 2010.05.17/outbox.cif.g08.bks.cpg/sg15_77_cif.got.tgz:152626.got - 2010.06.03 18:47:42.
