data_PCOD9273149
_publ_section_title
;
Structure prediction by ZEFSAII (Michael W. Deem and Ramdas Pophale) SiO2 
 PCOD9273149
Probable space group: C 2/C
;
_chemical_formula_sum "Si O2"
_cell_formula_units_Z 60
_cell_length_a 24.287268
_cell_length_b 14.156355
_cell_length_c 17.545482
_cell_angle_alpha 90.000000
_cell_angle_beta 26.873415
_cell_angle_gamma 90.000000
_cell_volume 2726.803863
_symmetry_space_group_name_H-M "C 2/C"
_symmetry_group_IT_number 15
_symmetry_cell_setting 'monoclinic'
loop_
_space_group_symop_operation_xyz
x,y,z
-x,y,1/2-z
-x,-y,-z
x,-y,1/2+z
1/2+x,1/2+y,z
1/2-x,1/2+y,1/2-z
1/2-x,1/2-y,-z
1/2+x,1/2-y,1/2+z
loop_
_atom_site_type_symbol
_atom_site_label
_atom_site_fract_x
_atom_site_fract_y
_atom_site_fract_z
Si Si1 0.577007 0.135810 0.528474
Si Si2 0.000000 0.030223 0.750000
Si Si3 0.764797 0.646657 0.019545
Si Si4 0.535619 0.313830 0.893675
Si Si5 0.283463 0.332084 0.517230
Si Si6 0.858524 0.513923 0.771076
Si Si7 0.673062 0.329763 0.865484
Si Si8 0.643631 0.541561 0.932723
O O1 0.629141 0.136815 0.548884
O O2 0.487469 0.223403 0.629347
O O3 0.499042 0.044523 0.600522
O O4 0.689887 0.161566 0.334585
O O5 0.106418 0.100663 0.648104
O O6 0.936487 0.965424 0.891308
O O7 0.793723 0.572019 0.918902
O O8 0.750000 0.750000 0.000000
O O9 0.643154 0.628445 0.219356
O O10 0.587375 0.278743 0.910605
O O11 0.412985 0.375720 0.047195
O O12 0.250000 0.250000 0.500000
O O13 0.173271 0.404543 0.673575
O O14 0.327207 0.296695 0.546984
O O15 0.783295 0.545956 0.788571
O O16 0.626283 0.438167 0.919326
#
# Coordination Sequence:
#
# PCOD9273149 Si02
#       8
#     8   4   8   8   8   8   8   8
#     4  11  23  37  60  92 137 163 203 258 317 386
#     4   8  18  38  62  88 116 146 218 266 304 372
#     4  11  21  36  59  95 131 165 202 249 311 388
#     4  11  21  35  63  89 127 165 202 250 320 382
#     4  10  22  43  68  87 119 165 218 272 315 366
#     4  10  21  38  63  93 128 159 214 259 315 377
#     4   9  23  40  57  92 125 162 217 259 309 388
#     4  10  20  37  63  85 119 166 204 258 315 369
#
# _framework density 22.003782999999999
#
# number of rings (size 3 to 8) (size 9 to 14) (size 15 to 20)
#    0.000    2.133    1.333    3.200    1.867    5.333 
#    2.400    2.667    2.933    0.000    0.000    0.000 
#    0.000    0.000    0.000    0.000    0.000    0.000 
#
# Total GULP energy -167463.593293 kJ/mol
# GULP energy per Si atom -5582.119776 kJ/mol
# Density = 2.195370 g / cm^3
# Si number density = 22.003783 Si / 1000 Ang^3
#
#
#
# Elastic Constant Matrix: (Units=GPa)
#
#
# Indices 1 2 3 4 5 6 
#
# 1 127.1140 39.5280 29.4199 0.0000 -34.6159 0.0000
# 2 39.5280 48.0014 4.9649 0.0000 -23.2947 0.0000
# 3 29.4199 4.9649 57.6127 0.0000 -13.0344 0.0000
# 4 0.0000 0.0000 0.0000 23.7088 0.0000 -11.7138
# 5 -34.6159 -23.2947 -13.0344 0.0000 33.0590 0.0000
# 6 0.0000 0.0000 0.0000 -11.7138 0.0000 27.0034
#
#
#
# Elastic Compliance Matrix: (Units=1/GPa)
#
#
# Indices 1 2 3 4 5 6 
#
# 1 0.012901 -0.006773 -0.004422 0.000000 0.006992 0.000000
# 2 -0.006773 0.035558 0.004895 0.000000 0.019894 0.000000
# 3 -0.004422 0.004895 0.020780 0.000000 0.007012 0.000000
# 4 0.000000 0.000000 0.000000 0.053684 0.000000 0.023288
# 5 0.006992 0.019894 0.007012 0.000000 0.054353 0.000000
# 6 0.000000 0.000000 0.000000 0.023288 0.000000 0.047134
#
#
# Mechanical properties :
#
#
# Convention : Reuss Voigt Hill
#
# Bulk Modulus (GPa) = 17.65570 42.28377 29.96973
# Shear Modulus (GPa) = 19.53967 27.34190 23.44079
#
# Velocity S-wave (km/s) = 2.98319 3.52888 3.26745
# Velocity P-wave (km/s) = 4.46175 5.98851 5.28060
#
# Compressibility (1/GPa) = 0.05663892
#
# Stress axis : x y z
#
# Youngs Moduli (GPa) = 77.51534 28.12318 48.12328
#
# Poissons Ratio (x) = 0.19047 0.21281
# Poissons Ratio (y) = 0.52498 -0.23556
# Poissons Ratio (z) = 0.34278 -0.13766
#
# Static dielectric constant tensor:
#      x y z
#    x 1.827850 0.000000 -0.010310 
#    y 0.000000 1.800280 0.000000 
#    z -0.010310 0.000000 1.893850 
# 
# From -- ./inp_files/219594.got.cif
#   From: 2010.05.17/outbox.cif.g08.bks.cpg/sg15_110_cif.got.tgz:219594.got - 2010.06.03 18:47:42.
