data_PCOD9273902
_publ_section_title
;
Structure prediction by ZEFSAII (Michael W. Deem and Ramdas Pophale) SiO2 
 PCOD9273902
Probable space group: C 2/C
;
_chemical_formula_sum "Si O2"
_cell_formula_units_Z 36
_cell_length_a 10.197623
_cell_length_b 10.265375
_cell_length_c 14.350093
_cell_angle_alpha 90.000000
_cell_angle_beta 100.419673
_cell_angle_gamma 90.000000
_cell_volume 1477.430347
_symmetry_space_group_name_H-M "C 2/C"
_symmetry_group_IT_number 15
_symmetry_cell_setting 'monoclinic'
loop_
_space_group_symop_operation_xyz
x,y,z
-x,y,1/2-z
-x,-y,-z
x,-y,1/2+z
1/2+x,1/2+y,z
1/2-x,1/2+y,1/2-z
1/2-x,1/2-y,-z
1/2+x,1/2-y,1/2+z
loop_
_atom_site_type_symbol
_atom_site_label
_atom_site_fract_x
_atom_site_fract_y
_atom_site_fract_z
Si Si1 0.671931 0.743902 0.106283
Si Si2 0.578303 0.868285 0.481331
Si Si3 0.714139 0.517215 0.365556
Si Si4 0.355903 0.982934 0.687611
Si Si5 0.000000 0.834383 0.750000
O O1 0.533724 0.756604 0.030140
O O2 0.775066 0.625703 0.118901
O O3 0.610751 0.743112 0.204721
O O4 0.756467 0.873399 0.093094
O O5 0.702586 0.874104 0.566585
O O6 0.500000 0.000000 0.500000
O O7 0.623038 0.898168 0.381232
O O8 0.767150 0.501572 0.267344
O O9 0.567026 0.570684 0.334871
O O10 0.500000 0.944307 0.750000
#
# Coordination Sequence:
#
# PCOD9273902 Si02
#       5
#     8   8   8   8   4
#     4  10  21  36  60  82 116 156 188 244 288 334
#     4  10  20  38  60  86 119 154 193 239 291 345
#     4  10  22  40  60  86 120 153 192 245 286 345
#     4  11  20  37  61  87 116 156 199 233 292 348
#     4  10  22  40  58  90 116 150 204 232 290 352
#
# _framework density 24.366633
#
# number of rings (size 3 to 8) (size 9 to 14) (size 15 to 20)
#    0.000    1.778    4.444    1.333    1.556    4.444 
#    0.000    4.444    0.000    0.000    0.000    0.000 
#    0.000    0.000    0.000    0.000    0.000    0.000 
#
# Total GULP energy -100408.692165 kJ/mol
# GULP energy per Si atom -5578.260676 kJ/mol
# Density = 2.431117 g / cm^3
# Si number density = 24.366633 Si / 1000 Ang^3
#
#
#
# Elastic Constant Matrix: (Units=GPa)
#
#
# Indices 1 2 3 4 5 6 
#
# 1 80.3726 43.7838 41.4045 0.0000 19.9175 0.0000
# 2 43.7838 71.7093 11.5926 0.0000 23.2433 0.0000
# 3 41.4045 11.5926 116.3163 0.0000 8.7527 0.0000
# 4 0.0000 0.0000 0.0000 22.2976 0.0000 15.4613
# 5 19.9175 23.2433 8.7527 0.0000 72.7966 0.0000
# 6 0.0000 0.0000 0.0000 15.4613 0.0000 24.7188
#
#
#
# Elastic Compliance Matrix: (Units=1/GPa)
#
#
# Indices 1 2 3 4 5 6 
#
# 1 0.023219 -0.012572 -0.006898 0.000000 -0.001509 0.000000
# 2 -0.012572 0.022527 0.002536 0.000000 -0.004058 0.000000
# 3 -0.006898 0.002536 0.010817 0.000000 -0.000223 0.000000
# 4 0.000000 0.000000 0.000000 0.079197 0.000000 -0.049537
# 5 -0.001509 -0.004058 -0.000223 0.000000 0.015472 0.000000
# 6 0.000000 0.000000 0.000000 -0.049537 0.000000 0.071440
#
#
# Mechanical properties :
#
#
# Convention : Reuss Voigt Hill
#
# Bulk Modulus (GPa) = 44.06867 51.32887 47.69877
# Shear Modulus (GPa) = 18.93177 35.40375 27.16776
#
# Velocity S-wave (km/s) = 2.79041 3.81591 3.34272
# Velocity P-wave (km/s) = 5.33918 6.36599 5.87506
#
# Compressibility (1/GPa) = 0.02269186
#
# Stress axis : x y z
#
# Youngs Moduli (GPa) = 43.06868 44.39144 92.44781
#
# Poissons Ratio (x) = 0.55811 0.63775
# Poissons Ratio (y) = 0.54148 -0.23440
# Poissons Ratio (z) = 0.29711 -0.11256
#
# Static dielectric constant tensor:
#      x y z
#    x 1.926080 0.000000 0.016530 
#    y 0.000000 2.050690 0.000000 
#    z 0.016530 0.000000 2.014810 
# 
# From -- ./inp_files/141295.got.cif
#   From: 2010.05.17/outbox.cif.g08.bks.cpg/sg15_71_cif.got.tgz:141295.got - 2010.06.03 18:47:42.
