data_PCOD9273318
_publ_section_title
;
Structure prediction by ZEFSAII (Michael W. Deem and Ramdas Pophale) SiO2 
 PCOD9273318
Probable space group: C 2/C
;
_chemical_formula_sum "Si O2"
_cell_formula_units_Z 64
_cell_length_a 27.671725
_cell_length_b 10.321299
_cell_length_c 20.638632
_cell_angle_alpha 90.000000
_cell_angle_beta 31.227562
_cell_angle_gamma 90.000000
_cell_volume 3055.967129
_symmetry_space_group_name_H-M "C 2/C"
_symmetry_group_IT_number 15
_symmetry_cell_setting 'monoclinic'
loop_
_space_group_symop_operation_xyz
x,y,z
-x,y,1/2-z
-x,-y,-z
x,-y,1/2+z
1/2+x,1/2+y,z
1/2-x,1/2+y,1/2-z
1/2-x,1/2-y,-z
1/2+x,1/2-y,1/2+z
loop_
_atom_site_type_symbol
_atom_site_label
_atom_site_fract_x
_atom_site_fract_y
_atom_site_fract_z
Si Si1 0.284410 0.844015 0.874395
Si Si2 0.045009 0.507469 0.260914
Si Si3 0.071756 0.299393 0.038895
Si Si4 0.983279 0.031800 0.126176
Si Si5 0.218981 0.738394 0.268114
Si Si6 0.826522 0.066433 0.884911
Si Si7 0.150993 0.977573 0.843584
Si Si8 0.307602 0.161658 0.981921
O O1 0.273048 0.824181 0.811728
O O2 0.293489 0.700434 0.892333
O O3 0.381385 0.911662 0.782826
O O4 0.203265 0.921784 0.005606
O O5 0.103826 0.394501 0.158068
O O6 0.000000 0.579742 0.250000
O O7 0.970954 0.436878 0.391636
O O8 0.152317 0.272521 0.999860
O O9 0.997570 0.183384 0.125298
O O10 0.120096 0.297076 0.913909
O O11 0.932829 0.963274 0.244460
O O12 0.913484 0.009525 0.145828
O O13 0.082720 0.983705 0.984624
O O14 0.218373 0.895441 0.268261
O O15 0.296642 0.659428 0.218645
O O16 0.761581 0.957661 0.926176
O O17 0.250000 0.250000 0.000000
#
# Coordination Sequence:
#
# PCOD9273318 Si02
#       8
#     8   8   8   8   8   8   8   8
#     4  10  22  39  62  89 127 169 218 260 318 402
#     4   9  20  39  56  89 128 159 209 270 321 378
#     4  10  22  37  65  94 128 171 209 270 335 384
#     4  10  20  40  63  91 127 168 211 272 332 388
#     4  11  23  42  63  95 129 177 224 262 333 399
#     4  10  20  39  65  85 124 173 206 266 330 372
#     4  10  23  41  64  90 134 171 215 274 326 398
#     4  10  20  37  64  92 124 162 213 268 317 386
#
# _framework density 20.942634000000002
#
# number of rings (size 3 to 8) (size 9 to 14) (size 15 to 20)
#    0.000    2.000    1.250    1.500    0.000    5.500 
#    2.250    3.125    0.000    0.000    0.000    0.000 
#    0.000    0.000    0.000    0.000    0.000    0.000 
#
# Total GULP energy -178551.632684 kJ/mol
# GULP energy per Si atom -5579.738521 kJ/mol
# Density = 2.089497 g / cm^3
# Si number density = 20.942634 Si / 1000 Ang^3
#
#
#
# Elastic Constant Matrix: (Units=GPa)
#
#
# Indices 1 2 3 4 5 6 
#
# 1 49.3581 20.3233 19.0719 0.0000 7.6242 0.0000
# 2 20.3233 79.2958 21.8134 -0.0006 -10.7372 0.0000
# 3 19.0719 21.8134 90.2169 -0.0002 13.4663 0.0000
# 4 0.0000 -0.0006 -0.0002 32.3510 0.0000 -5.5309
# 5 7.6242 -10.7372 13.4663 0.0000 27.1379 0.0000
# 6 0.0000 0.0000 0.0000 -5.5309 0.0000 28.4095
#
#
#
# Elastic Compliance Matrix: (Units=1/GPa)
#
#
# Indices 1 2 3 4 5 6 
#
# 1 0.025431 -0.007055 -0.002362 0.000000 -0.008764 0.000000
# 2 -0.007055 0.017056 -0.004251 0.000000 0.010840 0.000000
# 3 -0.002362 -0.004251 0.013784 0.000000 -0.007858 0.000000
# 4 0.000000 0.000000 0.000000 0.031975 0.000000 0.006225
# 5 -0.008764 0.010840 -0.007858 0.000000 0.047499 0.000000
# 6 0.000000 0.000000 0.000000 0.006225 0.000000 0.036411
#
#
# Mechanical properties :
#
#
# Convention : Reuss Voigt Hill
#
# Bulk Modulus (GPa) = 34.55821 37.92090 36.23956
# Shear Modulus (GPa) = 23.90757 28.09049 25.99903
#
# Velocity S-wave (km/s) = 3.38238 3.66636 3.52723
# Velocity P-wave (km/s) = 5.63837 6.00577 5.82497
#
# Compressibility (1/GPa) = 0.02893668
#
# Stress axis : x y z
#
# Youngs Moduli (GPa) = 39.32143 58.62982 72.54530
#
# Poissons Ratio (x) = 0.41362 0.17137
# Poissons Ratio (y) = 0.27741 0.30836
# Poissons Ratio (z) = 0.09289 0.24921
#
# Static dielectric constant tensor:
#      x y z
#    x 1.802500 0.000000 0.039140 
#    y 0.000000 1.757130 0.000000 
#    z 0.039140 0.000000 1.811280 
# 
# From -- ./inp_files/257510.got.cif
#   From: 2010.05.17/outbox.cif.g08.bks.cpg/sg15_129_cif.got.tgz:257510.got - 2010.06.03 18:47:42.
