data_PCOD9273925
_publ_section_title
;
Structure prediction by ZEFSAII (Michael W. Deem and Ramdas Pophale) SiO2 
 PCOD9273925
Probable space group: C 2/C
;
_chemical_formula_sum "Si O2"
_cell_formula_units_Z 36
_cell_length_a 16.748486
_cell_length_b 10.653765
_cell_length_c 13.329348
_cell_angle_alpha 90.000000
_cell_angle_beta 128.497037
_cell_angle_gamma 90.000000
_cell_volume 1861.443283
_symmetry_space_group_name_H-M "C 2/C"
_symmetry_group_IT_number 15
_symmetry_cell_setting 'monoclinic'
loop_
_space_group_symop_operation_xyz
x,y,z
-x,y,1/2-z
-x,-y,-z
x,-y,1/2+z
1/2+x,1/2+y,z
1/2-x,1/2+y,1/2-z
1/2-x,1/2-y,-z
1/2+x,1/2-y,1/2+z
loop_
_atom_site_type_symbol
_atom_site_label
_atom_site_fract_x
_atom_site_fract_y
_atom_site_fract_z
Si Si1 0.000000 0.740317 0.750000
Si Si2 0.891786 0.798358 0.192644
Si Si3 0.140513 0.060451 0.242172
Si Si4 0.693589 0.881186 0.473822
Si Si5 0.274146 0.603250 0.405127
O O1 0.069221 0.832048 0.735081
O O2 0.074901 0.653702 0.875062
O O3 0.814924 0.703422 0.185829
O O4 0.000000 0.739134 0.250000
O O5 0.906084 0.925048 0.267717
O O6 0.840597 0.840896 0.048011
O O7 0.251973 0.065151 0.383999
O O8 0.158388 0.078850 0.139198
O O9 0.750000 0.750000 0.500000
O O10 0.723134 0.977126 0.408540
#
# Coordination Sequence:
#
# PCOD9273925 Si02
#       5
#     4   8   8   8   8
#     4  10  20  38  60  88 118 154 200 238 280 354
#     4  10  22  41  58  88 120 152 199 240 287 354
#     4  10  21  39  60  86 117 158 194 238 293 343
#     4   9  21  39  58  85 120 149 193 243 282 346
#     4  10  23  39  61  86 120 155 192 245 293 337
#
# _framework density 19.339831
#
# number of rings (size 3 to 8) (size 9 to 14) (size 15 to 20)
#    0.000    2.222    1.111    0.000    7.778    2.667 
#    0.000    1.111    0.000    0.000    0.000    0.000 
#    0.000    0.000    0.000    0.000    0.000    0.000 
#
# Total GULP energy -100423.272471 kJ/mol
# GULP energy per Si atom -5579.070693 kJ/mol
# Density = 1.929581 g / cm^3
# Si number density = 19.339831 Si / 1000 Ang^3
#
#
#
# Elastic Constant Matrix: (Units=GPa)
#
#
# Indices 1 2 3 4 5 6 
#
# 1 95.2850 18.5002 35.4156 0.0000 -5.1541 0.0000
# 2 18.5002 49.6724 7.4924 0.0000 -2.7771 0.0000
# 3 35.4156 7.4924 34.9077 0.0000 -0.3673 0.0000
# 4 0.0000 0.0000 0.0000 16.2341 0.0000 10.7236
# 5 -5.1541 -2.7771 -0.3673 0.0000 44.0975 0.0000
# 6 0.0000 0.0000 0.0000 10.7236 0.0000 9.3211
#
#
#
# Elastic Compliance Matrix: (Units=1/GPa)
#
#
# Indices 1 2 3 4 5 6 
#
# 1 0.017703 -0.003920 -0.017102 0.000000 0.001680 0.000000
# 2 -0.003920 0.021745 -0.000681 0.000000 0.000906 0.000000
# 3 -0.017102 -0.000681 0.046126 0.000000 -0.001658 0.000000
# 4 0.000000 0.000000 0.000000 0.256613 0.000000 -0.295224
# 5 0.001680 0.000906 -0.001658 0.000000 0.022917 0.000000
# 6 0.000000 0.000000 0.000000 -0.295224 0.000000 0.446928
#
#
# Mechanical properties :
#
#
# Convention : Reuss Voigt Hill
#
# Bulk Modulus (GPa) = 23.71372 33.63128 28.67250
# Shear Modulus (GPa) = 5.75047 21.82766 13.78907
#
# Velocity S-wave (km/s) = 1.72622 3.36316 2.67308
# Velocity P-wave (km/s) = 4.03253 5.70163 4.93811
#
# Compressibility (1/GPa) = 0.04216967
#
# Stress axis : x y z
#
# Youngs Moduli (GPa) = 56.48718 45.98723 21.67965
#
# Poissons Ratio (x) = 0.18027 0.37076
# Poissons Ratio (y) = 0.22143 0.01476
# Poissons Ratio (z) = 0.96603 0.03131
#
# Static dielectric constant tensor:
#      x y z
#    x 1.666960 0.000000 0.049050 
#    y 0.000000 1.670590 0.000000 
#    z 0.049050 0.000000 1.707710 
# 
# From -- ./inp_files/94322.got.cif
#   From: 2010.05.17/outbox.cif.g08.bks.cpg/sg15_48_cif.got.tgz:94322.got - 2010.06.03 18:47:42.
