data_PCOD9273227
_publ_section_title
;
Structure prediction by ZEFSAII (Michael W. Deem and Ramdas Pophale) SiO2 
 PCOD9273227
Probable space group: C 2/C
;
_chemical_formula_sum "Si O2"
_cell_formula_units_Z 40
_cell_length_a 15.340699
_cell_length_b 4.911398
_cell_length_c 24.598709
_cell_angle_alpha 90.000000
_cell_angle_beta 112.368269
_cell_angle_gamma 90.000000
_cell_volume 1713.918586
_symmetry_space_group_name_H-M "C 2/C"
_symmetry_group_IT_number 15
_symmetry_cell_setting 'monoclinic'
loop_
_space_group_symop_operation_xyz
x,y,z
-x,y,1/2-z
-x,-y,-z
x,-y,1/2+z
1/2+x,1/2+y,z
1/2-x,1/2+y,1/2-z
1/2-x,1/2-y,-z
1/2+x,1/2-y,1/2+z
loop_
_atom_site_type_symbol
_atom_site_label
_atom_site_fract_x
_atom_site_fract_y
_atom_site_fract_z
Si Si1 0.296451 0.287983 0.285829
Si Si2 0.658908 0.152657 0.513250
Si Si3 0.576189 0.096133 0.384367
Si Si4 0.215151 0.126680 0.591156
Si Si5 0.511301 0.602097 0.189643
O O1 0.216764 0.498856 0.245986
O O2 0.292976 0.268873 0.349734
O O3 0.392035 0.440012 0.293327
O O4 0.750000 0.250000 0.500000
O O5 0.576422 0.146543 0.449181
O O6 0.651889 0.364386 0.560986
O O7 0.683244 0.859565 0.542359
O O8 0.564443 0.380060 0.349996
O O9 0.676520 0.962095 0.392515
O O10 0.499569 0.875319 0.347822
O O11 0.500000 0.672892 0.250000
#
# Coordination Sequence:
#
# PCOD9273227 Si02
#       5
#     8   8   8   8   8
#     4  12  25  43  62  88 122 161 201 249 303 360
#     4  10  20  37  63  93 121 158 201 243 293 358
#     4  11  21  39  62  89 119 155 200 249 293 352
#     4  11  21  39  64  91 121 161 202 243 294 357
#     4  12  24  40  61  89 119 157 201 250 302 355
#
# _framework density 23.338332999999999
#
# number of rings (size 3 to 8) (size 9 to 14) (size 15 to 20)
#    0.000    0.800    0.000   11.400    0.000    0.000 
#    0.000    6.000    0.000    0.000    0.000    0.000 
#    0.000    0.000    0.000    0.000    0.000    0.000 
#
# Total GULP energy -112032.931955 kJ/mol
# GULP energy per Si atom -5601.646598 kJ/mol
# Density = 2.328521 g / cm^3
# Si number density = 23.338333 Si / 1000 Ang^3
#
#
#
# Elastic Constant Matrix: (Units=GPa)
#
#
# Indices 1 2 3 4 5 6 
#
# 1 27.0867 -11.7541 5.6523 0.0000 7.4873 0.0001
# 2 -11.7541 123.3112 27.3681 0.0000 22.2832 0.0001
# 3 5.6523 27.3681 138.2538 0.0000 16.6229 0.0000
# 4 0.0000 0.0000 0.0000 157.3825 0.0000 26.3762
# 5 7.4873 22.2832 16.6229 0.0000 26.0476 0.0000
# 6 0.0001 0.0001 0.0000 26.3762 0.0000 20.4703
#
#
#
# Elastic Compliance Matrix: (Units=1/GPa)
#
#
# Indices 1 2 3 4 5 6 
#
# 1 0.046100 0.008176 -0.001158 0.000000 -0.019507 0.000000
# 2 0.008176 0.011169 -0.001206 0.000000 -0.011135 0.000000
# 3 -0.001158 -0.001206 0.007966 0.000000 -0.003719 0.000000
# 4 0.000000 0.000000 0.000000 0.008104 0.000000 -0.010442
# 5 -0.019507 -0.011135 -0.003719 0.000000 0.055898 0.000000
# 6 0.000000 0.000000 0.000000 -0.010442 0.000000 0.062306
#
#
# Mechanical properties :
#
#
# Convention : Reuss Voigt Hill
#
# Bulk Modulus (GPa) = 13.01068 36.79826 24.90447
# Shear Modulus (GPa) = 24.32628 58.60578 41.46603
#
# Velocity S-wave (km/s) = 3.23202 5.01656 4.21971
# Velocity P-wave (km/s) = 4.41756 7.02539 5.86817
#
# Compressibility (1/GPa) = 0.07685995
#
# Stress axis : x y z
#
# Youngs Moduli (GPa) = 21.69179 89.53423 125.52747
#
# Poissons Ratio (x) = -0.73207 0.14535
# Poissons Ratio (y) = -0.17736 0.15144
# Poissons Ratio (z) = 0.02512 0.10801
#
# Static dielectric constant tensor:
#      x y z
#    x 1.900230 0.000000 0.024720 
#    y 0.000000 1.796830 0.000000 
#    z 0.024720 0.000000 1.888690 
# 
# From -- ./inp_files/271747.got.cif
#   From: 2010.05.17/outbox.cif.g08.bks.cpg/sg15_136_cif.got.tgz:271747.got - 2010.06.03 18:47:42.
