data_PCOD9273299
_publ_section_title
;
Structure prediction by ZEFSAII (Michael W. Deem and Ramdas Pophale) SiO2 
 PCOD9273299
Probable space group: C 2/C
;
_chemical_formula_sum "Si O2"
_cell_formula_units_Z 48
_cell_length_a 5.684974
_cell_length_b 18.632755
_cell_length_c 20.447917
_cell_angle_alpha 90.000000
_cell_angle_beta 98.737302
_cell_angle_gamma 90.000000
_cell_volume 2140.845161
_symmetry_space_group_name_H-M "C 2/C"
_symmetry_group_IT_number 15
_symmetry_cell_setting 'monoclinic'
loop_
_space_group_symop_operation_xyz
x,y,z
-x,y,1/2-z
-x,-y,-z
x,-y,1/2+z
1/2+x,1/2+y,z
1/2-x,1/2+y,1/2-z
1/2-x,1/2-y,-z
1/2+x,1/2-y,1/2+z
loop_
_atom_site_type_symbol
_atom_site_label
_atom_site_fract_x
_atom_site_fract_y
_atom_site_fract_z
Si Si1 0.009951 0.327497 0.053109
Si Si2 0.336346 0.318475 0.586312
Si Si3 0.281586 0.969267 0.085583
Si Si4 0.347300 0.597295 0.487470
Si Si5 0.744212 0.461379 0.235508
Si Si6 0.770258 0.378186 0.782996
O O1 0.954789 0.259991 0.095889
O O2 0.964820 0.403735 0.086087
O O3 0.832216 0.320599 0.984100
O O4 0.260241 0.336136 0.027336
O O5 0.539539 0.374391 0.574602
O O6 0.203544 0.345114 0.644399
O O7 0.346183 0.039844 0.046280
O O8 0.224974 0.983067 0.158684
O O9 0.041480 0.941039 0.040875
O O10 0.500000 0.425311 0.250000
O O11 0.768537 0.534589 0.279238
O O12 0.000000 0.422181 0.250000
O O13 0.500000 0.357134 0.750000
O O14 0.000000 0.356025 0.750000
#
# Coordination Sequence:
#
# PCOD9273299 Si02
#       6
#     8   8   8   8   8   8
#     4  10  22  38  62  93 126 170 199 282 329 384
#     4  10  22  39  62  94 126 162 225 257 329 393
#     4  10  22  37  57  96 124 160 217 267 330 390
#     4  10  20  37  64  90 125 166 208 272 327 385
#     4  10  22  37  61  89 123 168 213 267 320 379
#     4  10  22  40  63  95 121 169 217 269 308 380
#
# _framework density 22.421054000000002
#
# number of rings (size 3 to 8) (size 9 to 14) (size 15 to 20)
#    0.000    2.000    0.000    3.000    9.333    0.000 
#    0.000    1.667    0.000    0.000    0.000    0.000 
#    0.000    0.000    0.000    0.000    0.000    0.000 
#
# Total GULP energy -133893.369188 kJ/mol
# GULP energy per Si atom -5578.890383 kJ/mol
# Density = 2.237002 g / cm^3
# Si number density = 22.421054 Si / 1000 Ang^3
#
#
#
# Elastic Constant Matrix: (Units=GPa)
#
#
# Indices 1 2 3 4 5 6 
#
# 1 112.6433 12.3934 25.7403 0.0000 -23.3185 0.0000
# 2 12.3934 58.8651 26.1976 0.0000 -3.0586 0.0000
# 3 25.7403 26.1976 64.7380 0.0000 -32.0153 0.0000
# 4 0.0000 0.0000 0.0000 15.1487 0.0000 -11.0187
# 5 -23.3185 -3.0586 -32.0153 0.0000 28.6336 0.0000
# 6 0.0000 0.0000 0.0000 -11.0187 0.0000 1.8382
#
#
#
# Elastic Compliance Matrix: (Units=1/GPa)
#
#
# Indices 1 2 3 4 5 6 
#
# 1 0.010976 -0.002747 0.002288 0.000000 0.011204 0.000000
# 2 -0.002747 0.025311 -0.019952 0.000000 -0.021842 0.000000
# 3 0.002288 -0.019952 0.050281 0.000000 0.055952 0.000000
# 4 0.000000 0.000000 0.000000 -0.019646 0.000000 -0.117764
# 5 0.011204 -0.021842 0.055952 0.000000 0.104275 0.000000
# 6 0.000000 0.000000 0.000000 -0.117764 0.000000 -0.161903
#
#
# Mechanical properties :
#
#
# Convention : Reuss Voigt Hill
#
# Bulk Modulus (GPa) = 21.85953 40.54544 31.20248
# Shear Modulus (GPa) = 76.49397 20.58509 48.53953
#
# Velocity S-wave (km/s) = 5.84731 3.03333 4.65791
# Velocity P-wave (km/s) = 7.44035 5.51280 6.54789
#
# Compressibility (1/GPa) = 0.04574664
#
# Stress axis : x y z
#
# Youngs Moduli (GPa) = 91.10573 39.50858 19.88807
#
# Poissons Ratio (x) = 0.10853 -0.04550
# Poissons Ratio (y) = 0.25027 0.39680
# Poissons Ratio (z) = -0.20845 0.78827
#
# Static dielectric constant tensor:
#      x y z
#    x 1.923790 0.000000 0.005080 
#    y 0.000000 1.851800 0.000000 
#    z 0.005080 0.000000 1.810280 
# 
# From -- ./inp_files/227326.got.cif
#   From: 2010.05.17/outbox.cif.g08.bks.cpg/sg15_114_cif.got.tgz:227326.got - 2010.06.03 18:47:42.
