data_PCOD9273492
_publ_section_title
;
Structure prediction by ZEFSAII (Michael W. Deem and Ramdas Pophale) SiO2 
 PCOD9273492
Probable space group: C 2/C
;
_chemical_formula_sum "Si O2"
_cell_formula_units_Z 56
_cell_length_a 31.014589
_cell_length_b 8.567129
_cell_length_c 22.530477
_cell_angle_alpha 90.000000
_cell_angle_beta 24.971676
_cell_angle_gamma 90.000000
_cell_volume 2527.314426
_symmetry_space_group_name_H-M "C 2/C"
_symmetry_group_IT_number 15
_symmetry_cell_setting 'monoclinic'
loop_
_space_group_symop_operation_xyz
x,y,z
-x,y,1/2-z
-x,-y,-z
x,-y,1/2+z
1/2+x,1/2+y,z
1/2-x,1/2+y,1/2-z
1/2-x,1/2-y,-z
1/2+x,1/2-y,1/2+z
loop_
_atom_site_type_symbol
_atom_site_label
_atom_site_fract_x
_atom_site_fract_y
_atom_site_fract_z
Si Si1 0.000000 0.406453 0.750000
Si Si2 0.412778 0.618006 0.632029
Si Si3 0.406820 0.847651 0.442590
Si Si4 0.513181 0.129201 0.534173
Si Si5 0.709101 0.499787 0.542312
Si Si6 0.810488 0.830134 0.812969
Si Si7 0.000000 0.901504 0.750000
Si Si8 0.880711 0.703992 0.288806
O O1 0.912622 0.521959 0.883880
O O2 0.958870 0.312924 0.745556
O O3 0.500000 0.500000 0.500000
O O4 0.403414 0.742619 0.591334
O O5 0.327319 0.496576 0.758844
O O6 0.432961 0.731764 0.663586
O O7 0.445713 0.926964 0.453919
O O8 0.295791 0.772123 0.580816
O O9 0.482886 0.710525 0.328041
O O10 0.406828 0.221219 0.678133
O O11 0.500000 0.000000 0.500000
O O12 0.705454 0.363058 0.596705
O O13 0.607533 0.485214 0.628437
O O14 0.810411 0.546258 0.377909
O O15 0.692237 0.652335 0.603667
#
# Coordination Sequence:
#
# PCOD9273492 Si02
#       8
#     4   8   8   8   8   8   4   8
#     4  11  21  36  58 100 131 161 210 278 336 397
#     4   9  21  41  66  88 126 177 216 271 327 390
#     4  11  24  37  62  92 127 173 217 269 343 404
#     4  11  23  42  65  92 129 175 225 274 337 403
#     4  10  20  39  63  94 129 168 215 274 340 402
#     4  10  21  43  64  89 130 170 218 282 332 395
#     4  11  23  38  60  96 133 171 212 272 350 401
#     4  10  20  37  66  95 127 169 218 270 337 401
#
# _framework density 22.157907999999999
#
# number of rings (size 3 to 8) (size 9 to 14) (size 15 to 20)
#    0.000    1.714    2.857    1.286    0.000    4.000 
#    0.000    0.000    0.000    0.000    0.000    0.000 
#    0.000    0.000    0.000    0.000    0.000    0.000 
#
# Total GULP energy -155989.801900 kJ/mol
# GULP energy per Si atom -5571.064354 kJ/mol
# Density = 2.210748 g / cm^3
# Si number density = 22.157908 Si / 1000 Ang^3
#
#
#
# Elastic Constant Matrix: (Units=GPa)
#
#
# Indices 1 2 3 4 5 6 
#
# 1 102.5625 25.3337 48.6393 -0.0002 -0.1178 -0.0007
# 2 25.3337 72.7008 40.1027 -0.0016 15.9950 -0.0042
# 3 48.6393 40.1027 93.7811 0.0020 5.4061 -0.0017
# 4 -0.0002 -0.0016 0.0020 43.1663 -0.0013 8.7261
# 5 -0.1178 15.9950 5.4061 -0.0013 36.1222 0.0009
# 6 -0.0007 -0.0042 -0.0017 8.7261 0.0009 33.7138
#
#
#
# Elastic Compliance Matrix: (Units=1/GPa)
#
#
# Indices 1 2 3 4 5 6 
#
# 1 0.013078 -0.001469 -0.006249 0.000000 0.001628 0.000000
# 2 -0.001469 0.020036 -0.007358 0.000000 -0.007776 0.000002
# 3 -0.006249 -0.007358 0.017011 -0.000001 0.000692 0.000000
# 4 0.000000 0.000000 -0.000001 0.024445 0.000001 -0.006327
# 5 0.001628 -0.007776 0.000692 0.000001 0.031029 -0.000002
# 6 0.000000 0.000002 0.000000 -0.006327 -0.000002 0.031299
#
#
# Mechanical properties :
#
#
# Convention : Reuss Voigt Hill
#
# Bulk Modulus (GPa) = 50.06446 55.24399 52.65423
# Shear Modulus (GPa) = 28.78409 32.93171 30.85790
#
# Velocity S-wave (km/s) = 3.60814 3.85935 3.73585
# Velocity P-wave (km/s) = 6.32468 6.69668 6.51334
#
# Compressibility (1/GPa) = 0.01997425
#
# Stress axis : x y z
#
# Youngs Moduli (GPa) = 76.46298 49.90956 58.78679
#
# Poissons Ratio (x) = 0.07330 0.36735
# Poissons Ratio (y) = 0.11229 0.43255
# Poissons Ratio (z) = 0.47781 0.36723
#
# Static dielectric constant tensor:
#      x y z
#    x 1.789530 0.000000 0.038390 
#    y 0.000000 1.900740 0.000000 
#    z 0.038390 0.000000 1.904110 
# 
# From -- ./inp_files/258985.got.cif
#   From: 2010.05.17/outbox.cif.g08.bks.cpg/sg15_130_cif.got.tgz:258985.got - 2010.06.03 18:47:42.
