data_PCOD9273254
_publ_section_title
;
Structure prediction by ZEFSAII (Michael W. Deem and Ramdas Pophale) SiO2 
 PCOD9273254
Probable space group: C 2/C
;
_chemical_formula_sum "Si O2"
_cell_formula_units_Z 64
_cell_length_a 11.678149
_cell_length_b 14.948851
_cell_length_c 15.627962
_cell_angle_alpha 90.000000
_cell_angle_beta 81.269883
_cell_angle_gamma 90.000000
_cell_volume 2696.641203
_symmetry_space_group_name_H-M "C 2/C"
_symmetry_group_IT_number 15
_symmetry_cell_setting 'monoclinic'
loop_
_space_group_symop_operation_xyz
x,y,z
-x,y,1/2-z
-x,-y,-z
x,-y,1/2+z
1/2+x,1/2+y,z
1/2-x,1/2+y,1/2-z
1/2-x,1/2-y,-z
1/2+x,1/2-y,1/2+z
loop_
_atom_site_type_symbol
_atom_site_label
_atom_site_fract_x
_atom_site_fract_y
_atom_site_fract_z
Si Si1 0.382940 0.685900 0.911777
Si Si2 0.747137 0.436233 0.729534
Si Si3 0.257561 0.775304 0.238746
Si Si4 0.367192 0.718713 0.575494
Si Si5 0.763299 0.883543 0.945542
Si Si6 0.656609 0.879636 0.512388
Si Si7 0.687581 0.025578 0.627684
Si Si8 0.565089 0.922729 0.344381
O O1 0.341585 0.701412 0.819300
O O2 0.518399 0.670936 0.904039
O O3 0.371909 0.776755 0.968453
O O4 0.290314 0.619733 0.964941
O O5 0.734680 0.332897 0.759860
O O6 0.689036 0.434596 0.642332
O O7 0.716697 0.501733 0.811617
O O8 0.870011 0.486415 0.694289
O O9 0.227236 0.803664 0.339672
O O10 0.366020 0.833092 0.192807
O O11 0.349232 0.826384 0.572917
O O12 0.348025 0.688671 0.479662
O O13 0.734067 0.939649 0.032232
O O14 0.580709 0.920754 0.445345
O O15 0.640806 0.927965 0.603997
O O16 0.569572 0.077385 0.663125
#
# Coordination Sequence:
#
# PCOD9273254 Si02
#       8
#     8   8   8   8   8   8   8   8
#     4  10  20  37  63  98 131 179 232 275 355 412
#     4  11  23  38  65  95 138 180 232 282 342 416
#     4  10  22  39  61 100 140 176 231 288 343 427
#     4  10  21  39  63  87 133 186 226 282 343 420
#     4  10  23  40  60  96 131 180 232 282 348 411
#     4  10  21  36  61 100 135 169 222 294 337 417
#     4  12  22  39  65  99 137 173 222 291 347 402
#     4  11  23  38  62 100 139 175 222 290 358 399
#
# _framework density 23.733228
#
# number of rings (size 3 to 8) (size 9 to 14) (size 15 to 20)
#    0.000    1.500    2.500    2.625    3.500    2.000 
#    0.000    1.875    0.000    0.750    0.000    0.000 
#    0.000    0.000    0.000    0.000    0.000    0.000 
#
# Total GULP energy -178320.869444 kJ/mol
# GULP energy per Si atom -5572.527170 kJ/mol
# Density = 2.367921 g / cm^3
# Si number density = 23.733228 Si / 1000 Ang^3
#
#
#
# Elastic Constant Matrix: (Units=GPa)
#
#
# Indices 1 2 3 4 5 6 
#
# 1 57.6041 26.6789 29.3327 0.0000 8.6246 0.0000
# 2 26.6789 91.6522 37.0500 0.0000 2.1680 0.0000
# 3 29.3327 37.0500 139.5540 0.0000 20.4053 0.0000
# 4 0.0000 0.0000 0.0000 65.0098 0.0000 4.0129
# 5 8.6246 2.1680 20.4053 0.0000 34.1528 0.0000
# 6 0.0000 0.0000 0.0000 4.0129 0.0000 19.5635
#
#
#
# Elastic Compliance Matrix: (Units=1/GPa)
#
#
# Indices 1 2 3 4 5 6 
#
# 1 0.021625 -0.005134 -0.002664 0.000000 -0.003543 0.000000
# 2 -0.005134 0.013492 -0.002813 0.000000 0.002121 0.000000
# 3 -0.002664 -0.002813 0.009147 0.000000 -0.004614 0.000000
# 4 0.000000 0.000000 0.000000 0.015580 0.000000 -0.003196
# 5 -0.003543 0.002121 -0.004614 0.000000 0.032797 0.000000
# 6 0.000000 0.000000 0.000000 -0.003196 0.000000 0.051771
#
#
# Mechanical properties :
#
#
# Convention : Reuss Voigt Hill
#
# Bulk Modulus (GPa) = 43.39941 52.77042 48.08492
# Shear Modulus (GPa) = 28.84930 36.79514 32.82222
#
# Velocity S-wave (km/s) = 3.49028 3.94174 3.72286
# Velocity P-wave (km/s) = 5.87952 6.55740 6.22769
#
# Compressibility (1/GPa) = 0.02304179
#
# Stress axis : x y z
#
# Youngs Moduli (GPa) = 46.24332 74.11677 109.32416
#
# Poissons Ratio (x) = 0.38051 0.29126
# Poissons Ratio (y) = 0.23741 0.30753
# Poissons Ratio (z) = 0.12320 0.20849
#
# Static dielectric constant tensor:
#      x y z
#    x 1.937420 0.000000 -0.012410 
#    y 0.000000 2.073920 0.000000 
#    z -0.012410 0.000000 1.977370 
# 
# From -- ./inp_files/154827.got.cif
#   From: 2010.05.17/outbox.cif.g08.bks.cpg/sg15_78_cif.got.tgz:154827.got - 2010.06.03 18:47:42.
