data_PCOD9273140
_publ_section_title
;
Structure prediction by ZEFSAII (Michael W. Deem and Ramdas Pophale) SiO2 
 PCOD9273140
Probable space group: C 2/C
;
_chemical_formula_sum "Si O2"
_cell_formula_units_Z 48
_cell_length_a 30.610172
_cell_length_b 6.762815
_cell_length_c 15.020799
_cell_angle_alpha 90.000000
_cell_angle_beta 32.692170
_cell_angle_gamma 90.000000
_cell_volume 1679.503235
_symmetry_space_group_name_H-M "C 2/C"
_symmetry_group_IT_number 15
_symmetry_cell_setting 'monoclinic'
loop_
_space_group_symop_operation_xyz
x,y,z
-x,y,1/2-z
-x,-y,-z
x,-y,1/2+z
1/2+x,1/2+y,z
1/2-x,1/2+y,1/2-z
1/2-x,1/2-y,-z
1/2+x,1/2-y,1/2+z
loop_
_atom_site_type_symbol
_atom_site_label
_atom_site_fract_x
_atom_site_fract_y
_atom_site_fract_z
Si Si1 0.008716 0.283401 0.026701
Si Si2 0.165535 0.622944 0.346099
Si Si3 0.226377 0.018227 0.555931
Si Si4 0.880942 0.588275 0.873650
Si Si5 0.380849 0.335926 0.611841
Si Si6 0.648023 0.643433 0.527688
O O1 0.960455 0.307064 0.201810
O O2 0.960954 0.159346 0.034587
O O3 0.000000 0.500000 0.000000
O O4 0.102137 0.263196 0.891472
O O5 0.148163 0.657362 0.479741
O O6 0.147429 0.391147 0.357672
O O7 0.258584 0.671310 0.166511
O O8 0.250000 0.250000 0.500000
O O9 0.313031 0.909062 0.411542
O O10 0.162467 0.996143 0.585278
O O11 0.311415 0.557558 0.287549
O O12 0.890792 0.348994 0.871671
O O13 0.396218 0.418224 0.486578
#
# Coordination Sequence:
#
# PCOD9273140 Si02
#       6
#     8   8   8   8   8   8
#     4  10  21  37  63  98 137 183 238 293 356 431
#     4  10  20  38  64 100 139 182 234 298 359 433
#     4  10  20  37  62  96 133 178 235 295 354 417
#     4  10  20  37  62  96 134 182 235 288 356 430
#     4  10  21  39  62 102 134 185 237 298 352 435
#     4  10  21  38  65  99 136 181 239 297 355 422
#
# _framework density 28.579878999999998
#
# number of rings (size 3 to 8) (size 9 to 14) (size 15 to 20)
#    0.000    2.000    1.667    2.500    0.000    2.667 
#    0.000    0.000    0.000   36.000   30.333    0.000 
#    0.000    0.000    0.000    0.000    0.000    0.000 
#
# Total GULP energy -134532.201795 kJ/mol
# GULP energy per Si atom -5605.508408 kJ/mol
# Density = 2.851483 g / cm^3
# Si number density = 28.579879 Si / 1000 Ang^3
#
#
#
# Elastic Constant Matrix: (Units=GPa)
#
#
# Indices 1 2 3 4 5 6 
#
# 1 174.7529 53.3959 29.4770 -0.0004 17.6029 -0.0001
# 2 53.3959 115.9421 19.5044 0.0017 -6.1744 -0.0001
# 3 29.4770 19.5044 83.4000 0.0003 14.0057 0.0000
# 4 -0.0004 0.0017 0.0003 40.5726 0.0002 3.5293
# 5 17.6029 -6.1744 14.0057 0.0002 65.2623 0.0002
# 6 -0.0001 -0.0001 0.0000 3.5293 0.0002 58.1639
#
#
#
# Elastic Compliance Matrix: (Units=1/GPa)
#
#
# Indices 1 2 3 4 5 6 
#
# 1 0.007118 -0.003133 -0.001464 0.000000 -0.001902 0.000000
# 2 -0.003133 0.010473 -0.001712 0.000000 0.002203 0.000000
# 3 -0.001464 -0.001712 0.013350 0.000000 -0.002632 0.000000
# 4 0.000000 0.000000 0.000000 0.024778 0.000000 -0.001503
# 5 -0.001902 0.002203 -0.002632 0.000000 0.016609 0.000000
# 6 0.000000 0.000000 0.000000 -0.001503 0.000000 0.017284
#
#
# Mechanical properties :
#
#
# Convention : Reuss Voigt Hill
#
# Bulk Modulus (GPa) = 54.57349 64.31662 59.44505
# Shear Modulus (GPa) = 46.15155 50.91427 48.53291
#
# Velocity S-wave (km/s) = 4.02285 4.22533 4.12533
# Velocity P-wave (km/s) = 6.38078 6.80864 6.59818
#
# Compressibility (1/GPa) = 0.01832392
#
# Stress axis : x y z
#
# Youngs Moduli (GPa) = 140.48374 95.48054 74.90568
#
# Poissons Ratio (x) = 0.29917 0.10964
# Poissons Ratio (y) = 0.44018 0.12823
# Poissons Ratio (z) = 0.20562 0.16346
#
# Static dielectric constant tensor:
#      x y z
#    x 2.242900 0.000000 0.045200 
#    y 0.000000 2.313910 0.000000 
#    z 0.045200 0.000000 2.228180 
# 
# From -- ./inp_files/153590.got.cif
#   From: 2010.05.17/outbox.cif.g08.bks.cpg/sg15_77_cif.got.tgz:153590.got - 2010.06.03 18:47:42.
