data_PCOD9273047
_publ_section_title
;
Structure prediction by ZEFSAII (Michael W. Deem and Ramdas Pophale) SiO2 
 PCOD9273047
Probable space group: C 2/C
;
_chemical_formula_sum "Si O2"
_cell_formula_units_Z 60
_cell_length_a 11.489463
_cell_length_b 16.420426
_cell_length_c 16.504178
_cell_angle_alpha 90.000000
_cell_angle_beta 107.230092
_cell_angle_gamma 90.000000
_cell_volume 2973.975032
_symmetry_space_group_name_H-M "C 2/C"
_symmetry_group_IT_number 15
_symmetry_cell_setting 'monoclinic'
loop_
_space_group_symop_operation_xyz
x,y,z
-x,y,1/2-z
-x,-y,-z
x,-y,1/2+z
1/2+x,1/2+y,z
1/2-x,1/2+y,1/2-z
1/2-x,1/2-y,-z
1/2+x,1/2-y,1/2+z
loop_
_atom_site_type_symbol
_atom_site_label
_atom_site_fract_x
_atom_site_fract_y
_atom_site_fract_z
Si Si1 0.000000 0.410184 0.750000
Si Si2 0.881575 0.537485 0.601707
Si Si3 0.601296 0.553385 0.340747
Si Si4 0.583196 0.146903 0.580311
Si Si5 0.700928 0.423752 0.473700
Si Si6 0.359519 0.176530 0.727702
Si Si7 0.059136 0.165837 0.083181
Si Si8 0.260034 0.837586 0.767830
O O1 0.051506 0.468515 0.831266
O O2 0.106620 0.355355 0.735920
O O3 0.766461 0.496517 0.536337
O O4 0.845595 0.607622 0.658046
O O5 0.975381 0.580644 0.559058
O O6 0.500000 0.546792 0.250000
O O7 0.631444 0.467280 0.386199
O O8 0.549276 0.614838 0.398340
O O9 0.717898 0.593561 0.321945
O O10 0.687561 0.130512 0.536575
O O11 0.644039 0.140631 0.682469
O O12 0.532815 0.238818 0.564017
O O13 0.610025 0.375216 0.512675
O O14 0.500000 0.209386 0.750000
O O15 0.265870 0.249675 0.699057
O O16 0.168764 0.161154 0.171800
#
# Coordination Sequence:
#
# PCOD9273047 Si02
#       8
#     4   8   8   8   8   8   8   8
#     4  12  20  36  62  92 128 146 194 258 304 344
#     4  11  21  38  61  92 122 160 203 251 296 357
#     4  10  22  40  66  86 117 162 208 247 303 366
#     4  10  20  37  62  89 125 167 199 235 308 371
#     4  12  23  36  61  94 126 150 203 261 304 349
#     4   9  18  37  65  85 119 165 208 239 294 368
#     4  10  21  41  63  87 121 165 203 244 302 367
#     4  10  20  37  63  89 119 163 204 242 305 360
#
# _framework density 20.175018999999999
#
# number of rings (size 3 to 8) (size 9 to 14) (size 15 to 20)
#    0.000    1.600    3.333    4.800    0.000    0.000 
#    0.000    4.000   11.733    1.600    0.000    0.000 
#    0.000    0.000    0.000    0.000    0.000    0.000 
#
# Total GULP energy -167676.230246 kJ/mol
# GULP energy per Si atom -5589.207675 kJ/mol
# Density = 2.012910 g / cm^3
# Si number density = 20.175019 Si / 1000 Ang^3
#
#
#
# Elastic Constant Matrix: (Units=GPa)
#
#
# Indices 1 2 3 4 5 6 
#
# 1 101.4774 33.0065 15.7808 0.0000 -19.2145 0.0000
# 2 33.0065 81.5014 16.0434 0.0000 -5.8892 0.0000
# 3 15.7808 16.0434 30.4168 0.0000 -9.5657 0.0000
# 4 0.0000 0.0000 0.0000 22.7533 0.0000 -8.2447
# 5 -19.2145 -5.8892 -9.5657 0.0000 20.9613 0.0000
# 6 0.0000 0.0000 0.0000 -8.2447 0.0000 23.3261
#
#
#
# Elastic Compliance Matrix: (Units=1/GPa)
#
#
# Indices 1 2 3 4 5 6 
#
# 1 0.013499 -0.004441 -0.001357 0.000000 0.010507 0.000000
# 2 -0.004441 0.015159 -0.006577 0.000000 -0.002813 0.000000
# 3 -0.001357 -0.006577 0.042122 0.000000 0.016131 0.000000
# 4 0.000000 0.000000 0.000000 0.050405 0.000000 0.017816
# 5 0.010507 -0.002813 0.016131 0.000000 0.063910 0.000000
# 6 0.000000 0.000000 0.000000 0.017816 0.000000 0.049168
#
#
# Mechanical properties :
#
#
# Convention : Reuss Voigt Hill
#
# Bulk Modulus (GPa) = 21.72364 38.11744 29.92054
# Shear Modulus (GPa) = 18.22447 23.31249 20.76848
#
# Velocity S-wave (km/s) = 3.00879 3.40297 3.21193
# Velocity P-wave (km/s) = 4.78136 5.86299 5.34958
#
# Compressibility (1/GPa) = 0.04603280
#
# Stress axis : x y z
#
# Youngs Moduli (GPa) = 74.07762 65.96556 23.74036
#
# Poissons Ratio (x) = 0.29293 0.03222
# Poissons Ratio (y) = 0.32895 0.15613
# Poissons Ratio (z) = 0.10053 0.43382
#
# Static dielectric constant tensor:
#      x y z
#    x 1.704930 0.000000 -0.006230 
#    y 0.000000 1.716270 0.000000 
#    z -0.006230 0.000000 1.727330 
# 
# From -- ./inp_files/146118.got.cif
#   From: 2010.05.17/outbox.cif.g08.bks.cpg/sg15_74_cif.got.tgz:146118.got - 2010.06.03 18:47:42.
