data_PCOD9273259
_publ_section_title
;
Structure prediction by ZEFSAII (Michael W. Deem and Ramdas Pophale) SiO2 
 PCOD9273259
Probable space group: C 2/C
;
_chemical_formula_sum "Si O2"
_cell_formula_units_Z 48
_cell_length_a 15.724306
_cell_length_b 18.620211
_cell_length_c 13.419970
_cell_angle_alpha 90.000000
_cell_angle_beta 29.371785
_cell_angle_gamma 90.000000
_cell_volume 1927.188578
_symmetry_space_group_name_H-M "C 2/C"
_symmetry_group_IT_number 15
_symmetry_cell_setting 'monoclinic'
loop_
_space_group_symop_operation_xyz
x,y,z
-x,y,1/2-z
-x,-y,-z
x,-y,1/2+z
1/2+x,1/2+y,z
1/2-x,1/2+y,1/2-z
1/2-x,1/2-y,-z
1/2+x,1/2-y,1/2+z
loop_
_atom_site_type_symbol
_atom_site_label
_atom_site_fract_x
_atom_site_fract_y
_atom_site_fract_z
Si Si1 0.252585 0.303608 0.154950
Si Si2 0.000000 0.124592 0.250000
Si Si3 0.500000 0.986037 0.750000
Si Si4 0.234026 0.359241 0.578927
Si Si5 0.716914 0.534131 0.180046
Si Si6 0.629921 0.163701 0.386214
Si Si7 0.117726 0.868131 0.277125
O O1 0.255019 0.217894 0.165768
O O2 0.362836 0.329144 0.138303
O O3 0.060642 0.333428 0.371661
O O4 0.348259 0.329180 0.957487
O O5 0.928674 0.072832 0.236312
O O6 0.634572 0.934757 0.669615
O O7 0.611574 0.032076 0.562065
O O8 0.128484 0.315618 0.770426
O O9 0.427499 0.363890 0.424572
O O10 0.255850 0.338293 0.440050
O O11 0.777741 0.586101 0.205597
O O12 0.665135 0.451825 0.250674
#
# Coordination Sequence:
#
# PCOD9273259 Si02
#       7
#     8   4   4   8   8   8   8
#     4  12  28  47  67  95 132 176 221 271 329 391
#     4  12  26  45  68  93 132 174 222 276 324 385
#     4  10  20  37  64 101 136 172 214 270 328 381
#     4  10  21  41  68 100 137 171 214 268 327 390
#     4  11  23  40  68  99 132 173 220 271 325 385
#     4  12  26  44  68  97 132 175 221 268 326 393
#     4  10  23  43  69 101 135 171 216 271 329 384
#
# _framework density 24.906749000000001
#
# number of rings (size 3 to 8) (size 9 to 14) (size 15 to 20)
#    0.000    1.000    0.000    8.000    0.000   12.000 
#    0.000    1.667    0.000    0.000    0.000    0.000 
#    0.000    0.000    0.000    0.000    0.000    0.000 
#
# Total GULP energy -134330.223338 kJ/mol
# GULP energy per Si atom -5597.092639 kJ/mol
# Density = 2.485006 g / cm^3
# Si number density = 24.906749 Si / 1000 Ang^3
#
#
#
# Elastic Constant Matrix: (Units=GPa)
#
#
# Indices 1 2 3 4 5 6 
#
# 1 99.4842 20.9547 22.8428 0.0094 1.7742 0.0002
# 2 20.9547 54.6483 10.6994 -0.0006 18.3461 0.0120
# 3 22.8428 10.6994 136.7054 -0.0147 20.4258 0.0309
# 4 0.0094 -0.0006 -0.0147 45.7927 0.0088 -13.6540
# 5 1.7742 18.3461 20.4258 0.0088 47.9220 -0.0098
# 6 0.0002 0.0120 0.0309 -13.6540 -0.0098 33.8888
#
#
#
# Elastic Compliance Matrix: (Units=1/GPa)
#
#
# Indices 1 2 3 4 5 6 
#
# 1 0.011444 -0.004759 -0.001868 -0.000003 0.002194 0.000003
# 2 -0.004759 0.023005 0.000304 0.000000 -0.008760 -0.000011
# 3 -0.001868 0.000304 0.008128 0.000001 -0.003511 -0.000008
# 4 -0.000003 0.000000 0.000001 0.024819 -0.000003 0.010000
# 5 0.002194 -0.008760 -0.003511 -0.000003 0.025636 0.000013
# 6 0.000003 -0.000011 -0.000008 0.010000 0.000013 0.033537
#
#
# Mechanical properties :
#
#
# Convention : Reuss Voigt Hill
#
# Bulk Modulus (GPa) = 33.41029 44.42573 38.91801
# Shear Modulus (GPa) = 33.51355 41.27675 37.39515
#
# Velocity S-wave (km/s) = 3.67217 4.07535 3.87900
# Velocity P-wave (km/s) = 5.60563 6.32615 5.97676
#
# Compressibility (1/GPa) = 0.02993090
#
# Stress axis : x y z
#
# Youngs Moduli (GPa) = 87.38222 43.46841 123.03191
#
# Poissons Ratio (x) = 0.20687 0.22978
# Poissons Ratio (y) = 0.41586 -0.03735
# Poissons Ratio (z) = 0.16320 -0.01320
#
# Static dielectric constant tensor:
#      x y z
#    x 2.091000 0.000000 0.047580 
#    y 0.000000 1.974720 0.000010 
#    z 0.047580 0.000010 1.983950 
# 
# From -- ./inp_files/163204.got.cif
#   From: 2010.05.17/outbox.cif.g08.bks.cpg/sg15_82_cif.got.tgz:163204.got - 2010.06.03 18:47:42.
