data_PCOD9273380
_publ_section_title
;
Structure prediction by ZEFSAII (Michael W. Deem and Ramdas Pophale) SiO2 
 PCOD9273380
Probable space group: C 2/C
;
_chemical_formula_sum "Si O2"
_cell_formula_units_Z 28
_cell_length_a 18.555922
_cell_length_b 14.674803
_cell_length_c 8.847448
_cell_angle_alpha 90.000000
_cell_angle_beta 41.692368
_cell_angle_gamma 90.000000
_cell_volume 1602.433285
_symmetry_space_group_name_H-M "C 2/C"
_symmetry_group_IT_number 15
_symmetry_cell_setting 'monoclinic'
loop_
_space_group_symop_operation_xyz
x,y,z
-x,y,1/2-z
-x,-y,-z
x,-y,1/2+z
1/2+x,1/2+y,z
1/2-x,1/2+y,1/2-z
1/2-x,1/2-y,-z
1/2+x,1/2-y,1/2+z
loop_
_atom_site_type_symbol
_atom_site_label
_atom_site_fract_x
_atom_site_fract_y
_atom_site_fract_z
Si Si1 0.760519 0.475338 0.083602
Si Si2 0.411306 0.074428 0.089960
Si Si3 0.121831 0.094957 0.071607
Si Si4 0.000000 0.729049 0.750000
O O1 0.689046 0.544577 0.095652
O O2 0.684796 0.419718 0.316337
O O3 0.843080 0.532456 0.058120
O O4 0.829827 0.414969 0.858180
O O5 0.467572 0.165027 0.940060
O O6 0.500000 0.000000 0.000000
O O7 0.097544 0.201572 0.137276
O O8 0.000000 0.054265 0.250000
#
# Coordination Sequence:
#
# PCOD9273380 Si02
#       4
#     8   8   8   4
#     4  10  20  37  65  79 112 162 183 221 299 343
#     4  11  20  38  59  84 115 153 190 232 283 338
#     4   9  21  38  60  85 116 144 192 237 279 337
#     4  10  22  36  60  84 122 138 192 248 274 316
#
# _framework density 17.473426
#
# number of rings (size 3 to 8) (size 9 to 14) (size 15 to 20)
#    0.857    1.143    2.857    0.857    0.000    2.286 
#    0.000    0.000   12.571    0.000    0.000    0.000 
#    0.000    0.000    0.000    0.000    0.000    0.000 
#
# Total GULP energy -78010.871961 kJ/mol
# GULP energy per Si atom -5572.205140 kJ/mol
# Density = 1.743366 g / cm^3
# Si number density = 17.473426 Si / 1000 Ang^3
#
#
#
# Elastic Constant Matrix: (Units=GPa)
#
#
# Indices 1 2 3 4 5 6 
#
# 1 114.7042 41.6637 63.8285 0.0000 0.1457 0.0000
# 2 41.6637 111.8662 76.4715 0.0000 4.4092 0.0000
# 3 63.8285 76.4715 164.6685 0.0000 19.7312 0.0000
# 4 0.0000 0.0000 0.0000 11.6505 0.0000 36.3913
# 5 0.1457 4.4092 19.7312 0.0000 31.4891 0.0000
# 6 0.0000 0.0000 0.0000 36.3913 0.0000 -22.8934
#
#
#
# Elastic Compliance Matrix: (Units=1/GPa)
#
#
# Indices 1 2 3 4 5 6 
#
# 1 0.011562 -0.001652 -0.004039 0.000000 0.002709 0.000000
# 2 -0.001652 0.013468 -0.005826 0.000000 0.001773 0.000000
# 3 -0.004039 -0.005826 0.011076 0.000000 -0.006106 0.000000
# 4 0.000000 0.000000 0.000000 0.014389 0.000000 0.022873
# 5 0.002709 0.001773 -0.006106 0.000000 0.035322 0.000000
# 6 0.000000 0.000000 0.000000 0.022873 0.000000 -0.007323
#
#
# Mechanical properties :
#
#
# Convention : Reuss Voigt Hill
#
# Bulk Modulus (GPa) = 76.50690 83.90737 80.20713
# Shear Modulus (GPa) = 47.22066 18.00094 32.61080
#
# Velocity S-wave (km/s) = 5.20413 3.21314 4.32477
# Velocity P-wave (km/s) = 8.94373 7.86701 8.42260
#
# Compressibility (1/GPa) = 0.01307072
#
# Stress axis : x y z
#
# Youngs Moduli (GPa) = 86.48796 74.25273 90.28664
#
# Poissons Ratio (x) = 0.12266 0.36469
# Poissons Ratio (y) = 0.14287 0.52605
# Poissons Ratio (z) = 0.34934 0.43263
#
# Static dielectric constant tensor:
#      x y z
#    x 1.571870 0.000000 -0.010590 
#    y 0.000000 1.569020 0.000000 
#    z -0.010590 0.000000 1.625070 
# 
# From -- ./inp_files/118186.got.cif
#   From: 2010.05.17/outbox.cif.g08.bks.cpg/sg15_60_cif.got.tgz:118186.got - 2010.06.03 18:47:42.
