data_PCOD9273803
_publ_section_title
;
Structure prediction by ZEFSAII (Michael W. Deem and Ramdas Pophale) SiO2 
 PCOD9273803
Probable space group: C 2/C
;
_chemical_formula_sum "Si O2"
_cell_formula_units_Z 40
_cell_length_a 17.998106
_cell_length_b 7.307522
_cell_length_c 19.801640
_cell_angle_alpha 90.000000
_cell_angle_beta 33.004001
_cell_angle_gamma 90.000000
_cell_volume 1418.579103
_symmetry_space_group_name_H-M "C 2/C"
_symmetry_group_IT_number 15
_symmetry_cell_setting 'monoclinic'
loop_
_space_group_symop_operation_xyz
x,y,z
-x,y,1/2-z
-x,-y,-z
x,-y,1/2+z
1/2+x,1/2+y,z
1/2-x,1/2+y,1/2-z
1/2-x,1/2-y,-z
1/2+x,1/2-y,1/2+z
loop_
_atom_site_type_symbol
_atom_site_label
_atom_site_fract_x
_atom_site_fract_y
_atom_site_fract_z
Si Si1 0.592131 0.941710 0.840714
Si Si2 0.844825 0.189399 0.026040
Si Si3 0.616071 0.667221 0.355623
Si Si4 0.840601 0.601850 0.853127
Si Si5 0.875928 0.995378 0.794687
O O1 0.717191 0.835152 0.780158
O O2 0.654450 0.037273 0.727502
O O3 0.552780 0.128431 0.909427
O O4 0.471456 0.813109 0.907289
O O5 0.897699 0.103196 0.056332
O O6 0.769753 0.042554 0.035056
O O7 0.727711 0.338530 0.132629
O O8 0.571502 0.567045 0.320434
O O9 0.802931 0.814514 0.881813
O O10 0.000000 0.589852 0.750000
O O11 0.000000 0.041032 0.750000
#
# Coordination Sequence:
#
# PCOD9273803 Si02
#       5
#     8   8   8   8   8
#     4  10  21  38  62  87 119 162 206 254 303 366
#     4  11  21  39  66  89 117 168 210 245 303 376
#     4  10  20  38  59  86 121 154 200 258 297 352
#     4   9  21  41  59  90 131 155 199 261 308 357
#     4  10  21  40  63  88 126 163 198 252 311 358
#
# _framework density 28.197227999999999
#
# number of rings (size 3 to 8) (size 9 to 14) (size 15 to 20)
#    0.000    2.000    2.000    1.200    0.000    0.800 
#    3.600   12.000    0.000    0.000    0.000    0.000 
#    0.000    0.000    0.000    0.000    0.000    0.000 
#
# Total GULP energy -111886.056481 kJ/mol
# GULP energy per Si atom -5594.302824 kJ/mol
# Density = 2.813305 g / cm^3
# Si number density = 28.197228 Si / 1000 Ang^3
#
#
#
# Elastic Constant Matrix: (Units=GPa)
#
#
# Indices 1 2 3 4 5 6 
#
# 1 141.4465 75.0767 32.5387 -0.0001 -19.9296 0.0000
# 2 75.0767 170.9071 44.1859 0.0000 -33.6194 0.0000
# 3 32.5387 44.1859 77.9390 0.0000 -17.9039 0.0001
# 4 -0.0001 0.0000 0.0000 44.6742 0.0001 -13.1083
# 5 -19.9296 -33.6194 -17.9039 0.0001 47.9817 0.0000
# 6 0.0000 0.0000 0.0001 -13.1083 0.0000 57.5435
#
#
#
# Elastic Compliance Matrix: (Units=1/GPa)
#
#
# Indices 1 2 3 4 5 6 
#
# 1 0.009470 -0.003550 -0.001760 0.000000 0.000790 0.000000
# 2 -0.003550 0.008832 -0.002671 0.000000 0.003717 0.000000
# 3 -0.001760 -0.002671 0.015840 0.000000 0.003308 0.000000
# 4 0.000000 0.000000 0.000000 0.023988 0.000000 0.005464
# 5 0.000790 0.003717 0.003308 0.000000 0.025008 0.000000
# 6 0.000000 0.000000 0.000000 0.005464 0.000000 0.018623
#
#
# Mechanical properties :
#
#
# Convention : Reuss Voigt Hill
#
# Bulk Modulus (GPa) = 55.00527 77.09945 66.05236
# Shear Modulus (GPa) = 40.39342 45.93931 43.16637
#
# Velocity S-wave (km/s) = 3.78899 4.04073 3.91688
# Velocity P-wave (km/s) = 6.22025 7.01230 6.62812
#
# Compressibility (1/GPa) = 0.01818008
#
# Stress axis : x y z
#
# Youngs Moduli (GPa) = 105.59660 113.21985 63.13301
#
# Poissons Ratio (x) = 0.40190 0.11110
# Poissons Ratio (y) = 0.37484 0.16865
# Poissons Ratio (z) = 0.18583 0.30246
#
# Static dielectric constant tensor:
#      x y z
#    x 2.160830 0.000000 0.138210 
#    y 0.000000 2.349380 0.000000 
#    z 0.138210 0.000000 2.454000 
# 
# From -- ./inp_files/109720.got.cif
#   From: 2010.05.17/outbox.cif.g08.bks.cpg/sg15_55_cif.got.tgz:109720.got - 2010.06.03 18:47:42.
