data_PCOD9273555
_publ_section_title
;
Structure prediction by ZEFSAII (Michael W. Deem and Ramdas Pophale) SiO2 
 PCOD9273555
Probable space group: C 2/C
;
_chemical_formula_sum "Si O2"
_cell_formula_units_Z 52
_cell_length_a 10.719645
_cell_length_b 25.437441
_cell_length_c 7.734178
_cell_angle_alpha 90.000000
_cell_angle_beta 104.177733
_cell_angle_gamma 90.000000
_cell_volume 2044.720685
_symmetry_space_group_name_H-M "C 2/C"
_symmetry_group_IT_number 15
_symmetry_cell_setting 'monoclinic'
loop_
_space_group_symop_operation_xyz
x,y,z
-x,y,1/2-z
-x,-y,-z
x,-y,1/2+z
1/2+x,1/2+y,z
1/2-x,1/2+y,1/2-z
1/2-x,1/2-y,-z
1/2+x,1/2-y,1/2+z
loop_
_atom_site_type_symbol
_atom_site_label
_atom_site_fract_x
_atom_site_fract_y
_atom_site_fract_z
Si Si1 0.415227 0.737067 0.993311
Si Si2 0.589235 0.139472 0.048514
Si Si3 0.500000 0.659649 0.250000
Si Si4 0.643047 0.515265 0.129025
Si Si5 0.335527 0.416854 0.512035
Si Si6 0.818943 0.395221 0.537229
Si Si7 0.826931 0.794761 0.121342
O O1 0.435065 0.799394 0.003976
O O2 0.538038 0.711818 0.934112
O O3 0.312439 0.720875 0.816436
O O4 0.395008 0.704190 0.162359
O O5 0.708104 0.117308 0.982305
O O6 0.640330 0.131401 0.263133
O O7 0.457043 0.106104 0.987915
O O8 0.536469 0.618767 0.417005
O O9 0.652861 0.545229 0.314459
O O10 0.741674 0.551291 0.051645
O O11 0.500000 0.500000 0.000000
O O12 0.686885 0.455012 0.155367
O O13 0.724253 0.352999 0.421286
O O14 0.750000 0.750000 0.000000
#
# Coordination Sequence:
#
# PCOD9273555 Si02
#       7
#     8   8   4   8   8   8   8
#     4  11  23  38  65  97 139 177 218 266 332 398
#     4  10  20  40  64  98 131 174 210 275 336 409
#     4  12  26  44  62  98 142 186 208 274 340 400
#     4  11  22  43  66  91 121 170 219 285 329 387
#     4  11  25  44  68  93 132 171 233 277 338 393
#     4  10  20  37  69  97 131 168 224 275 337 387
#     4  11  19  38  67 100 129 174 227 269 315 401
#
# _framework density 25.431346999999999
#
# number of rings (size 3 to 8) (size 9 to 14) (size 15 to 20)
#    0.000    1.231    4.615    2.769    0.000    2.462 
#    5.538    1.538    0.000    0.000    0.000    0.000 
#    0.000    0.000    0.000    0.000    0.000    0.000 
#
# Total GULP energy -144846.537066 kJ/mol
# GULP energy per Si atom -5571.020656 kJ/mol
# Density = 2.537346 g / cm^3
# Si number density = 25.431347 Si / 1000 Ang^3
#
#
#
# Elastic Constant Matrix: (Units=GPa)
#
#
# Indices 1 2 3 4 5 6 
#
# 1 110.4535 61.6585 13.0465 0.0000 4.0637 0.0000
# 2 61.6585 177.3246 45.4521 0.0000 8.8295 0.0000
# 3 13.0465 45.4521 80.9138 0.0000 1.5819 0.0000
# 4 0.0000 0.0000 0.0000 53.6822 0.0000 10.6836
# 5 4.0637 8.8295 1.5819 0.0000 16.9134 0.0000
# 6 0.0000 0.0000 0.0000 10.6836 0.0000 37.1755
#
#
#
# Elastic Compliance Matrix: (Units=1/GPa)
#
#
# Indices 1 2 3 4 5 6 
#
# 1 0.011255 -0.003994 0.000442 0.000000 -0.000661 0.000000
# 2 -0.003994 0.008171 -0.003889 0.000000 -0.002942 0.000000
# 3 0.000442 -0.003889 0.014461 0.000000 0.000571 0.000000
# 4 0.000000 0.000000 0.000000 0.019758 0.000000 -0.005678
# 5 -0.000661 -0.002942 0.000571 0.000000 0.060766 0.000000
# 6 0.000000 0.000000 0.000000 -0.005678 0.000000 0.028531
#
#
# Mechanical properties :
#
#
# Convention : Reuss Voigt Hill
#
# Bulk Modulus (GPa) = 52.61599 67.66735 60.14167
# Shear Modulus (GPa) = 30.45807 38.12320 34.29064
#
# Velocity S-wave (km/s) = 3.46448 3.87597 3.67599
# Velocity P-wave (km/s) = 6.06117 6.83349 6.45888
#
# Compressibility (1/GPa) = 0.01900563
#
# Stress axis : x y z
#
# Youngs Moduli (GPa) = 88.84736 122.37822 69.15228
#
# Poissons Ratio (x) = 0.48877 -0.03054
# Poissons Ratio (y) = 0.35485 0.26891
# Poissons Ratio (z) = -0.03924 0.47589
#
# Static dielectric constant tensor:
#      x y z
#    x 2.071150 0.000000 -0.102320 
#    y 0.000000 2.152540 0.000000 
#    z -0.102320 0.000000 2.210530 
# 
# From -- ./inp_files/33724.got.cif
#   From: 2010.05.17/outbox.cif.g08.bks.cpg/sg15_17_cif.got.tgz:33724.got - 2010.06.03 18:47:42.
