data_PCOD9273980
_publ_section_title
;
Structure prediction by ZEFSAII (Michael W. Deem and Ramdas Pophale) SiO2 
 PCOD9273980
Probable space group: C 2/C
;
_chemical_formula_sum "Si O2"
_cell_formula_units_Z 60
_cell_length_a 18.807878
_cell_length_b 15.422934
_cell_length_c 28.039353
_cell_angle_alpha 90.000000
_cell_angle_beta 161.279527
_cell_angle_gamma 90.000000
_cell_volume 2610.442312
_symmetry_space_group_name_H-M "C 2/C"
_symmetry_group_IT_number 15
_symmetry_cell_setting 'monoclinic'
loop_
_space_group_symop_operation_xyz
x,y,z
-x,y,1/2-z
-x,-y,-z
x,-y,1/2+z
1/2+x,1/2+y,z
1/2-x,1/2+y,1/2-z
1/2-x,1/2-y,-z
1/2+x,1/2-y,1/2+z
loop_
_atom_site_type_symbol
_atom_site_label
_atom_site_fract_x
_atom_site_fract_y
_atom_site_fract_z
Si Si1 0.153002 0.014108 0.300963
Si Si2 0.111736 0.201060 0.169140
Si Si3 0.607327 0.301251 0.766191
Si Si4 0.689003 0.574315 0.973235
Si Si5 0.719578 0.608512 0.732176
Si Si6 0.500000 0.999630 0.750000
Si Si7 0.652919 0.378426 0.083172
Si Si8 0.496438 0.072743 0.075405
O O1 0.336436 0.942865 0.428245
O O2 0.000000 0.010796 0.250000
O O3 0.977080 0.003775 0.146968
O O4 0.243929 0.110253 0.357150
O O5 0.973628 0.191226 0.131046
O O6 0.131511 0.304085 0.172221
O O7 0.347809 0.155920 0.329488
O O8 0.027638 0.142514 0.071756
O O9 0.500000 0.290721 0.750000
O O10 0.744375 0.216042 0.844936
O O11 0.487404 0.633418 0.864458
O O12 0.853595 0.555106 0.120525
O O13 0.839019 0.588331 0.021729
O O14 0.607991 0.592431 0.608784
O O15 0.863769 0.519187 0.831865
O O16 0.664563 0.058835 0.823553
#
# Coordination Sequence:
#
# PCOD9273980 Si02
#       8
#     8   8   8   8   8   4   8   8
#     4   9  20  39  65  94 126 170 224 272 335 396
#     4  11  26  41  66  99 133 180 225 279 343 400
#     4  10  20  38  60  93 128 168 213 276 339 397
#     4  11  25  41  69  97 129 186 227 273 336 399
#     4  11  25  45  67 100 137 176 230 278 335 410
#     4  12  22  40  66  98 136 178 224 276 336 418
#     4  11  23  40  63  98 139 175 218 281 341 408
#     4  11  23  45  69  96 136 177 225 287 335 396
#
# _framework density 22.984611000000001
#
# number of rings (size 3 to 8) (size 9 to 14) (size 15 to 20)
#    0.000    1.333    2.000    3.200    1.867    6.400 
#    0.000    0.000    4.400    0.000    0.000    0.000 
#    0.000    0.000    0.000    0.000    0.000    0.000 
#
# Total GULP energy -167075.205444 kJ/mol
# GULP energy per Si atom -5569.173515 kJ/mol
# Density = 2.293230 g / cm^3
# Si number density = 22.984611 Si / 1000 Ang^3
#
#
#
# Elastic Constant Matrix: (Units=GPa)
#
#
# Indices 1 2 3 4 5 6 
#
# 1 113.8153 -14.8005 19.2246 0.2599 16.4170 0.4082
# 2 -14.8005 38.2076 -12.5267 4.5801 2.0152 7.1848
# 3 19.2246 -12.5267 60.4543 7.4512 -19.3298 11.8384
# 4 0.2599 4.5801 7.4512 -238.0228 0.1338 -419.8726
# 5 16.4170 2.0152 -19.3298 0.1338 38.4492 0.1942
# 6 0.4082 7.1848 11.8384 -419.8726 0.1942 -636.3270
#
#
#
# Elastic Compliance Matrix: (Units=1/GPa)
#
#
# Indices 1 2 3 4 5 6 
#
# 1 0.011181 0.002986 -0.005363 -0.000033 -0.007627 -0.000039
# 2 0.002986 0.028856 0.004834 0.000164 -0.000359 0.000309
# 3 -0.005363 0.004834 0.023597 0.000234 0.013897 0.000340
# 4 -0.000033 0.000164 0.000234 0.025627 0.000120 -0.016904
# 5 -0.007627 -0.000359 0.013897 0.000120 0.036269 0.000182
# 6 -0.000039 0.000309 0.000340 -0.016904 0.000182 0.009592
#
#
# Mechanical properties :
#
#
# Convention : Reuss Voigt Hill
#
# Bulk Modulus (GPa) = 14.58872 21.80799 18.19835
# Shear Modulus (GPa) = 32.66765 -152.47479 -59.90357
#
# Velocity S-wave (km/s) = 3.77408 -8.15364 -5.11068
# Velocity P-wave (km/s) = 5.03513 8.89571 5.18561
#
# Compressibility (1/GPa) = 0.06854612
#
# Stress axis : x y z
#
# Youngs Moduli (GPa) = 89.43965 34.65543 42.37879
#
# Poissons Ratio (x) = -0.10349 0.22730
# Poissons Ratio (y) = -0.26709 -0.20485
# Poissons Ratio (z) = 0.47971 -0.16752
#
# Static dielectric constant tensor:
#      x y z
#    x 4.631020 0.002270 0.978560 
#    y 0.002270 1.829140 0.000860 
#    z 0.978560 0.000860 2.313250 
# 
# From -- ./inp_files/317964.got.cif
#   From: 2010.05.17/outbox.cif.g08.bks.cpg/sg15_159_cif.got.tgz:317964.got - 2010.06.03 18:47:42.
