data_PCOD9273873
_publ_section_title
;
Structure prediction by ZEFSAII (Michael W. Deem and Ramdas Pophale) SiO2 
 PCOD9273873
Probable space group: C 2/C
;
_chemical_formula_sum "Si O2"
_cell_formula_units_Z 52
_cell_length_a 15.959994
_cell_length_b 9.423709
_cell_length_c 23.920978
_cell_angle_alpha 90.000000
_cell_angle_beta 47.182327
_cell_angle_gamma 90.000000
_cell_volume 2639.037933
_symmetry_space_group_name_H-M "C 2/C"
_symmetry_group_IT_number 15
_symmetry_cell_setting 'monoclinic'
loop_
_space_group_symop_operation_xyz
x,y,z
-x,y,1/2-z
-x,-y,-z
x,-y,1/2+z
1/2+x,1/2+y,z
1/2-x,1/2+y,1/2-z
1/2-x,1/2-y,-z
1/2+x,1/2-y,1/2+z
loop_
_atom_site_type_symbol
_atom_site_label
_atom_site_fract_x
_atom_site_fract_y
_atom_site_fract_z
Si Si1 0.647514 0.986327 0.743476
Si Si2 0.314983 0.750792 0.199381
Si Si3 0.067585 0.213903 0.098293
Si Si4 0.277774 0.979021 0.505341
Si Si5 0.388554 0.125258 0.357869
Si Si6 0.000000 0.137135 0.250000
Si Si7 0.809561 0.086573 0.842679
O O1 0.729372 0.880988 0.740927
O O2 0.665154 0.964909 0.669158
O O3 0.516858 0.931782 0.810165
O O4 0.672329 0.144258 0.753478
O O5 0.443083 0.699859 0.128375
O O6 0.263880 0.845120 0.172770
O O7 0.133244 0.351983 0.046660
O O8 0.045384 0.220753 0.175503
O O9 0.151768 0.082488 0.049720
O O10 0.315441 0.101823 0.446374
O O11 0.271190 0.023929 0.572529
O O12 0.382360 0.287063 0.339355
O O13 0.104408 0.033006 0.218845
#
# Coordination Sequence:
#
# PCOD9273873 Si02
#       7
#     8   8   8   8   8   4   8
#     4  10  22  37  62  87 119 150 205 240 298 344
#     4  11  21  38  55  91 117 151 190 260 290 342
#     4  10  22  36  60  84 119 148 202 239 289 346
#     4  10  21  39  57  87 114 161 194 233 290 363
#     4  10  20  40  62  84 114 158 198 242 281 358
#     4  10  20  38  60  84 110 162 196 242 278 360
#     4  10  21  37  60  84 120 150 197 238 302 346
#
# _framework density 19.704149999999998
#
# number of rings (size 3 to 8) (size 9 to 14) (size 15 to 20)
#    0.000    1.846    1.538    3.231    2.154    1.846 
#    2.769    3.077    0.000    0.000    0.000    0.000 
#    0.000    0.000    0.000    0.000    0.000    0.000 
#
# Total GULP energy -145152.033786 kJ/mol
# GULP energy per Si atom -5582.770530 kJ/mol
# Density = 1.965930 g / cm^3
# Si number density = 19.704150 Si / 1000 Ang^3
#
#
#
# Elastic Constant Matrix: (Units=GPa)
#
#
# Indices 1 2 3 4 5 6 
#
# 1 63.4661 8.3933 1.3445 0.0000 -26.9629 0.0000
# 2 8.3933 48.1717 0.9545 0.0000 -10.6720 0.0001
# 3 1.3445 0.9545 80.1401 0.0000 -1.1999 0.0000
# 4 0.0000 0.0000 0.0000 35.6584 0.0000 -1.4327
# 5 -26.9629 -10.6720 -1.1999 0.0000 23.3260 0.0000
# 6 0.0000 0.0001 0.0000 -1.4327 0.0000 34.2786
#
#
#
# Elastic Compliance Matrix: (Units=1/GPa)
#
#
# Indices 1 2 3 4 5 6 
#
# 1 0.031308 0.002851 0.000002 0.000000 0.037495 0.000000
# 2 0.002851 0.023361 -0.000117 0.000000 0.013978 0.000000
# 3 0.000002 -0.000117 0.012488 0.000000 0.000591 0.000000
# 4 0.000000 0.000000 0.000000 0.028091 0.000000 0.001174
# 5 0.037495 0.013978 0.000591 0.000000 0.092637 0.000000
# 6 0.000000 0.000000 0.000000 0.001174 0.000000 0.029222
#
#
# Mechanical properties :
#
#
# Convention : Reuss Voigt Hill
#
# Bulk Modulus (GPa) = 13.76808 23.68472 18.72640
# Shear Modulus (GPa) = 21.20039 30.72497 25.96268
#
# Velocity S-wave (km/s) = 3.28370 3.95310 3.63385
# Velocity P-wave (km/s) = 4.62380 5.73431 5.20873
#
# Compressibility (1/GPa) = 0.07263176
#
# Stress axis : x y z
#
# Youngs Moduli (GPa) = 31.94026 42.80583 80.07462
#
# Poissons Ratio (x) = -0.12206 -0.00017
# Poissons Ratio (y) = -0.09108 0.00935
# Poissons Ratio (z) = -0.00007 0.00500
#
# Static dielectric constant tensor:
#      x y z
#    x 1.681700 0.000000 0.005140 
#    y 0.000000 1.730000 0.000000 
#    z 0.005140 0.000000 1.682330 
# 
# From -- ./inp_files/298355.got.cif
#   From: 2010.05.17/outbox.cif.g08.bks.cpg/sg15_150_cif.got.tgz:298355.got - 2010.06.03 18:47:42.
