data_PCOD9273120
_publ_section_title
;
Structure prediction by ZEFSAII (Michael W. Deem and Ramdas Pophale) SiO2 
 PCOD9273120
Probable space group: C 2/C
;
_chemical_formula_sum "Si O2"
_cell_formula_units_Z 48
_cell_length_a 5.182798
_cell_length_b 22.279907
_cell_length_c 17.206874
_cell_angle_alpha 90.000000
_cell_angle_beta 90.823377
_cell_angle_gamma 90.000000
_cell_volume 1986.711423
_symmetry_space_group_name_H-M "C 2/C"
_symmetry_group_IT_number 15
_symmetry_cell_setting 'monoclinic'
loop_
_space_group_symop_operation_xyz
x,y,z
-x,y,1/2-z
-x,-y,-z
x,-y,1/2+z
1/2+x,1/2+y,z
1/2-x,1/2+y,1/2-z
1/2-x,1/2-y,-z
1/2+x,1/2-y,1/2+z
loop_
_atom_site_type_symbol
_atom_site_label
_atom_site_fract_x
_atom_site_fract_y
_atom_site_fract_z
Si Si1 0.156369 0.257627 0.624744
Si Si2 0.210847 0.429148 0.460060
Si Si3 0.717975 0.148649 0.352967
Si Si4 0.500000 0.551310 0.250000
Si Si5 0.272727 0.511132 0.605814
Si Si6 0.997211 0.185830 0.498710
Si Si7 0.500000 0.252706 0.750000
O O1 0.931868 0.223725 0.575624
O O2 0.372870 0.269326 0.561639
O O3 0.278697 0.222437 0.697518
O O4 0.071617 0.325137 0.650296
O O5 0.189996 0.457550 0.546546
O O6 0.453565 0.462731 0.421478
O O7 0.290819 0.360867 0.470086
O O8 0.954004 0.441094 0.409747
O O9 0.856796 0.202965 0.308353
O O10 0.817775 0.090947 0.307035
O O11 0.798618 0.148315 0.444361
O O12 0.682064 0.513086 0.307777
#
# Coordination Sequence:
#
# PCOD9273120 Si02
#       7
#     8   8   8   4   8   8   4
#     4  10  21  37  61  93 135 165 222 266 337 411
#     4  10  22  43  64  94 131 176 217 272 341 400
#     4  10  20  37  62  94 130 163 214 283 342 393
#     4  11  22  42  66 106 128 170 228 298 351 396
#     4  10  23  42  64  94 132 170 226 280 333 401
#     4  10  21  38  63  97 122 178 220 269 333 424
#     4   9  20  38  48  90 130 164 210 264 325 394
#
# _framework density 24.160527999999999
#
# number of rings (size 3 to 8) (size 9 to 14) (size 15 to 20)
#    0.000    2.000    1.667    1.000    2.333    2.000 
#    9.000    1.667    0.000    0.000    0.000    0.000 
#    0.000    0.000    0.000    0.000    0.000    0.000 
#
# Total GULP energy -133986.849525 kJ/mol
# GULP energy per Si atom -5582.785397 kJ/mol
# Density = 2.410554 g / cm^3
# Si number density = 24.160528 Si / 1000 Ang^3
#
#
#
# Elastic Constant Matrix: (Units=GPa)
#
#
# Indices 1 2 3 4 5 6 
#
# 1 96.4080 9.8146 63.7722 0.0000 26.8016 0.0000
# 2 9.8146 65.5641 48.6223 0.0000 8.3171 0.0000
# 3 63.7722 48.6223 167.9115 0.0000 52.8256 0.0000
# 4 0.0000 0.0000 0.0000 29.7300 0.0000 1.3455
# 5 26.8016 8.3171 52.8256 0.0000 35.5923 0.0000
# 6 0.0000 0.0000 0.0000 1.3455 0.0000 33.3101
#
#
#
# Elastic Compliance Matrix: (Units=1/GPa)
#
#
# Indices 1 2 3 4 5 6 
#
# 1 0.014490 0.001829 -0.004625 0.000000 -0.004474 0.000000
# 2 0.001829 0.020674 -0.008869 0.000000 0.006956 0.000000
# 3 -0.004625 -0.008869 0.016007 0.000000 -0.018202 0.000000
# 4 0.000000 0.000000 0.000000 0.033698 0.000000 -0.001361
# 5 -0.004474 0.006956 -0.018202 0.000000 0.056854 0.000000
# 6 0.000000 0.000000 0.000000 -0.001361 0.000000 0.030076
#
#
# Mechanical properties :
#
#
# Convention : Reuss Voigt Hill
#
# Bulk Modulus (GPa) = 35.92206 63.81130 49.86668
# Shear Modulus (GPa) = 24.46086 33.57144 29.01615
#
# Velocity S-wave (km/s) = 3.18532 3.73166 3.46927
# Velocity P-wave (km/s) = 5.33186 6.71087 6.06072
#
# Compressibility (1/GPa) = 0.02783805
#
# Stress axis : x y z
#
# Youngs Moduli (GPa) = 69.01519 48.37090 62.47390
#
# Poissons Ratio (x) = -0.08845 0.28895
# Poissons Ratio (y) = -0.12620 0.55410
# Poissons Ratio (z) = 0.31921 0.42901
#
# Static dielectric constant tensor:
#      x y z
#    x 2.146250 0.000000 0.050930 
#    y 0.000000 1.942390 0.000000 
#    z 0.050930 0.000000 1.958910 
# 
# From -- ./inp_files/130092.got.cif
#   From: 2010.05.17/outbox.cif.g08.bks.cpg/sg15_66_cif.got.tgz:130092.got - 2010.06.03 18:47:42.
