data_PCOD9273478
_publ_section_title
;
Structure prediction by ZEFSAII (Michael W. Deem and Ramdas Pophale) SiO2 
 PCOD9273478
Probable space group: C 2/C
;
_chemical_formula_sum "Si O2"
_cell_formula_units_Z 48
_cell_length_a 10.988476
_cell_length_b 20.977758
_cell_length_c 12.308483
_cell_angle_alpha 90.000000
_cell_angle_beta 119.601568
_cell_angle_gamma 90.000000
_cell_volume 2466.955792
_symmetry_space_group_name_H-M "C 2/C"
_symmetry_group_IT_number 15
_symmetry_cell_setting 'monoclinic'
loop_
_space_group_symop_operation_xyz
x,y,z
-x,y,1/2-z
-x,-y,-z
x,-y,1/2+z
1/2+x,1/2+y,z
1/2-x,1/2+y,1/2-z
1/2-x,1/2-y,-z
1/2+x,1/2-y,1/2+z
loop_
_atom_site_type_symbol
_atom_site_label
_atom_site_fract_x
_atom_site_fract_y
_atom_site_fract_z
Si Si1 0.503003 0.160973 0.120378
Si Si2 0.288693 0.316133 0.079705
Si Si3 0.638201 0.043587 0.068254
Si Si4 0.861149 0.915912 0.495682
Si Si5 0.089336 0.998102 0.195847
Si Si6 0.412770 0.304761 0.371525
O O1 0.500000 0.165130 0.250000
O O2 0.602102 0.106866 0.119221
O O3 0.554536 0.229799 0.099826
O O4 0.347827 0.143567 0.008297
O O5 0.315891 0.309600 0.220680
O O6 0.436155 0.335148 0.092660
O O7 0.250000 0.250000 0.000000
O O8 0.759589 0.009736 0.188806
O O9 0.717892 0.063795 0.992324
O O10 0.500000 0.000000 0.000000
O O11 0.859689 0.843237 0.452622
O O12 0.994941 0.939059 0.626593
O O13 0.885672 0.957139 0.398997
O O14 0.000000 0.963631 0.250000
#
# Coordination Sequence:
#
# PCOD9273478 Si02
#       6
#     8   8   8   8   8   8
#     4  11  23  38  63  93 125 171 208 256 327 384
#     4   9  18  36  57  97 123 155 208 248 307 380
#     4  11  27  42  59  90 131 170 212 264 323 386
#     4  10  23  41  65  94 121 163 215 270 317 375
#     4   9  22  43  65  89 119 165 214 254 322 381
#     4  10  20  37  66  91 125 157 213 266 309 378
#
# _framework density 19.457177999999999
#
# number of rings (size 3 to 8) (size 9 to 14) (size 15 to 20)
#    0.000    2.000    3.333    0.000    9.333    2.000 
#    0.000    0.000    0.000    0.000    0.000    0.000 
#    0.000    0.000    0.000    0.000    0.000    0.000 
#
# Total GULP energy -133768.830976 kJ/mol
# GULP energy per Si atom -5573.701291 kJ/mol
# Density = 1.941289 g / cm^3
# Si number density = 19.457178 Si / 1000 Ang^3
#
#
#
# Elastic Constant Matrix: (Units=GPa)
#
#
# Indices 1 2 3 4 5 6 
#
# 1 116.3631 56.6684 59.3828 0.0000 5.0029 0.0000
# 2 56.6684 93.7924 35.1490 0.0000 -10.8883 0.0000
# 3 59.3828 35.1490 107.0416 0.0000 8.8693 0.0000
# 4 0.0000 0.0000 0.0000 20.1103 0.0000 -19.4023
# 5 5.0029 -10.8883 8.8693 0.0000 42.6602 0.0000
# 6 0.0000 0.0000 0.0000 -19.4023 0.0000 13.4467
#
#
#
# Elastic Compliance Matrix: (Units=1/GPa)
#
#
# Indices 1 2 3 4 5 6 
#
# 1 0.015240 -0.007295 -0.005858 0.000000 -0.002431 0.000000
# 2 -0.007295 0.016361 -0.001773 0.000000 0.005400 0.000000
# 3 -0.005858 -0.001773 0.013385 0.000000 -0.002548 0.000000
# 4 0.000000 0.000000 0.000000 -0.126816 0.000000 -0.182984
# 5 -0.002431 0.005400 -0.002548 0.000000 0.025634 0.000000
# 6 0.000000 0.000000 0.000000 -0.182984 0.000000 -0.189661
#
#
# Mechanical properties :
#
#
# Convention : Reuss Voigt Hill
#
# Bulk Modulus (GPa) = 66.07256 68.84417 67.45836
# Shear Modulus (GPa) = -23.70110 26.30989 1.30439
#
# Velocity S-wave (km/s) = -3.49394 3.68121 0.81966
# Velocity P-wave (km/s) = 4.21365 7.31626 5.97003
#
# Compressibility (1/GPa) = 0.01513488
#
# Stress axis : x y z
#
# Youngs Moduli (GPa) = 65.61487 61.12223 74.70963
#
# Poissons Ratio (x) = 0.44589 0.43764
# Poissons Ratio (y) = 0.47867 0.13244
# Poissons Ratio (z) = 0.38437 0.10835
#
# Static dielectric constant tensor:
#      x y z
#    x 1.756790 0.000000 0.039860 
#    y 0.000000 1.732640 0.000000 
#    z 0.039860 0.000000 1.711430 
# 
# From -- ./inp_files/89147.got.cif
#   From: 2010.05.17/outbox.cif.g08.bks.cpg/sg15_45_cif.got.tgz:89147.got - 2010.06.03 18:47:42.
