data_PCOD9273747
_publ_section_title
;
Structure prediction by ZEFSAII (Michael W. Deem and Ramdas Pophale) SiO2 
 PCOD9273747
Probable space group: C 2/C
;
_chemical_formula_sum "Si O2"
_cell_formula_units_Z 64
_cell_length_a 12.634478
_cell_length_b 26.628220
_cell_length_c 15.173240
_cell_angle_alpha 90.000000
_cell_angle_beta 141.861319
_cell_angle_gamma 90.000000
_cell_volume 3152.549035
_symmetry_space_group_name_H-M "C 2/C"
_symmetry_group_IT_number 15
_symmetry_cell_setting 'monoclinic'
loop_
_space_group_symop_operation_xyz
x,y,z
-x,y,1/2-z
-x,-y,-z
x,-y,1/2+z
1/2+x,1/2+y,z
1/2-x,1/2+y,1/2-z
1/2-x,1/2-y,-z
1/2+x,1/2-y,1/2+z
loop_
_atom_site_type_symbol
_atom_site_label
_atom_site_fract_x
_atom_site_fract_y
_atom_site_fract_z
Si Si1 0.597350 0.656740 0.727793
Si Si2 0.609050 0.204435 0.059113
Si Si3 0.538594 0.895955 0.038275
Si Si4 0.123865 0.430060 0.749342
Si Si5 0.552648 0.234529 0.373159
Si Si6 0.486264 0.710866 0.347102
Si Si7 0.651772 0.951485 0.283233
Si Si8 0.994058 0.114792 0.020540
O O1 0.500000 0.636805 0.750000
O O2 0.785713 0.634928 0.854405
O O3 0.568166 0.716313 0.709112
O O4 0.521345 0.639534 0.585549
O O5 0.477091 0.209476 0.053012
O O6 0.783717 0.216907 0.223483
O O7 0.599489 0.146570 0.022726
O O8 0.575778 0.243396 0.958111
O O9 0.580949 0.935885 0.141125
O O10 0.481344 0.920448 0.909404
O O11 0.164747 0.488499 0.794630
O O12 0.310531 0.405329 0.852373
O O13 0.000000 0.413536 0.750000
O O14 0.500000 0.204929 0.250000
O O15 0.750000 0.250000 0.500000
O O16 0.500000 0.710890 0.250000
O O17 0.533996 0.658282 0.424668
O O18 0.500000 0.935061 0.250000
O O19 0.836105 0.925069 0.422757
#
# Coordination Sequence:
#
# PCOD9273747 Si02
#       8
#     8   8   8   8   8   8   8   8
#     4  10  20  38  58  91 129 175 213 260 328 391
#     4  12  24  43  61  93 133 173 222 270 319 384
#     4  11  23  40  65  93 133 171 221 272 331 397
#     4  11  23  44  69 103 131 168 218 277 346 407
#     4  11  22  36  59  90 131 176 220 262 323 390
#     4  12  27  44  64  94 131 181 229 274 321 384
#     4  10  25  44  71  95 130 174 221 276 340 404
#     4  11  23  43  68  98 136 168 223 277 332 399
#
# _framework density 20.301033
#
# number of rings (size 3 to 8) (size 9 to 14) (size 15 to 20)
#    0.000    1.000    2.500    4.875    3.500    1.000 
#    0.000    0.000    0.000    6.000    0.000    0.000 
#    0.000    0.000    0.000    0.000    0.000    0.000 
#
# Total GULP energy -178545.591548 kJ/mol
# GULP energy per Si atom -5579.549736 kJ/mol
# Density = 2.025483 g / cm^3
# Si number density = 20.301033 Si / 1000 Ang^3
#
#
#
# Elastic Constant Matrix: (Units=GPa)
#
#
# Indices 1 2 3 4 5 6 
#
# 1 83.8217 7.4046 17.2182 0.0000 -23.4324 0.0000
# 2 7.4046 50.2369 -0.3258 0.0000 -13.4068 0.0000
# 3 17.2182 -0.3258 100.6735 0.0000 -19.4786 0.0000
# 4 0.0000 0.0000 0.0000 48.8377 0.0000 -31.2420
# 5 -23.4324 -13.4068 -19.4786 0.0000 34.4245 0.0000
# 6 0.0000 0.0000 0.0000 -31.2420 0.0000 8.0334
#
#
#
# Elastic Compliance Matrix: (Units=1/GPa)
#
#
# Indices 1 2 3 4 5 6 
#
# 1 0.014781 0.000458 -0.000612 0.000000 0.009893 0.000000
# 2 0.000458 0.022579 0.001972 0.000000 0.010221 0.000000
# 3 -0.000612 0.001972 0.011355 0.000000 0.006777 0.000000
# 4 0.000000 0.000000 0.000000 -0.013762 0.000000 -0.053522
# 5 0.009893 0.010221 0.006777 0.000000 0.043598 0.000000
# 6 0.000000 0.000000 0.000000 -0.053522 0.000000 -0.083666
#
#
# Mechanical properties :
#
#
# Convention : Reuss Voigt Hill
#
# Bulk Modulus (GPa) = 19.10216 31.48068 25.29142
# Shear Modulus (GPa) = 574.69140 32.28814 303.48977
#
# Velocity S-wave (km/s) = 16.84338 3.99239 12.24007
# Velocity P-wave (km/s) = 19.68999 6.06571 14.56861
#
# Compressibility (1/GPa) = 0.05235009
#
# Stress axis : x y z
#
# Youngs Moduli (GPa) = 67.65423 44.28953 88.06410
#
# Poissons Ratio (x) = -0.02026 0.05393
# Poissons Ratio (y) = -0.03095 -0.17370
# Poissons Ratio (z) = 0.04143 -0.08736
#
# Static dielectric constant tensor:
#      x y z
#    x 1.798940 0.000000 0.045570 
#    y 0.000000 1.734870 0.000000 
#    z 0.045570 0.000000 1.737760 
# 
# From -- ./inp_files/148774.got.cif
#   From: 2010.05.17/outbox.cif.g08.bks.cpg/sg15_75_cif.got.tgz:148774.got - 2010.06.03 18:47:42.
