data_PCOD9273358
_publ_section_title
;
Structure prediction by ZEFSAII (Michael W. Deem and Ramdas Pophale) SiO2 
 PCOD9273358
Probable space group: C 2/C
;
_chemical_formula_sum "Si O2"
_cell_formula_units_Z 56
_cell_length_a 8.428648
_cell_length_b 19.433380
_cell_length_c 18.141851
_cell_angle_alpha 90.000000
_cell_angle_beta 114.724183
_cell_angle_gamma 90.000000
_cell_volume 2699.183058
_symmetry_space_group_name_H-M "C 2/C"
_symmetry_group_IT_number 15
_symmetry_cell_setting 'monoclinic'
loop_
_space_group_symop_operation_xyz
x,y,z
-x,y,1/2-z
-x,-y,-z
x,-y,1/2+z
1/2+x,1/2+y,z
1/2-x,1/2+y,1/2-z
1/2-x,1/2-y,-z
1/2+x,1/2-y,1/2+z
loop_
_atom_site_type_symbol
_atom_site_label
_atom_site_fract_x
_atom_site_fract_y
_atom_site_fract_z
Si Si1 0.500000 0.871106 0.250000
Si Si2 0.920105 0.089194 0.653890
Si Si3 0.000000 0.319959 0.750000
Si Si4 0.800737 0.507334 0.984270
Si Si5 0.208735 0.107236 0.582393
Si Si6 0.000050 0.764148 0.989144
Si Si7 0.865062 0.348050 0.570283
Si Si8 0.801249 0.710958 0.826540
O O1 0.607743 0.904142 0.338346
O O2 0.646302 0.827241 0.237154
O O3 0.806784 0.023355 0.610302
O O4 0.800392 0.158047 0.638503
O O5 0.000000 0.081887 0.750000
O O6 0.062106 0.094993 0.616697
O O7 0.963741 0.358830 0.667005
O O8 0.832044 0.270381 0.721515
O O9 0.718844 0.446961 0.017364
O O10 0.803031 0.579086 0.028558
O O11 0.000000 0.500000 0.000000
O O12 0.151736 0.181774 0.537987
O O13 0.814232 0.804639 0.958177
O O14 0.976337 0.735945 0.901581
O O15 0.988314 0.698891 0.041818
#
# Coordination Sequence:
#
# PCOD9273358 Si02
#       8
#     4   8   4   8   8   8   8   8
#     4  12  24  39  62 104 133 180 224 290 340 412
#     4  12  22  44  72  96 130 181 235 282 337 425
#     4  10  20  37  64  96 121 174 220 282 334 404
#     4  12  27  46  64  99 141 185 228 285 351 426
#     4  12  25  42  71  98 137 183 238 282 352 420
#     4  10  20  39  69  97 125 176 227 282 340 404
#     4  10  20  39  66  94 130 170 224 274 341 410
#     4  11  20  39  66 100 137 166 227 286 348 411
#
# _framework density 20.747018000000001
#
# number of rings (size 3 to 8) (size 9 to 14) (size 15 to 20)
#    0.000    0.857    5.000    3.857    0.000    1.143 
#    2.571    0.000    0.000    0.000    0.000    0.000 
#    0.000    0.000    0.000    0.000    0.000    0.000 
#
# Total GULP energy -156235.969222 kJ/mol
# GULP energy per Si atom -5579.856044 kJ/mol
# Density = 2.069980 g / cm^3
# Si number density = 20.747018 Si / 1000 Ang^3
#
#
#
# Elastic Constant Matrix: (Units=GPa)
#
#
# Indices 1 2 3 4 5 6 
#
# 1 69.9132 15.7812 12.4212 0.0000 6.2565 0.0000
# 2 15.7812 66.6219 34.3581 0.0000 1.0143 0.0000
# 3 12.4212 34.3581 138.5459 0.0000 19.1829 0.0000
# 4 0.0000 0.0000 0.0000 29.4940 0.0000 3.7174
# 5 6.2565 1.0143 19.1829 0.0000 32.7143 0.0000
# 6 0.0000 0.0000 0.0000 3.7174 0.0000 14.4864
#
#
#
# Elastic Compliance Matrix: (Units=1/GPa)
#
#
# Indices 1 2 3 4 5 6 
#
# 1 0.015370 -0.003538 -0.000118 0.000000 -0.002760 0.000000
# 2 -0.003538 0.018165 -0.004575 0.000000 0.002796 0.000000
# 3 -0.000118 -0.004575 0.009077 0.000000 -0.005158 0.000000
# 4 0.000000 0.000000 0.000000 0.035038 0.000000 -0.008991
# 5 -0.002760 0.002796 -0.005158 0.000000 0.034033 0.000000
# 6 0.000000 0.000000 0.000000 -0.008991 0.000000 0.071337
#
#
# Mechanical properties :
#
#
# Convention : Reuss Voigt Hill
#
# Bulk Modulus (GPa) = 38.24047 44.46689 41.35368
# Shear Modulus (GPa) = 24.01542 29.50698 26.76120
#
# Velocity S-wave (km/s) = 3.40595 3.77533 3.59539
# Velocity P-wave (km/s) = 5.82573 6.36268 6.10011
#
# Compressibility (1/GPa) = 0.02615031
#
# Stress axis : x y z
#
# Youngs Moduli (GPa) = 65.06149 55.05176 110.16736
#
# Poissons Ratio (x) = 0.19476 0.01305
# Poissons Ratio (y) = 0.23017 0.50397
# Poissons Ratio (z) = 0.00771 0.25184
#
# Static dielectric constant tensor:
#      x y z
#    x 1.808180 0.000000 0.027630 
#    y 0.000000 1.801000 0.000000 
#    z 0.027630 0.000000 1.781820 
# 
# From -- ./inp_files/192288.got.cif
#   From: 2010.05.17/outbox.cif.g08.bks.cpg/sg15_97_cif.got.tgz:192288.got - 2010.06.03 18:47:42.
