data_PCOD9273489
_publ_section_title
;
Structure prediction by ZEFSAII (Michael W. Deem and Ramdas Pophale) SiO2 
 PCOD9273489
Probable space group: C 2/C
;
_chemical_formula_sum "Si O2"
_cell_formula_units_Z 60
_cell_length_a 18.068341
_cell_length_b 12.203306
_cell_length_c 21.640464
_cell_angle_alpha 90.000000
_cell_angle_beta 41.719771
_cell_angle_gamma 90.000000
_cell_volume 3175.430038
_symmetry_space_group_name_H-M "C 2/C"
_symmetry_group_IT_number 15
_symmetry_cell_setting 'monoclinic'
loop_
_space_group_symop_operation_xyz
x,y,z
-x,y,1/2-z
-x,-y,-z
x,-y,1/2+z
1/2+x,1/2+y,z
1/2-x,1/2+y,1/2-z
1/2-x,1/2-y,-z
1/2+x,1/2-y,1/2+z
loop_
_atom_site_type_symbol
_atom_site_label
_atom_site_fract_x
_atom_site_fract_y
_atom_site_fract_z
Si Si1 0.615662 0.936282 0.441734
Si Si2 0.870473 0.701338 0.443331
Si Si3 0.163410 0.568025 0.716595
Si Si4 0.703962 0.537805 0.251612
Si Si5 0.502312 0.409162 0.084832
Si Si6 0.000000 0.406920 0.750000
Si Si7 0.575807 0.761770 0.360925
Si Si8 0.614916 0.623049 0.974646
O O1 0.631127 0.892334 0.501920
O O2 0.615145 0.828925 0.397136
O O3 0.500000 0.000000 0.500000
O O4 0.713448 0.016781 0.356781
O O5 0.750000 0.750000 0.500000
O O6 0.936968 0.660387 0.342094
O O7 0.941506 0.801244 0.426078
O O8 0.229834 0.502315 0.728731
O O9 0.093306 0.483004 0.722041
O O10 0.084457 0.653309 0.800078
O O11 0.255648 0.632353 0.619446
O O12 0.597780 0.457711 0.312003
O O13 0.655835 0.658482 0.295622
O O14 0.448584 0.384504 0.051565
O O15 0.591085 0.506353 0.021323
O O16 0.451977 0.716161 0.447887
#
# Coordination Sequence:
#
# PCOD9273489 Si02
#       8
#     8   8   8   8   8   4   8   8
#     4  11  24  39  62 101 135 157 227 274 322 388
#     4  12  26  40  66  94 135 180 204 266 340 404
#     4  10  22  38  62  91 121 167 205 263 328 385
#     4   9  21  37  68  93 120 160 217 275 310 386
#     4   9  18  36  60  94 121 159 208 253 315 382
#     4  12  28  44  58  86 140 170 214 256 336 406
#     4  10  20  37  66  95 121 159 212 274 323 363
#     4   9  17  35  64  91 121 150 215 267 303 378
#
# _framework density 18.895078999999999
#
# number of rings (size 3 to 8) (size 9 to 14) (size 15 to 20)
#    0.000    1.867    1.333    3.200    5.600    3.200 
#    0.000    0.667    5.867    0.000    0.000    0.000 
#    0.000    0.000    0.000    0.000    0.000    0.000 
#
# Total GULP energy -167446.159839 kJ/mol
# GULP energy per Si atom -5581.538661 kJ/mol
# Density = 1.885207 g / cm^3
# Si number density = 18.895079 Si / 1000 Ang^3
#
#
#
# Elastic Constant Matrix: (Units=GPa)
#
#
# Indices 1 2 3 4 5 6 
#
# 1 59.1923 32.7542 42.0049 0.0000 2.7325 0.0000
# 2 32.7542 81.2289 43.0826 0.0000 9.9630 0.0000
# 3 42.0049 43.0826 142.2221 0.0000 12.3364 0.0000
# 4 0.0000 0.0000 0.0000 23.5886 0.0000 0.3448
# 5 2.7325 9.9630 12.3364 0.0000 15.2750 0.0000
# 6 0.0000 0.0000 0.0000 0.3448 0.0000 29.9575
#
#
#
# Elastic Compliance Matrix: (Units=1/GPa)
#
#
# Indices 1 2 3 4 5 6 
#
# 1 0.024782 -0.007736 -0.005408 0.000000 0.004980 0.000000
# 2 -0.007736 0.017694 -0.002359 0.000000 -0.008251 0.000000
# 3 -0.005408 -0.002359 0.009813 0.000000 -0.005419 0.000000
# 4 0.000000 0.000000 0.000000 0.042401 0.000000 -0.000488
# 5 0.004980 -0.008251 -0.005419 0.000000 0.074334 0.000000
# 6 0.000000 0.000000 0.000000 -0.000488 0.000000 0.033386
#
#
# Mechanical properties :
#
#
# Convention : Reuss Voigt Hill
#
# Bulk Modulus (GPa) = 46.98547 57.59186 52.28867
# Shear Modulus (GPa) = 20.78910 24.75099 22.77005
#
# Velocity S-wave (km/s) = 3.32058 3.62320 3.47519
# Velocity P-wave (km/s) = 6.29462 6.93177 6.62086
#
# Compressibility (1/GPa) = 0.02128317
#
# Stress axis : x y z
#
# Youngs Moduli (GPa) = 40.35115 56.51770 101.90241
#
# Poissons Ratio (x) = 0.43719 0.55110
# Poissons Ratio (y) = 0.31214 0.24043
# Poissons Ratio (z) = 0.21822 0.13335
#
# Static dielectric constant tensor:
#      x y z
#    x 1.632620 0.000000 0.002780 
#    y 0.000000 1.651870 0.000000 
#    z 0.002780 0.000000 1.692470 
# 
# From -- ./inp_files/248764.got.cif
#   From: 2010.05.17/outbox.cif.g08.bks.cpg/sg15_125_cif.got.tgz:248764.got - 2010.06.03 18:47:42.
