data_PCOD9273700
_publ_section_title
;
Structure prediction by ZEFSAII (Michael W. Deem and Ramdas Pophale) SiO2 
 PCOD9273700
Probable space group: C 2/C
;
_chemical_formula_sum "Si O2"
_cell_formula_units_Z 64
_cell_length_a 24.873981
_cell_length_b 8.539475
_cell_length_c 31.392011
_cell_angle_alpha 90.000000
_cell_angle_beta 150.812484
_cell_angle_gamma 90.000000
_cell_volume 3251.780011
_symmetry_space_group_name_H-M "C 2/C"
_symmetry_group_IT_number 15
_symmetry_cell_setting 'monoclinic'
loop_
_space_group_symop_operation_xyz
x,y,z
-x,y,1/2-z
-x,-y,-z
x,-y,1/2+z
1/2+x,1/2+y,z
1/2-x,1/2+y,1/2-z
1/2-x,1/2-y,-z
1/2+x,1/2-y,1/2+z
loop_
_atom_site_type_symbol
_atom_site_label
_atom_site_fract_x
_atom_site_fract_y
_atom_site_fract_z
Si Si1 0.995098 0.082459 0.175329
Si Si2 0.094491 0.264157 0.463221
Si Si3 0.176649 0.042249 0.370728
Si Si4 0.707841 0.250532 0.188295
Si Si5 0.386610 0.462587 0.447835
Si Si6 0.166400 0.967913 0.238285
Si Si7 0.509983 0.965626 0.556988
Si Si8 0.292478 0.793329 0.399418
O O1 0.946534 0.220017 0.112171
O O2 0.895846 0.029716 0.137050
O O3 0.097329 0.114087 0.278695
O O4 0.048672 0.954352 0.180229
O O5 0.214584 0.350002 0.547812
O O6 0.093656 0.108152 0.491818
O O7 0.013697 0.383760 0.431468
O O8 0.212514 0.868551 0.379582
O O9 0.671250 0.324121 0.118535
O O10 0.688628 0.381996 0.209818
O O11 0.625106 0.113505 0.145140
O O12 0.819184 0.153979 0.259288
O O13 0.500000 0.500000 0.500000
O O14 0.306534 0.613011 0.396178
O O15 0.255220 0.894351 0.332462
O O16 0.413963 0.840903 0.498695
O O17 0.500000 0.000000 0.500000
#
# Coordination Sequence:
#
# PCOD9273700 Si02
#       8
#     8   8   8   8   8   8   8   8
#     4  10  21  40  66  88 119 161 218 258 315 371
#     4  11  22  37  65  92 122 163 212 253 316 375
#     4   9  21  43  66  85 119 165 210 268 319 361
#     4  12  23  37  57  86 130 160 197 250 312 380
#     4  12  21  34  59  90 126 159 199 250 312 382
#     4  11  24  37  58  88 120 164 203 248 311 374
#     4  11  19  37  57  83 123 164 197 243 308 375
#     4  10  20  38  58  84 116 161 202 253 311 368
#
# _framework density 19.681529000000001
#
# number of rings (size 3 to 8) (size 9 to 14) (size 15 to 20)
#    0.000    1.250    3.750    3.375    1.750    0.000 
#    2.250    0.625    2.750    4.500    0.000    0.000 
#    0.000    0.000    0.000    0.000    0.000    0.000 
#
# Total GULP energy -178449.494764 kJ/mol
# GULP energy per Si atom -5576.546711 kJ/mol
# Density = 1.963673 g / cm^3
# Si number density = 19.681529 Si / 1000 Ang^3
#
#
#
# Elastic Constant Matrix: (Units=GPa)
#
#
# Indices 1 2 3 4 5 6 
#
# 1 114.6992 37.9684 39.1820 0.0000 5.1204 0.0001
# 2 37.9684 78.4485 29.6830 0.0000 8.4360 0.0006
# 3 39.1820 29.6830 66.4543 0.0003 8.5902 0.0002
# 4 0.0000 0.0000 0.0003 31.6697 0.0000 -4.4343
# 5 5.1204 8.4360 8.5902 0.0000 27.1114 -0.0001
# 6 0.0001 0.0006 0.0002 -4.4343 -0.0001 27.7513
#
#
#
# Elastic Compliance Matrix: (Units=1/GPa)
#
#
# Indices 1 2 3 4 5 6 
#
# 1 0.011751 -0.003734 -0.005343 0.000000 0.000635 0.000000
# 2 -0.003734 0.016720 -0.004885 0.000000 -0.002949 0.000000
# 3 -0.005343 -0.004885 0.020910 0.000000 -0.004096 0.000000
# 4 0.000000 0.000000 0.000000 0.032299 0.000000 0.005161
# 5 0.000635 -0.002949 -0.004096 0.000000 0.038980 0.000000
# 6 0.000000 0.000000 0.000000 0.005161 0.000000 0.036859
#
#
# Mechanical properties :
#
#
# Convention : Reuss Voigt Hill
#
# Bulk Modulus (GPa) = 46.60627 52.58542 49.59584
# Shear Modulus (GPa) = 25.96102 27.49106 26.72604
#
# Velocity S-wave (km/s) = 3.63582 3.74143 3.68900
# Velocity P-wave (km/s) = 6.43096 6.74096 6.58778
#
# Compressibility (1/GPa) = 0.02145634
#
# Stress axis : x y z
#
# Youngs Moduli (GPa) = 85.09631 59.80765 47.82466
#
# Poissons Ratio (x) = 0.22334 0.25552
# Poissons Ratio (y) = 0.31778 0.23364
# Poissons Ratio (z) = 0.45466 0.29218
#
# Static dielectric constant tensor:
#      x y z
#    x 1.728290 0.000000 0.014010 
#    y 0.000000 1.697240 0.000000 
#    z 0.014010 0.000000 1.747370 
# 
# From -- ./inp_files/318646.got.cif
#   From: 2010.05.17/outbox.cif.g08.bks.cpg/sg15_160_cif.got.tgz:318646.got - 2010.06.03 18:47:42.
