data_PCOD9273650
_publ_section_title
;
Structure prediction by ZEFSAII (Michael W. Deem and Ramdas Pophale) SiO2 
 PCOD9273650
Probable space group: C 2/C
;
_chemical_formula_sum "Si O2"
_cell_formula_units_Z 40
_cell_length_a 7.059896
_cell_length_b 10.081847
_cell_length_c 24.391394
_cell_angle_alpha 90.000000
_cell_angle_beta 96.941978
_cell_angle_gamma 90.000000
_cell_volume 1723.373901
_symmetry_space_group_name_H-M "C 2/C"
_symmetry_group_IT_number 15
_symmetry_cell_setting 'monoclinic'
loop_
_space_group_symop_operation_xyz
x,y,z
-x,y,1/2-z
-x,-y,-z
x,-y,1/2+z
1/2+x,1/2+y,z
1/2-x,1/2+y,1/2-z
1/2-x,1/2-y,-z
1/2+x,1/2-y,1/2+z
loop_
_atom_site_type_symbol
_atom_site_label
_atom_site_fract_x
_atom_site_fract_y
_atom_site_fract_z
Si Si1 0.747563 0.247040 0.700060
Si Si2 0.243309 0.481944 0.122542
Si Si3 0.207061 0.588115 0.501927
Si Si4 0.294488 0.990101 0.617970
Si Si5 0.206984 0.256047 0.321064
O O1 0.818176 0.113358 0.673285
O O2 0.786440 0.366582 0.659383
O O3 0.518916 0.228845 0.695469
O O4 0.803525 0.269151 0.765353
O O5 0.302979 0.447339 0.063166
O O6 0.280916 0.632232 0.138659
O O7 0.014427 0.471310 0.116346
O O8 0.250000 0.750000 0.500000
O O9 0.281675 0.541237 0.445225
O O10 0.000000 0.500000 0.500000
O O11 0.209667 0.115741 0.646160
#
# Coordination Sequence:
#
# PCOD9273650 Si02
#       5
#     8   8   8   8   8
#     4  10  20  38  57  81 122 157 196 258 312 380
#     4  10  21  38  61  85 118 159 207 252 317 382
#     4  10  20  39  66  91 123 169 217 266 331 398
#     4  10  21  38  61  84 120 158 204 257 315 379
#     4  10  22  36  56  88 116 156 204 253 315 380
#
# _framework density 23.210284999999999
#
# number of rings (size 3 to 8) (size 9 to 14) (size 15 to 20)
#    0.000    2.000    2.000    1.200    0.000    4.800 
#    0.000    1.000    0.000    0.000    0.000    0.000 
#    0.000    0.000    0.000    0.000    0.000    0.000 
#
# Total GULP energy -111426.174088 kJ/mol
# GULP energy per Si atom -5571.308704 kJ/mol
# Density = 2.315746 g / cm^3
# Si number density = 23.210285 Si / 1000 Ang^3
#
#
#
# Elastic Constant Matrix: (Units=GPa)
#
#
# Indices 1 2 3 4 5 6 
#
# 1 90.4688 6.4821 17.1254 0.0000 -20.9809 0.0000
# 2 6.4821 121.6947 52.9762 0.0000 -21.3590 0.0000
# 3 17.1254 52.9762 190.6520 0.0000 -36.7060 0.0000
# 4 0.0000 0.0000 0.0000 9.5367 0.0000 28.2311
# 5 -20.9809 -21.3590 -36.7060 0.0000 22.0821 0.0000
# 6 0.0000 0.0000 0.0000 28.2311 0.0000 13.1915
#
#
#
# Elastic Compliance Matrix: (Units=1/GPa)
#
#
# Indices 1 2 3 4 5 6 
#
# 1 0.014974 0.001733 0.001817 0.000000 0.018923 0.000000
# 2 0.001733 0.010334 -0.001156 0.000000 0.009721 0.000000
# 3 0.001817 -0.001156 0.008118 0.000000 0.014103 0.000000
# 4 0.000000 0.000000 0.000000 -0.019654 0.000000 0.042061
# 5 0.018923 0.009721 0.014103 0.000000 0.096111 0.000000
# 6 0.000000 0.000000 0.000000 0.042061 0.000000 -0.014209
#
#
# Mechanical properties :
#
#
# Convention : Reuss Voigt Hill
#
# Bulk Modulus (GPa) = 26.16801 61.77588 43.97194
# Shear Modulus (GPa) = 48.25069 30.71084 39.48077
#
# Velocity S-wave (km/s) = 4.56439 3.64147 4.12880
# Velocity P-wave (km/s) = 6.25116 6.65987 6.45875
#
# Compressibility (1/GPa) = 0.03821460
#
# Stress axis : x y z
#
# Youngs Moduli (GPa) = 66.78229 96.76539 123.17824
#
# Poissons Ratio (x) = -0.16768 -0.22378
# Poissons Ratio (y) = -0.11572 0.14234
# Poissons Ratio (z) = -0.12133 0.11182
#
# Static dielectric constant tensor:
#      x y z
#    x 2.005150 0.000000 0.021230 
#    y 0.000000 1.927930 0.000000 
#    z 0.021230 0.000000 1.846990 
# 
# From -- ./inp_files/235822.got.cif
#   From: 2010.05.17/outbox.cif.g08.bks.cpg/sg15_118_cif.got.tgz:235822.got - 2010.06.03 18:47:42.
