data_PCOD9273729
_publ_section_title
;
Structure prediction by ZEFSAII (Michael W. Deem and Ramdas Pophale) SiO2 
 PCOD9273729
Probable space group: C 2/C
;
_chemical_formula_sum "Si O2"
_cell_formula_units_Z 64
_cell_length_a 26.070699
_cell_length_b 12.377250
_cell_length_c 18.484588
_cell_angle_alpha 90.000000
_cell_angle_beta 149.963380
_cell_angle_gamma 90.000000
_cell_volume 2985.637226
_symmetry_space_group_name_H-M "C 2/C"
_symmetry_group_IT_number 15
_symmetry_cell_setting 'monoclinic'
loop_
_space_group_symop_operation_xyz
x,y,z
-x,y,1/2-z
-x,-y,-z
x,-y,1/2+z
1/2+x,1/2+y,z
1/2-x,1/2+y,1/2-z
1/2-x,1/2-y,-z
1/2+x,1/2-y,1/2+z
loop_
_atom_site_type_symbol
_atom_site_label
_atom_site_fract_x
_atom_site_fract_y
_atom_site_fract_z
Si Si1 0.165182 0.443659 0.736622
Si Si2 0.037988 0.469891 0.443687
Si Si3 0.477852 0.375412 0.486786
Si Si4 0.582606 0.817487 0.289176
Si Si5 0.791084 0.148836 0.851908
Si Si6 0.216893 0.205502 0.820352
Si Si7 0.683409 0.986204 0.995682
Si Si8 0.182678 0.825907 0.801888
O O1 0.129077 0.442182 0.609295
O O2 0.237140 0.548793 0.826164
O O3 0.220620 0.334766 0.829009
O O4 0.054407 0.457375 0.639382
O O5 0.086518 0.516869 0.430616
O O6 0.983590 0.358140 0.359064
O O7 0.500000 0.500000 0.500000
O O8 0.409097 0.369614 0.475883
O O9 0.403930 0.324596 0.335744
O O10 0.586387 0.319507 0.630798
O O11 0.500000 0.790111 0.250000
O O12 0.649310 0.720442 0.339135
O O13 0.646249 0.926425 0.389929
O O14 0.744198 0.169399 0.713343
O O15 0.771854 0.251726 0.878462
O O16 0.273325 0.135926 0.951278
O O17 0.777380 0.052750 0.145453
#
# Coordination Sequence:
#
# PCOD9273729 Si02
#       8
#     8   8   8   8   8   8   8   8
#     4  11  20  37  61  90 117 153 196 255 310 359
#     4  10  20  38  58  89 118 146 211 251 296 355
#     4  10  22  36  55  89 127 155 182 244 317 356
#     4  10  23  37  60  85 118 163 205 253 289 348
#     4  10  23  34  61  87 122 156 194 249 306 365
#     4  10  22  35  55  89 122 158 191 244 308 369
#     4  11  22  39  56  86 122 160 197 240 304 361
#     4  12  21  39  62  88 125 157 200 248 302 370
#
# _framework density 21.435960000000001
#
# number of rings (size 3 to 8) (size 9 to 14) (size 15 to 20)
#    0.750    0.750    3.750    1.875    7.000    0.000 
#    0.000    0.625    0.000    0.000    0.000    0.875 
#    0.000    0.000    0.000    0.000    0.000    0.000 
#
# Total GULP energy -178361.915092 kJ/mol
# GULP energy per Si atom -5573.809847 kJ/mol
# Density = 2.138717 g / cm^3
# Si number density = 21.435960 Si / 1000 Ang^3
#
#
#
# Elastic Constant Matrix: (Units=GPa)
#
#
# Indices 1 2 3 4 5 6 
#
# 1 55.8310 20.0345 2.5684 0.0000 11.1678 0.0000
# 2 20.0345 108.1902 1.9896 0.0000 9.9520 0.0000
# 3 2.5684 1.9896 48.4645 0.0000 13.9224 0.0000
# 4 0.0000 0.0000 0.0000 29.4410 0.0000 1.2029
# 5 11.1678 9.9520 13.9224 0.0000 19.2450 0.0000
# 6 0.0000 0.0000 0.0000 1.2029 0.0000 19.6881
#
#
#
# Elastic Compliance Matrix: (Units=1/GPa)
#
#
# Indices 1 2 3 4 5 6 
#
# 1 0.021379 -0.002823 0.002686 0.000000 -0.012889 0.000000
# 2 -0.002823 0.010144 0.000971 0.000000 -0.004311 0.000000
# 3 0.002686 0.000971 0.026564 0.000000 -0.021278 0.000000
# 4 0.000000 0.000000 0.000000 0.034051 0.000000 -0.002080
# 5 -0.012889 -0.004311 -0.021278 0.000000 0.077064 0.000000
# 6 0.000000 0.000000 0.000000 -0.002080 0.000000 0.050919
#
#
# Mechanical properties :
#
#
# Convention : Reuss Voigt Hill
#
# Bulk Modulus (GPa) = 16.73473 29.07452 22.90462
# Shear Modulus (GPa) = 20.97571 26.20103 23.58837
#
# Velocity S-wave (km/s) = 3.13154 3.49992 3.32084
# Velocity P-wave (km/s) = 4.57156 5.47042 5.04107
#
# Compressibility (1/GPa) = 0.05975597
#
# Stress axis : x y z
#
# Youngs Moduli (GPa) = 46.77536 98.57720 37.64490
#
# Poissons Ratio (x) = 0.27825 -0.10110
# Poissons Ratio (y) = 0.13203 -0.03657
# Poissons Ratio (z) = -0.12562 -0.09577
#
# Static dielectric constant tensor:
#      x y z
#    x 1.814510 0.000000 -0.027230 
#    y 0.000000 1.775630 0.000000 
#    z -0.027230 0.000000 1.856300 
# 
# From -- ./inp_files/257542.got.cif
#   From: 2010.05.17/outbox.cif.g08.bks.cpg/sg15_129_cif.got.tgz:257542.got - 2010.06.03 18:47:42.
