data_PCOD9273545
_publ_section_title
;
Structure prediction by ZEFSAII (Michael W. Deem and Ramdas Pophale) SiO2 
 PCOD9273545
Probable space group: C 2/C
;
_chemical_formula_sum "Si O2"
_cell_formula_units_Z 32
_cell_length_a 15.079858
_cell_length_b 15.189107
_cell_length_c 7.177762
_cell_angle_alpha 90.000000
_cell_angle_beta 50.649303
_cell_angle_gamma 90.000000
_cell_volume 1271.320439
_symmetry_space_group_name_H-M "C 2/C"
_symmetry_group_IT_number 15
_symmetry_cell_setting 'monoclinic'
loop_
_space_group_symop_operation_xyz
x,y,z
-x,y,1/2-z
-x,-y,-z
x,-y,1/2+z
1/2+x,1/2+y,z
1/2-x,1/2+y,1/2-z
1/2-x,1/2-y,-z
1/2+x,1/2-y,1/2+z
loop_
_atom_site_type_symbol
_atom_site_label
_atom_site_fract_x
_atom_site_fract_y
_atom_site_fract_z
Si Si1 0.928364 0.416732 0.173490
Si Si2 0.608871 0.625646 0.501069
Si Si3 0.833830 0.069778 0.463734
Si Si4 0.271066 0.218739 0.755375
O O1 0.800937 0.444132 0.415004
O O2 0.890358 0.336931 0.089720
O O3 0.000000 0.380216 0.250000
O O4 0.000000 0.500000 0.000000
O O5 0.626919 0.526330 0.540725
O O6 0.715539 0.692680 0.377255
O O7 0.500000 0.662539 0.750000
O O8 0.594715 0.611874 0.297955
O O9 0.822190 0.141626 0.644427
O O10 0.250000 0.250000 0.000000
#
# Coordination Sequence:
#
# PCOD9273545 Si02
#       4
#     8   8   8   8
#     4  10  20  37  68  89 121 160 204 250 316 354
#     4  11  20  40  64  89 126 166 207 249 310 378
#     4   9  21  39  64  88 129 157 200 263 307 358
#     4   8  20  38  59  86 129 155 199 257 303 363
#
# _framework density 25.170679
#
# number of rings (size 3 to 8) (size 9 to 14) (size 15 to 20)
#    1.500    1.000    0.000    2.250    0.000    1.000 
#    0.000   11.250    0.000    0.000    0.000    0.000 
#    0.000    0.000    0.000    0.000    0.000    0.000 
#
# Total GULP energy -89185.194233 kJ/mol
# GULP energy per Si atom -5574.074640 kJ/mol
# Density = 2.511339 g / cm^3
# Si number density = 25.170679 Si / 1000 Ang^3
#
#
#
# Elastic Constant Matrix: (Units=GPa)
#
#
# Indices 1 2 3 4 5 6 
#
# 1 46.3930 5.3168 15.6341 0.0000 -14.2070 0.0000
# 2 5.3168 161.4408 59.9412 0.0000 -7.6916 0.0000
# 3 15.6341 59.9412 137.7564 0.0000 -16.6785 0.0000
# 4 0.0000 0.0000 0.0000 40.5092 0.0000 -3.0162
# 5 -14.2070 -7.6916 -16.6785 0.0000 26.5730 0.0000
# 6 0.0000 0.0000 0.0000 -3.0162 0.0000 37.1617
#
#
#
# Elastic Compliance Matrix: (Units=1/GPa)
#
#
# Indices 1 2 3 4 5 6 
#
# 1 0.026027 0.000328 -0.001515 0.000000 0.013059 0.000000
# 2 0.000328 0.007392 -0.003218 0.000000 0.000295 0.000000
# 3 -0.001515 -0.003218 0.009330 0.000000 0.004114 0.000000
# 4 0.000000 0.000000 0.000000 0.024836 0.000000 0.002016
# 5 0.013059 0.000295 0.004114 0.000000 0.047281 0.000000
# 6 0.000000 0.000000 0.000000 0.002016 0.000000 0.027073
#
#
# Mechanical properties :
#
#
# Convention : Reuss Voigt Hill
#
# Bulk Modulus (GPa) = 29.46595 56.37492 42.92043
# Shear Modulus (GPa) = 30.85215 38.49533 34.67374
#
# Velocity S-wave (km/s) = 3.50482 3.91496 3.71556
# Velocity P-wave (km/s) = 5.30191 6.54840 5.95784
#
# Compressibility (1/GPa) = 0.03393748
#
# Stress axis : x y z
#
# Youngs Moduli (GPa) = 38.42146 135.27574 107.18674
#
# Poissons Ratio (x) = -0.04432 0.16242
# Poissons Ratio (y) = -0.01259 0.34493
# Poissons Ratio (z) = 0.05822 0.43532
#
# Static dielectric constant tensor:
#      x y z
#    x 2.114140 0.000000 0.032930 
#    y 0.000000 2.020310 0.000000 
#    z 0.032930 0.000000 2.017200 
# 
# From -- ./inp_files/28045.got.cif
#   From: 2010.05.17/outbox.cif.g08.bks.cpg/sg15_15_cif.got.tgz:28045.got - 2010.06.03 18:47:42.
