data_PCOD9273041
_publ_section_title
;
Structure prediction by ZEFSAII (Michael W. Deem and Ramdas Pophale) SiO2 
 PCOD9273041
Probable space group: C 2/C
;
_chemical_formula_sum "Si O2"
_cell_formula_units_Z 56
_cell_length_a 17.184131
_cell_length_b 10.760866
_cell_length_c 13.656809
_cell_angle_alpha 90.000000
_cell_angle_beta 55.454079
_cell_angle_gamma 90.000000
_cell_volume 2080.071760
_symmetry_space_group_name_H-M "C 2/C"
_symmetry_group_IT_number 15
_symmetry_cell_setting 'monoclinic'
loop_
_space_group_symop_operation_xyz
x,y,z
-x,y,1/2-z
-x,-y,-z
x,-y,1/2+z
1/2+x,1/2+y,z
1/2-x,1/2+y,1/2-z
1/2-x,1/2-y,-z
1/2+x,1/2-y,1/2+z
loop_
_atom_site_type_symbol
_atom_site_label
_atom_site_fract_x
_atom_site_fract_y
_atom_site_fract_z
Si Si1 0.395186 0.367984 0.173004
Si Si2 0.391208 0.155990 0.334569
Si Si3 0.391336 0.359182 0.504112
Si Si4 0.989463 0.311896 0.359289
Si Si5 0.875478 0.926824 0.862136
Si Si6 0.302408 0.814329 0.201534
Si Si7 0.324583 0.032538 0.025211
O O1 0.377884 0.244544 0.250776
O O2 0.496605 0.360590 0.046366
O O3 0.403803 0.484401 0.246102
O O4 0.297842 0.356470 0.180903
O O5 0.500000 0.124698 0.250000
O O6 0.381771 0.251555 0.431015
O O7 0.333179 0.038324 0.414147
O O8 0.373751 0.480141 0.454277
O O9 0.314435 0.320999 0.639460
O O10 0.936222 0.186466 0.361778
O O11 0.918312 0.388540 0.477743
O O12 0.000000 0.381784 0.250000
O O13 0.096996 0.307941 0.316789
O O14 0.769781 0.885751 0.909955
O O15 0.312544 0.925244 0.114153
#
# Coordination Sequence:
#
# PCOD9273041 Si02
#       7
#     8   8   8   8   8   8   8
#     4   9  17  35  63  93 119 156 203 255 308 351
#     4   8  14  28  58  91 115 146 197 253 302 348
#     4   9  17  34  62  90 123 153 200 259 303 352
#     4  12  25  41  58  81 127 166 201 241 310 378
#     4  10  20  37  62  89 122 162 198 246 312 371
#     4  10  22  39  62  91 120 158 207 260 299 356
#     4  10  20  38  62  85 115 159 206 249 302 363
#
# _framework density 26.922148
#
# number of rings (size 3 to 8) (size 9 to 14) (size 15 to 20)
#    0.000    2.286    0.000    4.286    0.000    4.000 
#    5.143    0.000   18.857    0.000    0.000    0.000 
#    0.000    0.000    0.000    0.000    0.000    0.000 
#
# Total GULP energy -156222.714618 kJ/mol
# GULP energy per Si atom -5579.382665 kJ/mol
# Density = 2.686087 g / cm^3
# Si number density = 26.922148 Si / 1000 Ang^3
#
#
#
# Elastic Constant Matrix: (Units=GPa)
#
#
# Indices 1 2 3 4 5 6 
#
# 1 127.3842 26.3581 22.8276 0.0000 -34.5526 0.0000
# 2 26.3581 100.3366 16.2150 0.0000 -3.6256 0.0000
# 3 22.8276 16.2150 65.9044 0.0000 -27.6834 0.0000
# 4 0.0000 0.0000 0.0000 44.2423 0.0000 63.9415
# 5 -34.5526 -3.6256 -27.6834 0.0000 35.8877 0.0000
# 6 0.0000 0.0000 0.0000 63.9415 0.0000 294.0213
#
#
#
# Elastic Compliance Matrix: (Units=1/GPa)
#
#
# Indices 1 2 3 4 5 6 
#
# 1 0.011393 -0.002853 0.001838 0.000000 0.012098 0.000000
# 2 -0.002853 0.011139 -0.003600 0.000000 -0.004398 0.000000
# 3 0.001838 -0.003600 0.023689 0.000000 0.019679 0.000000
# 4 0.000000 0.000000 0.000000 0.032963 0.000000 -0.007169
# 5 0.012098 -0.004398 0.019679 0.000000 0.054249 0.000000
# 6 0.000000 0.000000 0.000000 -0.007169 0.000000 0.004960
#
#
# Mechanical properties :
#
#
# Convention : Reuss Voigt Hill
#
# Bulk Modulus (GPa) = 27.03391 47.15852 37.09622
# Shear Modulus (GPa) = 31.25921 90.04523 60.65222
#
# Velocity S-wave (km/s) = 3.41118 5.78957 4.75159
# Velocity P-wave (km/s) = 5.05749 7.88967 6.62665
#
# Compressibility (1/GPa) = 0.03699057
#
# Stress axis : x y z
#
# Youngs Moduli (GPa) = 87.77402 89.77713 42.21378
#
# Poissons Ratio (x) = 0.25611 -0.07757
# Poissons Ratio (y) = 0.25039 0.15197
# Poissons Ratio (z) = -0.16130 0.32319
#
# Static dielectric constant tensor:
#      x y z
#    x 2.223990 0.000000 -0.006190 
#    y 0.000000 2.159350 0.000000 
#    z -0.006190 0.000000 2.152180 
# 
# From -- ./inp_files/204356.got.cif
#   From: 2010.05.17/outbox.cif.g08.bks.cpg/sg15_103_cif.got.tgz:204356.got - 2010.06.03 18:47:42.
