data_PCOD9273230
_publ_section_title
;
Structure prediction by ZEFSAII (Michael W. Deem and Ramdas Pophale) SiO2 
 PCOD9273230
Probable space group: C 2/C
;
_chemical_formula_sum "Si O2"
_cell_formula_units_Z 40
_cell_length_a 11.155377
_cell_length_b 10.340776
_cell_length_c 15.397266
_cell_angle_alpha 90.000000
_cell_angle_beta 64.538632
_cell_angle_gamma 90.000000
_cell_volume 1603.647063
_symmetry_space_group_name_H-M "C 2/C"
_symmetry_group_IT_number 15
_symmetry_cell_setting 'monoclinic'
loop_
_space_group_symop_operation_xyz
x,y,z
-x,y,1/2-z
-x,-y,-z
x,-y,1/2+z
1/2+x,1/2+y,z
1/2-x,1/2+y,1/2-z
1/2-x,1/2-y,-z
1/2+x,1/2-y,1/2+z
loop_
_atom_site_type_symbol
_atom_site_label
_atom_site_fract_x
_atom_site_fract_y
_atom_site_fract_z
Si Si1 0.016922 0.674714 0.024180
Si Si2 0.611820 0.005395 0.141903
Si Si3 0.023914 0.905511 0.343857
Si Si4 0.240297 0.741758 0.656962
Si Si5 0.865863 0.851159 0.641822
O O1 0.857284 0.687172 0.069045
O O2 0.060774 0.550551 0.064146
O O3 0.053429 0.794769 0.079749
O O4 0.090893 0.717197 0.914696
O O5 0.500000 0.031057 0.250000
O O6 0.740397 0.088954 0.130180
O O7 0.647111 0.853905 0.133605
O O8 0.015392 0.043360 0.394283
O O9 0.000000 0.909403 0.250000
O O10 0.175363 0.856877 0.308311
O O11 0.168002 0.834239 0.746434
#
# Coordination Sequence:
#
# PCOD9273230 Si02
#       5
#     8   8   8   8   8
#     4  10  20  37  63  93 125 166 223 259 316 388
#     4  11  20  37  64  87 128 174 203 265 327 373
#     4   9  19  35  60  87 124 162 210 258 318 379
#     4   9  22  36  59  92 126 164 216 261 315 384
#     4  11  20  37  63  88 127 166 214 269 313 382
#
# _framework density 24.943145999999999
#
# number of rings (size 3 to 8) (size 9 to 14) (size 15 to 20)
#    1.200    0.800    2.000    3.000    0.000    0.800 
#    0.000    1.000    4.400    2.400    0.000    0.000 
#    0.000    0.000    0.000    0.000    0.000    0.000 
#
# Total GULP energy -111834.368470 kJ/mol
# GULP energy per Si atom -5591.718423 kJ/mol
# Density = 2.488637 g / cm^3
# Si number density = 24.943146 Si / 1000 Ang^3
#
#
#
# Elastic Constant Matrix: (Units=GPa)
#
#
# Indices 1 2 3 4 5 6 
#
# 1 79.0623 12.6280 25.9565 0.0000 11.5985 0.0000
# 2 12.6280 68.4573 11.7077 0.0000 -3.1346 0.0000
# 3 25.9565 11.7077 109.1011 0.0000 -1.9893 0.0000
# 4 0.0000 0.0000 0.0000 37.9774 0.0000 -5.4740
# 5 11.5985 -3.1346 -1.9893 0.0000 23.6811 0.0000
# 6 0.0000 0.0000 0.0000 -5.4740 0.0000 29.5834
#
#
#
# Elastic Compliance Matrix: (Units=1/GPa)
#
#
# Indices 1 2 3 4 5 6 
#
# 1 0.015432 -0.002617 -0.003540 0.000000 -0.008202 0.000000
# 2 -0.002617 0.015405 -0.000971 0.000000 0.003239 0.000000
# 3 -0.003540 -0.000971 0.010157 0.000000 0.002459 0.000000
# 4 0.000000 0.000000 0.000000 0.027053 0.000000 0.005006
# 5 -0.008202 0.003239 0.002459 0.000000 0.046880 0.000000
# 6 0.000000 0.000000 0.000000 0.005006 0.000000 0.034729
#
#
# Mechanical properties :
#
#
# Convention : Reuss Voigt Hill
#
# Bulk Modulus (GPa) = 37.40144 39.68943 38.54543
# Shear Modulus (GPa) = 28.93105 32.00362 30.46734
#
# Velocity S-wave (km/s) = 3.40940 3.58587 3.49875
# Velocity P-wave (km/s) = 5.52502 5.75249 5.63990
#
# Compressibility (1/GPa) = 0.02673694
#
# Stress axis : x y z
#
# Youngs Moduli (GPa) = 64.80184 64.91479 98.45303
#
# Poissons Ratio (x) = 0.16986 0.34854
# Poissons Ratio (y) = 0.16957 0.09565
# Poissons Ratio (z) = 0.22941 0.06306
#
# Static dielectric constant tensor:
#      x y z
#    x 1.959470 0.000000 -0.003860 
#    y 0.000000 2.025230 0.000000 
#    z -0.003860 0.000000 1.924970 
# 
# From -- ./inp_files/243022.got.cif
#   From: 2010.05.17/outbox.cif.g08.bks.cpg/sg15_122_cif.got.tgz:243022.got - 2010.06.03 18:47:42.
