data_PCOD9273995
_publ_section_title
;
Structure prediction by ZEFSAII (Michael W. Deem and Ramdas Pophale) SiO2 
 PCOD9273995
Probable space group: C 2/C
;
_chemical_formula_sum "Si O2"
_cell_formula_units_Z 60
_cell_length_a 26.175484
_cell_length_b 8.782733
_cell_length_c 12.819881
_cell_angle_alpha 90.000000
_cell_angle_beta 100.268373
_cell_angle_gamma 90.000000
_cell_volume 2899.988320
_symmetry_space_group_name_H-M "C 2/C"
_symmetry_group_IT_number 15
_symmetry_cell_setting 'monoclinic'
loop_
_space_group_symop_operation_xyz
x,y,z
-x,y,1/2-z
-x,-y,-z
x,-y,1/2+z
1/2+x,1/2+y,z
1/2-x,1/2+y,1/2-z
1/2-x,1/2-y,-z
1/2+x,1/2-y,1/2+z
loop_
_atom_site_type_symbol
_atom_site_label
_atom_site_fract_x
_atom_site_fract_y
_atom_site_fract_z
Si Si1 0.637693 0.858678 0.957175
Si Si2 0.193306 0.206392 0.794258
Si Si3 0.055494 0.259840 0.090102
Si Si4 0.591788 0.573747 0.655327
Si Si5 0.391154 0.111811 0.712909
Si Si6 0.198852 0.531513 0.678996
Si Si7 0.556892 0.345136 0.920804
Si Si8 0.000000 0.085992 0.750000
O O1 0.676253 0.750030 0.906137
O O2 0.613405 0.964706 0.859833
O O3 0.590180 0.780897 0.000789
O O4 0.669445 0.953058 0.056906
O O5 0.145820 0.113588 0.726701
O O6 0.200302 0.361763 0.728487
O O7 0.245122 0.107044 0.810607
O O8 0.067921 0.392268 0.177464
O O9 0.994332 0.242367 0.056119
O O10 0.076508 0.104422 0.151491
O O11 0.589741 0.610939 0.532880
O O12 0.545585 0.661914 0.699784
O O13 0.336308 0.128250 0.752185
O O14 0.408957 0.243843 0.642568
O O15 0.532243 0.484187 0.846002
#
# Coordination Sequence:
#
# PCOD9273995 Si02
#       8
#     8   8   8   8   8   8   8   4
#     4  10  23  41  66  91 132 169 218 271 322 393
#     4  11  25  44  68  96 130 171 218 280 329 386
#     4  10  21  39  65  93 129 174 214 262 326 389
#     4  11  24  37  65  97 132 165 221 269 325 385
#     4  10  20  40  62  87 131 166 207 269 319 381
#     4  10  24  45  66  94 130 170 223 273 329 387
#     4  11  20  38  64  94 130 173 218 257 325 388
#     4  10  20  38  60  94 132 174 214 266 310 392
#
# _framework density 20.689737999999998
#
# number of rings (size 3 to 8) (size 9 to 14) (size 15 to 20)
#    0.000    1.600    2.667    2.800    7.467    0.533 
#    0.000    6.000    0.000    0.000    0.000    0.000 
#    0.000    0.000    0.000    0.000    0.000    0.000 
#
# Total GULP energy -167476.804921 kJ/mol
# GULP energy per Si atom -5582.560164 kJ/mol
# Density = 2.064265 g / cm^3
# Si number density = 20.689738 Si / 1000 Ang^3
#
#
#
# Elastic Constant Matrix: (Units=GPa)
#
#
# Indices 1 2 3 4 5 6 
#
# 1 52.5834 23.1806 28.6277 0.0000 -10.3226 0.0000
# 2 23.1806 34.3302 19.1039 0.0000 -4.0601 0.0000
# 3 28.6277 19.1039 88.6635 0.0000 -21.6380 0.0000
# 4 0.0000 0.0000 0.0000 23.8402 0.0000 -4.3746
# 5 -10.3226 -4.0601 -21.6380 0.0000 32.8040 0.0000
# 6 0.0000 0.0000 0.0000 -4.3746 0.0000 34.6214
#
#
#
# Elastic Compliance Matrix: (Units=1/GPa)
#
#
# Indices 1 2 3 4 5 6 
#
# 1 0.030057 -0.017004 -0.005061 0.000000 0.004015 0.000000
# 2 -0.017004 0.042731 -0.004448 0.000000 -0.002996 0.000000
# 3 -0.005061 -0.004448 0.015909 0.000000 0.008351 0.000000
# 4 0.000000 0.000000 0.000000 0.042942 0.000000 0.005426
# 5 0.004015 -0.002996 0.008351 0.000000 0.036885 0.000000
# 6 0.000000 0.000000 0.000000 0.005426 0.000000 0.029569
#
#
# Mechanical properties :
#
#
# Convention : Reuss Voigt Hill
#
# Bulk Modulus (GPa) = 28.03384 35.26682 31.65033
# Shear Modulus (GPa) = 19.01070 25.23079 22.12074
#
# Velocity S-wave (km/s) = 3.03454 3.49590 3.27336
# Velocity P-wave (km/s) = 5.08497 5.77734 5.44218
#
# Compressibility (1/GPa) = 0.03567117
#
# Stress axis : x y z
#
# Youngs Moduli (GPa) = 33.27018 23.40209 62.85713
#
# Poissons Ratio (x) = 0.39793 0.31813
# Poissons Ratio (y) = 0.56572 0.27959
# Poissons Ratio (z) = 0.16839 0.10409
#
# Static dielectric constant tensor:
#      x y z
#    x 1.729720 0.000000 -0.022730 
#    y 0.000000 1.786110 0.000000 
#    z -0.022730 0.000000 1.741100 
# 
# From -- ./inp_files/125549.got.cif
#   From: 2010.05.17/outbox.cif.g08.bks.cpg/sg15_63_cif.got.tgz:125549.got - 2010.06.03 18:47:42.
