data_PCOD9273444
_publ_section_title
;
Structure prediction by ZEFSAII (Michael W. Deem and Ramdas Pophale) SiO2 
 PCOD9273444
Probable space group: C 2/C
;
_chemical_formula_sum "Si O2"
_cell_formula_units_Z 36
_cell_length_a 9.257133
_cell_length_b 22.606116
_cell_length_c 8.999910
_cell_angle_alpha 90.000000
_cell_angle_beta 117.710968
_cell_angle_gamma 90.000000
_cell_volume 1667.375267
_symmetry_space_group_name_H-M "C 2/C"
_symmetry_group_IT_number 15
_symmetry_cell_setting 'monoclinic'
loop_
_space_group_symop_operation_xyz
x,y,z
-x,y,1/2-z
-x,-y,-z
x,-y,1/2+z
1/2+x,1/2+y,z
1/2-x,1/2+y,1/2-z
1/2-x,1/2-y,-z
1/2+x,1/2-y,1/2+z
loop_
_atom_site_type_symbol
_atom_site_label
_atom_site_fract_x
_atom_site_fract_y
_atom_site_fract_z
Si Si1 0.975995 0.565115 0.918488
Si Si2 0.301845 0.828812 0.953854
Si Si3 0.071922 0.085348 0.448541
Si Si4 0.656160 0.456699 0.426737
Si Si5 0.500000 0.257634 0.750000
O O1 0.793416 0.573882 0.893905
O O2 0.000000 0.567219 0.750000
O O3 0.000000 0.500000 0.000000
O O4 0.096699 0.613701 0.049358
O O5 0.187872 0.858686 0.027723
O O6 0.163628 0.795639 0.790856
O O7 0.431841 0.783732 0.085385
O O8 0.000000 0.090257 0.250000
O O9 0.913990 0.082094 0.474710
O O10 0.175829 0.023565 0.502811
O O11 0.500000 0.465198 0.250000
#
# Coordination Sequence:
#
# PCOD9273444 Si02
#       5
#     8   8   8   8   4
#     4  12  25  40  67 107 142 180 226 287 356 419
#     4  11  21  43  68 100 134 181 241 280 343 405
#     4  10  20  37  65  96 135 176 218 276 343 409
#     4  10  22  36  60  99 142 175 211 273 355 417
#     4  10  24  40  72  96 130 194 238 280 328 414
#
# _framework density 21.590819
#
# number of rings (size 3 to 8) (size 9 to 14) (size 15 to 20)
#    0.000    1.333    4.444    1.333    6.222    0.000 
#    0.000    0.000    0.000    8.000    0.000    0.000 
#    0.000    0.000    0.000    0.000    0.000    0.000 
#
# Total GULP energy -100219.510199 kJ/mol
# GULP energy per Si atom -5567.750567 kJ/mol
# Density = 2.154168 g / cm^3
# Si number density = 21.590819 Si / 1000 Ang^3
#
#
#
# Elastic Constant Matrix: (Units=GPa)
#
#
# Indices 1 2 3 4 5 6 
#
# 1 158.1004 57.1811 57.6034 0.0000 4.3586 0.0000
# 2 57.1811 120.1383 28.5993 0.0000 19.9258 0.0000
# 3 57.6034 28.5993 76.9533 0.0000 6.6427 0.0000
# 4 0.0000 0.0000 0.0000 13.9539 0.0000 9.7007
# 5 4.3586 19.9258 6.6427 0.0000 51.7972 0.0000
# 6 0.0000 0.0000 0.0000 9.7007 0.0000 38.2777
#
#
#
# Elastic Compliance Matrix: (Units=1/GPa)
#
#
# Indices 1 2 3 4 5 6 
#
# 1 0.009759 -0.003391 -0.006155 0.000000 0.001272 0.000000
# 2 -0.003391 0.010834 -0.001166 0.000000 -0.003733 0.000000
# 3 -0.006155 -0.001166 0.018153 0.000000 -0.001362 0.000000
# 4 0.000000 0.000000 0.000000 0.086991 0.000000 -0.022046
# 5 0.001272 -0.003733 -0.001362 0.000000 0.020810 0.000000
# 6 0.000000 0.000000 0.000000 -0.022046 0.000000 0.031712
#
#
# Mechanical properties :
#
#
# Convention : Reuss Voigt Hill
#
# Bulk Modulus (GPa) = 57.72688 71.32883 64.52786
# Shear Modulus (GPa) = 24.33616 34.92631 29.63123
#
# Velocity S-wave (km/s) = 3.36095 4.02636 3.70861
# Velocity P-wave (km/s) = 6.46963 7.39755 6.94910
#
# Compressibility (1/GPa) = 0.01732295
#
# Stress axis : x y z
#
# Youngs Moduli (GPa) = 102.47186 92.29919 55.08765
#
# Poissons Ratio (x) = 0.31296 0.33904
# Poissons Ratio (y) = 0.34745 0.06424
# Poissons Ratio (z) = 0.63068 0.10764
#
# Static dielectric constant tensor:
#      x y z
#    x 1.763600 0.000000 0.294560 
#    y 0.000000 1.910160 0.000000 
#    z 0.294560 0.000000 1.465450 
# 
# From -- ./inp_files/23848.got.cif
#   From: 2010.05.17/outbox.cif.g08.bks.cpg/sg15_12_cif.got.tgz:23848.got - 2010.06.03 18:47:42.
