data_PCOD9273467
_publ_section_title
;
Structure prediction by ZEFSAII (Michael W. Deem and Ramdas Pophale) SiO2 
 PCOD9273467
Probable space group: C 2/C
;
_chemical_formula_sum "Si O2"
_cell_formula_units_Z 56
_cell_length_a 14.728097
_cell_length_b 7.460937
_cell_length_c 25.141524
_cell_angle_alpha 90.000000
_cell_angle_beta 60.624804
_cell_angle_gamma 90.000000
_cell_volume 2407.477545
_symmetry_space_group_name_H-M "C 2/C"
_symmetry_group_IT_number 15
_symmetry_cell_setting 'monoclinic'
loop_
_space_group_symop_operation_xyz
x,y,z
-x,y,1/2-z
-x,-y,-z
x,-y,1/2+z
1/2+x,1/2+y,z
1/2-x,1/2+y,1/2-z
1/2-x,1/2-y,-z
1/2+x,1/2-y,1/2+z
loop_
_atom_site_type_symbol
_atom_site_label
_atom_site_fract_x
_atom_site_fract_y
_atom_site_fract_z
Si Si1 0.381906 0.806800 0.165384
Si Si2 0.199567 0.113869 0.893385
Si Si3 0.235465 0.963504 0.495077
Si Si4 0.426799 0.359256 0.312679
Si Si5 0.178743 0.561667 0.227411
Si Si6 0.699451 0.974875 0.414948
Si Si7 0.492606 0.506881 0.896274
O O1 0.281348 0.683227 0.209378
O O2 0.484097 0.683912 0.139123
O O3 0.374644 0.977232 0.205855
O O4 0.368406 0.866433 0.107729
O O5 0.176469 0.316228 0.915586
O O6 0.277263 0.097998 0.821813
O O7 0.089804 0.033973 0.906715
O O8 0.250356 0.006868 0.928312
O O9 0.250000 0.750000 0.500000
O O10 0.302378 0.064648 0.521204
O O11 0.115366 0.004111 0.542253
O O12 0.500000 0.464005 0.250000
O O13 0.392810 0.185187 0.289169
O O14 0.318475 0.449717 0.360868
O O15 0.488455 0.346737 0.350377
#
# Coordination Sequence:
#
# PCOD9273467 Si02
#       7
#     8   8   8   8   8   8   8
#     4  10  21  37  64  89 122 156 206 245 302 363
#     4  10  20  37  66  88 116 159 206 245 294 360
#     4   9  19  41  60  86 122 159 199 249 304 352
#     4  10  23  39  53  83 126 153 194 244 299 354
#     4  10  22  37  60  88 119 159 198 242 309 362
#     4   9  20  38  62  83 120 160 193 244 303 348
#     4  10  22  39  62  90 119 155 203 253 296 355
#
# _framework density 23.260860000000001
#
# number of rings (size 3 to 8) (size 9 to 14) (size 15 to 20)
#    0.000    2.286    0.000    1.286   12.000    0.000 
#    7.714   15.714    0.000    0.000    0.000    0.000 
#    0.000    0.000    0.000    0.000    0.000    0.000 
#
# Total GULP energy -156372.301957 kJ/mol
# GULP energy per Si atom -5584.725070 kJ/mol
# Density = 2.320792 g / cm^3
# Si number density = 23.260860 Si / 1000 Ang^3
#
#
#
# Elastic Constant Matrix: (Units=GPa)
#
#
# Indices 1 2 3 4 5 6 
#
# 1 41.3822 20.9791 31.0352 0.0000 25.5787 0.0000
# 2 20.9791 65.1423 10.0621 0.0000 14.3355 0.0001
# 3 31.0352 10.0621 70.9435 0.0000 28.3923 0.0000
# 4 0.0000 0.0000 0.0000 26.5677 0.0000 5.2135
# 5 25.5787 14.3355 28.3923 0.0000 34.6304 0.0000
# 6 0.0000 0.0001 0.0000 5.2135 0.0000 9.9442
#
#
#
# Elastic Compliance Matrix: (Units=1/GPa)
#
#
# Indices 1 2 3 4 5 6 
#
# 1 0.054314 -0.009869 -0.011818 0.000000 -0.026343 0.000000
# 2 -0.009869 0.018700 0.002747 0.000000 -0.002704 0.000000
# 3 -0.011818 0.002747 0.023572 0.000000 -0.011734 0.000000
# 4 0.000000 0.000000 0.000000 0.041956 0.000000 -0.021996
# 5 -0.026343 -0.002704 -0.011734 0.000000 0.059073 0.000000
# 6 0.000000 0.000000 0.000000 -0.021996 0.000000 0.112093
#
#
# Mechanical properties :
#
#
# Convention : Reuss Voigt Hill
#
# Bulk Modulus (GPa) = 17.03399 33.51343 25.27371
# Shear Modulus (GPa) = 13.61811 21.92122 17.76967
#
# Velocity S-wave (km/s) = 2.42224 3.07320 2.76693
# Velocity P-wave (km/s) = 3.89383 5.19920 4.59312
#
# Compressibility (1/GPa) = 0.05870616
#
# Stress axis : x y z
#
# Youngs Moduli (GPa) = 18.41145 53.47569 42.42288
#
# Poissons Ratio (x) = 0.52777 0.50135
# Poissons Ratio (y) = 0.18171 -0.11655
# Poissons Ratio (z) = 0.21759 -0.14691
#
# Static dielectric constant tensor:
#      x y z
#    x 1.881260 0.000000 0.049020 
#    y 0.000000 1.889280 0.000000 
#    z 0.049020 0.000000 1.901880 
# 
# From -- ./inp_files/272621.got.cif
#   From: 2010.05.17/outbox.cif.g08.bks.cpg/sg15_137_cif.got.tgz:272621.got - 2010.06.03 18:47:42.
