data_PCOD9273941
_publ_section_title
;
Structure prediction by ZEFSAII (Michael W. Deem and Ramdas Pophale) SiO2 
 PCOD9273941
Probable space group: C 2/C
;
_chemical_formula_sum "Si O2"
_cell_formula_units_Z 56
_cell_length_a 18.889932
_cell_length_b 6.788314
_cell_length_c 30.336646
_cell_angle_alpha 90.000000
_cell_angle_beta 149.000322
_cell_angle_gamma 90.000000
_cell_volume 2003.526796
_symmetry_space_group_name_H-M "C 2/C"
_symmetry_group_IT_number 15
_symmetry_cell_setting 'monoclinic'
loop_
_space_group_symop_operation_xyz
x,y,z
-x,y,1/2-z
-x,-y,-z
x,-y,1/2+z
1/2+x,1/2+y,z
1/2-x,1/2+y,1/2-z
1/2-x,1/2-y,-z
1/2+x,1/2-y,1/2+z
loop_
_atom_site_type_symbol
_atom_site_label
_atom_site_fract_x
_atom_site_fract_y
_atom_site_fract_z
Si Si1 0.017630 0.826059 0.307313
Si Si2 0.388618 0.593746 0.043068
Si Si3 0.108744 0.477579 0.927579
Si Si4 0.723108 0.014746 0.674776
Si Si5 0.685384 0.548619 0.182707
Si Si6 0.804757 0.425650 0.433131
Si Si7 0.338080 0.476142 0.422316
O O1 0.032395 0.657420 0.351894
O O2 0.151351 0.962157 0.370355
O O3 0.000000 0.727250 0.250000
O O4 0.883346 0.952222 0.247239
O O5 0.416027 0.787246 0.086748
O O6 0.532389 0.482754 0.114289
O O7 0.269564 0.462552 0.000038
O O8 0.329619 0.649348 0.962897
O O9 0.092594 0.434448 0.970880
O O10 0.664850 0.231432 0.654044
O O11 0.659451 0.960014 0.593166
O O12 0.724869 0.926721 0.725142
O O13 0.730270 0.431914 0.162224
O O14 0.794544 0.194550 0.414563
O O15 0.500000 0.500000 0.500000
#
# Coordination Sequence:
#
# PCOD9273941 Si02
#       7
#     8   8   8   8   8   8   8
#     4  10  21  37  61  87 115 151 199 239 290 355
#     4  10  22  39  56  92 118 149 198 248 292 349
#     4  11  22  36  65  88 118 150 195 249 297 343
#     4  10  23  38  59  86 119 156 198 242 290 355
#     4  10  22  40  58  81 121 159 195 238 298 343
#     4  10  20  38  60  89 110 151 205 240 286 353
#     4   9  19  36  57  79 115 153 190 237 286 343
#
# _framework density 27.950710999999998
#
# number of rings (size 3 to 8) (size 9 to 14) (size 15 to 20)
#    0.000    2.000    1.429    1.286    6.000    1.143 
#    0.000    9.286    0.000    0.000    0.000    0.000 
#    0.000    0.000    0.000    0.000    0.000    0.000 
#
# Total GULP energy -156564.898294 kJ/mol
# GULP energy per Si atom -5591.603510 kJ/mol
# Density = 2.788709 g / cm^3
# Si number density = 27.950711 Si / 1000 Ang^3
#
#
#
# Elastic Constant Matrix: (Units=GPa)
#
#
# Indices 1 2 3 4 5 6 
#
# 1 142.5905 26.1314 68.0088 -0.0006 -49.6057 0.0008
# 2 26.1314 55.0218 26.3293 -0.0013 -26.1960 0.0025
# 3 68.0088 26.3293 153.3008 -0.0005 -72.4156 0.0005
# 4 -0.0006 -0.0013 -0.0005 44.8141 0.0003 -20.3543
# 5 -49.6057 -26.1960 -72.4156 0.0003 100.5328 -0.0004
# 6 0.0008 0.0025 0.0005 -20.3543 -0.0004 44.0366
#
#
#
# Elastic Compliance Matrix: (Units=1/GPa)
#
#
# Indices 1 2 3 4 5 6 
#
# 1 0.009492 -0.002156 -0.002870 0.000000 0.002054 0.000000
# 2 -0.002156 0.021478 -0.000896 0.000000 0.003887 -0.000001
# 3 -0.002870 -0.000896 0.010869 0.000000 0.006180 0.000000
# 4 0.000000 0.000000 0.000000 0.028244 0.000000 0.013055
# 5 0.002054 0.003887 0.006180 0.000000 0.016425 0.000000
# 6 0.000000 -0.000001 0.000000 0.013055 0.000000 0.028742
#
#
# Mechanical properties :
#
#
# Convention : Reuss Voigt Hill
#
# Bulk Modulus (GPa) = 33.33961 65.76135 49.55048
# Shear Modulus (GPa) = 36.47133 53.23961 44.85547
#
# Velocity S-wave (km/s) = 3.61618 4.36910 4.01035
# Velocity P-wave (km/s) = 5.42122 7.00219 6.26180
#
# Compressibility (1/GPa) = 0.02999435
#
# Stress axis : x y z
#
# Youngs Moduli (GPa) = 105.35361 46.55872 92.00080
#
# Poissons Ratio (x) = 0.10040 0.26405
# Poissons Ratio (y) = 0.22719 0.08243
# Poissons Ratio (z) = 0.30238 0.04172
#
# Static dielectric constant tensor:
#      x y z
#    x 2.269770 0.000000 -0.037400 
#    y 0.000000 2.262750 0.000000 
#    z -0.037400 0.000000 2.313980 
# 
# From -- ./inp_files/276528.got.cif
#   From: 2010.05.17/outbox.cif.g08.bks.cpg/sg15_139_cif.got.tgz:276528.got - 2010.06.03 18:47:42.
