data_PCOD9273437
_publ_section_title
;
Structure prediction by ZEFSAII (Michael W. Deem and Ramdas Pophale) SiO2 
 PCOD9273437
Probable space group: C 2/C
;
_chemical_formula_sum "Si O2"
_cell_formula_units_Z 48
_cell_length_a 10.311145
_cell_length_b 16.641467
_cell_length_c 15.733414
_cell_angle_alpha 90.000000
_cell_angle_beta 128.921604
_cell_angle_gamma 90.000000
_cell_volume 2100.412498
_symmetry_space_group_name_H-M "C 2/C"
_symmetry_group_IT_number 15
_symmetry_cell_setting 'monoclinic'
loop_
_space_group_symop_operation_xyz
x,y,z
-x,y,1/2-z
-x,-y,-z
x,-y,1/2+z
1/2+x,1/2+y,z
1/2-x,1/2+y,1/2-z
1/2-x,1/2-y,-z
1/2+x,1/2-y,1/2+z
loop_
_atom_site_type_symbol
_atom_site_label
_atom_site_fract_x
_atom_site_fract_y
_atom_site_fract_z
Si Si1 0.338674 0.583716 0.139536
Si Si2 0.758248 0.064781 0.812562
Si Si3 0.530343 0.322005 0.359825
Si Si4 0.345841 0.148384 0.093065
Si Si5 0.933182 0.529361 0.598765
Si Si6 0.641150 0.617272 0.172455
O O1 0.500000 0.536170 0.250000
O O2 0.120110 0.437106 0.180493
O O3 0.444737 0.632189 0.111634
O O4 0.181595 0.542598 0.030909
O O5 0.888573 0.134880 0.854849
O O6 0.335955 0.070198 0.637023
O O7 0.844919 0.977119 0.847256
O O8 0.500000 0.340757 0.250000
O O9 0.543987 0.226433 0.375179
O O10 0.706619 0.355676 0.463376
O O11 0.441097 0.064314 0.128929
O O12 0.240429 0.159482 0.137573
O O13 0.283708 0.369778 0.701926
#
# Coordination Sequence:
#
# PCOD9273437 Si02
#       6
#     8   8   8   8   8   8
#     4   8  18  32  56 100 122 167 214 287 316 378
#     4  10  21  35  60  96 130 175 215 284 322 391
#     4  11  25  39  60  94 138 178 220 267 343 389
#     4  10  22  41  62  92 136 184 215 274 330 404
#     4  10  20  37  65  95 129 172 232 268 333 385
#     4   8  18  34  60  90 130 168 220 270 325 372
#
# _framework density 22.852653
#
# number of rings (size 3 to 8) (size 9 to 14) (size 15 to 20)
#    1.000    1.333    0.000    2.000    9.333    3.333 
#    0.000    0.000    0.000    4.000    4.333   16.333 
#    0.000    0.000    0.000    0.000    0.000    0.000 
#
# Total GULP energy -133848.298039 kJ/mol
# GULP energy per Si atom -5577.012418 kJ/mol
# Density = 2.280064 g / cm^3
# Si number density = 22.852653 Si / 1000 Ang^3
#
#
#
# Elastic Constant Matrix: (Units=GPa)
#
#
# Indices 1 2 3 4 5 6 
#
# 1 63.4465 34.0914 2.2502 0.0000 5.4234 0.0000
# 2 34.0914 77.2224 25.1305 0.0000 23.1601 0.0000
# 3 2.2502 25.1305 123.8203 0.0000 -13.0669 0.0000
# 4 0.0000 0.0000 0.0000 3.9952 0.0000 13.5882
# 5 5.4234 23.1601 -13.0669 0.0000 23.3962 0.0000
# 6 0.0000 0.0000 0.0000 13.5882 0.0000 30.5389
#
#
#
# Elastic Compliance Matrix: (Units=1/GPa)
#
#
# Indices 1 2 3 4 5 6 
#
# 1 0.022453 -0.014481 0.003713 0.000000 0.011204 0.000000
# 2 -0.014481 0.033228 -0.010199 0.000000 -0.035232 0.000000
# 3 0.003713 -0.010199 0.011746 0.000000 0.015795 0.000000
# 4 0.000000 0.000000 0.000000 -0.487600 0.000000 0.216957
# 5 0.011204 -0.035232 0.015795 0.000000 0.083844 0.000000
# 6 0.000000 0.000000 0.000000 0.216957 0.000000 -0.063790
#
#
# Mechanical properties :
#
#
# Convention : Reuss Voigt Hill
#
# Bulk Modulus (GPa) = 39.22547 43.04816 41.13682
# Shear Modulus (GPa) = -14.29848 25.12052 5.41102
#
# Velocity S-wave (km/s) = -2.50408 3.31907 1.54043
# Velocity P-wave (km/s) = 2.97342 5.79366 4.60477
#
# Compressibility (1/GPa) = 0.02549364
#
# Stress axis : x y z
#
# Youngs Moduli (GPa) = 44.53759 30.09474 85.13803
#
# Poissons Ratio (x) = 0.43581 -0.31616
# Poissons Ratio (y) = 0.64495 0.86832
# Poissons Ratio (z) = -0.16539 0.30694
#
# Static dielectric constant tensor:
#      x y z
#    x 1.946650 0.000000 0.000840 
#    y 0.000000 1.834400 0.000000 
#    z 0.000840 0.000000 1.931000 
# 
# From -- ./inp_files/239656.got.cif
#   From: 2010.05.17/outbox.cif.g08.bks.cpg/sg15_120_cif.got.tgz:239656.got - 2010.06.03 18:47:42.
