data_PCOD9273452
_publ_section_title
;
Structure prediction by ZEFSAII (Michael W. Deem and Ramdas Pophale) SiO2 
 PCOD9273452
Probable space group: C 2/C
;
_chemical_formula_sum "Si O2"
_cell_formula_units_Z 32
_cell_length_a 14.952712
_cell_length_b 12.557005
_cell_length_c 13.768510
_cell_angle_alpha 90.000000
_cell_angle_beta 146.913713
_cell_angle_gamma 90.000000
_cell_volume 1411.260631
_symmetry_space_group_name_H-M "C 2/C"
_symmetry_group_IT_number 15
_symmetry_cell_setting 'monoclinic'
loop_
_space_group_symop_operation_xyz
x,y,z
-x,y,1/2-z
-x,-y,-z
x,-y,1/2+z
1/2+x,1/2+y,z
1/2-x,1/2+y,1/2-z
1/2-x,1/2-y,-z
1/2+x,1/2-y,1/2+z
loop_
_atom_site_type_symbol
_atom_site_label
_atom_site_fract_x
_atom_site_fract_y
_atom_site_fract_z
Si Si1 0.174784 0.657120 0.865473
Si Si2 0.839660 0.370507 0.362741
Si Si3 0.494516 0.277621 0.358855
Si Si4 0.332732 0.473094 0.905149
O O1 0.143492 0.691932 0.724933
O O2 0.000000 0.623604 0.750000
O O3 0.250000 0.750000 0.000000
O O4 0.296838 0.557163 0.959888
O O5 0.671402 0.334383 0.259931
O O6 0.978326 0.332702 0.561132
O O7 0.808476 0.491610 0.299992
O O8 0.500000 0.263750 0.250000
O O9 0.640046 0.357058 0.526971
O O10 0.500000 0.500000 0.000000
#
# Coordination Sequence:
#
# PCOD9273452 Si02
#       4
#     8   8   8   8
#     4  10  20  37  65  98 136 173 221 278 344 394
#     4   9  21  39  62  93 134 165 221 276 333 394
#     4  11  20  40  66  92 128 177 219 267 341 402
#     4   8  20  38  59  92 135 172 217 272 334 397
#
# _framework density 22.674762999999999
#
# number of rings (size 3 to 8) (size 9 to 14) (size 15 to 20)
#    1.500    1.000    0.000    2.250    0.000    1.000 
#    4.500    5.000    0.000    0.000    0.000    1.750 
#    0.000    0.000    0.000    0.000    0.000    0.000 
#
# Total GULP energy -89174.173185 kJ/mol
# GULP energy per Si atom -5573.385824 kJ/mol
# Density = 2.262315 g / cm^3
# Si number density = 22.674763 Si / 1000 Ang^3
#
#
#
# Elastic Constant Matrix: (Units=GPa)
#
#
# Indices 1 2 3 4 5 6 
#
# 1 161.0489 50.1473 42.0438 0.0000 -16.9359 0.0000
# 2 50.1473 127.6433 50.9570 0.0000 2.1480 0.0000
# 3 42.0438 50.9570 66.3864 0.0000 -18.9135 0.0000
# 4 0.0000 0.0000 0.0000 -2.4997 0.0000 -10.9007
# 5 -16.9359 2.1480 -18.9135 0.0000 40.9849 0.0000
# 6 0.0000 0.0000 0.0000 -10.9007 0.0000 21.4904
#
#
#
# Elastic Compliance Matrix: (Units=1/GPa)
#
#
# Indices 1 2 3 4 5 6 
#
# 1 0.007771 -0.001944 -0.002862 0.000000 0.001993 0.000000
# 2 -0.001944 0.012874 -0.010445 0.000000 -0.006298 0.000000
# 3 -0.002862 -0.010445 0.028453 0.000000 0.012495 0.000000
# 4 0.000000 0.000000 0.000000 -0.124550 0.000000 -0.063176
# 5 0.001993 -0.006298 0.012495 0.000000 0.031319 0.000000
# 6 0.000000 0.000000 0.000000 -0.063176 0.000000 0.014487
#
#
# Mechanical properties :
#
#
# Convention : Reuss Voigt Hill
#
# Bulk Modulus (GPa) = 53.77330 71.26387 62.51859
# Shear Modulus (GPa) = 708.84523 26.12385 367.48454
#
# Velocity S-wave (km/s) = 17.70008 3.39796 12.74439
# Velocity P-wave (km/s) = 21.01167 6.84776 15.62661
#
# Compressibility (1/GPa) = 0.01859659
#
# Stress axis : x y z
#
# Youngs Moduli (GPa) = 128.67860 77.67701 35.14602
#
# Poissons Ratio (x) = 0.15102 0.10058
# Poissons Ratio (y) = 0.25018 0.36709
# Poissons Ratio (z) = 0.36824 0.81131
#
# Static dielectric constant tensor:
#      x y z
#    x 1.755640 0.000000 -0.006360 
#    y 0.000000 1.535400 0.000000 
#    z -0.006360 0.000000 1.859560 
# 
# From -- ./inp_files/46585.got.cif
#   From: 2010.05.17/outbox.cif.g08.bks.cpg/sg15_24_cif.got.tgz:46585.got - 2010.06.03 18:47:42.
