data_PCOD9273752
_publ_section_title
;
Structure prediction by ZEFSAII (Michael W. Deem and Ramdas Pophale) SiO2 
 PCOD9273752
Probable space group: C 2/C
;
_chemical_formula_sum "Si O2"
_cell_formula_units_Z 44
_cell_length_a 7.154687
_cell_length_b 31.297349
_cell_length_c 10.499141
_cell_angle_alpha 90.000000
_cell_angle_beta 135.326287
_cell_angle_gamma 90.000000
_cell_volume 1652.911539
_symmetry_space_group_name_H-M "C 2/C"
_symmetry_group_IT_number 15
_symmetry_cell_setting 'monoclinic'
loop_
_space_group_symop_operation_xyz
x,y,z
-x,y,1/2-z
-x,-y,-z
x,-y,1/2+z
1/2+x,1/2+y,z
1/2-x,1/2+y,1/2-z
1/2-x,1/2-y,-z
1/2+x,1/2-y,1/2+z
loop_
_atom_site_type_symbol
_atom_site_label
_atom_site_fract_x
_atom_site_fract_y
_atom_site_fract_z
Si Si1 0.680443 0.712244 0.706791
Si Si2 0.688734 0.962021 0.951333
Si Si3 0.262177 0.308802 0.792129
Si Si4 0.262222 0.945327 0.964186
Si Si5 0.949449 0.642115 0.534769
Si Si6 0.500000 0.403694 0.250000
O O1 0.500000 0.711416 0.750000
O O2 0.507293 0.692438 0.508313
O O3 0.740775 0.762187 0.716997
O O4 0.951218 0.686204 0.857001
O O5 0.500000 0.944933 0.750000
O O6 0.512945 0.955298 0.993199
O O7 0.949733 0.934464 0.104699
O O8 0.750561 0.011775 0.958892
O O9 0.000000 0.313551 0.750000
O O10 0.234376 0.345275 0.673395
O O11 0.000000 0.945062 0.750000
O O12 0.314295 0.897708 0.041652
O O13 0.238416 0.624504 0.632230
#
# Coordination Sequence:
#
# PCOD9273752 Si02
#       6
#     8   8   8   8   8   4
#     4  11  18  32  53  84 125 159 201 259 314 360
#     4  10  22  43  71  89 120 168 205 258 319 365
#     4  11  18  31  55  84 122 162 200 255 320 355
#     4  10  23  44  61  92 130 160 209 260 305 376
#     4  11  21  34  56  87 121 161 201 254 300 368
#     4  10  20  38  58  92 126 150 206 256 300 380
#
# _framework density 26.619693999999999
#
# number of rings (size 3 to 8) (size 9 to 14) (size 15 to 20)
#    0.000    1.455    5.455    1.091    0.000    6.545 
#    3.273    0.000    0.000    1.091    0.000    0.000 
#    0.000    0.000    0.000    0.000    0.000    0.000 
#
# Total GULP energy -123208.681961 kJ/mol
# GULP energy per Si atom -5600.394635 kJ/mol
# Density = 2.655911 g / cm^3
# Si number density = 26.619694 Si / 1000 Ang^3
#
#
#
# Elastic Constant Matrix: (Units=GPa)
#
#
# Indices 1 2 3 4 5 6 
#
# 1 98.1061 31.9188 20.3859 0.0000 16.1998 0.0000
# 2 31.9188 146.0033 44.7910 0.0000 0.1759 0.0000
# 3 20.3859 44.7910 205.0905 0.0000 1.7155 0.0000
# 4 0.0000 0.0000 0.0000 105.0050 0.0000 -40.3333
# 5 16.1998 0.1759 1.7155 0.0000 34.3582 0.0000
# 6 0.0000 0.0000 0.0000 -40.3333 0.0000 1.3260
#
#
#
# Elastic Compliance Matrix: (Units=1/GPa)
#
#
# Indices 1 2 3 4 5 6 
#
# 1 0.012045 -0.002437 -0.000618 0.000000 -0.005636 0.000000
# 2 -0.002437 0.007834 -0.001479 0.000000 0.001183 0.000000
# 3 -0.000618 -0.001479 0.005260 0.000000 0.000036 0.000000
# 4 0.000000 0.000000 0.000000 -0.000891 0.000000 -0.027114
# 5 -0.005636 0.001183 0.000036 0.000000 0.031755 0.000000
# 6 0.000000 0.000000 0.000000 -0.027114 0.000000 -0.070590
#
#
# Mechanical properties :
#
#
# Convention : Reuss Voigt Hill
#
# Bulk Modulus (GPa) = 62.21944 71.48792 66.85368
# Shear Modulus (GPa) = -30522.02217 51.61146 -15235.20535
#
# Velocity S-wave (km/s) = -107.19537 4.40801 -75.73446
# Velocity P-wave (km/s) = 123.68389 7.26780 87.30660
#
# Compressibility (1/GPa) = 0.01607215
#
# Stress axis : x y z
#
# Youngs Moduli (GPa) = 83.02271 127.64731 190.11641
#
# Poissons Ratio (x) = 0.31106 0.11748
# Poissons Ratio (y) = 0.20232 0.28111
# Poissons Ratio (z) = 0.05130 0.18874
#
# Static dielectric constant tensor:
#      x y z
#    x 2.118620 0.000000 -0.053140 
#    y 0.000000 2.133830 0.000000 
#    z -0.053140 0.000000 2.037490 
# 
# From -- ./inp_files/149074.got.cif
#   From: 2010.05.17/outbox.cif.g08.bks.cpg/sg15_75_cif.got.tgz:149074.got - 2010.06.03 18:47:42.
