data_PCOD9273645
_publ_section_title
;
Structure prediction by ZEFSAII (Michael W. Deem and Ramdas Pophale) SiO2 
 PCOD9273645
Probable space group: C 2/C
;
_chemical_formula_sum "Si O2"
_cell_formula_units_Z 64
_cell_length_a 17.528648
_cell_length_b 16.047915
_cell_length_c 23.150427
_cell_angle_alpha 90.000000
_cell_angle_beta 31.901616
_cell_angle_gamma 90.000000
_cell_volume 3441.438672
_symmetry_space_group_name_H-M "C 2/C"
_symmetry_group_IT_number 15
_symmetry_cell_setting 'monoclinic'
loop_
_space_group_symop_operation_xyz
x,y,z
-x,y,1/2-z
-x,-y,-z
x,-y,1/2+z
1/2+x,1/2+y,z
1/2-x,1/2+y,1/2-z
1/2-x,1/2-y,-z
1/2+x,1/2-y,1/2+z
loop_
_atom_site_type_symbol
_atom_site_label
_atom_site_fract_x
_atom_site_fract_y
_atom_site_fract_z
Si Si1 0.127177 0.428258 0.208265
Si Si2 0.949615 0.094531 0.515306
Si Si3 0.779463 0.181925 0.214832
Si Si4 0.355560 0.873799 0.812799
Si Si5 0.869720 0.772945 0.470366
Si Si6 0.031580 0.372134 0.939377
Si Si7 0.588564 0.942152 0.368750
Si Si8 0.147250 0.853435 0.297521
O O1 0.290461 0.400485 0.089984
O O2 0.137725 0.527137 0.190028
O O3 0.089216 0.417527 0.300663
O O4 0.000000 0.393449 0.250000
O O5 0.919931 0.138528 0.595611
O O6 0.071121 0.139389 0.398773
O O7 0.000000 0.000000 0.500000
O O8 0.665814 0.150592 0.239453
O O9 0.697891 0.156650 0.325605
O O10 0.767387 0.281002 0.219165
O O11 0.500000 0.840797 0.750000
O O12 0.217256 0.836732 0.933256
O O13 0.750000 0.750000 0.500000
O O14 0.929830 0.695239 0.470900
O O15 0.007872 0.820140 0.353155
O O16 0.025817 0.464819 0.915478
O O17 0.991521 0.386610 0.031853
O O18 0.760475 0.935740 0.275061
#
# Coordination Sequence:
#
# PCOD9273645 Si02
#       8
#     8   8   8   8   8   8   8   8
#     4  10  21  35  62  89 113 153 207 265 316 357
#     4  11  19  37  58  85 115 151 204 258 300 370
#     4  11  19  33  55  85 114 151 202 245 307 359
#     4  11  19  32  52  82 124 160 194 247 302 373
#     4  11  22  34  53  92 132 164 202 249 321 384
#     4  10  21  35  55  82 119 169 205 246 302 376
#     4  10  20  38  57  79 118 159 214 251 298 378
#     4  10  21  33  55  85 115 157 204 250 301 362
#
# _framework density 18.596872000000001
#
# number of rings (size 3 to 8) (size 9 to 14) (size 15 to 20)
#    0.000    1.500    3.750    3.000    3.500    0.000 
#    0.000    0.000    0.000    3.750    0.000    0.000 
#    0.000    0.000    0.000    0.000    0.000    0.000 
#
# Total GULP energy -178141.739800 kJ/mol
# GULP energy per Si atom -5566.929369 kJ/mol
# Density = 1.855454 g / cm^3
# Si number density = 18.596872 Si / 1000 Ang^3
#
#
#
# Elastic Constant Matrix: (Units=GPa)
#
#
# Indices 1 2 3 4 5 6 
#
# 1 79.8277 24.9797 51.3717 -0.0009 -21.7149 0.0003
# 2 24.9797 55.7430 37.5683 -0.0043 -5.9252 0.0013
# 3 51.3717 37.5683 151.9088 -0.0057 -6.3653 0.0019
# 4 -0.0009 -0.0043 -0.0057 43.2197 0.0010 1.5350
# 5 -21.7149 -5.9252 -6.3653 0.0010 31.0002 -0.0002
# 6 0.0003 0.0013 0.0019 1.5350 -0.0002 23.0591
#
#
#
# Elastic Compliance Matrix: (Units=1/GPa)
#
#
# Indices 1 2 3 4 5 6 
#
# 1 0.020819 -0.004318 -0.005443 -0.000001 0.012641 0.000001
# 2 -0.004318 0.022712 -0.004137 0.000002 0.000467 -0.000001
# 3 -0.005443 -0.004137 0.009334 0.000001 -0.002687 -0.000001
# 4 -0.000001 0.000002 0.000001 0.023192 -0.000001 -0.001544
# 5 0.012641 0.000467 -0.002687 -0.000001 0.040650 0.000001
# 6 0.000001 -0.000001 -0.000001 -0.001544 0.000001 0.043470
#
#
# Mechanical properties :
#
#
# Convention : Reuss Voigt Hill
#
# Bulk Modulus (GPa) = 39.88843 57.25767 48.57305
# Shear Modulus (GPa) = 25.46728 31.02645 28.24686
#
# Velocity S-wave (km/s) = 3.70461 4.08900 3.90154
# Velocity P-wave (km/s) = 6.30828 7.29033 6.81701
#
# Compressibility (1/GPa) = 0.02506992
#
# Stress axis : x y z
#
# Youngs Moduli (GPa) = 48.03220 44.02908 107.13259
#
# Poissons Ratio (x) = 0.19010 0.58314
# Poissons Ratio (y) = 0.20738 0.44324
# Poissons Ratio (z) = 0.26145 0.18216
#
# Static dielectric constant tensor:
#      x y z
#    x 1.707780 0.000000 -0.008500 
#    y 0.000000 1.736320 0.000000 
#    z -0.008500 0.000000 1.715820 
# 
# From -- ./inp_files/277794.got.cif
#   From: 2010.05.17/outbox.cif.g08.bks.cpg/sg15_139_cif.got.tgz:277794.got - 2010.06.03 18:47:42.
