data_PCOD9273202
_publ_section_title
;
Structure prediction by ZEFSAII (Michael W. Deem and Ramdas Pophale) SiO2 
 PCOD9273202
Probable space group: C 2/C
;
_chemical_formula_sum "Si O2"
_cell_formula_units_Z 40
_cell_length_a 15.285249
_cell_length_b 19.619092
_cell_length_c 7.662573
_cell_angle_alpha 90.000000
_cell_angle_beta 45.346459
_cell_angle_gamma 90.000000
_cell_volume 1634.637081
_symmetry_space_group_name_H-M "C 2/C"
_symmetry_group_IT_number 15
_symmetry_cell_setting 'monoclinic'
loop_
_space_group_symop_operation_xyz
x,y,z
-x,y,1/2-z
-x,-y,-z
x,-y,1/2+z
1/2+x,1/2+y,z
1/2-x,1/2+y,1/2-z
1/2-x,1/2-y,-z
1/2+x,1/2-y,1/2+z
loop_
_atom_site_type_symbol
_atom_site_label
_atom_site_fract_x
_atom_site_fract_y
_atom_site_fract_z
Si Si1 0.130562 0.080902 0.151088
Si Si2 0.037195 0.715020 0.502774
Si Si3 0.197571 0.783472 0.751146
Si Si4 0.246851 0.034478 0.643928
Si Si5 0.911184 0.563904 0.103402
O O1 0.166054 0.138871 0.240656
O O2 0.000000 0.098623 0.250000
O O3 0.129187 0.003077 0.226397
O O4 0.220766 0.075150 0.856062
O O5 0.185593 0.724406 0.282208
O O6 0.020193 0.633611 0.524191
O O7 0.000000 0.738896 0.750000
O O8 0.933752 0.748544 0.525083
O O9 0.250000 0.750000 0.500000
O O10 0.324773 0.074403 0.392818
O O11 0.325791 0.966181 0.572313
O O12 0.000000 0.500000 0.000000
#
# Coordination Sequence:
#
# PCOD9273202 Si02
#       5
#     8   8   8   8   8
#     4  11  21  40  62  95 125 167 217 257 330 388
#     4  10  20  37  63  91 123 170 222 261 315 388
#     4  10  21  37  62  90 120 172 218 262 310 395
#     4  10  23  36  63  95 129 160 211 271 327 379
#     4  11  21  38  61  99 127 167 212 275 325 377
#
# _framework density 24.470262999999999
#
# number of rings (size 3 to 8) (size 9 to 14) (size 15 to 20)
#    0.000    1.600    2.000    4.200    8.400    0.000 
#    0.000    0.000    0.000   15.600    0.000    0.000 
#    0.000    0.000    0.000    0.000    0.000    0.000 
#
# Total GULP energy -111626.844312 kJ/mol
# GULP energy per Si atom -5581.342216 kJ/mol
# Density = 2.441457 g / cm^3
# Si number density = 24.470263 Si / 1000 Ang^3
#
#
#
# Elastic Constant Matrix: (Units=GPa)
#
#
# Indices 1 2 3 4 5 6 
#
# 1 108.0587 35.3304 44.0136 0.0000 -53.2400 0.0000
# 2 35.3304 96.5465 22.6952 0.0000 -26.9255 0.0000
# 3 44.0136 22.6952 105.2727 0.0000 -3.3904 0.0000
# 4 0.0000 0.0000 0.0000 16.1074 0.0000 -6.0740
# 5 -53.2400 -26.9255 -3.3904 0.0000 47.5146 0.0000
# 6 0.0000 0.0000 0.0000 -6.0740 0.0000 31.5769
#
#
#
# Elastic Compliance Matrix: (Units=1/GPa)
#
#
# Indices 1 2 3 4 5 6 
#
# 1 0.030391 0.001100 -0.011854 0.000000 0.033830 0.000000
# 2 0.001100 0.012997 -0.002992 0.000000 0.008384 0.000000
# 3 -0.011854 -0.002992 0.014651 0.000000 -0.013932 0.000000
# 4 0.000000 0.000000 0.000000 0.066939 0.000000 0.012876
# 5 0.033830 0.008384 -0.013932 0.000000 0.062710 0.000000
# 6 0.000000 0.000000 0.000000 0.012876 0.000000 0.034146
#
#
# Mechanical properties :
#
#
# Convention : Reuss Voigt Hill
#
# Bulk Modulus (GPa) = 32.73559 57.10628 44.92093
# Shear Modulus (GPa) = 19.26735 32.89569 26.08152
#
# Velocity S-wave (km/s) = 2.80907 3.67047 3.26827
# Velocity P-wave (km/s) = 4.89162 6.43046 5.71308
#
# Compressibility (1/GPa) = 0.03054779
#
# Stress axis : x y z
#
# Youngs Moduli (GPa) = 32.90476 76.94310 68.25312
#
# Poissons Ratio (x) = -0.08464 0.80905
# Poissons Ratio (y) = -0.03620 0.20420
# Poissons Ratio (z) = 0.39004 0.23020
#
# Static dielectric constant tensor:
#      x y z
#    x 2.334290 0.000000 -0.104820 
#    y 0.000000 1.947670 0.000000 
#    z -0.104820 0.000000 1.960390 
# 
# From -- ./inp_files/49973.got.cif
#   From: 2010.05.17/outbox.cif.g08.bks.cpg/sg15_25_cif.got.tgz:49973.got - 2010.06.03 18:47:42.
