data_PCOD9273427
_publ_section_title
;
Structure prediction by ZEFSAII (Michael W. Deem and Ramdas Pophale) SiO2 
 PCOD9273427
Probable space group: C 2/C
;
_chemical_formula_sum "Si O2"
_cell_formula_units_Z 48
_cell_length_a 13.815733
_cell_length_b 15.449459
_cell_length_c 10.040909
_cell_angle_alpha 90.000000
_cell_angle_beta 85.169956
_cell_angle_gamma 90.000000
_cell_volume 2135.577058
_symmetry_space_group_name_H-M "C 2/C"
_symmetry_group_IT_number 15
_symmetry_cell_setting 'monoclinic'
loop_
_space_group_symop_operation_xyz
x,y,z
-x,y,1/2-z
-x,-y,-z
x,-y,1/2+z
1/2+x,1/2+y,z
1/2-x,1/2+y,1/2-z
1/2-x,1/2-y,-z
1/2+x,1/2-y,1/2+z
loop_
_atom_site_type_symbol
_atom_site_label
_atom_site_fract_x
_atom_site_fract_y
_atom_site_fract_z
Si Si1 0.212406 0.607452 0.183339
Si Si2 0.688070 0.582674 0.843259
Si Si3 0.500000 0.496817 0.250000
Si Si4 0.867890 0.145100 0.378207
Si Si5 0.500000 0.216055 0.750000
Si Si6 0.681468 0.861239 0.392322
Si Si7 0.434390 0.983909 0.637524
O O1 0.252906 0.508832 0.150927
O O2 0.295962 0.650159 0.261302
O O3 0.114112 0.599092 0.283571
O O4 0.196920 0.657348 0.045783
O O5 0.577155 0.558567 0.823134
O O6 0.729652 0.642417 0.719841
O O7 0.691599 0.633549 0.980699
O O8 0.434279 0.559616 0.349034
O O9 0.939652 0.225450 0.360894
O O10 0.415685 0.173744 0.667902
O O11 0.660283 0.964083 0.394314
O O12 0.500000 0.020342 0.750000
O O13 0.500000 0.000000 0.500000
#
# Coordination Sequence:
#
# PCOD9273427 Si02
#       7
#     8   8   4   8   4   8   8
#     4  10  21  37  62  94 122 153 196 257 313 356
#     4  10  20  37  65  94 118 148 202 256 312 357
#     4   9  18  36  66  96 124 145 190 260 322 361
#     4  10  22  39  61  88 121 160 204 250 302 372
#     4  11  26  42  58  80 122 173 212 246 302 361
#     4  11  23  38  58  87 124 163 199 246 303 365
#     4  11  20  34  61  96 125 153 193 248 308 357
#
# _framework density 22.476358999999999
#
# number of rings (size 3 to 8) (size 9 to 14) (size 15 to 20)
#    0.000    1.667    2.500    3.500    2.333    4.000 
#    0.000    0.000    0.000    2.000    0.000    0.000 
#    0.000    0.000    0.000    0.000    0.000    0.000 
#
# Total GULP energy -133720.650034 kJ/mol
# GULP energy per Si atom -5571.693751 kJ/mol
# Density = 2.242520 g / cm^3
# Si number density = 22.476359 Si / 1000 Ang^3
#
#
#
# Elastic Constant Matrix: (Units=GPa)
#
#
# Indices 1 2 3 4 5 6 
#
# 1 115.4971 21.1333 65.9556 0.0000 16.2407 0.0000
# 2 21.1333 27.2919 27.7546 0.0000 6.9228 0.0000
# 3 65.9556 27.7546 182.9146 0.0000 0.5157 0.0000
# 4 0.0000 0.0000 0.0000 0.1733 0.0000 3.6911
# 5 16.2407 6.9228 0.5157 0.0000 46.6030 0.0000
# 6 0.0000 0.0000 0.0000 3.6911 0.0000 14.6604
#
#
#
# Elastic Compliance Matrix: (Units=1/GPa)
#
#
# Indices 1 2 3 4 5 6 
#
# 1 0.012092 -0.004802 -0.003622 0.000000 -0.003460 0.000000
# 2 -0.004802 0.047207 -0.005416 0.000000 -0.005279 0.000000
# 3 -0.003622 -0.005416 0.007589 0.000000 0.001983 0.000000
# 4 0.000000 0.000000 0.000000 -1.322751 0.000000 0.333032
# 5 -0.003460 -0.005279 0.001983 0.000000 0.023426 0.000000
# 6 0.000000 0.000000 0.000000 0.333032 0.000000 -0.015637
#
#
# Mechanical properties :
#
#
# Convention : Reuss Voigt Hill
#
# Bulk Modulus (GPa) = 25.50562 61.71006 43.60784
# Shear Modulus (GPa) = -4.14139 26.34469 11.10165
#
# Velocity S-wave (km/s) = -1.35888 3.42732 2.22485
# Velocity P-wave (km/s) = 2.98502 6.57093 5.10331
#
# Compressibility (1/GPa) = 0.03920704
#
# Stress axis : x y z
#
# Youngs Moduli (GPa) = 82.70164 21.18332 131.76651
#
# Poissons Ratio (x) = 0.10173 0.47720
# Poissons Ratio (y) = 0.39716 0.71371
# Poissons Ratio (z) = 0.29951 0.11474
#
# Static dielectric constant tensor:
#      x y z
#    x 1.831040 0.000000 -0.052280 
#    y 0.000000 1.974220 0.000000 
#    z -0.052280 0.000000 1.881410 
# 
# From -- ./inp_files/39692.got.cif
#   From: 2010.05.17/outbox.cif.g08.bks.cpg/sg15_20_cif.got.tgz:39692.got - 2010.06.03 18:47:42.
