data_PCOD9273522
_publ_section_title
;
Structure prediction by ZEFSAII (Michael W. Deem and Ramdas Pophale) SiO2 
 PCOD9273522
Probable space group: C 2/C
;
_chemical_formula_sum "Si O2"
_cell_formula_units_Z 64
_cell_length_a 18.137962
_cell_length_b 7.256185
_cell_length_c 21.834616
_cell_angle_alpha 90.000000
_cell_angle_beta 98.931095
_cell_angle_gamma 90.000000
_cell_volume 2838.864872
_symmetry_space_group_name_H-M "C 2/C"
_symmetry_group_IT_number 15
_symmetry_cell_setting 'monoclinic'
loop_
_space_group_symop_operation_xyz
x,y,z
-x,y,1/2-z
-x,-y,-z
x,-y,1/2+z
1/2+x,1/2+y,z
1/2-x,1/2+y,1/2-z
1/2-x,1/2-y,-z
1/2+x,1/2-y,1/2+z
loop_
_atom_site_type_symbol
_atom_site_label
_atom_site_fract_x
_atom_site_fract_y
_atom_site_fract_z
Si Si1 0.213691 0.981205 0.187443
Si Si2 0.340923 0.128497 0.795771
Si Si3 0.379264 0.391069 0.998635
Si Si4 0.496917 0.503481 0.409292
Si Si5 0.094364 0.468770 0.465800
Si Si6 0.934274 0.937921 0.780729
Si Si7 0.255050 0.116823 0.560199
Si Si8 0.939071 0.595183 0.405032
O O1 0.227009 0.864138 0.127276
O O2 0.061436 0.069035 0.047373
O O3 0.135770 0.932848 0.211523
O O4 0.220313 0.465871 0.255009
O O5 0.396056 0.244642 0.757549
O O6 0.384644 0.997995 0.848755
O O7 0.301624 0.300139 0.827592
O O8 0.417789 0.506717 0.058466
O O9 0.385662 0.179177 0.015565
O O10 0.297334 0.449945 0.969649
O O11 0.477719 0.616209 0.347659
O O12 0.474911 0.291058 0.391856
O O13 0.156551 0.413609 0.425487
O O14 0.010080 0.465513 0.430564
O O15 0.098733 0.370245 0.532896
O O16 0.000000 0.022152 0.750000
O O17 0.250000 0.250000 0.500000
#
# Coordination Sequence:
#
# PCOD9273522 Si02
#       8
#     8   8   8   8   8   8   8   8
#     4  10  25  46  64  98 133 178 229 282 344 412
#     4  10  24  42  72  91 140 179 227 285 343 404
#     4  10  20  39  60  95 128 174 208 278 329 404
#     4  10  20  37  67  90 127 165 225 266 340 395
#     4  10  22  37  63  96 134 170 226 266 345 404
#     4  10  23  44  66  93 131 177 227 278 334 409
#     4  12  24  40  65  99 136 177 225 288 349 419
#     4  10  21  41  64  97 128 178 215 283 331 407
#
# _framework density 22.544219999999999
#
# number of rings (size 3 to 8) (size 9 to 14) (size 15 to 20)
#    0.750    1.000    1.250    2.625    1.750    5.000 
#    6.750    0.625    0.000    0.000    0.000    0.000 
#    0.000    0.000    0.000    0.000    0.000    0.000 
#
# Total GULP energy -178337.697254 kJ/mol
# GULP energy per Si atom -5573.053039 kJ/mol
# Density = 2.249291 g / cm^3
# Si number density = 22.544220 Si / 1000 Ang^3
#
#
#
# Elastic Constant Matrix: (Units=GPa)
#
#
# Indices 1 2 3 4 5 6 
#
# 1 132.7266 16.2606 70.4655 0.0000 -2.5981 0.0000
# 2 16.2606 55.7318 23.3537 0.0000 -1.4920 0.0000
# 3 70.4655 23.3537 85.2608 0.0000 3.5452 0.0000
# 4 0.0000 0.0000 0.0000 24.4900 0.0000 11.9558
# 5 -2.5981 -1.4920 3.5452 0.0000 41.3657 0.0000
# 6 0.0000 0.0000 0.0000 11.9558 0.0000 29.7253
#
#
#
# Elastic Compliance Matrix: (Units=1/GPa)
#
#
# Indices 1 2 3 4 5 6 
#
# 1 0.013602 0.000932 -0.011575 0.000000 0.001880 0.000000
# 2 0.000932 0.020394 -0.006412 0.000000 0.001344 0.000000
# 3 -0.011575 -0.006412 0.023174 0.000000 -0.002944 0.000000
# 4 0.000000 0.000000 0.000000 0.050810 0.000000 -0.020436
# 5 0.001880 0.001344 -0.002944 0.000000 0.024594 0.000000
# 6 0.000000 0.000000 0.000000 -0.020436 0.000000 0.041861
#
#
# Mechanical properties :
#
#
# Convention : Reuss Voigt Hill
#
# Bulk Modulus (GPa) = 43.36620 54.87542 49.12081
# Shear Modulus (GPa) = 23.12317 30.02549 26.57433
#
# Velocity S-wave (km/s) = 3.20610 3.65341 3.43704
# Velocity P-wave (km/s) = 5.74310 6.49543 6.13082
#
# Compressibility (1/GPa) = 0.02305944
#
# Stress axis : x y z
#
# Youngs Moduli (GPa) = 73.51650 49.03372 43.15109
#
# Poissons Ratio (x) = -0.04571 0.49949
# Poissons Ratio (y) = -0.06853 0.27670
# Poissons Ratio (z) = 0.85099 0.31443
#
# Static dielectric constant tensor:
#      x y z
#    x 1.874340 0.000000 -0.035160 
#    y 0.000000 1.898110 0.000000 
#    z -0.035160 0.000000 1.923560 
# 
# From -- ./inp_files/276287.got.cif
#   From: 2010.05.17/outbox.cif.g08.bks.cpg/sg15_139_cif.got.tgz:276287.got - 2010.06.03 18:47:42.
