data_PCOD9273931
_publ_section_title
;
Structure prediction by ZEFSAII (Michael W. Deem and Ramdas Pophale) SiO2 
 PCOD9273931
Probable space group: C 2/C
;
_chemical_formula_sum "Si O2"
_cell_formula_units_Z 56
_cell_length_a 17.307949
_cell_length_b 10.747843
_cell_length_c 22.027658
_cell_angle_alpha 90.000000
_cell_angle_beta 142.100924
_cell_angle_gamma 90.000000
_cell_volume 2517.075838
_symmetry_space_group_name_H-M "C 2/C"
_symmetry_group_IT_number 15
_symmetry_cell_setting 'monoclinic'
loop_
_space_group_symop_operation_xyz
x,y,z
-x,y,1/2-z
-x,-y,-z
x,-y,1/2+z
1/2+x,1/2+y,z
1/2-x,1/2+y,1/2-z
1/2-x,1/2-y,-z
1/2+x,1/2-y,1/2+z
loop_
_atom_site_type_symbol
_atom_site_label
_atom_site_fract_x
_atom_site_fract_y
_atom_site_fract_z
Si Si1 0.387354 0.402883 0.940813
Si Si2 0.657186 0.214387 0.687277
Si Si3 0.299145 0.430136 0.483590
Si Si4 0.321232 0.032037 0.366343
Si Si5 0.460535 0.539195 0.795448
Si Si6 0.613301 0.152114 0.966901
Si Si7 0.923435 0.751559 0.365432
O O1 0.343780 0.343217 0.850979
O O2 0.500000 0.500000 0.000000
O O3 0.286946 0.476331 0.919376
O O4 0.457784 0.295721 0.022690
O O5 0.527365 0.188775 0.640084
O O6 0.786713 0.197471 0.804017
O O7 0.660087 0.110818 0.636742
O O8 0.425228 0.477579 0.596317
O O9 0.320989 0.285992 0.480228
O O10 0.185636 0.425361 0.460699
O O11 0.377487 0.079373 0.464216
O O12 0.394685 0.107363 0.358789
O O13 0.168486 0.039908 0.276964
O O14 0.500000 0.545818 0.750000
O O15 0.438782 0.677224 0.810942
#
# Coordination Sequence:
#
# PCOD9273931 Si02
#       7
#     8   8   8   8   8   8   8
#     4  11  21  40  63  91 121 165 213 253 299 384
#     4  11  23  37  62  90 121 162 206 253 312 364
#     4  10  21  36  60  87 117 161 203 250 312 362
#     4  11  21  38  59  90 121 156 205 255 307 371
#     4  10  20  38  60  88 122 164 211 254 308 384
#     4  11  20  36  58  88 123 154 198 261 308 362
#     4  10  23  37  62  89 121 166 204 257 309 365
#
# _framework density 22.248038999999999
#
# number of rings (size 3 to 8) (size 9 to 14) (size 15 to 20)
#    0.000    1.429    4.286    1.286    4.000    0.000 
#    0.000    3.571    0.000    0.000    0.000    0.000 
#    0.000    0.000    0.000    0.000    0.000    0.000 
#
# Total GULP energy -156269.481873 kJ/mol
# GULP energy per Si atom -5581.052924 kJ/mol
# Density = 2.219740 g / cm^3
# Si number density = 22.248039 Si / 1000 Ang^3
#
#
#
# Elastic Constant Matrix: (Units=GPa)
#
#
# Indices 1 2 3 4 5 6 
#
# 1 101.3421 35.4819 23.9320 0.0000 5.9932 0.0000
# 2 35.4819 85.5226 5.1961 0.0000 -6.3010 0.0000
# 3 23.9320 5.1961 53.3581 0.0000 7.7129 0.0000
# 4 0.0000 0.0000 0.0000 26.8844 0.0000 1.4026
# 5 5.9932 -6.3010 7.7129 0.0000 27.3680 0.0000
# 6 0.0000 0.0000 0.0000 1.4026 0.0000 35.9423
#
#
#
# Elastic Compliance Matrix: (Units=1/GPa)
#
#
# Indices 1 2 3 4 5 6 
#
# 1 0.013056 -0.005314 -0.004950 0.000000 -0.002688 0.000000
# 2 -0.005314 0.014193 0.000376 0.000000 0.004325 0.000000
# 3 -0.004950 0.000376 0.021637 0.000000 -0.004927 0.000000
# 4 0.000000 0.000000 0.000000 0.037272 0.000000 -0.001454
# 5 -0.002688 0.004325 -0.004927 0.000000 0.039512 0.000000
# 6 0.000000 0.000000 0.000000 -0.001454 0.000000 0.027879
#
#
# Mechanical properties :
#
#
# Convention : Reuss Voigt Hill
#
# Bulk Modulus (GPa) = 34.35173 41.04922 37.70048
# Shear Modulus (GPa) = 27.31810 29.74646 28.53228
#
# Velocity S-wave (km/s) = 3.50793 3.66052 3.58503
# Velocity P-wave (km/s) = 5.64635 6.02965 5.84114
#
# Compressibility (1/GPa) = 0.02911061
#
# Stress axis : x y z
#
# Youngs Moduli (GPa) = 76.59355 70.45562 46.21717
#
# Poissons Ratio (x) = 0.37440 0.22877
# Poissons Ratio (y) = 0.40702 -0.01738
# Poissons Ratio (z) = 0.37913 -0.02649
#
# Static dielectric constant tensor:
#      x y z
#    x 1.821660 0.000000 0.011950 
#    y 0.000000 1.861050 0.000000 
#    z 0.011950 0.000000 1.856940 
# 
# From -- ./inp_files/298584.got.cif
#   From: 2010.05.17/outbox.cif.g08.bks.cpg/sg15_150_cif.got.tgz:298584.got - 2010.06.03 18:47:42.
