data_PCOD9273672
_publ_section_title
;
Structure prediction by ZEFSAII (Michael W. Deem and Ramdas Pophale) SiO2 
 PCOD9273672
Probable space group: C 2/C
;
_chemical_formula_sum "Si O2"
_cell_formula_units_Z 48
_cell_length_a 18.016133
_cell_length_b 14.512787
_cell_length_c 20.646665
_cell_angle_alpha 90.000000
_cell_angle_beta 20.915150
_cell_angle_gamma 90.000000
_cell_volume 1927.135662
_symmetry_space_group_name_H-M "C 2/C"
_symmetry_group_IT_number 15
_symmetry_cell_setting 'monoclinic'
loop_
_space_group_symop_operation_xyz
x,y,z
-x,y,1/2-z
-x,-y,-z
x,-y,1/2+z
1/2+x,1/2+y,z
1/2-x,1/2+y,1/2-z
1/2-x,1/2-y,-z
1/2+x,1/2-y,1/2+z
loop_
_atom_site_type_symbol
_atom_site_label
_atom_site_fract_x
_atom_site_fract_y
_atom_site_fract_z
Si Si1 0.758561 0.402566 0.954916
Si Si2 0.164781 0.630412 0.971708
Si Si3 0.504161 0.414256 0.823226
Si Si4 0.765840 0.789339 0.657282
Si Si5 0.889565 0.902521 0.061160
Si Si6 0.949034 0.441601 0.477556
O O1 0.755373 0.343803 0.023101
O O2 0.726095 0.341726 0.918100
O O3 0.000000 0.438449 0.750000
O O4 0.579871 0.479379 0.109136
O O5 0.139164 0.521830 0.997185
O O6 0.934358 0.667902 0.146434
O O7 0.279074 0.682524 0.821114
O O8 0.500000 0.383774 0.750000
O O9 0.736972 0.386158 0.657051
O O10 0.376850 0.390469 0.993490
O O11 0.968462 0.819586 0.529822
O O12 0.658266 0.900808 0.278798
O O13 0.000000 0.000000 0.000000
O O14 0.000000 0.500000 0.500000
#
# Coordination Sequence:
#
# PCOD9273672 Si02
#       6
#     8   8   8   8   8   8
#     4  10  20  38  57  88 134 176 208 253 314 400
#     4  11  23  36  56  92 129 171 211 255 325 394
#     4  12  24  37  66  95 127 171 223 277 322 386
#     4  11  23  37  59  87 132 176 214 258 318 390
#     4  12  22  42  62  87 130 173 225 275 314 381
#     4  12  23  40  65  92 128 171 218 272 327 390
#
# _framework density 24.907432
#
# number of rings (size 3 to 8) (size 9 to 14) (size 15 to 20)
#    0.000    0.667    6.667    1.500    4.667    0.000 
#    0.000    0.000    0.000    0.000    0.000    4.667 
#    0.000    0.000    0.000    0.000    0.000    0.000 
#
# Total GULP energy -133851.183963 kJ/mol
# GULP energy per Si atom -5577.132665 kJ/mol
# Density = 2.485074 g / cm^3
# Si number density = 24.907432 Si / 1000 Ang^3
#
#
#
# Elastic Constant Matrix: (Units=GPa)
#
#
# Indices 1 2 3 4 5 6 
#
# 1 153.1807 0.0117 17.1793 -0.0340 15.4152 0.0105
# 2 0.0117 21.7532 -13.6894 0.0503 -3.7443 -0.0096
# 3 17.1793 -13.6894 171.0810 -0.0058 -3.0334 0.0087
# 4 -0.0340 0.0503 -0.0058 5.5387 0.0029 10.5657
# 5 15.4152 -3.7443 -3.0334 0.0029 44.3113 -0.0072
# 6 0.0105 -0.0096 0.0087 10.5657 -0.0072 27.8999
#
#
#
# Elastic Compliance Matrix: (Units=1/GPa)
#
#
# Indices 1 2 3 4 5 6 
#
# 1 0.006874 -0.000950 -0.000811 0.000208 -0.002527 -0.000082
# 2 -0.000950 0.049400 0.004133 -0.001748 0.004788 0.000679
# 3 -0.000811 0.004133 0.006276 -0.000132 0.001061 0.000050
# 4 0.000208 -0.001748 -0.000132 0.650459 -0.000311 -0.246329
# 5 -0.002527 0.004788 0.001061 -0.000311 0.023924 0.000126
# 6 -0.000082 0.000679 0.000050 -0.246329 0.000126 0.129127
#
#
# Mechanical properties :
#
#
# Convention : Reuss Voigt Hill
#
# Bulk Modulus (GPa) = 14.85998 39.22422 27.04210
# Shear Modulus (GPa) = 5.65773 38.38420 22.02097
#
# Velocity S-wave (km/s) = 1.50879 3.92991 2.97663
# Velocity P-wave (km/s) = 3.00238 6.03112 4.76386
#
# Compressibility (1/GPa) = 0.06729482
#
# Stress axis : x y z
#
# Youngs Moduli (GPa) = 145.48372 20.24286 159.33365
#
# Poissons Ratio (x) = 0.01922 0.12922
# Poissons Ratio (y) = 0.13814 -0.65853
# Poissons Ratio (z) = 0.11799 -0.08366
#
# Static dielectric constant tensor:
#      x y z
#    x 2.092640 0.000150 0.041940 
#    y 0.000150 2.139610 0.000060 
#    z 0.041940 0.000060 2.166550 
# 
# From -- ./inp_files/249703.got.cif
#   From: 2010.05.17/outbox.cif.g08.bks.cpg/sg15_125_cif.got.tgz:249703.got - 2010.06.03 18:47:42.
