data_PCOD9273147
_publ_section_title
;
Structure prediction by ZEFSAII (Michael W. Deem and Ramdas Pophale) SiO2 
 PCOD9273147
Probable space group: C 2/C
;
_chemical_formula_sum "Si O2"
_cell_formula_units_Z 44
_cell_length_a 11.374499
_cell_length_b 14.662753
_cell_length_c 22.498727
_cell_angle_alpha 90.000000
_cell_angle_beta 142.017074
_cell_angle_gamma 90.000000
_cell_volume 2309.308856
_symmetry_space_group_name_H-M "C 2/C"
_symmetry_group_IT_number 15
_symmetry_cell_setting 'monoclinic'
loop_
_space_group_symop_operation_xyz
x,y,z
-x,y,1/2-z
-x,-y,-z
x,-y,1/2+z
1/2+x,1/2+y,z
1/2-x,1/2+y,1/2-z
1/2-x,1/2-y,-z
1/2+x,1/2-y,1/2+z
loop_
_atom_site_type_symbol
_atom_site_label
_atom_site_fract_x
_atom_site_fract_y
_atom_site_fract_z
Si Si1 0.248099 0.107380 0.208224
Si Si2 0.511371 0.024105 0.101774
Si Si3 0.383980 0.302812 0.508257
Si Si4 0.774810 0.976245 0.407049
Si Si5 0.000000 0.236820 0.750000
Si Si6 0.131297 0.361706 0.066506
O O1 0.305845 0.073445 0.296097
O O2 0.379827 0.194208 0.243812
O O3 0.032756 0.138463 0.107727
O O4 0.288604 0.022758 0.179538
O O5 0.353019 0.016259 0.090527
O O6 0.575190 0.927284 0.099528
O O7 0.420357 0.082485 0.012637
O O8 0.250000 0.250000 0.500000
O O9 0.271893 0.368425 0.418280
O O10 0.506155 0.229455 0.520923
O O11 0.000000 0.000000 0.500000
O O12 0.848517 0.172577 0.656548
#
# Coordination Sequence:
#
# PCOD9273147 Si02
#       6
#     8   8   8   8   4   8
#     4  10  21  39  60  88 118 161 201 248 293 359
#     4  11  21  42  59  88 127 156 203 243 311 362
#     4  10  20  41  62  88 122 155 204 250 298 356
#     4  10  20  37  63  84 116 161 197 245 296 355
#     4  10  20  40  58  88 118 152 210 240 292 354
#     4  10  24  39  61  89 122 161 191 255 305 358
#
# _framework density 19.053319999999999
#
# number of rings (size 3 to 8) (size 9 to 14) (size 15 to 20)
#    0.000    1.818    3.636    0.000    0.000    3.636 
#    6.545    0.000    0.000    0.000    0.000    0.000 
#    0.000    0.000    0.000    0.000    0.000    0.000 
#
# Total GULP energy -122678.732109 kJ/mol
# GULP energy per Si atom -5576.306005 kJ/mol
# Density = 1.900995 g / cm^3
# Si number density = 19.053320 Si / 1000 Ang^3
#
#
#
# Elastic Constant Matrix: (Units=GPa)
#
#
# Indices 1 2 3 4 5 6 
#
# 1 51.8541 15.0797 29.0200 0.0000 1.9724 0.0000
# 2 15.0797 102.0658 51.0177 0.0000 -5.8278 0.0000
# 3 29.0200 51.0177 89.4559 0.0000 -2.2653 0.0000
# 4 0.0000 0.0000 0.0000 33.7944 0.0000 3.3937
# 5 1.9724 -5.8278 -2.2653 0.0000 25.3766 0.0000
# 6 0.0000 0.0000 0.0000 3.3937 0.0000 19.1261
#
#
#
# Elastic Compliance Matrix: (Units=1/GPa)
#
#
# Indices 1 2 3 4 5 6 
#
# 1 0.023732 0.000324 -0.007947 0.000000 -0.002479 0.000000
# 2 0.000324 0.013863 -0.007949 0.000000 0.002449 0.000000
# 3 -0.007947 -0.007949 0.018301 0.000000 0.000426 0.000000
# 4 0.000000 0.000000 0.000000 0.030128 0.000000 -0.005346
# 5 -0.002479 0.002449 0.000426 0.000000 0.040200 0.000000
# 6 0.000000 0.000000 0.000000 -0.005346 0.000000 0.053233
#
#
# Mechanical properties :
#
#
# Convention : Reuss Voigt Hill
#
# Bulk Modulus (GPa) = 40.39960 48.17898 44.28929
# Shear Modulus (GPa) = 22.84659 25.54329 24.19494
#
# Velocity S-wave (km/s) = 3.46654 3.66542 3.56737
# Velocity P-wave (km/s) = 6.10508 6.57686 6.34536
#
# Compressibility (1/GPa) = 0.02475272
#
# Stress axis : x y z
#
# Youngs Moduli (GPa) = 42.13691 72.13412 54.64170
#
# Poissons Ratio (x) = -0.02339 0.43421
# Poissons Ratio (y) = -0.01366 0.43437
# Poissons Ratio (z) = 0.33484 0.57343
#
# Static dielectric constant tensor:
#      x y z
#    x 1.656830 0.000000 0.026730 
#    y 0.000000 1.691260 0.000000 
#    z 0.026730 0.000000 1.702460 
# 
# From -- ./inp_files/269813.got.cif
#   From: 2010.05.17/outbox.cif.g08.bks.cpg/sg15_135_cif.got.tgz:269813.got - 2010.06.03 18:47:42.
