data_PCOD9273849
_publ_section_title
;
Structure prediction by ZEFSAII (Michael W. Deem and Ramdas Pophale) SiO2 
 PCOD9273849
Probable space group: C 2/C
;
_chemical_formula_sum "Si O2"
_cell_formula_units_Z 52
_cell_length_a 18.611804
_cell_length_b 13.071930
_cell_length_c 18.240776
_cell_angle_alpha 90.000000
_cell_angle_beta 30.602035
_cell_angle_gamma 90.000000
_cell_volume 2259.179265
_symmetry_space_group_name_H-M "C 2/C"
_symmetry_group_IT_number 15
_symmetry_cell_setting 'monoclinic'
loop_
_space_group_symop_operation_xyz
x,y,z
-x,y,1/2-z
-x,-y,-z
x,-y,1/2+z
1/2+x,1/2+y,z
1/2-x,1/2+y,1/2-z
1/2-x,1/2-y,-z
1/2+x,1/2-y,1/2+z
loop_
_atom_site_type_symbol
_atom_site_label
_atom_site_fract_x
_atom_site_fract_y
_atom_site_fract_z
Si Si1 0.902245 0.336344 0.768135
Si Si2 0.965862 0.711178 0.997134
Si Si3 0.230318 0.815106 0.219357
Si Si4 0.599434 0.987388 0.501155
Si Si5 0.275404 0.029471 0.950567
Si Si6 0.790489 0.733472 0.880053
Si Si7 0.500000 0.616475 0.250000
O O1 0.800489 0.250248 0.825994
O O2 0.000000 0.299949 0.750000
O O3 0.992022 0.397542 0.625485
O O4 0.806072 0.422472 0.888472
O O5 0.908546 0.784355 0.113143
O O6 0.851028 0.746510 0.038817
O O7 0.949136 0.586257 0.003759
O O8 0.135124 0.723847 0.850560
O O9 0.276349 0.927597 0.152012
O O10 0.654597 0.031866 0.530577
O O11 0.112222 0.050341 0.107753
O O12 0.335255 0.115256 0.841864
O O13 0.917552 0.812914 0.763198
O O14 0.750000 0.750000 0.000000
#
# Coordination Sequence:
#
# PCOD9273849 Si02
#       7
#     8   8   8   8   8   8   4
#     4  10  25  48  76 104 139 195 249 298 357 434
#     4  12  27  46  76 103 152 189 235 305 368 442
#     4  12  28  48  72 105 142 201 236 293 368 433
#     4  11  24  51  70 103 146 191 240 297 368 429
#     4  10  23  39  75 104 141 189 244 305 352 426
#     4  10  22  39  66 108 140 186 231 297 358 428
#     4  10  20  38  60 112 146 170 242 300 356 414
#
# _framework density 23.017209000000001
#
# number of rings (size 3 to 8) (size 9 to 14) (size 15 to 20)
#    0.000    1.231    4.615    0.462    9.692    3.692 
#    1.385    1.538    0.000    0.000    0.000    0.000 
#    0.000    0.000    0.000    0.000    0.000    0.000 
#
# Total GULP energy -144952.702655 kJ/mol
# GULP energy per Si atom -5575.103948 kJ/mol
# Density = 2.296482 g / cm^3
# Si number density = 23.017209 Si / 1000 Ang^3
#
#
#
# Elastic Constant Matrix: (Units=GPa)
#
#
# Indices 1 2 3 4 5 6 
#
# 1 98.4299 26.0309 -9.9384 0.0000 -17.3547 0.0000
# 2 26.0309 67.2541 5.6065 0.0000 -10.3338 0.0000
# 3 -9.9384 5.6065 91.3903 -0.0003 -11.8167 0.0001
# 4 0.0000 0.0000 -0.0003 33.6417 0.0001 -6.7421
# 5 -17.3547 -10.3338 -11.8167 0.0001 34.9034 0.0000
# 6 0.0000 0.0000 0.0001 -6.7421 0.0000 41.8016
#
#
#
# Elastic Compliance Matrix: (Units=1/GPa)
#
#
# Indices 1 2 3 4 5 6 
#
# 1 0.012518 -0.004152 0.002365 0.000000 0.005796 0.000000
# 2 -0.004152 0.016967 -0.001161 0.000000 0.002566 0.000000
# 3 0.002365 -0.001161 0.011899 0.000000 0.004861 0.000000
# 4 0.000000 0.000000 0.000000 0.030718 0.000000 0.004954
# 5 0.005796 0.002566 0.004861 0.000000 0.033938 0.000000
# 6 0.000000 0.000000 0.000000 0.004954 0.000000 0.024722
#
#
# Mechanical properties :
#
#
# Convention : Reuss Voigt Hill
#
# Bulk Modulus (GPa) = 28.17671 33.38583 30.78127
# Shear Modulus (GPa) = 33.67323 37.76100 35.71711
#
# Velocity S-wave (km/s) = 3.82901 4.05477 3.94351
# Velocity P-wave (km/s) = 5.64062 6.03803 5.84270
#
# Compressibility (1/GPa) = 0.03549030
#
# Stress axis : x y z
#
# Youngs Moduli (GPa) = 79.88326 58.93790 84.04038
#
# Poissons Ratio (x) = 0.24470 -0.19879
# Poissons Ratio (y) = 0.33166 0.09754
# Poissons Ratio (z) = -0.18896 0.06840
#
# Static dielectric constant tensor:
#      x y z
#    x 1.951960 0.000000 0.060570 
#    y 0.000000 1.968580 0.000000 
#    z 0.060570 0.000000 1.944460 
# 
# From -- ./inp_files/252709.got.cif
#   From: 2010.05.17/outbox.cif.g08.bks.cpg/sg15_127_cif.got.tgz:252709.got - 2010.06.03 18:47:42.
