data_PCOD9273657
_publ_section_title
;
Structure prediction by ZEFSAII (Michael W. Deem and Ramdas Pophale) SiO2 
 PCOD9273657
Probable space group: C 2/C
;
_chemical_formula_sum "Si O2"
_cell_formula_units_Z 44
_cell_length_a 18.562238
_cell_length_b 24.770350
_cell_length_c 11.409722
_cell_angle_alpha 90.000000
_cell_angle_beta 27.473179
_cell_angle_gamma 90.000000
_cell_volume 2420.206284
_symmetry_space_group_name_H-M "C 2/C"
_symmetry_group_IT_number 15
_symmetry_cell_setting 'monoclinic'
loop_
_space_group_symop_operation_xyz
x,y,z
-x,y,1/2-z
-x,-y,-z
x,-y,1/2+z
1/2+x,1/2+y,z
1/2-x,1/2+y,1/2-z
1/2-x,1/2-y,-z
1/2+x,1/2-y,1/2+z
loop_
_atom_site_type_symbol
_atom_site_label
_atom_site_fract_x
_atom_site_fract_y
_atom_site_fract_z
Si Si1 0.668722 0.397825 0.052902
Si Si2 0.611643 0.145331 0.442176
Si Si3 0.639442 0.025319 0.371659
Si Si4 0.375224 0.453239 0.145378
Si Si5 0.272791 0.813634 0.480166
Si Si6 0.000000 0.883042 0.750000
O O1 0.500000 0.382107 0.250000
O O2 0.652313 0.410086 0.212334
O O3 0.795238 0.356746 0.815433
O O4 0.722325 0.454555 0.915339
O O5 0.590003 0.081656 0.500680
O O6 0.710765 0.170233 0.405983
O O7 0.442216 0.171512 0.682292
O O8 0.500000 0.000000 0.500000
O O9 0.713347 0.983526 0.353800
O O10 0.500000 0.500000 0.000000
O O11 0.430499 0.421360 0.951142
O O12 0.250000 0.750000 0.500000
O O13 0.135388 0.846431 0.613808
#
# Coordination Sequence:
#
# PCOD9273657 Si02
#       6
#     8   8   8   8   8   4
#     4  10  20  38  57  82 124 175 204 256 312 365
#     4   9  22  41  60  90 126 159 211 268 316 376
#     4  10  21  36  54  89 128 170 205 245 310 378
#     4  12  21  36  60  89 130 174 214 243 313 396
#     4  11  22  43  68  89 117 163 216 281 328 369
#     4  12  24  36  62  96 124 160 224 262 310 388
#
# _framework density 18.180268000000002
#
# number of rings (size 3 to 8) (size 9 to 14) (size 15 to 20)
#    1.091    0.364    1.818    5.455    0.000    3.636 
#    0.000    0.000    0.000   12.000    0.000    0.000 
#    0.000    0.000    0.000    0.000    0.000    0.000 
#
# Total GULP energy -122638.998995 kJ/mol
# GULP energy per Si atom -5574.499954 kJ/mol
# Density = 1.813889 g / cm^3
# Si number density = 18.180268 Si / 1000 Ang^3
#
#
#
# Elastic Constant Matrix: (Units=GPa)
#
#
# Indices 1 2 3 4 5 6 
#
# 1 105.2096 62.6373 45.5239 0.0120 -12.0865 -0.0008
# 2 62.6373 128.5425 45.9434 -0.0128 -9.1994 0.0005
# 3 45.5239 45.9434 103.7991 -0.0365 0.1461 0.0033
# 4 0.0120 -0.0128 -0.0365 -9.4333 0.0102 -2.3383
# 5 -12.0865 -9.1994 0.1461 0.0102 48.8321 -0.0020
# 6 -0.0008 0.0005 0.0033 -2.3383 -0.0020 26.1051
#
#
#
# Elastic Compliance Matrix: (Units=1/GPa)
#
#
# Indices 1 2 3 4 5 6 
#
# 1 0.014914 -0.005630 -0.004053 0.000044 0.002643 0.000005
# 2 -0.005630 0.011519 -0.002631 -0.000012 0.000785 -0.000001
# 3 -0.004053 -0.002631 0.012578 -0.000050 -0.001536 -0.000006
# 4 0.000044 -0.000012 -0.000050 -0.103704 0.000030 -0.009289
# 5 0.002643 0.000785 -0.001536 0.000030 0.021285 0.000005
# 6 0.000005 -0.000001 -0.000006 -0.009289 0.000005 0.037475
#
#
# Mechanical properties :
#
#
# Convention : Reuss Voigt Hill
#
# Bulk Modulus (GPa) = 69.51799 71.75113 70.63456
# Shear Modulus (GPa) = 212.88436 25.33055 119.10745
#
# Velocity S-wave (km/s) = 10.83285 3.73674 8.10290
# Velocity P-wave (km/s) = 13.95667 7.62691 11.24630
#
# Compressibility (1/GPa) = 0.01438476
#
# Stress axis : x y z
#
# Youngs Moduli (GPa) = 67.05255 86.81181 79.50408
#
# Poissons Ratio (x) = 0.48872 0.32221
# Poissons Ratio (y) = 0.37748 0.20915
# Poissons Ratio (z) = 0.27175 0.22838
#
# Static dielectric constant tensor:
#      x y z
#    x 1.501020 0.000060 -0.029430 
#    y 0.000060 1.630940 0.000030 
#    z -0.029430 0.000030 1.627910 
# 
# From -- ./inp_files/107894.got.cif
#   From: 2010.05.17/outbox.cif.g08.bks.cpg/sg15_54_cif.got.tgz:107894.got - 2010.06.03 18:47:42.
