data_PCOD9273877
_publ_section_title
;
Structure prediction by ZEFSAII (Michael W. Deem and Ramdas Pophale) SiO2 
 PCOD9273877
Probable space group: C 2/C
;
_chemical_formula_sum "Si O2"
_cell_formula_units_Z 56
_cell_length_a 8.894864
_cell_length_b 16.663720
_cell_length_c 33.231098
_cell_angle_alpha 90.000000
_cell_angle_beta 39.739131
_cell_angle_gamma 90.000000
_cell_volume 3148.879257
_symmetry_space_group_name_H-M "C 2/C"
_symmetry_group_IT_number 15
_symmetry_cell_setting 'monoclinic'
loop_
_space_group_symop_operation_xyz
x,y,z
-x,y,1/2-z
-x,-y,-z
x,-y,1/2+z
1/2+x,1/2+y,z
1/2-x,1/2+y,1/2-z
1/2-x,1/2-y,-z
1/2+x,1/2-y,1/2+z
loop_
_atom_site_type_symbol
_atom_site_label
_atom_site_fract_x
_atom_site_fract_y
_atom_site_fract_z
Si Si1 0.021246 0.367012 0.833926
Si Si2 0.000000 0.968741 0.750000
Si Si3 0.523726 0.416777 0.971438
Si Si4 0.920514 0.035469 0.681900
Si Si5 0.000000 0.414613 0.750000
Si Si6 0.442419 0.677552 0.958711
Si Si7 0.735612 0.508897 0.541118
Si Si8 0.268211 0.294584 0.180146
O O1 0.261652 0.416078 0.794248
O O2 0.069099 0.278419 0.839731
O O3 0.792297 0.405065 0.901812
O O4 0.967297 0.365325 0.797447
O O5 0.016396 0.022225 0.706712
O O6 0.358209 0.435462 0.967188
O O7 0.500000 0.500000 0.000000
O O8 0.469356 0.345657 0.014427
O O9 0.835237 0.124583 0.689784
O O10 0.100609 0.011427 0.610717
O O11 0.709713 0.974012 0.717947
O O12 0.316182 0.595162 0.969396
O O13 0.655905 0.693162 0.882701
O O14 0.250000 0.750000 0.000000
O O15 0.000000 0.500000 0.500000
O O16 0.000000 0.276696 0.250000
#
# Coordination Sequence:
#
# PCOD9273877 Si02
#       8
#     8   4   8   8   4   8   8   8
#     4  11  21  39  62  90 121 157 207 249 307 364
#     4  10  24  34  62  94 114 156 212 254 290 368
#     4  10  21  37  63  89 120 163 204 251 307 367
#     4  10  21  38  59  85 121 158 196 257 305 361
#     4  10  20  38  60  84 118 158 202 246 314 360
#     4  10  21  38  63  89 120 159 202 251 304 379
#     4  10  22  39  61  86 120 160 205 257 309 354
#     4  11  22  39  61  89 125 161 198 249 312 367
#
# _framework density 17.784105
#
# number of rings (size 3 to 8) (size 9 to 14) (size 15 to 20)
#    0.000    1.714    4.286    0.000    4.000    0.571 
#    0.000    0.714    0.000    0.000    0.000    0.000 
#    0.000    0.000    0.000    0.000    0.000    0.000 
#
# Total GULP energy -155937.835118 kJ/mol
# GULP energy per Si atom -5569.208397 kJ/mol
# Density = 1.774363 g / cm^3
# Si number density = 17.784105 Si / 1000 Ang^3
#
#
#
# Elastic Constant Matrix: (Units=GPa)
#
#
# Indices 1 2 3 4 5 6 
#
# 1 113.6308 33.6143 59.9091 -0.0108 12.0568 0.0064
# 2 33.6143 64.4641 39.2493 0.0139 8.8859 -0.0128
# 3 59.9091 39.2493 107.3469 0.0018 12.6142 -0.0038
# 4 -0.0108 0.0139 0.0018 39.9509 0.0261 -8.3536
# 5 12.0568 8.8859 12.6142 0.0261 33.8070 -0.0213
# 6 0.0064 -0.0128 -0.0038 -8.3536 -0.0213 35.7169
#
#
#
# Elastic Compliance Matrix: (Units=1/GPa)
#
#
# Indices 1 2 3 4 5 6 
#
# 1 0.012995 -0.002897 -0.006001 0.000005 -0.001634 -0.000004
# 2 -0.002897 0.020828 -0.005728 -0.000005 -0.002304 0.000005
# 3 -0.006001 -0.005728 0.014988 0.000001 -0.001947 0.000000
# 4 0.000005 -0.000005 0.000001 0.026318 -0.000017 0.006155
# 5 -0.001634 -0.002304 -0.001947 -0.000017 0.031494 0.000014
# 6 -0.000004 0.000005 0.000000 0.006155 0.000014 0.029438
#
#
# Mechanical properties :
#
#
# Convention : Reuss Voigt Hill
#
# Bulk Modulus (GPa) = 51.12783 61.22080 56.17431
# Shear Modulus (GPa) = 29.09829 32.07290 30.58560
#
# Velocity S-wave (km/s) = 4.04938 4.25132 4.15158
# Velocity P-wave (km/s) = 7.11863 7.65490 7.39163
#
# Compressibility (1/GPa) = 0.01955882
#
# Stress axis : x y z
#
# Youngs Moduli (GPa) = 76.95488 48.01188 66.72163
#
# Poissons Ratio (x) = 0.13909 0.40039
# Poissons Ratio (y) = 0.22294 0.38217
# Poissons Ratio (z) = 0.46180 0.27500
#
# Static dielectric constant tensor:
#      x y z
#    x 1.607910 0.000020 0.030260 
#    y 0.000020 1.494670 -0.000070 
#    z 0.030260 -0.000070 1.621190 
# 
# From -- ./inp_files/232245.got.cif
#   From: 2010.05.17/outbox.cif.g08.bks.cpg/sg15_117_cif.got.tgz:232245.got - 2010.06.03 18:47:42.
