data_PCOD9273435
_publ_section_title
;
Structure prediction by ZEFSAII (Michael W. Deem and Ramdas Pophale) SiO2 
 PCOD9273435
Probable space group: C 2/C
;
_chemical_formula_sum "Si O2"
_cell_formula_units_Z 56
_cell_length_a 19.326440
_cell_length_b 26.572068
_cell_length_c 5.258656
_cell_angle_alpha 90.000000
_cell_angle_beta 110.529475
_cell_angle_gamma 90.000000
_cell_volume 2529.041804
_symmetry_space_group_name_H-M "C 2/C"
_symmetry_group_IT_number 15
_symmetry_cell_setting 'monoclinic'
loop_
_space_group_symop_operation_xyz
x,y,z
-x,y,1/2-z
-x,-y,-z
x,-y,1/2+z
1/2+x,1/2+y,z
1/2-x,1/2+y,1/2-z
1/2-x,1/2-y,-z
1/2+x,1/2-y,1/2+z
loop_
_atom_site_type_symbol
_atom_site_label
_atom_site_fract_x
_atom_site_fract_y
_atom_site_fract_z
Si Si1 0.202001 0.197790 0.142502
Si Si2 0.913004 0.476299 0.610009
Si Si3 0.500000 0.205482 0.750000
Si Si4 0.500000 0.534520 0.250000
Si Si5 0.768724 0.139005 0.841459
Si Si6 0.336884 0.465621 0.515586
Si Si7 0.865002 0.726345 0.282213
Si Si8 0.104013 0.640595 0.531174
O O1 0.211560 0.159780 0.913835
O O2 0.141689 0.237994 0.973042
O O3 0.187808 0.168671 0.383328
O O4 0.281201 0.226342 0.276799
O O5 0.879612 0.509503 0.339500
O O6 0.909026 0.417957 0.533414
O O7 0.000000 0.489488 0.750000
O O8 0.433968 0.238463 0.546783
O O9 0.539516 0.168768 0.597217
O O10 0.500000 0.500000 0.500000
O O11 0.580427 0.559343 0.369122
O O12 0.782546 0.080102 0.892819
O O13 0.681696 0.147606 0.774280
O O14 0.329485 0.504870 0.272390
O O15 0.882425 0.669832 0.213742
#
# Coordination Sequence:
#
# PCOD9273435 Si02
#       8
#     8   8   4   4   8   8   8   8
#     4  10  23  42  65  92 123 167 207 269 335 390
#     4  10  23  38  56  81 120 164 207 264 319 360
#     4  12  22  40  65  94 120 170 220 275 306 386
#     4   8  16  32  57  88 116 152 202 249 302 368
#     4  11  23  41  64  94 131 168 213 264 323 382
#     4  10  20  37  65  95 128 169 214 258 311 384
#     4  10  23  40  67  89 122 160 222 269 325 384
#     4  11  25  39  63  92 124 169 225 266 316 382
#
# _framework density 22.142772000000001
#
# number of rings (size 3 to 8) (size 9 to 14) (size 15 to 20)
#    0.000    1.714    1.429    2.143    7.000    2.857 
#    0.000    0.714    0.000    0.000    0.000    0.000 
#    0.000    0.000    0.000    0.000    0.000    0.000 
#
# Total GULP energy -156403.598462 kJ/mol
# GULP energy per Si atom -5585.842802 kJ/mol
# Density = 2.209237 g / cm^3
# Si number density = 22.142772 Si / 1000 Ang^3
#
#
#
# Elastic Constant Matrix: (Units=GPa)
#
#
# Indices 1 2 3 4 5 6 
#
# 1 47.5219 13.9929 34.5771 0.0000 8.4736 0.0000
# 2 13.9929 54.3278 36.1963 0.0000 5.7847 0.0000
# 3 34.5771 36.1963 143.5805 0.0000 4.7333 0.0000
# 4 0.0000 0.0000 0.0000 29.7672 0.0000 2.0372
# 5 8.4736 5.7847 4.7333 0.0000 38.5895 0.0000
# 6 0.0000 0.0000 0.0000 2.0372 0.0000 27.8319
#
#
#
# Elastic Compliance Matrix: (Units=1/GPa)
#
#
# Indices 1 2 3 4 5 6 
#
# 1 0.026765 -0.002637 -0.005623 0.000000 -0.004792 0.000000
# 2 -0.002637 0.022654 -0.005003 0.000000 -0.002203 0.000000
# 3 -0.005623 -0.005003 0.009553 0.000000 0.000813 0.000000
# 4 0.000000 0.000000 0.000000 0.033763 0.000000 -0.002471
# 5 -0.004792 -0.002203 0.000813 0.000000 0.027197 0.000000
# 6 0.000000 0.000000 0.000000 -0.002471 0.000000 0.036111
#
#
# Mechanical properties :
#
#
# Convention : Reuss Voigt Hill
#
# Bulk Modulus (GPa) = 30.82059 46.10699 38.46379
# Shear Modulus (GPa) = 25.85513 29.94863 27.90188
#
# Velocity S-wave (km/s) = 3.42080 3.68166 3.55363
# Velocity P-wave (km/s) = 5.43616 6.24024 5.85202
#
# Compressibility (1/GPa) = 0.03244585
#
# Stress axis : x y z
#
# Youngs Moduli (GPa) = 37.36209 44.14209 104.67557
#
# Poissons Ratio (x) = 0.11642 0.58856
# Poissons Ratio (y) = 0.09854 0.52372
# Poissons Ratio (z) = 0.21008 0.22086
#
# Static dielectric constant tensor:
#      x y z
#    x 1.862410 0.000000 0.006720 
#    y 0.000000 1.788780 0.000000 
#    z 0.006720 0.000000 1.881280 
# 
# From -- ./inp_files/14339.got.cif
#   From: 2010.05.17/outbox.cif.g08.bks.cpg/sg15_8_cif.got.tgz:14339.got - 2010.06.03 18:47:42.
