data_PCOD9273036
_publ_section_title
;
Structure prediction by ZEFSAII (Michael W. Deem and Ramdas Pophale) SiO2 
 PCOD9273036
Probable space group: C 2/C
;
_chemical_formula_sum "Si O2"
_cell_formula_units_Z 60
_cell_length_a 7.391199
_cell_length_b 13.512702
_cell_length_c 24.330555
_cell_angle_alpha 90.000000
_cell_angle_beta 93.665276
_cell_angle_gamma 90.000000
_cell_volume 2425.045383
_symmetry_space_group_name_H-M "C 2/C"
_symmetry_group_IT_number 15
_symmetry_cell_setting 'monoclinic'
loop_
_space_group_symop_operation_xyz
x,y,z
-x,y,1/2-z
-x,-y,-z
x,-y,1/2+z
1/2+x,1/2+y,z
1/2-x,1/2+y,1/2-z
1/2-x,1/2-y,-z
1/2+x,1/2-y,1/2+z
loop_
_atom_site_type_symbol
_atom_site_label
_atom_site_fract_x
_atom_site_fract_y
_atom_site_fract_z
Si Si1 0.000000 0.592917 0.250000
Si Si2 0.872353 0.760268 0.637956
Si Si3 0.658073 0.157904 0.967927
Si Si4 0.601503 0.341818 0.310482
Si Si5 0.484337 0.068913 0.837630
Si Si6 0.429023 0.476608 0.401714
Si Si7 0.728764 0.643771 0.176177
Si Si8 0.682426 0.934972 0.576404
O O1 0.974693 0.527149 0.196644
O O2 0.198938 0.638443 0.258444
O O3 0.954431 0.714996 0.581785
O O4 0.720292 0.838263 0.616216
O O5 0.859727 0.652045 0.665730
O O6 0.023805 0.817407 0.673996
O O7 0.810072 0.091272 0.939886
O O8 0.750000 0.250000 0.000000
O O9 0.584798 0.097535 0.018506
O O10 0.500000 0.337603 0.250000
O O11 0.802878 0.385491 0.307845
O O12 0.505966 0.412078 0.352586
O O13 0.634927 0.233285 0.337481
O O14 0.425469 0.022028 0.894984
O O15 0.302778 0.560880 0.371696
O O16 0.611309 0.525706 0.430832
#
# Coordination Sequence:
#
# PCOD9273036 Si02
#       8
#     4   8   8   8   8   8   8   8
#     4  12  22  38  58  84 114 154 204 248 304 380
#     4   9  20  39  56  86 122 150 198 255 298 370
#     4  10  20  37  62  89 119 162 202 247 313 368
#     4  10  20  39  60  83 121 158 198 251 310 373
#     4  10  22  38  59  88 117 156 203 253 313 369
#     4  10  20  37  63  86 122 157 200 258 303 369
#     4  10  21  37  57  87 118 153 204 247 302 370
#     4   9  20  39  61  87 120 158 203 248 311 375
#
# _framework density 24.741803999999998
#
# number of rings (size 3 to 8) (size 9 to 14) (size 15 to 20)
#    0.000    2.133    0.667    2.000    0.000    2.667 
#    4.800    2.667    1.467   14.400    0.000    0.000 
#    0.000    0.000    0.000    0.000    0.000    0.000 
#
# Total GULP energy -167063.198872 kJ/mol
# GULP energy per Si atom -5568.773296 kJ/mol
# Density = 2.468549 g / cm^3
# Si number density = 24.741804 Si / 1000 Ang^3
#
#
#
# Elastic Constant Matrix: (Units=GPa)
#
#
# Indices 1 2 3 4 5 6 
#
# 1 50.4393 -20.4496 -5.5242 0.0000 8.0739 0.0000
# 2 -20.4496 67.3198 -4.4152 0.0000 -4.1947 0.0000
# 3 -5.5242 -4.4152 48.8075 0.0000 3.0038 0.0000
# 4 0.0000 0.0000 0.0000 30.6308 0.0000 30.1351
# 5 8.0739 -4.1947 3.0038 0.0000 21.5353 0.0000
# 6 0.0000 0.0000 0.0000 30.1351 0.0000 -31.5145
#
#
#
# Elastic Compliance Matrix: (Units=1/GPa)
#
#
# Indices 1 2 3 4 5 6 
#
# 1 0.024503 0.007182 0.003936 0.000000 -0.008337 0.000000
# 2 0.007182 0.017211 0.002349 0.000000 0.000332 0.000000
# 3 0.003936 0.002349 0.021393 0.000000 -0.004002 0.000000
# 4 0.000000 0.000000 0.000000 0.016822 0.000000 0.016085
# 5 -0.008337 0.000332 -0.004002 0.000000 0.050184 0.000000
# 6 0.000000 0.000000 0.000000 0.016085 0.000000 -0.016350
#
#
# Mechanical properties :
#
#
# Convention : Reuss Voigt Hill
#
# Bulk Modulus (GPa) = 11.10591 11.75427 11.43009
# Shear Modulus (GPa) = 42.79294 17.26070 30.02682
#
# Velocity S-wave (km/s) = 4.16333 2.64414 3.48746
# Velocity P-wave (km/s) = 5.25448 3.75274 4.56578
#
# Compressibility (1/GPa) = 0.09004211
#
# Stress axis : x y z
#
# Youngs Moduli (GPa) = 40.81102 58.10273 46.74422
#
# Poissons Ratio (x) = -0.41729 -0.18399
# Poissons Ratio (y) = -0.29310 -0.10982
# Poissons Ratio (z) = -0.16064 -0.13651
#
# Static dielectric constant tensor:
#      x y z
#    x 2.293580 0.000000 0.291650 
#    y 0.000000 2.311690 0.000000 
#    z 0.291650 0.000000 2.322890 
# 
# From -- ./inp_files/264349.got.cif
#   From: 2010.05.17/outbox.cif.g08.bks.cpg/sg15_133_cif.got.tgz:264349.got - 2010.06.03 18:47:42.
