data_PCOD9273741
_publ_section_title
;
Structure prediction by ZEFSAII (Michael W. Deem and Ramdas Pophale) SiO2 
 PCOD9273741
Probable space group: C 2/C
;
_chemical_formula_sum "Si O2"
_cell_formula_units_Z 44
_cell_length_a 11.647582
_cell_length_b 9.868986
_cell_length_c 15.016529
_cell_angle_alpha 90.000000
_cell_angle_beta 79.042186
_cell_angle_gamma 90.000000
_cell_volume 1694.675219
_symmetry_space_group_name_H-M "C 2/C"
_symmetry_group_IT_number 15
_symmetry_cell_setting 'monoclinic'
loop_
_space_group_symop_operation_xyz
x,y,z
-x,y,1/2-z
-x,-y,-z
x,-y,1/2+z
1/2+x,1/2+y,z
1/2-x,1/2+y,1/2-z
1/2-x,1/2-y,-z
1/2+x,1/2-y,1/2+z
loop_
_atom_site_type_symbol
_atom_site_label
_atom_site_fract_x
_atom_site_fract_y
_atom_site_fract_z
Si Si1 0.063430 0.224474 0.573311
Si Si2 0.018745 0.038107 0.347106
Si Si3 0.500000 0.102598 0.250000
Si Si4 0.693807 0.919051 0.458281
Si Si5 0.767834 0.517643 0.843425
Si Si6 0.720632 0.693044 0.102173
O O1 0.194341 0.174145 0.579954
O O2 0.081332 0.321534 0.484999
O O3 0.007102 0.307086 0.660927
O O4 0.997253 0.082500 0.578675
O O5 0.915847 0.147669 0.373488
O O6 0.000000 0.982293 0.250000
O O7 0.155611 0.069688 0.331025
O O8 0.616060 0.014421 0.227168
O O9 0.709813 0.974505 0.557192
O O10 0.705926 0.054156 0.398741
O O11 0.750279 0.679658 0.839960
O O12 0.750000 0.750000 0.000000
#
# Coordination Sequence:
#
# PCOD9273741 Si02
#       6
#     8   8   4   8   8   8
#     4   9  17  35  60  86 121 156 208 259 310 386
#     4  11  23  39  61  93 131 173 215 265 333 391
#     4  10  20  38  58  90 124 170 212 264 332 386
#     4   8  17  36  63  87 118 164 210 263 316 380
#     4  10  22  39  61  91 132 170 214 274 322 383
#     4   9  20  39  62  92 127 168 218 268 326 396
#
# _framework density 25.963676
#
# number of rings (size 3 to 8) (size 9 to 14) (size 15 to 20)
#    0.000    2.545    0.909    0.000    1.273    8.000 
#    0.000    0.909    0.000   17.455    0.000    0.000 
#    0.000    0.000    0.000    0.000    0.000    0.000 
#
# Total GULP energy -123018.682550 kJ/mol
# GULP energy per Si atom -5591.758298 kJ/mol
# Density = 2.590458 g / cm^3
# Si number density = 25.963676 Si / 1000 Ang^3
#
#
#
# Elastic Constant Matrix: (Units=GPa)
#
#
# Indices 1 2 3 4 5 6 
#
# 1 123.0914 40.1313 69.4828 0.0000 -34.7579 0.0000
# 2 40.1313 142.1397 56.6800 0.0000 -18.6527 0.0000
# 3 69.4828 56.6800 103.2317 0.0000 -33.3336 0.0000
# 4 0.0000 0.0000 0.0000 32.1367 0.0000 -11.0285
# 5 -34.7579 -18.6527 -33.3336 0.0000 48.8494 0.0000
# 6 0.0000 0.0000 0.0000 -11.0285 0.0000 26.9625
#
#
#
# Elastic Compliance Matrix: (Units=1/GPa)
#
#
# Indices 1 2 3 4 5 6 
#
# 1 0.013830 -0.000233 -0.007737 0.000000 0.004472 0.000000
# 2 -0.000233 0.009012 -0.004789 0.000000 0.000008 0.000000
# 3 -0.007737 -0.004789 0.019439 0.000000 0.005931 0.000000
# 4 0.000000 0.000000 0.000000 0.036198 0.000000 0.014806
# 5 0.004472 0.000008 0.005931 0.000000 0.027703 0.000000
# 6 0.000000 0.000000 0.000000 0.014806 0.000000 0.043145
#
#
# Mechanical properties :
#
#
# Convention : Reuss Voigt Hill
#
# Bulk Modulus (GPa) = 59.65181 77.89457 68.77319
# Shear Modulus (GPa) = 27.71134 35.06762 31.38948
#
# Velocity S-wave (km/s) = 3.27052 3.67909 3.48081
# Velocity P-wave (km/s) = 6.10628 6.93644 6.53456
#
# Compressibility (1/GPa) = 0.01676395
#
# Stress axis : x y z
#
# Youngs Moduli (GPa) = 72.30631 110.96773 51.44324
#
# Poissons Ratio (x) = 0.02582 0.39801
# Poissons Ratio (y) = 0.01682 0.24635
# Poissons Ratio (z) = 0.55942 0.53140
#
# Static dielectric constant tensor:
#      x y z
#    x 2.072060 0.000000 -0.028910 
#    y 0.000000 2.122070 0.000000 
#    z -0.028910 0.000000 2.019820 
# 
# From -- ./inp_files/195953.got.cif
#   From: 2010.05.17/outbox.cif.g08.bks.cpg/sg15_98_cif.got.tgz:195953.got - 2010.06.03 18:47:42.
