data_PCOD9273473
_publ_section_title
;
Structure prediction by ZEFSAII (Michael W. Deem and Ramdas Pophale) SiO2 
 PCOD9273473
Probable space group: C 2/C
;
_chemical_formula_sum "Si O2"
_cell_formula_units_Z 56
_cell_length_a 14.250032
_cell_length_b 12.545280
_cell_length_c 19.126078
_cell_angle_alpha 90.000000
_cell_angle_beta 58.166393
_cell_angle_gamma 90.000000
_cell_volume 2904.879820
_symmetry_space_group_name_H-M "C 2/C"
_symmetry_group_IT_number 15
_symmetry_cell_setting 'monoclinic'
loop_
_space_group_symop_operation_xyz
x,y,z
-x,y,1/2-z
-x,-y,-z
x,-y,1/2+z
1/2+x,1/2+y,z
1/2-x,1/2+y,1/2-z
1/2-x,1/2-y,-z
1/2+x,1/2-y,1/2+z
loop_
_atom_site_type_symbol
_atom_site_label
_atom_site_fract_x
_atom_site_fract_y
_atom_site_fract_z
Si Si1 0.858453 0.974613 0.861035
Si Si2 0.214689 0.662434 0.679484
Si Si3 0.025100 0.621605 0.968911
Si Si4 0.500000 0.668040 0.750000
Si Si5 0.000000 0.200201 0.250000
Si Si6 0.573683 0.796781 0.858756
Si Si7 0.802612 0.633569 0.972023
Si Si8 0.690664 0.986220 0.313211
O O1 0.788055 0.959787 0.818186
O O2 0.916305 0.087689 0.824036
O O3 0.948989 0.880573 0.827495
O O4 0.770605 0.952563 0.956839
O O5 0.100995 0.727460 0.736440
O O6 0.320771 0.738554 0.647165
O O7 0.200585 0.612667 0.608571
O O8 0.230001 0.569063 0.728390
O O9 0.924504 0.645408 0.956014
O O10 0.138518 0.607571 0.882289
O O11 0.016153 0.693255 0.042420
O O12 0.000000 0.500000 0.000000
O O13 0.546692 0.738718 0.796103
O O14 0.604981 0.919602 0.831116
O O15 0.750000 0.750000 0.000000
#
# Coordination Sequence:
#
# PCOD9273473 Si02
#       8
#     8   8   8   4   4   8   8   8
#     4  11  22  41  65  89 129 176 208 254 328 386
#     4  12  23  36  68  98 123 159 225 266 316 374
#     4  10  20  37  66  89 128 163 209 256 327 368
#     4  11  26  43  68  86 138 179 210 251 336 394
#     4  11  20  37  64  96 118 165 214 259 316 372
#     4  11  22  44  63  94 129 175 205 270 319 382
#     4  12  20  39  63  94 125 165 208 275 312 369
#     4  11  22  41  65  94 126 167 214 266 314 388
#
# _framework density 19.277906000000002
#
# number of rings (size 3 to 8) (size 9 to 14) (size 15 to 20)
#    0.000    0.857    8.571    0.857    0.000    2.857 
#    0.000    2.857    0.000    0.000    0.000    0.000 
#    0.000    0.000    0.000    0.000    0.000    0.000 
#
# Total GULP energy -156036.142945 kJ/mol
# GULP energy per Si atom -5572.719391 kJ/mol
# Density = 1.923403 g / cm^3
# Si number density = 19.277906 Si / 1000 Ang^3
#
#
#
# Elastic Constant Matrix: (Units=GPa)
#
#
# Indices 1 2 3 4 5 6 
#
# 1 63.8927 22.3056 22.8074 0.0000 13.0623 0.0000
# 2 22.3056 74.2083 36.5671 0.0000 9.6734 0.0000
# 3 22.8074 36.5671 105.9967 0.0000 18.8615 0.0000
# 4 0.0000 0.0000 0.0000 23.8492 0.0000 0.3061
# 5 13.0623 9.6734 18.8615 0.0000 29.7179 0.0000
# 6 0.0000 0.0000 0.0000 0.3061 0.0000 31.8669
#
#
#
# Elastic Compliance Matrix: (Units=1/GPa)
#
#
# Indices 1 2 3 4 5 6 
#
# 1 0.018869 -0.004117 -0.001581 0.000000 -0.005950 0.000000
# 2 -0.004117 0.017235 -0.004942 0.000000 -0.000664 0.000000
# 3 -0.001581 -0.004942 0.012479 0.000000 -0.005617 0.000000
# 4 0.000000 0.000000 0.000000 0.041935 0.000000 -0.000403
# 5 -0.005950 -0.000664 -0.005617 0.000000 0.040046 0.000000
# 6 0.000000 0.000000 0.000000 -0.000403 0.000000 0.031384
#
#
# Mechanical properties :
#
#
# Convention : Reuss Voigt Hill
#
# Bulk Modulus (GPa) = 36.62558 45.27312 40.94935
# Shear Modulus (GPa) = 25.99712 27.91466 26.95589
#
# Velocity S-wave (km/s) = 3.67624 3.80940 3.74341
# Velocity P-wave (km/s) = 6.08766 6.54860 6.32233
#
# Compressibility (1/GPa) = 0.02730332
#
# Stress axis : x y z
#
# Youngs Moduli (GPa) = 52.99583 58.02243 80.13680
#
# Poissons Ratio (x) = 0.23888 0.12670
# Poissons Ratio (y) = 0.21819 0.39601
# Poissons Ratio (z) = 0.08379 0.28673
#
# Static dielectric constant tensor:
#      x y z
#    x 1.753470 0.000000 -0.046200 
#    y 0.000000 1.715440 0.000000 
#    z -0.046200 0.000000 1.771080 
# 
# From -- ./inp_files/203973.got.cif
#   From: 2010.05.17/outbox.cif.g08.bks.cpg/sg15_102_cif.got.tgz:203973.got - 2010.06.03 18:47:42.
