data_PCOD9273106
_publ_section_title
;
Structure prediction by ZEFSAII (Michael W. Deem and Ramdas Pophale) SiO2 
 PCOD9273106
Probable space group: C 2/C
;
_chemical_formula_sum "Si O2"
_cell_formula_units_Z 64
_cell_length_a 13.747751
_cell_length_b 25.311971
_cell_length_c 11.300838
_cell_angle_alpha 90.000000
_cell_angle_beta 41.241585
_cell_angle_gamma 90.000000
_cell_volume 2592.440407
_symmetry_space_group_name_H-M "C 2/C"
_symmetry_group_IT_number 15
_symmetry_cell_setting 'monoclinic'
loop_
_space_group_symop_operation_xyz
x,y,z
-x,y,1/2-z
-x,-y,-z
x,-y,1/2+z
1/2+x,1/2+y,z
1/2-x,1/2+y,1/2-z
1/2-x,1/2-y,-z
1/2+x,1/2-y,1/2+z
loop_
_atom_site_type_symbol
_atom_site_label
_atom_site_fract_x
_atom_site_fract_y
_atom_site_fract_z
Si Si1 0.254687 0.566583 0.952945
Si Si2 0.573752 0.246492 0.562133
Si Si3 0.726732 0.540183 0.305237
Si Si4 0.363362 0.946156 0.460571
Si Si5 0.207141 0.225697 0.337472
Si Si6 0.594467 0.432142 0.413010
Si Si7 0.837685 0.679139 0.446757
Si Si8 0.657263 0.356327 0.544325
O O1 0.393006 0.569408 0.738847
O O2 0.278316 0.570426 0.069404
O O3 0.195132 0.506806 0.993540
O O4 0.158840 0.618485 0.013056
O O5 0.500000 0.222434 0.750000
O O6 0.666564 0.215434 0.377415
O O7 0.442668 0.273358 0.602679
O O8 0.677578 0.294156 0.514730
O O9 0.710824 0.477691 0.343836
O O10 0.567209 0.552515 0.391766
O O11 0.865660 0.557189 0.100931
O O12 0.500000 0.943977 0.250000
O O13 0.265426 0.896125 0.511513
O O14 0.212141 0.282643 0.400434
O O15 0.229956 0.187924 0.430989
O O16 0.645037 0.378513 0.423633
O O17 0.000000 0.694838 0.250000
O O18 0.500000 0.362750 0.750000
#
# Coordination Sequence:
#
# PCOD9273106 Si02
#       8
#     8   8   8   8   8   8   8   8
#     4  11  23  39  64 102 134 185 238 279 355 413
#     4  11  25  45  76 106 140 182 235 295 364 430
#     4  10  21  37  62  92 135 181 230 286 334 408
#     4  11  24  43  63  96 144 190 231 283 343 415
#     4  11  24  49  73 104 140 182 235 302 367 416
#     4  10  20  37  62  92 134 178 227 286 334 400
#     4  11  24  45  72 100 143 185 234 302 353 422
#     4  11  22  42  69  98 137 182 235 283 343 418
#
# _framework density 24.687163999999999
#
# number of rings (size 3 to 8) (size 9 to 14) (size 15 to 20)
#    0.000    1.250    3.750    1.875    1.750    0.500 
#    6.750    3.125    0.000    0.000    0.000    0.000 
#    0.000    0.000    0.000    0.000    0.000    0.000 
#
# Total GULP energy -178592.529256 kJ/mol
# GULP energy per Si atom -5581.016539 kJ/mol
# Density = 2.463098 g / cm^3
# Si number density = 24.687164 Si / 1000 Ang^3
#
#
#
# Elastic Constant Matrix: (Units=GPa)
#
#
# Indices 1 2 3 4 5 6 
#
# 1 60.0402 30.0904 26.6103 0.0000 20.7674 0.0000
# 2 30.0904 110.9528 27.9577 0.0000 16.6275 0.0000
# 3 26.6103 27.9577 160.2152 0.0000 26.2519 0.0000
# 4 0.0000 0.0000 0.0000 19.1300 0.0000 4.1236
# 5 20.7674 16.6275 26.2519 0.0000 39.7031 0.0000
# 6 0.0000 0.0000 0.0000 4.1236 0.0000 9.5224
#
#
#
# Elastic Compliance Matrix: (Units=1/GPa)
#
#
# Indices 1 2 3 4 5 6 
#
# 1 0.022652 -0.004412 -0.001518 0.000000 -0.008997 0.000000
# 2 -0.004412 0.010666 -0.000869 0.000000 -0.001584 0.000000
# 3 -0.001518 -0.000869 0.007240 0.000000 -0.003629 0.000000
# 4 0.000000 0.000000 0.000000 0.057656 0.000000 -0.024967
# 5 -0.008997 -0.001584 -0.003629 0.000000 0.032956 0.000000
# 6 0.000000 0.000000 0.000000 -0.024967 0.000000 0.115827
#
#
# Mechanical properties :
#
#
# Convention : Reuss Voigt Hill
#
# Bulk Modulus (GPa) = 37.09336 55.61391 46.35363
# Shear Modulus (GPa) = 18.54728 30.10774 24.32751
#
# Velocity S-wave (km/s) = 2.74395 3.49602 3.14256
# Velocity P-wave (km/s) = 5.00969 6.23479 5.65551
#
# Compressibility (1/GPa) = 0.02695900
#
# Stress axis : x y z
#
# Youngs Moduli (GPa) = 44.14706 93.75751 138.12134
#
# Poissons Ratio (x) = 0.41369 0.20969
# Poissons Ratio (y) = 0.19479 0.11999
# Poissons Ratio (z) = 0.06702 0.08145
#
# Static dielectric constant tensor:
#      x y z
#    x 2.041790 0.000000 0.003220 
#    y 0.000000 1.971050 0.000000 
#    z 0.003220 0.000000 1.948020 
# 
# From -- ./inp_files/101331.got.cif
#   From: 2010.05.17/outbox.cif.g08.bks.cpg/sg15_51_cif.got.tgz:101331.got - 2010.06.03 18:47:42.
