data_PCOD9273357
_publ_section_title
;
Structure prediction by ZEFSAII (Michael W. Deem and Ramdas Pophale) SiO2 
 PCOD9273357
Probable space group: C 2/C
;
_chemical_formula_sum "Si O2"
_cell_formula_units_Z 44
_cell_length_a 25.035076
_cell_length_b 7.321020
_cell_length_c 14.099167
_cell_angle_alpha 90.000000
_cell_angle_beta 40.117791
_cell_angle_gamma 90.000000
_cell_volume 1665.111372
_symmetry_space_group_name_H-M "C 2/C"
_symmetry_group_IT_number 15
_symmetry_cell_setting 'monoclinic'
loop_
_space_group_symop_operation_xyz
x,y,z
-x,y,1/2-z
-x,-y,-z
x,-y,1/2+z
1/2+x,1/2+y,z
1/2-x,1/2+y,1/2-z
1/2-x,1/2-y,-z
1/2+x,1/2-y,1/2+z
loop_
_atom_site_type_symbol
_atom_site_label
_atom_site_fract_x
_atom_site_fract_y
_atom_site_fract_z
Si Si1 0.806993 0.891539 0.050628
Si Si2 0.000000 0.170441 0.750000
Si Si3 0.841075 0.688362 0.533285
Si Si4 0.338577 0.663693 0.717666
Si Si5 0.436382 0.610916 0.203093
Si Si6 0.121859 0.434198 0.306759
O O1 0.829830 0.793663 0.117771
O O2 0.712204 0.859366 0.150454
O O3 0.810493 0.102185 0.080261
O O4 0.871693 0.869891 0.878461
O O5 0.080911 0.295726 0.641471
O O6 0.002674 0.028899 0.657928
O O7 0.753641 0.601061 0.622294
O O8 0.874524 0.611771 0.586492
O O9 0.397534 0.500851 0.668859
O O10 0.373640 0.849975 0.714722
O O11 0.449506 0.815770 0.147307
#
# Coordination Sequence:
#
# PCOD9273357 Si02
#       6
#     8   4   8   8   8   8
#     4   9  19  37  61  96 124 156 210 261 309 371
#     4  10  24  40  62  90 126 180 214 242 316 392
#     4   9  19  39  63  90 128 164 205 262 313 372
#     4  10  21  40  68  96 125 157 216 271 314 359
#     4  11  22  42  64  92 129 171 208 260 315 377
#     4  10  20  37  64  96 120 163 204 264 321 359
#
# _framework density 26.424658999999998
#
# number of rings (size 3 to 8) (size 9 to 14) (size 15 to 20)
#    0.000    2.182    1.818    0.545    2.545    7.273 
#    6.545    1.818    0.000    0.000    0.000    0.000 
#    0.000    0.000    0.000    0.000    0.000    0.000 
#
# Total GULP energy -123022.111671 kJ/mol
# GULP energy per Si atom -5591.914167 kJ/mol
# Density = 2.636452 g / cm^3
# Si number density = 26.424659 Si / 1000 Ang^3
#
#
#
# Elastic Constant Matrix: (Units=GPa)
#
#
# Indices 1 2 3 4 5 6 
#
# 1 66.9002 2.0877 38.8572 0.0003 8.1741 -0.0001
# 2 2.0877 61.1711 21.1979 -0.0015 6.4068 -0.0005
# 3 38.8572 21.1979 100.1582 0.0011 -3.8139 -0.0005
# 4 0.0003 -0.0015 0.0011 20.9822 -0.0020 6.1620
# 5 8.1741 6.4068 -3.8139 -0.0020 27.9034 0.0008
# 6 -0.0001 -0.0005 -0.0005 6.1620 0.0008 30.6747
#
#
#
# Elastic Compliance Matrix: (Units=1/GPa)
#
#
# Indices 1 2 3 4 5 6 
#
# 1 0.021229 0.003348 -0.009259 0.000000 -0.008253 0.000000
# 2 0.003348 0.018773 -0.005502 0.000001 -0.006043 0.000000
# 3 -0.009259 -0.005502 0.014970 0.000000 0.006022 0.000000
# 4 0.000000 0.000001 0.000000 0.050647 0.000004 -0.010174
# 5 -0.008253 -0.006043 0.006022 0.000004 0.040466 -0.000002
# 6 0.000000 0.000000 0.000000 -0.010174 -0.000002 0.034644
#
#
# Mechanical properties :
#
#
# Convention : Reuss Voigt Hill
#
# Bulk Modulus (GPa) = 31.10744 39.16834 35.13789
# Shear Modulus (GPa) = 23.33482 26.98450 25.15966
#
# Velocity S-wave (km/s) = 2.97487 3.19907 3.08900
# Velocity P-wave (km/s) = 4.85773 5.33856 5.10381
#
# Compressibility (1/GPa) = 0.03214665
#
# Stress axis : x y z
#
# Youngs Moduli (GPa) = 47.10434 53.26794 66.79941
#
# Poissons Ratio (x) = -0.17837 0.61850
# Poissons Ratio (y) = -0.15773 0.36756
# Poissons Ratio (z) = 0.43614 0.29310
#
# Static dielectric constant tensor:
#      x y z
#    x 2.045690 0.000000 -0.049190 
#    y 0.000000 2.030180 0.000000 
#    z -0.049190 0.000000 2.124780 
# 
# From -- ./inp_files/171700.got.cif
#   From: 2010.05.17/outbox.cif.g08.bks.cpg/sg15_86_cif.got.tgz:171700.got - 2010.06.03 18:47:42.
