data_PCOD9273351
_publ_section_title
;
Structure prediction by ZEFSAII (Michael W. Deem and Ramdas Pophale) SiO2 
 PCOD9273351
Probable space group: C 2/C
;
_chemical_formula_sum "Si O2"
_cell_formula_units_Z 64
_cell_length_a 11.587992
_cell_length_b 21.149453
_cell_length_c 19.965306
_cell_angle_alpha 90.000000
_cell_angle_beta 138.919740
_cell_angle_gamma 90.000000
_cell_volume 3215.326378
_symmetry_space_group_name_H-M "C 2/C"
_symmetry_group_IT_number 15
_symmetry_cell_setting 'monoclinic'
loop_
_space_group_symop_operation_xyz
x,y,z
-x,y,1/2-z
-x,-y,-z
x,-y,1/2+z
1/2+x,1/2+y,z
1/2-x,1/2+y,1/2-z
1/2-x,1/2-y,-z
1/2+x,1/2-y,1/2+z
loop_
_atom_site_type_symbol
_atom_site_label
_atom_site_fract_x
_atom_site_fract_y
_atom_site_fract_z
Si Si1 0.372172 0.809363 0.490992
Si Si2 0.849128 0.099720 0.851270
Si Si3 0.900553 0.891538 0.525552
Si Si4 0.992428 0.222544 0.839479
Si Si5 0.601823 0.934484 0.047871
Si Si6 0.114880 0.764467 0.632617
Si Si7 0.043601 0.997814 0.342984
Si Si8 0.509827 0.137148 0.646444
O O1 0.413460 0.778493 0.579261
O O2 0.458659 0.878010 0.526812
O O3 0.444247 0.763319 0.465131
O O4 0.163107 0.812481 0.382550
O O5 0.926918 0.087976 0.959266
O O6 0.916213 0.167414 0.853286
O O7 0.638866 0.107741 0.758289
O O8 0.906323 0.046992 0.822169
O O9 0.917813 0.947045 0.587336
O O10 0.696924 0.871192 0.438648
O O11 0.031884 0.833809 0.601441
O O12 0.826786 0.256186 0.731197
O O13 0.579192 0.899500 0.109464
O O14 0.793295 0.953361 0.105533
O O15 0.500000 0.000000 0.000000
O O16 0.043997 0.712206 0.653702
O O17 0.000000 0.024815 0.250000
#
# Coordination Sequence:
#
# PCOD9273351 Si02
#       8
#     8   8   8   8   8   8   8   8
#     4  10  20  37  65  94 130 167 222 272 322 380
#     4  11  22  42  67  96 125 170 227 270 327 401
#     4  12  24  43  61  96 139 170 209 276 345 384
#     4  10  20  37  64  95 126 172 216 277 323 378
#     4  11  21  39  65  94 127 168 225 268 318 388
#     4  10  22  38  61  95 130 169 220 264 325 399
#     4  12  25  42  66  93 127 173 222 271 328 399
#     4  10  22  40  68  90 126 175 220 267 313 408
#
# _framework density 19.904665999999999
#
# number of rings (size 3 to 8) (size 9 to 14) (size 15 to 20)
#    0.000    1.250    5.000    1.500    0.000    1.000 
#    0.000    1.250    0.000    1.500    0.000    0.000 
#    0.000    0.000    0.000    0.000    0.000    0.000 
#
# Total GULP energy -178148.889271 kJ/mol
# GULP energy per Si atom -5567.152790 kJ/mol
# Density = 1.985936 g / cm^3
# Si number density = 19.904666 Si / 1000 Ang^3
#
#
#
# Elastic Constant Matrix: (Units=GPa)
#
#
# Indices 1 2 3 4 5 6 
#
# 1 73.2672 22.3068 25.6064 0.0000 0.1120 0.0000
# 2 22.3068 88.7035 38.5975 0.0000 -3.0948 0.0000
# 3 25.6064 38.5975 87.7395 0.0000 -3.4993 0.0000
# 4 0.0000 0.0000 0.0000 12.4327 0.0000 13.3008
# 5 0.1120 -3.0948 -3.4993 0.0000 36.1952 0.0000
# 6 0.0000 0.0000 0.0000 13.3008 0.0000 17.6578
#
#
#
# Elastic Compliance Matrix: (Units=1/GPa)
#
#
# Indices 1 2 3 4 5 6 
#
# 1 0.015615 -0.002417 -0.003518 0.000000 -0.000595 0.000000
# 2 -0.002417 0.014329 -0.005571 0.000000 0.000694 0.000000
# 3 -0.003518 -0.005571 0.014913 0.000000 0.000976 0.000000
# 4 0.000000 0.000000 0.000000 0.414285 0.000000 -0.312062
# 5 -0.000595 0.000694 0.000976 0.000000 0.027784 0.000000
# 6 0.000000 0.000000 0.000000 -0.312062 0.000000 0.291694
#
#
# Mechanical properties :
#
#
# Convention : Reuss Voigt Hill
#
# Bulk Modulus (GPa) = 45.77189 46.97017 46.37103
# Shear Modulus (GPa) = 6.18113 24.13709 15.15911
#
# Velocity S-wave (km/s) = 1.76412 3.48607 2.76268
# Velocity P-wave (km/s) = 5.21488 6.31287 5.78996
#
# Compressibility (1/GPa) = 0.02184747
#
# Stress axis : x y z
#
# Youngs Moduli (GPa) = 64.04180 69.78624 67.05336
#
# Poissons Ratio (x) = 0.16867 0.23587
# Poissons Ratio (y) = 0.15478 0.37353
# Poissons Ratio (z) = 0.22527 0.38875
#
# Static dielectric constant tensor:
#      x y z
#    x 1.740990 0.000000 -0.013650 
#    y 0.000000 1.673320 0.000000 
#    z -0.013650 0.000000 1.755830 
# 
# From -- ./inp_files/240434.got.cif
#   From: 2010.05.17/outbox.cif.g08.bks.cpg/sg15_121_cif.got.tgz:240434.got - 2010.06.03 18:47:42.
