data_PCOD9273758
_publ_section_title
;
Structure prediction by ZEFSAII (Michael W. Deem and Ramdas Pophale) SiO2 
 PCOD9273758
Probable space group: C 2/C
;
_chemical_formula_sum "Si O2"
_cell_formula_units_Z 60
_cell_length_a 33.064761
_cell_length_b 10.855109
_cell_length_c 8.117078
_cell_angle_alpha 90.000000
_cell_angle_beta 67.549902
_cell_angle_gamma 90.000000
_cell_volume 2692.595560
_symmetry_space_group_name_H-M "C 2/C"
_symmetry_group_IT_number 15
_symmetry_cell_setting 'monoclinic'
loop_
_space_group_symop_operation_xyz
x,y,z
-x,y,1/2-z
-x,-y,-z
x,-y,1/2+z
1/2+x,1/2+y,z
1/2-x,1/2+y,1/2-z
1/2-x,1/2-y,-z
1/2+x,1/2-y,1/2+z
loop_
_atom_site_type_symbol
_atom_site_label
_atom_site_fract_x
_atom_site_fract_y
_atom_site_fract_z
Si Si1 0.504913 0.305234 0.930694
Si Si2 0.667894 0.432510 0.792591
Si Si3 0.600410 0.274580 0.731987
Si Si4 0.294232 0.671119 0.927800
Si Si5 0.000000 0.626478 0.250000
Si Si6 0.590732 0.046376 0.971455
Si Si7 0.415229 0.394522 0.082633
Si Si8 0.623613 0.181153 0.223202
O O1 0.500000 0.253922 0.750000
O O2 0.555836 0.340831 0.870767
O O3 0.493985 0.210118 0.095162
O O4 0.467181 0.408892 0.996556
O O5 0.648164 0.326528 0.705300
O O6 0.700382 0.539845 0.675981
O O7 0.621466 0.503646 0.890446
O O8 0.689065 0.368022 0.916581
O O9 0.595047 0.301202 0.549954
O O10 0.592717 0.138653 0.812247
O O11 0.329476 0.767023 0.800779
O O12 0.250000 0.750000 0.000000
O O13 0.956546 0.551015 0.365295
O O14 0.623455 0.108430 0.051417
O O15 0.604057 0.915974 0.880978
O O16 0.403376 0.309519 0.258456
#
# Coordination Sequence:
#
# PCOD9273758 Si02
#       8
#     8   8   8   8   4   8   8   8
#     4   9  19  34  59  95 137 184 242 288 327 404
#     4  11  22  43  74  97 131 180 215 276 359 418
#     4  10  20  38  62  94 136 178 234 273 333 405
#     4  11  26  48  73 103 135 168 225 293 359 435
#     4  10  20  38  58  94 142 198 236 292 340 394
#     4  11  22  38  62  94 134 186 232 279 336 405
#     4  10  20  39  62  92 134 180 227 280 333 404
#     4  11  23  40  64  94 133 178 230 283 349 410
#
# _framework density 22.283331
#
# number of rings (size 3 to 8) (size 9 to 14) (size 15 to 20)
#    0.000    1.600    4.000    0.800    0.000    2.133 
#    3.600    0.667    1.467    0.000    0.000    0.000 
#    0.000    0.000    0.000    0.000    0.000    0.000 
#
# Total GULP energy -167185.410304 kJ/mol
# GULP energy per Si atom -5572.847010 kJ/mol
# Density = 2.223261 g / cm^3
# Si number density = 22.283331 Si / 1000 Ang^3
#
#
#
# Elastic Constant Matrix: (Units=GPa)
#
#
# Indices 1 2 3 4 5 6 
#
# 1 107.8047 55.2626 34.5615 0.0000 -17.3488 0.0000
# 2 55.2626 89.9275 35.3926 0.0000 0.8830 0.0000
# 3 34.5615 35.3926 70.3150 0.0000 -1.0331 0.0000
# 4 0.0000 0.0000 0.0000 22.7405 0.0000 -3.6427
# 5 -17.3488 0.8830 -1.0331 0.0000 36.3222 0.0000
# 6 0.0000 0.0000 0.0000 -3.6427 0.0000 34.0901
#
#
#
# Elastic Compliance Matrix: (Units=1/GPa)
#
#
# Indices 1 2 3 4 5 6 
#
# 1 0.016021 -0.008564 -0.003450 0.000000 0.007762 0.000000
# 2 -0.008564 0.018455 -0.005149 0.000000 -0.004686 0.000000
# 3 -0.003450 -0.005149 0.018495 0.000000 -0.000997 0.000000
# 4 0.000000 0.000000 0.000000 0.044740 0.000000 0.004781
# 5 0.007762 -0.004686 -0.000997 0.000000 0.031325 0.000000
# 6 0.000000 0.000000 0.000000 0.004781 0.000000 0.029845
#
#
# Mechanical properties :
#
#
# Convention : Reuss Voigt Hill
#
# Bulk Modulus (GPa) = 53.63287 57.60896 55.62091
# Shear Modulus (GPa) = 25.07253 28.15260 26.61257
#
# Velocity S-wave (km/s) = 3.35799 3.55828 3.45959
# Velocity P-wave (km/s) = 6.25745 6.54147 6.40104
#
# Compressibility (1/GPa) = 0.01864528
#
# Stress axis : x y z
#
# Youngs Moduli (GPa) = 62.41679 54.18540 54.06993
#
# Poissons Ratio (x) = 0.46403 0.18656
# Poissons Ratio (y) = 0.53453 0.27840
# Poissons Ratio (z) = 0.21536 0.27899
#
# Static dielectric constant tensor:
#      x y z
#    x 1.832220 0.000000 -0.023260 
#    y 0.000000 2.011660 0.000000 
#    z -0.023260 0.000000 1.935910 
# 
# From -- ./inp_files/69335.got.cif
#   From: 2010.05.17/outbox.cif.g08.bks.cpg/sg15_35_cif.got.tgz:69335.got - 2010.06.03 18:47:42.
