data_PCOD9273422
_publ_section_title
;
Structure prediction by ZEFSAII (Michael W. Deem and Ramdas Pophale) SiO2 
 PCOD9273422
Probable space group: C 2/C
;
_chemical_formula_sum "Si O2"
_cell_formula_units_Z 64
_cell_length_a 21.847838
_cell_length_b 9.242525
_cell_length_c 16.172893
_cell_angle_alpha 90.000000
_cell_angle_beta 52.603198
_cell_angle_gamma 90.000000
_cell_volume 2594.493426
_symmetry_space_group_name_H-M "C 2/C"
_symmetry_group_IT_number 15
_symmetry_cell_setting 'monoclinic'
loop_
_space_group_symop_operation_xyz
x,y,z
-x,y,1/2-z
-x,-y,-z
x,-y,1/2+z
1/2+x,1/2+y,z
1/2-x,1/2+y,1/2-z
1/2-x,1/2-y,-z
1/2+x,1/2-y,1/2+z
loop_
_atom_site_type_symbol
_atom_site_label
_atom_site_fract_x
_atom_site_fract_y
_atom_site_fract_z
Si Si1 0.561669 0.244861 0.882299
Si Si2 0.944677 0.588597 0.874187
Si Si3 0.566414 0.214846 0.262726
Si Si4 0.671645 0.512627 0.979954
Si Si5 0.905688 0.933643 0.122652
Si Si6 0.133646 0.325973 0.490567
Si Si7 0.193800 0.936295 0.139365
Si Si8 0.346965 0.912261 0.320478
O O1 0.549422 0.413996 0.909142
O O2 0.600563 0.163617 0.926020
O O3 0.483135 0.170470 0.917279
O O4 0.624513 0.218012 0.759082
O O5 0.863328 0.632544 0.902075
O O6 0.929144 0.420661 0.907696
O O7 0.500000 0.252646 0.250000
O O8 0.553994 0.301814 0.359911
O O9 0.596278 0.049715 0.248978
O O10 0.644865 0.289468 0.164403
O O11 0.624028 0.591318 0.945947
O O12 0.646873 0.344535 0.991179
O O13 0.668526 0.535890 0.082194
O O14 0.760254 0.538112 0.882591
O O15 0.833141 0.968762 0.244633
O O16 0.216239 0.400853 0.435569
O O17 0.500000 0.882270 0.250000
#
# Coordination Sequence:
#
# PCOD9273422 Si02
#       8
#     8   8   8   8   8   8   8   8
#     4  10  22  37  59  92 133 167 201 259 320 382
#     4  10  21  35  58  92 124 160 207 256 319 359
#     4  10  21  39  63  91 124 166 214 260 308 373
#     4  11  19  37  64  96 127 161 211 271 310 364
#     4   9  23  39  62  92 127 170 208 252 326 371
#     4  11  19  36  63  96 126 160 215 263 311 372
#     4  10  20  37  65  93 119 167 216 254 312 369
#     4  11  20  35  64  93 127 160 212 262 311 363
#
# _framework density 24.667628000000001
#
# number of rings (size 3 to 8) (size 9 to 14) (size 15 to 20)
#    0.750    1.000    2.500    3.375    0.000    1.500 
#    0.000    1.250    5.500    0.000    0.000    0.000 
#    0.000    0.000    0.000    0.000    0.000    0.000 
#
# Total GULP energy -178452.688815 kJ/mol
# GULP energy per Si atom -5576.646525 kJ/mol
# Density = 2.461148 g / cm^3
# Si number density = 24.667628 Si / 1000 Ang^3
#
#
#
# Elastic Constant Matrix: (Units=GPa)
#
#
# Indices 1 2 3 4 5 6 
#
# 1 174.6685 41.3782 44.7796 0.0000 25.3378 0.0000
# 2 41.3782 86.0566 7.7017 0.0002 1.7251 -0.0002
# 3 44.7796 7.7017 78.5956 0.0000 23.7165 0.0000
# 4 0.0000 0.0002 0.0000 35.5844 -0.0001 -4.1873
# 5 25.3378 1.7251 23.7165 -0.0001 50.4454 0.0001
# 6 0.0000 -0.0002 0.0000 -4.1873 0.0001 27.1647
#
#
#
# Elastic Compliance Matrix: (Units=1/GPa)
#
#
# Indices 1 2 3 4 5 6 
#
# 1 0.007708 -0.003357 -0.003413 0.000000 -0.002152 0.000000
# 2 -0.003357 0.013187 0.000289 0.000000 0.001100 0.000000
# 3 -0.003413 0.000289 0.016460 0.000000 -0.006034 0.000000
# 4 0.000000 0.000000 0.000000 0.028621 0.000000 0.004412
# 5 -0.002152 0.001100 -0.006034 0.000000 0.023704 0.000000
# 6 0.000000 0.000000 0.000000 0.004412 0.000000 0.037493
#
#
# Mechanical properties :
#
#
# Convention : Reuss Voigt Hill
#
# Bulk Modulus (GPa) = 40.99758 58.55995 49.77876
# Shear Modulus (GPa) = 33.72313 39.00300 36.36307
#
# Velocity S-wave (km/s) = 3.70144 3.98067 3.84359
# Velocity P-wave (km/s) = 5.90962 6.70215 6.31832
#
# Compressibility (1/GPa) = 0.02439169
#
# Stress axis : x y z
#
# Youngs Moduli (GPa) = 129.74098 75.83398 60.75152
#
# Poissons Ratio (x) = 0.25461 0.20735
# Poissons Ratio (y) = 0.43560 -0.01755
# Poissons Ratio (z) = 0.44281 -0.02191
#
# Static dielectric constant tensor:
#      x y z
#    x 1.964840 0.000000 0.001680 
#    y 0.000000 1.960130 0.000000 
#    z 0.001680 0.000000 2.062070 
# 
# From -- ./inp_files/167621.got.cif
#   From: 2010.05.17/outbox.cif.g08.bks.cpg/sg15_84_cif.got.tgz:167621.got - 2010.06.03 18:47:42.
