data_PCOD9273988
_publ_section_title
;
Structure prediction by ZEFSAII (Michael W. Deem and Ramdas Pophale) SiO2 
 PCOD9273988
Probable space group: C 2/C
;
_chemical_formula_sum "Si O2"
_cell_formula_units_Z 36
_cell_length_a 10.132326
_cell_length_b 18.091517
_cell_length_c 16.878140
_cell_angle_alpha 90.000000
_cell_angle_beta 143.776716
_cell_angle_gamma 90.000000
_cell_volume 1828.299641
_symmetry_space_group_name_H-M "C 2/C"
_symmetry_group_IT_number 15
_symmetry_cell_setting 'monoclinic'
loop_
_space_group_symop_operation_xyz
x,y,z
-x,y,1/2-z
-x,-y,-z
x,-y,1/2+z
1/2+x,1/2+y,z
1/2-x,1/2+y,1/2-z
1/2-x,1/2-y,-z
1/2+x,1/2-y,1/2+z
loop_
_atom_site_type_symbol
_atom_site_label
_atom_site_fract_x
_atom_site_fract_y
_atom_site_fract_z
Si Si1 0.249714 0.754351 0.095217
Si Si2 0.487135 0.890236 0.042166
Si Si3 0.671545 0.395674 0.153544
Si Si4 0.773791 0.537249 0.987979
Si Si5 0.500000 0.984974 0.750000
O O1 0.500000 0.753534 0.250000
O O2 0.122445 0.679097 0.053858
O O3 0.133235 0.827106 0.075833
O O4 0.250000 0.750000 0.000000
O O5 0.304315 0.949166 0.986326
O O6 0.643605 0.870321 0.192466
O O7 0.646563 0.928720 0.055682
O O8 0.460201 0.429887 0.096498
O O9 0.788218 0.462247 0.162557
O O10 0.946636 0.556272 0.142906
#
# Coordination Sequence:
#
# PCOD9273988 Si02
#       5
#     8   8   8   8   4
#     4  12  23  41  65  91 125 174 212 257 321 389
#     4  10  23  41  63  95 125 168 218 263 320 394
#     4  11  21  41  64  89 132 167 209 270 329 368
#     4  10  22  39  64  91 130 164 214 271 322 379
#     4  10  20  38  60  94 122 166 206 264 316 392
#
# _framework density 19.690427
#
# number of rings (size 3 to 8) (size 9 to 14) (size 15 to 20)
#    0.000    1.333    3.333    2.667    0.000    8.000 
#    0.000    0.000    0.000    0.000    0.000    0.000 
#    0.000    0.000    0.000    0.000    0.000    0.000 
#
# Total GULP energy -100420.812066 kJ/mol
# GULP energy per Si atom -5578.934004 kJ/mol
# Density = 1.964561 g / cm^3
# Si number density = 19.690427 Si / 1000 Ang^3
#
#
#
# Elastic Constant Matrix: (Units=GPa)
#
#
# Indices 1 2 3 4 5 6 
#
# 1 118.9841 50.0918 35.0393 0.0000 5.4865 0.0001
# 2 50.0918 77.7041 39.1975 0.0000 14.6816 0.0000
# 3 35.0393 39.1975 74.1770 0.0002 -11.3437 0.0003
# 4 0.0000 0.0000 0.0002 36.6722 0.0002 -5.7983
# 5 5.4865 14.6816 -11.3437 0.0002 43.1331 0.0001
# 6 0.0001 0.0000 0.0003 -5.7983 0.0001 32.4230
#
#
#
# Elastic Compliance Matrix: (Units=1/GPa)
#
#
# Indices 1 2 3 4 5 6 
#
# 1 0.011775 -0.006601 -0.002042 0.000000 0.000212 0.000000
# 2 -0.006601 0.025130 -0.011816 0.000000 -0.010822 0.000000
# 3 -0.002042 -0.011816 0.022239 0.000000 0.010130 0.000000
# 4 0.000000 0.000000 0.000000 0.028062 0.000000 0.005018
# 5 0.000212 -0.010822 0.010130 0.000000 0.029505 0.000000
# 6 0.000000 0.000000 0.000000 0.005018 0.000000 0.031740
#
#
# Mechanical properties :
#
#
# Convention : Reuss Voigt Hill
#
# Bulk Modulus (GPa) = 54.86588 57.72469 56.29529
# Shear Modulus (GPa) = 25.58290 32.21477 28.89884
#
# Velocity S-wave (km/s) = 3.60843 4.04922 3.83516
# Velocity P-wave (km/s) = 6.72947 7.15830 6.94719
#
# Compressibility (1/GPa) = 0.01822626
#
# Stress axis : x y z
#
# Youngs Moduli (GPa) = 84.92681 39.79332 44.96607
#
# Poissons Ratio (x) = 0.26267 0.09180
# Poissons Ratio (y) = 0.56059 0.53133
# Poissons Ratio (z) = 0.17339 0.47021
#
# Static dielectric constant tensor:
#      x y z
#    x 1.699170 0.000000 -0.007970 
#    y 0.000000 1.737360 0.000000 
#    z -0.007970 0.000000 1.699070 
# 
# From -- ./inp_files/76564.got.cif
#   From: 2010.05.17/outbox.cif.g08.bks.cpg/sg15_39_cif.got.tgz:76564.got - 2010.06.03 18:47:42.
