data_PCOD9273658
_publ_section_title
;
Structure prediction by ZEFSAII (Michael W. Deem and Ramdas Pophale) SiO2 
 PCOD9273658
Probable space group: C 2/C
;
_chemical_formula_sum "Si O2"
_cell_formula_units_Z 64
_cell_length_a 18.308669
_cell_length_b 20.698270
_cell_length_c 26.718800
_cell_angle_alpha 90.000000
_cell_angle_beta 160.088325
_cell_angle_gamma 90.000000
_cell_volume 3448.383966
_symmetry_space_group_name_H-M "C 2/C"
_symmetry_group_IT_number 15
_symmetry_cell_setting 'monoclinic'
loop_
_space_group_symop_operation_xyz
x,y,z
-x,y,1/2-z
-x,-y,-z
x,-y,1/2+z
1/2+x,1/2+y,z
1/2-x,1/2+y,1/2-z
1/2-x,1/2-y,-z
1/2+x,1/2-y,1/2+z
loop_
_atom_site_type_symbol
_atom_site_label
_atom_site_fract_x
_atom_site_fract_y
_atom_site_fract_z
Si Si1 0.893524 0.311532 0.601476
Si Si2 0.536290 0.989100 0.081864
Si Si3 0.736688 0.017861 0.377952
Si Si4 0.244421 0.398963 0.080286
Si Si5 0.625578 0.567879 0.139528
Si Si6 0.939046 0.142869 0.541955
Si Si7 0.856867 0.651007 0.874599
Si Si8 0.612943 0.294881 0.594214
O O1 0.750000 0.250000 0.500000
O O2 0.845248 0.359937 0.524724
O O3 0.794443 0.338424 0.588337
O O4 0.137748 0.291118 0.760431
O O5 0.550310 0.911381 0.095787
O O6 0.747262 0.029338 0.235396
O O7 0.500000 0.000000 0.000000
O O8 0.339020 0.027634 0.979481
O O9 0.500000 0.014794 0.250000
O O10 0.739405 0.045934 0.323151
O O11 0.902771 0.067364 0.510816
O O12 0.878472 0.953261 0.471770
O O13 0.500000 0.395848 0.250000
O O14 0.153123 0.368192 0.073133
O O15 0.616207 0.645746 0.135691
O O16 0.996678 0.178687 0.527382
O O17 0.117115 0.156055 0.697928
O O18 0.956554 0.722994 0.934543
#
# Coordination Sequence:
#
# PCOD9273658 Si02
#       8
#     8   8   8   8   8   8   8   8
#     4  12  20  31  50  79 117 147 173 223 285 358
#     4  10  22  38  55  74 112 154 195 230 269 337
#     4  10  21  35  59  84 112 143 190 242 288 344
#     4  11  21  35  54  78 110 148 189 230 279 341
#     4  10  20  38  57  83 114 149 191 235 292 347
#     4  11  20  33  52  78 111 145 180 221 285 354
#     4  11  22  36  53  77 110 149 189 228 276 343
#     4  11  22  34  53  79 114 147 181 230 287 341
#
# _framework density 18.559418999999998
#
# number of rings (size 3 to 8) (size 9 to 14) (size 15 to 20)
#    0.000    1.250    5.000    2.625    0.000    0.000 
#    0.000    0.000    0.000    0.750    0.000    0.875 
#    0.000    0.000    0.000    0.000    0.000    0.000 
#
# Total GULP energy -178222.966056 kJ/mol
# GULP energy per Si atom -5569.467689 kJ/mol
# Density = 1.851718 g / cm^3
# Si number density = 18.559419 Si / 1000 Ang^3
#
#
#
# Elastic Constant Matrix: (Units=GPa)
#
#
# Indices 1 2 3 4 5 6 
#
# 1 48.8780 27.0516 17.4665 0.0022 -8.5153 -0.0561
# 2 27.0516 150.0019 16.6976 0.0456 -1.0108 0.0039
# 3 17.4665 16.6976 53.8819 0.0147 -8.0353 -0.0599
# 4 0.0022 0.0456 0.0147 16.2841 -0.0004 8.5950
# 5 -8.5153 -1.0108 -8.0353 -0.0004 19.9429 -0.0733
# 6 -0.0561 0.0039 -0.0599 8.5950 -0.0733 21.7054
#
#
#
# Elastic Compliance Matrix: (Units=1/GPa)
#
#
# Indices 1 2 3 4 5 6 
#
# 1 0.026333 -0.004022 -0.006004 -0.000037 0.008621 0.000096
# 2 -0.004022 0.007525 -0.001306 -0.000010 -0.001862 -0.000018
# 3 -0.006004 -0.001306 0.021830 -0.000063 0.006166 0.000091
# 4 -0.000037 -0.000010 -0.000063 0.077637 -0.000153 -0.030744
# 5 0.008621 -0.001862 0.006166 -0.000153 0.056215 0.000290
# 6 0.000096 -0.000018 0.000091 -0.030744 0.000290 0.058247
#
#
# Mechanical properties :
#
#
# Convention : Reuss Voigt Hill
#
# Bulk Modulus (GPa) = 30.28163 41.68811 35.98487
# Shear Modulus (GPa) = 17.76463 24.35621 21.06042
#
# Velocity S-wave (km/s) = 3.09718 3.62655 3.37227
# Velocity P-wave (km/s) = 5.39829 6.32823 5.88167
#
# Compressibility (1/GPa) = 0.03302332
#
# Stress axis : x y z
#
# Youngs Moduli (GPa) = 37.97533 132.89386 45.80941
#
# Poissons Ratio (x) = 0.53456 0.27503
# Poissons Ratio (y) = 0.15276 0.05981
# Poissons Ratio (z) = 0.22800 0.17352
#
# Static dielectric constant tensor:
#      x y z
#    x 1.643810 0.000050 -0.014560 
#    y 0.000050 1.729320 0.000050 
#    z -0.014560 0.000050 1.649800 
# 
# From -- ./inp_files/107501.got.cif
#   From: 2010.05.17/outbox.cif.g08.bks.cpg/sg15_54_cif.got.tgz:107501.got - 2010.06.03 18:47:42.
