data_PCOD9273529
_publ_section_title
;
Structure prediction by ZEFSAII (Michael W. Deem and Ramdas Pophale) SiO2 
 PCOD9273529
Probable space group: C 2/C
;
_chemical_formula_sum "Si O2"
_cell_formula_units_Z 52
_cell_length_a 12.025256
_cell_length_b 26.811826
_cell_length_c 9.201716
_cell_angle_alpha 90.000000
_cell_angle_beta 114.577126
_cell_angle_gamma 90.000000
_cell_volume 2698.022465
_symmetry_space_group_name_H-M "C 2/C"
_symmetry_group_IT_number 15
_symmetry_cell_setting 'monoclinic'
loop_
_space_group_symop_operation_xyz
x,y,z
-x,y,1/2-z
-x,-y,-z
x,-y,1/2+z
1/2+x,1/2+y,z
1/2-x,1/2+y,1/2-z
1/2-x,1/2-y,-z
1/2+x,1/2-y,1/2+z
loop_
_atom_site_type_symbol
_atom_site_label
_atom_site_fract_x
_atom_site_fract_y
_atom_site_fract_z
Si Si1 0.036120 0.306777 0.998755
Si Si2 0.978845 0.911804 0.563292
Si Si3 0.000000 0.622649 0.750000
Si Si4 0.956551 0.196519 0.391928
Si Si5 0.241421 0.051578 0.166415
Si Si6 0.310851 0.163893 0.174993
Si Si7 0.215578 0.451688 0.464446
O O1 0.153597 0.312520 0.959558
O O2 0.921398 0.326829 0.845042
O O3 0.045419 0.340704 0.146664
O O4 0.013966 0.248765 0.018527
O O5 0.844905 0.933337 0.467965
O O6 0.000000 0.909805 0.750000
O O7 0.985794 0.854518 0.513868
O O8 0.093695 0.943396 0.566008
O O9 0.891102 0.586807 0.634905
O O10 0.811966 0.186560 0.324742
O O11 0.000000 0.200534 0.250000
O O12 0.292959 0.104947 0.146895
O O13 0.268491 0.045865 0.352842
O O14 0.300755 0.006624 0.110201
#
# Coordination Sequence:
#
# PCOD9273529 Si02
#       7
#     8   8   4   8   8   8   8
#     4  11  23  41  61  90 127 166 204 253 308 370
#     4   8  18  38  62  89 120 153 202 258 309 362
#     4  12  26  38  58  94 126 162 214 254 296 376
#     4  10  20  37  67  94 118 161 206 255 311 365
#     4  10  21  40  65  86 118 161 206 257 314 359
#     4  10  23  42  63  86 128 164 205 255 313 372
#     4  11  23  39  60  91 121 162 207 256 309 368
#
# _framework density 19.273375999999999
#
# number of rings (size 3 to 8) (size 9 to 14) (size 15 to 20)
#    0.000    1.846    2.308    1.846    2.154    3.692 
#    0.000    0.000    0.000    0.000    0.000    0.000 
#    0.000    0.000    0.000    0.000    0.000    0.000 
#
# Total GULP energy -145150.362067 kJ/mol
# GULP energy per Si atom -5582.706233 kJ/mol
# Density = 1.922951 g / cm^3
# Si number density = 19.273376 Si / 1000 Ang^3
#
#
#
# Elastic Constant Matrix: (Units=GPa)
#
#
# Indices 1 2 3 4 5 6 
#
# 1 73.6482 19.1594 16.9591 0.0000 -9.0382 0.0000
# 2 19.1594 93.3140 13.8901 0.0000 0.4128 0.0000
# 3 16.9591 13.8901 41.8030 0.0000 -1.9933 0.0000
# 4 0.0000 0.0000 0.0000 -13.8065 0.0000 30.3052
# 5 -9.0382 0.4128 -1.9933 0.0000 30.8255 0.0000
# 6 0.0000 0.0000 0.0000 30.3052 0.0000 -17.6849
#
#
#
# Elastic Compliance Matrix: (Units=1/GPa)
#
#
# Indices 1 2 3 4 5 6 
#
# 1 0.016022 -0.002496 -0.005462 0.000000 0.004378 0.000000
# 2 -0.002496 0.011668 -0.002916 0.000000 -0.001077 0.000000
# 3 -0.005462 -0.002916 0.027116 0.000000 0.000191 0.000000
# 4 0.000000 0.000000 0.000000 0.026229 0.000000 0.044947
# 5 0.004378 -0.001077 0.000191 0.000000 0.033751 0.000000
# 6 0.000000 0.000000 0.000000 0.044947 0.000000 0.020477
#
#
# Mechanical properties :
#
#
# Convention : Reuss Voigt Hill
#
# Bulk Modulus (GPa) = 30.24955 34.30914 32.27935
# Shear Modulus (GPa) = 29.75654 10.45059 20.10356
#
# Velocity S-wave (km/s) = 3.93354 2.33111 3.23317
# Velocity P-wave (km/s) = 6.02987 5.00853 5.54278
#
# Compressibility (1/GPa) = 0.03305834
#
# Stress axis : x y z
#
# Youngs Moduli (GPa) = 62.41243 85.70623 36.87924
#
# Poissons Ratio (x) = 0.21393 0.20143
# Poissons Ratio (y) = 0.15579 0.10753
# Poissons Ratio (z) = 0.34090 0.24988
#
# Static dielectric constant tensor:
#      x y z
#    x 1.680250 0.000000 -0.003180 
#    y 0.000000 1.659960 0.000000 
#    z -0.003180 0.000000 1.648390 
# 
# From -- ./inp_files/34428.got.cif
#   From: 2010.05.17/outbox.cif.g08.bks.cpg/sg15_18_cif.got.tgz:34428.got - 2010.06.03 18:47:42.
