data_PCOD9273063
_publ_section_title
;
Structure prediction by ZEFSAII (Michael W. Deem and Ramdas Pophale) SiO2 
 PCOD9273063
Probable space group: C 2/C
;
_chemical_formula_sum "Si O2"
_cell_formula_units_Z 40
_cell_length_a 9.169388
_cell_length_b 11.027424
_cell_length_c 16.276161
_cell_angle_alpha 90.000000
_cell_angle_beta 107.072553
_cell_angle_gamma 90.000000
_cell_volume 1573.237179
_symmetry_space_group_name_H-M "C 2/C"
_symmetry_group_IT_number 15
_symmetry_cell_setting 'monoclinic'
loop_
_space_group_symop_operation_xyz
x,y,z
-x,y,1/2-z
-x,-y,-z
x,-y,1/2+z
1/2+x,1/2+y,z
1/2-x,1/2+y,1/2-z
1/2-x,1/2-y,-z
1/2+x,1/2-y,1/2+z
loop_
_atom_site_type_symbol
_atom_site_label
_atom_site_fract_x
_atom_site_fract_y
_atom_site_fract_z
Si Si1 0.013962 0.718596 0.989977
Si Si2 0.057007 0.286255 0.677008
Si Si3 0.680599 0.901520 0.273136
Si Si4 0.279782 0.391165 0.116257
Si Si5 0.776534 0.060793 0.958771
O O1 0.025401 0.657388 0.082384
O O2 0.131409 0.648227 0.951708
O O3 0.075762 0.853697 0.010530
O O4 0.847477 0.709878 0.925290
O O5 0.225373 0.227312 0.708002
O O6 0.000000 0.354202 0.750000
O O7 0.940204 0.171988 0.657106
O O8 0.500000 0.881450 0.250000
O O9 0.725494 0.954675 0.191411
O O10 0.749210 0.978001 0.360646
O O11 0.281662 0.471250 0.035491
#
# Coordination Sequence:
#
# PCOD9273063 Si02
#       5
#     8   8   8   8   8
#     4  10  20  37  62  90 123 164 206 262 317 374
#     4   9  21  39  61  89 128 158 204 264 316 373
#     4  10  20  37  63  84 123 167 199 259 319 372
#     4  11  21  40  67  88 126 170 206 263 326 377
#     4  10  22  39  63  93 126 163 216 259 315 392
#
# _framework density 25.425284000000001
#
# number of rings (size 3 to 8) (size 9 to 14) (size 15 to 20)
#    0.000    2.000    2.000    1.200    0.000    3.200 
#    3.600    0.000   57.200    0.000    0.000    0.000 
#    0.000    0.000    0.000    0.000    0.000    0.000 
#
# Total GULP energy -111972.413189 kJ/mol
# GULP energy per Si atom -5598.620659 kJ/mol
# Density = 2.536741 g / cm^3
# Si number density = 25.425284 Si / 1000 Ang^3
#
#
#
# Elastic Constant Matrix: (Units=GPa)
#
#
# Indices 1 2 3 4 5 6 
#
# 1 147.1555 33.4692 62.1273 0.0000 0.4397 0.0000
# 2 33.4692 46.5061 46.2198 0.0000 10.5693 0.0000
# 3 62.1273 46.2198 207.3954 0.0000 -20.6456 0.0000
# 4 0.0000 0.0000 0.0000 34.2263 0.0000 -9.7194
# 5 0.4397 10.5693 -20.6456 0.0000 66.5100 0.0000
# 6 0.0000 0.0000 0.0000 -9.7194 0.0000 14.2832
#
#
#
# Elastic Compliance Matrix: (Units=1/GPa)
#
#
# Indices 1 2 3 4 5 6 
#
# 1 0.008484 -0.004696 -0.001472 0.000000 0.000233 0.000000
# 2 -0.004696 0.033241 -0.006732 0.000000 -0.007341 0.000000
# 3 -0.001472 -0.006732 0.007089 0.000000 0.003280 0.000000
# 4 0.000000 0.000000 0.000000 0.036215 0.000000 0.024644
# 5 0.000233 -0.007341 0.003280 0.000000 0.017219 0.000000
# 6 0.000000 0.000000 0.000000 0.024644 0.000000 0.086782
#
#
# Mechanical properties :
#
#
# Convention : Reuss Voigt Hill
#
# Bulk Modulus (GPa) = 43.45015 76.07661 59.76338
# Shear Modulus (GPa) = 22.47163 40.28663 31.37913
#
# Velocity S-wave (km/s) = 2.97615 3.98491 3.51689
# Velocity P-wave (km/s) = 5.37926 7.15257 6.32834
#
# Compressibility (1/GPa) = 0.02301488
#
# Stress axis : x y z
#
# Youngs Moduli (GPa) = 117.86471 30.08300 141.05549
#
# Poissons Ratio (x) = 0.14128 0.20759
# Poissons Ratio (y) = 0.55353 0.94960
# Poissons Ratio (z) = 0.17346 0.20252
#
# Static dielectric constant tensor:
#      x y z
#    x 2.009340 0.000000 -0.074100 
#    y 0.000000 2.008360 0.000000 
#    z -0.074100 0.000000 2.019250 
# 
# From -- ./inp_files/189040.got.cif
#   From: 2010.05.17/outbox.cif.g08.bks.cpg/sg15_95_cif.got.tgz:189040.got - 2010.06.03 18:47:42.
