data_PCOD9273540
_publ_section_title
;
Structure prediction by ZEFSAII (Michael W. Deem and Ramdas Pophale) SiO2 
 PCOD9273540
Probable space group: C 2/C
;
_chemical_formula_sum "Si O2"
_cell_formula_units_Z 52
_cell_length_a 13.455986
_cell_length_b 9.692112
_cell_length_c 27.249756
_cell_angle_alpha 90.000000
_cell_angle_beta 41.425071
_cell_angle_gamma 90.000000
_cell_volume 2351.355749
_symmetry_space_group_name_H-M "C 2/C"
_symmetry_group_IT_number 15
_symmetry_cell_setting 'monoclinic'
loop_
_space_group_symop_operation_xyz
x,y,z
-x,y,1/2-z
-x,-y,-z
x,-y,1/2+z
1/2+x,1/2+y,z
1/2-x,1/2+y,1/2-z
1/2-x,1/2-y,-z
1/2+x,1/2-y,1/2+z
loop_
_atom_site_type_symbol
_atom_site_label
_atom_site_fract_x
_atom_site_fract_y
_atom_site_fract_z
Si Si1 0.500000 0.664394 0.250000
Si Si2 0.211541 0.806769 0.311577
Si Si3 0.536325 0.542621 0.647178
Si Si4 0.034799 0.569663 0.422236
Si Si5 0.255938 0.587746 0.507847
Si Si6 0.679394 0.821036 0.420211
Si Si7 0.165298 0.010854 0.417723
O O1 0.379671 0.755006 0.263035
O O2 0.447243 0.563059 0.313601
O O3 0.129953 0.890714 0.297257
O O4 0.110466 0.669542 0.355252
O O5 0.186890 0.911152 0.365059
O O6 0.596248 0.469111 0.575161
O O7 0.664819 0.657371 0.608721
O O8 0.887712 0.485275 0.462468
O O9 0.968310 0.668038 0.490019
O O10 0.151212 0.452866 0.396239
O O11 0.250000 0.750000 0.500000
O O12 0.243435 0.544476 0.569103
O O13 0.689567 0.669752 0.394146
O O14 0.000000 0.000000 0.500000
#
# Coordination Sequence:
#
# PCOD9273540 Si02
#       7
#     4   8   8   8   8   8   8
#     4  12  28  54  66  96 146 198 246 294 334 420
#     4  12  25  48  72 100 138 185 235 292 354 418
#     4  11  24  47  70  93 138 188 233 284 349 420
#     4  10  20  37  68 100 140 175 213 282 361 420
#     4  11  22  37  68 109 140 172 223 291 370 423
#     4  10  20  38  66 104 135 173 218 278 362 424
#     4  12  21  38  67 108 140 163 222 301 362 427
#
# _framework density 22.114901
#
# number of rings (size 3 to 8) (size 9 to 14) (size 15 to 20)
#    0.000    0.923    4.615    2.769    2.154    2.462 
#   11.077    0.000    0.000    0.000    0.000    0.000 
#    0.000    0.000    0.000    0.000    0.000    0.000 
#
# Total GULP energy -144951.369236 kJ/mol
# GULP energy per Si atom -5575.052663 kJ/mol
# Density = 2.206457 g / cm^3
# Si number density = 22.114901 Si / 1000 Ang^3
#
#
#
# Elastic Constant Matrix: (Units=GPa)
#
#
# Indices 1 2 3 4 5 6 
#
# 1 98.2041 25.4409 17.2347 0.0000 -21.5603 0.0000
# 2 25.4409 117.3594 15.4176 0.0000 -17.2632 0.0001
# 3 17.2347 15.4176 27.3458 0.0000 -13.2080 0.0000
# 4 0.0000 0.0000 0.0000 26.0177 0.0000 -5.4991
# 5 -21.5603 -17.2632 -13.2080 0.0000 33.0859 0.0000
# 6 0.0000 0.0001 0.0000 -5.4991 0.0000 31.2526
#
#
#
# Elastic Compliance Matrix: (Units=1/GPa)
#
#
# Indices 1 2 3 4 5 6 
#
# 1 0.012553 -0.001298 -0.004406 0.000000 0.005745 0.000000
# 2 -0.001298 0.009653 -0.003221 0.000000 0.002905 0.000000
# 3 -0.004406 -0.003221 0.048270 0.000000 0.014718 0.000000
# 4 0.000000 0.000000 0.000000 0.039920 0.000000 0.007024
# 5 0.005745 0.002905 0.014718 0.000000 0.041359 0.000000
# 6 0.000000 0.000000 0.000000 0.007024 0.000000 0.033233
#
#
# Mechanical properties :
#
#
# Convention : Reuss Voigt Hill
#
# Bulk Modulus (GPa) = 19.00148 39.89952 29.45050
# Shear Modulus (GPa) = 22.68809 30.39233 26.54021
#
# Velocity S-wave (km/s) = 3.20647 3.71117 3.46801
# Velocity P-wave (km/s) = 4.72434 6.03695 5.42053
#
# Compressibility (1/GPa) = 0.05262748
#
# Stress axis : x y z
#
# Youngs Moduli (GPa) = 79.65975 103.59901 20.71664
#
# Poissons Ratio (x) = 0.13442 0.09127
# Poissons Ratio (y) = 0.10336 0.06674
# Poissons Ratio (z) = 0.35095 0.33373
#
# Static dielectric constant tensor:
#      x y z
#    x 1.953480 0.000000 -0.014750 
#    y 0.000000 1.790760 0.000000 
#    z -0.014750 0.000000 1.853560 
# 
# From -- ./inp_files/313078.got.cif
#   From: 2010.05.17/outbox.cif.g08.bks.cpg/sg15_157_cif.got.tgz:313078.got - 2010.06.03 18:47:42.
