data_PCOD9273779
_publ_section_title
;
Structure prediction by ZEFSAII (Michael W. Deem and Ramdas Pophale) SiO2 
 PCOD9273779
Probable space group: C 2/C
;
_chemical_formula_sum "Si O2"
_cell_formula_units_Z 32
_cell_length_a 8.320452
_cell_length_b 10.972708
_cell_length_c 18.263156
_cell_angle_alpha 90.000000
_cell_angle_beta 135.684646
_cell_angle_gamma 90.000000
_cell_volume 1164.848741
_symmetry_space_group_name_H-M "C 2/C"
_symmetry_group_IT_number 15
_symmetry_cell_setting 'monoclinic'
loop_
_space_group_symop_operation_xyz
x,y,z
-x,y,1/2-z
-x,-y,-z
x,-y,1/2+z
1/2+x,1/2+y,z
1/2-x,1/2+y,1/2-z
1/2-x,1/2-y,-z
1/2+x,1/2-y,1/2+z
loop_
_atom_site_type_symbol
_atom_site_label
_atom_site_fract_x
_atom_site_fract_y
_atom_site_fract_z
Si Si1 0.766516 0.621544 0.857328
Si Si2 0.768274 0.871939 0.353523
Si Si3 0.411532 0.374595 0.910458
Si Si4 0.030779 0.376027 0.913530
O O1 0.500000 0.626275 0.750000
O O2 0.884819 0.744720 0.863875
O O3 0.879394 0.497016 0.866991
O O4 0.827710 0.626631 0.964019
O O5 0.500000 0.875905 0.250000
O O6 0.854700 0.877061 0.466533
O O7 0.877383 0.745383 0.362896
O O8 0.880332 0.997996 0.359057
O O9 0.199478 0.375981 0.899376
#
# Coordination Sequence:
#
# PCOD9273779 Si02
#       4
#     8   8   8   8
#     4  10  20  38  59  83 115 147 186 232 275 330
#     4  10  20  38  59  83 115 147 186 232 275 330
#     4  10  22  39  58  83 115 148 185 231 279 329
#     4  10  22  39  58  83 115 148 185 231 279 329
#
# _framework density 27.471378999999999
#
# number of rings (size 3 to 8) (size 9 to 14) (size 15 to 20)
#    0.000    2.000    0.000    4.500    0.000    4.000 
#    0.000   22.500    0.000    0.000    0.000    0.000 
#    0.000    0.000    0.000    0.000    0.000    0.000 
#
# Total GULP energy -89824.553006 kJ/mol
# GULP energy per Si atom -5614.034563 kJ/mol
# Density = 2.740885 g / cm^3
# Si number density = 27.471379 Si / 1000 Ang^3
#
#
#
# Elastic Constant Matrix: (Units=GPa)
#
#
# Indices 1 2 3 4 5 6 
#
# 1 52.7153 50.7152 44.3297 0.0000 -1.1635 0.0000
# 2 50.7152 333.7312 99.2671 0.0000 38.7903 0.0000
# 3 44.3297 99.2671 264.0604 0.0000 21.2139 0.0000
# 4 0.0000 0.0000 0.0000 15.6216 0.0000 25.2570
# 5 -1.1635 38.7903 21.2139 0.0000 57.1416 0.0000
# 6 0.0000 0.0000 0.0000 25.2570 0.0000 30.8238
#
#
#
# Elastic Compliance Matrix: (Units=1/GPa)
#
#
# Indices 1 2 3 4 5 6 
#
# 1 0.024966 -0.003279 -0.003276 0.000000 0.003950 0.000000
# 2 -0.003279 0.004011 -0.000756 0.000000 -0.002509 0.000000
# 3 -0.003276 -0.000756 0.004726 0.000000 -0.001308 0.000000
# 4 0.000000 0.000000 0.000000 -0.197088 0.000000 0.161494
# 5 0.003950 -0.002509 -0.001308 0.000000 0.019770 0.000000
# 6 0.000000 0.000000 0.000000 0.161494 0.000000 -0.099885
#
#
# Mechanical properties :
#
#
# Convention : Reuss Voigt Hill
#
# Bulk Modulus (GPa) = 52.40454 115.45898 83.93176
# Shear Modulus (GPa) = -22.47014 51.13040 14.33013
#
# Velocity S-wave (km/s) = -2.86308 4.31887 2.28642
# Velocity P-wave (km/s) = 2.86144 8.18476 6.13099
#
# Compressibility (1/GPa) = 0.01908232
#
# Stress axis : x y z
#
# Youngs Moduli (GPa) = 40.05409 249.30559 211.58408
#
# Poissons Ratio (x) = 0.81739 0.69317
# Poissons Ratio (y) = 0.13132 0.15994
# Poissons Ratio (z) = 0.13122 0.18845
#
# Static dielectric constant tensor:
#      x y z
#    x 2.136070 0.000000 -0.044930 
#    y 0.000000 2.166790 0.000000 
#    z -0.044930 0.000000 2.071200 
# 
# From -- ./inp_files/141200.got.cif
#   From: 2010.05.17/outbox.cif.g08.bks.cpg/sg15_71_cif.got.tgz:141200.got - 2010.06.03 18:47:42.
