data_PCOD9273066
_publ_section_title
;
Structure prediction by ZEFSAII (Michael W. Deem and Ramdas Pophale) SiO2 
 PCOD9273066
Probable space group: C 2/C
;
_chemical_formula_sum "Si O2"
_cell_formula_units_Z 64
_cell_length_a 13.303481
_cell_length_b 21.003139
_cell_length_c 27.554984
_cell_angle_alpha 90.000000
_cell_angle_beta 24.951395
_cell_angle_gamma 90.000000
_cell_volume 3247.932303
_symmetry_space_group_name_H-M "C 2/C"
_symmetry_group_IT_number 15
_symmetry_cell_setting 'monoclinic'
loop_
_space_group_symop_operation_xyz
x,y,z
-x,y,1/2-z
-x,-y,-z
x,-y,1/2+z
1/2+x,1/2+y,z
1/2-x,1/2+y,1/2-z
1/2-x,1/2-y,-z
1/2+x,1/2-y,1/2+z
loop_
_atom_site_type_symbol
_atom_site_label
_atom_site_fract_x
_atom_site_fract_y
_atom_site_fract_z
Si Si1 0.133675 0.841137 0.509964
Si Si2 0.409162 0.406723 0.688876
Si Si3 0.329272 0.466226 0.278624
Si Si4 0.510990 0.348867 0.359113
Si Si5 0.578815 0.790917 0.367450
Si Si6 0.539220 0.831545 0.908242
Si Si7 0.071949 0.390383 0.994114
Si Si8 0.784253 0.807392 0.133818
O O1 0.409821 0.833588 0.405907
O O2 0.112440 0.832520 0.462203
O O3 0.999103 0.899760 0.594129
O O4 0.019104 0.779254 0.585486
O O5 0.317113 0.474272 0.748030
O O6 0.211924 0.355423 0.790326
O O7 0.653172 0.392327 0.611389
O O8 0.500000 0.479188 0.250000
O O9 0.439299 0.408901 0.197924
O O10 0.079741 0.444849 0.412452
O O11 0.655490 0.293382 0.268190
O O12 0.633117 0.352447 0.358311
O O13 0.236553 0.331707 0.485069
O O14 0.547506 0.825964 0.432426
O O15 0.626350 0.763575 0.890926
O O16 0.558159 0.884483 0.942773
O O17 0.500000 0.804335 0.250000
#
# Coordination Sequence:
#
# PCOD9273066 Si02
#       8
#     8   8   8   8   8   8   8   8
#     4  10  20  39  63  89 124 161 215 262 307 375
#     4  11  25  38  63  95 127 170 211 257 314 384
#     4  11  23  41  64  92 129 168 210 263 318 373
#     4  11  24  40  60  95 129 168 213 261 316 377
#     4   9  18  36  61  91 121 163 204 256 319 369
#     4  12  23  39  60  99 133 159 207 268 318 377
#     4  10  20  37  62  90 125 166 206 251 317 389
#     4  12  23  41  67  94 124 169 215 260 314 386
#
# _framework density 19.704844000000001
#
# number of rings (size 3 to 8) (size 9 to 14) (size 15 to 20)
#    0.000    1.250    3.750    3.000    3.500    1.000 
#    0.000    2.500    0.000    0.000    0.000    0.000 
#    0.000    0.000    0.000    0.000    0.000    0.000 
#
# Total GULP energy -178632.273711 kJ/mol
# GULP energy per Si atom -5582.258553 kJ/mol
# Density = 1.966000 g / cm^3
# Si number density = 19.704844 Si / 1000 Ang^3
#
#
#
# Elastic Constant Matrix: (Units=GPa)
#
#
# Indices 1 2 3 4 5 6 
#
# 1 56.2993 12.8469 28.0326 0.0012 12.9788 0.0302
# 2 12.8469 61.6165 21.4281 -0.0566 13.2826 0.0146
# 3 28.0326 21.4281 135.7345 0.0457 -7.2321 -0.1503
# 4 0.0012 -0.0566 0.0457 19.1353 -0.1022 7.8635
# 5 12.9788 13.2826 -7.2321 -0.1022 32.8700 0.0357
# 6 0.0302 0.0146 -0.1503 7.8635 0.0357 19.0275
#
#
#
# Elastic Compliance Matrix: (Units=1/GPa)
#
#
# Indices 1 2 3 4 5 6 
#
# 1 0.022735 -0.000875 -0.005076 -0.000025 -0.009740 -0.000047
# 2 -0.000875 0.019328 -0.003307 0.000038 -0.008192 -0.000040
# 3 -0.005076 -0.003307 0.009224 -0.000040 0.005370 0.000090
# 4 -0.000025 0.000038 -0.000040 0.062952 0.000210 -0.026017
# 5 -0.009740 -0.008192 0.005370 0.000210 0.038761 -0.000095
# 6 -0.000047 -0.000040 0.000090 -0.026017 -0.000095 0.063308
#
#
# Mechanical properties :
#
#
# Convention : Reuss Voigt Hill
#
# Bulk Modulus (GPa) = 30.51568 42.02950 36.27259
# Shear Modulus (GPa) = 20.34598 26.96277 23.65437
#
# Velocity S-wave (km/s) = 3.21680 3.70311 3.46849
# Velocity P-wave (km/s) = 5.41452 6.29761 5.87269
#
# Compressibility (1/GPa) = 0.03277004
#
# Stress axis : x y z
#
# Youngs Moduli (GPa) = 43.98528 51.73838 108.41295
#
# Poissons Ratio (x) = 0.04528 0.55032
# Poissons Ratio (y) = 0.03849 0.35853
# Poissons Ratio (z) = 0.22328 0.17110
#
# Static dielectric constant tensor:
#      x y z
#    x 1.709570 0.000030 0.014130 
#    y 0.000030 1.727900 0.000000 
#    z 0.014130 0.000000 1.712090 
# 
# From -- ./inp_files/314510.got.cif
#   From: 2010.05.17/outbox.cif.g08.bks.cpg/sg15_158_cif.got.tgz:314510.got - 2010.06.03 18:47:42.
