data_PCOD9273668
_publ_section_title
;
Structure prediction by ZEFSAII (Michael W. Deem and Ramdas Pophale) SiO2 
 PCOD9273668
Probable space group: C 2/C
;
_chemical_formula_sum "Si O2"
_cell_formula_units_Z 56
_cell_length_a 14.146075
_cell_length_b 28.561915
_cell_length_c 7.861049
_cell_angle_alpha 90.000000
_cell_angle_beta 61.460515
_cell_angle_gamma 90.000000
_cell_volume 2790.227738
_symmetry_space_group_name_H-M "C 2/C"
_symmetry_group_IT_number 15
_symmetry_cell_setting 'monoclinic'
loop_
_space_group_symop_operation_xyz
x,y,z
-x,y,1/2-z
-x,-y,-z
x,-y,1/2+z
1/2+x,1/2+y,z
1/2-x,1/2+y,1/2-z
1/2-x,1/2-y,-z
1/2+x,1/2-y,1/2+z
loop_
_atom_site_type_symbol
_atom_site_label
_atom_site_fract_x
_atom_site_fract_y
_atom_site_fract_z
Si Si1 0.618712 0.344522 0.431021
Si Si2 0.000000 0.491620 0.250000
Si Si3 0.614681 0.457759 0.751320
Si Si4 0.376496 0.352226 0.669850
Si Si5 0.735504 0.805393 0.499928
Si Si6 0.000000 0.652446 0.250000
Si Si7 0.313445 0.444388 0.156288
Si Si8 0.582648 0.067886 0.986894
O O1 0.493788 0.329578 0.529833
O O2 0.648479 0.342427 0.607566
O O3 0.703468 0.321350 0.227970
O O4 0.611173 0.399550 0.390507
O O5 0.908528 0.530076 0.367249
O O6 0.975812 0.459360 0.113110
O O7 0.500000 0.459455 0.750000
O O8 0.620439 0.409124 0.848909
O O9 0.704292 0.452386 0.528234
O O10 0.637674 0.507079 0.819634
O O11 0.294574 0.331202 0.605691
O O12 0.750000 0.750000 0.500000
O O13 0.609314 0.818260 0.634477
O O14 0.983945 0.614360 0.415435
O O15 0.204528 0.425591 0.330883
#
# Coordination Sequence:
#
# PCOD9273668 Si02
#       8
#     8   4   8   8   8   4   8   8
#     4  10  22  45  70 103 140 180 230 281 348 417
#     4   9  20  34  60  84 122 180 226 256 323 384
#     4  11  22  35  57  97 139 180 232 274 334 412
#     4  10  23  45  71 102 139 183 229 283 347 420
#     4  12  28  47  77 101 134 180 228 300 366 408
#     4  11  26  46  62 102 136 164 244 282 331 436
#     4  11  21  34  57  91 138 176 217 276 330 397
#     4  10  20  38  57  87 131 175 221 275 318 397
#
# _framework density 20.070048
#
# number of rings (size 3 to 8) (size 9 to 14) (size 15 to 20)
#    0.000    1.429    4.286    1.714    4.000    6.286 
#    0.000    0.000    0.000    0.000    0.000    0.000 
#    0.000    0.000    0.000    0.000    0.000    0.000 
#
# Total GULP energy -155924.148163 kJ/mol
# GULP energy per Si atom -5568.719577 kJ/mol
# Density = 2.002437 g / cm^3
# Si number density = 20.070048 Si / 1000 Ang^3
#
#
#
# Elastic Constant Matrix: (Units=GPa)
#
#
# Indices 1 2 3 4 5 6 
#
# 1 71.4248 47.4413 52.6227 0.0000 -13.6771 0.0000
# 2 47.4413 141.4808 64.1315 0.0000 -2.5771 0.0000
# 3 52.6227 64.1315 145.8035 0.0000 -25.9185 0.0000
# 4 0.0000 0.0000 0.0000 28.8198 0.0000 -0.4783
# 5 -13.6771 -2.5771 -25.9185 0.0000 24.7032 0.0000
# 6 0.0000 0.0000 0.0000 -0.4783 0.0000 23.2897
#
#
#
# Elastic Compliance Matrix: (Units=1/GPa)
#
#
# Indices 1 2 3 4 5 6 
#
# 1 0.022109 -0.005293 -0.004393 0.000000 0.007080 0.000000
# 2 -0.005293 0.010408 -0.003682 0.000000 -0.005708 0.000000
# 3 -0.004393 -0.003682 0.011755 0.000000 0.009518 0.000000
# 4 0.000000 0.000000 0.000000 0.034710 0.000000 0.000713
# 5 0.007080 -0.005708 0.009518 0.000000 0.053791 0.000000
# 6 0.000000 0.000000 0.000000 0.000713 0.000000 0.042952
#
#
# Mechanical properties :
#
#
# Convention : Reuss Voigt Hill
#
# Bulk Modulus (GPa) = 57.02628 76.34445 66.68537
# Shear Modulus (GPa) = 24.00302 28.33010 26.16656
#
# Velocity S-wave (km/s) = 3.46202 3.76115 3.61468
# Velocity P-wave (km/s) = 6.66754 7.54873 7.12177
#
# Compressibility (1/GPa) = 0.01753577
#
# Stress axis : x y z
#
# Youngs Moduli (GPa) = 45.23129 96.07756 85.06707
#
# Poissons Ratio (x) = 0.50858 0.37366
# Poissons Ratio (y) = 0.23943 0.31325
# Poissons Ratio (z) = 0.19868 0.35379
#
# Static dielectric constant tensor:
#      x y z
#    x 1.711950 0.000000 -0.023990 
#    y 0.000000 1.707730 0.000000 
#    z -0.023990 0.000000 1.838310 
# 
# From -- ./inp_files/43490.got.cif
#   From: 2010.05.17/outbox.cif.g08.bks.cpg/sg15_22_cif.got.tgz:43490.got - 2010.06.03 18:47:42.
