data_PCOD9273889
_publ_section_title
;
Structure prediction by ZEFSAII (Michael W. Deem and Ramdas Pophale) SiO2 
 PCOD9273889
Probable space group: C 2/C
;
_chemical_formula_sum "Si O2"
_cell_formula_units_Z 48
_cell_length_a 12.126988
_cell_length_b 13.143093
_cell_length_c 16.220517
_cell_angle_alpha 90.000000
_cell_angle_beta 116.789024
_cell_angle_gamma 90.000000
_cell_volume 2307.848093
_symmetry_space_group_name_H-M "C 2/C"
_symmetry_group_IT_number 15
_symmetry_cell_setting 'monoclinic'
loop_
_space_group_symop_operation_xyz
x,y,z
-x,y,1/2-z
-x,-y,-z
x,-y,1/2+z
1/2+x,1/2+y,z
1/2-x,1/2+y,1/2-z
1/2-x,1/2-y,-z
1/2+x,1/2-y,1/2+z
loop_
_atom_site_type_symbol
_atom_site_label
_atom_site_fract_x
_atom_site_fract_y
_atom_site_fract_z
Si Si1 0.148280 0.099586 0.109474
Si Si2 0.639910 0.156079 0.905527
Si Si3 0.396742 0.847519 0.916714
Si Si4 0.918302 0.430151 0.646221
Si Si5 0.131700 0.148797 0.284172
Si Si6 0.602644 0.626575 0.573419
O O1 0.279033 0.110012 0.108067
O O2 0.143881 0.165842 0.190509
O O3 0.133293 0.979369 0.128578
O O4 0.031872 0.120209 0.012098
O O5 0.619819 0.251447 0.838489
O O6 0.788585 0.137771 0.958340
O O7 0.588532 0.052094 0.851575
O O8 0.589880 0.166042 0.980913
O O9 0.510760 0.902299 0.913181
O O10 0.263542 0.899079 0.854531
O O11 0.388933 0.733170 0.876261
O O12 0.000000 0.391944 0.750000
O O13 0.000000 0.092501 0.250000
#
# Coordination Sequence:
#
# PCOD9273889 Si02
#       6
#     8   8   8   8   8   8
#     4  10  20  38  60  85 120 165 198 252 308 365
#     4  10  21  37  62  89 117 160 210 257 299 365
#     4  11  21  38  60  89 124 159 204 257 311 368
#     4  11  22  38  57  86 126 161 200 257 312 365
#     4  11  20  35  62  87 117 155 207 254 297 357
#     4   9  20  37  60  86 121 158 205 249 306 359
#
# _framework density 20.798596
#
# number of rings (size 3 to 8) (size 9 to 14) (size 15 to 20)
#    0.000    1.667    1.667    5.000    0.000    0.667 
#    0.000    0.833    0.000    0.000    0.000    0.000 
#    0.000    0.000    0.000    0.000    0.000    0.000 
#
# Total GULP energy -133810.754303 kJ/mol
# GULP energy per Si atom -5575.448096 kJ/mol
# Density = 2.075126 g / cm^3
# Si number density = 20.798596 Si / 1000 Ang^3
#
#
#
# Elastic Constant Matrix: (Units=GPa)
#
#
# Indices 1 2 3 4 5 6 
#
# 1 179.4936 28.7169 65.6901 0.0000 1.9906 0.0000
# 2 28.7169 32.7183 12.6374 0.0000 -1.7062 0.0000
# 3 65.6901 12.6374 86.2119 0.0000 -0.7576 0.0000
# 4 0.0000 0.0000 0.0000 18.8390 0.0000 0.1670
# 5 1.9906 -1.7062 -0.7576 0.0000 34.0712 0.0000
# 6 0.0000 0.0000 0.0000 0.1670 0.0000 21.1489
#
#
#
# Elastic Compliance Matrix: (Units=1/GPa)
#
#
# Indices 1 2 3 4 5 6 
#
# 1 0.008528 -0.005320 -0.005726 0.000000 -0.000892 0.000000
# 2 -0.005320 0.035795 -0.001175 0.000000 0.002077 0.000000
# 3 -0.005726 -0.001175 0.016140 0.000000 0.000635 0.000000
# 4 0.000000 0.000000 0.000000 0.053085 0.000000 -0.000419
# 5 -0.000892 0.002077 0.000635 0.000000 0.029521 0.000000
# 6 0.000000 0.000000 0.000000 -0.000419 0.000000 0.047287
#
#
# Mechanical properties :
#
#
# Convention : Reuss Voigt Hill
#
# Bulk Modulus (GPa) = 27.76139 56.94584 42.35361
# Shear Modulus (GPa) = 22.04537 27.57045 24.80791
#
# Velocity S-wave (km/s) = 3.25921 3.64482 3.45739
# Velocity P-wave (km/s) = 5.24786 6.71953 6.02876
#
# Compressibility (1/GPa) = 0.03602126
#
# Stress axis : x y z
#
# Youngs Moduli (GPa) = 117.26460 27.93656 61.95758
#
# Poissons Ratio (x) = 0.14861 0.35476
# Poissons Ratio (y) = 0.62381 0.07283
# Poissons Ratio (z) = 0.67144 0.03284
#
# Static dielectric constant tensor:
#      x y z
#    x 1.777410 0.000000 0.029410 
#    y 0.000000 1.797790 0.000000 
#    z 0.029410 0.000000 1.755880 
# 
# From -- ./inp_files/143418.got.cif
#   From: 2010.05.17/outbox.cif.g08.bks.cpg/sg15_72_cif.got.tgz:143418.got - 2010.06.03 18:47:42.
