data_PCOD9273179
_publ_section_title
;
Structure prediction by ZEFSAII (Michael W. Deem and Ramdas Pophale) SiO2 
 PCOD9273179
Probable space group: C 2/C
;
_chemical_formula_sum "Si O2"
_cell_formula_units_Z 52
_cell_length_a 11.145993
_cell_length_b 24.984633
_cell_length_c 14.125459
_cell_angle_alpha 90.000000
_cell_angle_beta 149.388469
_cell_angle_gamma 90.000000
_cell_volume 2003.065656
_symmetry_space_group_name_H-M "C 2/C"
_symmetry_group_IT_number 15
_symmetry_cell_setting 'monoclinic'
loop_
_space_group_symop_operation_xyz
x,y,z
-x,y,1/2-z
-x,-y,-z
x,-y,1/2+z
1/2+x,1/2+y,z
1/2-x,1/2+y,1/2-z
1/2-x,1/2-y,-z
1/2+x,1/2-y,1/2+z
loop_
_atom_site_type_symbol
_atom_site_label
_atom_site_fract_x
_atom_site_fract_y
_atom_site_fract_z
Si Si1 0.549536 0.940243 0.929052
Si Si2 0.586100 0.710226 0.673498
Si Si3 0.388982 0.176890 0.050750
Si Si4 0.730840 0.301043 0.055640
Si Si5 0.391291 0.948162 0.305888
Si Si6 0.500000 0.501148 0.250000
Si Si7 0.116760 0.912484 0.956577
O O1 0.495105 0.880799 0.860077
O O2 0.587682 0.939969 0.068476
O O3 0.806630 0.962298 0.074497
O O4 0.384490 0.988177 0.782976
O O5 0.554335 0.772432 0.680741
O O6 0.790333 0.684382 0.876359
O O7 0.343671 0.682402 0.542125
O O8 0.640706 0.710544 0.599891
O O9 0.573709 0.350036 0.910038
O O10 0.000000 0.320815 0.250000
O O11 0.750000 0.250000 0.000000
O O12 0.174326 0.920556 0.106028
O O13 0.636225 0.927387 0.427365
O O14 0.440424 0.544248 0.292530
#
# Coordination Sequence:
#
# PCOD9273179 Si02
#       7
#     8   8   8   8   8   4   8
#     4  10  20  37  63  90 116 167 208 262 315 389
#     4  10  22  40  62  92 124 170 210 263 325 377
#     4  10  21  41  64  90 132 163 208 268 320 386
#     4  12  25  40  63  93 124 173 221 262 322 388
#     4   9  19  38  61  85 120 165 209 249 330 378
#     4  10  22  38  58  92 120 152 218 252 316 374
#     4  10  21  40  58  82 129 162 195 275 309 372
#
# _framework density 25.960208000000002
#
# number of rings (size 3 to 8) (size 9 to 14) (size 15 to 20)
#    0.000    1.846    1.538    2.769    3.231    0.615 
#    0.000   16.923    0.000    0.000    0.000    0.000 
#    0.000    0.000    0.000    0.000    0.000    0.000 
#
# Total GULP energy -145509.811304 kJ/mol
# GULP energy per Si atom -5596.531204 kJ/mol
# Density = 2.590112 g / cm^3
# Si number density = 25.960208 Si / 1000 Ang^3
#
#
#
# Elastic Constant Matrix: (Units=GPa)
#
#
# Indices 1 2 3 4 5 6 
#
# 1 113.5164 28.9462 12.1620 0.0001 -32.5985 0.0001
# 2 28.9462 199.5976 5.2358 -0.0001 -5.6192 0.0000
# 3 12.1620 5.2358 62.0186 0.0002 -22.1724 -0.0002
# 4 0.0001 -0.0001 0.0002 29.0758 0.0002 -4.9399
# 5 -32.5985 -5.6192 -22.1724 0.0002 40.6501 0.0001
# 6 0.0001 0.0000 -0.0002 -4.9399 0.0001 11.8238
#
#
#
# Elastic Compliance Matrix: (Units=1/GPa)
#
#
# Indices 1 2 3 4 5 6 
#
# 1 0.011951 -0.001484 0.001410 0.000000 0.010147 0.000000
# 2 -0.001484 0.005216 -0.000394 0.000000 -0.000684 0.000000
# 3 0.001410 -0.000394 0.020206 0.000000 0.012097 0.000000
# 4 0.000000 0.000000 0.000000 0.037021 0.000000 0.015467
# 5 0.010147 -0.000684 0.012097 0.000000 0.039241 0.000000
# 6 0.000000 0.000000 0.000000 0.015467 0.000000 0.091038
#
#
# Mechanical properties :
#
#
# Convention : Reuss Voigt Hill
#
# Bulk Modulus (GPa) = 27.44576 51.98007 39.71291
# Shear Modulus (GPa) = 22.96153 38.22917 30.59535
#
# Velocity S-wave (km/s) = 2.97726 3.84162 3.43672
# Velocity P-wave (km/s) = 4.73434 6.30427 5.57485
#
# Compressibility (1/GPa) = 0.03643550
#
# Stress axis : x y z
#
# Youngs Moduli (GPa) = 83.67637 191.70199 49.49051
#
# Poissons Ratio (x) = 0.28457 -0.06976
# Poissons Ratio (y) = 0.12421 0.01949
# Poissons Ratio (z) = -0.11794 0.07551
#
# Static dielectric constant tensor:
#      x y z
#    x 2.097960 0.000000 0.021990 
#    y 0.000000 2.023480 0.000000 
#    z 0.021990 0.000000 2.083660 
# 
# From -- ./inp_files/148143.got.cif
#   From: 2010.05.17/outbox.cif.g08.bks.cpg/sg15_75_cif.got.tgz:148143.got - 2010.06.03 18:47:42.
