data_PCOD9273255
_publ_section_title
;
Structure prediction by ZEFSAII (Michael W. Deem and Ramdas Pophale) SiO2 
 PCOD9273255
Probable space group: C 2/C
;
_chemical_formula_sum "Si O2"
_cell_formula_units_Z 64
_cell_length_a 30.123888
_cell_length_b 19.134045
_cell_length_c 14.997881
_cell_angle_alpha 90.000000
_cell_angle_beta 160.051684
_cell_angle_gamma 90.000000
_cell_volume 2949.317612
_symmetry_space_group_name_H-M "C 2/C"
_symmetry_group_IT_number 15
_symmetry_cell_setting 'monoclinic'
loop_
_space_group_symop_operation_xyz
x,y,z
-x,y,1/2-z
-x,-y,-z
x,-y,1/2+z
1/2+x,1/2+y,z
1/2-x,1/2+y,1/2-z
1/2-x,1/2-y,-z
1/2+x,1/2-y,1/2+z
loop_
_atom_site_type_symbol
_atom_site_label
_atom_site_fract_x
_atom_site_fract_y
_atom_site_fract_z
Si Si1 0.401561 0.701222 0.755004
Si Si2 0.423292 0.054278 0.482461
Si Si3 0.411542 0.611070 0.496361
Si Si4 0.803561 0.502039 0.438731
Si Si5 0.964111 0.721414 0.554446
Si Si6 0.326797 0.899351 0.626572
Si Si7 0.021879 0.324504 0.890144
Si Si8 0.776148 0.257062 0.851202
O O1 0.262707 0.665447 0.510167
O O2 0.426545 0.756486 0.721501
O O3 0.495923 0.638256 0.907060
O O4 0.449197 0.743070 0.930938
O O5 0.352621 0.012877 0.429378
O O6 0.429586 0.139195 0.503121
O O7 0.344636 0.047312 0.241866
O O8 0.573208 0.031317 0.772229
O O9 0.326013 0.547057 0.303143
O O10 0.309171 0.673100 0.324497
O O11 0.500000 0.597118 0.750000
O O12 0.773995 0.430019 0.433936
O O13 0.861134 0.759680 0.424657
O O14 0.112670 0.729815 0.865920
O O15 0.471779 0.875223 0.872128
O O16 0.000000 0.353955 0.750000
O O17 0.169549 0.300091 0.176873
#
# Coordination Sequence:
#
# PCOD9273255 Si02
#       8
#     8   8   8   8   8   8   8   8
#     4  11  24  38  65  99 136 168 220 275 344 403
#     4  11  22  43  70  97 129 175 228 275 340 400
#     4  11  22  40  68  99 127 178 230 274 333 404
#     4  11  24  45  68  95 135 177 234 277 327 401
#     4  11  20  39  68  97 134 171 213 270 347 401
#     4  12  26  43  69  98 139 181 224 283 335 402
#     4  11  24  38  63 100 135 169 217 274 338 394
#     4  10  20  37  63  98 132 170 215 271 332 412
#
# _framework density 21.699935
#
# number of rings (size 3 to 8) (size 9 to 14) (size 15 to 20)
#    0.000    1.000    3.750    4.500    3.500    3.500 
#    0.000    0.000    8.250    0.000    0.000    0.000 
#    0.000    0.000    0.000    0.000    0.000    0.000 
#
# Total GULP energy -178680.461333 kJ/mol
# GULP energy per Si atom -5583.764417 kJ/mol
# Density = 2.165055 g / cm^3
# Si number density = 21.699935 Si / 1000 Ang^3
#
#
#
# Elastic Constant Matrix: (Units=GPa)
#
#
# Indices 1 2 3 4 5 6 
#
# 1 103.5036 26.1270 29.6537 0.0000 -2.7400 0.0000
# 2 26.1270 40.7820 17.0362 0.0000 -1.7229 0.0000
# 3 29.6537 17.0362 94.5925 0.0000 9.7459 0.0000
# 4 0.0000 0.0000 0.0000 28.4192 0.0000 -6.8428
# 5 -2.7400 -1.7229 9.7459 0.0000 35.8728 0.0000
# 6 0.0000 0.0000 0.0000 -6.8428 0.0000 30.5825
#
#
#
# Elastic Compliance Matrix: (Units=1/GPa)
#
#
# Indices 1 2 3 4 5 6 
#
# 1 0.012148 -0.006570 -0.002766 0.000000 0.001364 0.000000
# 2 -0.006570 0.030315 -0.003599 0.000000 0.001932 0.000000
# 3 -0.002766 -0.003599 0.012476 0.000000 -0.003773 0.000000
# 4 0.000000 0.000000 0.000000 0.037191 0.000000 0.008321
# 5 0.001364 0.001932 -0.003773 0.000000 0.029098 0.000000
# 6 0.000000 0.000000 0.000000 0.008321 0.000000 0.034560
#
#
# Mechanical properties :
#
#
# Convention : Reuss Voigt Hill
#
# Bulk Modulus (GPa) = 34.40052 42.72354 38.56203
# Shear Modulus (GPa) = 26.13042 30.04565 28.08804
#
# Velocity S-wave (km/s) = 3.47388 3.72505 3.60166
# Velocity P-wave (km/s) = 5.65488 6.18324 5.92495
#
# Compressibility (1/GPa) = 0.02906933
#
# Stress axis : x y z
#
# Youngs Moduli (GPa) = 82.31558 32.98726 80.15606
#
# Poissons Ratio (x) = 0.21672 0.22168
# Poissons Ratio (y) = 0.54081 0.28849
# Poissons Ratio (z) = 0.22766 0.11873
#
# Static dielectric constant tensor:
#      x y z
#    x 1.855620 0.000000 -0.010880 
#    y 0.000000 1.849830 0.000000 
#    z -0.010880 0.000000 1.759990 
# 
# From -- ./inp_files/183143.got.cif
#   From: 2010.05.17/outbox.cif.g08.bks.cpg/sg15_92_cif.got.tgz:183143.got - 2010.06.03 18:47:42.
