data_PCOD9273892
_publ_section_title
;
Structure prediction by ZEFSAII (Michael W. Deem and Ramdas Pophale) SiO2 
 PCOD9273892
Probable space group: C 2/C
;
_chemical_formula_sum "Si O2"
_cell_formula_units_Z 40
_cell_length_a 14.245980
_cell_length_b 7.987708
_cell_length_c 16.778570
_cell_angle_alpha 90.000000
_cell_angle_beta 121.599781
_cell_angle_gamma 90.000000
_cell_volume 1626.188394
_symmetry_space_group_name_H-M "C 2/C"
_symmetry_group_IT_number 15
_symmetry_cell_setting 'monoclinic'
loop_
_space_group_symop_operation_xyz
x,y,z
-x,y,1/2-z
-x,-y,-z
x,-y,1/2+z
1/2+x,1/2+y,z
1/2-x,1/2+y,1/2-z
1/2-x,1/2-y,-z
1/2+x,1/2-y,1/2+z
loop_
_atom_site_type_symbol
_atom_site_label
_atom_site_fract_x
_atom_site_fract_y
_atom_site_fract_z
Si Si1 0.815104 0.813854 0.417094
Si Si2 0.876549 0.154780 0.721236
Si Si3 0.189384 0.823297 0.716268
Si Si4 0.732548 0.024915 0.512188
Si Si5 0.045214 0.686700 0.506740
O O1 0.719439 0.778401 0.310276
O O2 0.789587 0.981576 0.454436
O O3 0.811638 0.655180 0.475914
O O4 0.940968 0.803591 0.442480
O O5 0.809229 0.312229 0.726663
O O6 0.000000 0.188725 0.750000
O O7 0.856610 0.000581 0.774563
O O8 0.815698 0.083975 0.616544
O O9 0.106643 0.741509 0.615645
O O10 0.632988 0.156962 0.474792
O O11 0.000000 0.500000 0.500000
#
# Coordination Sequence:
#
# PCOD9273892 Si02
#       5
#     8   8   8   8   8
#     4   9  16  31  54  81 112 146 191 240 281 341
#     4  10  20  38  60  85 122 158 195 250 301 347
#     4  10  21  37  61  91 118 157 208 241 291 369
#     4   8  16  30  52  81 111 147 190 234 290 349
#     4   9  17  32  54  81 118 155 188 241 299 344
#
# _framework density 24.597397000000001
#
# number of rings (size 3 to 8) (size 9 to 14) (size 15 to 20)
#    0.000    2.800    0.000    2.400    0.000    1.600 
#    0.000    7.000    0.000    4.800    0.000    0.000 
#    0.000    0.000    0.000    0.000    0.000    0.000 
#
# Total GULP energy -111753.624287 kJ/mol
# GULP energy per Si atom -5587.681214 kJ/mol
# Density = 2.454141 g / cm^3
# Si number density = 24.597397 Si / 1000 Ang^3
#
#
#
# Elastic Constant Matrix: (Units=GPa)
#
#
# Indices 1 2 3 4 5 6 
#
# 1 145.1403 61.5033 71.3480 0.0000 7.1933 0.0000
# 2 61.5033 106.2133 68.1894 0.0000 -22.2128 0.0000
# 3 71.3480 68.1894 121.7251 0.0000 6.8518 0.0000
# 4 0.0000 0.0000 0.0000 47.0479 0.0000 -18.9087
# 5 7.1933 -22.2128 6.8518 0.0000 24.0195 0.0000
# 6 0.0000 0.0000 0.0000 -18.9087 0.0000 21.0603
#
#
#
# Elastic Compliance Matrix: (Units=1/GPa)
#
#
# Indices 1 2 3 4 5 6 
#
# 1 0.011502 -0.007328 -0.002095 0.000000 -0.009624 0.000000
# 2 -0.007328 0.030115 -0.014499 0.000000 0.034180 0.000000
# 3 -0.002095 -0.014499 0.018583 0.000000 -0.018082 0.000000
# 4 0.000000 0.000000 0.000000 0.033255 0.000000 0.029857
# 5 -0.009624 0.034180 -0.018082 0.000000 0.081282 0.000000
# 6 0.000000 0.000000 0.000000 0.029857 0.000000 0.074290
#
#
# Mechanical properties :
#
#
# Convention : Reuss Voigt Hill
#
# Bulk Modulus (GPa) = 80.92984 86.12890 83.52937
# Shear Modulus (GPa) = 16.61192 29.89473 23.25332
#
# Velocity S-wave (km/s) = 2.60157 3.48999 3.07800
# Velocity P-wave (km/s) = 6.48055 7.16460 6.83114
#
# Compressibility (1/GPa) = 0.01235638
#
# Stress axis : x y z
#
# Youngs Moduli (GPa) = 86.94229 33.20623 53.81198
#
# Poissons Ratio (x) = 0.24333 0.11274
# Poissons Ratio (y) = 0.63710 0.78022
# Poissons Ratio (z) = 0.18215 0.48145
#
# Static dielectric constant tensor:
#      x y z
#    x 2.035510 0.000000 -0.025140 
#    y 0.000000 1.952790 0.000000 
#    z -0.025140 0.000000 1.936500 
# 
# From -- ./inp_files/202818.got.cif
#   From: 2010.05.17/outbox.cif.g08.bks.cpg/sg15_102_cif.got.tgz:202818.got - 2010.06.03 18:47:42.
