data_PCOD9273706
_publ_section_title
;
Structure prediction by ZEFSAII (Michael W. Deem and Ramdas Pophale) SiO2 
 PCOD9273706
Probable space group: C 2/C
;
_chemical_formula_sum "Si O2"
_cell_formula_units_Z 64
_cell_length_a 13.312806
_cell_length_b 27.882828
_cell_length_c 18.892059
_cell_angle_alpha 90.000000
_cell_angle_beta 150.368135
_cell_angle_gamma 90.000000
_cell_volume 3467.260355
_symmetry_space_group_name_H-M "C 2/C"
_symmetry_group_IT_number 15
_symmetry_cell_setting 'monoclinic'
loop_
_space_group_symop_operation_xyz
x,y,z
-x,y,1/2-z
-x,-y,-z
x,-y,1/2+z
1/2+x,1/2+y,z
1/2-x,1/2+y,1/2-z
1/2-x,1/2-y,-z
1/2+x,1/2-y,1/2+z
loop_
_atom_site_type_symbol
_atom_site_label
_atom_site_fract_x
_atom_site_fract_y
_atom_site_fract_z
Si Si1 0.068145 0.574335 0.011149
Si Si2 0.837262 0.586796 0.091086
Si Si3 0.869171 0.352925 0.828129
Si Si4 0.535247 0.224535 0.879961
Si Si5 0.232326 0.022731 0.902693
Si Si6 0.407556 0.755723 0.924571
Si Si7 0.426784 0.118672 0.778237
Si Si8 0.461237 0.648512 0.496090
O O1 0.155447 0.616739 0.114333
O O2 0.228533 0.532708 0.091431
O O3 0.884669 0.551016 0.943943
O O4 0.980514 0.591722 0.882971
O O5 0.658283 0.616636 0.019387
O O6 0.000000 0.573224 0.250000
O O7 0.954241 0.622142 0.109091
O O8 0.779913 0.540072 0.011215
O O9 0.933240 0.299058 0.886082
O O10 0.668876 0.353460 0.656225
O O11 0.337356 0.247850 0.722116
O O12 0.538397 0.170177 0.854837
O O13 0.750000 0.250000 0.000000
O O14 0.504879 0.227915 0.946040
O O15 0.000000 0.036099 0.750000
O O16 0.507352 0.704751 0.965583
O O17 0.500000 0.095395 0.750000
O O18 0.187008 0.128130 0.626075
#
# Coordination Sequence:
#
# PCOD9273706 Si02
#       8
#     8   8   8   8   8   8   8   8
#     4  10  22  40  61  85 119 151 192 246 292 350
#     4   9  20  39  64  84 113 152 194 240 299 350
#     4  10  20  38  58  85 116 156 193 241 291 342
#     4  11  21  36  51  79 111 161 194 231 281 335
#     4  10  21  40  63  89 114 149 194 241 302 354
#     4  11  20  34  57  78 119 154 194 242 283 342
#     4  11  23  37  56  83 116 151 196 236 285 342
#     4  10  21  38  58  86 117 155 197 238 286 350
#
# _framework density 18.458376999999999
#
# number of rings (size 3 to 8) (size 9 to 14) (size 15 to 20)
#    0.000    1.750    2.500    2.625    0.000    2.000 
#    0.000    0.000    0.000    7.500    0.000    0.000 
#    0.000    0.000    0.000    0.000    0.000    0.000 
#
# Total GULP energy -178520.597429 kJ/mol
# GULP energy per Si atom -5578.768670 kJ/mol
# Density = 1.841637 g / cm^3
# Si number density = 18.458377 Si / 1000 Ang^3
#
#
#
# Elastic Constant Matrix: (Units=GPa)
#
#
# Indices 1 2 3 4 5 6 
#
# 1 84.3337 25.3399 37.5404 -0.0002 -23.4738 0.0001
# 2 25.3399 54.4070 24.0602 -0.0001 -8.1516 0.0001
# 3 37.5404 24.0602 84.0474 -0.0010 -8.0082 0.0003
# 4 -0.0002 -0.0001 -0.0010 16.3656 -0.0003 -9.2898
# 5 -23.4738 -8.1516 -8.0082 -0.0003 29.8214 0.0001
# 6 0.0001 0.0001 0.0003 -9.2898 0.0001 10.2000
#
#
#
# Elastic Compliance Matrix: (Units=1/GPa)
#
#
# Indices 1 2 3 4 5 6 
#
# 1 0.019408 -0.004432 -0.006219 0.000000 0.012395 0.000000
# 2 -0.004432 0.022593 -0.004343 0.000000 0.001521 0.000000
# 3 -0.006219 -0.004343 0.015742 0.000001 -0.001855 0.000001
# 4 0.000000 0.000000 0.000001 0.126507 0.000001 0.115218
# 5 0.012395 0.001521 -0.001855 0.000001 0.043207 0.000000
# 6 0.000000 0.000000 0.000001 0.115218 0.000000 0.202975
#
#
# Mechanical properties :
#
#
# Convention : Reuss Voigt Hill
#
# Bulk Modulus (GPa) = 36.02952 44.07433 40.05192
# Shear Modulus (GPa) = 10.64573 20.33391 15.48982
#
# Velocity S-wave (km/s) = 2.40415 3.32265 2.90000
# Velocity P-wave (km/s) = 5.22191 6.21687 5.74099
#
# Compressibility (1/GPa) = 0.02775502
#
# Stress axis : x y z
#
# Youngs Moduli (GPa) = 51.52595 44.26225 63.52300
#
# Poissons Ratio (x) = 0.19616 0.39504
# Poissons Ratio (y) = 0.22835 0.27589
# Poissons Ratio (z) = 0.32043 0.19224
#
# Static dielectric constant tensor:
#      x y z
#    x 1.646350 0.000000 -0.014970 
#    y 0.000000 1.635500 0.000000 
#    z -0.014970 0.000000 1.614550 
# 
# From -- ./inp_files/43568.got.cif
#   From: 2010.05.17/outbox.cif.g08.bks.cpg/sg15_22_cif.got.tgz:43568.got - 2010.06.03 18:47:42.
