data_PCOD9273834
_publ_section_title
;
Structure prediction by ZEFSAII (Michael W. Deem and Ramdas Pophale) SiO2 
 PCOD9273834
Probable space group: C 2/C
;
_chemical_formula_sum "Si O2"
_cell_formula_units_Z 56
_cell_length_a 26.023436
_cell_length_b 12.790310
_cell_length_c 25.709737
_cell_angle_alpha 90.000000
_cell_angle_beta 160.364684
_cell_angle_gamma 90.000000
_cell_volume 2875.571705
_symmetry_space_group_name_H-M "C 2/C"
_symmetry_group_IT_number 15
_symmetry_cell_setting 'monoclinic'
loop_
_space_group_symop_operation_xyz
x,y,z
-x,y,1/2-z
-x,-y,-z
x,-y,1/2+z
1/2+x,1/2+y,z
1/2-x,1/2+y,1/2-z
1/2-x,1/2-y,-z
1/2+x,1/2-y,1/2+z
loop_
_atom_site_type_symbol
_atom_site_label
_atom_site_fract_x
_atom_site_fract_y
_atom_site_fract_z
Si Si1 0.415207 0.558553 0.551370
Si Si2 0.366022 0.063524 0.344215
Si Si3 0.338226 0.612041 0.902821
Si Si4 0.350673 0.274980 0.822297
Si Si5 0.353047 0.885648 0.633242
Si Si6 0.591684 0.216920 0.508799
Si Si7 0.328878 0.660492 0.644886
O O1 0.416964 0.447043 0.525853
O O2 0.250583 0.564099 0.421766
O O3 0.436787 0.661730 0.534860
O O4 0.546034 0.577614 0.718447
O O5 0.273713 0.133700 0.296841
O O6 0.445144 0.141104 0.377226
O O7 0.500000 0.000000 0.500000
O O8 0.239215 0.985741 0.200449
O O9 0.196980 0.693994 0.768074
O O10 0.480061 0.676899 0.014671
O O11 0.333866 0.218700 0.862631
O O12 0.500000 0.942308 0.750000
O O13 0.404457 0.774659 0.707596
O O14 0.247806 0.865330 0.482865
O O15 0.703770 0.172837 0.571298
#
# Coordination Sequence:
#
# PCOD9273834 Si02
#       7
#     8   8   8   8   8   8   8
#     4  11  24  37  62  92 126 170 216 246 319 393
#     4  12  24  38  60  87 127 173 220 260 317 372
#     4  12  26  42  63  88 125 177 224 268 321 378
#     4  12  24  43  58  87 131 171 221 279 310 366
#     4  10  20  38  59  91 133 162 197 260 326 390
#     4  11  22  35  59  89 133 166 207 249 315 381
#     4  10  21  35  60  91 131 169 198 251 322 398
#
# _framework density 19.474388000000001
#
# number of rings (size 3 to 8) (size 9 to 14) (size 15 to 20)
#    0.000    0.857    4.286    4.286    6.000    0.000 
#    0.000    0.000    0.000    0.000    0.000    7.000 
#    0.000    0.000    0.000    0.000    0.000    0.000 
#
# Total GULP energy -156205.324671 kJ/mol
# GULP energy per Si atom -5578.761595 kJ/mol
# Density = 1.943006 g / cm^3
# Si number density = 19.474388 Si / 1000 Ang^3
#
#
#
# Elastic Constant Matrix: (Units=GPa)
#
#
# Indices 1 2 3 4 5 6 
#
# 1 62.9766 23.5062 18.9641 -0.0028 10.7849 0.0005
# 2 23.5062 75.7762 39.0962 -0.0047 6.8709 -0.0005
# 3 18.9641 39.0962 85.7598 -0.0098 -0.4871 -0.0018
# 4 -0.0028 -0.0047 -0.0098 48.4021 -0.0049 -2.9101
# 5 10.7849 6.8709 -0.4871 -0.0049 34.3891 -0.0007
# 6 0.0005 -0.0005 -0.0018 -2.9101 -0.0007 7.8573
#
#
#
# Elastic Compliance Matrix: (Units=1/GPa)
#
#
# Indices 1 2 3 4 5 6 
#
# 1 0.019042 -0.004252 -0.002302 0.000000 -0.005155 -0.000003
# 2 -0.004252 0.018652 -0.007577 0.000000 -0.002500 -0.000001
# 3 -0.002302 -0.007577 0.015638 0.000003 0.002457 0.000005
# 4 0.000000 0.000000 0.000003 0.021131 0.000003 0.007826
# 5 -0.005155 -0.002500 0.002457 0.000003 0.031230 0.000005
# 6 -0.000003 -0.000001 0.000005 0.007826 0.000005 0.130169
#
#
# Mechanical properties :
#
#
# Convention : Reuss Voigt Hill
#
# Bulk Modulus (GPa) = 39.88816 43.07174 41.47995
# Shear Modulus (GPa) = 18.35005 27.65943 23.00474
#
# Velocity S-wave (km/s) = 3.07296 3.77277 3.44071
# Velocity P-wave (km/s) = 5.75479 6.41432 6.09349
#
# Compressibility (1/GPa) = 0.02507010
#
# Stress axis : x y z
#
# Youngs Moduli (GPa) = 52.51590 53.61430 63.94859
#
# Poissons Ratio (x) = 0.22797 0.14719
# Poissons Ratio (y) = 0.22330 0.48453
# Poissons Ratio (z) = 0.12087 0.40623
#
# Static dielectric constant tensor:
#      x y z
#    x 1.696540 0.000000 -0.005380 
#    y 0.000000 1.690910 0.000000 
#    z -0.005380 0.000000 1.755240 
# 
# From -- ./inp_files/303301.got.cif
#   From: 2010.05.17/outbox.cif.g08.bks.cpg/sg15_152_cif.got.tgz:303301.got - 2010.06.03 18:47:42.
