data_PCOD9273102
_publ_section_title
;
Structure prediction by ZEFSAII (Michael W. Deem and Ramdas Pophale) SiO2 
 PCOD9273102
Probable space group: C 2/C
;
_chemical_formula_sum "Si O2"
_cell_formula_units_Z 56
_cell_length_a 20.747110
_cell_length_b 12.019029
_cell_length_c 15.503697
_cell_angle_alpha 90.000000
_cell_angle_beta 40.662291
_cell_angle_gamma 90.000000
_cell_volume 2519.085299
_symmetry_space_group_name_H-M "C 2/C"
_symmetry_group_IT_number 15
_symmetry_cell_setting 'monoclinic'
loop_
_space_group_symop_operation_xyz
x,y,z
-x,y,1/2-z
-x,-y,-z
x,-y,1/2+z
1/2+x,1/2+y,z
1/2-x,1/2+y,1/2-z
1/2-x,1/2-y,-z
1/2+x,1/2-y,1/2+z
loop_
_atom_site_type_symbol
_atom_site_label
_atom_site_fract_x
_atom_site_fract_y
_atom_site_fract_z
Si Si1 0.954475 0.240431 0.417650
Si Si2 0.402222 0.301711 0.387266
Si Si3 0.135442 0.502190 0.800852
Si Si4 0.971610 0.310010 0.991136
Si Si5 0.208028 0.434936 0.901440
Si Si6 0.350207 0.312645 0.872100
Si Si7 0.193419 0.413281 0.571196
O O1 0.882388 0.348370 0.489878
O O2 0.897285 0.150787 0.416198
O O3 0.974194 0.224700 0.498533
O O4 0.059968 0.254211 0.263154
O O5 0.500000 0.357635 0.250000
O O6 0.424712 0.255434 0.459655
O O7 0.303906 0.373380 0.479227
O O8 0.377839 0.193471 0.352669
O O9 0.104443 0.620118 0.872040
O O10 0.210901 0.455390 0.796590
O O11 0.169531 0.503932 0.667963
O O12 0.046457 0.410893 0.890327
O O13 0.310445 0.395485 0.839715
O O14 0.182349 0.540889 0.986022
O O15 0.250000 0.250000 0.000000
#
# Coordination Sequence:
#
# PCOD9273102 Si02
#       7
#     8   8   8   8   8   8   8
#     4   9  20  35  59  86 119 156 193 251 319 365
#     4  11  23  44  63  89 132 174 215 260 315 378
#     4  10  21  36  61  95 117 157 206 266 317 361
#     4  10  20  37  62  92 122 149 205 268 309 368
#     4  10  21  40  58  91 124 155 215 254 313 386
#     4   9  19  35  54  87 120 157 185 247 316 376
#     4  11  24  40  65  92 126 176 212 263 317 379
#
# _framework density 22.230291999999999
#
# number of rings (size 3 to 8) (size 9 to 14) (size 15 to 20)
#    0.000    2.000    2.857    0.000    8.000    0.000 
#    2.571    1.429    0.000    1.714    0.000    0.000 
#    0.000    0.000    0.000    0.000    0.000    0.000 
#
# Total GULP energy -156038.532341 kJ/mol
# GULP energy per Si atom -5572.804726 kJ/mol
# Density = 2.217969 g / cm^3
# Si number density = 22.230292 Si / 1000 Ang^3
#
#
#
# Elastic Constant Matrix: (Units=GPa)
#
#
# Indices 1 2 3 4 5 6 
#
# 1 107.6284 11.9844 19.9935 0.0000 0.5018 0.0000
# 2 11.9844 12.9492 -5.2801 0.0000 2.4162 0.0000
# 3 19.9935 -5.2801 43.9868 0.0000 -0.9046 0.0000
# 4 0.0000 0.0000 0.0000 11.3511 0.0000 1.9540
# 5 0.5018 2.4162 -0.9046 0.0000 31.6923 0.0000
# 6 0.0000 0.0000 0.0000 1.9540 0.0000 28.5710
#
#
#
# Elastic Compliance Matrix: (Units=1/GPa)
#
#
# Indices 1 2 3 4 5 6 
#
# 1 0.012249 -0.014438 -0.007286 0.000000 0.000699 0.000000
# 2 -0.014438 0.099341 0.018347 0.000000 -0.006822 0.000000
# 3 -0.007286 0.018347 0.028239 0.000000 -0.000477 0.000000
# 4 0.000000 0.000000 0.000000 0.089147 0.000000 -0.006097
# 5 0.000699 -0.006822 -0.000477 0.000000 0.032049 0.000000
# 6 0.000000 0.000000 0.000000 -0.006097 0.000000 0.035417
#
#
# Mechanical properties :
#
#
# Convention : Reuss Voigt Hill
#
# Bulk Modulus (GPa) = 7.51464 24.21780 15.86622
# Shear Modulus (GPa) = 14.38623 23.51399 18.95011
#
# Velocity S-wave (km/s) = 2.54666 3.25583 2.92283
# Velocity P-wave (km/s) = 3.46915 5.00516 4.30619
#
# Compressibility (1/GPa) = 0.13307361
#
# Stress axis : x y z
#
# Youngs Moduli (GPa) = 81.63797 10.06634 35.41265
#
# Poissons Ratio (x) = 0.14534 0.25803
# Poissons Ratio (y) = 1.17869 -0.64971
# Poissons Ratio (z) = 0.59485 -0.18469
#
# Static dielectric constant tensor:
#      x y z
#    x 1.857010 0.000000 0.003430 
#    y 0.000000 1.862960 0.000000 
#    z 0.003430 0.000000 1.838780 
# 
# From -- ./inp_files/168431.got.cif
#   From: 2010.05.17/outbox.cif.g08.bks.cpg/sg15_85_cif.got.tgz:168431.got - 2010.06.03 18:47:42.
