data_PCOD9273289
_publ_section_title
;
Structure prediction by ZEFSAII (Michael W. Deem and Ramdas Pophale) SiO2 
 PCOD9273289
Probable space group: C 2/C
;
_chemical_formula_sum "Si O2"
_cell_formula_units_Z 52
_cell_length_a 8.835912
_cell_length_b 14.195914
_cell_length_c 18.091233
_cell_angle_alpha 90.000000
_cell_angle_beta 72.650081
_cell_angle_gamma 90.000000
_cell_volume 2166.005002
_symmetry_space_group_name_H-M "C 2/C"
_symmetry_group_IT_number 15
_symmetry_cell_setting 'monoclinic'
loop_
_space_group_symop_operation_xyz
x,y,z
-x,y,1/2-z
-x,-y,-z
x,-y,1/2+z
1/2+x,1/2+y,z
1/2-x,1/2+y,1/2-z
1/2-x,1/2-y,-z
1/2+x,1/2-y,1/2+z
loop_
_atom_site_type_symbol
_atom_site_label
_atom_site_fract_x
_atom_site_fract_y
_atom_site_fract_z
Si Si1 0.586678 0.785164 0.662633
Si Si2 0.162269 0.643861 0.933582
Si Si3 0.576558 0.324459 0.510523
Si Si4 0.016977 0.434281 0.163543
Si Si5 0.000000 0.248575 0.250000
Si Si6 0.288069 0.802510 0.619012
Si Si7 0.275491 0.435239 0.573050
O O1 0.500000 0.758322 0.750000
O O2 0.676653 0.695648 0.615777
O O3 0.449578 0.834688 0.633418
O O4 0.722636 0.863410 0.646070
O O5 0.031431 0.728652 0.962029
O O6 0.106556 0.560645 0.886297
O O7 0.200083 0.600339 0.007337
O O8 0.656928 0.300305 0.420310
O O9 0.706182 0.339482 0.556172
O O10 0.459368 0.412041 0.534938
O O11 0.985282 0.323106 0.185351
O O12 0.184572 0.470361 0.108676
O O13 0.000000 0.475099 0.250000
O O14 0.155444 0.194555 0.202212
#
# Coordination Sequence:
#
# PCOD9273289 Si02
#       7
#     8   8   8   8   4   8   8
#     4  11  22  34  65  95 124 154 214 270 312 365
#     4  11  19  40  60  92 118 162 214 256 313 387
#     4  10  20  37  64  89 121 152 212 268 306 370
#     4  10  22  39  61  82 127 170 205 244 323 391
#     4  10  22  38  58  82 114 166 204 234 320 386
#     4  11  20  38  62  88 119 158 207 261 313 366
#     4  11  21  39  59  95 119 162 210 258 318 384
#
# _framework density 24.007331000000001
#
# number of rings (size 3 to 8) (size 9 to 14) (size 15 to 20)
#    0.462    0.923    4.615    2.769    2.154    0.000 
#    0.000    0.769    3.385    0.000    0.000    0.000 
#    0.000    0.000    0.000    0.000    0.000    0.000 
#
# Total GULP energy -144762.208645 kJ/mol
# GULP energy per Si atom -5567.777256 kJ/mol
# Density = 2.395269 g / cm^3
# Si number density = 24.007331 Si / 1000 Ang^3
#
#
#
# Elastic Constant Matrix: (Units=GPa)
#
#
# Indices 1 2 3 4 5 6 
#
# 1 122.1675 16.9221 34.6204 0.0000 -8.7585 0.0000
# 2 16.9221 49.3365 38.5142 0.0000 -13.9541 0.0000
# 3 34.6204 38.5142 115.7047 0.0000 -12.4019 0.0000
# 4 0.0000 0.0000 0.0000 0.3954 0.0000 -2.3803
# 5 -8.7585 -13.9541 -12.4019 0.0000 36.4198 0.0000
# 6 0.0000 0.0000 0.0000 -2.3803 0.0000 14.6625
#
#
#
# Elastic Compliance Matrix: (Units=1/GPa)
#
#
# Indices 1 2 3 4 5 6 
#
# 1 0.009041 -0.001067 -0.002243 0.000000 0.001002 0.000000
# 2 -0.001067 0.029742 -0.008705 0.000000 0.008175 0.000000
# 3 -0.002243 -0.008705 0.012243 0.000000 0.000294 0.000000
# 4 0.000000 0.000000 0.000000111.498834 0.000000 18.100740
# 5 0.001002 0.008175 0.000294 0.000000 0.030931 0.000000
# 6 0.000000 0.000000 0.000000 18.100740 0.000000 3.006678
#
#
# Mechanical properties :
#
#
# Convention : Reuss Voigt Hill
#
# Bulk Modulus (GPa) = 37.04074 51.92468 44.48271
# Shear Modulus (GPa) = 0.04362 23.43900 11.74131
#
# Velocity S-wave (km/s) = 0.13494 3.12801 2.21390
# Velocity P-wave (km/s) = 3.93531 5.89250 5.01040
#
# Compressibility (1/GPa) = 0.02699730
#
# Stress axis : x y z
#
# Youngs Moduli (GPa) = 110.61225 33.62197 81.68068
#
# Poissons Ratio (x) = 0.03587 0.18317
# Poissons Ratio (y) = 0.11801 0.71101
# Poissons Ratio (z) = 0.24805 0.29267
#
# Static dielectric constant tensor:
#      x y z
#    x 2.021130 0.000000 0.021870 
#    y 0.000000 2.042260 0.000000 
#    z 0.021870 0.000000 1.931640 
# 
# From -- ./inp_files/190307.got.cif
#   From: 2010.05.17/outbox.cif.g08.bks.cpg/sg15_96_cif.got.tgz:190307.got - 2010.06.03 18:47:42.
