data_PCOD9273754
_publ_section_title
;
Structure prediction by ZEFSAII (Michael W. Deem and Ramdas Pophale) SiO2 
 PCOD9273754
Probable space group: C 2/C
;
_chemical_formula_sum "Si O2"
_cell_formula_units_Z 60
_cell_length_a 11.831871
_cell_length_b 30.126095
_cell_length_c 8.829885
_cell_angle_alpha 90.000000
_cell_angle_beta 116.510359
_cell_angle_gamma 90.000000
_cell_volume 2816.458398
_symmetry_space_group_name_H-M "C 2/C"
_symmetry_group_IT_number 15
_symmetry_cell_setting 'monoclinic'
loop_
_space_group_symop_operation_xyz
x,y,z
-x,y,1/2-z
-x,-y,-z
x,-y,1/2+z
1/2+x,1/2+y,z
1/2-x,1/2+y,1/2-z
1/2-x,1/2-y,-z
1/2+x,1/2-y,1/2+z
loop_
_atom_site_type_symbol
_atom_site_label
_atom_site_fract_x
_atom_site_fract_y
_atom_site_fract_z
Si Si1 0.000000 0.593642 0.750000
Si Si2 0.607902 0.159401 0.035241
Si Si3 0.447107 0.226717 0.046943
Si Si4 0.649112 0.044372 0.339501
Si Si5 0.041170 0.174386 0.945528
Si Si6 0.812406 0.642084 0.081378
Si Si7 0.123294 0.128239 0.423506
Si Si8 0.270545 0.043145 0.469662
O O1 0.992713 0.627355 0.605053
O O2 0.879987 0.563633 0.643376
O O3 0.556295 0.208978 0.001097
O O4 0.614825 0.148313 0.216167
O O5 0.745645 0.150482 0.050961
O O6 0.500000 0.230778 0.250000
O O7 0.414123 0.276275 0.975309
O O8 0.347331 0.185590 0.000886
O O9 0.500000 0.032559 0.250000
O O10 0.659948 0.090835 0.436896
O O11 0.693090 0.047466 0.188034
O O12 0.730878 0.007538 0.477229
O O13 0.000000 0.178805 0.750000
O O14 0.164495 0.144315 0.030851
O O15 0.921175 0.151215 0.950161
O O16 0.153259 0.075669 0.433760
O O17 0.000000 0.137580 0.250000
#
# Coordination Sequence:
#
# PCOD9273754 Si02
#       8
#     4   8   8   8   8   8   8   8
#     4  10  20  38  58  92 136 158 220 270 330 384
#     4  10  20  39  66  93 128 176 218 272 336 394
#     4   9  21  39  66  99 128 165 226 282 339 399
#     4  12  23  40  66  99 135 173 220 281 345 402
#     4  11  24  43  64  95 131 178 228 275 326 403
#     4  11  21  40  67  93 130 180 214 270 345 398
#     4  11  22  45  67  89 140 183 223 270 332 409
#     4  11  25  40  65 102 133 176 223 279 338 404
#
# _framework density 21.303349000000001
#
# number of rings (size 3 to 8) (size 9 to 14) (size 15 to 20)
#    0.000    1.333    4.667    2.000    0.000    3.733 
#    1.200    3.333    0.000    0.000    0.000    0.000 
#    0.000    0.000    0.000    0.000    0.000    0.000 
#
# Total GULP energy -167153.959525 kJ/mol
# GULP energy per Si atom -5571.798651 kJ/mol
# Density = 2.125486 g / cm^3
# Si number density = 21.303349 Si / 1000 Ang^3
#
#
#
# Elastic Constant Matrix: (Units=GPa)
#
#
# Indices 1 2 3 4 5 6 
#
# 1 108.5635 53.8007 21.8051 0.0000 -20.7559 0.0000
# 2 53.8007 108.3563 28.1770 0.0000 -24.2584 0.0000
# 3 21.8051 28.1770 48.7838 0.0000 -3.4683 0.0000
# 4 0.0000 0.0000 0.0000 25.0915 0.0000 -13.4290
# 5 -20.7559 -24.2584 -3.4683 0.0000 15.8960 0.0000
# 6 0.0000 0.0000 0.0000 -13.4290 0.0000 31.7105
#
#
#
# Elastic Compliance Matrix: (Units=1/GPa)
#
#
# Indices 1 2 3 4 5 6 
#
# 1 0.013879 -0.003191 -0.003472 0.000000 0.012495 0.000000
# 2 -0.003191 0.017281 -0.007086 0.000000 0.020659 0.000000
# 3 -0.003472 -0.007086 0.025447 0.000000 -0.009796 0.000000
# 4 0.000000 0.000000 0.000000 0.051535 0.000000 0.021824
# 5 0.012495 0.020659 -0.009796 0.000000 0.108614 0.000000
# 6 0.000000 0.000000 0.000000 0.021824 0.000000 0.040778
#
#
# Mechanical properties :
#
#
# Convention : Reuss Voigt Hill
#
# Bulk Modulus (GPa) = 34.35449 52.58546 43.46998
# Shear Modulus (GPa) = 16.96444 25.33432 21.14938
#
# Velocity S-wave (km/s) = 2.82499 3.45225 3.15425
# Velocity P-wave (km/s) = 5.17707 6.37404 5.80648
#
# Compressibility (1/GPa) = 0.02910827
#
# Stress axis : x y z
#
# Youngs Moduli (GPa) = 72.05302 57.86698 39.29720
#
# Poissons Ratio (x) = 0.18464 0.13644
# Poissons Ratio (y) = 0.22991 0.27847
# Poissons Ratio (z) = 0.25018 0.41006
#
# Static dielectric constant tensor:
#      x y z
#    x 1.667950 0.000000 -0.058840 
#    y 0.000000 1.842800 0.000000 
#    z -0.058840 0.000000 1.816220 
# 
# From -- ./inp_files/35718.got.cif
#   From: 2010.05.17/outbox.cif.g08.bks.cpg/sg15_18_cif.got.tgz:35718.got - 2010.06.03 18:47:42.
