data_PCOD9273728
_publ_section_title
;
Structure prediction by ZEFSAII (Michael W. Deem and Ramdas Pophale) SiO2 
 PCOD9273728
Probable space group: C 2/C
;
_chemical_formula_sum "Si O2"
_cell_formula_units_Z 36
_cell_length_a 6.429314
_cell_length_b 16.336957
_cell_length_c 22.479288
_cell_angle_alpha 90.000000
_cell_angle_beta 124.383465
_cell_angle_gamma 90.000000
_cell_volume 1948.578188
_symmetry_space_group_name_H-M "C 2/C"
_symmetry_group_IT_number 15
_symmetry_cell_setting 'monoclinic'
loop_
_space_group_symop_operation_xyz
x,y,z
-x,y,1/2-z
-x,-y,-z
x,-y,1/2+z
1/2+x,1/2+y,z
1/2-x,1/2+y,1/2-z
1/2-x,1/2-y,-z
1/2+x,1/2-y,1/2+z
loop_
_atom_site_type_symbol
_atom_site_label
_atom_site_fract_x
_atom_site_fract_y
_atom_site_fract_z
Si Si1 0.000000 0.792181 0.250000
Si Si2 0.021272 0.229887 0.619584
Si Si3 0.784642 0.525576 0.536792
Si Si4 0.510750 0.104924 0.817301
Si Si5 0.522009 0.140433 0.490125
O O1 0.006684 0.746174 0.187219
O O2 0.250701 0.848454 0.289585
O O3 0.257870 0.169256 0.649312
O O4 0.761093 0.182970 0.560881
O O5 0.055115 0.301530 0.576763
O O6 0.500000 0.500000 0.500000
O O7 0.925341 0.541728 0.621114
O O8 0.897736 0.446215 0.523820
O O9 0.815506 0.610704 0.504886
O O10 0.500000 0.066541 0.750000
#
# Coordination Sequence:
#
# PCOD9273728 Si02
#       5
#     4   8   8   8   8
#     4  10  20  38  62  80 122 154 202 242 302 362
#     4  10  20  38  58  89 111 155 196 246 295 356
#     4  11  21  38  58  90 119 155 194 245 300 356
#     4  10  21  36  61  83 113 159 200 236 299 365
#     4  10  22  35  60  87 119 144 198 248 296 350
#
# _framework density 18.475007999999999
#
# number of rings (size 3 to 8) (size 9 to 14) (size 15 to 20)
#    0.000    1.778    4.444    0.000    0.000    2.667 
#    2.000    0.000    7.333    0.000    0.000    0.000 
#    0.000    0.000    0.000    0.000    0.000    0.000 
#
# Total GULP energy -100310.288732 kJ/mol
# GULP energy per Si atom -5572.793818 kJ/mol
# Density = 1.843296 g / cm^3
# Si number density = 18.475008 Si / 1000 Ang^3
#
#
#
# Elastic Constant Matrix: (Units=GPa)
#
#
# Indices 1 2 3 4 5 6 
#
# 1 80.2250 12.7817 29.6670 0.0000 1.6492 0.0000
# 2 12.7817 57.7446 35.0487 0.0000 -10.4182 0.0000
# 3 29.6670 35.0487 123.6989 0.0000 -20.4676 0.0000
# 4 0.0000 0.0000 0.0000 1.0971 0.0000 28.0717
# 5 1.6492 -10.4182 -20.4676 0.0000 34.7995 0.0000
# 6 0.0000 0.0000 0.0000 28.0717 0.0000 -6.1992
#
#
#
# Elastic Compliance Matrix: (Units=1/GPa)
#
#
# Indices 1 2 3 4 5 6 
#
# 1 0.014058 -0.001593 -0.003445 0.000000 -0.003169 0.000000
# 2 -0.001593 0.021396 -0.005105 0.000000 0.003479 0.000000
# 3 -0.003445 -0.005105 0.011223 0.000000 0.005236 0.000000
# 4 0.000000 0.000000 0.000000 0.007800 0.000000 0.035318
# 5 -0.003169 0.003479 0.005236 0.000000 0.033007 0.000000
# 6 0.000000 0.000000 0.000000 0.035318 0.000000 -0.001380
#
#
# Mechanical properties :
#
#
# Convention : Reuss Voigt Hill
#
# Bulk Modulus (GPa) = 37.88922 46.29590 42.09256
# Shear Modulus (GPa) = 43.40851 18.21756 30.81303
#
# Velocity S-wave (km/s) = 4.85251 3.14357 4.08833
# Velocity P-wave (km/s) = 7.20754 6.18782 6.71706
#
# Compressibility (1/GPa) = 0.02639273
#
# Stress axis : x y z
#
# Youngs Moduli (GPa) = 71.13576 46.73733 89.10281
#
# Poissons Ratio (x) = 0.07444 0.30692
# Poissons Ratio (y) = 0.11330 0.45485
# Poissons Ratio (z) = 0.24503 0.23859
#
# Static dielectric constant tensor:
#      x y z
#    x 1.720380 0.000000 -0.042730 
#    y 0.000000 1.595360 0.000000 
#    z -0.042730 0.000000 1.651190 
# 
# From -- ./inp_files/184088.got.cif
#   From: 2010.05.17/outbox.cif.g08.bks.cpg/sg15_93_cif.got.tgz:184088.got - 2010.06.03 18:47:42.
