data_PCOD9273181
_publ_section_title
;
Structure prediction by ZEFSAII (Michael W. Deem and Ramdas Pophale) SiO2 
 PCOD9273181
Probable space group: C 2/C
;
_chemical_formula_sum "Si O2"
_cell_formula_units_Z 44
_cell_length_a 15.219185
_cell_length_b 6.682898
_cell_length_c 26.792736
_cell_angle_alpha 90.000000
_cell_angle_beta 45.205398
_cell_angle_gamma 90.000000
_cell_volume 1933.791370
_symmetry_space_group_name_H-M "C 2/C"
_symmetry_group_IT_number 15
_symmetry_cell_setting 'monoclinic'
loop_
_space_group_symop_operation_xyz
x,y,z
-x,y,1/2-z
-x,-y,-z
x,-y,1/2+z
1/2+x,1/2+y,z
1/2-x,1/2+y,1/2-z
1/2-x,1/2-y,-z
1/2+x,1/2-y,1/2+z
loop_
_atom_site_type_symbol
_atom_site_label
_atom_site_fract_x
_atom_site_fract_y
_atom_site_fract_z
Si Si1 0.000000 0.419370 0.250000
Si Si2 0.135621 0.735954 0.313260
Si Si3 0.259117 0.580902 0.171092
Si Si4 0.903640 0.031156 0.915192
Si Si5 0.557132 0.103940 0.620591
Si Si6 0.783840 0.801078 0.555147
O O1 0.883122 0.559481 0.287837
O O2 0.977474 0.308834 0.310687
O O3 0.243961 0.696031 0.229614
O O4 0.057141 0.532366 0.351966
O O5 0.191929 0.857949 0.336935
O O6 0.026919 0.887155 0.339120
O O7 0.321465 0.676432 0.097591
O O8 0.913832 0.798093 0.922850
O O9 0.784290 0.092654 0.930316
O O10 0.889867 0.152352 0.972739
O O11 0.676841 0.964342 0.582597
#
# Coordination Sequence:
#
# PCOD9273181 Si02
#       6
#     4   8   8   8   8   8
#     4   8  18  34  58  80 110 152 208 248 302 358
#     4  10  23  36  59  86 124 160 207 252 316 363
#     4  10  21  41  59  85 127 161 202 264 306 376
#     4  10  20  37  63  90 118 163 201 260 312 374
#     4   9  18  36  58  87 118 157 203 258 306 376
#     4   9  20  39  60  87 124 158 207 251 314 374
#
# _framework density 22.753231
#
# number of rings (size 3 to 8) (size 9 to 14) (size 15 to 20)
#    0.000    2.545    0.000    1.636    5.091    2.182 
#    3.273    0.909    0.000    0.000    0.000    0.000 
#    0.000    0.000    0.000    0.000    0.000    0.000 
#
# Total GULP energy -122615.911478 kJ/mol
# GULP energy per Si atom -5573.450522 kJ/mol
# Density = 2.270144 g / cm^3
# Si number density = 22.753231 Si / 1000 Ang^3
#
#
#
# Elastic Constant Matrix: (Units=GPa)
#
#
# Indices 1 2 3 4 5 6 
#
# 1 54.9466 32.7038 19.8346 -0.0005 7.0614 -0.0011
# 2 32.7038 107.9339 26.9951 0.0046 -2.9113 0.0075
# 3 19.8346 26.9951 91.5572 -0.0002 16.6196 0.0006
# 4 -0.0005 0.0046 -0.0002 24.0593 0.0000 -0.7018
# 5 7.0614 -2.9113 16.6196 0.0000 28.6572 0.0000
# 6 -0.0011 0.0075 0.0006 -0.7018 0.0000 20.9868
#
#
#
# Elastic Compliance Matrix: (Units=1/GPa)
#
#
# Indices 1 2 3 4 5 6 
#
# 1 0.023696 -0.006777 -0.002180 0.000002 -0.005263 0.000004
# 2 -0.006777 0.012184 -0.002964 -0.000003 0.004627 -0.000005
# 3 -0.002180 -0.002964 0.013664 0.000001 -0.007688 0.000001
# 4 0.000002 -0.000003 0.000001 0.041605 -0.000001 0.001391
# 5 -0.005263 0.004627 -0.007688 -0.000001 0.041121 -0.000002
# 6 0.000004 -0.000005 0.000001 0.001391 -0.000002 0.047695
#
#
# Mechanical properties :
#
#
# Convention : Reuss Voigt Hill
#
# Bulk Modulus (GPa) = 38.90639 45.94496 42.42567
# Shear Modulus (GPa) = 23.54322 26.40093 24.97208
#
# Velocity S-wave (km/s) = 3.22020 3.41004 3.31647
# Velocity P-wave (km/s) = 5.56441 5.97838 5.77510
#
# Compressibility (1/GPa) = 0.02570272
#
# Stress axis : x y z
#
# Youngs Moduli (GPa) = 42.20076 82.07188 73.18491
#
# Poissons Ratio (x) = 0.55617 0.15955
# Poissons Ratio (y) = 0.28598 0.21694
# Poissons Ratio (z) = 0.09200 0.24329
#
# Static dielectric constant tensor:
#      x y z
#    x 1.882930 0.000000 0.013670 
#    y 0.000000 1.842240 0.000000 
#    z 0.013670 0.000000 1.955760 
# 
# From -- ./inp_files/314803.got.cif
#   From: 2010.05.17/outbox.cif.g08.bks.cpg/sg15_158_cif.got.tgz:314803.got - 2010.06.03 18:47:42.
