data_PCOD9273905
_publ_section_title
;
Structure prediction by ZEFSAII (Michael W. Deem and Ramdas Pophale) SiO2 
 PCOD9273905
Probable space group: C 2/C
;
_chemical_formula_sum "Si O2"
_cell_formula_units_Z 44
_cell_length_a 6.470752
_cell_length_b 23.049406
_cell_length_c 14.102309
_cell_angle_alpha 90.000000
_cell_angle_beta 104.960350
_cell_angle_gamma 90.000000
_cell_volume 2032.024388
_symmetry_space_group_name_H-M "C 2/C"
_symmetry_group_IT_number 15
_symmetry_cell_setting 'monoclinic'
loop_
_space_group_symop_operation_xyz
x,y,z
-x,y,1/2-z
-x,-y,-z
x,-y,1/2+z
1/2+x,1/2+y,z
1/2-x,1/2+y,1/2-z
1/2-x,1/2-y,-z
1/2+x,1/2-y,1/2+z
loop_
_atom_site_type_symbol
_atom_site_label
_atom_site_fract_x
_atom_site_fract_y
_atom_site_fract_z
Si Si1 0.832345 0.551086 0.589752
Si Si2 0.943439 0.126975 0.515754
Si Si3 0.100475 0.223535 0.665207
Si Si4 0.500000 0.858738 0.250000
Si Si5 0.178246 0.836514 0.849897
Si Si6 0.005015 0.429945 0.903595
O O1 0.590105 0.574313 0.575448
O O2 0.982964 0.598632 0.657889
O O3 0.896982 0.487323 0.632825
O O4 0.876661 0.550655 0.482897
O O5 0.708407 0.106518 0.462621
O O6 0.948427 0.181485 0.587057
O O7 0.064636 0.145978 0.434163
O O8 0.295327 0.182137 0.719815
O O9 0.186983 0.278156 0.617863
O O10 0.000000 0.246699 0.750000
O O11 0.336899 0.887586 0.833183
O O12 0.000000 0.824925 0.750000
#
# Coordination Sequence:
#
# PCOD9273905 Si02
#       6
#     8   8   8   4   8   8
#     4   9  20  38  60  92 119 158 196 252 296 362
#     4  10  22  40  64  89 119 160 201 249 308 356
#     4  11  23  40  63  88 118 159 206 251 299 363
#     4  10  20  38  60  86 122 154 202 248 300 350
#     4  11  25  40  58  89 124 160 202 249 303 361
#     4  10  21  39  62  86 124 156 203 245 306 361
#
# _framework density 21.653283999999999
#
# number of rings (size 3 to 8) (size 9 to 14) (size 15 to 20)
#    0.000    1.818    0.909    2.182    2.545    2.182 
#    0.000    4.545    0.000    0.000    0.000    0.000 
#    0.000    0.000    0.000    0.000    0.000    0.000 
#
# Total GULP energy -122887.816219 kJ/mol
# GULP energy per Si atom -5585.809828 kJ/mol
# Density = 2.160400 g / cm^3
# Si number density = 21.653284 Si / 1000 Ang^3
#
#
#
# Elastic Constant Matrix: (Units=GPa)
#
#
# Indices 1 2 3 4 5 6 
#
# 1 40.9293 13.5479 -13.0322 0.0000 3.9347 0.0000
# 2 13.5479 84.1999 -0.7369 0.0000 13.9337 0.0000
# 3 -13.0322 -0.7369 24.2146 0.0000 -4.5797 0.0000
# 4 0.0000 0.0000 0.0000 35.1263 0.0000 -8.4653
# 5 3.9347 13.9337 -4.5797 0.0000 15.2198 0.0000
# 6 0.0000 0.0000 0.0000 -8.4653 0.0000 8.4409
#
#
#
# Elastic Compliance Matrix: (Units=1/GPa)
#
#
# Indices 1 2 3 4 5 6 
#
# 1 0.031425 -0.005201 0.017091 0.000000 0.001781 0.000000
# 2 -0.005201 0.014961 -0.004963 0.000000 -0.013846 0.000000
# 3 0.017091 -0.004963 0.053408 0.000000 0.016196 0.000000
# 4 0.000000 0.000000 0.000000 0.037543 0.000000 0.037651
# 5 0.001781 -0.013846 0.016196 0.000000 0.082792 0.000000
# 6 0.000000 0.000000 0.000000 0.037651 0.000000 0.156231
#
#
# Mechanical properties :
#
#
# Convention : Reuss Voigt Hill
#
# Bulk Modulus (GPa) = 8.79910 16.54460 12.67185
# Shear Modulus (GPa) = 12.48788 21.72840 17.10814
#
# Velocity S-wave (km/s) = 2.40410 3.17119 2.81391
# Velocity P-wave (km/s) = 3.43202 4.58976 4.05245
#
# Compressibility (1/GPa) = 0.11364804
#
# Stress axis : x y z
#
# Youngs Moduli (GPa) = 31.82197 66.83959 18.72386
#
# Poissons Ratio (x) = 0.34766 -0.32001
# Poissons Ratio (y) = 0.16552 0.09292
# Poissons Ratio (z) = -0.54387 0.33170
#
# Static dielectric constant tensor:
#      x y z
#    x 1.771080 0.000000 -0.003360 
#    y 0.000000 1.807290 0.000000 
#    z -0.003360 0.000000 1.785790 
# 
# From -- ./inp_files/129451.got.cif
#   From: 2010.05.17/outbox.cif.g08.bks.cpg/sg15_65_cif.got.tgz:129451.got - 2010.06.03 18:47:42.
