data_PCOD9273035
_publ_section_title
;
Structure prediction by ZEFSAII (Michael W. Deem and Ramdas Pophale) SiO2 
 PCOD9273035
Probable space group: C 2/C
;
_chemical_formula_sum "Si O2"
_cell_formula_units_Z 56
_cell_length_a 18.182429
_cell_length_b 28.149819
_cell_length_c 7.835347
_cell_angle_alpha 90.000000
_cell_angle_beta 140.752003
_cell_angle_gamma 90.000000
_cell_volume 2537.281487
_symmetry_space_group_name_H-M "C 2/C"
_symmetry_group_IT_number 15
_symmetry_cell_setting 'monoclinic'
loop_
_space_group_symop_operation_xyz
x,y,z
-x,y,1/2-z
-x,-y,-z
x,-y,1/2+z
1/2+x,1/2+y,z
1/2-x,1/2+y,1/2-z
1/2-x,1/2-y,-z
1/2+x,1/2-y,1/2+z
loop_
_atom_site_type_symbol
_atom_site_label
_atom_site_fract_x
_atom_site_fract_y
_atom_site_fract_z
Si Si1 0.245386 0.018249 0.992678
Si Si2 0.877053 0.341003 0.424123
Si Si3 0.880941 0.554297 0.930619
Si Si4 0.455160 0.239651 0.855664
Si Si5 0.118331 0.059933 0.072287
Si Si6 0.204160 0.302634 0.890071
Si Si7 0.383124 0.334135 0.927796
O O1 0.144083 0.981139 0.756608
O O2 0.279776 0.048140 0.889802
O O3 0.354227 0.985511 0.243675
O O4 0.214128 0.050798 0.096743
O O5 0.872413 0.393222 0.338628
O O6 0.863540 0.300256 0.256588
O O7 0.787044 0.331418 0.417067
O O8 0.000000 0.340487 0.750000
O O9 0.000000 0.549679 0.250000
O O10 0.500000 0.252922 0.750000
O O11 0.411357 0.288006 0.864358
O O12 0.570179 0.209726 0.115942
O O13 0.128008 0.112785 0.167602
O O14 0.000000 0.055232 0.750000
O O15 0.274969 0.324780 0.860936
O O16 0.250000 0.250000 0.000000
O O17 0.500000 0.337161 0.250000
#
# Coordination Sequence:
#
# PCOD9273035 Si02
#       7
#     8   8   8   8   8   8   8
#     4  10  21  39  59  89 118 149 200 243 300 348
#     4   9  19  37  59  83 115 158 194 227 290 361
#     4  10  20  37  62  89 119 153 191 241 298 357
#     4  11  23  38  55  88 123 149 190 245 292 344
#     4  10  22  39  62  84 117 156 197 247 293 347
#     4  11  19  37  62  78 112 158 193 230 284 341
#     4  11  21  39  61  87 114 157 200 232 290 357
#
# _framework density 22.070867
#
# number of rings (size 3 to 8) (size 9 to 14) (size 15 to 20)
#    0.000    1.714    2.857    2.143    0.000    1.714 
#    2.571    7.143    0.000    0.000    0.000    0.000 
#    0.000    0.000    0.000    0.000    0.000    0.000 
#
# Total GULP energy -155954.987746 kJ/mol
# GULP energy per Si atom -5569.820991 kJ/mol
# Density = 2.202063 g / cm^3
# Si number density = 22.070867 Si / 1000 Ang^3
#
#
#
# Elastic Constant Matrix: (Units=GPa)
#
#
# Indices 1 2 3 4 5 6 
#
# 1 91.5602 47.1688 -1.7144 0.0000 -2.4680 0.0000
# 2 47.1688 124.7837 11.8208 0.0000 2.1659 0.0000
# 3 -1.7144 11.8208 57.9907 0.0000 9.6090 0.0000
# 4 0.0000 0.0000 0.0000 12.6062 0.0000 9.2377
# 5 -2.4680 2.1659 9.6090 0.0000 19.3508 0.0000
# 6 0.0000 0.0000 0.0000 9.2377 0.0000 1.9928
#
#
#
# Elastic Compliance Matrix: (Units=1/GPa)
#
#
# Indices 1 2 3 4 5 6 
#
# 1 0.013742 -0.005339 0.001204 0.000000 0.001752 0.000000
# 2 -0.005339 0.010246 -0.002118 0.000000 -0.000776 0.000000
# 3 0.001204 -0.002118 0.019229 0.000000 -0.009158 0.000000
# 4 0.000000 0.000000 0.000000 -0.033096 0.000000 0.153417
# 5 0.001752 -0.000776 -0.009158 0.000000 0.056535 0.000000
# 6 0.000000 0.000000 0.000000 0.153417 0.000000 -0.209361
#
#
# Mechanical properties :
#
#
# Convention : Reuss Voigt Hill
#
# Bulk Modulus (GPa) = 32.56074 43.20943 37.88509
# Shear Modulus (GPa) = -41.67992 21.26060 -10.20966
#
# Velocity S-wave (km/s) = -4.35035 3.10705 -2.15311
# Velocity P-wave (km/s) = 3.23253 5.70016 3.31983
#
# Compressibility (1/GPa) = 0.03071183
#
# Stress axis : x y z
#
# Youngs Moduli (GPa) = 72.76926 97.59764 52.00509
#
# Poissons Ratio (x) = 0.52108 -0.06263
# Poissons Ratio (y) = 0.38852 0.11014
# Poissons Ratio (z) = -0.08763 0.20669
#
# Static dielectric constant tensor:
#      x y z
#    x 1.880450 0.000000 0.007790 
#    y 0.000000 1.797540 0.000000 
#    z 0.007790 0.000000 1.822510 
# 
# From -- ./inp_files/52371.got.cif
#   From: 2010.05.17/outbox.cif.g08.bks.cpg/sg15_27_cif.got.tgz:52371.got - 2010.06.03 18:47:42.
