data_PCOD9273471
_publ_section_title
;
Structure prediction by ZEFSAII (Michael W. Deem and Ramdas Pophale) SiO2 
 PCOD9273471
Probable space group: C 2/C
;
_chemical_formula_sum "Si O2"
_cell_formula_units_Z 60
_cell_length_a 8.806970
_cell_length_b 13.570780
_cell_length_c 18.991675
_cell_angle_alpha 90.000000
_cell_angle_beta 88.615353
_cell_angle_gamma 90.000000
_cell_volume 2269.173821
_symmetry_space_group_name_H-M "C 2/C"
_symmetry_group_IT_number 15
_symmetry_cell_setting 'monoclinic'
loop_
_space_group_symop_operation_xyz
x,y,z
-x,y,1/2-z
-x,-y,-z
x,-y,1/2+z
1/2+x,1/2+y,z
1/2-x,1/2+y,1/2-z
1/2-x,1/2-y,-z
1/2+x,1/2-y,1/2+z
loop_
_atom_site_type_symbol
_atom_site_label
_atom_site_fract_x
_atom_site_fract_y
_atom_site_fract_z
Si Si1 0.801710 0.885920 0.300836
Si Si2 0.512947 0.145308 0.439349
Si Si3 0.500000 0.087110 0.750000
Si Si4 0.192756 0.278119 0.799000
Si Si5 0.561050 0.406248 0.655544
Si Si6 0.202858 0.954643 0.504806
Si Si7 0.941745 0.148538 0.946825
Si Si8 0.798589 0.425982 0.827650
O O1 0.619769 0.868316 0.303664
O O2 0.843989 0.830902 0.227778
O O3 0.873075 0.839174 0.369871
O O4 0.852167 0.000307 0.308487
O O5 0.609656 0.185585 0.370289
O O6 0.626297 0.080566 0.484905
O O7 0.457530 0.243508 0.479131
O O8 0.377094 0.090390 0.401944
O O9 0.381959 0.021705 0.796278
O O10 0.368570 0.306337 0.813269
O O11 0.158810 0.342865 0.730181
O O12 0.612448 0.411875 0.574306
O O13 0.382549 0.420807 0.664097
O O14 0.109173 0.902682 0.443530
O O15 0.166107 0.069611 0.514019
#
# Coordination Sequence:
#
# PCOD9273471 Si02
#       8
#     8   8   4   8   8   8   8   8
#     4  11  24  39  63  91 122 165 206 253 312 383
#     4  11  21  38  64  91 123 167 208 259 319 374
#     4  12  24  38  58  90 126 164 200 254 320 384
#     4  11  22  39  59  90 128 157 204 253 307 388
#     4  10  23  41  62  89 127 167 199 254 322 364
#     4   9  21  42  62  89 120 164 217 267 301 373
#     4  10  20  37  66  89 118 162 222 258 308 367
#     4  12  21  39  60  88 129 160 196 253 314 381
#
# _framework density 26.44134
#
# number of rings (size 3 to 8) (size 9 to 14) (size 15 to 20)
#    0.000    1.333    4.000    2.400    1.867    3.200 
#    0.000    0.667    0.000   14.400    0.000    0.000 
#    0.000    2.133    0.000    0.000    0.000    0.000 
#
# Total GULP energy -167891.889723 kJ/mol
# GULP energy per Si atom -5596.396324 kJ/mol
# Density = 2.638116 g / cm^3
# Si number density = 26.441340 Si / 1000 Ang^3
#
#
#
# Elastic Constant Matrix: (Units=GPa)
#
#
# Indices 1 2 3 4 5 6 
#
# 1 195.8225 39.4302 54.0105 0.0000 49.9490 0.0000
# 2 39.4302 84.1882 35.7775 0.0000 26.2676 0.0000
# 3 54.0105 35.7775 101.8478 0.0000 23.4135 0.0000
# 4 0.0000 0.0000 0.0000 35.1102 0.0000 9.5441
# 5 49.9490 26.2676 23.4135 0.0000 51.9253 0.0000
# 6 0.0000 0.0000 0.0000 9.5441 0.0000 40.5340
#
#
#
# Elastic Compliance Matrix: (Units=1/GPa)
#
#
# Indices 1 2 3 4 5 6 
#
# 1 0.007333 -0.000670 -0.002354 0.000000 -0.005653 0.000000
# 2 -0.000670 0.015535 -0.003842 0.000000 -0.005482 0.000000
# 3 -0.002354 -0.003842 0.012773 0.000000 -0.001552 0.000000
# 4 0.000000 0.000000 0.000000 0.030429 0.000000 -0.007165
# 5 -0.005653 -0.005482 -0.001552 0.000000 0.028170 0.000000
# 6 0.000000 0.000000 0.000000 -0.007165 0.000000 0.026358
#
#
# Mechanical properties :
#
#
# Convention : Reuss Voigt Hill
#
# Bulk Modulus (GPa) = 45.64111 71.14386 58.39248
# Shear Modulus (GPa) = 35.30288 42.35659 38.82973
#
# Velocity S-wave (km/s) = 3.65792 4.00673 3.83629
# Velocity P-wave (km/s) = 5.92784 6.95484 6.46178
#
# Compressibility (1/GPa) = 0.02191007
#
# Stress axis : x y z
#
# Youngs Moduli (GPa) = 136.37362 64.37073 78.29050
#
# Poissons Ratio (x) = 0.04315 0.18426
# Poissons Ratio (y) = 0.09141 0.30076
# Poissons Ratio (z) = 0.32096 0.24728
#
# Static dielectric constant tensor:
#      x y z
#    x 2.141270 0.000000 0.033100 
#    y 0.000000 2.102600 0.000000 
#    z 0.033100 0.000000 2.078480 
# 
# From -- ./inp_files/264366.got.cif
#   From: 2010.05.17/outbox.cif.g08.bks.cpg/sg15_133_cif.got.tgz:264366.got - 2010.06.03 18:47:42.
