data_PCOD9273344
_publ_section_title
;
Structure prediction by ZEFSAII (Michael W. Deem and Ramdas Pophale) SiO2 
 PCOD9273344
Probable space group: C 2/C
;
_chemical_formula_sum "Si O2"
_cell_formula_units_Z 48
_cell_length_a 16.992512
_cell_length_b 16.676581
_cell_length_c 13.891215
_cell_angle_alpha 90.000000
_cell_angle_beta 35.751476
_cell_angle_gamma 90.000000
_cell_volume 2299.952404
_symmetry_space_group_name_H-M "C 2/C"
_symmetry_group_IT_number 15
_symmetry_cell_setting 'monoclinic'
loop_
_space_group_symop_operation_xyz
x,y,z
-x,y,1/2-z
-x,-y,-z
x,-y,1/2+z
1/2+x,1/2+y,z
1/2-x,1/2+y,1/2-z
1/2-x,1/2-y,-z
1/2+x,1/2-y,1/2+z
loop_
_atom_site_type_symbol
_atom_site_label
_atom_site_fract_x
_atom_site_fract_y
_atom_site_fract_z
Si Si1 0.465455 0.304938 0.991370
Si Si2 0.000000 0.877958 0.750000
Si Si3 0.975470 0.628576 0.064172
Si Si4 0.707953 0.521690 0.560928
Si Si5 0.239057 0.079343 0.745624
Si Si6 0.500000 0.931373 0.750000
Si Si7 0.328557 0.580932 0.102150
O O1 0.484522 0.323786 0.860051
O O2 0.566668 0.362772 0.949328
O O3 0.486479 0.214934 0.004821
O O4 0.316666 0.334477 0.169444
O O5 0.125784 0.939231 0.638663
O O6 0.001824 0.623626 0.153127
O O7 0.820908 0.601175 0.209978
O O8 0.099965 0.576464 0.899540
O O9 0.701761 0.559363 0.672747
O O10 0.659064 0.582293 0.525675
O O11 0.866937 0.514164 0.380967
O O12 0.159946 0.013223 0.885671
#
# Coordination Sequence:
#
# PCOD9273344 Si02
#       7
#     8   4   8   8   8   4   8
#     4  12  24  40  60  93 126 165 200 255 319 368
#     4  12  22  40  61  91 126 160 214 252 302 368
#     4  10  23  40  62  91 131 159 202 254 319 369
#     4  10  20  37  64  95 117 153 214 264 296 359
#     4  11  21  40  64  91 120 164 211 257 303 364
#     4   8  20  40  65  93 122 158 202 264 316 354
#     4  11  21  40  64  91 120 164 211 257 303 364
#
# _framework density 20.869997000000001
#
# number of rings (size 3 to 8) (size 9 to 14) (size 15 to 20)
#    0.000    1.333    3.333    3.000    0.000    1.333 
#    0.000   10.000    0.000    0.000    0.000    0.000 
#    0.000    0.000    0.000    0.000    0.000    0.000 
#
# Total GULP energy -134039.186923 kJ/mol
# GULP energy per Si atom -5584.966122 kJ/mol
# Density = 2.082250 g / cm^3
# Si number density = 20.869997 Si / 1000 Ang^3
#
#
#
# Elastic Constant Matrix: (Units=GPa)
#
#
# Indices 1 2 3 4 5 6 
#
# 1 53.3164 13.5268 36.0505 0.0000 -5.0775 0.0000
# 2 13.5268 88.8857 27.6264 0.0001 -1.9512 0.0000
# 3 36.0505 27.6264 82.5901 0.0003 0.4269 0.0000
# 4 0.0000 0.0001 0.0003 27.6414 -0.0003 0.8617
# 5 -5.0775 -1.9512 0.4269 -0.0003 31.6742 0.0000
# 6 0.0000 0.0000 0.0000 0.8617 0.0000 20.0368
#
#
#
# Elastic Compliance Matrix: (Units=1/GPa)
#
#
# Indices 1 2 3 4 5 6 
#
# 1 0.027256 -0.000384 -0.011792 0.000000 0.004504 0.000000
# 2 -0.000384 0.012583 -0.004045 0.000000 0.000768 0.000000
# 3 -0.011792 -0.004045 0.018621 0.000000 -0.002390 0.000000
# 4 0.000000 0.000000 0.000000 0.036226 0.000000 -0.001558
# 5 0.004504 0.000768 -0.002390 0.000000 0.032373 0.000000
# 6 0.000000 0.000000 0.000000 -0.001558 0.000000 0.049975
#
#
# Mechanical properties :
#
#
# Convention : Reuss Voigt Hill
#
# Bulk Modulus (GPa) = 38.43664 42.13329 40.28497
# Shear Modulus (GPa) = 22.92017 25.70971 24.31494
#
# Velocity S-wave (km/s) = 3.31756 3.51365 3.41701
# Velocity P-wave (km/s) = 5.75605 6.05749 5.90869
#
# Compressibility (1/GPa) = 0.02601684
#
# Stress axis : x y z
#
# Youngs Moduli (GPa) = 36.68980 79.47211 53.70372
#
# Poissons Ratio (x) = 0.03051 0.63327
# Poissons Ratio (y) = 0.01408 0.21725
# Poissons Ratio (z) = 0.43264 0.32150
#
# Static dielectric constant tensor:
#      x y z
#    x 1.764190 0.000000 -0.018330 
#    y 0.000000 1.692460 0.000000 
#    z -0.018330 0.000000 1.789920 
# 
# From -- ./inp_files/48386.got.cif
#   From: 2010.05.17/outbox.cif.g08.bks.cpg/sg15_25_cif.got.tgz:48386.got - 2010.06.03 18:47:42.
