data_PCOD9273509
_publ_section_title
;
Structure prediction by ZEFSAII (Michael W. Deem and Ramdas Pophale) SiO2 
 PCOD9273509
Probable space group: C 2/C
;
_chemical_formula_sum "Si O2"
_cell_formula_units_Z 52
_cell_length_a 9.888221
_cell_length_b 17.478631
_cell_length_c 26.290880
_cell_angle_alpha 90.000000
_cell_angle_beta 151.259303
_cell_angle_gamma 90.000000
_cell_volume 2184.927743
_symmetry_space_group_name_H-M "C 2/C"
_symmetry_group_IT_number 15
_symmetry_cell_setting 'monoclinic'
loop_
_space_group_symop_operation_xyz
x,y,z
-x,y,1/2-z
-x,-y,-z
x,-y,1/2+z
1/2+x,1/2+y,z
1/2-x,1/2+y,1/2-z
1/2-x,1/2-y,-z
1/2+x,1/2-y,1/2+z
loop_
_atom_site_type_symbol
_atom_site_label
_atom_site_fract_x
_atom_site_fract_y
_atom_site_fract_z
Si Si1 0.494042 0.908296 0.391424
Si Si2 0.117870 0.938021 0.174381
Si Si3 0.899534 0.053952 0.421276
Si Si4 0.232644 0.956947 0.864916
Si Si5 0.389997 0.192010 0.124055
Si Si6 0.604246 0.828394 0.989528
Si Si7 0.500000 0.703967 0.750000
O O1 0.825704 0.896033 0.503696
O O2 0.381476 0.912444 0.295790
O O3 0.273105 0.850204 0.344698
O O4 0.441328 0.991120 0.399997
O O5 0.184534 0.996182 0.151112
O O6 0.926070 0.987530 0.149376
O O7 0.916289 0.867491 0.091236
O O8 0.675374 0.112650 0.370083
O O9 0.000000 0.000000 0.500000
O O10 0.397963 0.889527 0.946373
O O11 0.000000 0.925755 0.750000
O O12 0.498354 0.179394 0.102690
O O13 0.553649 0.243046 0.218894
O O14 0.123029 0.247185 0.023056
#
# Coordination Sequence:
#
# PCOD9273509 Si02
#       7
#     8   8   8   8   8   8   4
#     4  11  22  42  71 100 133 173 236 278 336 408
#     4  11  21  40  74  93 127 179 223 286 328 401
#     4  12  26  44  65 103 139 174 229 286 346 415
#     4  10  20  37  67 101 121 167 233 281 323 402
#     4  11  26  43  64  94 140 183 214 283 355 404
#     4  11  21  44  66  90 134 179 223 278 343 409
#     4  12  24  44  66  98 138 178 232 274 344 416
#
# _framework density 23.799415
#
# number of rings (size 3 to 8) (size 9 to 14) (size 15 to 20)
#    0.000    0.923    6.923    0.462    2.154    4.923 
#    2.769    0.000    0.000    0.000    0.000    0.000 
#    0.000    0.000    0.000    0.000    0.000    0.000 
#
# Total GULP energy -145411.252711 kJ/mol
# GULP energy per Si atom -5592.740489 kJ/mol
# Density = 2.374525 g / cm^3
# Si number density = 23.799415 Si / 1000 Ang^3
#
#
#
# Elastic Constant Matrix: (Units=GPa)
#
#
# Indices 1 2 3 4 5 6 
#
# 1 44.2659 4.3091 13.4394 -0.0021 -17.0632 -0.0023
# 2 4.3091 92.0401 9.1528 -0.0014 -13.7879 -0.0017
# 3 13.4394 9.1528 68.2655 -0.0002 -21.8989 -0.0020
# 4 -0.0021 -0.0014 -0.0002 48.2854 -0.0014 -16.5011
# 5 -17.0632 -13.7879 -21.8989 -0.0014 36.3358 -0.0019
# 6 -0.0023 -0.0017 -0.0020 -16.5011 -0.0019 33.2473
#
#
#
# Elastic Compliance Matrix: (Units=1/GPa)
#
#
# Indices 1 2 3 4 5 6 
#
# 1 0.027766 0.000708 -0.001602 0.000003 0.012342 0.000004
# 2 0.000708 0.011539 -0.000217 0.000001 0.004580 0.000001
# 3 -0.001602 -0.000217 0.018255 0.000001 0.010167 0.000002
# 4 0.000003 0.000001 0.000001 0.024940 0.000004 0.012378
# 5 0.012342 0.004580 0.010167 0.000004 0.041182 0.000006
# 6 0.000004 0.000001 0.000002 0.012378 0.000006 0.036221
#
#
# Mechanical properties :
#
#
# Convention : Reuss Voigt Hill
#
# Bulk Modulus (GPa) = 18.07087 28.70824 23.38956
# Shear Modulus (GPa) = 27.68986 35.41838 31.55412
#
# Velocity S-wave (km/s) = 3.41467 3.86191 3.64515
# Velocity P-wave (km/s) = 4.81207 5.65461 5.25027
#
# Compressibility (1/GPa) = 0.05533767
#
# Stress axis : x y z
#
# Youngs Moduli (GPa) = 36.01574 86.65945 54.78045
#
# Poissons Ratio (x) = -0.06138 0.08776
# Poissons Ratio (y) = -0.02551 0.01190
# Poissons Ratio (z) = 0.05770 0.01883
#
# Static dielectric constant tensor:
#      x y z
#    x 1.948040 0.000000 -0.015490 
#    y 0.000000 1.880890 0.000000 
#    z -0.015490 0.000000 1.979680 
# 
# From -- ./inp_files/293490.got.cif
#   From: 2010.05.17/outbox.cif.g08.bks.cpg/sg15_147_cif.got.tgz:293490.got - 2010.06.03 18:47:42.
