data_PCOD9273442
_publ_section_title
;
Structure prediction by ZEFSAII (Michael W. Deem and Ramdas Pophale) SiO2 
 PCOD9273442
Probable space group: C 2/C
;
_chemical_formula_sum "Si O2"
_cell_formula_units_Z 48
_cell_length_a 17.399483
_cell_length_b 25.757692
_cell_length_c 5.060032
_cell_angle_alpha 90.000000
_cell_angle_beta 106.617322
_cell_angle_gamma 90.000000
_cell_volume 2173.046944
_symmetry_space_group_name_H-M "C 2/C"
_symmetry_group_IT_number 15
_symmetry_cell_setting 'monoclinic'
loop_
_space_group_symop_operation_xyz
x,y,z
-x,y,1/2-z
-x,-y,-z
x,-y,1/2+z
1/2+x,1/2+y,z
1/2-x,1/2+y,1/2-z
1/2-x,1/2-y,-z
1/2+x,1/2-y,1/2+z
loop_
_atom_site_type_symbol
_atom_site_label
_atom_site_fract_x
_atom_site_fract_y
_atom_site_fract_z
Si Si1 0.096162 0.031485 0.150462
Si Si2 0.711661 0.032293 0.218950
Si Si3 0.838340 0.350701 0.726283
Si Si4 0.582704 0.808111 0.174412
Si Si5 0.800983 0.783329 0.767213
Si Si6 0.552659 0.648285 0.053934
O O1 0.192205 0.035795 0.210313
O O2 0.059866 0.086329 0.038446
O O3 0.076584 0.014550 0.428164
O O4 0.685064 0.089302 0.283717
O O5 0.685696 0.989318 0.408579
O O6 0.907972 0.342521 0.579242
O O7 0.765240 0.308881 0.600049
O O8 0.864259 0.335081 0.046449
O O9 0.500000 0.799374 0.250000
O O10 0.623649 0.755148 0.112787
O O11 0.750000 0.750000 0.500000
O O12 0.856652 0.834012 0.780546
O O13 0.500000 0.663495 0.250000
O O14 0.500000 0.667034 0.750000
#
# Coordination Sequence:
#
# PCOD9273442 Si02
#       6
#     8   8   8   8   8   8
#     4  10  21  39  61  91 131 175 219 265 320 387
#     4  10  20  37  65  96 126 163 216 272 317 379
#     4  11  22  42  69  95 127 169 219 265 324 392
#     4  11  24  41  66  95 131 167 210 271 335 396
#     4  10  24  46  68  98 128 177 228 280 325 395
#     4  12  26  41  64  96 138 179 219 275 336 395
#
# _framework density 22.088802000000001
#
# number of rings (size 3 to 8) (size 9 to 14) (size 15 to 20)
#    0.000    1.333    1.667    3.500    0.000    8.667 
#    0.000    0.000    0.000   10.000    0.000    0.000 
#    0.000    0.000    0.000    0.000    0.000    0.000 
#
# Total GULP energy -133655.374770 kJ/mol
# GULP energy per Si atom -5568.973949 kJ/mol
# Density = 2.203853 g / cm^3
# Si number density = 22.088802 Si / 1000 Ang^3
#
#
#
# Elastic Constant Matrix: (Units=GPa)
#
#
# Indices 1 2 3 4 5 6 
#
# 1 131.8847 43.1162 19.3959 0.0000 -24.1048 0.0000
# 2 43.1162 103.5200 16.7092 0.0000 -4.6578 0.0000
# 3 19.3959 16.7092 82.7877 0.0000 -24.0588 0.0000
# 4 0.0000 0.0000 0.0000 7.8837 0.0000 26.4132
# 5 -24.1048 -4.6578 -24.0588 0.0000 39.7114 0.0000
# 6 0.0000 0.0000 0.0000 26.4132 0.0000 6.0709
#
#
#
# Elastic Compliance Matrix: (Units=1/GPa)
#
#
# Indices 1 2 3 4 5 6 
#
# 1 0.009854 -0.003868 0.000095 0.000000 0.005585 0.000000
# 2 -0.003868 0.011504 -0.002070 0.000000 -0.002253 0.000000
# 3 0.000095 -0.002070 0.015075 0.000000 0.008948 0.000000
# 4 0.000000 0.000000 0.000000 -0.009343 0.000000 0.040648
# 5 0.005585 -0.002253 0.008948 0.000000 0.033729 0.000000
# 6 0.000000 0.000000 0.000000 0.040648 0.000000 -0.012133
#
#
# Mechanical properties :
#
#
# Convention : Reuss Voigt Hill
#
# Bulk Modulus (GPa) = 40.41035 52.95946 46.68490
# Shear Modulus (GPa) = 72.86361 26.66460 49.76411
#
# Velocity S-wave (km/s) = 5.74963 3.47818 4.75163
# Velocity P-wave (km/s) = 7.90012 6.33704 7.16136
#
# Compressibility (1/GPa) = 0.02474614
#
# Stress axis : x y z
#
# Youngs Moduli (GPa) = 101.48365 86.92718 66.33502
#
# Poissons Ratio (x) = 0.33625 -0.00632
# Poissons Ratio (y) = 0.39256 0.13734
# Poissons Ratio (z) = -0.00967 0.17997
#
# Static dielectric constant tensor:
#      x y z
#    x 1.893040 0.000000 0.128090 
#    y 0.000000 1.855730 0.000000 
#    z 0.128090 0.000000 1.773870 
# 
# From -- ./inp_files/10924.got.cif
#   From: 2010.05.17/outbox.cif.g08.bks.cpg/sg15_6_cif.got.tgz:10924.got - 2010.06.03 18:47:42.
