data_PCOD9273993
_publ_section_title
;
Structure prediction by ZEFSAII (Michael W. Deem and Ramdas Pophale) SiO2 
 PCOD9273993
Probable space group: C 2/C
;
_chemical_formula_sum "Si O2"
_cell_formula_units_Z 36
_cell_length_a 17.367761
_cell_length_b 17.348642
_cell_length_c 5.952808
_cell_angle_alpha 90.000000
_cell_angle_beta 60.851474
_cell_angle_gamma 90.000000
_cell_volume 1566.478716
_symmetry_space_group_name_H-M "C 2/C"
_symmetry_group_IT_number 15
_symmetry_cell_setting 'monoclinic'
loop_
_space_group_symop_operation_xyz
x,y,z
-x,y,1/2-z
-x,-y,-z
x,-y,1/2+z
1/2+x,1/2+y,z
1/2-x,1/2+y,1/2-z
1/2-x,1/2-y,-z
1/2+x,1/2-y,1/2+z
loop_
_atom_site_type_symbol
_atom_site_label
_atom_site_fract_x
_atom_site_fract_y
_atom_site_fract_z
Si Si1 0.500000 0.404266 0.750000
Si Si2 0.835154 0.528679 0.955341
Si Si3 0.666642 0.429455 0.234400
Si Si4 0.408710 0.687183 0.004021
Si Si5 0.200764 0.680687 0.688404
O O1 0.572732 0.447886 0.489974
O O2 0.435918 0.347767 0.703441
O O3 0.868915 0.502361 0.157977
O O4 0.732319 0.500408 0.096507
O O5 0.842665 0.620578 0.922010
O O6 0.645116 0.379496 0.044800
O O7 0.729565 0.370541 0.278332
O O8 0.500000 0.694034 0.750000
O O9 0.365891 0.771262 0.064634
O O10 0.250000 0.750000 0.500000
#
# Coordination Sequence:
#
# PCOD9273993 Si02
#       5
#     4   8   8   8   8
#     4  10  20  38  60  94 132 168 206 256 326 384
#     4  10  23  40  61  93 126 163 212 265 316 377
#     4  10  21  38  65  91 129 166 213 262 322 385
#     4  10  21  37  63  96 129 166 214 264 324 379
#     4  11  20  38  67  91 123 166 221 266 317 379
#
# _framework density 22.981483000000001
#
# number of rings (size 3 to 8) (size 9 to 14) (size 15 to 20)
#    0.000    1.778    2.222    2.000    3.111    1.778 
#    0.000    4.444    4.889    5.333    0.000    0.000 
#    0.000    0.000    0.000    0.000    0.000    0.000 
#
# Total GULP energy -100396.082599 kJ/mol
# GULP energy per Si atom -5577.560144 kJ/mol
# Density = 2.292918 g / cm^3
# Si number density = 22.981483 Si / 1000 Ang^3
#
#
#
# Elastic Constant Matrix: (Units=GPa)
#
#
# Indices 1 2 3 4 5 6 
#
# 1 34.6823 -4.5803 5.5998 0.0000 10.6716 0.0000
# 2 -4.5803 120.3229 31.0547 0.0000 1.2440 0.0000
# 3 5.5998 31.0547 81.1634 0.0000 25.8529 0.0000
# 4 0.0000 0.0000 0.0000 5.9771 0.0000 -8.5543
# 5 10.6716 1.2440 25.8529 0.0000 26.9112 0.0000
# 6 0.0000 0.0000 0.0000 -8.5543 0.0000 31.8605
#
#
#
# Elastic Compliance Matrix: (Units=1/GPa)
#
#
# Indices 1 2 3 4 5 6 
#
# 1 0.033332 0.000832 0.002312 0.000000 -0.015477 0.000000
# 2 0.000832 0.009596 -0.005018 0.000000 0.004047 0.000000
# 3 0.002312 -0.005018 0.020605 0.000000 -0.020479 0.000000
# 4 0.000000 0.000000 0.000000 0.271717 0.000000 0.072954
# 5 -0.015477 0.004047 -0.020479 0.000000 0.062783 0.000000
# 6 0.000000 0.000000 0.000000 0.072954 0.000000 0.050975
#
#
# Mechanical properties :
#
#
# Convention : Reuss Voigt Hill
#
# Bulk Modulus (GPa) = 16.72683 33.36855 25.04769
# Shear Modulus (GPa) = 10.57789 26.55606 18.56697
#
# Velocity S-wave (km/s) = 2.14774 3.40301 2.84546
# Velocity P-wave (km/s) = 3.66668 5.47649 4.66029
#
# Compressibility (1/GPa) = 0.05978418
#
# Stress axis : x y z
#
# Youngs Moduli (GPa) = 30.00113 104.21039 48.53308
#
# Poissons Ratio (x) = -0.08672 -0.11220
# Poissons Ratio (y) = -0.02497 0.24355
# Poissons Ratio (z) = -0.06936 0.52295
#
# Static dielectric constant tensor:
#      x y z
#    x 1.967430 0.000000 0.072260 
#    y 0.000000 1.829490 0.000000 
#    z 0.072260 0.000000 2.322870 
# 
# From -- ./inp_files/9697.got.cif
#   From: 2010.05.17/outbox.cif.g08.bks.cpg/sg15_5_cif.got.tgz:9697.got - 2010.06.03 18:47:42.
