data_PCOD9273284
_publ_section_title
;
Structure prediction by ZEFSAII (Michael W. Deem and Ramdas Pophale) SiO2 
 PCOD9273284
Probable space group: C 2/C
;
_chemical_formula_sum "Si O2"
_cell_formula_units_Z 64
_cell_length_a 12.320802
_cell_length_b 7.838355
_cell_length_c 31.198431
_cell_angle_alpha 90.000000
_cell_angle_beta 95.460290
_cell_angle_gamma 90.000000
_cell_volume 2999.311107
_symmetry_space_group_name_H-M "C 2/C"
_symmetry_group_IT_number 15
_symmetry_cell_setting 'monoclinic'
loop_
_space_group_symop_operation_xyz
x,y,z
-x,y,1/2-z
-x,-y,-z
x,-y,1/2+z
1/2+x,1/2+y,z
1/2-x,1/2+y,1/2-z
1/2-x,1/2-y,-z
1/2+x,1/2-y,1/2+z
loop_
_atom_site_type_symbol
_atom_site_label
_atom_site_fract_x
_atom_site_fract_y
_atom_site_fract_z
Si Si1 0.903958 0.740765 0.500070
Si Si2 0.900790 0.298611 0.220821
Si Si3 0.222804 0.740804 0.315710
Si Si4 0.154883 0.534729 0.612040
Si Si5 0.417471 0.998084 0.636246
Si Si6 0.734301 0.514928 0.253675
Si Si7 0.146214 0.661416 0.517514
Si Si8 0.767741 0.276591 0.074336
O O1 0.872320 0.537543 0.496748
O O2 0.855334 0.798906 0.543643
O O3 0.836555 0.824358 0.458841
O O4 0.033070 0.754949 0.501782
O O5 0.930121 0.366376 0.175542
O O6 0.858442 0.452671 0.250118
O O7 0.799814 0.168584 0.216593
O O8 0.000000 0.214866 0.250000
O O9 0.300244 0.859807 0.346388
O O10 0.129012 0.668414 0.342252
O O11 0.288934 0.586412 0.295039
O O12 0.179219 0.852777 0.274165
O O13 0.157922 0.649462 0.569284
O O14 0.227881 0.369759 0.604862
O O15 0.030766 0.479217 0.616122
O O16 0.325560 0.070511 0.601044
O O17 0.250000 0.750000 0.500000
#
# Coordination Sequence:
#
# PCOD9273284 Si02
#       8
#     8   8   8   8   8   8   8   8
#     4   9  20  41  61  91 127 171 216 265 323 384
#     4  10  20  37  64  88 122 166 205 261 327 383
#     4  10  22  39  66  90 126 166 213 266 325 387
#     4  11  23  40  61  96 129 167 217 267 322 387
#     4  11  22  39  62  90 125 171 210 271 325 374
#     4   9  19  40  59  89 121 158 207 260 309 386
#     4  10  21  38  68  94 129 175 219 266 325 390
#     4  10  21  40  65  88 130 172 214 269 321 377
#
# _framework density 21.338234
#
# number of rings (size 3 to 8) (size 9 to 14) (size 15 to 20)
#    0.000    2.000    1.250    2.250    1.750    0.000 
#    0.000   23.750    0.000    0.000    0.000    0.000 
#    0.000    0.000    0.000    0.000    0.000    0.000 
#
# Total GULP energy -178473.067268 kJ/mol
# GULP energy per Si atom -5577.283352 kJ/mol
# Density = 2.128967 g / cm^3
# Si number density = 21.338234 Si / 1000 Ang^3
#
#
#
# Elastic Constant Matrix: (Units=GPa)
#
#
# Indices 1 2 3 4 5 6 
#
# 1 132.4317 44.3041 43.9974 0.0000 -23.4518 0.0000
# 2 44.3041 58.7239 36.3108 0.0000 -5.5740 0.0000
# 3 43.9974 36.3108 98.6080 0.0000 -17.8822 0.0000
# 4 0.0000 0.0000 0.0000 30.2853 0.0000 -15.0228
# 5 -23.4518 -5.5740 -17.8822 0.0000 25.3593 0.0000
# 6 0.0000 0.0000 0.0000 -15.0228 0.0000 25.7264
#
#
#
# Elastic Compliance Matrix: (Units=1/GPa)
#
#
# Indices 1 2 3 4 5 6 
#
# 1 0.011954 -0.007601 -0.000955 0.000000 0.008710 0.000000
# 2 -0.007601 0.026905 -0.007703 0.000000 -0.006548 0.000000
# 3 -0.000955 -0.007703 0.014834 0.000000 0.007884 0.000000
# 4 0.000000 0.000000 0.000000 0.046484 0.000000 0.027144
# 5 0.008710 -0.006548 0.007884 0.000000 0.051608 0.000000
# 6 0.000000 0.000000 0.000000 0.027144 0.000000 0.054721
#
#
# Mechanical properties :
#
#
# Convention : Reuss Voigt Hill
#
# Bulk Modulus (GPa) = 47.22851 59.88756 53.55804
# Shear Modulus (GPa) = 20.31838 27.28429 23.80134
#
# Velocity S-wave (km/s) = 3.08913 3.57971 3.34343
# Velocity P-wave (km/s) = 5.90804 6.72403 6.32920
#
# Compressibility (1/GPa) = 0.02117365
#
# Stress axis : x y z
#
# Youngs Moduli (GPa) = 83.65563 37.16749 67.41494
#
# Poissons Ratio (x) = 0.28252 0.06438
# Poissons Ratio (y) = 0.63589 0.51931
# Poissons Ratio (z) = 0.07989 0.28631
#
# Static dielectric constant tensor:
#      x y z
#    x 1.764280 0.000000 0.002880 
#    y 0.000000 1.845460 0.000000 
#    z 0.002880 0.000000 1.790690 
# 
# From -- ./inp_files/310298.got.cif
#   From: 2010.05.17/outbox.cif.g08.bks.cpg/sg15_156_cif.got.tgz:310298.got - 2010.06.03 18:47:42.
