data_PCOD9273305
_publ_section_title
;
Structure prediction by ZEFSAII (Michael W. Deem and Ramdas Pophale) SiO2 
 PCOD9273305
Probable space group: C 2/C
;
_chemical_formula_sum "Si O2"
_cell_formula_units_Z 52
_cell_length_a 10.183743
_cell_length_b 9.421163
_cell_length_c 21.276157
_cell_angle_alpha 90.000000
_cell_angle_beta 95.675871
_cell_angle_gamma 90.000000
_cell_volume 2031.284181
_symmetry_space_group_name_H-M "C 2/C"
_symmetry_group_IT_number 15
_symmetry_cell_setting 'monoclinic'
loop_
_space_group_symop_operation_xyz
x,y,z
-x,y,1/2-z
-x,-y,-z
x,-y,1/2+z
1/2+x,1/2+y,z
1/2-x,1/2+y,1/2-z
1/2-x,1/2-y,-z
1/2+x,1/2-y,1/2+z
loop_
_atom_site_type_symbol
_atom_site_label
_atom_site_fract_x
_atom_site_fract_y
_atom_site_fract_z
Si Si1 0.903600 0.217022 0.841222
Si Si2 0.000000 0.580667 0.250000
Si Si3 0.214503 0.850638 0.927806
Si Si4 0.974470 0.170505 0.495624
Si Si5 0.799533 0.660834 0.779526
Si Si6 0.489250 0.421327 0.819008
Si Si7 0.740514 0.334262 0.419128
O O1 0.008821 0.322897 0.813142
O O2 0.835577 0.275335 0.900079
O O3 0.797657 0.211166 0.778977
O O4 0.932681 0.052353 0.854925
O O5 0.123081 0.476367 0.242448
O O6 0.115914 0.778193 0.973947
O O7 0.260621 0.008732 0.950090
O O8 0.113738 0.869656 0.863810
O O9 0.860089 0.228218 0.442133
O O10 0.898112 0.214677 0.556515
O O11 0.000000 0.000000 0.500000
O O12 0.736132 0.635669 0.844744
O O13 0.900432 0.786615 0.799576
O O14 0.500000 0.488680 0.750000
#
# Coordination Sequence:
#
# PCOD9273305 Si02
#       7
#     8   4   8   8   8   8   8
#     4  12  25  38  60  95 133 166 205 252 314 384
#     4  12  24  38  60  90 128 168 200 246 308 374
#     4  11  21  39  62  88 123 163 208 260 314 378
#     4   9  20  38  64  93 117 160 220 267 315 369
#     4  12  22  40  62  90 127 168 207 253 314 379
#     4  12  22  38  59  89 131 166 204 253 316 380
#     4  10  20  37  64  91 119 166 214 260 315 374
#
# _framework density 25.599568999999999
#
# number of rings (size 3 to 8) (size 9 to 14) (size 15 to 20)
#    0.000    0.923    6.154    1.846    0.000    0.000 
#    0.000    0.000    0.000   11.077    0.000    0.000 
#    0.000    0.000    0.000    0.000    0.000    0.000 
#
# Total GULP energy -145377.374726 kJ/mol
# GULP energy per Si atom -5591.437489 kJ/mol
# Density = 2.554130 g / cm^3
# Si number density = 25.599569 Si / 1000 Ang^3
#
#
#
# Elastic Constant Matrix: (Units=GPa)
#
#
# Indices 1 2 3 4 5 6 
#
# 1 119.7267 58.0719 54.3007 0.0000 -46.2530 0.0000
# 2 58.0719 128.6211 33.8857 0.0000 -21.7417 0.0000
# 3 54.3007 33.8857 197.6983 0.0000 -39.6890 0.0000
# 4 0.0000 0.0000 0.0000 36.1555 0.0000 -9.7471
# 5 -46.2530 -21.7417 -39.6890 0.0000 59.8489 0.0000
# 6 0.0000 0.0000 0.0000 -9.7471 0.0000 51.4923
#
#
#
# Elastic Compliance Matrix: (Units=1/GPa)
#
#
# Indices 1 2 3 4 5 6 
#
# 1 0.014671 -0.004777 -0.001480 0.000000 0.008622 0.000000
# 2 -0.004777 0.009993 -0.000477 0.000000 -0.000377 0.000000
# 3 -0.001480 -0.000477 0.006093 0.000000 0.002724 0.000000
# 4 0.000000 0.000000 0.000000 0.029146 0.000000 0.005517
# 5 0.008622 -0.000377 0.002724 0.000000 0.025041 0.000000
# 6 0.000000 0.000000 0.000000 0.005517 0.000000 0.020465
#
#
# Mechanical properties :
#
#
# Convention : Reuss Voigt Hill
#
# Bulk Modulus (GPa) = 57.83408 82.06254 69.94831
# Shear Modulus (GPa) = 40.11570 49.48517 44.80044
#
# Velocity S-wave (km/s) = 3.96289 4.40141 4.18789
# Velocity P-wave (km/s) = 6.60153 7.61287 7.12516
#
# Compressibility (1/GPa) = 0.01729084
#
# Stress axis : x y z
#
# Youngs Moduli (GPa) = 68.16068 100.06792 164.11612
#
# Poissons Ratio (x) = 0.47799 0.24291
# Poissons Ratio (y) = 0.32558 0.07822
# Poissons Ratio (z) = 0.10088 0.04769
#
# Static dielectric constant tensor:
#      x y z
#    x 2.105180 0.000000 -0.026480 
#    y 0.000000 1.990630 0.000000 
#    z -0.026480 0.000000 2.125670 
# 
# From -- ./inp_files/291166.got.cif
#   From: 2010.05.17/outbox.cif.g08.bks.cpg/sg15_146_cif.got.tgz:291166.got - 2010.06.03 18:47:42.
