data_PCOD9273209
_publ_section_title
;
Structure prediction by ZEFSAII (Michael W. Deem and Ramdas Pophale) SiO2 
 PCOD9273209
Probable space group: C 2/C
;
_chemical_formula_sum "Si O2"
_cell_formula_units_Z 56
_cell_length_a 14.209158
_cell_length_b 21.240915
_cell_length_c 15.112927
_cell_angle_alpha 90.000000
_cell_angle_beta 34.907535
_cell_angle_gamma 90.000000
_cell_volume 2610.230013
_symmetry_space_group_name_H-M "C 2/C"
_symmetry_group_IT_number 15
_symmetry_cell_setting 'monoclinic'
loop_
_space_group_symop_operation_xyz
x,y,z
-x,y,1/2-z
-x,-y,-z
x,-y,1/2+z
1/2+x,1/2+y,z
1/2-x,1/2+y,1/2-z
1/2-x,1/2-y,-z
1/2+x,1/2-y,1/2+z
loop_
_atom_site_type_symbol
_atom_site_label
_atom_site_fract_x
_atom_site_fract_y
_atom_site_fract_z
Si Si1 0.428622 0.732703 0.895102
Si Si2 0.953140 0.614631 0.905200
Si Si3 0.497553 0.517523 0.650376
Si Si4 0.369525 0.985297 0.025484
Si Si5 0.701824 0.611269 0.964688
Si Si6 0.581198 0.372864 0.949855
Si Si7 0.545084 0.137811 0.389362
O O1 0.500000 0.704302 0.750000
O O2 0.428296 0.684500 0.974974
O O3 0.513142 0.796736 0.864462
O O4 0.250000 0.750000 0.000000
O O5 0.907903 0.540696 0.928617
O O6 0.968284 0.639240 0.993524
O O7 0.787887 0.642252 0.985361
O O8 0.135831 0.616544 0.722944
O O9 0.500000 0.542970 0.750000
O O10 0.305069 0.502152 0.794954
O O11 0.618618 0.457516 0.549223
O O12 0.534141 0.565985 0.544129
O O13 0.412068 0.915078 0.961100
O O14 0.500000 0.000000 0.000000
O O15 0.548068 0.640224 0.029445
O O16 0.767992 0.381337 0.774713
#
# Coordination Sequence:
#
# PCOD9273209 Si02
#       7
#     8   8   8   8   8   8   8
#     4  12  28  49  69  96 129 172 220 269 324 387
#     4  10  22  42  66  98 133 172 215 267 328 384
#     4  12  24  39  63  98 135 175 217 265 324 391
#     4  10  20  37  63  91 131 169 209 261 315 382
#     4  11  23  41  67  96 134 173 216 270 323 391
#     4  12  26  42  67  96 130 173 222 269 326 385
#     4  11  25  43  68  95 130 174 219 270 326 385
#
# _framework density 21.454048
#
# number of rings (size 3 to 8) (size 9 to 14) (size 15 to 20)
#    0.000    0.857    2.857    5.143    6.000    0.000 
#    2.571    0.714    0.000    0.000    0.000    0.000 
#    0.000    0.000    0.000    0.000    0.000    0.000 
#
# Total GULP energy -156043.832761 kJ/mol
# GULP energy per Si atom -5572.994027 kJ/mol
# Density = 2.140522 g / cm^3
# Si number density = 21.454048 Si / 1000 Ang^3
#
#
#
# Elastic Constant Matrix: (Units=GPa)
#
#
# Indices 1 2 3 4 5 6 
#
# 1 106.9190 3.5697 10.2350 0.0025 -19.1763 -0.0007
# 2 3.5697 37.6914 -12.4785 0.0051 3.2691 -0.0015
# 3 10.2350 -12.4785 79.9692 0.0041 -13.6404 -0.0014
# 4 0.0025 0.0051 0.0041 20.2585 0.0024 -3.4122
# 5 -19.1763 3.2691 -13.6404 0.0024 43.5602 0.0000
# 6 -0.0007 -0.0015 -0.0014 -3.4122 0.0000 12.7970
#
#
#
# Elastic Compliance Matrix: (Units=1/GPa)
#
#
# Indices 1 2 3 4 5 6 
#
# 1 0.010273 -0.001625 -0.000820 -0.000001 0.004387 0.000000
# 2 -0.001625 0.028258 0.004367 -0.000007 -0.001469 0.000002
# 3 -0.000820 0.004367 0.013917 -0.000004 0.003669 0.000001
# 4 -0.000001 -0.000007 -0.000004 0.051683 -0.000004 0.013781
# 5 0.004387 -0.001469 0.003669 -0.000004 0.026147 -0.000001
# 6 0.000000 0.000002 0.000001 0.013781 -0.000001 0.081818
#
#
# Mechanical properties :
#
#
# Convention : Reuss Voigt Hill
#
# Bulk Modulus (GPa) = 17.76450 25.24802 21.50626
# Shear Modulus (GPa) = 22.02486 30.20668 26.11577
#
# Velocity S-wave (km/s) = 3.20755 3.75637 3.49275
# Velocity P-wave (km/s) = 4.69212 5.53242 5.12951
#
# Compressibility (1/GPa) = 0.05629203
#
# Stress axis : x y z
#
# Youngs Moduli (GPa) = 97.34723 35.38785 71.85430
#
# Poissons Ratio (x) = 0.05750 0.05892
# Poissons Ratio (y) = 0.15818 -0.31378
# Poissons Ratio (z) = 0.07982 -0.15454
#
# Static dielectric constant tensor:
#      x y z
#    x 1.884000 -0.000010 -0.022740 
#    y -0.000010 1.856890 0.000020 
#    z -0.022740 0.000020 1.778410 
# 
# From -- ./inp_files/156885.got.cif
#   From: 2010.05.17/outbox.cif.g08.bks.cpg/sg15_79_cif.got.tgz:156885.got - 2010.06.03 18:47:42.
