data_PCOD9273088
_publ_section_title
;
Structure prediction by ZEFSAII (Michael W. Deem and Ramdas Pophale) SiO2 
 PCOD9273088
Probable space group: C 2/C
;
_chemical_formula_sum "Si O2"
_cell_formula_units_Z 56
_cell_length_a 8.382334
_cell_length_b 17.122183
_cell_length_c 29.403448
_cell_angle_alpha 90.000000
_cell_angle_beta 137.126517
_cell_angle_gamma 90.000000
_cell_volume 2871.276556
_symmetry_space_group_name_H-M "C 2/C"
_symmetry_group_IT_number 15
_symmetry_cell_setting 'monoclinic'
loop_
_space_group_symop_operation_xyz
x,y,z
-x,y,1/2-z
-x,-y,-z
x,-y,1/2+z
1/2+x,1/2+y,z
1/2-x,1/2+y,1/2-z
1/2-x,1/2-y,-z
1/2+x,1/2-y,1/2+z
loop_
_atom_site_type_symbol
_atom_site_label
_atom_site_fract_x
_atom_site_fract_y
_atom_site_fract_z
Si Si1 0.689930 0.048174 0.587073
Si Si2 0.772679 0.030621 0.501781
Si Si3 0.800419 0.075129 0.409378
Si Si4 0.905561 0.785251 0.572506
Si Si5 0.361071 0.625140 0.149322
Si Si6 0.371794 0.694534 0.676731
Si Si7 0.148046 0.650544 0.204612
O O1 0.694336 0.062541 0.533960
O O2 0.835857 0.117218 0.639843
O O3 0.418202 0.039091 0.546176
O O4 0.801202 0.963608 0.622470
O O5 0.759390 0.084844 0.454904
O O6 0.039820 0.001401 0.561733
O O7 0.549780 0.083313 0.333230
O O8 0.959176 0.141996 0.421350
O O9 0.750000 0.750000 0.500000
O O10 0.782091 0.818350 0.591877
O O11 0.108771 0.725741 0.629655
O O12 0.247052 0.645279 0.174040
O O13 0.639689 0.636979 0.216079
O O14 0.500000 0.674280 0.750000
O O15 0.520284 0.766402 0.686172
#
# Coordination Sequence:
#
# PCOD9273088 Si02
#       7
#     8   8   8   8   8   8   8
#     4  11  23  39  65  92 127 168 209 266 321 377
#     4  10  21  38  60  94 131 157 212 268 310 377
#     4  10  20  37  62  91 123 166 208 263 316 368
#     4  11  23  40  65  93 124 174 211 259 319 385
#     4  11  22  43  67  91 124 169 221 253 320 390
#     4  11  24  41  62  92 129 158 209 265 321 368
#     4  10  23  41  65  88 125 173 212 260 316 390
#
# _framework density 19.503519000000001
#
# number of rings (size 3 to 8) (size 9 to 14) (size 15 to 20)
#    0.000    1.429    4.286    0.857    4.000    1.143 
#    0.000    2.857    6.286    0.000    0.000    0.000 
#    0.000    0.000    0.000    0.000    0.000    0.000 
#
# Total GULP energy -156203.598297 kJ/mol
# GULP energy per Si atom -5578.699939 kJ/mol
# Density = 1.945913 g / cm^3
# Si number density = 19.503519 Si / 1000 Ang^3
#
#
#
# Elastic Constant Matrix: (Units=GPa)
#
#
# Indices 1 2 3 4 5 6 
#
# 1 55.0874 0.4188 22.1041 0.0000 -2.7965 0.0000
# 2 0.4188 51.4416 26.1234 0.0000 3.4438 0.0000
# 3 22.1041 26.1234 114.0922 0.0001 12.3144 0.0001
# 4 0.0000 0.0000 0.0001 39.9559 0.0000 -1.6652
# 5 -2.7965 3.4438 12.3144 0.0000 40.8828 0.0000
# 6 0.0000 0.0000 0.0001 -1.6652 0.0000 13.8974
#
#
#
# Elastic Compliance Matrix: (Units=1/GPa)
#
#
# Indices 1 2 3 4 5 6 
#
# 1 0.020134 0.002020 -0.004644 0.000000 0.002606 0.000000
# 2 0.002020 0.022205 -0.005466 0.000000 -0.000086 0.000000
# 3 -0.004644 -0.005466 0.011267 0.000000 -0.003251 0.000000
# 4 0.000000 0.000000 0.000000 0.025153 0.000000 0.003014
# 5 0.002606 -0.000086 -0.003251 0.000000 0.025625 0.000000
# 6 0.000000 0.000000 0.000000 0.003014 0.000000 0.072317
#
#
# Mechanical properties :
#
#
# Convention : Reuss Voigt Hill
#
# Bulk Modulus (GPa) = 26.72062 35.32376 31.02219
# Shear Modulus (GPa) = 24.34792 30.41221 27.38006
#
# Velocity S-wave (km/s) = 3.53708 3.95311 3.75087
# Velocity P-wave (km/s) = 5.51466 6.24395 5.89060
#
# Compressibility (1/GPa) = 0.03742428
#
# Stress axis : x y z
#
# Youngs Moduli (GPa) = 49.66837 45.03545 88.75354
#
# Poissons Ratio (x) = -0.09098 0.41221
# Poissons Ratio (y) = -0.10034 0.48515
# Poissons Ratio (z) = 0.23068 0.24618
#
# Static dielectric constant tensor:
#      x y z
#    x 1.719270 0.000000 0.025340 
#    y 0.000000 1.682370 0.000000 
#    z 0.025340 0.000000 1.692260 
# 
# From -- ./inp_files/264577.got.cif
#   From: 2010.05.17/outbox.cif.g08.bks.cpg/sg15_133_cif.got.tgz:264577.got - 2010.06.03 18:47:42.
