data_PCOD9273753
_publ_section_title
;
Structure prediction by ZEFSAII (Michael W. Deem and Ramdas Pophale) SiO2 
 PCOD9273753
Probable space group: C 2/C
;
_chemical_formula_sum "Si O2"
_cell_formula_units_Z 44
_cell_length_a 19.107267
_cell_length_b 12.301057
_cell_length_c 9.011761
_cell_angle_alpha 90.000000
_cell_angle_beta 126.244215
_cell_angle_gamma 90.000000
_cell_volume 1708.273318
_symmetry_space_group_name_H-M "C 2/C"
_symmetry_group_IT_number 15
_symmetry_cell_setting 'monoclinic'
loop_
_space_group_symop_operation_xyz
x,y,z
-x,y,1/2-z
-x,-y,-z
x,-y,1/2+z
1/2+x,1/2+y,z
1/2-x,1/2+y,1/2-z
1/2-x,1/2-y,-z
1/2+x,1/2-y,1/2+z
loop_
_atom_site_type_symbol
_atom_site_label
_atom_site_fract_x
_atom_site_fract_y
_atom_site_fract_z
Si Si1 0.132135 0.765305 0.161368
Si Si2 0.216540 0.638941 0.031882
Si Si3 0.000000 0.031326 0.250000
Si Si4 0.061845 0.858936 0.556837
Si Si5 0.899377 0.655437 0.081067
Si Si6 0.739286 0.038176 0.752017
O O1 0.039099 0.818591 0.065606
O O2 0.147735 0.696284 0.329383
O O3 0.199507 0.863460 0.223995
O O4 0.135619 0.685349 0.024421
O O5 0.219437 0.555383 0.898977
O O6 0.250000 0.750000 0.000000
O O7 0.271983 0.577729 0.231057
O O8 0.932825 0.098962 0.267300
O O9 0.056265 0.955724 0.429790
O O10 0.107288 0.752580 0.548298
O O11 0.000000 0.636688 0.250000
O O12 0.852291 0.554834 0.946826
#
# Coordination Sequence:
#
# PCOD9273753 Si02
#       6
#     8   8   4   8   8   8
#     4  10  21  42  64  94 129 167 217 271 325 393
#     4  10  24  44  65 101 130 166 222 269 330 397
#     4  10  20  38  58  92 130 174 216 266 336 384
#     4  10  21  38  59  92 130 168 220 268 330 392
#     4  10  21  42  62  94 130 172 219 268 324 394
#     4  11  23  42  66  92 128 172 216 271 330 383
#
# _framework density 25.757003000000001
#
# number of rings (size 3 to 8) (size 9 to 14) (size 15 to 20)
#    0.000    1.818    2.727    1.636    2.545    4.364 
#    9.818    8.182    0.000    0.000    0.000    0.000 
#    0.000    0.000    0.000    0.000    0.000    0.000 
#
# Total GULP energy -123095.015304 kJ/mol
# GULP energy per Si atom -5595.227968 kJ/mol
# Density = 2.569838 g / cm^3
# Si number density = 25.757003 Si / 1000 Ang^3
#
#
#
# Elastic Constant Matrix: (Units=GPa)
#
#
# Indices 1 2 3 4 5 6 
#
# 1 59.3598 14.8878 43.7720 0.0000 -32.0457 0.0000
# 2 14.8878 112.6249 38.8997 0.0000 -16.4385 0.0000
# 3 43.7720 38.8997 111.6096 0.0000 -31.0877 0.0000
# 4 0.0000 0.0000 0.0000 63.0427 0.0000 -16.6266
# 5 -32.0457 -16.4385 -31.0877 0.0000 52.0138 0.0000
# 6 0.0000 0.0000 0.0000 -16.6266 0.0000 28.6571
#
#
#
# Elastic Compliance Matrix: (Units=1/GPa)
#
#
# Indices 1 2 3 4 5 6 
#
# 1 0.030290 0.000904 -0.008298 0.000000 0.013988 0.000000
# 2 0.000904 0.010195 -0.003426 0.000000 0.001732 0.000000
# 3 -0.008298 -0.003426 0.014016 0.000000 0.002182 0.000000
# 4 0.000000 0.000000 0.000000 0.018728 0.000000 0.010866
# 5 0.013988 0.001732 0.002182 0.000000 0.029695 0.000000
# 6 0.000000 0.000000 0.000000 0.010866 0.000000 0.041200
#
#
# Mechanical properties :
#
#
# Convention : Reuss Voigt Hill
#
# Bulk Modulus (GPa) = 30.43090 53.19035 41.81062
# Shear Modulus (GPa) = 28.29361 41.14504 34.71933
#
# Velocity S-wave (km/s) = 3.31793 4.00112 3.67544
# Velocity P-wave (km/s) = 5.14961 6.48390 5.85489
#
# Compressibility (1/GPa) = 0.03286134
#
# Stress axis : x y z
#
# Youngs Moduli (GPa) = 33.01388 98.08272 71.34705
#
# Poissons Ratio (x) = -0.08864 0.59206
# Poissons Ratio (y) = -0.02984 0.24441
# Poissons Ratio (z) = 0.27396 0.33599
#
# Static dielectric constant tensor:
#      x y z
#    x 2.075430 0.000000 0.045440 
#    y 0.000000 2.079310 0.000000 
#    z 0.045440 0.000000 2.062310 
# 
# From -- ./inp_files/54540.got.cif
#   From: 2010.05.17/outbox.cif.g08.bks.cpg/sg15_28_cif.got.tgz:54540.got - 2010.06.03 18:47:42.
