data_PCOD9273260
_publ_section_title
;
Structure prediction by ZEFSAII (Michael W. Deem and Ramdas Pophale) SiO2 
 PCOD9273260
Probable space group: C 2/C
;
_chemical_formula_sum "Si O2"
_cell_formula_units_Z 44
_cell_length_a 9.123711
_cell_length_b 11.679057
_cell_length_c 21.135320
_cell_angle_alpha 90.000000
_cell_angle_beta 120.587594
_cell_angle_gamma 90.000000
_cell_volume 1938.727334
_symmetry_space_group_name_H-M "C 2/C"
_symmetry_group_IT_number 15
_symmetry_cell_setting 'monoclinic'
loop_
_space_group_symop_operation_xyz
x,y,z
-x,y,1/2-z
-x,-y,-z
x,-y,1/2+z
1/2+x,1/2+y,z
1/2-x,1/2+y,1/2-z
1/2-x,1/2-y,-z
1/2+x,1/2-y,1/2+z
loop_
_atom_site_type_symbol
_atom_site_label
_atom_site_fract_x
_atom_site_fract_y
_atom_site_fract_z
Si Si1 0.728069 0.542003 0.592430
Si Si2 0.250000 0.750000 0.000000
Si Si3 0.466036 0.650564 0.634305
Si Si4 0.000000 0.969974 0.750000
Si Si5 0.000000 0.586980 0.750000
Si Si6 0.650701 0.710634 0.074373
Si Si7 0.734980 0.719373 0.241588
O O1 0.774760 0.634042 0.549739
O O2 0.583586 0.597633 0.605701
O O3 0.670593 0.419240 0.555175
O O4 0.889060 0.521205 0.674477
O O5 0.455688 0.747999 0.028508
O O6 0.439271 0.550490 0.679838
O O7 0.287375 0.703230 0.574720
O O8 0.577159 0.750135 0.693152
O O9 0.151770 0.889099 0.758596
O O10 0.126760 0.670439 0.740138
O O11 0.702697 0.706714 0.160447
#
# Coordination Sequence:
#
# PCOD9273260 Si02
#       7
#     8   4   8   4   4   8   8
#     4  11  25  45  70  96 138 180 227 282 340 400
#     4  12  28  50  66  94 144 192 224 272 338 420
#     4  11  24  39  69 108 134 168 230 290 333 400
#     4  11  20  37  66 106 142 165 210 289 356 386
#     4   9  20  39  68 100 128 169 222 287 338 388
#     4  12  24  43  67  97 135 180 229 271 339 409
#     4  10  20  37  64 101 137 169 216 283 343 393
#
# _framework density 22.695301000000001
#
# number of rings (size 3 to 8) (size 9 to 14) (size 15 to 20)
#    0.000    1.091    5.455    0.545    2.545    2.182 
#    0.000    1.818    0.000    0.000    0.000    0.000 
#    0.000    0.000    0.000    0.000    0.000    0.000 
#
# Total GULP energy -122627.310652 kJ/mol
# GULP energy per Si atom -5573.968666 kJ/mol
# Density = 2.264365 g / cm^3
# Si number density = 22.695301 Si / 1000 Ang^3
#
#
#
# Elastic Constant Matrix: (Units=GPa)
#
#
# Indices 1 2 3 4 5 6 
#
# 1 105.3798 44.6607 26.1255 0.0000 34.1511 0.0000
# 2 44.6607 89.7309 13.2239 0.0000 3.1032 0.0000
# 3 26.1255 13.2239 63.7863 0.0000 19.8774 0.0000
# 4 0.0000 0.0000 0.0000 13.6996 0.0000 -0.2288
# 5 34.1511 3.1032 19.8774 0.0000 53.0414 0.0000
# 6 0.0000 0.0000 0.0000 -0.2288 0.0000 19.7130
#
#
#
# Elastic Compliance Matrix: (Units=1/GPa)
#
#
# Indices 1 2 3 4 5 6 
#
# 1 0.016125 -0.007381 -0.002234 0.000000 -0.009113 0.000000
# 2 -0.007381 0.014877 -0.001439 0.000000 0.004421 0.000000
# 3 -0.002234 -0.001439 0.018587 0.000000 -0.005443 0.000000
# 4 0.000000 0.000000 0.000000 0.073009 0.000000 0.000847
# 5 -0.009113 0.004421 -0.005443 0.000000 0.026502 0.000000
# 6 0.000000 0.000000 0.000000 0.000847 0.000000 0.050738
#
#
# Mechanical properties :
#
#
# Convention : Reuss Voigt Hill
#
# Bulk Modulus (GPa) = 36.38982 47.43524 41.91253
# Shear Modulus (GPa) = 21.63505 28.94993 25.29249
#
# Velocity S-wave (km/s) = 3.09088 3.57542 3.34194
# Velocity P-wave (km/s) = 5.36721 6.16369 5.77919
#
# Compressibility (1/GPa) = 0.02748021
#
# Stress axis : x y z
#
# Youngs Moduli (GPa) = 62.01565 67.21621 53.80138
#
# Poissons Ratio (x) = 0.49614 0.12021
# Poissons Ratio (y) = 0.45775 0.07741
# Poissons Ratio (z) = 0.13857 0.09672
#
# Static dielectric constant tensor:
#      x y z
#    x 1.830510 0.000000 0.002240 
#    y 0.000000 1.817380 0.000000 
#    z 0.002240 0.000000 1.880250 
# 
# From -- ./inp_files/230174.got.cif
#   From: 2010.05.17/outbox.cif.g08.bks.cpg/sg15_116_cif.got.tgz:230174.got - 2010.06.03 18:47:42.
