data_PCOD9273574
_publ_section_title
;
Structure prediction by ZEFSAII (Michael W. Deem and Ramdas Pophale) SiO2 
 PCOD9273574
Probable space group: C 2/C
;
_chemical_formula_sum "Si O2"
_cell_formula_units_Z 32
_cell_length_a 20.702469
_cell_length_b 11.729097
_cell_length_c 13.780005
_cell_angle_alpha 90.000000
_cell_angle_beta 157.532768
_cell_angle_gamma 90.000000
_cell_volume 1278.720524
_symmetry_space_group_name_H-M "C 2/C"
_symmetry_group_IT_number 15
_symmetry_cell_setting 'monoclinic'
loop_
_space_group_symop_operation_xyz
x,y,z
-x,y,1/2-z
-x,-y,-z
x,-y,1/2+z
1/2+x,1/2+y,z
1/2-x,1/2+y,1/2-z
1/2-x,1/2-y,-z
1/2+x,1/2-y,1/2+z
loop_
_atom_site_type_symbol
_atom_site_label
_atom_site_fract_x
_atom_site_fract_y
_atom_site_fract_z
Si Si1 0.681548 0.899066 0.476033
Si Si2 0.027681 0.002460 0.403051
Si Si3 0.050381 0.742390 0.215402
Si Si4 0.698906 0.162386 0.775227
O O1 0.670486 0.879736 0.344892
O O2 0.704067 0.782174 0.569093
O O3 0.500000 0.949523 0.250000
O O4 0.862518 0.962338 0.735143
O O5 0.000000 0.029838 0.250000
O O6 0.036664 0.866708 0.416982
O O7 0.190926 0.081597 0.642850
O O8 0.250000 0.750000 0.500000
O O9 0.000000 0.696340 0.250000
O O10 0.980081 0.675408 0.026276
#
# Coordination Sequence:
#
# PCOD9273574 Si02
#       4
#     8   8   8   8
#     4  10  20  37  74 102 129 171 235 286 327 390
#     4   9  21  45  68 100 133 177 228 280 340 399
#     4  11  27  47  67  99 146 182 218 278 350 411
#     4  10  21  42  71  96 136 177 228 282 333 398
#
# _framework density 25.025013000000001
#
# number of rings (size 3 to 8) (size 9 to 14) (size 15 to 20)
#    0.000    2.000    0.000    3.750    7.000    2.000 
#    4.500    3.750    0.000    0.000    0.000    0.000 
#    0.000    0.000    0.000    0.000    0.000    0.000 
#
# Total GULP energy -89449.734508 kJ/mol
# GULP energy per Si atom -5590.608407 kJ/mol
# Density = 2.496805 g / cm^3
# Si number density = 25.025013 Si / 1000 Ang^3
#
#
#
# Elastic Constant Matrix: (Units=GPa)
#
#
# Indices 1 2 3 4 5 6 
#
# 1 105.9719 30.8996 64.7042 0.0000 6.2275 0.0000
# 2 30.8996 95.2822 27.4688 0.0000 6.1371 0.0000
# 3 64.7042 27.4688 178.0890 0.0000 -1.8898 0.0000
# 4 0.0000 0.0000 0.0000 20.9623 0.0000 5.0499
# 5 6.2275 6.1371 -1.8898 0.0000 53.2239 0.0000
# 6 0.0000 0.0000 0.0000 5.0499 0.0000 17.7333
#
#
#
# Elastic Compliance Matrix: (Units=1/GPa)
#
#
# Indices 1 2 3 4 5 6 
#
# 1 0.012971 -0.002886 -0.004282 0.000000 -0.001337 0.000000
# 2 -0.002886 0.011720 -0.000770 0.000000 -0.001041 0.000000
# 3 -0.004282 -0.000770 0.007299 0.000000 0.000849 0.000000
# 4 0.000000 0.000000 0.000000 0.051219 0.000000 -0.014586
# 5 -0.001337 -0.001041 0.000849 0.000000 0.019095 0.000000
# 6 0.000000 0.000000 0.000000 -0.014586 0.000000 0.060545
#
#
# Mechanical properties :
#
#
# Convention : Reuss Voigt Hill
#
# Bulk Modulus (GPa) = 62.05828 69.49868 65.77848
# Shear Modulus (GPa) = 27.15989 35.46858 31.31423
#
# Velocity S-wave (km/s) = 3.29798 3.76882 3.54123
# Velocity P-wave (km/s) = 6.27332 6.83891 6.56221
#
# Compressibility (1/GPa) = 0.01611389
#
# Stress axis : x y z
#
# Youngs Moduli (GPa) = 77.09614 85.32315 137.01206
#
# Poissons Ratio (x) = 0.24624 0.58664
# Poissons Ratio (y) = 0.22249 0.10553
# Poissons Ratio (z) = 0.33010 0.06572
#
# Static dielectric constant tensor:
#      x y z
#    x 1.938630 0.000000 -0.042550 
#    y 0.000000 2.038090 0.000000 
#    z -0.042550 0.000000 2.039000 
# 
# From -- ./inp_files/168668.got.cif
#   From: 2010.05.17/outbox.cif.g08.bks.cpg/sg15_85_cif.got.tgz:168668.got - 2010.06.03 18:47:42.
