data_PCOD9273340
_publ_section_title
;
Structure prediction by ZEFSAII (Michael W. Deem and Ramdas Pophale) SiO2 
 PCOD9273340
Probable space group: C 2/C
;
_chemical_formula_sum "Si O2"
_cell_formula_units_Z 56
_cell_length_a 9.267475
_cell_length_b 17.132954
_cell_length_c 14.674965
_cell_angle_alpha 90.000000
_cell_angle_beta 77.995497
_cell_angle_gamma 90.000000
_cell_volume 2279.123629
_symmetry_space_group_name_H-M "C 2/C"
_symmetry_group_IT_number 15
_symmetry_cell_setting 'monoclinic'
loop_
_space_group_symop_operation_xyz
x,y,z
-x,y,1/2-z
-x,-y,-z
x,-y,1/2+z
1/2+x,1/2+y,z
1/2-x,1/2+y,1/2-z
1/2-x,1/2-y,-z
1/2+x,1/2-y,1/2+z
loop_
_atom_site_type_symbol
_atom_site_label
_atom_site_fract_x
_atom_site_fract_y
_atom_site_fract_z
Si Si1 0.717897 0.928090 0.100008
Si Si2 0.703840 0.239856 0.673451
Si Si3 0.457250 0.227820 0.423416
Si Si4 0.814201 0.312909 0.121378
Si Si5 0.010744 0.563978 0.141530
Si Si6 0.848025 0.052131 0.776196
Si Si7 0.183166 0.093812 0.106853
O O1 0.655991 0.843449 0.138147
O O2 0.795536 0.961279 0.180269
O O3 0.597636 0.992001 0.087594
O O4 0.823875 0.914917 0.000396
O O5 0.678188 0.233647 0.784747
O O6 0.637997 0.319533 0.642463
O O7 0.879272 0.246610 0.627295
O O8 0.336456 0.290657 0.411510
O O9 0.439918 0.206939 0.532166
O O10 0.410416 0.147491 0.379214
O O11 0.783976 0.401642 0.156600
O O12 0.000000 0.546489 0.250000
O O13 0.853516 0.581785 0.116678
O O14 0.000000 0.100975 0.750000
O O15 0.889421 0.977004 0.829990
#
# Coordination Sequence:
#
# PCOD9273340 Si02
#       7
#     8   8   8   8   8   8   8
#     4  11  23  41  68  96 132 177 221 282 350 398
#     4  10  22  42  62  93 139 174 221 285 341 404
#     4  10  20  37  67  98 126 178 226 279 334 406
#     4  10  20  37  64  94 129 169 226 275 337 401
#     4  11  21  40  69  99 133 171 229 289 335 398
#     4  11  24  43  63  95 132 174 220 278 341 410
#     4  11  23  43  65  94 133 178 226 279 340 411
#
# _framework density 24.570848000000002
#
# number of rings (size 3 to 8) (size 9 to 14) (size 15 to 20)
#    0.000    1.429    1.429    5.571    0.000    1.714 
#    2.571    0.714    0.000    0.000    0.000    0.000 
#    0.000    0.000    0.000    0.000    0.000    0.000 
#
# Total GULP energy -156704.309657 kJ/mol
# GULP energy per Si atom -5596.582488 kJ/mol
# Density = 2.451492 g / cm^3
# Si number density = 24.570848 Si / 1000 Ang^3
#
#
#
# Elastic Constant Matrix: (Units=GPa)
#
#
# Indices 1 2 3 4 5 6 
#
# 1 47.5281 1.4019 -9.6057 0.0000 5.3017 0.0000
# 2 1.4019 103.2669 9.3148 0.0000 2.7546 0.0000
# 3 -9.6057 9.3148 140.7268 0.0000 11.1640 0.0000
# 4 0.0000 0.0000 0.0000 9.8523 0.0000 3.4032
# 5 5.3017 2.7546 11.1640 0.0000 30.2132 0.0000
# 6 0.0000 0.0000 0.0000 3.4032 0.0000 18.7512
#
#
#
# Elastic Compliance Matrix: (Units=1/GPa)
#
#
# Indices 1 2 3 4 5 6 
#
# 1 0.021933 -0.000347 0.001878 0.000000 -0.004511 0.000000
# 2 -0.000347 0.009760 -0.000622 0.000000 -0.000599 0.000000
# 3 0.001878 -0.000622 0.007517 0.000000 -0.003051 0.000000
# 4 0.000000 0.000000 0.000000 0.108288 0.000000 -0.019653
# 5 -0.004511 -0.000599 -0.003051 0.000000 0.035072 0.000000
# 6 0.000000 0.000000 0.000000 -0.019653 0.000000 0.056897
#
#
# Mechanical properties :
#
#
# Convention : Reuss Voigt Hill
#
# Bulk Modulus (GPa) = 24.37312 32.63820 28.50566
# Shear Modulus (GPa) = 19.89452 31.12406 25.50929
#
# Velocity S-wave (km/s) = 2.84857 3.56294 3.22560
# Velocity P-wave (km/s) = 4.55634 5.49893 5.04968
#
# Compressibility (1/GPa) = 0.04102880
#
# Stress axis : x y z
#
# Youngs Moduli (GPa) = 45.59307 102.45421 133.02586
#
# Poissons Ratio (x) = 0.03553 -0.24981
# Poissons Ratio (y) = 0.01581 0.08277
# Poissons Ratio (z) = -0.08562 0.06375
#
# Static dielectric constant tensor:
#      x y z
#    x 2.012800 0.000000 -0.038190 
#    y 0.000000 1.988090 0.000000 
#    z -0.038190 0.000000 1.936080 
# 
# From -- ./inp_files/145995.got.cif
#   From: 2010.05.17/outbox.cif.g08.bks.cpg/sg15_73_cif.got.tgz:145995.got - 2010.06.03 18:47:42.
