data_PCOD9273061
_publ_section_title
;
Structure prediction by ZEFSAII (Michael W. Deem and Ramdas Pophale) SiO2 
 PCOD9273061
Probable space group: C 2/C
;
_chemical_formula_sum "Si O2"
_cell_formula_units_Z 60
_cell_length_a 19.996065
_cell_length_b 19.970070
_cell_length_c 7.663380
_cell_angle_alpha 90.000000
_cell_angle_beta 74.225598
_cell_angle_gamma 90.000000
_cell_volume 2944.915380
_symmetry_space_group_name_H-M "C 2/C"
_symmetry_group_IT_number 15
_symmetry_cell_setting 'monoclinic'
loop_
_space_group_symop_operation_xyz
x,y,z
-x,y,1/2-z
-x,-y,-z
x,-y,1/2+z
1/2+x,1/2+y,z
1/2-x,1/2+y,1/2-z
1/2-x,1/2-y,-z
1/2+x,1/2-y,1/2+z
loop_
_atom_site_type_symbol
_atom_site_label
_atom_site_fract_x
_atom_site_fract_y
_atom_site_fract_z
Si Si1 0.643113 0.855703 0.058456
Si Si2 0.299335 0.161440 0.598126
Si Si3 0.670316 0.292304 0.392481
Si Si4 0.000000 0.671174 0.750000
Si Si5 0.298103 0.554667 0.011651
Si Si6 0.577535 0.631065 0.704103
Si Si7 0.439865 0.233145 0.440663
Si Si8 0.277050 0.410471 0.902300
O O1 0.670045 0.862261 0.237857
O O2 0.562133 0.870470 0.119446
O O3 0.654175 0.779619 0.984265
O O4 0.695744 0.900998 0.914458
O O5 0.233767 0.208522 0.705085
O O6 0.264029 0.100464 0.520424
O O7 0.366235 0.195286 0.459314
O O8 0.602180 0.324745 0.352820
O O9 0.696002 0.343988 0.522077
O O10 0.967109 0.713098 0.613216
O O11 0.365444 0.574371 0.853128
O O12 0.283762 0.476242 0.014552
O O13 0.314481 0.576643 0.195393
O O14 0.500000 0.604054 0.750000
O O15 0.578285 0.688357 0.554712
O O16 0.500000 0.220719 0.250000
#
# Coordination Sequence:
#
# PCOD9273061 Si02
#       8
#     8   8   8   4   8   8   8   8
#     4  10  20  37  62  90 123 154 198 253 306 359
#     4   9  20  35  58  86 124 151 205 247 297 353
#     4  10  21  38  61  92 121 153 204 252 301 361
#     4  10  22  36  60  90 134 156 198 244 318 364
#     4  11  24  39  62  84 118 159 209 249 298 361
#     4  10  22  39  59  88 127 156 199 247 305 361
#     4  10  21  36  58  92 133 162 197 247 309 361
#     4  11  23  40  62  85 116 158 206 254 299 352
#
# _framework density 20.374099000000001
#
# number of rings (size 3 to 8) (size 9 to 14) (size 15 to 20)
#    0.000    1.867    0.000    5.600    9.333    1.067 
#    0.000    2.667    1.467    2.400    0.000    0.000 
#    0.000    0.000    0.000    0.000    0.000    0.000 
#
# Total GULP energy -167361.486361 kJ/mol
# GULP energy per Si atom -5578.716212 kJ/mol
# Density = 2.032773 g / cm^3
# Si number density = 20.374099 Si / 1000 Ang^3
#
#
#
# Elastic Constant Matrix: (Units=GPa)
#
#
# Indices 1 2 3 4 5 6 
#
# 1 113.7223 26.3962 15.5862 0.0000 -8.6317 0.0000
# 2 26.3962 47.9938 19.3168 0.0000 -19.9952 0.0000
# 3 15.5862 19.3168 63.8688 0.0000 0.8160 0.0000
# 4 0.0000 0.0000 0.0000 17.4940 0.0000 -0.7133
# 5 -8.6317 -19.9952 0.8160 0.0000 32.5382 0.0000
# 6 0.0000 0.0000 0.0000 -0.7133 0.0000 10.0731
#
#
#
# Elastic Compliance Matrix: (Units=1/GPa)
#
#
# Indices 1 2 3 4 5 6 
#
# 1 0.010136 -0.005551 -0.000786 0.000000 -0.000703 0.000000
# 2 -0.005551 0.036876 -0.010072 0.000000 0.021441 0.000000
# 3 -0.000786 -0.010072 0.018983 0.000000 -0.006874 0.000000
# 4 0.000000 0.000000 0.000000 0.057328 0.000000 0.004059
# 5 -0.000703 0.021441 -0.006874 0.000000 0.043895 0.000000
# 6 0.000000 0.000000 0.000000 0.004059 0.000000 0.099562
#
#
# Mechanical properties :
#
#
# Convention : Reuss Voigt Hill
#
# Bulk Modulus (GPa) = 30.14173 38.68702 34.41438
# Shear Modulus (GPa) = 16.09496 22.97344 19.53420
#
# Velocity S-wave (km/s) = 2.81369 3.36159 3.09977
# Velocity P-wave (km/s) = 5.03806 5.83923 5.45338
#
# Compressibility (1/GPa) = 0.03317659
#
# Stress axis : x y z
#
# Youngs Moduli (GPa) = 98.65594 27.11810 52.67908
#
# Poissons Ratio (x) = 0.15055 0.04138
# Poissons Ratio (y) = 0.54769 0.53059
# Poissons Ratio (z) = 0.07750 0.27313
#
# Static dielectric constant tensor:
#      x y z
#    x 1.775400 0.000000 -0.024090 
#    y 0.000000 1.696600 0.000000 
#    z -0.024090 0.000000 1.782760 
# 
# From -- ./inp_files/56548.got.cif
#   From: 2010.05.17/outbox.cif.g08.bks.cpg/sg15_29_cif.got.tgz:56548.got - 2010.06.03 18:47:42.
