data_PCOD9273797
_publ_section_title
;
Structure prediction by ZEFSAII (Michael W. Deem and Ramdas Pophale) SiO2 
 PCOD9273797
Probable space group: C 2/C
;
_chemical_formula_sum "Si O2"
_cell_formula_units_Z 60
_cell_length_a 17.476471
_cell_length_b 18.928545
_cell_length_c 10.338785
_cell_angle_alpha 90.000000
_cell_angle_beta 65.074810
_cell_angle_gamma 90.000000
_cell_volume 3101.559788
_symmetry_space_group_name_H-M "C 2/C"
_symmetry_group_IT_number 15
_symmetry_cell_setting 'monoclinic'
loop_
_space_group_symop_operation_xyz
x,y,z
-x,y,1/2-z
-x,-y,-z
x,-y,1/2+z
1/2+x,1/2+y,z
1/2-x,1/2+y,1/2-z
1/2-x,1/2-y,-z
1/2+x,1/2-y,1/2+z
loop_
_atom_site_type_symbol
_atom_site_label
_atom_site_fract_x
_atom_site_fract_y
_atom_site_fract_z
Si Si1 0.814055 0.456281 0.349266
Si Si2 0.415713 0.345590 0.714784
Si Si3 0.626096 0.804981 0.232006
Si Si4 0.591486 0.035908 0.443975
Si Si5 0.445192 0.345254 0.079855
Si Si6 0.868027 0.047128 0.439179
Si Si7 0.452226 0.189479 0.998960
Si Si8 0.500000 0.440990 0.250000
O O1 0.813184 0.372492 0.311741
O O2 0.848805 0.497453 0.200962
O O3 0.874226 0.465632 0.432563
O O4 0.722078 0.481626 0.458126
O O5 0.500000 0.333574 0.750000
O O6 0.354309 0.277980 0.762270
O O7 0.459801 0.353032 0.545484
O O8 0.370507 0.415500 0.796855
O O9 0.590027 0.805032 0.112075
O O10 0.551123 0.817661 0.389841
O O11 0.580201 0.118056 0.414984
O O12 0.500000 0.000000 0.500000
O O13 0.439756 0.388912 0.214144
O O14 0.387811 0.387808 0.020315
O O15 0.431907 0.261441 0.089110
O O16 0.944350 0.991800 0.380779
#
# Coordination Sequence:
#
# PCOD9273797 Si02
#       8
#     8   8   8   8   8   8   8   4
#     4  11  25  35  62  93 121 157 200 252 296 356
#     4   9  15  32  58  83 109 149 192 243 294 335
#     4   9  14  32  56  88 109 143 195 248 281 340
#     4  11  22  42  61  90 121 161 196 243 306 357
#     4  10  20  38  59  86 112 157 199 244 294 357
#     4  11  22  38  60  85 119 153 200 251 294 344
#     4   9  16  34  63  81 115 146 202 241 287 364
#     4  12  24  36  60  84 118 168 196 230 304 372
#
# _framework density 19.345103999999999
#
# number of rings (size 3 to 8) (size 9 to 14) (size 15 to 20)
#    0.000    1.867    7.333    0.800    1.867    0.533 
#    2.400    0.000    0.000    0.800    0.000    0.000 
#    0.000    0.000    0.000    0.000    0.000    0.000 
#
# Total GULP energy -167084.753975 kJ/mol
# GULP energy per Si atom -5569.491799 kJ/mol
# Density = 1.930107 g / cm^3
# Si number density = 19.345104 Si / 1000 Ang^3
#
#
#
# Elastic Constant Matrix: (Units=GPa)
#
#
# Indices 1 2 3 4 5 6 
#
# 1 22.4725 13.1346 3.4969 0.0000 -8.7824 0.0000
# 2 13.1346 114.9908 27.1659 0.0000 -3.6123 0.0000
# 3 3.4969 27.1659 40.2121 0.0000 -9.2992 0.0000
# 4 0.0000 0.0000 0.0000 26.9016 0.0000 5.9014
# 5 -8.7824 -3.6123 -9.2992 0.0000 19.5243 0.0000
# 6 0.0000 0.0000 0.0000 5.9014 0.0000 10.9721
#
#
#
# Elastic Compliance Matrix: (Units=1/GPa)
#
#
# Indices 1 2 3 4 5 6 
#
# 1 0.058778 -0.007328 0.006338 0.000000 0.028102 0.000000
# 2 -0.007328 0.011306 -0.008180 0.000000 -0.005101 0.000000
# 3 0.006338 -0.008180 0.033885 0.000000 0.017476 0.000000
# 4 0.000000 0.000000 0.000000 0.042145 0.000000 -0.022668
# 5 0.028102 -0.005101 0.017476 0.000000 0.071239 0.000000
# 6 0.000000 0.000000 0.000000 -0.022668 0.000000 0.103333
#
#
# Mechanical properties :
#
#
# Convention : Reuss Voigt Hill
#
# Bulk Modulus (GPa) = 11.67838 29.47448 20.57643
# Shear Modulus (GPa) = 13.60289 20.40479 17.00384
#
# Velocity S-wave (km/s) = 2.65461 3.25126 2.96797
# Velocity P-wave (km/s) = 3.93013 5.41881 4.73336
#
# Compressibility (1/GPa) = 0.08562828
#
# Stress axis : x y z
#
# Youngs Moduli (GPa) = 17.01304 88.45117 29.51196
#
# Poissons Ratio (x) = 0.64821 -0.18705
# Poissons Ratio (y) = 0.12468 0.24141
# Poissons Ratio (z) = -0.10783 0.72353
#
# Static dielectric constant tensor:
#      x y z
#    x 1.728170 0.000000 0.035880 
#    y 0.000000 1.713620 0.000000 
#    z 0.035880 0.000000 1.736260 
# 
# From -- ./inp_files/106692.got.cif
#   From: 2010.05.17/outbox.cif.g08.bks.cpg/sg15_54_cif.got.tgz:106692.got - 2010.06.03 18:47:42.
