data_PCOD9273236
_publ_section_title
;
Structure prediction by ZEFSAII (Michael W. Deem and Ramdas Pophale) SiO2 
 PCOD9273236
Probable space group: C 2/C
;
_chemical_formula_sum "Si O2"
_cell_formula_units_Z 32
_cell_length_a 17.556874
_cell_length_b 10.604368
_cell_length_c 14.089579
_cell_angle_alpha 90.000000
_cell_angle_beta 29.639731
_cell_angle_gamma 90.000000
_cell_volume 1297.285429
_symmetry_space_group_name_H-M "C 2/C"
_symmetry_group_IT_number 15
_symmetry_cell_setting 'monoclinic'
loop_
_space_group_symop_operation_xyz
x,y,z
-x,y,1/2-z
-x,-y,-z
x,-y,1/2+z
1/2+x,1/2+y,z
1/2-x,1/2+y,1/2-z
1/2-x,1/2-y,-z
1/2+x,1/2-y,1/2+z
loop_
_atom_site_type_symbol
_atom_site_label
_atom_site_fract_x
_atom_site_fract_y
_atom_site_fract_z
Si Si1 0.662166 0.795756 0.743810
Si Si2 0.394939 0.703124 0.143440
Si Si3 0.879340 0.169241 0.446326
Si Si4 0.671359 0.588077 0.600105
O O1 0.794669 0.853332 0.666965
O O2 0.685039 0.646800 0.690487
O O3 0.687772 0.857822 0.614546
O O4 0.503656 0.804360 0.971707
O O5 0.265379 0.762384 0.351703
O O6 0.516223 0.627269 0.076292
O O7 0.000000 0.247523 0.250000
O O8 0.828619 0.056927 0.432201
O O9 0.500000 0.630859 0.750000
#
# Coordination Sequence:
#
# PCOD9273236 Si02
#       4
#     8   8   8   8
#     4  10  20  38  64  93 132 164 212 271 317 371
#     4  10  21  39  65  91 129 168 213 268 310 379
#     4  10  22  40  65  88 126 173 218 253 328 382
#     4  10  20  37  63  94 128 170 212 257 330 380
#
# _framework density 24.666891
#
# number of rings (size 3 to 8) (size 9 to 14) (size 15 to 20)
#    0.000    2.000    2.500    0.750    0.000    2.000 
#    4.500    0.000   27.500    0.000    0.000    0.000 
#    0.000    0.000    0.000    0.000    0.000    0.000 
#
# Total GULP energy -89084.900121 kJ/mol
# GULP energy per Si atom -5567.806258 kJ/mol
# Density = 2.461075 g / cm^3
# Si number density = 24.666891 Si / 1000 Ang^3
#
#
#
# Elastic Constant Matrix: (Units=GPa)
#
#
# Indices 1 2 3 4 5 6 
#
# 1 106.9784 26.3960 22.4639 0.0000 1.0227 0.0000
# 2 26.3960 51.6401 35.0216 0.0000 6.8332 0.0000
# 3 22.4639 35.0216 197.3061 0.0000 32.3108 0.0000
# 4 0.0000 0.0000 0.0000 21.6284 0.0000 -7.0705
# 5 1.0227 6.8332 32.3108 0.0000 42.6645 0.0000
# 6 0.0000 0.0000 0.0000 -7.0705 0.0000 19.2931
#
#
#
# Elastic Compliance Matrix: (Units=1/GPa)
#
#
# Indices 1 2 3 4 5 6 
#
# 1 0.010742 -0.005322 -0.000429 0.000000 0.000920 0.000000
# 2 -0.005322 0.024667 -0.003592 0.000000 -0.001103 0.000000
# 3 -0.000429 -0.003592 0.006460 0.000000 -0.004307 0.000000
# 4 0.000000 0.000000 0.000000 0.052529 0.000000 0.019251
# 5 0.000920 -0.001103 -0.004307 0.000000 0.026855 0.000000
# 6 0.000000 0.000000 0.000000 0.019251 0.000000 0.058887
#
#
# Mechanical properties :
#
#
# Convention : Reuss Voigt Hill
#
# Bulk Modulus (GPa) = 43.13343 58.18749 50.66046
# Shear Modulus (GPa) = 24.20694 34.85341 29.53017
#
# Velocity S-wave (km/s) = 3.13605 3.76302 3.46375
# Velocity P-wave (km/s) = 5.53511 6.52081 6.04807
#
# Compressibility (1/GPa) = 0.02318388
#
# Stress axis : x y z
#
# Youngs Moduli (GPa) = 93.09223 40.54033 154.80055
#
# Poissons Ratio (x) = 0.21574 0.06642
# Poissons Ratio (y) = 0.49539 0.55602
# Poissons Ratio (z) = 0.03994 0.14561
#
# Static dielectric constant tensor:
#      x y z
#    x 2.016980 0.000000 -0.001070 
#    y 0.000000 2.116280 0.000000 
#    z -0.001070 0.000000 1.977410 
# 
# From -- ./inp_files/37246.got.cif
#   From: 2010.05.17/outbox.cif.g08.bks.cpg/sg15_19_cif.got.tgz:37246.got - 2010.06.03 18:47:42.
