data_PCOD9273967
_publ_section_title
;
Structure prediction by ZEFSAII (Michael W. Deem and Ramdas Pophale) SiO2 
 PCOD9273967
Probable space group: C 2/C
;
_chemical_formula_sum "Si O2"
_cell_formula_units_Z 36
_cell_length_a 10.065395
_cell_length_b 14.085394
_cell_length_c 23.385062
_cell_angle_alpha 90.000000
_cell_angle_beta 147.019123
_cell_angle_gamma 90.000000
_cell_volume 1804.778165
_symmetry_space_group_name_H-M "C 2/C"
_symmetry_group_IT_number 15
_symmetry_cell_setting 'monoclinic'
loop_
_space_group_symop_operation_xyz
x,y,z
-x,y,1/2-z
-x,-y,-z
x,-y,1/2+z
1/2+x,1/2+y,z
1/2-x,1/2+y,1/2-z
1/2-x,1/2-y,-z
1/2+x,1/2-y,1/2+z
loop_
_atom_site_type_symbol
_atom_site_label
_atom_site_fract_x
_atom_site_fract_y
_atom_site_fract_z
Si Si1 0.020505 0.963134 0.380659
Si Si2 0.240179 0.333360 0.365469
Si Si3 0.204420 0.362560 0.480431
Si Si4 0.500000 0.475235 0.750000
Si Si5 0.519834 0.863549 0.533581
O O1 0.278533 0.906643 0.474127
O O2 0.842504 0.911556 0.359667
O O3 0.071047 0.070496 0.419939
O O4 0.938147 0.966633 0.285078
O O5 0.164475 0.378173 0.399017
O O6 0.436622 0.248903 0.443681
O O7 0.000000 0.289998 0.250000
O O8 0.250000 0.250000 0.500000
O O9 0.014208 0.383407 0.462940
O O10 0.261820 0.413803 0.646290
#
# Coordination Sequence:
#
# PCOD9273967 Si02
#       5
#     8   8   8   4   8
#     4  11  23  37  65  89 121 155 204 247 287 362
#     4  11  23  38  61  90 123 158 195 248 304 351
#     4   9  20  39  60  85 117 156 188 243 304 342
#     4  10  20  38  60  92 112 162 204 234 296 352
#     4  10  21  41  63  84 124 156 202 244 291 359
#
# _framework density 19.947050000000001
#
# number of rings (size 3 to 8) (size 9 to 14) (size 15 to 20)
#    0.000    1.778    1.111    4.000    6.222    0.000 
#    0.000    0.000    0.000    0.000    0.000    0.000 
#    0.000    0.000    0.000    0.000    0.000    0.000 
#
# Total GULP energy -100372.946184 kJ/mol
# GULP energy per Si atom -5576.274788 kJ/mol
# Density = 1.990165 g / cm^3
# Si number density = 19.947050 Si / 1000 Ang^3
#
#
#
# Elastic Constant Matrix: (Units=GPa)
#
#
# Indices 1 2 3 4 5 6 
#
# 1 120.5077 32.8339 50.9505 0.0000 -27.4697 0.0000
# 2 32.8339 94.3893 21.0975 -0.0001 -6.6636 -0.0001
# 3 50.9505 21.0975 88.5996 0.0005 -25.6136 -0.0007
# 4 0.0000 -0.0001 0.0005 27.1156 0.0000 -1.2821
# 5 -27.4697 -6.6636 -25.6136 0.0000 37.2433 -0.0002
# 6 0.0000 -0.0001 -0.0007 -1.2821 -0.0002 25.5054
#
#
#
# Elastic Compliance Matrix: (Units=1/GPa)
#
#
# Indices 1 2 3 4 5 6 
#
# 1 0.012333 -0.002824 -0.004913 0.000000 0.005212 0.000000
# 2 -0.002824 0.011838 -0.001479 0.000000 -0.000982 0.000000
# 3 -0.004913 -0.001479 0.016651 0.000000 0.007563 0.000000
# 4 0.000000 0.000000 0.000000 0.036967 0.000000 0.001858
# 5 0.005212 -0.000982 0.007563 0.000000 0.035721 0.000000
# 6 0.000000 0.000000 0.000000 0.001858 0.000000 0.039301
#
#
# Mechanical properties :
#
#
# Convention : Reuss Voigt Hill
#
# Bulk Modulus (GPa) = 44.66254 57.02893 50.84574
# Shear Modulus (GPa) = 27.97912 31.21384 29.59648
#
# Velocity S-wave (km/s) = 3.74929 3.96009 3.85613
# Velocity P-wave (km/s) = 6.41732 7.04003 6.73587
#
# Compressibility (1/GPa) = 0.02239013
#
# Stress axis : x y z
#
# Youngs Moduli (GPa) = 81.08306 84.47391 60.05825
#
# Poissons Ratio (x) = 0.23856 0.29506
# Poissons Ratio (y) = 0.22898 0.08881
# Poissons Ratio (z) = 0.39836 0.12491
#
# Static dielectric constant tensor:
#      x y z
#    x 1.699240 0.000000 -0.023440 
#    y 0.000000 1.717220 0.000000 
#    z -0.023440 0.000000 1.705920 
# 
# From -- ./inp_files/132603.got.cif
#   From: 2010.05.17/outbox.cif.g08.bks.cpg/sg15_67_cif.got.tgz:132603.got - 2010.06.03 18:47:42.
