data_PCOD9273886
_publ_section_title
;
Structure prediction by ZEFSAII (Michael W. Deem and Ramdas Pophale) SiO2 
 PCOD9273886
Probable space group: C 2/C
;
_chemical_formula_sum "Si O2"
_cell_formula_units_Z 64
_cell_length_a 7.338061
_cell_length_b 33.275208
_cell_length_c 15.400940
_cell_angle_alpha 90.000000
_cell_angle_beta 130.377014
_cell_angle_gamma 90.000000
_cell_volume 2864.766977
_symmetry_space_group_name_H-M "C 2/C"
_symmetry_group_IT_number 15
_symmetry_cell_setting 'monoclinic'
loop_
_space_group_symop_operation_xyz
x,y,z
-x,y,1/2-z
-x,-y,-z
x,-y,1/2+z
1/2+x,1/2+y,z
1/2-x,1/2+y,1/2-z
1/2-x,1/2-y,-z
1/2+x,1/2-y,1/2+z
loop_
_atom_site_type_symbol
_atom_site_label
_atom_site_fract_x
_atom_site_fract_y
_atom_site_fract_z
Si Si1 0.499999 0.416599 0.500000
Si Si2 0.244914 0.455621 0.269354
Si Si3 0.500000 0.265365 0.000000
Si Si4 0.513337 0.883244 0.606724
Si Si5 0.505583 0.204601 0.853549
Si Si6 0.986661 0.383244 0.393275
Si Si7 0.755087 0.455621 0.730646
Si Si8 0.505583 0.795399 0.853548
O O1 0.453230 0.443813 0.400687
O O2 0.746860 0.392236 0.562445
O O3 0.253137 0.392236 0.437555
O O4 0.546770 0.443813 0.599314
O O5 0.279374 0.500000 0.241855
O O6 0.000000 0.457472 0.250000
O O7 0.191036 0.419085 0.188312
O O8 0.713944 0.293237 0.034231
O O9 0.590436 0.236775 0.106498
O O10 0.409565 0.236775 0.893503
O O11 0.286055 0.293237 0.965769
O O12 0.499997 0.881018 0.499999
O O13 0.691033 0.919085 0.688311
O O14 0.596359 0.839830 0.666150
O O15 0.500000 0.213839 0.750000
O O16 0.403641 0.160170 0.833850
O O17 0.000000 0.457473 0.750000
O O18 0.500000 0.786160 0.750000
#
# Coordination Sequence:
#
# PCOD9273886 Si02
#       8
#     8   8   8   8   8   8   8   8
#     4  10  20  38  60  85 118 162 204 251 304 356
#     4   9  19  37  61  88 119 160 204 250 304 358
#     4  10  23  38  62  91 114 156 202 241 308 366
#     4  11  23  39  60  90 124 160 204 251 301 364
#     4  11  21  40  61  87 123 155 197 251 301 358
#     4  11  23  39  60  90 124 160 204 251 301 364
#     4   9  19  37  61  88 119 160 204 250 304 358
#     4  11  21  40  61  87 123 155 197 251 301 358
#
# _framework density 22.340385999999999
#
# number of rings (size 3 to 8) (size 9 to 14) (size 15 to 20)
#    0.000    1.750    1.250    4.125    0.000    2.500 
#    0.000    1.250    0.000    0.000    0.000    0.000 
#    0.000    0.000    0.000    0.000    0.000    0.000 
#
# Total GULP energy -178623.849547 kJ/mol
# GULP energy per Si atom -5581.995298 kJ/mol
# Density = 2.228954 g / cm^3
# Si number density = 22.340386 Si / 1000 Ang^3
#
#
#
# Elastic Constant Matrix: (Units=GPa)
#
#
# Indices 1 2 3 4 5 6 
#
# 1 47.9402 13.9873 7.8304 0.0000 -18.9354 0.0000
# 2 13.9873 129.8678 42.1110 0.0000 -9.5743 0.0000
# 3 7.8304 42.1110 90.3855 0.0000 -25.5131 0.0000
# 4 0.0000 0.0000 0.0000 31.6809 0.0000 -9.9975
# 5 -18.9354 -9.5743 -25.5131 0.0000 41.6207 0.0000
# 6 0.0000 0.0000 0.0000 -9.9975 0.0000 6.1173
#
#
#
# Elastic Compliance Matrix: (Units=1/GPa)
#
#
# Indices 1 2 3 4 5 6 
#
# 1 0.026357 -0.002744 0.002662 0.000000 0.012992 0.000000
# 2 -0.002744 0.009369 -0.004681 0.000000 -0.001963 0.000000
# 3 0.002662 -0.004681 0.015783 0.000000 0.009809 0.000000
# 4 0.000000 0.000000 0.000000 0.065181 0.000000 0.106525
# 5 0.012992 -0.001963 0.009809 0.000000 0.035499 0.000000
# 6 0.000000 0.000000 0.000000 0.106525 0.000000 0.337565
#
#
# Mechanical properties :
#
#
# Convention : Reuss Voigt Hill
#
# Bulk Modulus (GPa) = 23.81971 44.00566 33.91269
# Shear Modulus (GPa) = 9.74139 29.50144 19.62141
#
# Velocity S-wave (km/s) = 2.09043 3.63787 2.96682
# Velocity P-wave (km/s) = 4.06348 6.11441 5.19124
#
# Compressibility (1/GPa) = 0.04198204
#
# Stress axis : x y z
#
# Youngs Moduli (GPa) = 37.94121 106.73520 63.35936
#
# Poissons Ratio (x) = 0.29290 -0.16869
# Poissons Ratio (y) = 0.10412 0.29661
# Poissons Ratio (z) = -0.10101 0.49967
#
# Static dielectric constant tensor:
#      x y z
#    x 1.837180 0.000000 -0.001310 
#    y 0.000000 1.827470 0.000000 
#    z -0.001310 0.000000 1.809240 
# 
# From -- ./inp_files/194291.got.cif
#   From: 2010.05.17/outbox.cif.g08.bks.cpg/sg15_98_cif.got.tgz:194291.got - 2010.06.03 18:47:42.
