data_PCOD9273294
_publ_section_title
;
Structure prediction by ZEFSAII (Michael W. Deem and Ramdas Pophale) SiO2 
 PCOD9273294
Probable space group: C 2/C
;
_chemical_formula_sum "Si O2"
_cell_formula_units_Z 52
_cell_length_a 20.162827
_cell_length_b 20.426341
_cell_length_c 11.499870
_cell_angle_alpha 90.000000
_cell_angle_beta 153.465372
_cell_angle_gamma 90.000000
_cell_volume 2115.867251
_symmetry_space_group_name_H-M "C 2/C"
_symmetry_group_IT_number 15
_symmetry_cell_setting 'monoclinic'
loop_
_space_group_symop_operation_xyz
x,y,z
-x,y,1/2-z
-x,-y,-z
x,-y,1/2+z
1/2+x,1/2+y,z
1/2-x,1/2+y,1/2-z
1/2-x,1/2-y,-z
1/2+x,1/2-y,1/2+z
loop_
_atom_site_type_symbol
_atom_site_label
_atom_site_fract_x
_atom_site_fract_y
_atom_site_fract_z
Si Si1 0.032788 0.081633 0.540421
Si Si2 0.366743 0.375723 0.974909
Si Si3 0.180954 0.555366 0.381318
Si Si4 0.804447 0.184200 0.821271
Si Si5 0.689627 0.203028 0.007204
Si Si6 0.738072 0.911871 0.429521
Si Si7 0.500000 0.850314 0.750000
O O1 0.083073 0.156740 0.597309
O O2 0.951191 0.067591 0.534752
O O3 0.902852 0.073211 0.242311
O O4 0.196424 0.051532 0.820370
O O5 0.500000 0.340472 0.250000
O O6 0.252241 0.404335 0.886641
O O7 0.300088 0.332971 0.768936
O O8 0.156666 0.481391 0.301375
O O9 0.049826 0.599934 0.225734
O O10 0.872747 0.246248 0.994043
O O11 0.642872 0.191973 0.510541
O O12 0.777751 0.126303 0.873718
O O13 0.640830 0.139150 0.856059
O O14 0.750000 0.250000 0.000000
#
# Coordination Sequence:
#
# PCOD9273294 Si02
#       7
#     8   8   8   8   8   8   4
#     4   9  19  36  61  95 122 158 204 275 326 364
#     4   9  19  36  60  95 120 157 214 265 319 375
#     4  10  21  39  63  94 128 164 211 265 327 389
#     4  10  21  38  60  88 125 172 212 258 319 386
#     4   9  20  39  60  86 126 169 212 260 319 377
#     4  10  20  37  64  89 127 163 214 275 320 379
#     4  10  24  42  60  90 130 172 216 254 320 396
#
# _framework density 24.57621
#
# number of rings (size 3 to 8) (size 9 to 14) (size 15 to 20)
#    0.000    2.462    0.000    0.923    1.077    9.231 
#    5.538    2.308   16.923    0.000    0.000    0.000 
#    0.000    0.000    0.000    0.000    0.000    0.000 
#
# Total GULP energy -144750.169468 kJ/mol
# GULP energy per Si atom -5567.314210 kJ/mol
# Density = 2.452027 g / cm^3
# Si number density = 24.576210 Si / 1000 Ang^3
#
#
#
# Elastic Constant Matrix: (Units=GPa)
#
#
# Indices 1 2 3 4 5 6 
#
# 1 108.8713 28.4317 4.4159 0.0000 1.7685 0.0000
# 2 28.4317 109.8152 14.3584 0.0000 7.6866 0.0000
# 3 4.4159 14.3584 92.3878 0.0000 -5.2408 0.0000
# 4 0.0000 0.0000 0.0000 10.8389 0.0000 -16.5301
# 5 1.7685 7.6866 -5.2408 0.0000 36.8904 0.0000
# 6 0.0000 0.0000 0.0000 -16.5301 0.0000 0.0755
#
#
#
# Elastic Compliance Matrix: (Units=1/GPa)
#
#
# Indices 1 2 3 4 5 6 
#
# 1 0.009852 -0.002545 -0.000073 0.000000 0.000048 0.000000
# 2 -0.002545 0.010126 -0.001578 0.000000 -0.002212 0.000000
# 3 -0.000073 -0.001578 0.011182 0.000000 0.001921 0.000000
# 4 0.000000 0.000000 0.000000 -0.000277 0.000000 -0.060677
# 5 0.000048 -0.002212 0.001921 0.000000 0.027839 0.000000
# 6 0.000000 0.000000 0.000000 -0.060677 0.000000 -0.039787
#
#
# Mechanical properties :
#
#
# Convention : Reuss Voigt Hill
#
# Bulk Modulus (GPa) = 43.91786 45.05404 44.48595
# Shear Modulus (GPa) = 143.20796 27.15218 85.18007
#
# Velocity S-wave (km/s) = 7.64182 3.32748 5.89362
# Velocity P-wave (km/s) = 9.78632 5.75630 8.02830
#
# Compressibility (1/GPa) = 0.02276978
#
# Stress axis : x y z
#
# Youngs Moduli (GPa) = 101.50401 98.75475 89.43298
#
# Poissons Ratio (x) = 0.25128 0.00651
# Poissons Ratio (y) = 0.25828 0.14109
# Poissons Ratio (z) = 0.00738 0.15580
#
# Static dielectric constant tensor:
#      x y z
#    x 2.046210 0.000000 0.028690 
#    y 0.000000 1.969010 0.000000 
#    z 0.028690 0.000000 2.026970 
# 
# From -- ./inp_files/114371.got.cif
#   From: 2010.05.17/outbox.cif.g08.bks.cpg/sg15_58_cif.got.tgz:114371.got - 2010.06.03 18:47:42.
