data_PCOD9273270
_publ_section_title
;
Structure prediction by ZEFSAII (Michael W. Deem and Ramdas Pophale) SiO2 
 PCOD9273270
Probable space group: C 2/C
;
_chemical_formula_sum "Si O2"
_cell_formula_units_Z 64
_cell_length_a 16.910050
_cell_length_b 17.916966
_cell_length_c 13.828068
_cell_angle_alpha 90.000000
_cell_angle_beta 34.342837
_cell_angle_gamma 90.000000
_cell_volume 2363.526482
_symmetry_space_group_name_H-M "C 2/C"
_symmetry_group_IT_number 15
_symmetry_cell_setting 'monoclinic'
loop_
_space_group_symop_operation_xyz
x,y,z
-x,y,1/2-z
-x,-y,-z
x,-y,1/2+z
1/2+x,1/2+y,z
1/2-x,1/2+y,1/2-z
1/2-x,1/2-y,-z
1/2+x,1/2-y,1/2+z
loop_
_atom_site_type_symbol
_atom_site_label
_atom_site_fract_x
_atom_site_fract_y
_atom_site_fract_z
Si Si1 0.124250 0.470468 0.725576
Si Si2 0.556460 0.134654 0.835159
Si Si3 0.141068 0.691516 0.233670
Si Si4 0.748418 0.507944 0.599192
Si Si5 0.632632 0.655719 0.663698
Si Si6 0.246378 0.357858 0.967659
Si Si7 0.364990 0.715668 0.170340
Si Si8 0.125646 0.053633 0.400129
O O1 0.069684 0.544992 0.833382
O O2 0.065343 0.388855 0.815193
O O3 0.130565 0.481374 0.602486
O O4 0.290423 0.459775 0.586429
O O5 0.406853 0.143242 0.931737
O O6 0.695498 0.149680 0.628332
O O7 0.566852 0.202299 0.902084
O O8 0.071400 0.768653 0.272390
O O9 0.227024 0.713479 0.242584
O O10 0.251276 0.676828 0.033450
O O11 0.694326 0.591390 0.668986
O O12 0.673952 0.437156 0.622044
O O13 0.752226 0.468494 0.698771
O O14 0.500000 0.617173 0.750000
O O15 0.337248 0.301595 0.812152
O O16 0.427463 0.637445 0.067156
O O17 0.000000 0.000000 0.500000
#
# Coordination Sequence:
#
# PCOD9273270 Si02
#       8
#     8   8   8   8   8   8   8   8
#     4   9  20  39  57  85 118 151 198 246 294 363
#     4  10  20  37  64  85 114 163 201 238 304 360
#     4   9  21  40  52  85 122 145 190 254 291 350
#     4   9  20  37  59  81 119 151 191 246 294 350
#     4  10  21  37  62  83 112 155 199 236 300 358
#     4   9  20  40  57  87 121 153 196 250 298 357
#     4  10  21  37  58  86 123 150 199 256 295 351
#     4  10  22  36  57  86 121 155 198 244 303 356
#
# _framework density 27.078181000000001
#
# number of rings (size 3 to 8) (size 9 to 14) (size 15 to 20)
#    0.000    2.500    0.000    0.375    7.000    2.000 
#    9.000    8.125    0.000    0.000    0.000    0.000 
#    0.000    0.000    0.000    0.000    0.000    0.000 
#
# Total GULP energy -178283.208994 kJ/mol
# GULP energy per Si atom -5571.350281 kJ/mol
# Density = 2.701655 g / cm^3
# Si number density = 27.078181 Si / 1000 Ang^3
#
#
#
# Elastic Constant Matrix: (Units=GPa)
#
#
# Indices 1 2 3 4 5 6 
#
# 1 26.6338 46.4401 11.6890 0.0000 12.2807 0.0000
# 2 46.4401 251.8976 50.8137 -0.0003 4.3054 0.0002
# 3 11.6890 50.8137 80.4013 -0.0002 9.7165 0.0003
# 4 0.0000 -0.0003 -0.0002 37.9377 0.0000 15.7297
# 5 12.2807 4.3054 9.7165 0.0000 23.0701 -0.0001
# 6 0.0000 0.0002 0.0003 15.7297 -0.0001 27.1753
#
#
#
# Elastic Compliance Matrix: (Units=1/GPa)
#
#
# Indices 1 2 3 4 5 6 
#
# 1 0.081511 -0.014832 0.002563 0.000000 -0.041702 0.000000
# 2 -0.014832 0.007252 -0.003390 0.000000 0.007970 0.000000
# 3 0.002563 -0.003390 0.015063 0.000000 -0.007076 0.000000
# 4 0.000000 0.000000 0.000000 0.034683 0.000000 -0.020075
# 5 -0.041702 0.007970 -0.007076 0.000000 0.067037 0.000000
# 6 0.000000 0.000000 0.000000 -0.020075 0.000000 0.048418
#
#
# Mechanical properties :
#
#
# Convention : Reuss Voigt Hill
#
# Bulk Modulus (GPa) = 13.79158 64.09092 38.94125
# Shear Modulus (GPa) = 16.15766 34.30262 25.23014
#
# Velocity S-wave (km/s) = 2.44540 3.56307 3.05577
# Velocity P-wave (km/s) = 3.61630 6.37554 5.18291
#
# Compressibility (1/GPa) = 0.07250803
#
# Stress axis : x y z
#
# Youngs Moduli (GPa) = 12.26823 137.89479 66.38958
#
# Poissons Ratio (x) = 2.04522 -0.17015
# Poissons Ratio (y) = 0.18196 0.22506
# Poissons Ratio (z) = -0.03144 0.46747
#
# Static dielectric constant tensor:
#      x y z
#    x 2.158950 0.000000 0.072370 
#    y 0.000000 2.161910 0.000000 
#    z 0.072370 0.000000 2.231950 
# 
# From -- ./inp_files/163238.got.cif
#   From: 2010.05.17/outbox.cif.g08.bks.cpg/sg15_82_cif.got.tgz:163238.got - 2010.06.03 18:47:42.
