data_PCOD9273133
_publ_section_title
;
Structure prediction by ZEFSAII (Michael W. Deem and Ramdas Pophale) SiO2 
 PCOD9273133
Probable space group: C 2/C
;
_chemical_formula_sum "Si O2"
_cell_formula_units_Z 56
_cell_length_a 21.247517
_cell_length_b 15.560329
_cell_length_c 7.784327
_cell_angle_alpha 90.000000
_cell_angle_beta 73.130503
_cell_angle_gamma 90.000000
_cell_volume 2462.892996
_symmetry_space_group_name_H-M "C 2/C"
_symmetry_group_IT_number 15
_symmetry_cell_setting 'monoclinic'
loop_
_space_group_symop_operation_xyz
x,y,z
-x,y,1/2-z
-x,-y,-z
x,-y,1/2+z
1/2+x,1/2+y,z
1/2-x,1/2+y,1/2-z
1/2-x,1/2-y,-z
1/2+x,1/2-y,1/2+z
loop_
_atom_site_type_symbol
_atom_site_label
_atom_site_fract_x
_atom_site_fract_y
_atom_site_fract_z
Si Si1 0.500000 0.549443 0.250000
Si Si2 0.867513 0.048146 0.842671
Si Si3 0.380919 0.892124 0.875425
Si Si4 0.500000 0.219234 0.250000
Si Si5 0.326046 0.046091 0.770921
Si Si6 0.680994 0.185013 0.419613
Si Si7 0.587018 0.673151 0.948009
Si Si8 0.291140 0.588997 0.226138
O O1 0.558830 0.484547 0.246970
O O2 0.461982 0.612843 0.407920
O O3 0.859566 0.117041 0.699303
O O4 0.823992 0.963445 0.853794
O O5 0.847124 0.092249 0.036147
O O6 0.446679 0.843738 0.878290
O O7 0.350360 0.837094 0.743060
O O8 0.387118 0.985279 0.779452
O O9 0.337199 0.908676 0.079203
O O10 0.460657 0.277347 0.146639
O O11 0.266326 0.977007 0.795660
O O12 0.319314 0.112659 0.931829
O O13 0.633296 0.261427 0.516237
O O14 0.758197 0.179181 0.305568
#
# Coordination Sequence:
#
# PCOD9273133 Si02
#       8
#     4   8   8   4   8   8   8   8
#     4  12  27  46  69 100 132 184 238 276 343 424
#     4  12  24  44  71  97 128 178 232 282 336 417
#     4  10  20  37  62  95 134 186 227 275 337 403
#     4  10  25  42  59  96 136 182 230 284 341 402
#     4  11  19  39  67  96 138 175 223 286 331 421
#     4  10  22  43  65 103 139 173 226 288 349 407
#     4  11  26  45  65  97 139 177 225 291 348 405
#     4  11  21  41  71  98 128 174 224 278 345 405
#
# _framework density 22.737487999999999
#
# number of rings (size 3 to 8) (size 9 to 14) (size 15 to 20)
#    0.000    1.143    5.714    1.714    4.000    1.143 
#    0.000    2.857    0.000    0.000    0.000    0.000 
#    0.000    0.000    0.000    0.000    0.000    0.000 
#
# Total GULP energy -156041.298198 kJ/mol
# GULP energy per Si atom -5572.903507 kJ/mol
# Density = 2.268574 g / cm^3
# Si number density = 22.737488 Si / 1000 Ang^3
#
#
#
# Elastic Constant Matrix: (Units=GPa)
#
#
# Indices 1 2 3 4 5 6 
#
# 1 82.1995 30.3255 6.9444 0.0000 0.0416 0.0000
# 2 30.3255 24.8276 -1.1738 0.0000 -5.9408 0.0000
# 3 6.9444 -1.1738 103.2168 0.0000 -1.3836 0.0000
# 4 0.0000 0.0000 0.0000 21.8657 0.0000 6.0484
# 5 0.0416 -5.9408 -1.3836 0.0000 31.0055 0.0000
# 6 0.0000 0.0000 0.0000 6.0484 0.0000 40.9637
#
#
#
# Elastic Compliance Matrix: (Units=1/GPa)
#
#
# Indices 1 2 3 4 5 6 
#
# 1 0.023469 -0.030173 -0.002001 0.000000 -0.005902 0.000000
# 2 -0.030173 0.081041 0.003162 0.000000 0.015709 0.000000
# 3 -0.002001 0.003162 0.009873 0.000000 0.001049 0.000000
# 4 0.000000 0.000000 0.000000 0.047681 0.000000 -0.007040
# 5 -0.005902 0.015709 0.001049 0.000000 0.035317 0.000000
# 6 0.000000 0.000000 0.000000 -0.007040 0.000000 0.025451
#
#
# Mechanical properties :
#
#
# Convention : Reuss Voigt Hill
#
# Bulk Modulus (GPa) = 17.74340 31.38178 24.56259
# Shear Modulus (GPa) = 16.68647 30.37683 23.53165
#
# Velocity S-wave (km/s) = 2.71195 3.65907 3.22052
# Velocity P-wave (km/s) = 4.19842 5.62881 4.96539
#
# Compressibility (1/GPa) = 0.05635900
#
# Stress axis : x y z
#
# Youngs Moduli (GPa) = 42.60895 12.33940 101.28615
#
# Poissons Ratio (x) = 0.37232 0.20270
# Poissons Ratio (y) = 1.28565 -0.32029
# Poissons Ratio (z) = 0.08527 -0.03902
#
# Static dielectric constant tensor:
#      x y z
#    x 1.900750 0.000000 0.010770 
#    y 0.000000 1.897770 0.000000 
#    z 0.010770 0.000000 1.865730 
# 
# From -- ./inp_files/61860.got.cif
#   From: 2010.05.17/outbox.cif.g08.bks.cpg/sg15_31_cif.got.tgz:61860.got - 2010.06.03 18:47:42.
