data_PCOD9273068
_publ_section_title
;
Structure prediction by ZEFSAII (Michael W. Deem and Ramdas Pophale) SiO2 
 PCOD9273068
Probable space group: C 2/C
;
_chemical_formula_sum "Si O2"
_cell_formula_units_Z 60
_cell_length_a 22.508481
_cell_length_b 8.434547
_cell_length_c 26.278392
_cell_angle_alpha 90.000000
_cell_angle_beta 142.788991
_cell_angle_gamma 90.000000
_cell_volume 3017.061472
_symmetry_space_group_name_H-M "C 2/C"
_symmetry_group_IT_number 15
_symmetry_cell_setting 'monoclinic'
loop_
_space_group_symop_operation_xyz
x,y,z
-x,y,1/2-z
-x,-y,-z
x,-y,1/2+z
1/2+x,1/2+y,z
1/2-x,1/2+y,1/2-z
1/2-x,1/2-y,-z
1/2+x,1/2-y,1/2+z
loop_
_atom_site_type_symbol
_atom_site_label
_atom_site_fract_x
_atom_site_fract_y
_atom_site_fract_z
Si Si1 0.664010 0.299214 0.097498
Si Si2 0.000000 0.332512 0.250000
Si Si3 0.939863 0.987001 0.552687
Si Si4 0.875346 0.507993 0.998497
Si Si5 0.928546 0.711556 0.361415
Si Si6 0.866870 0.273048 0.077227
Si Si7 0.855266 0.475797 0.713389
Si Si8 0.254440 0.291521 0.943607
O O1 0.643205 0.241620 0.140194
O O2 0.764633 0.401117 0.160952
O O3 0.654061 0.141686 0.056033
O O4 0.578177 0.412949 0.015593
O O5 0.908984 0.246815 0.161974
O O6 0.951665 0.428978 0.262992
O O7 0.932273 0.842292 0.586617
O O8 0.841842 0.083560 0.498361
O O9 0.025860 0.113795 0.618190
O O10 0.790366 0.637607 0.937723
O O11 0.877108 0.443487 0.057449
O O12 0.979611 0.596175 0.059804
O O13 0.876437 0.631326 0.277310
O O14 0.750000 0.250000 0.000000
O O15 0.832775 0.370870 0.647587
O O16 0.250000 0.250000 0.000000
#
# Coordination Sequence:
#
# PCOD9273068 Si02
#       8
#     8   4   8   8   8   8   8   8
#     4  10  22  43  66  89 127 174 217 261 328 393
#     4  12  22  42  64  90 138 168 218 274 334 392
#     4   9  21  39  61  93 119 166 218 257 321 390
#     4  10  20  39  64  93 118 166 223 257 322 394
#     4  11  22  42  63  96 130 163 217 278 325 383
#     4  11  21  40  64  93 131 171 217 266 324 401
#     4  11  25  41  61  95 131 172 210 275 331 381
#     4  10  20  37  62  90 126 167 209 259 325 391
#
# _framework density 19.886900000000001
#
# number of rings (size 3 to 8) (size 9 to 14) (size 15 to 20)
#    0.000    1.600    1.333    4.800    1.867    1.067 
#    9.600    1.333    0.000    0.000    0.000    0.000 
#    0.000    0.000    0.000    0.000    0.000    0.000 
#
# Total GULP energy -167141.639321 kJ/mol
# GULP energy per Si atom -5571.387977 kJ/mol
# Density = 1.984164 g / cm^3
# Si number density = 19.886900 Si / 1000 Ang^3
#
#
#
# Elastic Constant Matrix: (Units=GPa)
#
#
# Indices 1 2 3 4 5 6 
#
# 1 83.0410 12.0922 36.4409 0.0000 -12.6193 0.0000
# 2 12.0922 70.9939 18.8634 0.0000 2.5168 0.0000
# 3 36.4409 18.8634 105.0567 0.0000 -8.8028 0.0000
# 4 0.0000 0.0000 0.0000 27.9314 0.0000 -8.6825
# 5 -12.6193 2.5168 -8.8028 0.0000 30.8971 0.0000
# 6 0.0000 0.0000 0.0000 -8.6825 0.0000 28.1746
#
#
#
# Elastic Compliance Matrix: (Units=1/GPa)
#
#
# Indices 1 2 3 4 5 6 
#
# 1 0.015000 -0.001532 -0.004512 0.000000 0.004966 0.000000
# 2 -0.001532 0.015071 -0.002387 0.000000 -0.002533 0.000000
# 3 -0.004512 -0.002387 0.011652 0.000000 0.001671 0.000000
# 4 0.000000 0.000000 0.000000 0.039595 0.000000 0.012202
# 5 0.004966 -0.002533 0.001671 0.000000 0.035076 0.000000
# 6 0.000000 0.000000 0.000000 0.012202 0.000000 0.039253
#
#
# Mechanical properties :
#
#
# Convention : Reuss Voigt Hill
#
# Bulk Modulus (GPa) = 40.22312 43.76495 41.99404
# Shear Modulus (GPa) = 27.65548 30.18029 28.91789
#
# Velocity S-wave (km/s) = 3.73317 3.89986 3.81743
# Velocity P-wave (km/s) = 6.23313 6.50640 6.37123
#
# Compressibility (1/GPa) = 0.02486132
#
# Stress axis : x y z
#
# Youngs Moduli (GPa) = 66.66716 66.35400 85.82002
#
# Poissons Ratio (x) = 0.10166 0.38720
# Poissons Ratio (y) = 0.10214 0.20484
# Poissons Ratio (z) = 0.30079 0.15838
#
# Static dielectric constant tensor:
#      x y z
#    x 1.747180 0.000000 -0.035650 
#    y 0.000000 1.803590 0.000000 
#    z -0.035650 0.000000 1.769550 
# 
# From -- ./inp_files/279725.got.cif
#   From: 2010.05.17/outbox.cif.g08.bks.cpg/sg15_140_cif.got.tgz:279725.got - 2010.06.03 18:47:42.
