data_PCOD9273279
_publ_section_title
;
Structure prediction by ZEFSAII (Michael W. Deem and Ramdas Pophale) SiO2 
 PCOD9273279
Probable space group: C 2/C
;
_chemical_formula_sum "Si O2"
_cell_formula_units_Z 64
_cell_length_a 29.730676
_cell_length_b 11.754693
_cell_length_c 14.845217
_cell_angle_alpha 90.000000
_cell_angle_beta 37.540148
_cell_angle_gamma 90.000000
_cell_volume 3161.156949
_symmetry_space_group_name_H-M "C 2/C"
_symmetry_group_IT_number 15
_symmetry_cell_setting 'monoclinic'
loop_
_space_group_symop_operation_xyz
x,y,z
-x,y,1/2-z
-x,-y,-z
x,-y,1/2+z
1/2+x,1/2+y,z
1/2-x,1/2+y,1/2-z
1/2-x,1/2-y,-z
1/2+x,1/2-y,1/2+z
loop_
_atom_site_type_symbol
_atom_site_label
_atom_site_fract_x
_atom_site_fract_y
_atom_site_fract_z
Si Si1 0.326935 0.060799 0.759388
Si Si2 0.147638 0.534101 0.579610
Si Si3 0.627943 0.379403 0.981091
Si Si4 0.054890 0.747681 0.743459
Si Si5 0.699422 0.144851 0.314840
Si Si6 0.042700 0.258385 0.467843
Si Si7 0.067260 0.696009 0.207443
Si Si8 0.667004 0.366687 0.452551
O O1 0.312885 0.056377 0.888325
O O2 0.398611 0.137001 0.625999
O O3 0.253602 0.110797 0.830170
O O4 0.335815 0.934894 0.704971
O O5 0.074651 0.613819 0.702678
O O6 0.189529 0.578008 0.425230
O O7 0.127676 0.402158 0.605667
O O8 0.713567 0.343136 0.839399
O O9 0.582691 0.336603 0.966088
O O10 0.628755 0.515002 0.989153
O O11 0.594639 0.313785 0.120251
O O12 0.030377 0.772666 0.883498
O O13 0.130037 0.815020 0.600969
O O14 0.000000 0.778695 0.750000
O O15 0.661503 0.266624 0.387898
O O16 0.968020 0.290453 0.638380
O O17 0.000000 0.657627 0.250000
#
# Coordination Sequence:
#
# PCOD9273279 Si02
#       8
#     8   8   8   8   8   8   8   8
#     4  10  21  38  63  98 116 159 208 259 312 368
#     4  10  22  36  64  93 124 156 204 260 315 365
#     4  10  21  38  60  88 120 165 209 243 307 366
#     4  10  23  39  60  92 122 164 208 256 306 367
#     4  10  20  37  64  87 125 160 198 259 311 355
#     4  10  21  39  67  87 125 166 208 246 311 370
#     4  10  21  37  59  91 126 163 204 253 301 371
#     4  10  22  39  60  87 128 158 207 259 296 374
#
# _framework density 20.245750999999998
#
# number of rings (size 3 to 8) (size 9 to 14) (size 15 to 20)
#    0.000    2.000    1.250    1.875    3.500    8.000 
#    0.000    6.250    2.750    0.000    0.000    0.000 
#    0.000    0.000    0.000    0.000    0.000    0.000 
#
# Total GULP energy -178657.242669 kJ/mol
# GULP energy per Si atom -5583.038833 kJ/mol
# Density = 2.019967 g / cm^3
# Si number density = 20.245751 Si / 1000 Ang^3
#
#
#
# Elastic Constant Matrix: (Units=GPa)
#
#
# Indices 1 2 3 4 5 6 
#
# 1 63.7247 26.2848 25.7394 0.0000 8.0703 0.0000
# 2 26.2848 109.4342 18.5396 0.0000 -7.4707 0.0000
# 3 25.7394 18.5396 94.3860 0.0000 10.9295 0.0000
# 4 0.0000 0.0000 0.0000 18.7762 0.0000 -3.6179
# 5 8.0703 -7.4707 10.9295 0.0000 16.4984 0.0000
# 6 0.0000 0.0000 0.0000 -3.6179 0.0000 6.4552
#
#
#
# Elastic Compliance Matrix: (Units=1/GPa)
#
#
# Indices 1 2 3 4 5 6 
#
# 1 0.020402 -0.005001 -0.003427 0.000000 -0.009975 0.000000
# 2 -0.005001 0.011254 -0.001863 0.000000 0.008776 0.000000
# 3 -0.003427 -0.001863 0.012779 0.000000 -0.007633 0.000000
# 4 0.000000 0.000000 0.000000 0.059707 0.000000 0.033464
# 5 -0.009975 0.008776 -0.007633 0.000000 0.074522 0.000000
# 6 0.000000 0.000000 0.000000 0.033464 0.000000 0.173669
#
#
# Mechanical properties :
#
#
# Convention : Reuss Voigt Hill
#
# Bulk Modulus (GPa) = 41.92081 45.40806 43.66444
# Shear Modulus (GPa) = 13.12802 21.47803 17.30303
#
# Velocity S-wave (km/s) = 2.54920 3.26063 2.92661
# Velocity P-wave (km/s) = 5.42360 6.05415 5.74753
#
# Compressibility (1/GPa) = 0.02385450
#
# Stress axis : x y z
#
# Youngs Moduli (GPa) = 49.01363 88.85885 78.25328
#
# Poissons Ratio (x) = 0.44437 0.26814
# Poissons Ratio (y) = 0.24511 0.14579
# Poissons Ratio (z) = 0.16795 0.16554
#
# Static dielectric constant tensor:
#      x y z
#    x 1.705160 0.000000 -0.005870 
#    y 0.000000 1.719460 0.000000 
#    z -0.005870 0.000000 1.723190 
# 
# From -- ./inp_files/181760.got.cif
#   From: 2010.05.17/outbox.cif.g08.bks.cpg/sg15_91_cif.got.tgz:181760.got - 2010.06.03 18:47:42.
