data_PCOD9273828
_publ_section_title
;
Structure prediction by ZEFSAII (Michael W. Deem and Ramdas Pophale) SiO2 
 PCOD9273828
Probable space group: C 2/C
;
_chemical_formula_sum "Si O2"
_cell_formula_units_Z 44
_cell_length_a 22.723091
_cell_length_b 21.172899
_cell_length_c 14.250702
_cell_angle_alpha 90.000000
_cell_angle_beta 18.347996
_cell_angle_gamma 90.000000
_cell_volume 2158.249767
_symmetry_space_group_name_H-M "C 2/C"
_symmetry_group_IT_number 15
_symmetry_cell_setting 'monoclinic'
loop_
_space_group_symop_operation_xyz
x,y,z
-x,y,1/2-z
-x,-y,-z
x,-y,1/2+z
1/2+x,1/2+y,z
1/2-x,1/2+y,1/2-z
1/2-x,1/2-y,-z
1/2+x,1/2-y,1/2+z
loop_
_atom_site_type_symbol
_atom_site_label
_atom_site_fract_x
_atom_site_fract_y
_atom_site_fract_z
Si Si1 0.000000 0.834663 0.250000
Si Si2 0.297636 0.208783 0.836900
Si Si3 0.694686 0.253774 0.285786
Si Si4 0.235025 0.442116 0.572608
Si Si5 0.277218 0.107034 0.604239
Si Si6 0.292499 0.928942 0.288335
O O1 0.880731 0.787708 0.494287
O O2 0.851492 0.882193 0.430151
O O3 0.522714 0.216972 0.498287
O O4 0.194838 0.232225 0.897538
O O5 0.253024 0.134342 0.907190
O O6 0.250000 0.250000 0.000000
O O7 0.704351 0.321080 0.217847
O O8 0.273181 0.439697 0.403751
O O9 0.281570 0.508799 0.549310
O O10 0.017487 0.432728 0.930623
O O11 0.223197 0.079070 0.786776
O O12 0.500000 0.114401 0.250000
#
# Coordination Sequence:
#
# PCOD9273828 Si02
#       6
#     4   8   8   8   8   8
#     4  12  22  36  64  96 124 148 218 270 306 362
#     4  11  23  42  61  91 129 169 208 253 318 385
#     4  11  22  38  65  94 124 162 213 268 312 364
#     4  10  20  38  59  90 120 158 204 260 309 369
#     4   9  18  35  62  86 116 159 200 253 314 359
#     4   9  20  40  60  82 123 165 204 246 316 376
#
# _framework density 20.386890000000001
#
# number of rings (size 3 to 8) (size 9 to 14) (size 15 to 20)
#    0.000    1.818    2.727    1.636    0.000    1.455 
#    9.818    2.727    0.000    0.000    0.000    0.000 
#    0.000    0.000    0.000    0.000    0.000    0.000 
#
# Total GULP energy -122622.437775 kJ/mol
# GULP energy per Si atom -5573.747172 kJ/mol
# Density = 2.034049 g / cm^3
# Si number density = 20.386890 Si / 1000 Ang^3
#
#
#
# Elastic Constant Matrix: (Units=GPa)
#
#
# Indices 1 2 3 4 5 6 
#
# 1 74.2761 56.7015 21.7761 0.0150 15.3781 -0.0005
# 2 56.7015 153.3513 29.6409 -0.0309 30.6210 0.0117
# 3 21.7761 29.6409 48.2930 -0.0674 6.0801 0.0266
# 4 0.0150 -0.0309 -0.0674 17.6835 0.0175 7.3146
# 5 15.3781 30.6210 6.0801 0.0175 26.4885 -0.0057
# 6 -0.0005 0.0117 0.0266 7.3146 -0.0057 31.9044
#
#
#
# Elastic Compliance Matrix: (Units=1/GPa)
#
#
# Indices 1 2 3 4 5 6 
#
# 1 0.020092 -0.005654 -0.005091 -0.000050 -0.003960 0.000017
# 2 -0.005654 0.010933 -0.003071 0.000024 -0.008651 -0.000009
# 3 -0.005091 -0.003071 0.024785 0.000111 0.000817 -0.000045
# 4 -0.000050 0.000024 0.000111 0.062475 -0.000069 -0.014324
# 5 -0.003960 -0.008651 0.000817 -0.000069 0.049864 0.000027
# 6 0.000017 -0.000009 -0.000045 -0.014324 0.000027 0.034628
#
#
# Mechanical properties :
#
#
# Convention : Reuss Voigt Hill
#
# Bulk Modulus (GPa) = 35.49075 54.68418 45.08747
# Shear Modulus (GPa) = 20.85055 26.40207 23.62631
#
# Velocity S-wave (km/s) = 3.20150 3.60259 3.40795
# Velocity P-wave (km/s) = 5.57787 6.64728 6.13591
#
# Compressibility (1/GPa) = 0.02817635
#
# Stress axis : x y z
#
# Youngs Moduli (GPa) = 49.77075 91.46876 40.34705
#
# Poissons Ratio (x) = 0.51720 0.20540
# Poissons Ratio (y) = 0.28142 0.12392
# Poissons Ratio (z) = 0.25338 0.28093
#
# Static dielectric constant tensor:
#      x y z
#    x 1.768010 -0.000010 -0.022550 
#    y -0.000010 1.679740 0.000020 
#    z -0.022550 0.000020 1.821020 
# 
# From -- ./inp_files/174185.got.cif
#   From: 2010.05.17/outbox.cif.g08.bks.cpg/sg15_88_cif.got.tgz:174185.got - 2010.06.03 18:47:42.
