data_PCOD9273526
_publ_section_title
;
Structure prediction by ZEFSAII (Michael W. Deem and Ramdas Pophale) SiO2 
 PCOD9273526
Probable space group: C 2/C
;
_chemical_formula_sum "Si O2"
_cell_formula_units_Z 56
_cell_length_a 7.352648
_cell_length_b 12.631792
_cell_length_c 25.064597
_cell_angle_alpha 90.000000
_cell_angle_beta 78.879170
_cell_angle_gamma 90.000000
_cell_volume 2284.215178
_symmetry_space_group_name_H-M "C 2/C"
_symmetry_group_IT_number 15
_symmetry_cell_setting 'monoclinic'
loop_
_space_group_symop_operation_xyz
x,y,z
-x,y,1/2-z
-x,-y,-z
x,-y,1/2+z
1/2+x,1/2+y,z
1/2-x,1/2+y,1/2-z
1/2-x,1/2-y,-z
1/2+x,1/2-y,1/2+z
loop_
_atom_site_type_symbol
_atom_site_label
_atom_site_fract_x
_atom_site_fract_y
_atom_site_fract_z
Si Si1 0.508492 0.815573 0.071016
Si Si2 0.749555 0.786760 0.202743
Si Si3 0.902777 0.114211 0.007446
Si Si4 0.385444 0.024304 0.309342
Si Si5 0.367383 0.716419 0.181766
Si Si6 0.008887 0.546134 0.075935
Si Si7 0.589860 0.270242 0.411864
O O1 0.494948 0.712241 0.034749
O O2 0.382123 0.787326 0.128738
O O3 0.721264 0.826531 0.079644
O O4 0.463045 0.933060 0.052663
O O5 0.578819 0.714014 0.191505
O O6 0.759741 0.765534 0.264563
O O7 0.915465 0.769067 0.152119
O O8 0.681667 0.906139 0.198416
O O9 0.708537 0.089085 0.046023
O O10 0.919599 0.167264 0.947772
O O11 0.000000 0.000000 0.000000
O O12 0.500000 0.056666 0.250000
O O13 0.211533 0.101674 0.325752
O O14 0.491076 0.027668 0.359870
O O15 0.885285 0.648540 0.071551
#
# Coordination Sequence:
#
# PCOD9273526 Si02
#       7
#     8   8   8   8   8   8   8
#     4  11  23  45  66  94 132 173 218 266 330 383
#     4  10  20  42  63  91 129 165 214 261 326 384
#     4  12  24  45  68  94 136 173 220 269 327 385
#     4  12  20  38  69  91 127 171 207 268 329 380
#     4  10  20  37  67  92 120 169 213 260 320 390
#     4  12  24  43  66  96 130 171 218 273 325 386
#     4  11  24  42  66  96 128 173 217 266 324 389
#
# _framework density 24.516078
#
# number of rings (size 3 to 8) (size 9 to 14) (size 15 to 20)
#    0.000    0.857    7.143    1.714    0.000    0.571 
#    2.571    0.000    9.429    0.000    0.000    0.000 
#    0.000    0.000    0.000    0.000    0.000    0.000 
#
# Total GULP energy -156658.092587 kJ/mol
# GULP energy per Si atom -5594.931878 kJ/mol
# Density = 2.446028 g / cm^3
# Si number density = 24.516078 Si / 1000 Ang^3
#
#
#
# Elastic Constant Matrix: (Units=GPa)
#
#
# Indices 1 2 3 4 5 6 
#
# 1 43.3147 26.7340 18.8847 0.0000 -0.2083 0.0000
# 2 26.7340 162.0409 26.4090 0.0000 2.5210 0.0000
# 3 18.8847 26.4090 165.2704 0.0000 -0.7517 0.0000
# 4 0.0000 0.0000 0.0000 44.0332 0.0000 -5.5566
# 5 -0.2083 2.5210 -0.7517 0.0000 30.6562 0.0000
# 6 0.0000 0.0000 0.0000 -5.5566 0.0000 38.8077
#
#
#
# Elastic Compliance Matrix: (Units=1/GPa)
#
#
# Indices 1 2 3 4 5 6 
#
# 1 0.026607 -0.004006 -0.002398 0.000000 0.000451 0.000000
# 2 -0.004006 0.006949 -0.000655 0.000000 -0.000615 0.000000
# 3 -0.002398 -0.000655 0.006430 0.000000 0.000195 0.000000
# 4 0.000000 0.000000 0.000000 0.023128 0.000000 0.003312
# 5 0.000451 -0.000615 0.000195 0.000000 0.032678 0.000000
# 6 0.000000 0.000000 0.000000 0.003312 0.000000 0.026242
#
#
# Mechanical properties :
#
#
# Convention : Reuss Voigt Hill
#
# Bulk Modulus (GPa) = 38.65906 57.18680 47.92293
# Shear Modulus (GPa) = 34.53622 42.60597 38.57110
#
# Velocity S-wave (km/s) = 3.75736 4.17331 3.97079
# Velocity P-wave (km/s) = 5.88445 6.82634 6.37282
#
# Compressibility (1/GPa) = 0.02586716
#
# Stress axis : x y z
#
# Youngs Moduli (GPa) = 37.58407 143.91465 155.51314
#
# Poissons Ratio (x) = 0.57651 0.37294
# Poissons Ratio (y) = 0.15056 0.10192
# Poissons Ratio (z) = 0.09013 0.09432
#
# Static dielectric constant tensor:
#      x y z
#    x 1.947090 0.000000 0.016370 
#    y 0.000000 1.898370 0.000000 
#    z 0.016370 0.000000 2.029090 
# 
# From -- ./inp_files/307398.got.cif
#   From: 2010.05.17/outbox.cif.g08.bks.cpg/sg15_154_cif.got.tgz:307398.got - 2010.06.03 18:47:42.
