data_PCOD9273923
_publ_section_title
;
Structure prediction by ZEFSAII (Michael W. Deem and Ramdas Pophale) SiO2 
 PCOD9273923
Probable space group: C 2/C
;
_chemical_formula_sum "Si O2"
_cell_formula_units_Z 48
_cell_length_a 18.258288
_cell_length_b 10.174260
_cell_length_c 10.359580
_cell_angle_alpha 90.000000
_cell_angle_beta 110.021004
_cell_angle_gamma 90.000000
_cell_volume 1808.143398
_symmetry_space_group_name_H-M "C 2/C"
_symmetry_group_IT_number 15
_symmetry_cell_setting 'monoclinic'
loop_
_space_group_symop_operation_xyz
x,y,z
-x,y,1/2-z
-x,-y,-z
x,-y,1/2+z
1/2+x,1/2+y,z
1/2-x,1/2+y,1/2-z
1/2-x,1/2-y,-z
1/2+x,1/2-y,1/2+z
loop_
_atom_site_type_symbol
_atom_site_label
_atom_site_fract_x
_atom_site_fract_y
_atom_site_fract_z
Si Si1 0.079574 0.341292 0.371919
Si Si2 0.286290 0.074037 0.744446
Si Si3 0.927605 0.101187 0.456751
Si Si4 0.585819 0.878784 0.960423
Si Si5 0.297721 0.214312 0.159443
Si Si6 0.410142 0.436092 0.661996
O O1 0.157352 0.379788 0.338597
O O2 0.052438 0.475948 0.422985
O O3 0.101158 0.194986 0.430404
O O4 0.000000 0.306132 0.250000
O O5 0.216167 0.170734 0.744371
O O6 0.269673 0.922627 0.705121
O O7 0.342373 0.087757 0.902154
O O8 0.953490 0.251233 0.499211
O O9 0.884181 0.093820 0.292931
O O10 0.879285 0.052396 0.553385
O O11 0.000000 0.000000 0.500000
O O12 0.615991 0.824493 0.839945
O O13 0.250000 0.250000 0.000000
O O14 0.500000 0.469600 0.750000
#
# Coordination Sequence:
#
# PCOD9273923 Si02
#       6
#     8   8   8   8   8   8
#     4  10  21  38  62  93 135 173 218 268 334 407
#     4  10  20  42  66  91 129 170 218 278 336 397
#     4  10  20  38  60  87 136 171 217 268 330 394
#     4  10  21  40  62  95 129 172 222 275 327 410
#     4   9  21  41  66  92 125 167 221 281 338 394
#     4   9  19  37  54  86 122 174 215 262 315 389
#
# _framework density 26.546565999999999
#
# number of rings (size 3 to 8) (size 9 to 14) (size 15 to 20)
#    0.000    2.333    1.667    0.000    0.000    4.000 
#    6.000    7.500    0.000    0.000    0.000    0.000 
#    0.000    0.000    0.000    0.000    0.000    0.000 
#
# Total GULP energy -133770.992592 kJ/mol
# GULP energy per Si atom -5573.791358 kJ/mol
# Density = 2.648614 g / cm^3
# Si number density = 26.546566 Si / 1000 Ang^3
#
#
#
# Elastic Constant Matrix: (Units=GPa)
#
#
# Indices 1 2 3 4 5 6 
#
# 1 46.7430 9.4933 15.8653 0.0000 -21.3772 0.0000
# 2 9.4933 249.7979 69.9967 0.0000 -13.3146 0.0000
# 3 15.8653 69.9967 106.9372 0.0000 -23.8153 0.0000
# 4 0.0000 0.0000 0.0000 48.7030 0.0000 -9.4206
# 5 -21.3772 -13.3146 -23.8153 0.0000 37.5270 0.0000
# 6 0.0000 0.0000 0.0000 -9.4206 0.0000 34.2969
#
#
#
# Elastic Compliance Matrix: (Units=1/GPa)
#
#
# Indices 1 2 3 4 5 6 
#
# 1 0.028979 -0.000052 -0.000690 0.000000 0.016051 0.000000
# 2 -0.000052 0.004906 -0.003287 0.000000 -0.000375 0.000000
# 3 -0.000690 -0.003287 0.013111 0.000000 0.006761 0.000000
# 4 0.000000 0.000000 0.000000 0.021685 0.000000 0.005956
# 5 0.016051 -0.000375 0.006761 0.000000 0.039949 0.000000
# 6 0.000000 0.000000 0.000000 0.005956 0.000000 0.030793
#
#
# Mechanical properties :
#
#
# Convention : Reuss Voigt Hill
#
# Bulk Modulus (GPa) = 25.68266 66.02098 45.85182
# Shear Modulus (GPa) = 31.15990 44.64690 37.90340
#
# Velocity S-wave (km/s) = 3.42977 4.10547 3.78273
# Velocity P-wave (km/s) = 5.03786 6.88455 6.03229
#
# Compressibility (1/GPa) = 0.03893678
#
# Stress axis : x y z
#
# Youngs Moduli (GPa) = 34.50726 203.81648 76.27102
#
# Poissons Ratio (x) = 0.01066 0.05266
# Poissons Ratio (y) = 0.00180 0.25073
# Poissons Ratio (z) = 0.02383 0.67001
#
# Static dielectric constant tensor:
#      x y z
#    x 2.273850 0.000000 -0.119830 
#    y 0.000000 2.134180 0.000000 
#    z -0.119830 0.000000 2.289030 
# 
# From -- ./inp_files/116373.got.cif
#   From: 2010.05.17/outbox.cif.g08.bks.cpg/sg15_59_cif.got.tgz:116373.got - 2010.06.03 18:47:42.
