data_PCOD9273137
_publ_section_title
;
Structure prediction by ZEFSAII (Michael W. Deem and Ramdas Pophale) SiO2 
 PCOD9273137
Probable space group: C 2/C
;
_chemical_formula_sum "Si O2"
_cell_formula_units_Z 60
_cell_length_a 21.048458
_cell_length_b 18.820134
_cell_length_c 12.212573
_cell_angle_alpha 90.000000
_cell_angle_beta 144.292318
_cell_angle_gamma 90.000000
_cell_volume 2823.597078
_symmetry_space_group_name_H-M "C 2/C"
_symmetry_group_IT_number 15
_symmetry_cell_setting 'monoclinic'
loop_
_space_group_symop_operation_xyz
x,y,z
-x,y,1/2-z
-x,-y,-z
x,-y,1/2+z
1/2+x,1/2+y,z
1/2-x,1/2+y,1/2-z
1/2-x,1/2-y,-z
1/2+x,1/2-y,1/2+z
loop_
_atom_site_type_symbol
_atom_site_label
_atom_site_fract_x
_atom_site_fract_y
_atom_site_fract_z
Si Si1 0.701504 0.710925 0.328204
Si Si2 0.612396 0.166389 0.448024
Si Si3 0.500000 0.912294 0.250000
Si Si4 0.321190 0.258224 0.281285
Si Si5 0.975867 0.675882 0.944228
Si Si6 0.370542 0.568648 0.179414
Si Si7 0.202485 0.480268 0.043091
Si Si8 0.117579 0.086516 0.556183
O O1 0.750000 0.750000 0.500000
O O2 0.782577 0.727668 0.343838
O O3 0.586006 0.749337 0.155082
O O4 0.681883 0.628384 0.317165
O O5 0.500000 0.197022 0.250000
O O6 0.707593 0.222883 0.565724
O O7 0.591409 0.144093 0.547173
O O8 0.643234 0.093342 0.433283
O O9 0.522112 0.866497 0.168756
O O10 0.606544 0.961639 0.421021
O O11 0.403306 0.199622 0.351598
O O12 0.372973 0.336660 0.372532
O O13 0.288926 0.503076 0.071974
O O14 0.494752 0.555924 0.390367
O O15 0.367712 0.598204 0.052642
O O16 0.286088 0.462733 0.260603
#
# Coordination Sequence:
#
# PCOD9273137 Si02
#       8
#     8   8   4   8   8   8   8   8
#     4  11  19  32  57  95 134 154 201 263 338 394
#     4  10  24  44  63  89 130 183 218 263 316 390
#     4  12  26  38  66 102 132 176 210 282 334 380
#     4  10  20  37  62  96 129 163 206 271 333 388
#     4  11  23  39  65  99 129 162 215 275 337 387
#     4  11  21  37  64  91 126 175 212 276 321 380
#     4  11  24  41  56  91 131 175 225 251 314 395
#     4  10  22  38  62  91 127 175 211 268 331 385
#
# _framework density 21.249490000000002
#
# number of rings (size 3 to 8) (size 9 to 14) (size 15 to 20)
#    0.000    1.333    3.333    2.800    3.733    2.133 
#    0.000    0.000    0.000    1.600    0.000    0.000 
#    0.000    0.000    0.000    0.000    0.000    0.000 
#
# Total GULP energy -167304.474741 kJ/mol
# GULP energy per Si atom -5576.815825 kJ/mol
# Density = 2.120113 g / cm^3
# Si number density = 21.249490 Si / 1000 Ang^3
#
#
#
# Elastic Constant Matrix: (Units=GPa)
#
#
# Indices 1 2 3 4 5 6 
#
# 1 63.3364 29.0876 16.0103 0.0000 22.0546 0.0000
# 2 29.0876 63.7701 18.1257 0.0000 12.2012 0.0000
# 3 16.0103 18.1257 94.2402 0.0000 29.8390 0.0000
# 4 0.0000 0.0000 0.0000 33.1398 0.0000 7.2237
# 5 22.0546 12.2012 29.8390 0.0000 35.4328 0.0000
# 6 0.0000 0.0000 0.0000 7.2237 0.0000 25.2289
#
#
#
# Elastic Compliance Matrix: (Units=1/GPa)
#
#
# Indices 1 2 3 4 5 6 
#
# 1 0.024139 -0.008962 0.001913 0.000000 -0.013550 0.000000
# 2 -0.008962 0.020370 -0.002646 0.000000 0.000792 0.000000
# 3 0.001913 -0.002646 0.014841 0.000000 -0.012777 0.000000
# 4 0.000000 0.000000 0.000000 0.032184 0.000000 -0.009215
# 5 -0.013550 0.000792 -0.012777 0.000000 0.047144 0.000000
# 6 0.000000 0.000000 0.000000 -0.009215 0.000000 0.042276
#
#
# Mechanical properties :
#
#
# Convention : Reuss Voigt Hill
#
# Bulk Modulus (GPa) = 25.02517 38.64376 31.83446
# Shear Modulus (GPa) = 23.40133 29.30184 26.35158
#
# Velocity S-wave (km/s) = 3.32213 3.71744 3.52533
# Velocity P-wave (km/s) = 5.14955 6.05401 5.62000
#
# Compressibility (1/GPa) = 0.03995977
#
# Stress axis : x y z
#
# Youngs Moduli (GPa) = 41.42627 49.09257 67.38176
#
# Poissons Ratio (x) = 0.43996 -0.12891
# Poissons Ratio (y) = 0.37126 0.17830
# Poissons Ratio (z) = -0.07925 0.12991
#
# Static dielectric constant tensor:
#      x y z
#    x 1.782510 0.000000 -0.010900 
#    y 0.000000 1.576700 0.000000 
#    z -0.010900 0.000000 1.874520 
# 
# From -- ./inp_files/113825.got.cif
#   From: 2010.05.17/outbox.cif.g08.bks.cpg/sg15_57_cif.got.tgz:113825.got - 2010.06.03 18:47:42.
