data_PCOD9273077
_publ_section_title
;
Structure prediction by ZEFSAII (Michael W. Deem and Ramdas Pophale) SiO2 
 PCOD9273077
Probable space group: C 2/C
;
_chemical_formula_sum "Si O2"
_cell_formula_units_Z 56
_cell_length_a 17.562246
_cell_length_b 8.441156
_cell_length_c 22.334706
_cell_angle_alpha 90.000000
_cell_angle_beta 140.370133
_cell_angle_gamma 90.000000
_cell_volume 2111.855203
_symmetry_space_group_name_H-M "C 2/C"
_symmetry_group_IT_number 15
_symmetry_cell_setting 'monoclinic'
loop_
_space_group_symop_operation_xyz
x,y,z
-x,y,1/2-z
-x,-y,-z
x,-y,1/2+z
1/2+x,1/2+y,z
1/2-x,1/2+y,1/2-z
1/2-x,1/2-y,-z
1/2+x,1/2-y,1/2+z
loop_
_atom_site_type_symbol
_atom_site_label
_atom_site_fract_x
_atom_site_fract_y
_atom_site_fract_z
Si Si1 0.138119 0.137010 0.419611
Si Si2 0.816198 0.673096 0.890209
Si Si3 0.202487 0.307919 0.642886
Si Si4 0.986474 0.673615 0.381076
Si Si5 0.441607 0.888588 0.272264
Si Si6 0.009659 0.136348 0.457116
Si Si7 0.842026 0.804016 0.107009
O O1 0.250000 0.250000 0.500000
O O2 0.075679 0.062411 0.440342
O O3 0.034282 0.245814 0.333238
O O4 0.169073 0.993529 0.395384
O O5 0.782168 0.497971 0.846752
O O6 0.706108 0.756936 0.858406
O O7 0.916336 0.663467 0.005403
O O8 0.880321 0.780874 0.878685
O O9 0.133333 0.257749 0.661838
O O10 0.312540 0.193869 0.693370
O O11 0.102958 0.271942 0.532323
O O12 0.957835 0.499460 0.339229
O O13 0.035595 0.761311 0.351690
O O14 0.500000 0.975725 0.250000
O O15 0.000000 0.000000 0.500000
O O16 0.750000 0.750000 0.000000
#
# Coordination Sequence:
#
# PCOD9273077 Si02
#       7
#     8   8   8   8   8   8   8
#     4  12  23  41  67  93 124 163 207 259 311 374
#     4  10  20  40  67  91 120 161 206 255 309 372
#     4  11  23  41  63  91 125 163 206 255 312 371
#     4  10  22  42  63  88 124 165 205 254 311 369
#     4  12  26  42  61  91 126 167 212 259 311 367
#     4  11  22  39  66  99 124 159 210 258 308 373
#     4  10  20  37  62  91 119 156 203 252 304 364
#
# _framework density 26.516969
#
# number of rings (size 3 to 8) (size 9 to 14) (size 15 to 20)
#    0.000    1.143    0.000   10.286    0.000    3.429 
#    0.000    5.000    0.000    0.000    0.000    0.000 
#    0.000    0.000    0.000    0.000    0.000    0.000 
#
# Total GULP energy -156675.778597 kJ/mol
# GULP energy per Si atom -5595.563521 kJ/mol
# Density = 2.645662 g / cm^3
# Si number density = 26.516969 Si / 1000 Ang^3
#
#
#
# Elastic Constant Matrix: (Units=GPa)
#
#
# Indices 1 2 3 4 5 6 
#
# 1 200.0273 17.1977 25.2554 0.0000 51.8683 0.0000
# 2 17.1977 87.7849 1.5530 0.0000 15.9517 0.0000
# 3 25.2554 1.5530 91.8807 0.0000 34.5178 0.0000
# 4 0.0000 0.0000 0.0000 22.1209 0.0000 3.1478
# 5 51.8683 15.9517 34.5178 0.0000 35.7338 0.0000
# 6 0.0000 0.0000 0.0000 3.1478 0.0000 52.8403
#
#
#
# Elastic Compliance Matrix: (Units=1/GPa)
#
#
# Indices 1 2 3 4 5 6 
#
# 1 0.008898 0.001361 0.004099 0.000000 -0.017483 0.000000
# 2 0.001361 0.013131 0.003686 0.000000 -0.011398 0.000000
# 3 0.004099 0.003686 0.019696 0.000000 -0.026621 0.000000
# 4 0.000000 0.000000 0.000000 0.045593 0.000000 -0.002716
# 5 -0.017483 -0.011398 -0.026621 0.000000 0.084165 0.000000
# 6 0.000000 0.000000 0.000000 -0.002716 0.000000 0.019087
#
#
# Mechanical properties :
#
#
# Convention : Reuss Voigt Hill
#
# Bulk Modulus (GPa) = 16.66188 51.96722 34.31455
# Shear Modulus (GPa) = 26.00346 44.51813 35.26079
#
# Velocity S-wave (km/s) = 3.13491 4.10183 3.65052
# Velocity P-wave (km/s) = 4.40462 6.48642 5.54411
#
# Compressibility (1/GPa) = 0.06001722
#
# Stress axis : x y z
#
# Youngs Moduli (GPa) = 112.38123 76.15721 50.77300
#
# Poissons Ratio (x) = -0.10367 -0.20813
# Poissons Ratio (y) = -0.15297 -0.18714
# Poissons Ratio (z) = -0.46068 -0.28070
#
# Static dielectric constant tensor:
#      x y z
#    x 3.814970 0.000000 -0.540660 
#    y 0.000000 2.152980 0.000000 
#    z -0.540660 0.000000 2.206520 
# 
# From -- ./inp_files/315536.got.cif
#   From: 2010.05.17/outbox.cif.g08.bks.cpg/sg15_158_cif.got.tgz:315536.got - 2010.06.03 18:47:42.
