data_PCOD9273837
_publ_section_title
;
Structure prediction by ZEFSAII (Michael W. Deem and Ramdas Pophale) SiO2 
 PCOD9273837
Probable space group: C 2/C
;
_chemical_formula_sum "Si O2"
_cell_formula_units_Z 56
_cell_length_a 14.211277
_cell_length_b 7.007153
_cell_length_c 25.235143
_cell_angle_alpha 90.000000
_cell_angle_beta 99.841518
_cell_angle_gamma 90.000000
_cell_volume 2475.950959
_symmetry_space_group_name_H-M "C 2/C"
_symmetry_group_IT_number 15
_symmetry_cell_setting 'monoclinic'
loop_
_space_group_symop_operation_xyz
x,y,z
-x,y,1/2-z
-x,-y,-z
x,-y,1/2+z
1/2+x,1/2+y,z
1/2-x,1/2+y,1/2-z
1/2-x,1/2-y,-z
1/2+x,1/2-y,1/2+z
loop_
_atom_site_type_symbol
_atom_site_label
_atom_site_fract_x
_atom_site_fract_y
_atom_site_fract_z
Si Si1 0.664818 0.187049 0.704383
Si Si2 0.475949 0.019708 0.652421
Si Si3 0.248258 0.429869 0.620235
Si Si4 0.416971 0.349099 0.578102
Si Si5 0.143236 0.440325 0.505433
Si Si6 0.237688 0.437808 0.323107
Si Si7 0.023416 0.256923 0.939551
O O1 0.687429 0.396644 0.683548
O O2 0.557819 0.100178 0.698783
O O3 0.713382 0.053703 0.665100
O O4 0.715325 0.169879 0.765931
O O5 0.368342 0.003426 0.665133
O O6 0.497483 0.826244 0.622442
O O7 0.482670 0.180366 0.606131
O O8 0.361991 0.428110 0.624306
O O9 0.210355 0.499898 0.560136
O O10 0.221346 0.211232 0.630427
O O11 0.340910 0.230706 0.535187
O O12 0.464297 0.530762 0.556125
O O13 0.116877 0.627290 0.468764
O O14 0.055599 0.342650 0.529102
#
# Coordination Sequence:
#
# PCOD9273837 Si02
#       7
#     8   8   8   8   8   8   8
#     4  12  23  43  68  88 127 171 209 275 331 378
#     4  10  23  41  65  95 126 166 212 264 324 387
#     4  11  23  41  62  93 126 165 217 261 324 387
#     4  10  22  38  62  94 129 164 212 259 313 396
#     4  10  21  36  60  91 129 165 209 262 313 386
#     4  11  25  43  65  93 126 164 218 275 322 389
#     4  10  20  38  59  92 129 162 210 259 313 389
#
# _framework density 22.617571999999999
#
# number of rings (size 3 to 8) (size 9 to 14) (size 15 to 20)
#    0.000    1.429    2.857    2.143    2.000    1.714 
#    0.000    0.000    0.000    0.000    0.000    0.000 
#    0.000    0.000    0.000    0.000    0.000    0.000 
#
# Total GULP energy -156110.948379 kJ/mol
# GULP energy per Si atom -5575.391014 kJ/mol
# Density = 2.256609 g / cm^3
# Si number density = 22.617572 Si / 1000 Ang^3
#
#
#
# Elastic Constant Matrix: (Units=GPa)
#
#
# Indices 1 2 3 4 5 6 
#
# 1 24.3230 -10.1462 -1.5696 0.0000 -13.1535 0.0000
# 2 -10.1462 62.0231 3.6257 0.0000 -1.6895 0.0000
# 3 -1.5696 3.6257 63.9052 0.0000 2.0437 0.0000
# 4 0.0000 0.0000 0.0000 25.9390 0.0000 -9.2170
# 5 -13.1535 -1.6895 2.0437 0.0000 36.6087 0.0000
# 6 0.0000 0.0000 0.0000 -9.2170 0.0000 17.4283
#
#
#
# Elastic Compliance Matrix: (Units=1/GPa)
#
#
# Indices 1 2 3 4 5 6 
#
# 1 0.056403 0.009781 0.000168 0.000000 0.020707 0.000000
# 2 0.009781 0.017896 -0.000916 0.000000 0.004391 0.000000
# 3 0.000168 -0.000916 0.015732 0.000000 -0.000860 0.000000
# 4 0.000000 0.000000 0.000000 0.047473 0.000000 0.025106
# 5 0.020707 0.004391 -0.000860 0.000000 0.035007 0.000000
# 6 0.000000 0.000000 0.000000 0.025106 0.000000 0.070656
#
#
# Mechanical properties :
#
#
# Convention : Reuss Voigt Hill
#
# Bulk Modulus (GPa) = 9.25089 14.89679 12.07384
# Shear Modulus (GPa) = 19.14744 26.55128 22.84936
#
# Velocity S-wave (km/s) = 2.91275 3.42997 3.18189
# Velocity P-wave (km/s) = 3.92571 4.72091 4.34155
#
# Compressibility (1/GPa) = 0.10809770
#
# Stress axis : x y z
#
# Youngs Moduli (GPa) = 17.72970 55.87776 63.56569
#
# Poissons Ratio (x) = -0.54654 -0.01069
# Poissons Ratio (y) = -0.17341 0.05820
# Poissons Ratio (z) = -0.00298 0.05116
#
# Static dielectric constant tensor:
#      x y z
#    x 1.922310 0.000000 0.047660 
#    y 0.000000 1.857840 0.000000 
#    z 0.047660 0.000000 1.883680 
# 
# From -- ./inp_files/297777.got.cif
#   From: 2010.05.17/outbox.cif.g08.bks.cpg/sg15_149_cif.got.tgz:297777.got - 2010.06.03 18:47:42.
