data_PCOD9273386
_publ_section_title
;
Structure prediction by ZEFSAII (Michael W. Deem and Ramdas Pophale) SiO2 
 PCOD9273386
Probable space group: C 2/C
;
_chemical_formula_sum "Si O2"
_cell_formula_units_Z 44
_cell_length_a 20.424900
_cell_length_b 7.836383
_cell_length_c 15.409435
_cell_angle_alpha 90.000000
_cell_angle_beta 44.048831
_cell_angle_gamma 90.000000
_cell_volume 1714.812095
_symmetry_space_group_name_H-M "C 2/C"
_symmetry_group_IT_number 15
_symmetry_cell_setting 'monoclinic'
loop_
_space_group_symop_operation_xyz
x,y,z
-x,y,1/2-z
-x,-y,-z
x,-y,1/2+z
1/2+x,1/2+y,z
1/2-x,1/2+y,1/2-z
1/2-x,1/2-y,-z
1/2+x,1/2-y,1/2+z
loop_
_atom_site_type_symbol
_atom_site_label
_atom_site_fract_x
_atom_site_fract_y
_atom_site_fract_z
Si Si1 0.822884 0.768361 0.635000
Si Si2 0.501030 0.885257 0.586300
Si Si3 0.319766 0.968439 0.304870
Si Si4 0.500000 0.466435 0.750000
Si Si5 0.707268 0.567025 0.561286
Si Si6 0.092446 0.988495 0.323101
O O1 0.732837 0.864930 0.684473
O O2 0.807667 0.667787 0.739681
O O3 0.888220 0.654000 0.509417
O O4 0.889639 0.925148 0.603201
O O5 0.429356 0.987057 0.716727
O O6 0.450869 0.699683 0.629201
O O7 0.500000 0.000000 0.500000
O O8 0.265443 0.936918 0.446265
O O9 0.596674 0.566975 0.639226
O O10 0.470125 0.395198 0.684121
O O11 0.750000 0.750000 0.500000
O O12 0.692680 0.523050 0.676141
#
# Coordination Sequence:
#
# PCOD9273386 Si02
#       6
#     8   8   8   4   8   8
#     4  11  24  38  66  89 130 160 214 264 320 378
#     4  10  21  38  61  91 124 158 208 256 311 376
#     4  11  22  39  61  98 120 169 208 264 319 384
#     4   8  20  34  60  88 116 168 206 238 318 374
#     4  10  20  37  65  86 128 160 214 251 317 378
#     4  10  20  40  61  89 122 170 203 261 312 368
#
# _framework density 25.658788999999999
#
# number of rings (size 3 to 8) (size 9 to 14) (size 15 to 20)
#    1.091    0.727    1.818    2.727    0.000    2.182 
#    0.000    0.000    0.000    2.182    0.000    0.000 
#    0.000    0.000    0.000    0.000    0.000    0.000 
#
# Total GULP energy -122578.436363 kJ/mol
# GULP energy per Si atom -5571.747107 kJ/mol
# Density = 2.560039 g / cm^3
# Si number density = 25.658789 Si / 1000 Ang^3
#
#
#
# Elastic Constant Matrix: (Units=GPa)
#
#
# Indices 1 2 3 4 5 6 
#
# 1 59.0969 7.9090 4.7736 0.0004 -12.9976 -0.0003
# 2 7.9090 83.8410 35.9285 0.0017 0.0082 -0.0015
# 3 4.7736 35.9285 181.2385 0.0001 -12.3762 -0.0001
# 4 0.0004 0.0017 0.0001 30.8316 -0.0005 9.5980
# 5 -12.9976 0.0082 -12.3762 -0.0005 49.2683 0.0004
# 6 -0.0003 -0.0015 -0.0001 9.5980 0.0004 26.8183
#
#
#
# Elastic Compliance Matrix: (Units=1/GPa)
#
#
# Indices 1 2 3 4 5 6 
#
# 1 0.018215 -0.001809 0.000211 0.000000 0.004859 0.000000
# 2 -0.001809 0.013236 -0.002654 -0.000001 -0.001146 0.000001
# 3 0.000211 -0.002654 0.006148 0.000000 0.001600 0.000000
# 4 0.000000 -0.000001 0.000000 0.036501 0.000000 -0.013063
# 5 0.004859 -0.001146 0.001600 0.000000 0.021981 0.000000
# 6 0.000000 0.000001 0.000000 -0.013063 0.000000 0.041963
#
#
# Mechanical properties :
#
#
# Convention : Reuss Voigt Hill
#
# Bulk Modulus (GPa) = 34.37306 46.82205 40.59755
# Shear Modulus (GPa) = 32.00074 39.75465 35.87770
#
# Velocity S-wave (km/s) = 3.53535 3.94046 3.74339
# Velocity P-wave (km/s) = 5.48546 6.24424 5.87711
#
# Compressibility (1/GPa) = 0.02909255
#
# Stress axis : x y z
#
# Youngs Moduli (GPa) = 54.89968 75.55373 162.66694
#
# Poissons Ratio (x) = 0.13668 -0.03426
# Poissons Ratio (y) = 0.09931 0.43179
# Poissons Ratio (z) = -0.01156 0.20055
#
# Static dielectric constant tensor:
#      x y z
#    x 2.132130 0.000000 0.003600 
#    y 0.000000 2.064780 0.000000 
#    z 0.003600 0.000000 2.094740 
# 
# From -- ./inp_files/218476.got.cif
#   From: 2010.05.17/outbox.cif.g08.bks.cpg/sg15_110_cif.got.tgz:218476.got - 2010.06.03 18:47:42.
