data_PCOD9273867
_publ_section_title
;
Structure prediction by ZEFSAII (Michael W. Deem and Ramdas Pophale) SiO2 
 PCOD9273867
Probable space group: C 2/C
;
_chemical_formula_sum "Si O2"
_cell_formula_units_Z 64
_cell_length_a 16.553379
_cell_length_b 18.355496
_cell_length_c 18.219537
_cell_angle_alpha 90.000000
_cell_angle_beta 34.503923
_cell_angle_gamma 90.000000
_cell_volume 3135.894252
_symmetry_space_group_name_H-M "C 2/C"
_symmetry_group_IT_number 15
_symmetry_cell_setting 'monoclinic'
loop_
_space_group_symop_operation_xyz
x,y,z
-x,y,1/2-z
-x,-y,-z
x,-y,1/2+z
1/2+x,1/2+y,z
1/2-x,1/2+y,1/2-z
1/2-x,1/2-y,-z
1/2+x,1/2-y,1/2+z
loop_
_atom_site_type_symbol
_atom_site_label
_atom_site_fract_x
_atom_site_fract_y
_atom_site_fract_z
Si Si1 0.626580 0.188541 0.511035
Si Si2 0.465620 0.118015 0.056268
Si Si3 0.113978 0.148210 0.597817
Si Si4 0.157884 0.847478 0.535349
Si Si5 0.990629 0.000542 0.345598
Si Si6 0.096246 0.584032 0.741279
Si Si7 0.292726 0.971341 0.193376
Si Si8 0.937107 0.693768 0.379208
O O1 0.605420 0.179346 0.440876
O O2 0.779866 0.164112 0.428928
O O3 0.594190 0.270281 0.560397
O O4 0.515722 0.131772 0.629086
O O5 0.473735 0.144195 0.132997
O O6 0.373001 0.045992 0.114532
O O7 0.623417 0.094463 0.910136
O O8 0.066588 0.221805 0.591439
O O9 0.274669 0.165306 0.501844
O O10 0.000000 0.143849 0.750000
O O11 0.110290 0.069219 0.562830
O O12 0.296942 0.862521 0.381187
O O13 0.065147 0.919359 0.593133
O O14 0.000000 0.004110 0.250000
O O15 0.135884 0.980215 0.278318
O O16 0.184874 0.539981 0.735981
O O17 0.000000 0.544689 0.750000
O O18 0.000000 0.692146 0.250000
#
# Coordination Sequence:
#
# PCOD9273867 Si02
#       8
#     8   8   8   8   8   8   8   8
#     4   9  20  38  59  83 114 155 195 233 286 358
#     4  10  20  38  60  83 116 156 197 241 288 349
#     4   9  20  39  59  84 120 159 196 236 298 361
#     4  10  21  37  60  87 115 149 193 240 293 345
#     4  11  22  37  58  84 119 158 191 238 297 356
#     4   9  20  38  57  81 117 153 189 247 298 332
#     4  10  22  37  58  88 117 154 203 236 287 368
#     4  10  21  38  63  91 115 153 206 252 290 345
#
# _framework density 20.408850999999999
#
# number of rings (size 3 to 8) (size 9 to 14) (size 15 to 20)
#    0.000    2.250    0.000    2.250    0.000   10.500 
#    0.000    7.500    0.000    0.000    0.000    0.000 
#    0.000    0.000    0.000    0.000    0.000    0.000 
#
# Total GULP energy -178371.780090 kJ/mol
# GULP energy per Si atom -5574.118128 kJ/mol
# Density = 2.036240 g / cm^3
# Si number density = 20.408851 Si / 1000 Ang^3
#
#
#
# Elastic Constant Matrix: (Units=GPa)
#
#
# Indices 1 2 3 4 5 6 
#
# 1 123.4557 51.7923 21.0383 -0.0006 2.7841 0.0000
# 2 51.7923 108.2783 3.2255 -0.0013 -16.8167 0.0007
# 3 21.0383 3.2255 21.2386 -0.0014 2.7410 0.0005
# 4 -0.0006 -0.0013 -0.0014 14.1028 0.0011 0.8339
# 5 2.7841 -16.8167 2.7410 0.0011 21.2905 -0.0003
# 6 0.0000 0.0007 0.0005 0.8339 -0.0003 10.5263
#
#
#
# Elastic Compliance Matrix: (Units=1/GPa)
#
#
# Indices 1 2 3 4 5 6 
#
# 1 0.012932 -0.006722 -0.011070 -0.000001 -0.005575 0.000001
# 2 -0.006722 0.014177 0.002997 0.000000 0.011691 -0.000001
# 3 -0.011070 0.002997 0.058067 0.000006 -0.003661 -0.000004
# 4 -0.000001 0.000000 0.000006 0.071242 -0.000004 -0.005644
# 5 -0.005575 0.011691 -0.003661 -0.000004 0.057404 0.000001
# 6 0.000001 -0.000001 -0.000004 -0.005644 0.000001 0.095447
#
#
# Mechanical properties :
#
#
# Convention : Reuss Voigt Hill
#
# Bulk Modulus (GPa) = 17.99014 45.00942 31.49978
# Shear Modulus (GPa) = 13.99037 20.97835 17.48436
#
# Velocity S-wave (km/s) = 2.62106 3.20957 2.93013
# Velocity P-wave (km/s) = 4.24192 5.98639 5.18801
#
# Compressibility (1/GPa) = 0.05558599
#
# Stress axis : x y z
#
# Youngs Moduli (GPa) = 77.32601 70.53543 17.22151
#
# Poissons Ratio (x) = 0.47414 0.19064
# Poissons Ratio (y) = 0.51978 -0.05161
# Poissons Ratio (z) = 0.85599 -0.21137
#
# Static dielectric constant tensor:
#      x y z
#    x 1.706850 0.000000 0.004750 
#    y 0.000000 1.729860 0.000000 
#    z 0.004750 0.000000 1.748590 
# 
# From -- ./inp_files/206445.got.cif
#   From: 2010.05.17/outbox.cif.g08.bks.cpg/sg15_104_cif.got.tgz:206445.got - 2010.06.03 18:47:42.
