data_PCOD9273714
_publ_section_title
;
Structure prediction by ZEFSAII (Michael W. Deem and Ramdas Pophale) SiO2 
 PCOD9273714
Probable space group: C 2/C
;
_chemical_formula_sum "Si O2"
_cell_formula_units_Z 44
_cell_length_a 14.904051
_cell_length_b 17.647977
_cell_length_c 9.170941
_cell_angle_alpha 90.000000
_cell_angle_beta 129.881868
_cell_angle_gamma 90.000000
_cell_volume 1851.044684
_symmetry_space_group_name_H-M "C 2/C"
_symmetry_group_IT_number 15
_symmetry_cell_setting 'monoclinic'
loop_
_space_group_symop_operation_xyz
x,y,z
-x,y,1/2-z
-x,-y,-z
x,-y,1/2+z
1/2+x,1/2+y,z
1/2-x,1/2+y,1/2-z
1/2-x,1/2-y,-z
1/2+x,1/2-y,1/2+z
loop_
_atom_site_type_symbol
_atom_site_label
_atom_site_fract_x
_atom_site_fract_y
_atom_site_fract_z
Si Si1 0.742201 0.022735 0.314703
Si Si2 0.783398 0.287685 0.384435
Si Si3 0.000000 0.763759 0.750000
Si Si4 0.888104 0.430954 0.543182
Si Si5 0.273620 0.166975 0.412293
Si Si6 0.878631 0.117855 0.965082
O O1 0.714081 0.047394 0.449005
O O2 0.725308 0.094842 0.192795
O O3 0.862244 0.972990 0.436363
O O4 0.642968 0.967358 0.143673
O O5 0.750000 0.250000 0.500000
O O6 0.895158 0.341134 0.521133
O O7 0.785510 0.230509 0.252200
O O8 0.681192 0.346711 0.237988
O O9 0.894564 0.706397 0.593992
O O10 0.991069 0.829319 0.612010
O O11 0.000000 0.456743 0.750000
O O12 0.204388 0.140400 0.483492
#
# Coordination Sequence:
#
# PCOD9273714 Si02
#       6
#     8   8   4   8   8   8
#     4  11  22  39  63  90 128 161 202 262 321 364
#     4  10  20  38  58  86 126 159 199 255 314 363
#     4  10  22  40  68  90 120 166 222 244 306 386
#     4  11  23  37  60  92 126 160 206 257 318 378
#     4  11  22  40  68  90 124 166 209 258 313 376
#     4  10  23  43  63  89 127 170 206 257 318 380
#
# _framework density 23.770361999999999
#
# number of rings (size 3 to 8) (size 9 to 14) (size 15 to 20)
#    0.000    1.455    3.636    2.727    1.273    4.364 
#    0.000    0.909    2.000    0.000    0.000    0.000 
#    0.000    0.000    0.000    0.000    0.000    0.000 
#
# Total GULP energy -122530.365329 kJ/mol
# GULP energy per Si atom -5569.562060 kJ/mol
# Density = 2.371626 g / cm^3
# Si number density = 23.770362 Si / 1000 Ang^3
#
#
#
# Elastic Constant Matrix: (Units=GPa)
#
#
# Indices 1 2 3 4 5 6 
#
# 1 44.8933 30.8185 42.6941 0.0000 -1.1998 0.0000
# 2 30.8185 159.2592 54.1828 0.0000 1.5917 0.0000
# 3 42.6941 54.1828 150.8319 0.0000 -12.8240 0.0000
# 4 0.0000 0.0000 0.0000 68.0422 0.0000 -9.1343
# 5 -1.1998 1.5917 -12.8240 0.0000 32.4242 0.0000
# 6 0.0000 0.0000 0.0000 -9.1343 0.0000 18.5401
#
#
#
# Elastic Compliance Matrix: (Units=1/GPa)
#
#
# Indices 1 2 3 4 5 6 
#
# 1 0.032262 -0.003493 -0.008031 0.000000 -0.001811 0.000000
# 2 -0.003493 0.007595 -0.001844 0.000000 -0.001232 0.000000
# 3 -0.008031 -0.001844 0.009880 0.000000 0.003701 0.000000
# 4 0.000000 0.000000 0.000000 0.015738 0.000000 0.007754
# 5 -0.001811 -0.001232 0.003701 0.000000 0.032298 0.000000
# 6 0.000000 0.000000 0.000000 0.007754 0.000000 0.057757
#
#
# Mechanical properties :
#
#
# Convention : Reuss Voigt Hill
#
# Bulk Modulus (GPa) = 43.47692 67.81948 55.64820
# Shear Modulus (GPa) = 26.32493 38.95390 32.63942
#
# Velocity S-wave (km/s) = 3.33148 4.05255 3.70958
# Velocity P-wave (km/s) = 5.75573 7.10567 6.46603
#
# Compressibility (1/GPa) = 0.02300071
#
# Stress axis : x y z
#
# Youngs Moduli (GPa) = 30.99605 131.67055 101.20991
#
# Poissons Ratio (x) = 0.45987 0.81286
# Poissons Ratio (y) = 0.10826 0.18666
# Poissons Ratio (z) = 0.24894 0.24284
#
# Static dielectric constant tensor:
#      x y z
#    x 2.038320 0.000000 0.118640 
#    y 0.000000 2.035300 0.000000 
#    z 0.118640 0.000000 1.914120 
# 
# From -- ./inp_files/49283.got.cif
#   From: 2010.05.17/outbox.cif.g08.bks.cpg/sg15_25_cif.got.tgz:49283.got - 2010.06.03 18:47:42.
