data_PCOD9273536
_publ_section_title
;
Structure prediction by ZEFSAII (Michael W. Deem and Ramdas Pophale) SiO2 
 PCOD9273536
Probable space group: C 2/C
;
_chemical_formula_sum "Si O2"
_cell_formula_units_Z 56
_cell_length_a 31.122216
_cell_length_b 10.771708
_cell_length_c 15.722248
_cell_angle_alpha 90.000000
_cell_angle_beta 29.825775
_cell_angle_gamma 90.000000
_cell_volume 2621.466552
_symmetry_space_group_name_H-M "C 2/C"
_symmetry_group_IT_number 15
_symmetry_cell_setting 'monoclinic'
loop_
_space_group_symop_operation_xyz
x,y,z
-x,y,1/2-z
-x,-y,-z
x,-y,1/2+z
1/2+x,1/2+y,z
1/2-x,1/2+y,1/2-z
1/2-x,1/2-y,-z
1/2+x,1/2-y,1/2+z
loop_
_atom_site_type_symbol
_atom_site_label
_atom_site_fract_x
_atom_site_fract_y
_atom_site_fract_z
Si Si1 0.638805 0.023152 0.242041
Si Si2 0.098063 0.023003 0.603516
Si Si3 0.582566 0.207902 0.063617
Si Si4 0.217140 0.372086 0.957535
Si Si5 0.380953 0.651012 0.287943
Si Si6 0.490725 0.794127 0.991056
Si Si7 0.227928 0.488688 0.267639
O O1 0.585311 0.148838 0.323483
O O2 0.571729 0.910268 0.376385
O O3 0.697342 0.028628 0.225723
O O4 0.685001 0.981802 0.075869
O O5 0.115777 0.977111 0.668323
O O6 0.170634 0.962437 0.418048
O O7 0.000000 0.987077 0.750000
O O8 0.105706 0.170445 0.577081
O O9 0.500000 0.140500 0.250000
O O10 0.543048 0.251022 0.041595
O O11 0.664900 0.122818 0.904160
O O12 0.313212 0.344284 0.826598
O O13 0.216483 0.409745 0.861034
O O14 0.157608 0.253568 0.080724
O O15 0.472581 0.692924 0.093897
#
# Coordination Sequence:
#
# PCOD9273536 Si02
#       7
#     8   8   8   8   8   8   8
#     4   9  18  35  61 100 131 152 213 274 321 392
#     4  11  25  43  61  90 135 173 220 263 311 400
#     4  10  22  42  65  93 131 174 210 259 333 400
#     4  10  20  37  67  97 125 167 212 271 329 387
#     4  10  21  39  62  92 129 168 218 264 328 387
#     4   9  18  35  62  92 129 167 199 270 338 371
#     4  11  22  39  71  94 128 173 219 266 336 377
#
# _framework density 21.362088
#
# number of rings (size 3 to 8) (size 9 to 14) (size 15 to 20)
#    0.000    2.000    1.429    1.714    4.000    2.286 
#    0.000    7.143    0.000    0.000    0.000    0.000 
#    0.000    0.000    0.000    0.000    0.000    0.000 
#
# Total GULP energy -156339.909736 kJ/mol
# GULP energy per Si atom -5583.568205 kJ/mol
# Density = 2.131347 g / cm^3
# Si number density = 21.362088 Si / 1000 Ang^3
#
#
#
# Elastic Constant Matrix: (Units=GPa)
#
#
# Indices 1 2 3 4 5 6 
#
# 1 43.0713 15.2576 7.4207 0.0000 -1.5681 0.0000
# 2 15.2576 60.9292 20.5450 0.0000 -6.6314 0.0000
# 3 7.4207 20.5450 115.7122 0.0000 -19.4949 0.0000
# 4 0.0000 0.0000 0.0000 26.1731 0.0000 6.8634
# 5 -1.5681 -6.6314 -19.4949 0.0000 23.2305 0.0000
# 6 0.0000 0.0000 0.0000 6.8634 0.0000 31.0688
#
#
#
# Elastic Compliance Matrix: (Units=1/GPa)
#
#
# Indices 1 2 3 4 5 6 
#
# 1 0.025515 -0.006242 -0.000627 0.000000 -0.000585 0.000000
# 2 -0.006242 0.019140 -0.002502 0.000000 0.002942 0.000000
# 3 -0.000627 -0.002502 0.010481 0.000000 0.008039 0.000000
# 4 0.000000 0.000000 0.000000 0.040557 0.000000 -0.008959
# 5 -0.000585 0.002942 0.008039 0.000000 0.050594 0.000000
# 6 0.000000 0.000000 0.000000 -0.008959 0.000000 0.034166
#
#
# Mechanical properties :
#
#
# Convention : Reuss Voigt Hill
#
# Bulk Modulus (GPa) = 27.47695 34.01771 30.74733
# Shear Modulus (GPa) = 23.66032 27.86044 25.76038
#
# Velocity S-wave (km/s) = 3.33165 3.61529 3.47636
# Velocity P-wave (km/s) = 5.26215 5.77806 5.52613
#
# Compressibility (1/GPa) = 0.03639414
#
# Stress axis : x y z
#
# Youngs Moduli (GPa) = 39.19249 52.24794 95.41082
#
# Poissons Ratio (x) = 0.32612 0.05979
# Poissons Ratio (y) = 0.24463 0.23874
# Poissons Ratio (z) = 0.02456 0.13074
#
# Static dielectric constant tensor:
#      x y z
#    x 1.749380 0.000000 -0.003490 
#    y 0.000000 1.782840 0.000000 
#    z -0.003490 0.000000 1.823750 
# 
# From -- ./inp_files/181896.got.cif
#   From: 2010.05.17/outbox.cif.g08.bks.cpg/sg15_91_cif.got.tgz:181896.got - 2010.06.03 18:47:42.
