data_PCOD9273844
_publ_section_title
;
Structure prediction by ZEFSAII (Michael W. Deem and Ramdas Pophale) SiO2 
 PCOD9273844
Probable space group: C 2/C
;
_chemical_formula_sum "Si O2"
_cell_formula_units_Z 52
_cell_length_a 21.218037
_cell_length_b 8.344346
_cell_length_c 14.554589
_cell_angle_alpha 90.000000
_cell_angle_beta 68.612238
_cell_angle_gamma 90.000000
_cell_volume 2399.437884
_symmetry_space_group_name_H-M "C 2/C"
_symmetry_group_IT_number 15
_symmetry_cell_setting 'monoclinic'
loop_
_space_group_symop_operation_xyz
x,y,z
-x,y,1/2-z
-x,-y,-z
x,-y,1/2+z
1/2+x,1/2+y,z
1/2-x,1/2+y,1/2-z
1/2-x,1/2-y,-z
1/2+x,1/2-y,1/2+z
loop_
_atom_site_type_symbol
_atom_site_label
_atom_site_fract_x
_atom_site_fract_y
_atom_site_fract_z
Si Si1 0.146126 0.194470 0.867712
Si Si2 0.798664 0.833255 0.349858
Si Si3 0.000000 0.271498 0.250000
Si Si4 0.153219 0.724405 0.995556
Si Si5 0.404542 0.660240 0.144972
Si Si6 0.117606 0.368645 0.059748
Si Si7 0.708741 0.289634 0.657970
O O1 0.161739 0.249905 0.755063
O O2 0.222396 0.193376 0.867111
O O3 0.113392 0.021338 0.871775
O O4 0.105504 0.298311 0.963963
O O5 0.846013 0.832433 0.414353
O O6 0.727441 0.748800 0.410788
O O7 0.780735 0.018831 0.339371
O O8 0.036899 0.169108 0.310242
O O9 0.053464 0.371939 0.161618
O O10 0.093763 0.753774 0.954293
O O11 0.149201 0.542746 0.031480
O O12 0.342794 0.745782 0.231908
O O13 0.170765 0.255785 0.084945
#
# Coordination Sequence:
#
# PCOD9273844 Si02
#       7
#     8   8   4   8   8   8   8
#     4  11  21  37  64  99 127 170 207 272 336 392
#     4  10  22  35  58  99 142 155 205 251 342 409
#     4  10  26  50  62  90 124 188 236 274 300 388
#     4  11  22  36  60  96 128 173 200 268 322 396
#     4  10  23  41  66  89 134 169 220 269 323 382
#     4  11  24  39  67  90 132 175 225 260 326 379
#     4  10  20  38  59  97 133 168 201 268 333 401
#
# _framework density 21.671742999999999
#
# number of rings (size 3 to 8) (size 9 to 14) (size 15 to 20)
#    0.000    1.538    3.077    1.385    4.308    3.692 
#    0.000    0.000    0.000    5.538    0.000    0.000 
#    0.000    0.000    0.000    0.000    0.000    0.000 
#
# Total GULP energy -145035.668469 kJ/mol
# GULP energy per Si atom -5578.294941 kJ/mol
# Density = 2.162242 g / cm^3
# Si number density = 21.671743 Si / 1000 Ang^3
#
#
#
# Elastic Constant Matrix: (Units=GPa)
#
#
# Indices 1 2 3 4 5 6 
#
# 1 51.5473 -6.6047 42.8822 0.0000 17.8026 0.0000
# 2 -6.6047 27.5774 16.2301 0.0000 3.7373 0.0000
# 3 42.8822 16.2301 137.5279 0.0000 17.2376 0.0000
# 4 0.0000 0.0000 0.0000 23.5903 0.0000 3.0921
# 5 17.8026 3.7373 17.2376 0.0000 40.7193 0.0000
# 6 0.0000 0.0000 0.0000 3.0921 0.0000 33.9123
#
#
#
# Elastic Compliance Matrix: (Units=1/GPa)
#
#
# Indices 1 2 3 4 5 6 
#
# 1 0.035286 0.016844 -0.011471 0.000000 -0.012117 0.000000
# 2 0.016844 0.047123 -0.009872 0.000000 -0.007510 0.000000
# 3 -0.011471 -0.009872 0.011903 0.000000 0.000883 0.000000
# 4 0.000000 0.000000 0.000000 0.042903 0.000000 -0.003912
# 5 -0.012117 -0.007510 0.000883 0.000000 0.030171 0.000000
# 6 0.000000 0.000000 0.000000 -0.003912 0.000000 0.029844
#
#
# Mechanical properties :
#
#
# Convention : Reuss Voigt Hill
#
# Bulk Modulus (GPa) = 11.72154 35.74087 23.73120
# Shear Modulus (GPa) = 21.30680 30.58739 25.94709
#
# Velocity S-wave (km/s) = 3.13894 3.76093 3.46392
# Velocity P-wave (km/s) = 4.30786 5.94871 5.19350
#
# Compressibility (1/GPa) = 0.08531305
#
# Stress axis : x y z
#
# Youngs Moduli (GPa) = 28.34008 21.22087 84.01578
#
# Poissons Ratio (x) = -0.35745 0.96379
# Poissons Ratio (y) = -0.47736 0.82940
# Poissons Ratio (z) = 0.32510 0.20949
#
# Static dielectric constant tensor:
#      x y z
#    x 1.832180 0.000000 0.004430 
#    y 0.000000 1.755020 0.000000 
#    z 0.004430 0.000000 1.859730 
# 
# From -- ./inp_files/166226.got.cif
#   From: 2010.05.17/outbox.cif.g08.bks.cpg/sg15_84_cif.got.tgz:166226.got - 2010.06.03 18:47:42.
