data_PCOD9273906
_publ_section_title
;
Structure prediction by ZEFSAII (Michael W. Deem and Ramdas Pophale) SiO2 
 PCOD9273906
Probable space group: C 2/C
;
_chemical_formula_sum "Si O2"
_cell_formula_units_Z 40
_cell_length_a 11.411894
_cell_length_b 13.476296
_cell_length_c 14.185562
_cell_angle_alpha 90.000000
_cell_angle_beta 124.031203
_cell_angle_gamma 90.000000
_cell_volume 1807.962446
_symmetry_space_group_name_H-M "C 2/C"
_symmetry_group_IT_number 15
_symmetry_cell_setting 'monoclinic'
loop_
_space_group_symop_operation_xyz
x,y,z
-x,y,1/2-z
-x,-y,-z
x,-y,1/2+z
1/2+x,1/2+y,z
1/2-x,1/2+y,1/2-z
1/2-x,1/2-y,-z
1/2+x,1/2-y,1/2+z
loop_
_atom_site_type_symbol
_atom_site_label
_atom_site_fract_x
_atom_site_fract_y
_atom_site_fract_z
Si Si1 0.046051 0.301927 0.426352
Si Si2 0.280961 0.665901 0.731319
Si Si3 0.192041 0.897405 0.048454
Si Si4 0.203373 0.892916 0.474788
Si Si5 0.485877 0.199682 0.104728
O O1 0.103246 0.189649 0.457745
O O2 0.146978 0.368184 0.407406
O O3 0.881511 0.304378 0.328111
O O4 0.054739 0.338563 0.538845
O O5 0.322897 0.609239 0.845557
O O6 0.296316 0.609386 0.639320
O O7 0.386894 0.760066 0.774702
O O8 0.151665 0.004346 0.992230
O O9 0.365582 0.876702 0.580962
O O10 0.109613 0.798000 0.462090
#
# Coordination Sequence:
#
# PCOD9273906 Si02
#       5
#     8   8   8   8   8
#     4   9  20  39  60  83 118 154 196 247 294 348
#     4  10  20  38  60  86 122 160 194 240 302 350
#     4  10  21  40  61  87 121 156 198 245 292 353
#     4  10  21  40  61  87 121 156 198 245 292 353
#     4   9  20  39  60  83 118 154 196 247 294 348
#
# _framework density 22.124352999999999
#
# number of rings (size 3 to 8) (size 9 to 14) (size 15 to 20)
#    0.000    2.400    0.000    1.200    0.000    6.400 
#    0.000   48.000    0.000    0.000    0.000    0.000 
#    0.000    0.000    0.000    0.000    0.000    0.000 
#
# Total GULP energy -111702.103574 kJ/mol
# GULP energy per Si atom -5585.105179 kJ/mol
# Density = 2.207400 g / cm^3
# Si number density = 22.124353 Si / 1000 Ang^3
#
#
#
# Elastic Constant Matrix: (Units=GPa)
#
#
# Indices 1 2 3 4 5 6 
#
# 1 97.5328 3.4901 31.1471 0.0000 -8.2535 0.0000
# 2 3.4901 53.4435 20.1366 0.0000 -13.8595 0.0000
# 3 31.1471 20.1366 98.2936 0.0000 -7.3085 0.0000
# 4 0.0000 0.0000 0.0000 19.6052 0.0000 -9.5222
# 5 -8.2535 -13.8595 -7.3085 0.0000 49.6001 0.0000
# 6 0.0000 0.0000 0.0000 -9.5222 0.0000 13.5627
#
#
#
# Elastic Compliance Matrix: (Units=1/GPa)
#
#
# Indices 1 2 3 4 5 6 
#
# 1 0.011557 0.001097 -0.003762 0.000000 0.001675 0.000000
# 2 0.001097 0.021748 -0.004386 0.000000 0.005613 0.000000
# 3 -0.003762 -0.004386 0.012261 0.000000 -0.000045 0.000000
# 4 0.000000 0.000000 0.000000 0.077400 0.000000 0.054342
# 5 0.001675 0.005613 -0.000045 0.000000 0.022002 0.000000
# 6 0.000000 0.000000 0.000000 0.054342 0.000000 0.111884
#
#
# Mechanical properties :
#
#
# Convention : Reuss Voigt Hill
#
# Bulk Modulus (GPa) = 31.78204 39.86863 35.82533
# Shear Modulus (GPa) = 17.76569 29.52001 23.64285
#
# Velocity S-wave (km/s) = 2.83679 3.65674 3.27254
# Velocity P-wave (km/s) = 5.01260 5.99069 5.52334
#
# Compressibility (1/GPa) = 0.03146431
#
# Stress axis : x y z
#
# Youngs Moduli (GPa) = 86.52770 45.98167 81.55979
#
# Poissons Ratio (x) = -0.05046 0.30686
# Poissons Ratio (y) = -0.09495 0.35769
# Poissons Ratio (z) = 0.32555 0.20166
#
# Static dielectric constant tensor:
#      x y z
#    x 1.854140 0.000000 -0.002120 
#    y 0.000000 1.783940 0.000000 
#    z -0.002120 0.000000 1.866020 
# 
# From -- ./inp_files/118687.got.cif
#   From: 2010.05.17/outbox.cif.g08.bks.cpg/sg15_60_cif.got.tgz:118687.got - 2010.06.03 18:47:42.
