data_PCOD9273212
_publ_section_title
;
Structure prediction by ZEFSAII (Michael W. Deem and Ramdas Pophale) SiO2 
 PCOD9273212
Probable space group: C 2/C
;
_chemical_formula_sum "Si O2"
_cell_formula_units_Z 64
_cell_length_a 13.203303
_cell_length_b 22.571730
_cell_length_c 11.361134
_cell_angle_alpha 90.000000
_cell_angle_beta 107.201766
_cell_angle_gamma 90.000000
_cell_volume 3234.408842
_symmetry_space_group_name_H-M "C 2/C"
_symmetry_group_IT_number 15
_symmetry_cell_setting 'monoclinic'
loop_
_space_group_symop_operation_xyz
x,y,z
-x,y,1/2-z
-x,-y,-z
x,-y,1/2+z
1/2+x,1/2+y,z
1/2-x,1/2+y,1/2-z
1/2-x,1/2-y,-z
1/2+x,1/2-y,1/2+z
loop_
_atom_site_type_symbol
_atom_site_label
_atom_site_fract_x
_atom_site_fract_y
_atom_site_fract_z
Si Si1 0.788213 0.556554 0.238053
Si Si2 0.710615 0.613841 0.577001
Si Si3 0.139397 0.252247 0.891148
Si Si4 0.911925 0.224347 0.890839
Si Si5 0.618088 0.510316 0.998143
Si Si6 0.908945 0.387472 0.579457
Si Si7 0.633000 0.142086 0.058613
Si Si8 0.256153 0.437692 0.156522
O O1 0.881069 0.567099 0.174313
O O2 0.784909 0.614680 0.318169
O O3 0.800240 0.499226 0.324608
O O4 0.684711 0.543406 0.123454
O O5 0.635882 0.671130 0.549996
O O6 0.665938 0.555301 0.499413
O O7 0.822081 0.627638 0.553919
O O8 0.718999 0.595637 0.715574
O O9 0.138175 0.226245 0.758630
O O10 0.106307 0.321586 0.873218
O O11 0.039548 0.221178 0.921454
O O12 0.250000 0.250000 0.000000
O O13 0.883216 0.288113 0.934475
O O14 0.640981 0.545530 0.885856
O O15 0.500000 0.500000 0.000000
O O16 0.820841 0.399541 0.450988
O O17 0.023061 0.389119 0.557790
#
# Coordination Sequence:
#
# PCOD9273212 Si02
#       8
#     8   8   8   8   8   8   8   8
#     4  10  20  38  61  87 120 156 203 249 304 359
#     4  11  23  40  60  88 127 162 202 256 305 374
#     4  10  20  37  63  92 120 160 209 257 307 368
#     4  10  22  38  63  91 123 166 203 254 315 369
#     4  10  23  41  63  86 121 160 206 260 306 361
#     4  10  21  38  62  88 124 159 200 259 301 361
#     4  11  21  41  60  89 126 162 203 248 312 371
#     4  10  22  41  59  94 119 160 208 250 308 364
#
# _framework density 19.787231999999999
#
# number of rings (size 3 to 8) (size 9 to 14) (size 15 to 20)
#    0.000    1.750    2.500    1.500    0.000    7.000 
#    4.500    0.000    0.000    1.500    0.000    0.000 
#    0.000    0.000    0.000    0.000    0.000    0.000 
#
# Total GULP energy -178593.615125 kJ/mol
# GULP energy per Si atom -5581.050473 kJ/mol
# Density = 1.974220 g / cm^3
# Si number density = 19.787232 Si / 1000 Ang^3
#
#
#
# Elastic Constant Matrix: (Units=GPa)
#
#
# Indices 1 2 3 4 5 6 
#
# 1 133.7011 31.6553 50.2739 0.0000 -9.0163 0.0000
# 2 31.6553 55.4116 14.3781 0.0000 -10.3856 0.0000
# 3 50.2739 14.3781 62.3101 0.0000 -13.3979 0.0000
# 4 0.0000 0.0000 0.0000 25.6965 0.0000 -7.5603
# 5 -9.0163 -10.3856 -13.3979 0.0000 30.7327 0.0000
# 6 0.0000 0.0000 0.0000 -7.5603 0.0000 27.3003
#
#
#
# Elastic Compliance Matrix: (Units=1/GPa)
#
#
# Indices 1 2 3 4 5 6 
#
# 1 0.011816 -0.004833 -0.008854 0.000000 -0.002027 0.000000
# 2 -0.004833 0.021903 0.000145 0.000000 0.006047 0.000000
# 3 -0.008854 0.000145 0.024950 0.000000 0.008328 0.000000
# 4 0.000000 0.000000 0.000000 0.042368 0.000000 0.011733
# 5 -0.002027 0.006047 0.008328 0.000000 0.037618 0.000000
# 6 0.000000 0.000000 0.000000 0.011733 0.000000 0.039879
#
#
# Mechanical properties :
#
#
# Convention : Reuss Voigt Hill
#
# Bulk Modulus (GPa) = 31.65956 49.33750 40.49853
# Shear Modulus (GPa) = 23.13239 27.08693 25.10966
#
# Velocity S-wave (km/s) = 3.42286 3.70389 3.56614
# Velocity P-wave (km/s) = 5.62637 6.57875 6.12111
#
# Compressibility (1/GPa) = 0.03158603
#
# Stress axis : x y z
#
# Youngs Moduli (GPa) = 84.62873 45.65523 40.08010
#
# Poissons Ratio (x) = 0.22064 0.35489
# Poissons Ratio (y) = 0.40898 -0.00582
# Poissons Ratio (z) = 0.74934 -0.00663
#
# Static dielectric constant tensor:
#      x y z
#    x 1.709550 0.000000 0.002380 
#    y 0.000000 1.703990 0.000000 
#    z 0.002380 0.000000 1.711300 
# 
# From -- ./inp_files/90859.got.cif
#   From: 2010.05.17/outbox.cif.g08.bks.cpg/sg15_46_cif.got.tgz:90859.got - 2010.06.03 18:47:42.
