data_PCOD9273502
_publ_section_title
;
Structure prediction by ZEFSAII (Michael W. Deem and Ramdas Pophale) SiO2 
 PCOD9273502
Probable space group: C 2/C
;
_chemical_formula_sum "Si O2"
_cell_formula_units_Z 56
_cell_length_a 13.327259
_cell_length_b 17.128687
_cell_length_c 19.152394
_cell_angle_alpha 90.000000
_cell_angle_beta 31.201643
_cell_angle_gamma 90.000000
_cell_volume 2264.962132
_symmetry_space_group_name_H-M "C 2/C"
_symmetry_group_IT_number 15
_symmetry_cell_setting 'monoclinic'
loop_
_space_group_symop_operation_xyz
x,y,z
-x,y,1/2-z
-x,-y,-z
x,-y,1/2+z
1/2+x,1/2+y,z
1/2-x,1/2+y,1/2-z
1/2-x,1/2-y,-z
1/2+x,1/2-y,1/2+z
loop_
_atom_site_type_symbol
_atom_site_label
_atom_site_fract_x
_atom_site_fract_y
_atom_site_fract_z
Si Si1 0.072035 0.732559 0.053601
Si Si2 0.051659 0.891898 0.874846
Si Si3 0.472269 0.234170 0.849634
Si Si4 0.769108 0.504120 0.131361
Si Si5 0.835002 0.175505 0.790564
Si Si6 0.353880 0.067218 0.934502
Si Si7 0.586010 0.909151 0.770008
O O1 0.914570 0.796943 0.168688
O O2 0.990012 0.648174 0.124506
O O3 0.250000 0.750000 0.000000
O O4 0.149274 0.723278 0.929369
O O5 0.181706 0.905605 0.866125
O O6 0.073150 0.804643 0.830687
O O7 0.163069 0.947182 0.753710
O O8 0.823824 0.914098 0.012808
O O9 0.500000 0.241572 0.750000
O O10 0.490578 0.143241 0.859786
O O11 0.250000 0.250000 0.000000
O O12 0.699109 0.415831 0.181085
O O13 0.742471 0.545246 0.072340
O O14 0.000000 0.500000 0.000000
O O15 0.000000 0.193072 0.750000
O O16 0.487179 0.993427 0.837226
O O17 0.500000 0.875948 0.750000
#
# Coordination Sequence:
#
# PCOD9273502 Si02
#       7
#     8   8   8   8   8   8   8
#     4  10  21  40  62  98 138 189 233 292 368 438
#     4  11  24  43  71 104 144 197 248 319 379 440
#     4  10  22  45  75 111 146 196 255 320 378 450
#     4  12  22  41  70 107 141 189 250 309 371 450
#     4  10  20  37  66  97 139 183 235 289 366 436
#     4  11  23  44  73 105 147 190 255 310 376 453
#     4  12  25  45  67 101 150 193 251 307 379 457
#
# _framework density 24.724475999999999
#
# number of rings (size 3 to 8) (size 9 to 14) (size 15 to 20)
#    0.000    1.143    2.857    4.714    2.000    1.714 
#    0.000    7.143    0.000    0.000    0.000    0.000 
#    0.000    0.000    0.000    0.000    0.000    0.000 
#
# Total GULP energy -156688.508882 kJ/mol
# GULP energy per Si atom -5596.018174 kJ/mol
# Density = 2.466820 g / cm^3
# Si number density = 24.724476 Si / 1000 Ang^3
#
#
#
# Elastic Constant Matrix: (Units=GPa)
#
#
# Indices 1 2 3 4 5 6 
#
# 1 93.0950 36.0829 27.4724 0.0007 -20.4267 -0.0012
# 2 36.0829 177.9077 55.8313 0.0064 -9.5856 0.0011
# 3 27.4724 55.8313 106.1527 0.0071 3.3858 -0.0033
# 4 0.0007 0.0064 0.0071 52.3796 -0.0010 -6.4392
# 5 -20.4267 -9.5856 3.3858 -0.0010 46.5263 0.0023
# 6 -0.0012 0.0011 -0.0033 -6.4392 0.0023 27.2984
#
#
#
# Elastic Compliance Matrix: (Units=1/GPa)
#
#
# Indices 1 2 3 4 5 6 
#
# 1 0.013448 -0.001515 -0.002869 0.000000 0.005801 0.000000
# 2 -0.001515 0.007031 -0.003339 0.000000 0.001027 -0.000001
# 3 -0.002869 -0.003339 0.012009 -0.000001 -0.002821 0.000001
# 4 0.000000 0.000000 -0.000001 0.019662 0.000000 0.004638
# 5 0.005801 0.001027 -0.002821 0.000000 0.024457 -0.000002
# 6 0.000000 -0.000001 0.000001 0.004638 -0.000002 0.037726
#
#
# Mechanical properties :
#
#
# Convention : Reuss Voigt Hill
#
# Bulk Modulus (GPa) = 58.67264 68.43648 63.55456
# Shear Modulus (GPa) = 36.91165 42.42546 39.66855
#
# Velocity S-wave (km/s) = 3.86802 4.14687 4.00987
# Velocity P-wave (km/s) = 6.61294 7.11818 6.87020
#
# Compressibility (1/GPa) = 0.01704372
#
# Stress axis : x y z
#
# Youngs Moduli (GPa) = 74.35938 142.22310 83.27174
#
# Poissons Ratio (x) = 0.21543 0.23889
# Poissons Ratio (y) = 0.11263 0.27803
# Poissons Ratio (z) = 0.21332 0.47486
#
# Static dielectric constant tensor:
#      x y z
#    x 2.052450 0.000000 -0.031860 
#    y 0.000000 1.978720 0.000000 
#    z -0.031860 0.000000 1.962950 
# 
# From -- ./inp_files/245113.got.cif
#   From: 2010.05.17/outbox.cif.g08.bks.cpg/sg15_123_cif.got.tgz:245113.got - 2010.06.03 18:47:42.
