data_PCOD9273739
_publ_section_title
;
Structure prediction by ZEFSAII (Michael W. Deem and Ramdas Pophale) SiO2 
 PCOD9273739
Probable space group: C 2/C
;
_chemical_formula_sum "Si O2"
_cell_formula_units_Z 52
_cell_length_a 18.754083
_cell_length_b 8.955651
_cell_length_c 14.553428
_cell_angle_alpha 90.000000
_cell_angle_beta 123.700220
_cell_angle_gamma 90.000000
_cell_volume 2033.557992
_symmetry_space_group_name_H-M "C 2/C"
_symmetry_group_IT_number 15
_symmetry_cell_setting 'monoclinic'
loop_
_space_group_symop_operation_xyz
x,y,z
-x,y,1/2-z
-x,-y,-z
x,-y,1/2+z
1/2+x,1/2+y,z
1/2-x,1/2+y,1/2-z
1/2-x,1/2-y,-z
1/2+x,1/2-y,1/2+z
loop_
_atom_site_type_symbol
_atom_site_label
_atom_site_fract_x
_atom_site_fract_y
_atom_site_fract_z
Si Si1 0.821446 0.567167 0.587558
Si Si2 0.121649 0.850421 0.763613
Si Si3 0.237889 0.395031 0.792805
Si Si4 0.904240 0.839594 0.295730
Si Si5 0.002723 0.250892 0.026585
Si Si6 0.630218 0.022442 0.562919
Si Si7 0.500000 0.099558 0.250000
O O1 0.836200 0.736508 0.633516
O O2 0.755088 0.477786 0.604978
O O3 0.803884 0.524427 0.469511
O O4 0.916466 0.495074 0.666455
O O5 0.184493 0.877324 0.721091
O O6 0.036082 0.789804 0.651743
O O7 0.098864 0.019663 0.773471
O O8 0.189094 0.237023 0.765943
O O9 0.171498 0.502501 0.691797
O O10 0.946042 0.865699 0.426703
O O11 0.965004 0.709569 0.302232
O O12 0.085498 0.316855 0.030810
O O13 0.940580 0.392557 0.993889
#
# Coordination Sequence:
#
# PCOD9273739 Si02
#       7
#     8   8   8   8   8   8   4
#     4  11  21  38  68  89 121 175 217 256 312 390
#     4  12  23  38  63  95 127 169 208 264 321 375
#     4  10  23  42  62  91 133 172 206 258 323 381
#     4  10  22  38  60  91 131 162 203 271 318 359
#     4  10  20  39  63  93 126 161 216 267 309 373
#     4  10  20  40  67  94 118 168 225 257 304 386
#     4  10  20  38  58  90 122 160 216 256 312 374
#
# _framework density 25.570945999999999
#
# number of rings (size 3 to 8) (size 9 to 14) (size 15 to 20)
#    0.000    1.538    3.077    2.308    0.000    2.462 
#    0.000    2.308    0.000    0.000    0.000    0.000 
#    0.000    0.000    0.000    0.000    0.000    0.000 
#
# Total GULP energy -145316.528475 kJ/mol
# GULP energy per Si atom -5589.097249 kJ/mol
# Density = 2.551275 g / cm^3
# Si number density = 25.570946 Si / 1000 Ang^3
#
#
#
# Elastic Constant Matrix: (Units=GPa)
#
#
# Indices 1 2 3 4 5 6 
#
# 1 81.9779 5.6968 -10.7942 0.0000 -14.3983 0.0000
# 2 5.6968 104.3347 13.0006 0.0000 -3.0460 0.0000
# 3 -10.7942 13.0006 48.3130 0.0000 -17.5598 0.0000
# 4 0.0000 0.0000 0.0000 33.1813 0.0000 6.5644
# 5 -14.3983 -3.0460 -17.5598 0.0000 37.7971 0.0000
# 6 0.0000 0.0000 0.0000 6.5644 0.0000 26.2039
#
#
#
# Elastic Compliance Matrix: (Units=1/GPa)
#
#
# Indices 1 2 3 4 5 6 
#
# 1 0.014712 -0.001399 0.006809 0.000000 0.008655 0.000000
# 2 -0.001399 0.010059 -0.003511 0.000000 -0.001354 0.000000
# 3 0.006809 -0.003511 0.028881 0.000000 0.015729 0.000000
# 4 0.000000 0.000000 0.000000 0.031709 0.000000 -0.007943
# 5 0.008655 -0.001354 0.015729 0.000000 0.036952 0.000000
# 6 0.000000 0.000000 0.000000 -0.007943 0.000000 0.040152
#
#
# Mechanical properties :
#
#
# Convention : Reuss Voigt Hill
#
# Bulk Modulus (GPa) = 17.40627 27.82578 22.61603
# Shear Modulus (GPa) = 28.11858 34.55130 31.33494
#
# Velocity S-wave (km/s) = 3.31966 3.67985 3.50439
# Velocity P-wave (km/s) = 4.63847 5.38149 5.02374
#
# Compressibility (1/GPa) = 0.05745056
#
# Stress axis : x y z
#
# Youngs Moduli (GPa) = 67.96976 99.41405 34.62446
#
# Poissons Ratio (x) = 0.13909 -0.23577
# Poissons Ratio (y) = 0.09510 0.12158
# Poissons Ratio (z) = -0.46283 0.34908
#
# Static dielectric constant tensor:
#      x y z
#    x 2.067420 0.000000 -0.020200 
#    y 0.000000 2.047620 0.000000 
#    z -0.020200 0.000000 2.077390 
# 
# From -- ./inp_files/214345.got.cif
#   From: 2010.05.17/outbox.cif.g08.bks.cpg/sg15_108_cif.got.tgz:214345.got - 2010.06.03 18:47:42.
