data_PCOD9273623
_publ_section_title
;
Structure prediction by ZEFSAII (Michael W. Deem and Ramdas Pophale) SiO2 
 PCOD9273623
Probable space group: C 2/C
;
_chemical_formula_sum "Si O2"
_cell_formula_units_Z 56
_cell_length_a 9.071441
_cell_length_b 16.147917
_cell_length_c 21.285831
_cell_angle_alpha 90.000000
_cell_angle_beta 79.705063
_cell_angle_gamma 90.000000
_cell_volume 3067.854280
_symmetry_space_group_name_H-M "C 2/C"
_symmetry_group_IT_number 15
_symmetry_cell_setting 'monoclinic'
loop_
_space_group_symop_operation_xyz
x,y,z
-x,y,1/2-z
-x,-y,-z
x,-y,1/2+z
1/2+x,1/2+y,z
1/2-x,1/2+y,1/2-z
1/2-x,1/2-y,-z
1/2+x,1/2-y,1/2+z
loop_
_atom_site_type_symbol
_atom_site_label
_atom_site_fract_x
_atom_site_fract_y
_atom_site_fract_z
Si Si1 0.344598 0.585615 0.231203
Si Si2 0.243551 0.025646 0.009115
Si Si3 0.700528 0.738979 0.431965
Si Si4 0.061190 0.482566 0.812089
Si Si5 0.568543 0.441921 0.911235
Si Si6 0.102243 0.305825 0.689424
Si Si7 0.964132 0.404802 0.063435
O O1 0.500000 0.608787 0.250000
O O2 0.236183 0.535452 0.286135
O O3 0.381513 0.538973 0.163374
O O4 0.249220 0.664421 0.215799
O O5 0.375534 0.089992 0.983273
O O6 0.155956 0.001522 0.952401
O O7 0.110089 0.051839 0.065741
O O8 0.337139 0.948290 0.029712
O O9 0.750000 0.750000 0.500000
O O10 0.624474 0.650079 0.425525
O O11 0.845384 0.742506 0.375441
O O12 0.588231 0.811927 0.421718
O O13 0.030082 0.540196 0.873617
O O14 0.000000 0.516303 0.750000
O O15 0.979418 0.392438 0.824785
O O16 0.000000 0.263636 0.750000
#
# Coordination Sequence:
#
# PCOD9273623 Si02
#       7
#     8   8   8   8   8   8   8
#     4   9  16  30  55  82 103 134 183 224 267 317
#     4  10  21  35  57  79 110 144 190 222 271 323
#     4  11  21  36  57  83 115 146 183 230 286 327
#     4   9  18  34  58  79 104 144 188 223 265 330
#     4  10  20  38  56  80 115 144 178 231 279 326
#     4   8  18  36  58  76 107 150 186 220 276 336
#     4  11  21  34  57  85 107 146 187 227 269 330
#
# _framework density 18.253800999999999
#
# number of rings (size 3 to 8) (size 9 to 14) (size 15 to 20)
#    0.000    2.571    1.429    3.429    2.000    0.571 
#    0.000    5.000    3.143    0.000    0.000    0.000 
#    0.000    0.000    0.000    0.000    0.000    0.000 
#
# Total GULP energy -156041.125593 kJ/mol
# GULP energy per Si atom -5572.897343 kJ/mol
# Density = 1.821225 g / cm^3
# Si number density = 18.253801 Si / 1000 Ang^3
#
#
#
# Elastic Constant Matrix: (Units=GPa)
#
#
# Indices 1 2 3 4 5 6 
#
# 1 116.7724 4.9293 28.4089 0.0000 -21.1255 0.0000
# 2 4.9293 31.2994 -10.5625 0.0000 -7.7351 0.0000
# 3 28.4089 -10.5625 55.6945 0.0000 -12.0306 0.0000
# 4 0.0000 0.0000 0.0000 22.5525 0.0000 -3.1904
# 5 -21.1255 -7.7351 -12.0306 0.0000 33.0952 0.0000
# 6 0.0000 0.0000 0.0000 -3.1904 0.0000 12.5273
#
#
#
# Elastic Compliance Matrix: (Units=1/GPa)
#
#
# Indices 1 2 3 4 5 6 
#
# 1 0.010661 -0.002211 -0.004883 0.000000 0.004514 0.000000
# 2 -0.002211 0.038911 0.011033 0.000000 0.011694 0.000000
# 3 -0.004883 0.011033 0.024333 0.000000 0.008307 0.000000
# 4 0.000000 0.000000 0.000000 0.045998 0.000000 0.011715
# 5 0.004514 0.011694 0.008307 0.000000 0.038850 0.000000
# 6 0.000000 0.000000 0.000000 0.011715 0.000000 0.082809
#
#
# Mechanical properties :
#
#
# Convention : Reuss Voigt Hill
#
# Bulk Modulus (GPa) = 12.22731 27.70198 19.96465
# Shear Modulus (GPa) = 19.16114 25.70103 22.43109
#
# Velocity S-wave (km/s) = 3.24343 3.75638 3.50929
# Velocity P-wave (km/s) = 4.55407 5.83291 5.23270
#
# Compressibility (1/GPa) = 0.08178411
#
# Stress axis : x y z
#
# Youngs Moduli (GPa) = 93.79573 25.69965 41.09715
#
# Poissons Ratio (x) = 0.05683 0.20066
# Poissons Ratio (y) = 0.20741 -0.45344
# Poissons Ratio (z) = 0.45797 -0.28355
#
# Static dielectric constant tensor:
#      x y z
#    x 1.640470 0.000000 -0.022090 
#    y 0.000000 1.608730 0.000000 
#    z -0.022090 0.000000 1.662990 
# 
# From -- ./inp_files/232141.got.cif
#   From: 2010.05.17/outbox.cif.g08.bks.cpg/sg15_117_cif.got.tgz:232141.got - 2010.06.03 18:47:42.
