data_PCOD9273677
_publ_section_title
;
Structure prediction by ZEFSAII (Michael W. Deem and Ramdas Pophale) SiO2 
 PCOD9273677
Probable space group: C 2/C
;
_chemical_formula_sum "Si O2"
_cell_formula_units_Z 60
_cell_length_a 13.918360
_cell_length_b 28.838565
_cell_length_c 8.858511
_cell_angle_alpha 90.000000
_cell_angle_beta 100.446608
_cell_angle_gamma 90.000000
_cell_volume 3496.740274
_symmetry_space_group_name_H-M "C 2/C"
_symmetry_group_IT_number 15
_symmetry_cell_setting 'monoclinic'
loop_
_space_group_symop_operation_xyz
x,y,z
-x,y,1/2-z
-x,-y,-z
x,-y,1/2+z
1/2+x,1/2+y,z
1/2-x,1/2+y,1/2-z
1/2-x,1/2-y,-z
1/2+x,1/2-y,1/2+z
loop_
_atom_site_type_symbol
_atom_site_label
_atom_site_fract_x
_atom_site_fract_y
_atom_site_fract_z
Si Si1 0.958327 0.144462 0.567995
Si Si2 0.500000 0.493505 0.250000
Si Si3 0.582503 0.436085 0.008140
Si Si4 0.203792 0.809305 0.346814
Si Si5 0.423470 0.716162 0.095866
Si Si6 0.117364 0.286665 0.902387
Si Si7 0.771897 0.146639 0.977404
Si Si8 0.603651 0.809651 0.573767
O O1 0.844252 0.152287 0.558306
O O2 0.000000 0.139792 0.750000
O O3 0.992163 0.100377 0.482552
O O4 0.010349 0.188071 0.504647
O O5 0.569184 0.462225 0.163691
O O6 0.565515 0.526120 0.375069
O O7 0.677539 0.403631 0.017449
O O8 0.129029 0.766044 0.343233
O O9 0.305706 0.792507 0.442404
O O10 0.214844 0.829312 0.183022
O O11 0.500000 0.728002 0.250000
O O12 0.337464 0.679444 0.107192
O O13 0.375492 0.761819 0.010593
O O14 0.142289 0.313531 0.755815
O O15 0.012896 0.303822 0.933221
O O16 0.659716 0.150946 0.995985
#
# Coordination Sequence:
#
# PCOD9273677 Si02
#       8
#     8   4   8   8   8   8   8   8
#     4  11  18  35  53  75 113 144 183 221 265 321
#     4  10  20  38  58  78 118 134 172 214 290 360
#     4  10  21  35  56  85 106 145 164 220 282 342
#     4  11  20  34  52  71 103 151 194 225 260 316
#     4  11  23  31  50  75 108 154 193 230 260 301
#     4  10  23  34  50  70 101 158 196 223 272 294
#     4  11  23  34  53  79 109 139 192 232 267 322
#     4  11  22  37  47  70 111 145 199 235 259 305
#
# _framework density 17.158837999999999
#
# number of rings (size 3 to 8) (size 9 to 14) (size 15 to 20)
#    0.000    1.333    6.000    0.400    7.467    0.000 
#    0.000    0.000    0.000    0.000    0.000    0.000 
#    0.000   36.267    0.000    0.000    0.000    0.000 
#
# Total GULP energy -167145.579541 kJ/mol
# GULP energy per Si atom -5571.519318 kJ/mol
# Density = 1.711978 g / cm^3
# Si number density = 17.158838 Si / 1000 Ang^3
#
#
#
# Elastic Constant Matrix: (Units=GPa)
#
#
# Indices 1 2 3 4 5 6 
#
# 1 84.6134 33.0527 34.2745 0.0000 -22.1233 0.0000
# 2 33.0527 80.4750 32.5649 0.0000 -13.0598 0.0000
# 3 34.2745 32.5649 55.4642 0.0000 -6.0262 0.0000
# 4 0.0000 0.0000 0.0000 16.3913 0.0000 -6.1219
# 5 -22.1233 -13.0598 -6.0262 0.0000 26.1374 0.0000
# 6 0.0000 0.0000 0.0000 -6.1219 0.0000 21.0847
#
#
#
# Elastic Compliance Matrix: (Units=1/GPa)
#
#
# Indices 1 2 3 4 5 6 
#
# 1 0.020196 -0.002115 -0.009740 0.000000 0.013792 0.000000
# 2 -0.002115 0.017523 -0.008436 0.000000 0.005020 0.000000
# 3 -0.009740 -0.008436 0.028358 0.000000 -0.005921 0.000000
# 4 0.000000 0.000000 0.000000 0.068428 0.000000 0.019868
# 5 0.013792 0.005020 -0.005921 0.000000 0.051076 0.000000
# 6 0.000000 0.000000 0.000000 0.019868 0.000000 0.053196
#
#
# Mechanical properties :
#
#
# Convention : Reuss Voigt Hill
#
# Bulk Modulus (GPa) = 39.22274 46.70410 42.96342
# Shear Modulus (GPa) = 17.36955 20.76672 19.06814
#
# Velocity S-wave (km/s) = 3.18509 3.48266 3.33719
# Velocity P-wave (km/s) = 6.03611 6.59164 6.31998
#
# Compressibility (1/GPa) = 0.02549541
#
# Stress axis : x y z
#
# Youngs Moduli (GPa) = 49.51409 57.06643 35.26327
#
# Poissons Ratio (x) = 0.12072 0.34346
# Poissons Ratio (y) = 0.10475 0.29748
# Poissons Ratio (z) = 0.48226 0.48140
#
# Static dielectric constant tensor:
#      x y z
#    x 1.627810 0.000000 -0.007500 
#    y 0.000000 1.592170 0.000000 
#    z -0.007500 0.000000 1.634030 
# 
# From -- ./inp_files/43183.got.cif
#   From: 2010.05.17/outbox.cif.g08.bks.cpg/sg15_22_cif.got.tgz:43183.got - 2010.06.03 18:47:42.
