data_PCOD9273727
_publ_section_title
;
Structure prediction by ZEFSAII (Michael W. Deem and Ramdas Pophale) SiO2 
 PCOD9273727
Probable space group: C 2/C
;
_chemical_formula_sum "Si O2"
_cell_formula_units_Z 44
_cell_length_a 24.102095
_cell_length_b 5.171755
_cell_length_c 14.209395
_cell_angle_alpha 90.000000
_cell_angle_beta 73.257976
_cell_angle_gamma 90.000000
_cell_volume 1696.124251
_symmetry_space_group_name_H-M "C 2/C"
_symmetry_group_IT_number 15
_symmetry_cell_setting 'monoclinic'
loop_
_space_group_symop_operation_xyz
x,y,z
-x,y,1/2-z
-x,-y,-z
x,-y,1/2+z
1/2+x,1/2+y,z
1/2-x,1/2+y,1/2-z
1/2-x,1/2-y,-z
1/2+x,1/2-y,1/2+z
loop_
_atom_site_type_symbol
_atom_site_label
_atom_site_fract_x
_atom_site_fract_y
_atom_site_fract_z
Si Si1 0.876072 0.649108 0.008709
Si Si2 0.169662 0.743273 0.828034
Si Si3 0.000000 0.116471 0.250000
Si Si4 0.778769 0.999530 0.534423
Si Si5 0.612936 0.975034 0.194865
Si Si6 0.564557 0.624693 0.866310
O O1 0.845903 0.911860 0.987339
O O2 0.878039 0.467402 0.917958
O O3 0.834965 0.513523 0.106248
O O4 0.934249 0.710024 0.038770
O O5 0.166976 0.666655 0.719799
O O6 0.106837 0.885071 0.867876
O O7 0.217089 0.921931 0.855495
O O8 0.056854 0.290460 0.220341
O O9 0.005868 0.953051 0.343188
O O10 0.750000 0.250000 0.500000
O O11 0.750000 0.750000 0.500000
O O12 0.597159 0.214201 0.268410
#
# Coordination Sequence:
#
# PCOD9273727 Si02
#       6
#     8   8   4   8   8   8
#     4  10  21  39  65  94 123 175 215 262 338 390
#     4   9  20  39  61  90 130 166 209 273 325 378
#     4  10  20  38  58  88 128 168 212 276 326 382
#     4  11  21  40  68  93 130 166 208 262 322 382
#     4  10  21  39  62  90 127 169 222 267 324 400
#     4   9  20  37  60  87 126 167 208 273 326 378
#
# _framework density 25.941493999999999
#
# number of rings (size 3 to 8) (size 9 to 14) (size 15 to 20)
#    0.000    2.182    1.818    0.545    0.000    6.545 
#    0.000   14.545    0.000    0.000    0.000    0.000 
#    0.000    0.000    0.000    0.000    0.000    0.000 
#
# Total GULP energy -122662.032181 kJ/mol
# GULP energy per Si atom -5575.546917 kJ/mol
# Density = 2.588245 g / cm^3
# Si number density = 25.941494 Si / 1000 Ang^3
#
#
#
# Elastic Constant Matrix: (Units=GPa)
#
#
# Indices 1 2 3 4 5 6 
#
# 1 104.6124 40.3153 48.1854 0.0000 47.5120 0.0000
# 2 40.3153 139.1899 48.1104 0.0000 30.6399 0.0000
# 3 48.1854 48.1104 139.5764 0.0000 42.2148 0.0000
# 4 0.0000 0.0000 0.0000 24.8462 0.0000 19.6855
# 5 47.5120 30.6399 42.2148 0.0000 46.7450 0.0000
# 6 0.0000 0.0000 0.0000 19.6855 0.0000 30.2355
#
#
#
# Elastic Compliance Matrix: (Units=1/GPa)
#
#
# Indices 1 2 3 4 5 6 
#
# 1 0.018026 -0.001271 -0.000682 0.000000 -0.016873 0.000000
# 2 -0.001271 0.008786 -0.001704 0.000000 -0.002928 0.000000
# 3 -0.000682 -0.001704 0.010236 0.000000 -0.007434 0.000000
# 4 0.000000 0.000000 0.000000 0.083128 0.000000 -0.054123
# 5 -0.016873 -0.002928 -0.007434 0.000000 0.047175 0.000000
# 6 0.000000 0.000000 0.000000 -0.054123 0.000000 0.068311
#
#
# Mechanical properties :
#
#
# Convention : Reuss Voigt Hill
#
# Bulk Modulus (GPa) = 33.63129 72.95564 53.29347
# Shear Modulus (GPa) = 19.77154 36.81651 28.29403
#
# Velocity S-wave (km/s) = 2.76372 3.77133 3.30614
# Velocity P-wave (km/s) = 4.81421 6.86645 5.92979
#
# Compressibility (1/GPa) = 0.02973421
#
# Stress axis : x y z
#
# Youngs Moduli (GPa) = 55.47437 113.81499 97.69834
#
# Poissons Ratio (x) = 0.14469 0.06660
# Poissons Ratio (y) = 0.07052 0.16648
# Poissons Ratio (z) = 0.03781 0.19394
#
# Static dielectric constant tensor:
#      x y z
#    x 2.089700 0.000000 -0.063470 
#    y 0.000000 2.214880 0.000000 
#    z -0.063470 0.000000 2.157880 
# 
# From -- ./inp_files/175449.got.cif
#   From: 2010.05.17/outbox.cif.g08.bks.cpg/sg15_88_cif.got.tgz:175449.got - 2010.06.03 18:47:42.
