data_PCOD9273390
_publ_section_title
;
Structure prediction by ZEFSAII (Michael W. Deem and Ramdas Pophale) SiO2 
 PCOD9273390
Probable space group: C 2/C
;
_chemical_formula_sum "Si O2"
_cell_formula_units_Z 40
_cell_length_a 8.442285
_cell_length_b 17.131719
_cell_length_c 12.610755
_cell_angle_alpha 90.000000
_cell_angle_beta 100.478353
_cell_angle_gamma 90.000000
_cell_volume 1793.488273
_symmetry_space_group_name_H-M "C 2/C"
_symmetry_group_IT_number 15
_symmetry_cell_setting 'monoclinic'
loop_
_space_group_symop_operation_xyz
x,y,z
-x,y,1/2-z
-x,-y,-z
x,-y,1/2+z
1/2+x,1/2+y,z
1/2-x,1/2+y,1/2-z
1/2-x,1/2-y,-z
1/2+x,1/2-y,1/2+z
loop_
_atom_site_type_symbol
_atom_site_label
_atom_site_fract_x
_atom_site_fract_y
_atom_site_fract_z
Si Si1 0.769052 0.135077 0.347585
Si Si2 0.006992 0.719402 0.591915
Si Si3 0.136012 0.562756 0.547574
Si Si4 0.276522 0.813262 0.879289
Si Si5 0.074702 0.040388 0.404968
O O1 0.684767 0.100777 0.440308
O O2 0.675509 0.152121 0.227864
O O3 0.854271 0.216331 0.389242
O O4 0.913103 0.075157 0.332448
O O5 0.862397 0.747982 0.650579
O O6 0.920661 0.719336 0.465937
O O7 0.069025 0.631889 0.612480
O O8 0.294252 0.522754 0.617578
O O9 0.000000 0.500000 0.500000
O O10 0.186280 0.882535 0.933387
O O11 0.000000 0.000000 0.500000
#
# Coordination Sequence:
#
# PCOD9273390 Si02
#       5
#     8   8   8   8   8
#     4  10  22  40  66  89 123 169 217 252 309 386
#     4  10  20  37  65  87 124 167 207 264 310 366
#     4  11  21  38  62  93 124 160 206 262 325 367
#     4  10  20  39  65  89 119 170 217 251 309 380
#     4   9  18  35  60  85 117 161 200 252 316 371
#
# _framework density 22.302904999999999
#
# number of rings (size 3 to 8) (size 9 to 14) (size 15 to 20)
#    0.000    2.000    2.000    3.000    0.000    0.800 
#    0.000    4.000   22.000    0.000    0.000    0.000 
#    0.000    0.000    0.000    0.000    0.000    0.000 
#
# Total GULP energy -111583.528938 kJ/mol
# GULP energy per Si atom -5579.176447 kJ/mol
# Density = 2.225214 g / cm^3
# Si number density = 22.302905 Si / 1000 Ang^3
#
#
#
# Elastic Constant Matrix: (Units=GPa)
#
#
# Indices 1 2 3 4 5 6 
#
# 1 81.2167 50.5218 13.0661 0.0000 -8.3651 0.0000
# 2 50.5218 134.7281 21.0659 0.0000 -13.5335 0.0000
# 3 13.0661 21.0659 79.2422 0.0000 2.0734 0.0000
# 4 0.0000 0.0000 0.0000 31.1910 0.0000 -4.0586
# 5 -8.3651 -13.5335 2.0734 0.0000 30.1995 0.0000
# 6 0.0000 0.0000 0.0000 -4.0586 0.0000 43.7085
#
#
#
# Elastic Compliance Matrix: (Units=1/GPa)
#
#
# Indices 1 2 3 4 5 6 
#
# 1 0.016267 -0.005705 -0.001219 0.000000 0.002033 0.000000
# 2 -0.005705 0.010161 -0.001842 0.000000 0.003100 0.000000
# 3 -0.001219 -0.001842 0.013365 0.000000 -0.002080 0.000000
# 4 0.000000 0.000000 0.000000 0.032453 0.000000 0.003013
# 5 0.002033 0.003100 -0.002080 0.000000 0.035208 0.000000
# 6 0.000000 0.000000 0.000000 0.003013 0.000000 0.023159
#
#
# Mechanical properties :
#
#
# Convention : Reuss Voigt Hill
#
# Bulk Modulus (GPa) = 44.92054 51.61048 48.26551
# Shear Modulus (GPa) = 32.14110 35.05537 33.59824
#
# Velocity S-wave (km/s) = 3.80032 3.96888 3.88551
# Velocity P-wave (km/s) = 6.28024 6.64782 6.46665
#
# Compressibility (1/GPa) = 0.02226153
#
# Stress axis : x y z
#
# Youngs Moduli (GPa) = 61.47323 98.41454 74.82501
#
# Poissons Ratio (x) = 0.56148 0.09119
# Poissons Ratio (y) = 0.35072 0.13780
# Poissons Ratio (z) = 0.07492 0.18124
#
# Static dielectric constant tensor:
#      x y z
#    x 1.878140 0.000000 -0.005180 
#    y 0.000000 1.836760 0.000000 
#    z -0.005180 0.000000 1.865070 
# 
# From -- ./inp_files/76809.got.cif
#   From: 2010.05.17/outbox.cif.g08.bks.cpg/sg15_39_cif.got.tgz:76809.got - 2010.06.03 18:47:42.
