data_PCOD9273778
_publ_section_title
;
Structure prediction by ZEFSAII (Michael W. Deem and Ramdas Pophale) SiO2 
 PCOD9273778
Probable space group: C 2/C
;
_chemical_formula_sum "Si O2"
_cell_formula_units_Z 56
_cell_length_a 10.734725
_cell_length_b 11.589000
_cell_length_c 24.180842
_cell_angle_alpha 90.000000
_cell_angle_beta 68.864407
_cell_angle_gamma 90.000000
_cell_volume 2805.847869
_symmetry_space_group_name_H-M "C 2/C"
_symmetry_group_IT_number 15
_symmetry_cell_setting 'monoclinic'
loop_
_space_group_symop_operation_xyz
x,y,z
-x,y,1/2-z
-x,-y,-z
x,-y,1/2+z
1/2+x,1/2+y,z
1/2-x,1/2+y,1/2-z
1/2-x,1/2-y,-z
1/2+x,1/2-y,1/2+z
loop_
_atom_site_type_symbol
_atom_site_label
_atom_site_fract_x
_atom_site_fract_y
_atom_site_fract_z
Si Si1 0.975584 0.806062 0.917602
Si Si2 0.465576 0.563083 0.870358
Si Si3 0.859901 0.608173 0.861976
Si Si4 0.494983 0.886428 0.684919
Si Si5 0.238718 0.789082 0.146826
Si Si6 0.917175 0.104410 0.539233
Si Si7 0.704244 0.688310 0.781694
O O1 0.125459 0.758682 0.899509
O O2 0.903009 0.720486 0.887831
O O3 0.908786 0.809912 0.988952
O O4 0.977442 0.932100 0.888731
O O5 0.321273 0.594995 0.870087
O O6 0.579602 0.599036 0.808019
O O7 0.501483 0.639980 0.919015
O O8 0.972969 0.510245 0.845863
O O9 0.814513 0.644549 0.807345
O O10 0.725242 0.565659 0.914198
O O11 0.500000 0.903698 0.750000
O O12 0.621341 0.803342 0.654060
O O13 0.361603 0.813386 0.692913
O O14 0.251341 0.804190 0.211052
O O15 0.000000 0.000000 0.500000
#
# Coordination Sequence:
#
# PCOD9273778 Si02
#       7
#     8   8   8   8   8   8   8
#     4  11  23  36  55  90 118 150 190 237 300 347
#     4   9  19  39  61  82 110 153 198 241 286 345
#     4  11  22  37  57  85 122 148 188 240 298 351
#     4   9  19  36  57  79 109 152 192 232 286 347
#     4  10  20  38  59  83 114 150 198 238 287 350
#     4   9  19  39  63  79 108 156 200 240 288 339
#     4   9  20  38  58  83 113 153 196 237 285 349
#
# _framework density 19.958317999999998
#
# number of rings (size 3 to 8) (size 9 to 14) (size 15 to 20)
#    0.000    2.286    0.000    4.286    2.000    1.714 
#    7.714    4.286    0.000   12.857    0.000    0.000 
#    0.000    0.000    0.000    0.000    0.000    0.000 
#
# Total GULP energy -156142.870891 kJ/mol
# GULP energy per Si atom -5576.531103 kJ/mol
# Density = 1.991289 g / cm^3
# Si number density = 19.958318 Si / 1000 Ang^3
#
#
#
# Elastic Constant Matrix: (Units=GPa)
#
#
# Indices 1 2 3 4 5 6 
#
# 1 48.0053 13.2363 -6.3979 0.0000 -0.1907 0.0000
# 2 13.2363 59.1805 16.5976 0.0000 -1.1884 0.0000
# 3 -6.3979 16.5976 47.4056 0.0000 -1.8137 0.0000
# 4 0.0000 0.0000 0.0000 24.1856 0.0000 0.4332
# 5 -0.1907 -1.1884 -1.8137 0.0000 16.4038 0.0000
# 6 0.0000 0.0000 0.0000 0.4332 0.0000 25.0563
#
#
#
# Elastic Compliance Matrix: (Units=1/GPa)
#
#
# Indices 1 2 3 4 5 6 
#
# 1 0.023447 -0.006795 0.005559 0.000000 0.000395 0.000000
# 2 -0.006795 0.020713 -0.008149 0.000000 0.000521 0.000000
# 3 0.005559 -0.008149 0.024783 0.000000 0.002214 0.000000
# 4 0.000000 0.000000 0.000000 0.041360 0.000000 -0.000715
# 5 0.000395 0.000521 0.002214 0.000000 0.061249 0.000000
# 6 0.000000 0.000000 0.000000 -0.000715 0.000000 0.039922
#
#
# Mechanical properties :
#
#
# Convention : Reuss Voigt Hill
#
# Bulk Modulus (GPa) = 19.93167 22.38481 21.15824
# Shear Modulus (GPa) = 20.24543 21.87283 21.05913
#
# Velocity S-wave (km/s) = 3.18840 3.31407 3.25184
# Velocity P-wave (km/s) = 4.85416 5.08765 4.97227
#
# Compressibility (1/GPa) = 0.05017142
#
# Stress axis : x y z
#
# Youngs Moduli (GPa) = 42.64927 48.27828 40.35073
#
# Poissons Ratio (x) = 0.32806 -0.22430
# Poissons Ratio (y) = 0.28981 0.32883
# Poissons Ratio (z) = -0.23707 0.39343
#
# Static dielectric constant tensor:
#      x y z
#    x 1.720370 0.000000 0.002220 
#    y 0.000000 1.739360 0.000000 
#    z 0.002220 0.000000 1.722970 
# 
# From -- ./inp_files/237059.got.cif
#   From: 2010.05.17/outbox.cif.g08.bks.cpg/sg15_119_cif.got.tgz:237059.got - 2010.06.03 18:47:42.
