data_PCOD9273990
_publ_section_title
;
Structure prediction by ZEFSAII (Michael W. Deem and Ramdas Pophale) SiO2 
 PCOD9273990
Probable space group: C 2/C
;
_chemical_formula_sum "Si O2"
_cell_formula_units_Z 52
_cell_length_a 8.531975
_cell_length_b 28.603951
_cell_length_c 13.258996
_cell_angle_alpha 90.000000
_cell_angle_beta 38.287856
_cell_angle_gamma 90.000000
_cell_volume 2004.963809
_symmetry_space_group_name_H-M "C 2/C"
_symmetry_group_IT_number 15
_symmetry_cell_setting 'monoclinic'
loop_
_space_group_symop_operation_xyz
x,y,z
-x,y,1/2-z
-x,-y,-z
x,-y,1/2+z
1/2+x,1/2+y,z
1/2-x,1/2+y,1/2-z
1/2-x,1/2-y,-z
1/2+x,1/2-y,1/2+z
loop_
_atom_site_type_symbol
_atom_site_label
_atom_site_fract_x
_atom_site_fract_y
_atom_site_fract_z
Si Si1 0.110189 0.061261 0.433268
Si Si2 0.067177 0.157496 0.447861
Si Si3 0.738442 0.495602 0.523830
Si Si4 0.478233 0.759747 0.087320
Si Si5 0.303266 0.066689 0.675073
Si Si6 0.261410 0.165186 0.576289
Si Si7 0.000000 0.323712 0.250000
O O1 0.182148 0.110012 0.345537
O O2 0.015840 0.027388 0.392860
O O3 0.885628 0.069844 0.633080
O O4 0.301721 0.034538 0.408765
O O5 0.131788 0.208964 0.376715
O O6 0.759002 0.151289 0.584504
O O7 0.190389 0.155766 0.497255
O O8 0.743498 0.526124 0.622709
O O9 0.926143 0.451829 0.427308
O O10 0.467008 0.795198 0.998782
O O11 0.367073 0.791618 0.232327
O O12 0.750000 0.750000 0.000000
O O13 0.303820 0.116785 0.617299
O O14 0.000000 0.186915 0.750000
#
# Coordination Sequence:
#
# PCOD9273990 Si02
#       7
#     8   8   8   8   8   8   4
#     4  11  21  38  62  90 122 160 205 256 301 365
#     4  11  22  37  65  92 122 159 208 250 303 362
#     4  10  23  35  59  94 122 155 204 257 311 356
#     4  10  23  37  60  94 126 156 200 253 308 361
#     4  11  21  39  64  92 121 158 206 260 303 358
#     4  12  20  38  66  94 119 156 205 254 299 357
#     4  10  20  38  60  94 124 160 200 252 308 360
#
# _framework density 25.93563
#
# number of rings (size 3 to 8) (size 9 to 14) (size 15 to 20)
#    0.000    1.231    4.615    1.385    6.462    0.000 
#    0.000    0.000    6.769    7.385    0.000    0.000 
#    0.000    0.000    0.000    0.000    0.000    0.000 
#
# Total GULP energy -145005.223433 kJ/mol
# GULP energy per Si atom -5577.123978 kJ/mol
# Density = 2.587660 g / cm^3
# Si number density = 25.935630 Si / 1000 Ang^3
#
#
#
# Elastic Constant Matrix: (Units=GPa)
#
#
# Indices 1 2 3 4 5 6 
#
# 1 126.8270 64.8119 22.0672 0.0000 12.2801 0.0000
# 2 64.8119 200.1290 24.8425 0.0000 21.8782 0.0000
# 3 22.0672 24.8425 54.8793 0.0000 2.4001 0.0000
# 4 0.0000 0.0000 0.0000 17.4395 0.0000 6.2073
# 5 12.2801 21.8782 2.4001 0.0000 21.1977 0.0000
# 6 0.0000 0.0000 0.0000 6.2073 0.0000 69.0820
#
#
#
# Elastic Compliance Matrix: (Units=1/GPa)
#
#
# Indices 1 2 3 4 5 6 
#
# 1 0.009944 -0.002579 -0.002709 0.000000 -0.002792 0.000000
# 2 -0.002579 0.006607 -0.001730 0.000000 -0.005130 0.000000
# 3 -0.002709 -0.001730 0.020047 0.000000 0.001085 0.000000
# 4 0.000000 0.000000 0.000000 0.059236 0.000000 -0.005323
# 5 -0.002792 -0.005130 0.001085 0.000000 0.053964 0.000000
# 6 0.000000 0.000000 0.000000 -0.005323 0.000000 0.014954
#
#
# Mechanical properties :
#
#
# Convention : Reuss Voigt Hill
#
# Bulk Modulus (GPa) = 44.32025 67.25316 55.78671
# Shear Modulus (GPa) = 26.83715 39.55142 33.19429
#
# Velocity S-wave (km/s) = 3.22026 3.90934 3.58141
# Velocity P-wave (km/s) = 5.56349 6.80914 6.21759
#
# Compressibility (1/GPa) = 0.02256305
#
# Stress axis : x y z
#
# Youngs Moduli (GPa) = 100.55893 151.34402 49.88353
#
# Poissons Ratio (x) = 0.39031 0.13514
# Poissons Ratio (y) = 0.25934 0.08628
# Poissons Ratio (z) = 0.27243 0.26178
#
# Static dielectric constant tensor:
#      x y z
#    x 2.186570 0.000000 0.024880 
#    y 0.000000 2.078350 0.000000 
#    z 0.024880 0.000000 2.275450 
# 
# From -- ./inp_files/138466.got.cif
#   From: 2010.05.17/outbox.cif.g08.bks.cpg/sg15_70_cif.got.tgz:138466.got - 2010.06.03 18:47:42.
