data_PCOD9273881
_publ_section_title
;
Structure prediction by ZEFSAII (Michael W. Deem and Ramdas Pophale) SiO2 
 PCOD9273881
Probable space group: C 2/C
;
_chemical_formula_sum "Si O2"
_cell_formula_units_Z 40
_cell_length_a 30.289013
_cell_length_b 7.484866
_cell_length_c 24.747283
_cell_angle_alpha 90.000000
_cell_angle_beta 162.377396
_cell_angle_gamma 90.000000
_cell_volume 1698.536826
_symmetry_space_group_name_H-M "C 2/C"
_symmetry_group_IT_number 15
_symmetry_cell_setting 'monoclinic'
loop_
_space_group_symop_operation_xyz
x,y,z
-x,y,1/2-z
-x,-y,-z
x,-y,1/2+z
1/2+x,1/2+y,z
1/2-x,1/2+y,1/2-z
1/2-x,1/2-y,-z
1/2+x,1/2-y,1/2+z
loop_
_atom_site_type_symbol
_atom_site_label
_atom_site_fract_x
_atom_site_fract_y
_atom_site_fract_z
Si Si1 0.486013 0.052636 0.922258
Si Si2 0.534202 0.220341 0.392840
Si Si3 0.626281 0.775762 0.430575
Si Si4 0.453295 0.393336 0.830062
Si Si5 0.742453 0.583273 0.061272
O O1 0.580812 0.933904 0.989858
O O2 0.327095 0.001312 0.712580
O O3 0.498869 0.265235 0.932303
O O4 0.500000 0.000000 0.000000
O O5 0.502673 0.402845 0.388948
O O6 0.637640 0.272070 0.464753
O O7 0.376457 0.164745 0.185610
O O8 0.500000 0.873244 0.250000
O O9 0.541147 0.705396 0.384162
O O10 0.778329 0.875253 0.618037
O O11 0.668178 0.589036 0.448673
#
# Coordination Sequence:
#
# PCOD9273881 Si02
#       5
#     8   8   8   8   8
#     4   9  20  38  56  82 115 151 185 235 284 329
#     4   9  19  37  55  80 114 145 185 228 279 331
#     4  10  20  38  60  85 112 148 192 237 286 338
#     4  10  21  36  60  81 115 149 185 237 283 337
#     4   8  19  37  54  80 116 141 185 236 270 335
#
# _framework density 23.549682000000001
#
# number of rings (size 3 to 8) (size 9 to 14) (size 15 to 20)
#    1.200    1.600    0.000    0.600    2.800    0.800 
#   10.800    5.000    0.000    0.000    0.000    0.000 
#    0.000    0.000    0.000    0.000    0.000    0.000 
#
# Total GULP energy -111532.188861 kJ/mol
# GULP energy per Si atom -5576.609443 kJ/mol
# Density = 2.349608 g / cm^3
# Si number density = 23.549682 Si / 1000 Ang^3
#
#
#
# Elastic Constant Matrix: (Units=GPa)
#
#
# Indices 1 2 3 4 5 6 
#
# 1 55.8659 23.1993 19.6285 0.0000 1.2832 0.0000
# 2 23.1993 135.6299 12.7721 0.0000 4.3984 0.0000
# 3 19.6285 12.7721 49.7752 -0.0001 19.1867 0.0000
# 4 0.0000 0.0000 -0.0001 25.5052 -0.0001 12.4028
# 5 1.2832 4.3984 19.1867 -0.0001 30.9429 0.0000
# 6 0.0000 0.0000 0.0000 12.4028 0.0000 29.5429
#
#
#
# Elastic Compliance Matrix: (Units=1/GPa)
#
#
# Indices 1 2 3 4 5 6 
#
# 1 0.022730 -0.003095 -0.010480 0.000000 0.005996 0.000000
# 2 -0.003095 0.007978 -0.000577 0.000000 -0.000648 0.000000
# 3 -0.010480 -0.000577 0.031764 0.000000 -0.019179 0.000000
# 4 0.000000 0.000000 0.000000 0.049265 0.000000 -0.020683
# 5 0.005996 -0.000648 -0.019179 0.000000 0.044054 0.000000
# 6 0.000000 0.000000 0.000000 -0.020683 0.000000 0.042532
#
#
# Mechanical properties :
#
#
# Convention : Reuss Voigt Hill
#
# Bulk Modulus (GPa) = 29.26787 39.16341 34.21564
# Shear Modulus (GPa) = 21.00691 29.57628 25.29159
#
# Velocity S-wave (km/s) = 2.98992 3.54773 3.28070
# Velocity P-wave (km/s) = 4.93706 5.78343 5.37693
#
# Compressibility (1/GPa) = 0.03416716
#
# Stress axis : x y z
#
# Youngs Moduli (GPa) = 43.99468 125.34794 31.48203
#
# Poissons Ratio (x) = 0.38801 0.32994
# Poissons Ratio (y) = 0.13618 0.01815
# Poissons Ratio (z) = 0.46108 0.07227
#
# Static dielectric constant tensor:
#      x y z
#    x 1.897920 0.000000 0.044470 
#    y 0.000000 2.009750 0.000000 
#    z 0.044470 0.000000 1.920980 
# 
# From -- ./inp_files/304205.got.cif
#   From: 2010.05.17/outbox.cif.g08.bks.cpg/sg15_153_cif.got.tgz:304205.got - 2010.06.03 18:47:42.
