data_PCOD9273049
_publ_section_title
;
Structure prediction by ZEFSAII (Michael W. Deem and Ramdas Pophale) SiO2 
 PCOD9273049
Probable space group: C 2/C
;
_chemical_formula_sum "Si O2"
_cell_formula_units_Z 56
_cell_length_a 14.540447
_cell_length_b 17.737792
_cell_length_c 12.255372
_cell_angle_alpha 90.000000
_cell_angle_beta 54.864645
_cell_angle_gamma 90.000000
_cell_volume 2584.926098
_symmetry_space_group_name_H-M "C 2/C"
_symmetry_group_IT_number 15
_symmetry_cell_setting 'monoclinic'
loop_
_space_group_symop_operation_xyz
x,y,z
-x,y,1/2-z
-x,-y,-z
x,-y,1/2+z
1/2+x,1/2+y,z
1/2-x,1/2+y,1/2-z
1/2-x,1/2-y,-z
1/2+x,1/2-y,1/2+z
loop_
_atom_site_type_symbol
_atom_site_label
_atom_site_fract_x
_atom_site_fract_y
_atom_site_fract_z
Si Si1 0.105450 0.811182 0.259171
Si Si2 0.750432 0.205695 0.285317
Si Si3 0.955448 0.123893 0.040689
Si Si4 0.612546 0.170924 0.711344
Si Si5 0.321015 0.932862 0.527921
Si Si6 0.139240 0.983457 0.491990
Si Si7 0.209887 0.572820 0.818054
O O1 0.180125 0.737699 0.231504
O O2 0.196996 0.877962 0.180172
O O3 0.000000 0.805415 0.250000
O O4 0.047056 0.827793 0.415116
O O5 0.869699 0.175239 0.162830
O O6 0.782052 0.272050 0.349993
O O7 0.689365 0.135927 0.382146
O O8 0.889150 0.071196 0.999766
O O9 0.024078 0.063407 0.064377
O O10 0.500000 0.212944 0.750000
O O11 0.619075 0.104127 0.617336
O O12 0.621160 0.129734 0.822593
O O13 0.201791 0.957549 0.557293
O O14 0.352652 0.008919 0.569788
O O15 0.217556 0.963465 0.332367
#
# Coordination Sequence:
#
# PCOD9273049 Si02
#       7
#     8   8   8   8   8   8   8
#     4  10  22  40  60  89 127 164 204 253 310 368
#     4  11  24  38  61  94 128 158 205 256 312 377
#     4  10  20  37  62  89 128 154 205 255 307 373
#     4  10  24  39  60  90 125 166 209 248 309 376
#     4  11  21  38  65  85 126 161 206 263 312 348
#     4   9  19  35  58  96 116 152 203 262 305 362
#     4   9  19  40  59  88 121 156 212 259 295 364
#
# _framework density 21.664062999999999
#
# number of rings (size 3 to 8) (size 9 to 14) (size 15 to 20)
#    0.000    2.000    1.429    2.143    4.000    1.143 
#    0.000    0.714    0.000    0.000    0.000    0.000 
#    0.000    0.000    0.000    0.000    0.000    0.000 
#
# Total GULP energy -156106.109982 kJ/mol
# GULP energy per Si atom -5575.218214 kJ/mol
# Density = 2.161475 g / cm^3
# Si number density = 21.664063 Si / 1000 Ang^3
#
#
#
# Elastic Constant Matrix: (Units=GPa)
#
#
# Indices 1 2 3 4 5 6 
#
# 1 111.1894 27.6811 1.9327 0.0000 8.1676 0.0000
# 2 27.6811 73.2363 10.5087 0.0000 15.7844 0.0000
# 3 1.9327 10.5087 29.5762 0.0000 2.2244 0.0000
# 4 0.0000 0.0000 0.0000 -23.5075 0.0000 -23.8142
# 5 8.1676 15.7844 2.2244 0.0000 19.0232 0.0000
# 6 0.0000 0.0000 0.0000 -23.8142 0.0000 10.5255
#
#
#
# Elastic Compliance Matrix: (Units=1/GPa)
#
#
# Indices 1 2 3 4 5 6 
#
# 1 0.009973 -0.003571 0.000723 0.000000 -0.001404 0.000000
# 2 -0.003571 0.018646 -0.005391 0.000000 -0.013308 0.000000
# 3 0.000723 -0.005391 0.035680 0.000000 -0.000009 0.000000
# 4 0.000000 0.000000 0.000000 -0.012922 0.000000 -0.029236
# 5 -0.001404 -0.013308 -0.000009 0.000000 0.064213 0.000000
# 6 0.000000 0.000000 0.000000 -0.029236 0.000000 0.028860
#
#
# Mechanical properties :
#
#
# Convention : Reuss Voigt Hill
#
# Bulk Modulus (GPa) = 20.91140 32.69414 26.80277
# Shear Modulus (GPa) = 28.26967 12.80020 20.53493
#
# Velocity S-wave (km/s) = 3.61627 2.43338 3.08211
# Velocity P-wave (km/s) = 5.20674 4.79784 5.00646
#
# Compressibility (1/GPa) = 0.04782081
#
# Stress axis : x y z
#
# Youngs Moduli (GPa) = 100.26919 53.63146 28.02702
#
# Poissons Ratio (x) = 0.19150 -0.02025
# Poissons Ratio (y) = 0.35803 0.15109
# Poissons Ratio (z) = -0.07245 0.28912
#
# Static dielectric constant tensor:
#      x y z
#    x 1.824670 0.000000 -0.001100 
#    y 0.000000 1.803530 0.000000 
#    z -0.001100 0.000000 1.806670 
# 
# From -- ./inp_files/98660.got.cif
#   From: 2010.05.17/outbox.cif.g08.bks.cpg/sg15_50_cif.got.tgz:98660.got - 2010.06.03 18:47:42.
