data_PCOD9273107
_publ_section_title
;
Structure prediction by ZEFSAII (Michael W. Deem and Ramdas Pophale) SiO2 
 PCOD9273107
Probable space group: C 2/C
;
_chemical_formula_sum "Si O2"
_cell_formula_units_Z 56
_cell_length_a 28.286747
_cell_length_b 5.888240
_cell_length_c 17.344431
_cell_angle_alpha 90.000000
_cell_angle_beta 106.410600
_cell_angle_gamma 90.000000
_cell_volume 2771.186036
_symmetry_space_group_name_H-M "C 2/C"
_symmetry_group_IT_number 15
_symmetry_cell_setting 'monoclinic'
loop_
_space_group_symop_operation_xyz
x,y,z
-x,y,1/2-z
-x,-y,-z
x,-y,1/2+z
1/2+x,1/2+y,z
1/2-x,1/2+y,1/2-z
1/2-x,1/2-y,-z
1/2+x,1/2-y,1/2+z
loop_
_atom_site_type_symbol
_atom_site_label
_atom_site_fract_x
_atom_site_fract_y
_atom_site_fract_z
Si Si1 0.645449 0.617704 0.612735
Si Si2 0.752187 0.310345 0.795189
Si Si3 0.083772 0.425205 0.686251
Si Si4 0.554295 0.442171 0.292645
Si Si5 0.145935 0.199874 0.265691
Si Si6 0.488950 0.202394 0.937634
Si Si7 0.572410 0.474883 0.466335
O O1 0.697200 0.749421 0.637978
O O2 0.602785 0.791878 0.620089
O O3 0.646388 0.430146 0.682284
O O4 0.627051 0.517168 0.523134
O O5 0.755740 0.568390 0.758470
O O6 0.701573 0.324602 0.820336
O O7 0.058137 0.255502 0.731819
O O8 0.131503 0.539750 0.745552
O O9 0.045971 0.618666 0.645824
O O10 0.500000 0.542666 0.250000
O O11 0.602154 0.596567 0.296725
O O12 0.563322 0.343644 0.382690
O O13 0.540448 0.301174 0.933027
O O14 0.456120 0.371972 0.973651
O O15 0.500000 0.000000 0.000000
#
# Coordination Sequence:
#
# PCOD9273107 Si02
#       7
#     8   8   8   8   8   8   8
#     4  10  20  37  62  93 120 157 215 272 323 377
#     4  10  20  37  68 100 126 167 224 285 331 388
#     4  11  20  38  59  86 119 165 213 255 314 392
#     4  11  25  39  57  88 132 171 207 260 326 401
#     4  10  21  39  61  88 125 164 214 264 325 392
#     4  11  21  35  62  85 121 163 216 262 315 384
#     4  11  23  38  58  91 127 164 210 272 321 379
#
# _framework density 20.207953
#
# number of rings (size 3 to 8) (size 9 to 14) (size 15 to 20)
#    0.000    1.429    4.286    1.714    4.000    2.857 
#    0.000    0.714    0.000    0.857    0.000    0.000 
#    0.000    0.000    0.000    0.000    0.000    0.000 
#
# Total GULP energy -155950.086098 kJ/mol
# GULP energy per Si atom -5569.645932 kJ/mol
# Density = 2.016196 g / cm^3
# Si number density = 20.207953 Si / 1000 Ang^3
#
#
#
# Elastic Constant Matrix: (Units=GPa)
#
#
# Indices 1 2 3 4 5 6 
#
# 1 108.7571 16.6807 37.7102 0.0000 21.2756 0.0000
# 2 16.6807 47.4589 -6.9301 0.0000 7.0664 0.0000
# 3 37.7102 -6.9301 79.3870 0.0000 22.8890 0.0000
# 4 0.0000 0.0000 0.0000 23.0739 0.0000 11.3377
# 5 21.2756 7.0664 22.8890 0.0000 23.7423 0.0000
# 6 0.0000 0.0000 0.0000 11.3377 0.0000 20.5195
#
#
#
# Elastic Compliance Matrix: (Units=1/GPa)
#
#
# Indices 1 2 3 4 5 6 
#
# 1 0.012570 -0.004325 -0.004809 0.000000 -0.005341 0.000000
# 2 -0.004325 0.025263 0.007355 0.000000 -0.010733 0.000000
# 3 -0.004809 0.007355 0.020652 0.000000 -0.017789 0.000000
# 4 0.000000 0.000000 0.000000 0.059490 0.000000 -0.032870
# 5 -0.005341 -0.010733 -0.017789 0.000000 0.067250 0.000000
# 6 0.000000 0.000000 0.000000 -0.032870 0.000000 0.066896
#
#
# Mechanical properties :
#
#
# Convention : Reuss Voigt Hill
#
# Bulk Modulus (GPa) = 18.20607 36.72493 27.46550
# Shear Modulus (GPa) = 18.24893 26.00996 22.12944
#
# Velocity S-wave (km/s) = 3.00835 3.59153 3.31280
# Velocity P-wave (km/s) = 4.59302 5.95078 5.31543
#
# Compressibility (1/GPa) = 0.05492674
#
# Stress axis : x y z
#
# Youngs Moduli (GPa) = 79.55188 39.58337 48.42192
#
# Poissons Ratio (x) = 0.17120 0.23285
# Poissons Ratio (y) = 0.34407 -0.35612
# Poissons Ratio (z) = 0.38254 -0.29112
#
# Static dielectric constant tensor:
#      x y z
#    x 1.750370 0.000000 -0.007890 
#    y 0.000000 1.795660 0.000000 
#    z -0.007890 0.000000 1.774670 
# 
# From -- ./inp_files/221191.got.cif
#   From: 2010.05.17/outbox.cif.g08.bks.cpg/sg15_111_cif.got.tgz:221191.got - 2010.06.03 18:47:42.
