data_PCOD9273662
_publ_section_title
;
Structure prediction by ZEFSAII (Michael W. Deem and Ramdas Pophale) SiO2 
 PCOD9273662
Probable space group: C 2/C
;
_chemical_formula_sum "Si O2"
_cell_formula_units_Z 52
_cell_length_a 16.395618
_cell_length_b 6.314423
_cell_length_c 29.570147
_cell_angle_alpha 90.000000
_cell_angle_beta 122.963390
_cell_angle_gamma 90.000000
_cell_volume 2568.540587
_symmetry_space_group_name_H-M "C 2/C"
_symmetry_group_IT_number 15
_symmetry_cell_setting 'monoclinic'
loop_
_space_group_symop_operation_xyz
x,y,z
-x,y,1/2-z
-x,-y,-z
x,-y,1/2+z
1/2+x,1/2+y,z
1/2-x,1/2+y,1/2-z
1/2-x,1/2-y,-z
1/2+x,1/2-y,1/2+z
loop_
_atom_site_type_symbol
_atom_site_label
_atom_site_fract_x
_atom_site_fract_y
_atom_site_fract_z
Si Si1 0.500000 0.220604 0.750000
Si Si2 0.597368 0.630629 0.541168
Si Si3 0.677249 0.067990 0.994489
Si Si4 0.185790 0.205536 0.663711
Si Si5 0.142141 0.398970 0.814852
Si Si6 0.280249 0.821622 0.572479
Si Si7 0.343937 0.477114 0.247769
O O1 0.574476 0.359471 0.744058
O O2 0.554938 0.056811 0.798981
O O3 0.500000 0.500000 0.500000
O O4 0.604370 0.826031 0.507905
O O5 0.612987 0.712200 0.598073
O O6 0.688600 0.474791 0.556614
O O7 0.739233 0.889357 0.038347
O O8 0.750000 0.250000 0.000000
O O9 0.647666 0.946362 0.939733
O O10 0.240531 0.419620 0.699148
O O11 0.271448 0.058640 0.670417
O O12 0.150975 0.078500 0.697752
O O13 0.166595 0.263092 0.865707
O O14 0.132748 0.240509 0.770773
#
# Coordination Sequence:
#
# PCOD9273662 Si02
#       7
#     4   8   8   8   8   8   8
#     4  10  24  36  56  88 120 146 194 256 306 354
#     4  10  21  36  55  88 121 150 198 251 303 353
#     4   9  18  36  57  80 111 148 198 240 282 351
#     4  10  21  36  62  84 113 163 203 247 304 368
#     4  10  20  38  57  85 115 152 201 248 303 364
#     4   9  19  36  61  79 109 162 198 237 294 356
#     4  11  20  39  61  86 120 157 203 253 303 368
#
# _framework density 20.244959999999999
#
# number of rings (size 3 to 8) (size 9 to 14) (size 15 to 20)
#    0.000    2.154    1.538    1.385    0.000    3.077 
#    0.000    9.231    0.000    0.000    0.000    0.000 
#    0.000    0.000    0.000    0.000    0.000    0.000 
#
# Total GULP energy -144761.651401 kJ/mol
# GULP energy per Si atom -5567.755823 kJ/mol
# Density = 2.019888 g / cm^3
# Si number density = 20.244960 Si / 1000 Ang^3
#
#
#
# Elastic Constant Matrix: (Units=GPa)
#
#
# Indices 1 2 3 4 5 6 
#
# 1 57.2609 21.9874 54.3574 0.0000 -4.1150 0.0000
# 2 21.9874 59.0892 6.4199 0.0000 -1.8846 0.0000
# 3 54.3574 6.4199 99.6508 0.0000 -24.6471 0.0000
# 4 0.0000 0.0000 0.0000 22.1991 0.0000 -13.4446
# 5 -4.1150 -1.8846 -24.6471 0.0000 20.3502 0.0000
# 6 0.0000 0.0000 0.0000 -13.4446 0.0000 17.6861
#
#
#
# Elastic Compliance Matrix: (Units=1/GPa)
#
#
# Indices 1 2 3 4 5 6 
#
# 1 0.064282 -0.020467 -0.044258 0.000000 -0.042499 0.000000
# 2 -0.020467 0.023561 0.013081 0.000000 0.013886 0.000000
# 3 -0.044258 0.013081 0.044858 0.000000 0.046591 0.000000
# 4 0.000000 0.000000 0.000000 0.083481 0.000000 0.063461
# 5 -0.042499 0.013886 0.046591 0.000000 0.098260 0.000000
# 6 0.000000 0.000000 0.000000 0.063461 0.000000 0.104783
#
#
# Mechanical properties :
#
#
# Convention : Reuss Voigt Hill
#
# Bulk Modulus (GPa) = 33.99775 42.39225 38.19500
# Shear Modulus (GPa) = 9.39289 20.92949 15.16119
#
# Velocity S-wave (km/s) = 2.15631 3.21878 2.73955
# Velocity P-wave (km/s) = 4.79888 5.89909 5.37719
#
# Compressibility (1/GPa) = 0.02941371
#
# Stress axis : x y z
#
# Youngs Moduli (GPa) = 15.55638 42.44285 22.29277
#
# Poissons Ratio (x) = 0.86867 0.98663
# Poissons Ratio (y) = 0.31839 -0.29161
# Poissons Ratio (z) = 0.68849 -0.55519
#
# Static dielectric constant tensor:
#      x y z
#    x 1.766960 0.000000 0.011690 
#    y 0.000000 1.694810 0.000000 
#    z 0.011690 0.000000 1.783250 
# 
# From -- ./inp_files/297502.got.cif
#   From: 2010.05.17/outbox.cif.g08.bks.cpg/sg15_149_cif.got.tgz:297502.got - 2010.06.03 18:47:42.
