data_PCOD9273891
_publ_section_title
;
Structure prediction by ZEFSAII (Michael W. Deem and Ramdas Pophale) SiO2 
 PCOD9273891
Probable space group: C 2/C
;
_chemical_formula_sum "Si O2"
_cell_formula_units_Z 64
_cell_length_a 12.443037
_cell_length_b 16.207597
_cell_length_c 25.287252
_cell_angle_alpha 90.000000
_cell_angle_beta 37.125795
_cell_angle_gamma 90.000000
_cell_volume 3078.025042
_symmetry_space_group_name_H-M "C 2/C"
_symmetry_group_IT_number 15
_symmetry_cell_setting 'monoclinic'
loop_
_space_group_symop_operation_xyz
x,y,z
-x,y,1/2-z
-x,-y,-z
x,-y,1/2+z
1/2+x,1/2+y,z
1/2-x,1/2+y,1/2-z
1/2-x,1/2-y,-z
1/2+x,1/2-y,1/2+z
loop_
_atom_site_type_symbol
_atom_site_label
_atom_site_fract_x
_atom_site_fract_y
_atom_site_fract_z
Si Si1 0.885359 0.973775 0.376320
Si Si2 0.409634 0.051454 0.583534
Si Si3 0.364843 0.803794 0.851677
Si Si4 0.787683 0.713202 0.151126
Si Si5 0.424846 0.769634 0.103842
Si Si6 0.924648 0.584101 0.425616
Si Si7 0.060052 0.168719 0.144267
Si Si8 0.889316 0.169652 0.694995
O O1 0.793998 0.949051 0.356237
O O2 0.753564 0.938243 0.472993
O O3 0.066587 0.925169 0.314772
O O4 0.900284 0.071733 0.374094
O O5 0.489954 0.142496 0.556576
O O6 0.500000 0.000000 0.500000
O O7 0.455277 0.998242 0.617235
O O8 0.500000 0.818275 0.750000
O O9 0.172186 0.782765 0.903636
O O10 0.378302 0.878988 0.886998
O O11 0.439880 0.723243 0.852969
O O12 0.701765 0.712590 0.127279
O O13 0.631539 0.677915 0.250970
O O14 0.840356 0.800843 0.155467
O O15 0.957083 0.653732 0.091302
O O16 0.547252 0.713384 0.092781
O O17 0.267251 0.801263 0.204903
#
# Coordination Sequence:
#
# PCOD9273891 Si02
#       8
#     8   8   8   8   8   8   8   8
#     4  11  21  36  59  94 118 148 202 251 297 352
#     4  10  21  37  57  88 118 150 199 245 288 351
#     4   9  18  36  59  84 114 155 200 244 298 354
#     4   9  19  36  57  88 121 158 199 242 303 354
#     4  10  20  38  60  85 122 157 202 244 294 356
#     4  10  21  37  59  88 121 151 196 252 299 352
#     4  10  21  36  60  88 122 162 195 247 300 357
#     4   9  19  34  60  91 116 149 203 248 293 348
#
# _framework density 20.792552000000001
#
# number of rings (size 3 to 8) (size 9 to 14) (size 15 to 20)
#    0.000    2.250    2.500    0.750    1.750    2.000 
#    0.000    4.375    2.750    0.000    0.000    0.000 
#    0.000    0.000    0.000    0.000    0.000    0.000 
#
# Total GULP energy -178708.976902 kJ/mol
# GULP energy per Si atom -5584.655528 kJ/mol
# Density = 2.074523 g / cm^3
# Si number density = 20.792552 Si / 1000 Ang^3
#
#
#
# Elastic Constant Matrix: (Units=GPa)
#
#
# Indices 1 2 3 4 5 6 
#
# 1 146.9134 83.9399 29.9484 -0.0003 17.8755 0.0000
# 2 83.9399 117.1076 25.8141 0.0002 15.6195 -0.0001
# 3 29.9484 25.8141 30.6661 0.0011 -1.3620 -0.0003
# 4 -0.0003 0.0002 0.0011 26.9840 -0.0002 -1.0168
# 5 17.8755 15.6195 -1.3620 -0.0002 19.3244 0.0002
# 6 0.0000 -0.0001 -0.0003 -1.0168 0.0002 38.3929
#
#
#
# Elastic Compliance Matrix: (Units=1/GPa)
#
#
# Indices 1 2 3 4 5 6 
#
# 1 0.013043 -0.006783 -0.007343 0.000000 -0.007100 0.000000
# 2 -0.006783 0.015906 -0.007079 0.000000 -0.007081 0.000000
# 3 -0.007343 -0.007079 0.046441 -0.000002 0.015788 0.000000
# 4 0.000000 0.000000 -0.000002 0.037096 0.000000 0.000982
# 5 -0.007100 -0.007081 0.015788 0.000000 0.065152 0.000000
# 6 0.000000 0.000000 0.000000 0.000982 0.000000 0.026073
#
#
# Mechanical properties :
#
#
# Convention : Reuss Voigt Hill
#
# Bulk Modulus (GPa) = 30.32262 63.78800 47.05531
# Shear Modulus (GPa) = 19.44644 27.27256 23.35950
#
# Velocity S-wave (km/s) = 3.06152 3.62560 3.35543
# Velocity P-wave (km/s) = 5.20694 6.94777 6.13937
#
# Compressibility (1/GPa) = 0.03297868
#
# Stress axis : x y z
#
# Youngs Moduli (GPa) = 76.66763 62.86803 21.53257
#
# Poissons Ratio (x) = 0.42646 0.15812
# Poissons Ratio (y) = 0.52007 0.15244
# Poissons Ratio (z) = 0.56299 0.44507
#
# Static dielectric constant tensor:
#      x y z
#    x 1.760970 0.000000 -0.027890 
#    y 0.000000 1.740240 0.000000 
#    z -0.027890 0.000000 1.877840 
# 
# From -- ./inp_files/293033.got.cif
#   From: 2010.05.17/outbox.cif.g08.bks.cpg/sg15_147_cif.got.tgz:293033.got - 2010.06.03 18:47:42.
