data_PCOD9273406
_publ_section_title
;
Structure prediction by ZEFSAII (Michael W. Deem and Ramdas Pophale) SiO2 
 PCOD9273406
Probable space group: C 2/C
;
_chemical_formula_sum "Si O2"
_cell_formula_units_Z 48
_cell_length_a 19.671610
_cell_length_b 7.591353
_cell_length_c 24.062811
_cell_angle_alpha 90.000000
_cell_angle_beta 141.548805
_cell_angle_gamma 90.000000
_cell_volume 2234.547237
_symmetry_space_group_name_H-M "C 2/C"
_symmetry_group_IT_number 15
_symmetry_cell_setting 'monoclinic'
loop_
_space_group_symop_operation_xyz
x,y,z
-x,y,1/2-z
-x,-y,-z
x,-y,1/2+z
1/2+x,1/2+y,z
1/2-x,1/2+y,1/2-z
1/2-x,1/2-y,-z
1/2+x,1/2-y,1/2+z
loop_
_atom_site_type_symbol
_atom_site_label
_atom_site_fract_x
_atom_site_fract_y
_atom_site_fract_z
Si Si1 0.323219 0.546624 0.388224
Si Si2 0.069196 0.281041 0.885089
Si Si3 0.320548 0.260538 0.652288
Si Si4 0.510761 0.476175 0.595906
Si Si5 0.963823 0.322210 0.144423
Si Si6 0.767180 0.839860 0.099792
O O1 0.255354 0.376186 0.363725
O O2 0.428301 0.546705 0.496163
O O3 0.371565 0.545423 0.357281
O O4 0.255468 0.718993 0.361541
O O5 0.123830 0.224766 0.862014
O O6 0.013596 0.471164 0.847219
O O7 0.169436 0.307744 0.992876
O O8 0.994953 0.122787 0.859817
O O9 0.434584 0.262379 0.758159
O O10 0.355044 0.195527 0.612456
O O11 0.273095 0.455071 0.617179
O O12 0.460881 0.293086 0.586912
#
# Coordination Sequence:
#
# PCOD9273406 Si02
#       6
#     8   8   8   8   8   8
#     4  10  22  41  63  91 122 154 201 255 299 350
#     4  10  20  37  65  91 114 155 205 250 293 347
#     4  11  23  39  59  90 122 164 202 243 298 358
#     4  10  22  41  63  91 122 154 201 255 299 350
#     4  11  23  39  59  90 122 164 202 243 298 358
#     4  10  20  37  65  91 114 155 205 250 293 347
#
# _framework density 21.480862999999999
#
# number of rings (size 3 to 8) (size 9 to 14) (size 15 to 20)
#    0.000    1.667    3.333    1.000    0.000    4.000 
#    6.000    5.000    0.000    0.000    0.000    0.000 
#    0.000    0.000    0.000    0.000    0.000    0.000 
#
# Total GULP energy -134130.038795 kJ/mol
# GULP energy per Si atom -5588.751616 kJ/mol
# Density = 2.143197 g / cm^3
# Si number density = 21.480863 Si / 1000 Ang^3
#
#
#
# Elastic Constant Matrix: (Units=GPa)
#
#
# Indices 1 2 3 4 5 6 
#
# 1 145.4645 64.8786 2.8801 0.0000 18.3203 0.0000
# 2 64.8786 159.8571 -7.5020 0.0001 12.4687 0.0000
# 3 2.8801 -7.5020 20.6909 0.0000 4.8062 0.0000
# 4 0.0000 0.0001 0.0000 10.2921 0.0000 -0.4550
# 5 18.3203 12.4687 4.8062 0.0000 9.8010 0.0000
# 6 0.0000 0.0000 0.0000 -0.4550 0.0000 16.2571
#
#
#
# Elastic Compliance Matrix: (Units=1/GPa)
#
#
# Indices 1 2 3 4 5 6 
#
# 1 0.010107 -0.002796 0.001288 0.000000 -0.015967 0.000000
# 2 -0.002796 0.008243 0.005191 0.000000 -0.007805 0.000000
# 3 0.001288 0.005191 0.058828 0.000000 -0.037860 0.000000
# 4 0.000000 0.000000 0.000000 0.097282 0.000000 0.002723
# 5 -0.015967 -0.007805 -0.037860 0.000000 0.160372 0.000000
# 6 0.000000 0.000000 0.000000 0.002723 0.000000 0.061588
#
#
# Mechanical properties :
#
#
# Convention : Reuss Voigt Hill
#
# Bulk Modulus (GPa) = 11.82821 49.61397 30.72109
# Shear Modulus (GPa) = 11.98365 24.98709 18.48537
#
# Velocity S-wave (km/s) = 2.36450 3.41431 2.93670
# Velocity P-wave (km/s) = 3.60178 6.22015 5.08248
#
# Compressibility (1/GPa) = 0.08454367
#
# Stress axis : x y z
#
# Youngs Moduli (GPa) = 98.94081 121.31762 16.99882
#
# Poissons Ratio (x) = 0.33922 -0.02190
# Poissons Ratio (y) = 0.27665 -0.08824
# Poissons Ratio (z) = -0.12746 -0.62975
#
# Static dielectric constant tensor:
#      x y z
#    x 1.808000 0.000000 -0.020420 
#    y 0.000000 1.748760 0.000000 
#    z -0.020420 0.000000 1.821630 
# 
# From -- ./inp_files/261090.got.cif
#   From: 2010.05.17/outbox.cif.g08.bks.cpg/sg15_131_cif.got.tgz:261090.got - 2010.06.03 18:47:42.
