data_PCOD9273048
_publ_section_title
;
Structure prediction by ZEFSAII (Michael W. Deem and Ramdas Pophale) SiO2 
 PCOD9273048
Probable space group: C 2/C
;
_chemical_formula_sum "Si O2"
_cell_formula_units_Z 64
_cell_length_a 16.882258
_cell_length_b 8.932198
_cell_length_c 21.644859
_cell_angle_alpha 90.000000
_cell_angle_beta 111.348128
_cell_angle_gamma 90.000000
_cell_volume 3039.997555
_symmetry_space_group_name_H-M "C 2/C"
_symmetry_group_IT_number 15
_symmetry_cell_setting 'monoclinic'
loop_
_space_group_symop_operation_xyz
x,y,z
-x,y,1/2-z
-x,-y,-z
x,-y,1/2+z
1/2+x,1/2+y,z
1/2-x,1/2+y,1/2-z
1/2-x,1/2-y,-z
1/2+x,1/2-y,1/2+z
loop_
_atom_site_type_symbol
_atom_site_label
_atom_site_fract_x
_atom_site_fract_y
_atom_site_fract_z
Si Si1 0.828737 0.208581 0.205148
Si Si2 0.581013 0.095139 0.546277
Si Si3 0.466152 0.773363 0.810323
Si Si4 0.798989 0.723672 0.225985
Si Si5 0.369773 0.758502 0.561150
Si Si6 0.537148 0.122125 0.670250
Si Si7 0.153683 0.475069 0.359702
Si Si8 0.235688 0.047132 0.886984
O O1 0.763140 0.163227 0.239988
O O2 0.908248 0.278053 0.266565
O O3 0.790192 0.341417 0.151096
O O4 0.832252 0.071153 0.158781
O O5 0.607334 0.220144 0.503468
O O6 0.555728 0.164141 0.605052
O O7 0.500000 0.000000 0.500000
O O8 0.667407 0.995003 0.575121
O O9 0.500000 0.765824 0.750000
O O10 0.376335 0.691095 0.782323
O O11 0.542035 0.728518 0.876810
O O12 0.441616 0.944454 0.820662
O O13 0.838624 0.597478 0.192521
O O14 0.753933 0.833452 0.165523
O O15 0.337433 0.920905 0.577787
O O16 0.196308 0.865586 0.434365
O O17 0.562984 0.109373 0.842715
#
# Coordination Sequence:
#
# PCOD9273048 Si02
#       8
#     8   8   8   8   8   8   8   8
#     4  12  22  36  61  97 136 158 209 278 342 385
#     4  12  22  40  69  95 125 179 238 267 305 408
#     4  11  16  34  63  87 124 161 217 263 318 375
#     4  11  20  36  60  94 131 164 214 272 322 387
#     4  10  22  40  67  93 125 177 225 268 317 394
#     4  11  19  37  63  97 121 167 222 267 313 392
#     4  10  20  37  62  89 126 173 213 261 321 390
#     4  11  24  39  59  99 136 164 214 282 339 374
#
# _framework density 21.052648000000001
#
# number of rings (size 3 to 8) (size 9 to 14) (size 15 to 20)
#    0.000    1.000    8.750    2.250    0.000    0.000 
#    4.500    0.625    0.000    0.750    0.000    0.000 
#    0.000    0.000    0.000    0.000    0.000    0.000 
#
# Total GULP energy -178181.797941 kJ/mol
# GULP energy per Si atom -5568.181186 kJ/mol
# Density = 2.100473 g / cm^3
# Si number density = 21.052648 Si / 1000 Ang^3
#
#
#
# Elastic Constant Matrix: (Units=GPa)
#
#
# Indices 1 2 3 4 5 6 
#
# 1 102.5389 26.8577 48.8919 0.0000 -3.0004 0.0000
# 2 26.8577 40.3047 25.0438 0.0000 -3.3649 0.0000
# 3 48.8919 25.0438 105.1635 0.0000 -13.9690 0.0000
# 4 0.0000 0.0000 0.0000 16.7690 0.0000 3.8234
# 5 -3.0004 -3.3649 -13.9690 0.0000 48.0529 0.0000
# 6 0.0000 0.0000 0.0000 3.8234 0.0000 20.8009
#
#
#
# Elastic Compliance Matrix: (Units=1/GPa)
#
#
# Indices 1 2 3 4 5 6 
#
# 1 0.013736 -0.006087 -0.005075 0.000000 -0.001044 0.000000
# 2 -0.006087 0.031817 -0.004682 0.000000 0.000487 0.000000
# 3 -0.005075 -0.004682 0.013416 0.000000 0.003255 0.000000
# 4 0.000000 0.000000 0.000000 0.062243 0.000000 -0.011441
# 5 -0.001044 0.000487 0.003255 0.000000 0.021726 0.000000
# 6 0.000000 0.000000 0.000000 -0.011441 0.000000 0.050178
#
#
# Mechanical properties :
#
#
# Convention : Reuss Voigt Hill
#
# Bulk Modulus (GPa) = 36.65660 49.95488 43.30574
# Shear Modulus (GPa) = 21.37682 26.93878 24.15780
#
# Velocity S-wave (km/s) = 3.18999 3.58102 3.39114
# Velocity P-wave (km/s) = 5.56935 6.39362 5.99567
#
# Compressibility (1/GPa) = 0.02728021
#
# Stress axis : x y z
#
# Youngs Moduli (GPa) = 72.80085 31.42948 74.53764
#
# Poissons Ratio (x) = 0.19131 0.37830
# Poissons Ratio (y) = 0.44313 0.34902
# Poissons Ratio (z) = 0.36948 0.14717
#
# Static dielectric constant tensor:
#      x y z
#    x 1.846390 0.000000 0.060940 
#    y 0.000000 1.819610 0.000000 
#    z 0.060940 0.000000 1.814070 
# 
# From -- ./inp_files/279398.got.cif
#   From: 2010.05.17/outbox.cif.g08.bks.cpg/sg15_140_cif.got.tgz:279398.got - 2010.06.03 18:47:42.
