data_PCOD9273866
_publ_section_title
;
Structure prediction by ZEFSAII (Michael W. Deem and Ramdas Pophale) SiO2 
 PCOD9273866
Probable space group: C 2/C
;
_chemical_formula_sum "Si O2"
_cell_formula_units_Z 40
_cell_length_a 4.950855
_cell_length_b 22.200781
_cell_length_c 17.907398
_cell_angle_alpha 90.000000
_cell_angle_beta 82.054154
_cell_angle_gamma 90.000000
_cell_volume 1949.356240
_symmetry_space_group_name_H-M "C 2/C"
_symmetry_group_IT_number 15
_symmetry_cell_setting 'monoclinic'
loop_
_space_group_symop_operation_xyz
x,y,z
-x,y,1/2-z
-x,-y,-z
x,-y,1/2+z
1/2+x,1/2+y,z
1/2-x,1/2+y,1/2-z
1/2-x,1/2-y,-z
1/2+x,1/2-y,1/2+z
loop_
_atom_site_type_symbol
_atom_site_label
_atom_site_fract_x
_atom_site_fract_y
_atom_site_fract_z
Si Si1 0.932118 0.240328 0.602068
Si Si2 0.215813 0.509673 0.602068
Si Si3 0.500000 0.916867 0.250000
Si Si4 0.500000 0.666867 0.750000
Si Si5 0.945020 0.812534 0.559329
Si Si6 0.254349 0.437466 0.940672
O O1 0.631116 0.261438 0.590978
O O2 0.942896 0.207195 0.679895
O O3 0.033838 0.197456 0.530723
O O4 0.135931 0.297795 0.593521
O O5 0.527905 0.488563 0.590976
O O6 0.185433 0.552545 0.530723
O O7 0.127210 0.542805 0.679895
O O8 0.020545 0.452205 0.593521
O O9 0.738318 0.875000 0.273364
O O10 0.087600 0.875000 0.574798
#
# Coordination Sequence:
#
# PCOD9273866 Si02
#       6
#     8   8   4   4   8   8
#     4  10  22  37  58  87 114 148 198 236 283 353
#     4  10  22  37  58  87 114 148 198 236 283 353
#     4  12  24  40  61  86 119 152 190 248 304 346
#     4  12  24  40  61  86 119 152 190 248 304 346
#     4  10  20  38  60  83 115 153 192 238 285 340
#     4  10  20  38  60  83 115 153 192 238 285 340
#
# _framework density 20.519591999999999
#
# number of rings (size 3 to 8) (size 9 to 14) (size 15 to 20)
#    0.000    1.600    0.000    4.800    0.000    6.400 
#    0.000    6.000    0.000    0.000    0.000    0.000 
#    0.000    0.000    0.000    0.000    0.000    0.000 
#
# Total GULP energy -111797.827222 kJ/mol
# GULP energy per Si atom -5589.891361 kJ/mol
# Density = 2.047289 g / cm^3
# Si number density = 20.519592 Si / 1000 Ang^3
#
#
#
# Elastic Constant Matrix: (Units=GPa)
#
#
# Indices 1 2 3 4 5 6 
#
# 1 85.9432 -7.1769 14.6070 0.0000 -2.5933 0.0000
# 2 -7.1769 51.9985 30.0137 0.0000 3.0767 0.0000
# 3 14.6070 30.0137 135.5512 0.0000 6.6994 0.0000
# 4 0.0000 0.0000 0.0000 2.2129 0.0000 -1.4035
# 5 -2.5933 3.0767 6.6994 0.0000 20.7638 0.0000
# 6 0.0000 0.0000 0.0000 -1.4035 0.0000 19.1801
#
#
#
# Elastic Compliance Matrix: (Units=1/GPa)
#
#
# Indices 1 2 3 4 5 6 
#
# 1 0.012262 0.002753 -0.002019 0.000000 0.001775 0.000000
# 2 0.002753 0.022728 -0.005263 0.000000 -0.001326 0.000000
# 3 -0.002019 -0.005263 0.008876 0.000000 -0.002336 0.000000
# 4 0.000000 0.000000 0.000000 0.473882 0.000000 0.034675
# 5 0.001775 -0.001326 -0.002336 0.000000 0.049333 0.000000
# 6 0.000000 0.000000 0.000000 0.034675 0.000000 0.054675
#
#
# Mechanical properties :
#
#
# Convention : Reuss Voigt Hill
#
# Bulk Modulus (GPa) = 28.73022 38.70895 33.71958
# Shear Modulus (GPa) = 7.78313 24.16798 15.97555
#
# Velocity S-wave (km/s) = 1.94968 3.43563 2.79328
# Velocity P-wave (km/s) = 4.37037 5.88587 5.18380
#
# Compressibility (1/GPa) = 0.03480656
#
# Stress axis : x y z
#
# Youngs Moduli (GPa) = 81.55226 43.99906 112.66736
#
# Poissons Ratio (x) = -0.12111 0.22742
# Poissons Ratio (y) = -0.22447 0.59302
# Poissons Ratio (z) = 0.16462 0.23159
#
# Static dielectric constant tensor:
#      x y z
#    x 1.718110 0.000000 -0.003730 
#    y 0.000000 1.753350 0.000000 
#    z -0.003730 0.000000 1.673030 
# 
# From -- ./inp_files/184637.got.cif
#   From: 2010.05.17/outbox.cif.g08.bks.cpg/sg15_93_cif.got.tgz:184637.got - 2010.06.03 18:47:42.
