data_PCOD9273215
_publ_section_title
;
Structure prediction by ZEFSAII (Michael W. Deem and Ramdas Pophale) SiO2 
 PCOD9273215
Probable space group: C 2/C
;
_chemical_formula_sum "Si O2"
_cell_formula_units_Z 64
_cell_length_a 22.994468
_cell_length_b 20.707348
_cell_length_c 17.606410
_cell_angle_alpha 90.000000
_cell_angle_beta 23.955323
_cell_angle_gamma 90.000000
_cell_volume 3403.851066
_symmetry_space_group_name_H-M "C 2/C"
_symmetry_group_IT_number 15
_symmetry_cell_setting 'monoclinic'
loop_
_space_group_symop_operation_xyz
x,y,z
-x,y,1/2-z
-x,-y,-z
x,-y,1/2+z
1/2+x,1/2+y,z
1/2-x,1/2+y,1/2-z
1/2-x,1/2-y,-z
1/2+x,1/2-y,1/2+z
loop_
_atom_site_type_symbol
_atom_site_label
_atom_site_fract_x
_atom_site_fract_y
_atom_site_fract_z
Si Si1 0.836924 0.226078 0.967916
Si Si2 0.365532 0.881703 0.465775
Si Si3 0.446096 0.364102 0.727299
Si Si4 0.796259 0.666821 0.645815
Si Si5 0.873916 0.531619 0.100672
Si Si6 0.604510 0.246517 0.468664
Si Si7 0.896431 0.945115 0.089250
Si Si8 0.897491 0.344909 0.665738
O O1 0.000000 0.210603 0.750000
O O2 0.750000 0.250000 0.000000
O O3 0.829807 0.282825 0.039053
O O4 0.735045 0.170508 0.122130
O O5 0.500000 0.880150 0.250000
O O6 0.219715 0.880863 0.590522
O O7 0.385116 0.943275 0.499655
O O8 0.363559 0.814842 0.516569
O O9 0.500000 0.369153 0.750000
O O10 0.486000 0.292297 0.648620
O O11 0.530532 0.412324 0.570439
O O12 0.738408 0.706941 0.788111
O O13 0.669425 0.614598 0.781970
O O14 0.951365 0.636127 0.477356
O O15 0.744392 0.483386 0.264217
O O16 0.842603 0.598691 0.178640
O O17 0.000000 0.500000 0.000000
O O18 0.567887 0.216708 0.429576
O O19 0.000000 0.000000 0.000000
#
# Coordination Sequence:
#
# PCOD9273215 Si02
#       8
#     8   8   8   8   8   8   8   8
#     4  11  22  38  61  91 129 160 203 266 323 371
#     4  11  24  40  62  95 128 159 203 258 313 369
#     4  11  24  40  63  93 128 164 200 255 318 370
#     4  10  20  37  64  91 120 163 207 252 314 379
#     4  11  23  42  68  90 119 166 216 256 303 368
#     4   9  21  36  63  94 126 155 203 249 315 375
#     4  11  23  44  66  88 123 165 213 260 303 368
#     4  10  20  37  63  92 121 160 210 252 313 376
#
# _framework density 18.802232
#
# number of rings (size 3 to 8) (size 9 to 14) (size 15 to 20)
#    0.000    1.500    3.750    1.125    1.750    4.000 
#    0.000    3.750    0.000    0.000    0.000    0.000 
#    0.000    0.000    0.000    0.000    0.000    0.000 
#
# Total GULP energy -178195.412054 kJ/mol
# GULP energy per Si atom -5568.606627 kJ/mol
# Density = 1.875944 g / cm^3
# Si number density = 18.802232 Si / 1000 Ang^3
#
#
#
# Elastic Constant Matrix: (Units=GPa)
#
#
# Indices 1 2 3 4 5 6 
#
# 1 80.9690 15.3922 58.2413 -0.0008 -5.0520 0.0007
# 2 15.3922 71.1990 40.3903 -0.0005 0.2596 0.0004
# 3 58.2413 40.3903 155.7267 -0.0034 -11.7650 0.0030
# 4 -0.0008 -0.0005 -0.0034 25.5099 0.0018 -8.5618
# 5 -5.0520 0.2596 -11.7650 0.0018 31.4055 -0.0018
# 6 0.0007 0.0004 0.0030 -8.5618 -0.0018 20.4591
#
#
#
# Elastic Compliance Matrix: (Units=1/GPa)
#
#
# Indices 1 2 3 4 5 6 
#
# 1 0.016900 -0.000100 -0.006267 0.000000 0.000372 0.000000
# 2 -0.000100 0.016567 -0.004395 0.000000 -0.001800 0.000000
# 3 -0.006267 -0.004395 0.010118 0.000001 0.002819 -0.000001
# 4 0.000000 0.000000 0.000001 0.045606 -0.000001 0.019085
# 5 0.000372 -0.001800 0.002819 -0.000001 0.032972 0.000002
# 6 0.000000 0.000000 -0.000001 0.019085 0.000002 0.056865
#
#
# Mechanical properties :
#
#
# Convention : Reuss Voigt Hill
#
# Bulk Modulus (GPa) = 45.32857 59.54917 52.43887
# Shear Modulus (GPa) = 24.04934 28.39962 26.22448
#
# Velocity S-wave (km/s) = 3.58029 3.89065 3.73869
# Velocity P-wave (km/s) = 6.42275 7.20576 6.82549
#
# Compressibility (1/GPa) = 0.02206114
#
# Stress axis : x y z
#
# Youngs Moduli (GPa) = 59.17087 60.36173 98.83201
#
# Poissons Ratio (x) = 0.00603 0.61934
# Poissons Ratio (y) = 0.00592 0.43441
# Poissons Ratio (z) = 0.37080 0.26532
#
# Static dielectric constant tensor:
#      x y z
#    x 25.432260 -0.060560 8.460990 
#    y -0.060560 2.068140 -0.021540 
#    z 8.460990 -0.021540 4.668530 
# 
# From -- ./inp_files/220235.got.cif
#   From: 2010.05.17/outbox.cif.g08.bks.cpg/sg15_111_cif.got.tgz:220235.got - 2010.06.03 18:47:42.
