data_PCOD9273058
_publ_section_title
;
Structure prediction by ZEFSAII (Michael W. Deem and Ramdas Pophale) SiO2 
 PCOD9273058
Probable space group: C 2/C
;
_chemical_formula_sum "Si O2"
_cell_formula_units_Z 56
_cell_length_a 8.239411
_cell_length_b 16.716621
_cell_length_c 25.984998
_cell_angle_alpha 90.000000
_cell_angle_beta 45.039411
_cell_angle_gamma 90.000000
_cell_volume 2532.508303
_symmetry_space_group_name_H-M "C 2/C"
_symmetry_group_IT_number 15
_symmetry_cell_setting 'monoclinic'
loop_
_space_group_symop_operation_xyz
x,y,z
-x,y,1/2-z
-x,-y,-z
x,-y,1/2+z
1/2+x,1/2+y,z
1/2-x,1/2+y,1/2-z
1/2-x,1/2-y,-z
1/2+x,1/2-y,1/2+z
loop_
_atom_site_type_symbol
_atom_site_label
_atom_site_fract_x
_atom_site_fract_y
_atom_site_fract_z
Si Si1 0.687539 0.596603 0.748069
Si Si2 0.585773 0.738349 0.585362
Si Si3 0.051489 0.072042 0.889068
Si Si4 0.633806 0.864467 0.091977
Si Si5 0.379427 0.699407 0.356423
Si Si6 0.106350 0.288479 0.778391
Si Si7 0.298662 0.062801 0.033057
O O1 0.500000 0.563464 0.750000
O O2 0.697893 0.563035 0.803724
O O3 0.641092 0.692099 0.765025
O O4 0.923788 0.589911 0.665473
O O5 0.750000 0.750000 0.500000
O O6 0.617522 0.644705 0.590214
O O7 0.315079 0.757604 0.634836
O O8 0.595378 0.794399 0.633301
O O9 0.159871 0.106124 0.917314
O O10 0.923167 0.990939 0.928008
O O11 0.588793 0.769576 0.108263
O O12 0.653245 0.887067 0.028757
O O13 0.629360 0.681603 0.276101
O O14 0.260217 0.622050 0.407085
O O15 0.000000 0.321631 0.750000
O O16 0.500000 0.000000 0.000000
#
# Coordination Sequence:
#
# PCOD9273058 Si02
#       7
#     8   8   8   8   8   8   8
#     4   9  17  34  60  86 112 151 199 243 294 363
#     4  10  20  37  62  90 121 161 207 253 305 371
#     4  10  21  37  57  84 117 154 194 241 301 363
#     4  10  21  39  63  85 114 158 204 247 297 366
#     4  10  22  40  63  89 121 164 210 257 308 374
#     4   9  19  36  61  90 120 157 208 260 307 367
#     4  12  24  39  58  90 126 157 198 257 317 368
#
# _framework density 22.112465
#
# number of rings (size 3 to 8) (size 9 to 14) (size 15 to 20)
#    0.000    2.000    0.000    3.429    0.000   10.286 
#    0.000    8.571    0.000    0.000    0.000    0.000 
#    0.000    0.000    0.000    0.000    0.000    0.000 
#
# Total GULP energy -155986.655271 kJ/mol
# GULP energy per Si atom -5570.951974 kJ/mol
# Density = 2.206214 g / cm^3
# Si number density = 22.112465 Si / 1000 Ang^3
#
#
#
# Elastic Constant Matrix: (Units=GPa)
#
#
# Indices 1 2 3 4 5 6 
#
# 1 47.3859 -1.7819 -1.0883 0.0017 1.9750 0.0008
# 2 -1.7819 50.2388 11.9307 0.0032 -2.6035 -0.0014
# 3 -1.0883 11.9307 115.5963 0.0105 12.4467 -0.0048
# 4 0.0017 0.0032 0.0105 2.8071 -0.0045 3.6268
# 5 1.9750 -2.6035 12.4467 -0.0045 27.9639 0.0014
# 6 0.0008 -0.0014 -0.0048 3.6268 0.0014 14.1222
#
#
#
# Elastic Compliance Matrix: (Units=1/GPa)
#
#
# Indices 1 2 3 4 5 6 
#
# 1 0.021199 0.000597 0.000308 -0.000024 -0.001579 0.000005
# 2 0.000597 0.020661 -0.002447 -0.000016 0.002970 0.000005
# 3 0.000308 -0.002447 0.009383 -0.000066 -0.004426 0.000020
# 4 -0.000024 -0.000016 -0.000066 0.533140 0.000122 -0.136921
# 5 -0.001579 0.002970 -0.004426 0.000122 0.038118 -0.000036
# 6 0.000005 0.000005 0.000020 -0.136921 -0.000036 0.105974
#
#
# Mechanical properties :
#
#
# Convention : Reuss Voigt Hill
#
# Bulk Modulus (GPa) = 20.76454 25.70466 23.23460
# Shear Modulus (GPa) = 6.68796 22.58932 14.63864
#
# Velocity S-wave (km/s) = 1.74100 3.19966 2.57574
# Velocity P-wave (km/s) = 3.66773 5.02993 4.40184
#
# Compressibility (1/GPa) = 0.04815901
#
# Stress axis : x y z
#
# Youngs Moduli (GPa) = 47.17279 48.40017 106.57838
#
# Poissons Ratio (x) = -0.02889 -0.03282
# Poissons Ratio (y) = -0.02816 0.26076
# Poissons Ratio (z) = -0.01453 0.11842
#
# Static dielectric constant tensor:
#      x y z
#    x 2.042750 0.000000 0.051010 
#    y 0.000000 1.792250 0.000000 
#    z 0.051010 0.000000 1.894320 
# 
# From -- ./inp_files/289677.got.cif
#   From: 2010.05.17/outbox.cif.g08.bks.cpg/sg15_145_cif.got.tgz:289677.got - 2010.06.03 18:47:42.
