data_PCOD9273376
_publ_section_title
;
Structure prediction by ZEFSAII (Michael W. Deem and Ramdas Pophale) SiO2 
 PCOD9273376
Probable space group: C 2/C
;
_chemical_formula_sum "Si O2"
_cell_formula_units_Z 64
_cell_length_a 14.023140
_cell_length_b 26.544518
_cell_length_c 10.842393
_cell_angle_alpha 90.000000
_cell_angle_beta 140.888787
_cell_angle_gamma 90.000000
_cell_volume 2545.985896
_symmetry_space_group_name_H-M "C 2/C"
_symmetry_group_IT_number 15
_symmetry_cell_setting 'monoclinic'
loop_
_space_group_symop_operation_xyz
x,y,z
-x,y,1/2-z
-x,-y,-z
x,-y,1/2+z
1/2+x,1/2+y,z
1/2-x,1/2+y,1/2-z
1/2-x,1/2-y,-z
1/2+x,1/2-y,1/2+z
loop_
_atom_site_type_symbol
_atom_site_label
_atom_site_fract_x
_atom_site_fract_y
_atom_site_fract_z
Si Si1 0.459758 0.330738 0.951562
Si Si2 0.817109 0.256270 0.201760
Si Si3 0.404454 0.161493 0.962352
Si Si4 0.559955 0.428956 0.946871
Si Si5 0.292581 0.501017 0.759768
Si Si6 0.822602 0.593940 0.299457
Si Si7 0.822344 0.905010 0.108508
Si Si8 0.127261 0.749386 0.263327
O O1 0.447103 0.285909 0.840972
O O2 0.573203 0.374833 0.023689
O O3 0.300553 0.361952 0.788336
O O4 0.521605 0.299250 0.132212
O O5 0.721144 0.243919 0.230095
O O6 0.750000 0.250000 0.000000
O O7 0.135231 0.311903 0.208186
O O8 0.512909 0.116250 0.040285
O O9 0.509896 0.203122 0.136829
O O10 0.500000 0.422426 0.750000
O O11 0.429852 0.460337 0.887182
O O12 0.699746 0.466362 0.106632
O O13 0.164648 0.459522 0.618595
O O14 0.313396 0.544518 0.680853
O O15 0.765152 0.583342 0.104325
O O16 0.726191 0.860242 0.078894
O O17 0.000000 0.895995 0.250000
O O18 0.250000 0.750000 0.500000
#
# Coordination Sequence:
#
# PCOD9273376 Si02
#       8
#     8   8   8   8   8   8   8   8
#     4  10  24  43  71 110 145 213 259 328 388 465
#     4  11  27  49  79 112 164 215 267 333 407 486
#     4  11  28  48  76 119 158 213 266 331 402 481
#     4  10  20  37  65 101 144 189 266 317 377 461
#     4  10  22  41  68 108 146 205 252 325 396 470
#     4  11  24  48  72 109 162 197 269 328 397 476
#     4  12  26  44  79 114 157 206 269 339 404 473
#     4  11  27  49  79 115 165 210 271 332 401 489
#
# _framework density 25.137609999999999
#
# number of rings (size 3 to 8) (size 9 to 14) (size 15 to 20)
#    0.000    1.250    1.250    3.750    8.750    3.500 
#    2.250    1.875    0.000    0.000    0.000    0.000 
#    0.000    0.000    0.000    0.000    0.000    0.000 
#
# Total GULP energy -178496.931462 kJ/mol
# GULP energy per Si atom -5578.029108 kJ/mol
# Density = 2.508040 g / cm^3
# Si number density = 25.137610 Si / 1000 Ang^3
#
#
#
# Elastic Constant Matrix: (Units=GPa)
#
#
# Indices 1 2 3 4 5 6 
#
# 1 107.3044 66.1238 48.6264 0.0000 5.4079 0.0000
# 2 66.1238 193.9552 68.5346 0.0000 5.8889 0.0000
# 3 48.6264 68.5346 158.4982 0.0000 -25.4848 0.0000
# 4 0.0000 0.0000 0.0000 40.4621 0.0000 8.5655
# 5 5.4079 5.8889 -25.4848 0.0000 37.5683 0.0000
# 6 0.0000 0.0000 0.0000 8.5655 0.0000 33.0544
#
#
#
# Elastic Compliance Matrix: (Units=1/GPa)
#
#
# Indices 1 2 3 4 5 6 
#
# 1 0.012872 -0.003174 -0.003137 0.000000 -0.003483 0.000000
# 2 -0.003174 0.007202 -0.002524 0.000000 -0.002384 0.000000
# 3 -0.003137 -0.002524 0.009539 0.000000 0.007318 0.000000
# 4 0.000000 0.000000 0.000000 0.026149 0.000000 -0.006776
# 5 -0.003483 -0.002384 0.007318 0.000000 0.032458 0.000000
# 6 0.000000 0.000000 0.000000 -0.006776 0.000000 0.032009
#
#
# Mechanical properties :
#
#
# Convention : Reuss Voigt Hill
#
# Bulk Modulus (GPa) = 83.71937 91.81415 87.76676
# Shear Modulus (GPa) = 35.24092 40.64850 37.94471
#
# Velocity S-wave (km/s) = 3.74828 4.02560 3.88942
# Velocity P-wave (km/s) = 7.21870 7.62963 7.42701
#
# Compressibility (1/GPa) = 0.01194467
#
# Stress axis : x y z
#
# Youngs Moduli (GPa) = 77.68578 138.84698 104.82804
#
# Poissons Ratio (x) = 0.44076 0.32881
# Poissons Ratio (y) = 0.24661 0.26455
# Poissons Ratio (z) = 0.24367 0.35040
#
# Static dielectric constant tensor:
#      x y z
#    x 2.235050 0.000000 0.087810 
#    y 0.000000 2.053420 0.000000 
#    z 0.087810 0.000000 1.842080 
# 
# From -- ./inp_files/114634.got.cif
#   From: 2010.05.17/outbox.cif.g08.bks.cpg/sg15_58_cif.got.tgz:114634.got - 2010.06.03 18:47:42.
