data_PCOD9273863
_publ_section_title
;
Structure prediction by ZEFSAII (Michael W. Deem and Ramdas Pophale) SiO2 
 PCOD9273863
Probable space group: C 2/C
;
_chemical_formula_sum "Si O2"
_cell_formula_units_Z 40
_cell_length_a 22.983079
_cell_length_b 8.417616
_cell_length_c 17.673262
_cell_angle_alpha 90.000000
_cell_angle_beta 149.420331
_cell_angle_gamma 90.000000
_cell_volume 1739.428047
_symmetry_space_group_name_H-M "C 2/C"
_symmetry_group_IT_number 15
_symmetry_cell_setting 'monoclinic'
loop_
_space_group_symop_operation_xyz
x,y,z
-x,y,1/2-z
-x,-y,-z
x,-y,1/2+z
1/2+x,1/2+y,z
1/2-x,1/2+y,1/2-z
1/2-x,1/2-y,-z
1/2+x,1/2-y,1/2+z
loop_
_atom_site_type_symbol
_atom_site_label
_atom_site_fract_x
_atom_site_fract_y
_atom_site_fract_z
Si Si1 0.000000 0.121221 0.750000
Si Si2 0.338487 0.529925 0.439781
Si Si3 0.412941 0.850479 0.452568
Si Si4 0.626124 0.881316 0.806457
Si Si5 0.000000 0.629247 0.750000
Si Si6 0.584497 0.195222 0.009951
O O1 0.946230 0.032259 0.618774
O O2 0.892874 0.224349 0.663653
O O3 0.349713 0.689519 0.403239
O O4 0.228769 0.564356 0.368747
O O5 0.345617 0.360553 0.404430
O O6 0.517112 0.865587 0.629174
O O7 0.473576 0.817406 0.440251
O O8 0.356092 0.025093 0.401388
O O9 0.605714 0.019758 0.843500
O O10 0.042307 0.700479 0.876019
#
# Coordination Sequence:
#
# PCOD9273863 Si02
#       6
#     4   8   8   8   4   8
#     4   9  19  34  58  87 125 154 185 249 298 331
#     4  11  20  36  63  87 113 157 203 231 288 361
#     4   9  21  41  56  83 124 155 185 249 298 332
#     4   9  19  37  59  85 120 155 197 238 291 347
#     4   9  19  38  60  85 123 152 181 253 296 335
#     4  10  20  38  60  82 117 154 191 240 297 345
#
# _framework density 22.996064000000001
#
# number of rings (size 3 to 8) (size 9 to 14) (size 15 to 20)
#    0.000    2.400    0.000    3.000    0.000    0.800 
#   10.800    8.000    0.000    0.000    0.000    0.000 
#    0.000    0.000    0.000    0.000    0.000    0.000 
#
# Total GULP energy -111400.787437 kJ/mol
# GULP energy per Si atom -5570.039372 kJ/mol
# Density = 2.294372 g / cm^3
# Si number density = 22.996064 Si / 1000 Ang^3
#
#
#
# Elastic Constant Matrix: (Units=GPa)
#
#
# Indices 1 2 3 4 5 6 
#
# 1 160.7634 105.2574 15.9573 0.0000 -3.6011 0.0000
# 2 105.2574 246.9212 51.3741 0.0000 5.7276 0.0000
# 3 15.9573 51.3741 51.3299 0.0000 -6.5769 0.0000
# 4 0.0000 0.0000 0.0000 36.9396 0.0000 -41.4729
# 5 -3.6011 5.7276 -6.5769 0.0000 30.2076 0.0000
# 6 0.0000 0.0000 0.0000 -41.4729 0.0000 16.0475
#
#
#
# Elastic Compliance Matrix: (Units=1/GPa)
#
#
# Indices 1 2 3 4 5 6 
#
# 1 0.008832 -0.004173 0.001715 0.000000 0.002218 0.000000
# 2 -0.004173 0.007226 -0.006351 0.000000 -0.003250 0.000000
# 3 0.001715 -0.006351 0.026217 0.000000 0.007117 0.000000
# 4 0.000000 0.000000 0.000000 -0.014236 0.000000 -0.036792
# 5 0.002218 -0.003250 0.007117 0.000000 0.035534 0.000000
# 6 0.000000 0.000000 0.000000 -0.036792 0.000000 -0.032771
#
#
# Mechanical properties :
#
#
# Convention : Reuss Voigt Hill
#
# Bulk Modulus (GPa) = 40.55674 89.35468 64.95571
# Shear Modulus (GPa) = 88.27896 35.73398 62.00647
#
# Velocity S-wave (km/s) = 6.20259 3.94625 5.19832
# Velocity P-wave (km/s) = 8.30486 7.72688 8.02108
#
# Compressibility (1/GPa) = 0.02465682
#
# Stress axis : x y z
#
# Youngs Moduli (GPa) = 113.22304 138.39648 38.14338
#
# Poissons Ratio (x) = 0.57757 -0.06543
# Poissons Ratio (y) = 0.47251 0.24225
# Poissons Ratio (z) = -0.19421 0.87895
#
# Static dielectric constant tensor:
#      x y z
#    x 1.330300 0.000000 0.526250 
#    y 0.000000 1.952920 0.000000 
#    z 0.526250 0.000000 1.367680 
# 
# From -- ./inp_files/102880.got.cif
#   From: 2010.05.17/outbox.cif.g08.bks.cpg/sg15_52_cif.got.tgz:102880.got - 2010.06.03 18:47:42.
