data_PCOD9273896
_publ_section_title
;
Structure prediction by ZEFSAII (Michael W. Deem and Ramdas Pophale) SiO2 
 PCOD9273896
Probable space group: C 2/C
;
_chemical_formula_sum "Si O2"
_cell_formula_units_Z 52
_cell_length_a 9.735681
_cell_length_b 15.947674
_cell_length_c 17.639110
_cell_angle_alpha 90.000000
_cell_angle_beta 108.855592
_cell_angle_gamma 90.000000
_cell_volume 2591.706246
_symmetry_space_group_name_H-M "C 2/C"
_symmetry_group_IT_number 15
_symmetry_cell_setting 'monoclinic'
loop_
_space_group_symop_operation_xyz
x,y,z
-x,y,1/2-z
-x,-y,-z
x,-y,1/2+z
1/2+x,1/2+y,z
1/2-x,1/2+y,1/2-z
1/2-x,1/2-y,-z
1/2+x,1/2-y,1/2+z
loop_
_atom_site_type_symbol
_atom_site_label
_atom_site_fract_x
_atom_site_fract_y
_atom_site_fract_z
Si Si1 0.500000 0.676635 0.750000
Si Si2 0.307090 0.205010 0.312155
Si Si3 0.721013 0.979006 0.505827
Si Si4 0.000000 0.890383 0.750000
Si Si5 0.255015 0.647374 0.896688
Si Si6 0.051894 0.534399 0.132022
Si Si7 0.000000 0.590873 0.750000
Si Si8 0.506587 0.538828 0.872702
O O1 0.632024 0.732930 0.741935
O O2 0.555051 0.613802 0.825194
O O3 0.317672 0.261787 0.389887
O O4 0.415287 0.127056 0.334758
O O5 0.146211 0.165567 0.275744
O O6 0.732061 0.883520 0.477829
O O7 0.651759 0.982534 0.576874
O O8 0.611514 0.021879 0.427036
O O9 0.875279 0.022536 0.541710
O O10 0.994702 0.953763 0.821254
O O11 0.108816 0.643601 0.820790
O O12 0.358618 0.574828 0.880763
O O13 0.081648 0.469652 0.205046
#
# Coordination Sequence:
#
# PCOD9273896 Si02
#       8
#     4   8   8   4   8   8   4   8
#     4   9  23  38  61  85 124 152 196 247 301 344
#     4  11  21  38  55  92 119 151 194 253 299 344
#     4  10  21  39  59  86 116 160 193 238 287 360
#     4  11  21  36  63  89 116 154 204 249 289 342
#     4  10  22  36  60  86 121 149 195 243 300 342
#     4  10  21  37  61  83 119 151 199 238 292 348
#     4  10  20  38  60  86 108 162 200 234 282 370
#     4  10  20  40  61  84 114 159 202 240 283 356
#
# _framework density 20.064003
#
# number of rings (size 3 to 8) (size 9 to 14) (size 15 to 20)
#    0.000    1.846    1.538    2.308    4.308    1.846 
#    2.769    3.077    0.000    0.000    0.000    0.000 
#    0.000    0.000    0.000    0.000    0.000    0.000 
#
# Total GULP energy -145086.772877 kJ/mol
# GULP energy per Si atom -5580.260495 kJ/mol
# Density = 2.001834 g / cm^3
# Si number density = 20.064003 Si / 1000 Ang^3
#
#
#
# Elastic Constant Matrix: (Units=GPa)
#
#
# Indices 1 2 3 4 5 6 
#
# 1 72.3443 27.0896 7.1618 0.0000 -1.5352 0.0000
# 2 27.0896 91.7086 7.5562 0.0000 -4.6106 0.0000
# 3 7.1618 7.5562 39.2244 0.0000 -2.5280 0.0000
# 4 0.0000 0.0000 0.0000 14.3671 0.0000 -10.3587
# 5 -1.5352 -4.6106 -2.5280 0.0000 30.8013 0.0000
# 6 0.0000 0.0000 0.0000 -10.3587 0.0000 63.6543
#
#
#
# Elastic Compliance Matrix: (Units=1/GPa)
#
#
# Indices 1 2 3 4 5 6 
#
# 1 0.015696 -0.004473 -0.002007 0.000000 -0.000052 0.000000
# 2 -0.004473 0.012424 -0.001479 0.000000 0.001515 0.000000
# 3 -0.002007 -0.001479 0.026264 0.000000 0.001834 0.000000
# 4 0.000000 0.000000 0.000000 0.078855 0.000000 0.012832
# 5 -0.000052 0.001515 0.001834 0.000000 0.032841 0.000000
# 6 0.000000 0.000000 0.000000 0.012832 0.000000 0.017798
#
#
# Mechanical properties :
#
#
# Convention : Reuss Voigt Hill
#
# Bulk Modulus (GPa) = 25.99853 31.87693 28.93773
# Shear Modulus (GPa) = 23.51634 32.52919 28.02276
#
# Velocity S-wave (km/s) = 3.42726 4.03087 3.74126
# Velocity P-wave (km/s) = 5.35233 6.13074 5.75471
#
# Compressibility (1/GPa) = 0.03846371
#
# Stress axis : x y z
#
# Youngs Moduli (GPa) = 63.71243 80.49229 38.07498
#
# Poissons Ratio (x) = 0.36008 0.07643
# Poissons Ratio (y) = 0.28502 0.05631
# Poissons Ratio (z) = 0.12789 0.11903
#
# Static dielectric constant tensor:
#      x y z
#    x 1.765820 0.000000 -0.031930 
#    y 0.000000 1.699960 0.000000 
#    z -0.031930 0.000000 1.718810 
# 
# From -- ./inp_files/197286.got.cif
#   From: 2010.05.17/outbox.cif.g08.bks.cpg/sg15_99_cif.got.tgz:197286.got - 2010.06.03 18:47:42.
