data_PCOD9273225
_publ_section_title
;
Structure prediction by ZEFSAII (Michael W. Deem and Ramdas Pophale) SiO2 
 PCOD9273225
Probable space group: C 2/C
;
_chemical_formula_sum "Si O2"
_cell_formula_units_Z 56
_cell_length_a 23.388623
_cell_length_b 5.431702
_cell_length_c 17.697305
_cell_angle_alpha 90.000000
_cell_angle_beta 85.334086
_cell_angle_gamma 90.000000
_cell_volume 2240.815313
_symmetry_space_group_name_H-M "C 2/C"
_symmetry_group_IT_number 15
_symmetry_cell_setting 'monoclinic'
loop_
_space_group_symop_operation_xyz
x,y,z
-x,y,1/2-z
-x,-y,-z
x,-y,1/2+z
1/2+x,1/2+y,z
1/2-x,1/2+y,1/2-z
1/2-x,1/2-y,-z
1/2+x,1/2-y,1/2+z
loop_
_atom_site_type_symbol
_atom_site_label
_atom_site_fract_x
_atom_site_fract_y
_atom_site_fract_z
Si Si1 0.596878 0.662424 0.341598
Si Si2 0.512840 0.899102 0.118516
Si Si3 0.823577 0.194359 0.736412
Si Si4 0.359305 0.001812 0.861999
Si Si5 0.323922 0.948955 0.587441
Si Si6 0.062184 0.218883 0.969778
Si Si7 0.297462 0.514778 0.890474
O O1 0.538570 0.799209 0.324690
O O2 0.619928 0.477218 0.276148
O O3 0.647626 0.834932 0.366419
O O4 0.578354 0.514681 0.418953
O O5 0.572210 0.990741 0.145691
O O6 0.481096 0.113581 0.074480
O O7 0.535002 0.696263 0.054835
O O8 0.839324 0.443543 0.778433
O O9 0.809049 0.235138 0.650806
O O10 0.783164 0.062907 0.801951
O O11 0.330518 0.257373 0.890054
O O12 0.336098 0.753059 0.906013
O O13 0.262675 0.012108 0.559674
O O14 0.376979 0.863236 0.530784
#
# Coordination Sequence:
#
# PCOD9273225 Si02
#       7
#     8   8   8   8   8   8   8
#     4  10  20  37  63  93 119 161 211 266 312 364
#     4  10  21  42  63  88 127 163 217 261 312 379
#     4   9  22  35  60  92 122 164 207 250 320 369
#     4  10  24  40  61  92 127 169 202 251 326 375
#     4  10  21  38  61  94 124 159 219 258 309 374
#     4   9  21  39  66  91 115 167 214 268 315 358
#     4  10  24  39  63  91 128 168 205 253 316 378
#
# _framework density 24.990904
#
# number of rings (size 3 to 8) (size 9 to 14) (size 15 to 20)
#    0.857    1.429    0.000    1.286   10.000    0.000 
#    0.000   18.571    0.000    0.000    0.000    0.000 
#    0.000    0.000    0.000    0.000    0.000    0.000 
#
# Total GULP energy -156327.988509 kJ/mol
# GULP energy per Si atom -5583.142447 kJ/mol
# Density = 2.493402 g / cm^3
# Si number density = 24.990904 Si / 1000 Ang^3
#
#
#
# Elastic Constant Matrix: (Units=GPa)
#
#
# Indices 1 2 3 4 5 6 
#
# 1 160.8713 60.8482 9.5548 0.0000 -20.3179 0.0000
# 2 60.8482 117.7179 13.1709 0.0000 -13.7006 0.0000
# 3 9.5548 13.1709 49.0189 0.0000 -9.4732 0.0000
# 4 0.0000 0.0000 0.0000 23.5903 0.0000 -15.7057
# 5 -20.3179 -13.7006 -9.4732 0.0000 31.0396 0.0000
# 6 0.0000 0.0000 0.0000 -15.7057 0.0000 20.3820
#
#
#
# Elastic Compliance Matrix: (Units=1/GPa)
#
#
# Indices 1 2 3 4 5 6 
#
# 1 0.008100 -0.003775 0.000147 0.000000 0.003681 0.000000
# 2 -0.003775 0.010857 -0.001841 0.000000 0.001759 0.000000
# 3 0.000147 -0.001841 0.022027 0.000000 0.006006 0.000000
# 4 0.000000 0.000000 0.000000 0.087047 0.000000 0.067076
# 5 0.003681 0.001759 0.006006 0.000000 0.037236 0.000000
# 6 0.000000 0.000000 0.000000 0.067076 0.000000 0.100749
#
#
# Mechanical properties :
#
#
# Convention : Reuss Voigt Hill
#
# Bulk Modulus (GPa) = 33.28337 54.97286 44.12812
# Shear Modulus (GPa) = 17.42337 31.27132 24.34735
#
# Velocity S-wave (km/s) = 2.64330 3.54122 3.12468
# Velocity P-wave (km/s) = 4.76058 6.22617 5.54204
#
# Compressibility (1/GPa) = 0.03004503
#
# Stress axis : x y z
#
# Youngs Moduli (GPa) = 123.45417 92.10703 45.39852
#
# Poissons Ratio (x) = 0.34770 -0.00666
# Poissons Ratio (y) = 0.46604 0.08360
# Poissons Ratio (z) = -0.01812 0.16960
#
# Static dielectric constant tensor:
#      x y z
#    x 1.974760 0.000000 0.024920 
#    y 0.000000 2.030100 0.000000 
#    z 0.024920 0.000000 2.001060 
# 
# From -- ./inp_files/278629.got.cif
#   From: 2010.05.17/outbox.cif.g08.bks.cpg/sg15_140_cif.got.tgz:278629.got - 2010.06.03 18:47:42.
