data_PCOD9273583
_publ_section_title
;
Structure prediction by ZEFSAII (Michael W. Deem and Ramdas Pophale) SiO2 
 PCOD9273583
Probable space group: C 2/C
;
_chemical_formula_sum "Si O2"
_cell_formula_units_Z 64
_cell_length_a 10.729432
_cell_length_b 11.908405
_cell_length_c 22.564452
_cell_angle_alpha 90.000000
_cell_angle_beta 102.734735
_cell_angle_gamma 90.000000
_cell_volume 2812.149164
_symmetry_space_group_name_H-M "C 2/C"
_symmetry_group_IT_number 15
_symmetry_cell_setting 'monoclinic'
loop_
_space_group_symop_operation_xyz
x,y,z
-x,y,1/2-z
-x,-y,-z
x,-y,1/2+z
1/2+x,1/2+y,z
1/2-x,1/2+y,1/2-z
1/2-x,1/2-y,-z
1/2+x,1/2-y,1/2+z
loop_
_atom_site_type_symbol
_atom_site_label
_atom_site_fract_x
_atom_site_fract_y
_atom_site_fract_z
Si Si1 0.333963 0.476938 0.731109
Si Si2 0.730374 0.380509 0.014507
Si Si3 0.835066 0.604527 0.712170
Si Si4 0.376814 0.708521 0.316103
Si Si5 0.206611 0.431221 0.602668
Si Si6 0.095095 0.810445 0.108630
Si Si7 0.902798 0.776590 0.191586
Si Si8 0.012973 0.603021 0.886513
O O1 0.200750 0.500754 0.750470
O O2 0.410866 0.410017 0.789614
O O3 0.302339 0.414547 0.667399
O O4 0.374710 0.600915 0.716728
O O5 0.616902 0.383436 0.051142
O O6 0.865756 0.413815 0.058606
O O7 0.750000 0.250000 0.000000
O O8 0.719891 0.445174 0.951504
O O9 0.869334 0.707792 0.758626
O O10 0.708239 0.644506 0.663366
O O11 0.936133 0.570880 0.673255
O O12 0.232681 0.713379 0.326878
O O13 0.471732 0.766497 0.372632
O O14 0.124545 0.317501 0.592922
O O15 0.110361 0.533555 0.606094
O O16 0.969647 0.801652 0.135826
O O17 0.000000 0.723236 0.250000
#
# Coordination Sequence:
#
# PCOD9273583 Si02
#       8
#     8   8   8   8   8   8   8   8
#     4  11  22  36  58  92 129 157 197 243 322 370
#     4   9  22  42  64  85 118 162 219 252 304 354
#     4  10  20  38  52  89 125 154 193 242 309 369
#     4  11  22  37  56  93 127 156 193 251 307 366
#     4  11  20  38  64  90 113 165 210 257 297 356
#     4  10  20  40  60  84 119 165 200 249 299 367
#     4  11  20  38  57  86 129 160 194 239 306 384
#     4  11  22  38  64  89 122 154 211 261 298 361
#
# _framework density 22.758393999999999
#
# number of rings (size 3 to 8) (size 9 to 14) (size 15 to 20)
#    0.000    1.500    6.250    0.750    1.750    1.000 
#    0.000    0.625    0.000    7.500    0.000    0.000 
#    0.000    0.000    0.000    0.000    0.000    0.000 
#
# Total GULP energy -178615.886331 kJ/mol
# GULP energy per Si atom -5581.746448 kJ/mol
# Density = 2.270659 g / cm^3
# Si number density = 22.758394 Si / 1000 Ang^3
#
#
#
# Elastic Constant Matrix: (Units=GPa)
#
#
# Indices 1 2 3 4 5 6 
#
# 1 106.3099 -4.2445 37.2649 0.0000 -31.2733 0.0000
# 2 -4.2445 39.2439 3.9949 0.0000 -0.8920 0.0000
# 3 37.2649 3.9949 90.1606 0.0000 -31.8026 0.0000
# 4 0.0000 0.0000 0.0000 22.5055 0.0000 -1.3116
# 5 -31.2733 -0.8920 -31.8026 0.0000 37.9324 0.0000
# 6 0.0000 0.0000 0.0000 -1.3116 0.0000 17.8639
#
#
#
# Elastic Compliance Matrix: (Units=1/GPa)
#
#
# Indices 1 2 3 4 5 6 
#
# 1 0.012850 0.001824 -0.002329 0.000000 0.008685 0.000000
# 2 0.001824 0.025863 -0.001640 0.000000 0.000737 0.000000
# 3 -0.002329 -0.001640 0.016238 0.000000 0.011655 0.000000
# 4 0.000000 0.000000 0.000000 0.044624 0.000000 0.003276
# 5 0.008685 0.000737 0.011655 0.000000 0.043312 0.000000
# 6 0.000000 0.000000 0.000000 0.003276 0.000000 0.056219
#
#
# Mechanical properties :
#
#
# Convention : Reuss Voigt Hill
#
# Bulk Modulus (GPa) = 19.73849 34.41611 27.07730
# Shear Modulus (GPa) = 22.69811 28.90698 25.80254
#
# Velocity S-wave (km/s) = 3.16151 3.56781 3.37079
# Velocity P-wave (km/s) = 4.69242 5.66812 5.20319
#
# Compressibility (1/GPa) = 0.05066243
#
# Stress axis : x y z
#
# Youngs Moduli (GPa) = 77.81814 38.66579 61.58543
#
# Poissons Ratio (x) = -0.07054 0.14341
# Poissons Ratio (y) = -0.14197 0.10099
# Poissons Ratio (z) = 0.18121 0.06341
#
# Static dielectric constant tensor:
#      x y z
#    x 1.953290 0.000000 0.002370 
#    y 0.000000 1.872200 0.000000 
#    z 0.002370 0.000000 1.886870 
# 
# From -- ./inp_files/268893.got.cif
#   From: 2010.05.17/outbox.cif.g08.bks.cpg/sg15_135_cif.got.tgz:268893.got - 2010.06.03 18:47:42.
