data_PCOD9273600
_publ_section_title
;
Structure prediction by ZEFSAII (Michael W. Deem and Ramdas Pophale) SiO2 
 PCOD9273600
Probable space group: C 2/C
;
_chemical_formula_sum "Si O2"
_cell_formula_units_Z 44
_cell_length_a 5.124781
_cell_length_b 22.727941
_cell_length_c 15.735725
_cell_angle_alpha 90.000000
_cell_angle_beta 85.637049
_cell_angle_gamma 90.000000
_cell_volume 1827.518641
_symmetry_space_group_name_H-M "C 2/C"
_symmetry_group_IT_number 15
_symmetry_cell_setting 'monoclinic'
loop_
_space_group_symop_operation_xyz
x,y,z
-x,y,1/2-z
-x,-y,-z
x,-y,1/2+z
1/2+x,1/2+y,z
1/2-x,1/2+y,1/2-z
1/2-x,1/2-y,-z
1/2+x,1/2-y,1/2+z
loop_
_atom_site_type_symbol
_atom_site_label
_atom_site_fract_x
_atom_site_fract_y
_atom_site_fract_z
Si Si1 0.927502 0.800535 0.451763
Si Si2 0.037114 0.563287 0.955164
Si Si3 0.500000 0.097739 0.250000
Si Si4 0.436141 0.162259 0.851503
Si Si5 0.374703 0.510235 0.340526
Si Si6 0.815652 0.883421 0.593179
O O1 0.750000 0.750000 0.500000
O O2 0.714188 0.824913 0.389951
O O3 0.993318 0.840577 0.533499
O O4 0.201505 0.795743 0.392862
O O5 0.290228 0.545659 0.894807
O O6 0.861666 0.596812 0.890262
O O7 0.082188 0.606300 0.032527
O O8 0.000000 0.500000 0.000000
O O9 0.646889 0.053896 0.311181
O O10 0.297892 0.134558 0.312325
O O11 0.500000 0.163497 0.750000
O O12 0.500000 0.490379 0.250000
O O13 0.552353 0.553681 0.391804
#
# Coordination Sequence:
#
# PCOD9273600 Si02
#       6
#     8   8   4   8   8   8
#     4  11  25  49  75 100 135 183 238 296 371 430
#     4  11  21  36  64  92 137 184 230 269 345 420
#     4  10  20  38  54  90 130 170 230 284 334 412
#     4  11  26  46  72 106 148 181 237 302 359 430
#     4  10  21  35  57  90 134 178 229 277 338 417
#     4  10  22  38  62  90 131 175 230 291 349 411
#
# _framework density 24.076360999999999
#
# number of rings (size 3 to 8) (size 9 to 14) (size 15 to 20)
#    0.000    1.455    1.818    2.727    3.818    4.364 
#    3.273    0.909    0.000    0.000    0.000    0.000 
#    0.000    0.000    0.000    0.000    0.000    0.000 
#
# Total GULP energy -122530.080731 kJ/mol
# GULP energy per Si atom -5569.549124 kJ/mol
# Density = 2.402156 g / cm^3
# Si number density = 24.076361 Si / 1000 Ang^3
#
#
#
# Elastic Constant Matrix: (Units=GPa)
#
#
# Indices 1 2 3 4 5 6 
#
# 1 106.5823 9.7405 52.3979 0.0000 -8.9749 0.0000
# 2 9.7405 46.6099 51.9267 0.0000 -10.7983 0.0000
# 3 52.3979 51.9267 177.8003 0.0000 -20.0008 0.0000
# 4 0.0000 0.0000 0.0000 9.2611 0.0000 4.5366
# 5 -8.9749 -10.7983 -20.0008 0.0000 45.1656 0.0000
# 6 0.0000 0.0000 0.0000 4.5366 0.0000 20.8807
#
#
#
# Elastic Compliance Matrix: (Units=1/GPa)
#
#
# Indices 1 2 3 4 5 6 
#
# 1 0.011138 0.002135 -0.003788 0.000000 0.001046 0.000000
# 2 0.002135 0.032801 -0.009765 0.000000 0.003942 0.000000
# 3 -0.003788 -0.009765 0.009730 0.000000 0.001221 0.000000
# 4 0.000000 0.000000 0.000000 0.120838 0.000000 -0.026254
# 5 0.001046 0.003942 0.001221 0.000000 0.023832 0.000000
# 6 0.000000 0.000000 0.000000 -0.026254 0.000000 0.053595
#
#
# Mechanical properties :
#
#
# Convention : Reuss Voigt Hill
#
# Bulk Modulus (GPa) = 32.43391 62.12476 47.27934
# Shear Modulus (GPa) = 17.54090 29.52332 23.53211
#
# Velocity S-wave (km/s) = 2.70210 3.50557 3.12972
# Velocity P-wave (km/s) = 4.82034 6.49958 5.72190
#
# Compressibility (1/GPa) = 0.03083192
#
# Stress axis : x y z
#
# Youngs Moduli (GPa) = 89.78501 30.48685 102.77470
#
# Poissons Ratio (x) = -0.06509 0.38933
# Poissons Ratio (y) = -0.19170 1.00363
# Poissons Ratio (z) = 0.34012 0.29771
#
# Static dielectric constant tensor:
#      x y z
#    x 2.066550 0.000000 -0.059530 
#    y 0.000000 2.095430 0.000000 
#    z -0.059530 0.000000 1.632190 
# 
# From -- ./inp_files/129374.got.cif
#   From: 2010.05.17/outbox.cif.g08.bks.cpg/sg15_65_cif.got.tgz:129374.got - 2010.06.03 18:47:42.
