data_PCOD9273331
_publ_section_title
;
Structure prediction by ZEFSAII (Michael W. Deem and Ramdas Pophale) SiO2 
 PCOD9273331
Probable space group: C 2/C
;
_chemical_formula_sum "Si O2"
_cell_formula_units_Z 32
_cell_length_a 23.153635
_cell_length_b 5.033689
_cell_length_c 14.949373
_cell_angle_alpha 90.000000
_cell_angle_beta 136.908902
_cell_angle_gamma 90.000000
_cell_volume 1190.285585
_symmetry_space_group_name_H-M "C 2/C"
_symmetry_group_IT_number 15
_symmetry_cell_setting 'monoclinic'
loop_
_space_group_symop_operation_xyz
x,y,z
-x,y,1/2-z
-x,-y,-z
x,-y,1/2+z
1/2+x,1/2+y,z
1/2-x,1/2+y,1/2-z
1/2-x,1/2-y,-z
1/2+x,1/2-y,1/2+z
loop_
_atom_site_type_symbol
_atom_site_label
_atom_site_fract_x
_atom_site_fract_y
_atom_site_fract_z
Si Si1 0.161945 0.403103 0.216988
Si Si2 0.593709 0.844326 0.939279
Si Si3 0.938446 0.919896 0.348093
Si Si4 0.182843 0.150059 0.495538
O O1 0.136182 0.343747 0.086251
O O2 0.129345 0.697265 0.201732
O O3 0.259909 0.362902 0.349691
O O4 0.110094 0.195371 0.221247
O O5 0.647892 0.643382 0.940250
O O6 0.606412 0.143817 0.921526
O O7 0.501225 0.723230 0.849689
O O8 0.000000 0.000000 0.500000
O O9 0.250000 0.250000 0.500000
#
# Coordination Sequence:
#
# PCOD9273331 Si02
#       4
#     8   8   8   8
#     4  11  21  39  64  91 117 154 201 251 301 359
#     4  11  21  40  63  86 115 157 200 247 300 358
#     4  10  20  37  64  94 117 146 199 259 301 350
#     4  12  25  40  57  87 125 161 199 245 297 359
#
# _framework density 26.884305999999999
#
# number of rings (size 3 to 8) (size 9 to 14) (size 15 to 20)
#    0.000    1.000    0.000   11.250    0.000    0.000 
#    0.000    7.500    0.000    0.000    0.000    0.000 
#    0.000    0.000    0.000    0.000    0.000    0.000 
#
# Total GULP energy -89757.126700 kJ/mol
# GULP energy per Si atom -5609.820419 kJ/mol
# Density = 2.682312 g / cm^3
# Si number density = 26.884306 Si / 1000 Ang^3
#
#
#
# Elastic Constant Matrix: (Units=GPa)
#
#
# Indices 1 2 3 4 5 6 
#
# 1 99.8457 19.0618 12.5935 0.0001 -3.6230 -0.0001
# 2 19.0618 146.4626 32.0322 0.0014 8.3566 0.0010
# 3 12.5935 32.0322 111.5550 0.0001 5.8345 0.0002
# 4 0.0001 0.0014 0.0001 35.5721 0.0001 20.3589
# 5 -3.6230 8.3566 5.8345 0.0001 37.7162 0.0000
# 6 -0.0001 0.0010 0.0002 20.3589 0.0000 59.9021
#
#
#
# Elastic Compliance Matrix: (Units=1/GPa)
#
#
# Indices 1 2 3 4 5 6 
#
# 1 0.010416 -0.001241 -0.000894 0.000000 0.001414 0.000000
# 2 -0.001241 0.007497 -0.001935 0.000000 -0.001481 0.000000
# 3 -0.000894 -0.001935 0.009681 0.000000 -0.001155 0.000000
# 4 0.000000 0.000000 0.000000 0.034901 0.000000 -0.011862
# 5 0.001414 -0.001481 -0.001155 0.000000 0.027156 0.000000
# 6 0.000000 0.000000 0.000000 -0.011862 0.000000 0.020725
#
#
# Mechanical properties :
#
#
# Convention : Reuss Voigt Hill
#
# Bulk Modulus (GPa) = 51.40011 53.91537 52.65774
# Shear Modulus (GPa) = 39.99969 46.24980 43.12475
#
# Velocity S-wave (km/s) = 3.86144 4.15218 4.00945
# Velocity P-wave (km/s) = 6.24832 6.56396 6.40809
#
# Compressibility (1/GPa) = 0.01945521
#
# Stress axis : x y z
#
# Youngs Moduli (GPa) = 96.00286 133.38833 103.29390
#
# Poissons Ratio (x) = 0.16552 0.09230
# Poissons Ratio (y) = 0.11913 0.19989
# Poissons Ratio (z) = 0.08578 0.25813
#
# Static dielectric constant tensor:
#      x y z
#    x 2.083320 0.000000 -0.089180 
#    y 0.000000 1.976980 0.000000 
#    z -0.089180 0.000000 2.162550 
# 
# From -- ./inp_files/170379.got.cif
#   From: 2010.05.17/outbox.cif.g08.bks.cpg/sg15_86_cif.got.tgz:170379.got - 2010.06.03 18:47:42.
