data_PCOD9273690
_publ_section_title
;
Structure prediction by ZEFSAII (Michael W. Deem and Ramdas Pophale) SiO2 
 PCOD9273690
Probable space group: C 2/C
;
_chemical_formula_sum "Si O2"
_cell_formula_units_Z 64
_cell_length_a 18.441492
_cell_length_b 8.803829
_cell_length_c 29.808701
_cell_angle_alpha 90.000000
_cell_angle_beta 137.369272
_cell_angle_gamma 90.000000
_cell_volume 3277.728339
_symmetry_space_group_name_H-M "C 2/C"
_symmetry_group_IT_number 15
_symmetry_cell_setting 'monoclinic'
loop_
_space_group_symop_operation_xyz
x,y,z
-x,y,1/2-z
-x,-y,-z
x,-y,1/2+z
1/2+x,1/2+y,z
1/2-x,1/2+y,1/2-z
1/2-x,1/2-y,-z
1/2+x,1/2-y,1/2+z
loop_
_atom_site_type_symbol
_atom_site_label
_atom_site_fract_x
_atom_site_fract_y
_atom_site_fract_z
Si Si1 0.814778 0.917502 0.782106
Si Si2 0.547145 0.314754 0.577420
Si Si3 0.274252 0.871027 0.549314
Si Si4 0.040461 0.848631 0.475330
Si Si5 0.867457 0.682254 0.561944
Si Si6 0.604314 0.243743 0.167609
Si Si7 0.488136 0.358555 0.693311
Si Si8 0.550944 0.710391 0.820594
O O1 0.851919 0.818722 0.842612
O O2 0.695310 0.882685 0.712059
O O3 0.898342 0.876323 0.780462
O O4 0.834339 0.093722 0.802758
O O5 0.553900 0.262942 0.528925
O O6 0.525560 0.493948 0.557854
O O7 0.450513 0.233247 0.560679
O O8 0.250000 0.750000 0.500000
O O9 0.156397 0.909643 0.512853
O O10 0.339225 0.793746 0.619032
O O11 0.343902 0.005833 0.559877
O O12 0.976694 0.743174 0.411175
O O13 0.750000 0.750000 0.500000
O O14 0.916236 0.751890 0.629725
O O15 0.530400 0.240665 0.177659
O O16 0.500000 0.307109 0.750000
O O17 0.437740 0.527958 0.671143
O O18 0.500000 0.747871 0.750000
#
# Coordination Sequence:
#
# PCOD9273690 Si02
#       8
#     8   8   8   8   8   8   8   8
#     4   9  20  36  59  81 116 152 190 240 302 348
#     4   9  20  39  61  88 115 158 199 255 301 359
#     4  12  23  39  62  90 124 162 199 254 309 369
#     4  10  20  39  62  87 121 155 203 248 312 360
#     4  11  21  37  63  90 121 156 207 250 303 362
#     4  10  20  38  58  82 116 153 193 243 294 356
#     4   9  20  41  61  87 117 155 201 252 298 360
#     4  10  22  39  62  86 122 159 199 244 312 363
#
# _framework density 19.525718999999999
#
# number of rings (size 3 to 8) (size 9 to 14) (size 15 to 20)
#    0.000    2.000    2.500    1.500    1.750    3.500 
#    2.250    1.875    0.000    0.000    0.000    0.000 
#    0.000    0.000    0.000    0.000    0.000    0.000 
#
# Total GULP energy -178417.332146 kJ/mol
# GULP energy per Si atom -5575.541630 kJ/mol
# Density = 1.948128 g / cm^3
# Si number density = 19.525719 Si / 1000 Ang^3
#
#
#
# Elastic Constant Matrix: (Units=GPa)
#
#
# Indices 1 2 3 4 5 6 
#
# 1 43.1026 7.1754 22.0944 0.0000 -27.7196 0.0000
# 2 7.1754 32.3693 27.9988 0.0000 -9.6000 0.0000
# 3 22.0944 27.9988 84.7974 0.0000 -17.3021 0.0000
# 4 0.0000 0.0000 0.0000 32.3915 0.0000 13.6339
# 5 -27.7196 -9.6000 -17.3021 0.0000 38.0894 0.0000
# 6 0.0000 0.0000 0.0000 13.6339 0.0000 15.7028
#
#
#
# Elastic Compliance Matrix: (Units=1/GPa)
#
#
# Indices 1 2 3 4 5 6 
#
# 1 0.046669 0.005617 -0.007490 0.000000 0.031977 0.000000
# 2 0.005617 0.044753 -0.014444 0.000000 0.008806 0.000000
# 3 -0.007490 -0.014444 0.018360 0.000000 -0.000751 0.000000
# 4 0.000000 0.000000 0.000000 0.048653 0.000000 -0.042242
# 5 0.031977 0.008806 -0.000751 0.000000 0.051404 0.000000
# 6 0.000000 0.000000 0.000000 -0.042242 0.000000 0.100360
#
#
# Mechanical properties :
#
#
# Convention : Reuss Voigt Hill
#
# Bulk Modulus (GPa) = 12.96178 30.53405 21.74791
# Shear Modulus (GPa) = 13.56672 24.10344 18.83508
#
# Velocity S-wave (km/s) = 2.63879 3.51728 3.10922
# Velocity P-wave (km/s) = 3.99212 5.67158 4.90427
#
# Compressibility (1/GPa) = 0.07714990
#
# Stress axis : x y z
#
# Youngs Moduli (GPa) = 21.42730 22.34465 54.46576
#
# Poissons Ratio (x) = -0.12551 0.40795
# Poissons Ratio (y) = -0.12036 0.78668
# Poissons Ratio (z) = 0.16049 0.32274
#
# Static dielectric constant tensor:
#      x y z
#    x 1.728260 0.000000 -0.000670 
#    y 0.000000 1.594000 0.000000 
#    z -0.000670 0.000000 1.714340 
# 
# From -- ./inp_files/315734.got.cif
#   From: 2010.05.17/outbox.cif.g08.bks.cpg/sg15_158_cif.got.tgz:315734.got - 2010.06.03 18:47:42.
