data_PCOD9273553
_publ_section_title
;
Structure prediction by ZEFSAII (Michael W. Deem and Ramdas Pophale) SiO2 
 PCOD9273553
Probable space group: C 2/C
;
_chemical_formula_sum "Si O2"
_cell_formula_units_Z 60
_cell_length_a 17.319281
_cell_length_b 21.228961
_cell_length_c 7.909755
_cell_angle_alpha 90.000000
_cell_angle_beta 84.646690
_cell_angle_gamma 90.000000
_cell_volume 2895.497763
_symmetry_space_group_name_H-M "C 2/C"
_symmetry_group_IT_number 15
_symmetry_cell_setting 'monoclinic'
loop_
_space_group_symop_operation_xyz
x,y,z
-x,y,1/2-z
-x,-y,-z
x,-y,1/2+z
1/2+x,1/2+y,z
1/2-x,1/2+y,1/2-z
1/2-x,1/2-y,-z
1/2+x,1/2-y,1/2+z
loop_
_atom_site_type_symbol
_atom_site_label
_atom_site_fract_x
_atom_site_fract_y
_atom_site_fract_z
Si Si1 0.411773 0.067039 0.829606
Si Si2 0.217727 0.931511 0.741155
Si Si3 0.151628 0.311767 0.120355
Si Si4 0.016576 0.170508 0.923029
Si Si5 0.452099 0.556257 0.093365
Si Si6 0.500000 0.757533 0.250000
Si Si7 0.683300 0.673404 0.971571
Si Si8 0.682202 0.963499 0.472847
O O1 0.500000 0.068705 0.750000
O O2 0.384744 0.125142 0.954872
O O3 0.356288 0.071827 0.676354
O O4 0.387211 0.002757 0.924833
O O5 0.135004 0.955784 0.828647
O O6 0.202559 0.867930 0.635434
O O7 0.257422 0.984497 0.614226
O O8 0.273838 0.924235 0.891761
O O9 0.079965 0.295280 0.256594
O O10 0.239191 0.327952 0.155647
O O11 0.164759 0.247075 0.013225
O O12 0.104968 0.145759 0.909916
O O13 0.000000 0.203322 0.750000
O O14 0.007430 0.215272 0.083799
O O15 0.957248 0.113430 0.960977
O O16 0.500000 0.576510 0.250000
O O17 0.500000 0.500000 0.000000
#
# Coordination Sequence:
#
# PCOD9273553 Si02
#       8
#     8   8   8   8   8   4   8   8
#     4  11  21  41  65  94 125 164 209 263 328 394
#     4  11  21  41  60  87 132 166 216 268 322 390
#     4  10  20  37  69  89 120 169 206 258 332 386
#     4  11  23  41  63  88 127 173 216 267 326 392
#     4  12  22  35  55  88 122 169 215 265 318 378
#     4  10  20  44  64  90 126 166 208 272 336 380
#     4  10  21  40  63  89 124 171 209 266 330 378
#     4  10  24  38  64  92 125 170 209 263 328 391
#
# _framework density 20.721827000000001
#
# number of rings (size 3 to 8) (size 9 to 14) (size 15 to 20)
#    0.000    1.333    4.000    2.400    0.000    1.067 
#    0.000    5.333    0.000    0.000    0.000    0.000 
#    0.000    0.000    0.000    0.000    0.000    0.000 
#
# Total GULP energy -167194.739316 kJ/mol
# GULP energy per Si atom -5573.157977 kJ/mol
# Density = 2.067466 g / cm^3
# Si number density = 20.721827 Si / 1000 Ang^3
#
#
#
# Elastic Constant Matrix: (Units=GPa)
#
#
# Indices 1 2 3 4 5 6 
#
# 1 128.3632 27.4285 39.9044 0.0000 -40.8228 0.0000
# 2 27.4285 70.4074 24.8335 0.0000 -4.2721 0.0000
# 3 39.9044 24.8335 88.3349 0.0000 6.6509 0.0000
# 4 0.0000 0.0000 0.0000 -0.8242 0.0000 -10.7604
# 5 -40.8228 -4.2721 6.6509 0.0000 44.9811 0.0000
# 6 0.0000 0.0000 0.0000 -10.7604 0.0000 20.1376
#
#
#
# Elastic Compliance Matrix: (Units=1/GPa)
#
#
# Indices 1 2 3 4 5 6 
#
# 1 0.015266 -0.002478 -0.007306 0.000000 0.014700 0.000000
# 2 -0.002478 0.016382 -0.003472 0.000000 -0.000180 0.000000
# 3 -0.007306 -0.003472 0.016303 0.000000 -0.009371 0.000000
# 4 0.000000 0.000000 0.000000 -0.152114 0.000000 -0.081282
# 5 0.014700 -0.000180 -0.009371 0.000000 0.036941 0.000000
# 6 0.000000 0.000000 0.000000 -0.081282 0.000000 0.006226
#
#
# Mechanical properties :
#
#
# Convention : Reuss Voigt Hill
#
# Bulk Modulus (GPa) = 46.64784 52.38201 49.51493
# Shear Modulus (GPa) = -182.91197 25.85484 -78.52857
#
# Velocity S-wave (km/s) = -9.40541 3.53613 -6.16270
# Velocity P-wave (km/s) = 9.76672 6.48119 5.16638
#
# Compressibility (1/GPa) = 0.02143722
#
# Stress axis : x y z
#
# Youngs Moduli (GPa) = 65.50400 61.04125 61.33850
#
# Poissons Ratio (x) = 0.15127 0.44817
# Poissons Ratio (y) = 0.16233 0.21300
# Poissons Ratio (z) = 0.47860 0.21197
#
# Static dielectric constant tensor:
#      x y z
#    x 1.757100 0.000000 -0.015550 
#    y 0.000000 1.810890 0.000000 
#    z -0.015550 0.000000 1.757180 
# 
# From -- ./inp_files/50217.got.cif
#   From: 2010.05.17/outbox.cif.g08.bks.cpg/sg15_26_cif.got.tgz:50217.got - 2010.06.03 18:47:42.
