data_PCOD9273355
_publ_section_title
;
Structure prediction by ZEFSAII (Michael W. Deem and Ramdas Pophale) SiO2 
 PCOD9273355
Probable space group: C 2/C
;
_chemical_formula_sum "Si O2"
_cell_formula_units_Z 48
_cell_length_a 20.590588
_cell_length_b 9.799168
_cell_length_c 16.326070
_cell_angle_alpha 90.000000
_cell_angle_beta 140.068195
_cell_angle_gamma 90.000000
_cell_volume 2114.415480
_symmetry_space_group_name_H-M "C 2/C"
_symmetry_group_IT_number 15
_symmetry_cell_setting 'monoclinic'
loop_
_space_group_symop_operation_xyz
x,y,z
-x,y,1/2-z
-x,-y,-z
x,-y,1/2+z
1/2+x,1/2+y,z
1/2-x,1/2+y,1/2-z
1/2-x,1/2-y,-z
1/2+x,1/2-y,1/2+z
loop_
_atom_site_type_symbol
_atom_site_label
_atom_site_fract_x
_atom_site_fract_y
_atom_site_fract_z
Si Si1 0.952161 0.871876 0.852599
Si Si2 0.817757 0.266567 0.722918
Si Si3 0.944907 0.369943 0.985854
Si Si4 0.246303 0.491055 0.613144
Si Si5 0.884934 0.900857 0.977259
Si Si6 0.607524 0.168135 0.377764
O O1 0.986502 0.715094 0.885196
O O2 0.146542 0.083204 0.293691
O O3 0.917601 0.886706 0.914279
O O4 0.048650 0.969945 0.928900
O O5 0.909115 0.282922 0.873061
O O6 0.764825 0.122746 0.689661
O O7 0.737723 0.390790 0.646664
O O8 0.856412 0.253425 0.667814
O O9 0.839583 0.402183 0.927882
O O10 0.000000 0.500000 0.000000
O O11 0.190718 0.556299 0.481218
O O12 0.905032 0.774435 0.059306
O O13 0.500000 0.105082 0.250000
#
# Coordination Sequence:
#
# PCOD9273355 Si02
#       6
#     8   8   8   8   8   8
#     4  11  22  39  61  96 135 175 226 282 345 399
#     4  11  22  41  69 102 135 177 230 287 344 412
#     4  12  25  39  66  97 133 180 231 287 347 412
#     4  11  23  40  65  97 132 172 226 286 342 407
#     4  10  20  37  64  95 133 174 217 284 332 402
#     4  11  22  41  69 102 136 179 232 283 347 412
#
# _framework density 22.701311
#
# number of rings (size 3 to 8) (size 9 to 14) (size 15 to 20)
#    0.000    1.000    1.667    9.000    0.000    0.000 
#    0.000    0.000    0.000   23.000    0.000    0.000 
#    0.000    0.000    0.000    0.000    0.000    0.000 
#
# Total GULP energy -133990.591865 kJ/mol
# GULP energy per Si atom -5582.941328 kJ/mol
# Density = 2.264964 g / cm^3
# Si number density = 22.701311 Si / 1000 Ang^3
#
#
#
# Elastic Constant Matrix: (Units=GPa)
#
#
# Indices 1 2 3 4 5 6 
#
# 1 62.0630 21.0868 15.2660 0.0000 17.9887 0.0000
# 2 21.0868 84.3942 45.4960 0.0000 24.9257 0.0000
# 3 15.2660 45.4960 122.4900 0.0000 32.0926 0.0000
# 4 0.0000 0.0000 0.0000 34.1761 0.0000 21.9007
# 5 17.9887 24.9257 32.0926 0.0000 49.2379 0.0000
# 6 0.0000 0.0000 0.0000 21.9007 0.0000 32.0003
#
#
#
# Elastic Compliance Matrix: (Units=1/GPa)
#
#
# Indices 1 2 3 4 5 6 
#
# 1 0.018702 -0.003236 0.000280 0.000000 -0.005377 0.000000
# 2 -0.003236 0.016344 -0.004594 0.000000 -0.004098 0.000000
# 3 0.000280 -0.004594 0.011158 0.000000 -0.005049 0.000000
# 4 0.000000 0.000000 0.000000 0.052118 0.000000 -0.035669
# 5 -0.005377 -0.004098 -0.005049 0.000000 0.027640 0.000000
# 6 0.000000 0.000000 0.000000 -0.035669 0.000000 0.055661
#
#
# Mechanical properties :
#
#
# Convention : Reuss Voigt Hill
#
# Bulk Modulus (GPa) = 32.14924 48.07164 40.11044
# Shear Modulus (GPa) = 24.14406 35.55608 29.85007
#
# Velocity S-wave (km/s) = 3.26475 3.96189 3.63010
# Velocity P-wave (km/s) = 5.32955 6.49234 5.93947
#
# Compressibility (1/GPa) = 0.03110493
#
# Stress axis : x y z
#
# Youngs Moduli (GPa) = 53.47128 61.18327 89.61922
#
# Poissons Ratio (x) = 0.19796 -0.02507
# Poissons Ratio (y) = 0.17301 0.41170
# Poissons Ratio (z) = -0.01496 0.28107
#
# Static dielectric constant tensor:
#      x y z
#    x 2.054460 0.000000 0.003790 
#    y 0.000000 1.889560 0.000000 
#    z 0.003790 0.000000 1.870610 
# 
# From -- ./inp_files/167380.got.cif
#   From: 2010.05.17/outbox.cif.g08.bks.cpg/sg15_84_cif.got.tgz:167380.got - 2010.06.03 18:47:42.
