data_PCOD9273360
_publ_section_title
;
Structure prediction by ZEFSAII (Michael W. Deem and Ramdas Pophale) SiO2 
 PCOD9273360
Probable space group: C 2/C
;
_chemical_formula_sum "Si O2"
_cell_formula_units_Z 44
_cell_length_a 11.516599
_cell_length_b 27.960182
_cell_length_c 9.220428
_cell_angle_alpha 90.000000
_cell_angle_beta 43.730712
_cell_angle_gamma 90.000000
_cell_volume 2052.404365
_symmetry_space_group_name_H-M "C 2/C"
_symmetry_group_IT_number 15
_symmetry_cell_setting 'monoclinic'
loop_
_space_group_symop_operation_xyz
x,y,z
-x,y,1/2-z
-x,-y,-z
x,-y,1/2+z
1/2+x,1/2+y,z
1/2-x,1/2+y,1/2-z
1/2-x,1/2-y,-z
1/2+x,1/2-y,1/2+z
loop_
_atom_site_type_symbol
_atom_site_label
_atom_site_fract_x
_atom_site_fract_y
_atom_site_fract_z
Si Si1 0.658376 0.022272 0.439025
Si Si2 0.114242 0.265738 0.793282
Si Si3 0.335679 0.177725 0.682832
Si Si4 0.500000 0.891027 0.250000
Si Si5 0.336809 0.542785 0.003331
Si Si6 0.308273 0.649305 0.975165
O O1 0.600302 0.073880 0.551019
O O2 0.500000 0.000000 0.500000
O O3 0.706670 0.988495 0.528720
O O4 0.817094 0.023600 0.185120
O O5 0.190466 0.217693 0.792771
O O6 0.253132 0.304451 0.616689
O O7 0.000000 0.259273 0.750000
O O8 0.003429 0.291594 0.012908
O O9 0.364761 0.142482 0.789342
O O10 0.309869 0.147272 0.559844
O O11 0.500000 0.542578 0.750000
O O12 0.290276 0.598440 0.066043
O O13 0.500000 0.653426 0.750000
#
# Coordination Sequence:
#
# PCOD9273360 Si02
#       6
#     8   8   8   4   8   8
#     4  12  23  45  67  95 131 179 227 277 335 404
#     4  10  20  38  64  93 127 170 224 275 331 392
#     4  11  22  38  62  90 132 171 222 272 328 402
#     4  12  26  40  66  98 134 178 230 268 342 404
#     4  11  24  41  69  98 134 171 222 282 342 394
#     4  10  20  37  64  96 125 169 224 276 327 394
#
# _framework density 21.438272000000001
#
# number of rings (size 3 to 8) (size 9 to 14) (size 15 to 20)
#    0.000    1.091    1.818    6.545    0.000    3.636 
#    0.000    0.000    0.000    0.000    0.000    0.000 
#    0.000    0.000    0.000    0.000    0.000    0.000 
#
# Total GULP energy -122754.559817 kJ/mol
# GULP energy per Si atom -5579.752719 kJ/mol
# Density = 2.138948 g / cm^3
# Si number density = 21.438272 Si / 1000 Ang^3
#
#
#
# Elastic Constant Matrix: (Units=GPa)
#
#
# Indices 1 2 3 4 5 6 
#
# 1 64.0692 58.0646 23.0243 0.0000 4.0408 0.0000
# 2 58.0646 134.8549 41.0430 0.0000 3.7632 0.0000
# 3 23.0243 41.0430 108.3565 0.0000 0.0608 0.0000
# 4 0.0000 0.0000 0.0000 8.2813 0.0000 15.2089
# 5 4.0408 3.7632 0.0608 0.0000 26.3411 0.0000
# 6 0.0000 0.0000 0.0000 15.2089 0.0000 43.3927
#
#
#
# Elastic Compliance Matrix: (Units=1/GPa)
#
#
# Indices 1 2 3 4 5 6 
#
# 1 0.025951 -0.010656 -0.001477 0.000000 -0.002455 0.000000
# 2 -0.010656 0.012794 -0.002582 0.000000 -0.000187 0.000000
# 3 -0.001477 -0.002582 0.010520 0.000000 0.000571 0.000000
# 4 0.000000 0.000000 0.000000 0.338908 0.000000 -0.118785
# 5 -0.002455 -0.000187 0.000571 0.000000 0.038366 0.000000
# 6 0.000000 0.000000 0.000000 -0.118785 0.000000 0.064679
#
#
# Mechanical properties :
#
#
# Convention : Reuss Voigt Hill
#
# Bulk Modulus (GPa) = 50.41145 61.28271 55.84708
# Shear Modulus (GPa) = 9.48301 27.94626 18.71464
#
# Velocity S-wave (km/s) = 2.10547 3.61441 2.95779
# Velocity P-wave (km/s) = 5.42922 6.78722 6.14584
#
# Compressibility (1/GPa) = 0.01983676
#
# Stress axis : x y z
#
# Youngs Moduli (GPa) = 38.53469 78.15900 95.05489
#
# Poissons Ratio (x) = 0.83284 0.14036
# Poissons Ratio (y) = 0.41061 0.24543
# Poissons Ratio (z) = 0.05690 0.20180
#
# Static dielectric constant tensor:
#      x y z
#    x 1.773750 0.000000 -0.025160 
#    y 0.000000 1.796900 0.000000 
#    z -0.025160 0.000000 1.832220 
# 
# From -- ./inp_files/33984.got.cif
#   From: 2010.05.17/outbox.cif.g08.bks.cpg/sg15_17_cif.got.tgz:33984.got - 2010.06.03 18:47:42.
