data_PCOD9273505
_publ_section_title
;
Structure prediction by ZEFSAII (Michael W. Deem and Ramdas Pophale) SiO2 
 PCOD9273505
Probable space group: C 2/C
;
_chemical_formula_sum "Si O2"
_cell_formula_units_Z 56
_cell_length_a 18.042838
_cell_length_b 7.912937
_cell_length_c 27.872718
_cell_angle_alpha 90.000000
_cell_angle_beta 39.117623
_cell_angle_gamma 90.000000
_cell_volume 2510.685816
_symmetry_space_group_name_H-M "C 2/C"
_symmetry_group_IT_number 15
_symmetry_cell_setting 'monoclinic'
loop_
_space_group_symop_operation_xyz
x,y,z
-x,y,1/2-z
-x,-y,-z
x,-y,1/2+z
1/2+x,1/2+y,z
1/2-x,1/2+y,1/2-z
1/2-x,1/2-y,-z
1/2+x,1/2-y,1/2+z
loop_
_atom_site_type_symbol
_atom_site_label
_atom_site_fract_x
_atom_site_fract_y
_atom_site_fract_z
Si Si1 0.081321 0.034953 0.886714
Si Si2 0.323019 0.841950 0.422027
Si Si3 0.443958 0.924348 0.606167
Si Si4 0.904773 0.274904 0.190691
Si Si5 0.861043 0.123087 0.313043
Si Si6 0.155521 0.435125 0.441304
Si Si7 0.663495 0.456319 0.944690
O O1 0.069673 0.227523 0.873097
O O2 0.111592 0.888475 0.834464
O O3 0.166078 0.034183 0.890273
O O4 0.952777 0.977702 0.970293
O O5 0.250000 0.750000 0.500000
O O6 0.460005 0.819175 0.363759
O O7 0.304792 0.738458 0.382259
O O8 0.268851 0.018957 0.430179
O O9 0.582869 0.975048 0.526951
O O10 0.376387 0.054809 0.674967
O O11 0.395399 0.953815 0.576769
O O12 0.845817 0.213232 0.269559
O O13 0.000000 0.103191 0.250000
O O14 0.793810 0.952390 0.360837
O O15 0.133468 0.237376 0.448536
#
# Coordination Sequence:
#
# PCOD9273505 Si02
#       7
#     8   8   8   8   8   8   8
#     4  10  20  38  66  98 132 167 220 284 339 390
#     4  11  21  40  67  90 125 175 224 274 328 398
#     4  10  21  39  71 100 127 169 228 282 328 394
#     4  11  22  43  61  94 139 174 214 271 348 406
#     4  10  24  43  62  89 136 179 211 267 340 406
#     4  10  20  41  66  99 131 167 228 287 325 391
#     4  10  20  37  66  99 125 168 229 284 333 389
#
# _framework density 22.304662
#
# number of rings (size 3 to 8) (size 9 to 14) (size 15 to 20)
#    0.000    1.714    2.857    1.714    2.000    0.000 
#   12.857    2.857    0.000    0.000    0.000    0.000 
#    0.000    0.000    0.000    0.000    0.000    0.000 
#
# Total GULP energy -155936.574782 kJ/mol
# GULP energy per Si atom -5569.163385 kJ/mol
# Density = 2.225390 g / cm^3
# Si number density = 22.304662 Si / 1000 Ang^3
#
#
#
# Elastic Constant Matrix: (Units=GPa)
#
#
# Indices 1 2 3 4 5 6 
#
# 1 64.6826 31.2181 24.8344 0.0017 11.2254 -0.0177
# 2 31.2181 105.9749 40.7293 0.0030 19.3002 -0.0093
# 3 24.8344 40.7293 105.7991 -0.0001 20.7558 -0.0014
# 4 0.0017 0.0030 -0.0001 22.2789 0.0014 -4.0918
# 5 11.2254 19.3002 20.7558 0.0014 37.0795 -0.0010
# 6 -0.0177 -0.0093 -0.0014 -4.0918 -0.0010 29.1427
#
#
#
# Elastic Compliance Matrix: (Units=1/GPa)
#
#
# Indices 1 2 3 4 5 6 
#
# 1 0.018783 -0.004234 -0.002354 0.000001 -0.002165 0.000010
# 2 -0.004234 0.012526 -0.003146 -0.000001 -0.003477 0.000001
# 3 -0.002354 -0.003146 0.012081 0.000001 -0.004412 -0.000002
# 4 0.000001 -0.000001 0.000001 0.046074 -0.000002 0.006469
# 5 -0.002165 -0.003477 -0.004412 -0.000002 0.031904 -0.000002
# 6 0.000010 0.000001 -0.000002 0.006469 -0.000002 0.035222
#
#
# Mechanical properties :
#
#
# Convention : Reuss Voigt Hill
#
# Bulk Modulus (GPa) = 41.80375 52.22447 47.01411
# Shear Modulus (GPa) = 27.16902 29.67854 28.42378
#
# Velocity S-wave (km/s) = 3.49390 3.65169 3.57367
# Velocity P-wave (km/s) = 5.92109 6.42221 6.17673
#
# Compressibility (1/GPa) = 0.02392130
#
# Stress axis : x y z
#
# Youngs Moduli (GPa) = 53.23893 79.83508 82.77271
#
# Poissons Ratio (x) = 0.33803 0.19488
# Poissons Ratio (y) = 0.22542 0.26041
# Poissons Ratio (z) = 0.12534 0.25117
#
# Static dielectric constant tensor:
#      x y z
#    x 1.925480 0.000000 -0.058630 
#    y 0.000000 2.042870 0.000000 
#    z -0.058630 0.000000 1.905290 
# 
# From -- ./inp_files/298521.got.cif
#   From: 2010.05.17/outbox.cif.g08.bks.cpg/sg15_150_cif.got.tgz:298521.got - 2010.06.03 18:47:42.
