data_PCOD9273957
_publ_section_title
;
Structure prediction by ZEFSAII (Michael W. Deem and Ramdas Pophale) SiO2 
 PCOD9273957
Probable space group: C 2/C
;
_chemical_formula_sum "Si O2"
_cell_formula_units_Z 60
_cell_length_a 8.614756
_cell_length_b 11.844383
_cell_length_c 25.238751
_cell_angle_alpha 90.000000
_cell_angle_beta 67.468093
_cell_angle_gamma 90.000000
_cell_volume 2378.692874
_symmetry_space_group_name_H-M "C 2/C"
_symmetry_group_IT_number 15
_symmetry_cell_setting 'monoclinic'
loop_
_space_group_symop_operation_xyz
x,y,z
-x,y,1/2-z
-x,-y,-z
x,-y,1/2+z
1/2+x,1/2+y,z
1/2-x,1/2+y,1/2-z
1/2-x,1/2-y,-z
1/2+x,1/2-y,1/2+z
loop_
_atom_site_type_symbol
_atom_site_label
_atom_site_fract_x
_atom_site_fract_y
_atom_site_fract_z
Si Si1 0.779938 0.692730 0.718778
Si Si2 0.193231 0.547362 0.883078
Si Si3 0.384243 0.591634 0.949325
Si Si4 0.092085 0.813586 0.640348
Si Si5 0.103652 0.205105 0.845585
Si Si6 0.500000 0.992067 0.250000
Si Si7 0.890468 0.578184 0.374205
Si Si8 0.981996 0.138338 0.043500
O O1 0.739083 0.640692 0.667088
O O2 0.634658 0.718391 0.779188
O O3 0.914380 0.793876 0.693405
O O4 0.869806 0.588239 0.736954
O O5 0.211564 0.598897 0.939492
O O6 0.308897 0.432818 0.865140
O O7 0.005728 0.513805 0.889469
O O8 0.519541 0.597831 0.883717
O O9 0.390956 0.467868 0.974087
O O10 0.445415 0.674310 0.987936
O O11 0.217481 0.723601 0.649755
O O12 0.054341 0.790792 0.583206
O O13 0.979259 0.305049 0.877791
O O14 0.411188 0.059886 0.308598
O O15 0.698588 0.591217 0.414424
#
# Coordination Sequence:
#
# PCOD9273957 Si02
#       8
#     8   8   8   8   8   4   8   8
#     4  11  21  41  66  93 128 176 209 265 329 402
#     4   9  23  43  62  97 128 169 217 267 339 390
#     4  10  23  44  65  91 126 170 220 269 322 402
#     4  10  22  43  64  95 132 170 215 272 327 397
#     4  11  23  40  61  94 130 162 220 264 329 397
#     4  10  20  38  60  90 122 164 210 252 326 398
#     4  10  23  39  62  93 126 163 210 275 323 396
#     4  10  23  43  67  90 126 173 215 269 333 382
#
# _framework density 25.223936999999999
#
# number of rings (size 3 to 8) (size 9 to 14) (size 15 to 20)
#    0.000    1.867    1.333    0.800    5.600    2.133 
#   16.800    0.000    0.000    0.000    0.000    0.000 
#    0.000    0.000    0.000    0.000    0.000    0.000 
#
# Total GULP energy -167632.730899 kJ/mol
# GULP energy per Si atom -5587.757697 kJ/mol
# Density = 2.516653 g / cm^3
# Si number density = 25.223937 Si / 1000 Ang^3
#
#
#
# Elastic Constant Matrix: (Units=GPa)
#
#
# Indices 1 2 3 4 5 6 
#
# 1 108.5238 15.4523 34.4273 0.0000 36.2231 0.0000
# 2 15.4523 43.7061 3.1792 0.0000 2.9231 0.0000
# 3 34.4273 3.1792 97.3883 0.0000 41.6109 0.0000
# 4 0.0000 0.0000 0.0000 36.3653 0.0000 4.4293
# 5 36.2231 2.9231 41.6109 0.0000 51.5785 0.0000
# 6 0.0000 0.0000 0.0000 4.4293 0.0000 36.4784
#
#
#
# Elastic Compliance Matrix: (Units=1/GPa)
#
#
# Indices 1 2 3 4 5 6 
#
# 1 0.012726 -0.003898 -0.000988 0.000000 -0.007920 0.000000
# 2 -0.003898 0.024167 0.000007 0.000000 0.001362 0.000000
# 3 -0.000988 0.000007 0.015750 0.000000 -0.012013 0.000000
# 4 0.000000 0.000000 0.000000 0.027912 0.000000 -0.003389
# 5 -0.007920 0.001362 -0.012013 0.000000 0.034564 0.000000
# 6 0.000000 0.000000 0.000000 -0.003389 0.000000 0.027825
#
#
# Mechanical properties :
#
#
# Convention : Reuss Voigt Hill
#
# Bulk Modulus (GPa) = 23.31782 39.52619 31.42200
# Shear Modulus (GPa) = 29.94085 37.98841 33.96463
#
# Velocity S-wave (km/s) = 3.44903 3.88499 3.67348
# Velocity P-wave (km/s) = 5.01253 5.98568 5.52059
#
# Compressibility (1/GPa) = 0.04288566
#
# Stress axis : x y z
#
# Youngs Moduli (GPa) = 78.57673 41.37949 63.49274
#
# Poissons Ratio (x) = 0.16129 0.06271
# Poissons Ratio (y) = 0.30628 -0.00044
# Poissons Ratio (z) = 0.07761 -0.00029
#
# Static dielectric constant tensor:
#      x y z
#    x 2.012810 0.000000 0.029020 
#    y 0.000000 2.034560 0.000000 
#    z 0.029020 0.000000 2.049100 
# 
# From -- ./inp_files/264684.got.cif
#   From: 2010.05.17/outbox.cif.g08.bks.cpg/sg15_133_cif.got.tgz:264684.got - 2010.06.03 18:47:42.
