data_PCOD9273984
_publ_section_title
;
Structure prediction by ZEFSAII (Michael W. Deem and Ramdas Pophale) SiO2 
 PCOD9273984
Probable space group: C 2/C
;
_chemical_formula_sum "Si O2"
_cell_formula_units_Z 60
_cell_length_a 28.255944
_cell_length_b 5.501472
_cell_length_c 21.640067
_cell_angle_alpha 90.000000
_cell_angle_beta 120.621515
_cell_angle_gamma 90.000000
_cell_volume 2894.835239
_symmetry_space_group_name_H-M "C 2/C"
_symmetry_group_IT_number 15
_symmetry_cell_setting 'monoclinic'
loop_
_space_group_symop_operation_xyz
x,y,z
-x,y,1/2-z
-x,-y,-z
x,-y,1/2+z
1/2+x,1/2+y,z
1/2-x,1/2+y,1/2-z
1/2-x,1/2-y,-z
1/2+x,1/2-y,1/2+z
loop_
_atom_site_type_symbol
_atom_site_label
_atom_site_fract_x
_atom_site_fract_y
_atom_site_fract_z
Si Si1 0.325609 0.188506 0.107339
Si Si2 0.376423 0.514875 0.956903
Si Si3 0.599024 0.917489 0.731353
Si Si4 0.479724 0.173107 0.540704
Si Si5 0.090198 0.086212 0.149771
Si Si6 0.924450 0.670508 0.094978
Si Si7 0.286716 0.553396 0.991511
Si Si8 0.500000 0.795695 0.750000
O O1 0.349657 0.150035 0.190667
O O2 0.370525 0.055256 0.092532
O O3 0.261257 0.127246 0.063743
O O4 0.325400 0.446653 0.071634
O O5 0.370619 0.411151 0.884455
O O6 0.323264 0.615277 0.956754
O O7 0.422534 0.717445 0.981064
O O8 0.402491 0.321167 0.022021
O O9 0.591938 0.677004 0.683885
O O10 0.546488 0.934785 0.742115
O O11 0.604232 0.175866 0.700444
O O12 0.527550 0.366111 0.585624
O O13 0.500000 0.000000 0.500000
O O14 0.464920 0.028047 0.592936
O O15 0.960545 0.820255 0.170116
O O16 0.250000 0.750000 0.000000
#
# Coordination Sequence:
#
# PCOD9273984 Si02
#       8
#     8   8   8   8   8   8   8   4
#     4   9  22  42  66  97 130 168 227 290 342 393
#     4  11  24  39  64  97 128 180 229 276 338 407
#     4  11  25  43  65  96 140 178 228 273 345 400
#     4  12  22  37  63  92 138 175 223 267 336 405
#     4  12  25  42  64  98 139 185 220 274 333 420
#     4  10  20  38  60  93 130 171 218 273 337 400
#     4  10  21  43  72 100 127 172 232 294 344 395
#     4  10  20  40  58  96 130 180 216 274 328 408
#
# _framework density 20.726569999999999
#
# number of rings (size 3 to 8) (size 9 to 14) (size 15 to 20)
#    0.000    1.333    2.667    2.800    1.867    0.533 
#    7.200    1.333    0.000    0.000    0.000    0.000 
#    0.000    0.000    0.000    0.000    0.000    0.000 
#
# Total GULP energy -167159.033222 kJ/mol
# GULP energy per Si atom -5571.967774 kJ/mol
# Density = 2.067939 g / cm^3
# Si number density = 20.726570 Si / 1000 Ang^3
#
#
#
# Elastic Constant Matrix: (Units=GPa)
#
#
# Indices 1 2 3 4 5 6 
#
# 1 134.4290 37.3750 38.8334 -0.0003 -19.4128 -0.0004
# 2 37.3750 68.7935 29.3611 -0.0015 -19.4368 -0.0008
# 3 38.8334 29.3611 106.0948 -0.0003 -12.5228 -0.0002
# 4 -0.0003 -0.0015 -0.0003 16.4585 0.0000 3.7018
# 5 -19.4128 -19.4368 -12.5228 0.0000 35.3050 0.0000
# 6 -0.0004 -0.0008 -0.0002 3.7018 0.0000 29.1527
#
#
#
# Elastic Compliance Matrix: (Units=1/GPa)
#
#
# Indices 1 2 3 4 5 6 
#
# 1 0.009393 -0.003470 -0.002185 0.000000 0.002479 0.000000
# 2 -0.003470 0.020105 -0.003353 0.000002 0.007971 0.000000
# 3 -0.002185 -0.003353 0.011265 0.000000 0.000948 0.000000
# 4 0.000000 0.000002 0.000000 0.062545 0.000001 -0.007942
# 5 0.002479 0.007971 0.000948 0.000001 0.034413 0.000000
# 6 0.000000 0.000000 0.000000 -0.007942 0.000000 0.035311
#
#
# Mechanical properties :
#
#
# Convention : Reuss Voigt Hill
#
# Bulk Modulus (GPa) = 43.96228 57.82848 50.89538
# Shear Modulus (GPa) = 25.17255 29.76643 27.46949
#
# Velocity S-wave (km/s) = 3.48876 3.79377 3.64445
# Velocity P-wave (km/s) = 6.12252 6.86669 6.50525
#
# Compressibility (1/GPa) = 0.02274677
#
# Stress axis : x y z
#
# Youngs Moduli (GPa) = 106.46359 49.73986 88.76925
#
# Poissons Ratio (x) = 0.17260 0.19397
# Poissons Ratio (y) = 0.36943 0.29763
# Poissons Ratio (z) = 0.23263 0.16677
#
# Static dielectric constant tensor:
#      x y z
#    x 1.793460 0.000000 0.011330 
#    y 0.000000 1.817340 0.000000 
#    z 0.011330 0.000000 1.834850 
# 
# From -- ./inp_files/256784.got.cif
#   From: 2010.05.17/outbox.cif.g08.bks.cpg/sg15_129_cif.got.tgz:256784.got - 2010.06.03 18:47:42.
