data_PCOD9273016
_publ_section_title
;
Structure prediction by ZEFSAII (Michael W. Deem and Ramdas Pophale) SiO2 
 PCOD9273016
Probable space group: C 2/C
;
_chemical_formula_sum "Si O2"
_cell_formula_units_Z 44
_cell_length_a 7.365097
_cell_length_b 27.829126
_cell_length_c 10.019559
_cell_angle_alpha 90.000000
_cell_angle_beta 110.145830
_cell_angle_gamma 90.000000
_cell_volume 1928.006727
_symmetry_space_group_name_H-M "C 2/C"
_symmetry_group_IT_number 15
_symmetry_cell_setting 'monoclinic'
loop_
_space_group_symop_operation_xyz
x,y,z
-x,y,1/2-z
-x,-y,-z
x,-y,1/2+z
1/2+x,1/2+y,z
1/2-x,1/2+y,1/2-z
1/2-x,1/2-y,-z
1/2+x,1/2-y,1/2+z
loop_
_atom_site_type_symbol
_atom_site_label
_atom_site_fract_x
_atom_site_fract_y
_atom_site_fract_z
Si Si1 0.822725 0.774631 0.843767
Si Si2 0.805686 0.036545 0.285604
Si Si3 0.584335 0.901306 0.512688
Si Si4 0.526881 0.205395 0.058820
Si Si5 0.498672 0.624641 0.412586
Si Si6 0.000000 0.460010 0.250000
O O1 0.628149 0.770966 0.881275
O O2 0.738462 0.783873 0.673837
O O3 0.920138 0.823266 0.925235
O O4 0.963311 0.729959 0.904884
O O5 0.655567 0.062402 0.145597
O O6 0.869194 0.077711 0.407437
O O7 0.000000 0.023091 0.250000
O O8 0.689330 0.992971 0.320033
O O9 0.502144 0.851974 0.550711
O O10 0.462464 0.928391 0.371347
O O11 0.782859 0.884195 0.489337
O O12 0.500000 0.624258 0.250000
#
# Coordination Sequence:
#
# PCOD9273016 Si02
#       6
#     8   8   8   8   8   4
#     4  10  20  37  62  87 117 163 200 243 318 360
#     4   9  21  40  62  87 119 158 209 247 302 376
#     4  10  22  40  56  89 121 150 209 244 306 367
#     4  10  21  37  60  89 121 157 203 252 298 383
#     4   9  18  37  59  84 112 155 200 242 294 378
#     4  12  24  38  62  92 120 166 198 266 310 346
#
# _framework density 22.821494999999999
#
# number of rings (size 3 to 8) (size 9 to 14) (size 15 to 20)
#    0.000    2.545    3.636    0.545    2.545    5.091 
#    4.909    0.000    0.000    0.000    0.000    0.000 
#    0.000    0.000    0.000    0.000    0.000    0.000 
#
# Total GULP energy -122707.908316 kJ/mol
# GULP energy per Si atom -5577.632196 kJ/mol
# Density = 2.276955 g / cm^3
# Si number density = 22.821495 Si / 1000 Ang^3
#
#
#
# Elastic Constant Matrix: (Units=GPa)
#
#
# Indices 1 2 3 4 5 6 
#
# 1 40.4950 11.5050 5.7267 0.0000 3.2347 0.0000
# 2 11.5050 67.7127 32.4152 0.0000 13.5678 0.0000
# 3 5.7267 32.4152 45.6995 0.0000 8.6172 0.0000
# 4 0.0000 0.0000 0.0000 23.1994 0.0000 -3.3082
# 5 3.2347 13.5678 8.6172 0.0000 21.4606 0.0000
# 6 0.0000 0.0000 0.0000 -3.3082 0.0000 24.6634
#
#
#
# Elastic Compliance Matrix: (Units=1/GPa)
#
#
# Indices 1 2 3 4 5 6 
#
# 1 0.025978 -0.004111 -0.000099 0.000000 -0.001277 0.000000
# 2 -0.004111 0.024507 -0.015215 0.000000 -0.008764 0.000000
# 3 -0.000099 -0.015215 0.033399 0.000000 -0.003777 0.000000
# 4 0.000000 0.000000 0.000000 0.043945 0.000000 0.005895
# 5 -0.001277 -0.008764 -0.003777 0.000000 0.053847 0.000000
# 6 0.000000 0.000000 0.000000 0.005895 0.000000 0.041337
#
#
# Mechanical properties :
#
#
# Convention : Reuss Voigt Hill
#
# Bulk Modulus (GPa) = 22.20518 28.13345 25.16931
# Shear Modulus (GPa) = 18.05881 20.81536 19.43709
#
# Velocity S-wave (km/s) = 2.81607 3.02337 2.92156
# Velocity P-wave (km/s) = 4.50830 4.95399 4.73639
#
# Compressibility (1/GPa) = 0.04503454
#
# Stress axis : x y z
#
# Youngs Moduli (GPa) = 38.49362 40.80536 29.94117
#
# Poissons Ratio (x) = 0.16774 0.00296
# Poissons Ratio (y) = 0.15824 0.45556
# Poissons Ratio (z) = 0.00380 0.62085
#
# Static dielectric constant tensor:
#      x y z
#    x 1.917990 0.000000 -0.003580 
#    y 0.000000 1.873670 0.000000 
#    z -0.003580 0.000000 1.919790 
# 
# From -- ./inp_files/79991.got.cif
#   From: 2010.05.17/outbox.cif.g08.bks.cpg/sg15_40_cif.got.tgz:79991.got - 2010.06.03 18:47:42.
