data_PCOD9273199
_publ_section_title
;
Structure prediction by ZEFSAII (Michael W. Deem and Ramdas Pophale) SiO2 
 PCOD9273199
Probable space group: C 2/C
;
_chemical_formula_sum "Si O2"
_cell_formula_units_Z 40
_cell_length_a 13.879012
_cell_length_b 14.939674
_cell_length_c 17.141562
_cell_angle_alpha 90.000000
_cell_angle_beta 150.027123
_cell_angle_gamma 90.000000
_cell_volume 1775.676247
_symmetry_space_group_name_H-M "C 2/C"
_symmetry_group_IT_number 15
_symmetry_cell_setting 'monoclinic'
loop_
_space_group_symop_operation_xyz
x,y,z
-x,y,1/2-z
-x,-y,-z
x,-y,1/2+z
1/2+x,1/2+y,z
1/2-x,1/2+y,1/2-z
1/2-x,1/2-y,-z
1/2+x,1/2-y,1/2+z
loop_
_atom_site_type_symbol
_atom_site_label
_atom_site_fract_x
_atom_site_fract_y
_atom_site_fract_z
Si Si1 0.500000 0.745278 0.250000
Si Si2 0.878679 0.372098 0.441168
Si Si3 0.500000 0.559439 0.750000
Si Si4 0.815271 0.515252 0.262113
Si Si5 0.094195 0.732458 0.979526
Si Si6 0.386497 0.555523 0.025226
O O1 0.693182 0.690175 0.364484
O O2 0.480917 0.799739 0.156687
O O3 0.664204 0.380601 0.323808
O O4 0.885160 0.435923 0.368846
O O5 0.030958 0.407165 0.611897
O O6 0.959702 0.281717 0.459193
O O7 0.606936 0.496113 0.888079
O O8 0.602545 0.540394 0.143518
O O9 0.773811 0.486233 0.144734
O O10 0.132314 0.837415 0.991163
#
# Coordination Sequence:
#
# PCOD9273199 Si02
#       6
#     4   8   4   8   8   8
#     4  10  23  34  56  94 127 158 206 264 325 372
#     4  10  21  39  61  92 132 172 214 264 322 384
#     4  10  23  40  64  98 133 174 216 258 321 398
#     4   9  20  37  59  85 122 171 216 262 318 380
#     4  11  21  37  61  94 129 164 211 273 323 375
#     4  10  20  37  63  91 122 165 218 263 317 384
#
# _framework density 22.526627999999999
#
# number of rings (size 3 to 8) (size 9 to 14) (size 15 to 20)
#    0.000    2.000    0.000    3.000    0.000   10.400 
#    0.000    0.000    0.000   30.000    0.000    1.400 
#    0.000    0.000    0.000    0.000    0.000    0.000 
#
# Total GULP energy -111550.494033 kJ/mol
# GULP energy per Si atom -5577.524702 kJ/mol
# Density = 2.247536 g / cm^3
# Si number density = 22.526628 Si / 1000 Ang^3
#
#
#
# Elastic Constant Matrix: (Units=GPa)
#
#
# Indices 1 2 3 4 5 6 
#
# 1 131.8333 46.0165 49.6579 -0.0006 -5.4315 0.0003
# 2 46.0165 43.1701 19.6450 0.0008 -4.3948 0.0000
# 3 49.6579 19.6450 150.3154 0.0026 -23.9837 0.0000
# 4 -0.0006 0.0008 0.0026 10.3644 0.0002 -2.8263
# 5 -5.4315 -4.3948 -23.9837 0.0002 35.0128 0.0005
# 6 0.0003 0.0000 0.0000 -2.8263 0.0005 27.4150
#
#
#
# Elastic Compliance Matrix: (Units=1/GPa)
#
#
# Indices 1 2 3 4 5 6 
#
# 1 0.013071 -0.012773 -0.002898 0.000003 -0.001561 0.000000
# 2 -0.012773 0.037142 -0.000232 -0.000004 0.002521 0.000000
# 3 -0.002898 -0.000232 0.008492 -0.000002 0.005338 0.000000
# 4 0.000003 -0.000004 -0.000002 0.099275 -0.000002 0.010235
# 5 -0.001561 0.002521 0.005338 -0.000002 0.032292 -0.000001
# 6 0.000000 0.000000 0.000000 0.010235 -0.000001 0.037532
#
#
# Mechanical properties :
#
#
# Convention : Reuss Voigt Hill
#
# Bulk Modulus (GPa) = 37.17618 61.77307 49.47462
# Shear Modulus (GPa) = 18.61673 28.55839 23.58756
#
# Velocity S-wave (km/s) = 2.87789 3.56443 3.23940
# Velocity P-wave (km/s) = 5.25186 6.66498 6.00017
#
# Compressibility (1/GPa) = 0.02689895
#
# Stress axis : x y z
#
# Youngs Moduli (GPa) = 76.50535 26.92390 117.75672
#
# Poissons Ratio (x) = 0.34390 0.34123
# Poissons Ratio (y) = 0.97720 0.02734
# Poissons Ratio (z) = 0.22169 0.00625
#
# Static dielectric constant tensor:
#      x y z
#    x 1.855830 0.000000 0.017210 
#    y 0.000000 1.941320 0.000000 
#    z 0.017210 0.000000 1.949100 
# 
# From -- ./inp_files/205846.got.cif
#   From: 2010.05.17/outbox.cif.g08.bks.cpg/sg15_103_cif.got.tgz:205846.got - 2010.06.03 18:47:42.
