data_PCOD9273945
_publ_section_title
;
Structure prediction by ZEFSAII (Michael W. Deem and Ramdas Pophale) SiO2 
 PCOD9273945
Probable space group: C 2/C
;
_chemical_formula_sum "Si O2"
_cell_formula_units_Z 56
_cell_length_a 26.175095
_cell_length_b 15.089573
_cell_length_c 15.200262
_cell_angle_alpha 90.000000
_cell_angle_beta 21.551526
_cell_angle_gamma 90.000000
_cell_volume 2205.372288
_symmetry_space_group_name_H-M "C 2/C"
_symmetry_group_IT_number 15
_symmetry_cell_setting 'monoclinic'
loop_
_space_group_symop_operation_xyz
x,y,z
-x,y,1/2-z
-x,-y,-z
x,-y,1/2+z
1/2+x,1/2+y,z
1/2-x,1/2+y,1/2-z
1/2-x,1/2-y,-z
1/2+x,1/2-y,1/2+z
loop_
_atom_site_type_symbol
_atom_site_label
_atom_site_fract_x
_atom_site_fract_y
_atom_site_fract_z
Si Si1 0.244015 0.983345 0.531394
Si Si2 0.620377 0.202237 0.949407
Si Si3 0.606731 0.677693 0.924899
Si Si4 0.330406 0.521109 0.148402
Si Si5 0.427153 0.353717 0.224261
Si Si6 0.323263 0.306057 0.957053
Si Si7 0.044608 0.498179 0.531210
O O1 0.404388 0.966251 0.297741
O O2 0.210698 0.083862 0.551625
O O3 0.174258 0.972289 0.737940
O O4 0.193845 0.910172 0.542060
O O5 0.739845 0.219944 0.830469
O O6 0.725638 0.214768 0.697042
O O7 0.482169 0.260787 0.173709
O O8 0.568798 0.101478 0.026518
O O9 0.636134 0.581491 0.920621
O O10 0.553768 0.664189 0.910998
O O11 0.486178 0.717055 0.179462
O O12 0.186905 0.545929 0.330394
O O13 0.457436 0.581560 0.919769
O O14 0.250000 0.250000 0.000000
O O15 0.000000 0.500000 0.500000
#
# Coordination Sequence:
#
# PCOD9273945 Si02
#       7
#     8   8   8   8   8   8   8
#     4  11  21  40  65  89 126 170 216 256 319 393
#     4  11  24  37  60  93 127 165 212 269 322 371
#     4  10  20  38  60  89 124 159 208 269 320 379
#     4  10  20  39  66  89 116 170 216 253 319 387
#     4  11  21  41  66  89 124 172 217 257 318 395
#     4  12  20  36  63  95 124 159 206 268 329 377
#     4  11  24  40  60  92 133 166 205 272 322 375
#
# _framework density 25.392537000000001
#
# number of rings (size 3 to 8) (size 9 to 14) (size 15 to 20)
#    0.000    1.143    5.714    1.714    0.000    2.857 
#    0.000    3.571    0.000    5.143    0.000    0.000 
#    0.000    0.000    0.000    0.000    0.000    0.000 
#
# Total GULP energy -156288.367665 kJ/mol
# GULP energy per Si atom -5581.727417 kJ/mol
# Density = 2.533474 g / cm^3
# Si number density = 25.392537 Si / 1000 Ang^3
#
#
#
# Elastic Constant Matrix: (Units=GPa)
#
#
# Indices 1 2 3 4 5 6 
#
# 1 93.2079 12.6510 45.8423 -0.0001 -18.0659 0.0000
# 2 12.6510 45.5351 -3.0517 -0.0002 -5.4889 0.0001
# 3 45.8423 -3.0517 109.4340 -0.0002 -15.7690 0.0001
# 4 -0.0001 -0.0002 -0.0002 27.8671 0.0001 -8.9622
# 5 -18.0659 -5.4889 -15.7690 0.0001 48.4873 0.0000
# 6 0.0000 0.0001 0.0001 -8.9622 0.0000 21.7990
#
#
#
# Elastic Compliance Matrix: (Units=1/GPa)
#
#
# Indices 1 2 3 4 5 6 
#
# 1 0.014773 -0.004119 -0.005852 0.000000 0.003135 0.000000
# 2 -0.004119 0.023525 0.002669 0.000000 0.001997 0.000000
# 3 -0.005852 0.002669 0.011953 0.000000 0.002009 0.000000
# 4 0.000000 0.000000 0.000000 0.041352 0.000000 0.017001
# 5 0.003135 0.001997 0.002009 0.000000 0.022672 0.000000
# 6 0.000000 0.000000 0.000000 0.017001 0.000000 0.052863
#
#
# Mechanical properties :
#
#
# Convention : Reuss Voigt Hill
#
# Bulk Modulus (GPa) = 28.05149 39.89557 33.97353
# Shear Modulus (GPa) = 25.82316 32.47970 29.15143
#
# Velocity S-wave (km/s) = 3.19244 3.58034 3.39194
# Velocity P-wave (km/s) = 4.96588 5.73039 5.36178
#
# Compressibility (1/GPa) = 0.03564873
#
# Stress axis : x y z
#
# Youngs Moduli (GPa) = 67.68904 42.50810 83.65956
#
# Poissons Ratio (x) = 0.17508 0.48955
# Poissons Ratio (y) = 0.27879 -0.22329
# Poissons Ratio (z) = 0.39610 -0.11346
#
# Static dielectric constant tensor:
#      x y z
#    x 2.075490 0.000000 0.012400 
#    y 0.000000 2.068700 0.000000 
#    z 0.012400 0.000000 2.158180 
# 
# From -- ./inp_files/225655.got.cif
#   From: 2010.05.17/outbox.cif.g08.bks.cpg/sg15_113_cif.got.tgz:225655.got - 2010.06.03 18:47:42.
