data_PCOD9273139
_publ_section_title
;
Structure prediction by ZEFSAII (Michael W. Deem and Ramdas Pophale) SiO2 
 PCOD9273139
Probable space group: C 2/C
;
_chemical_formula_sum "Si O2"
_cell_formula_units_Z 40
_cell_length_a 18.285285
_cell_length_b 22.654015
_cell_length_c 9.013819
_cell_angle_alpha 90.000000
_cell_angle_beta 148.596912
_cell_angle_gamma 90.000000
_cell_volume 1945.538577
_symmetry_space_group_name_H-M "C 2/C"
_symmetry_group_IT_number 15
_symmetry_cell_setting 'monoclinic'
loop_
_space_group_symop_operation_xyz
x,y,z
-x,y,1/2-z
-x,-y,-z
x,-y,1/2+z
1/2+x,1/2+y,z
1/2-x,1/2+y,1/2-z
1/2-x,1/2-y,-z
1/2+x,1/2-y,1/2+z
loop_
_atom_site_type_symbol
_atom_site_label
_atom_site_fract_x
_atom_site_fract_y
_atom_site_fract_z
Si Si1 0.269614 0.398039 0.571906
Si Si2 0.972721 0.658598 0.041438
Si Si3 0.844521 0.973244 0.247149
Si Si4 0.000000 0.228583 0.750000
Si Si5 0.771202 0.137962 0.416091
Si Si6 0.000000 0.090147 0.250000
O O1 0.251826 0.468903 0.563933
O O2 0.269896 0.373446 0.738482
O O3 0.417388 0.381337 0.745006
O O4 0.144140 0.372124 0.258208
O O5 0.929916 0.725178 0.013830
O O6 0.120692 0.658434 0.214055
O O7 0.000000 0.628474 0.250000
O O8 0.867286 0.945196 0.448958
O O9 0.811619 0.921862 0.073925
O O10 0.000000 0.000000 0.500000
O O11 0.888235 0.187972 0.639357
#
# Coordination Sequence:
#
# PCOD9273139 Si02
#       6
#     8   8   8   4   8   4
#     4  11  22  40  64 100 133 170 216 269 330 397
#     4  10  25  43  64  94 134 173 221 270 330 383
#     4  10  21  38  65  99 133 170 216 266 334 399
#     4  10  24  45  70  92 130 177 228 274 318 388
#     4  12  23  43  70  96 132 175 221 274 326 393
#     4  10  20  37  62  96 132 169 212 258 324 396
#
# _framework density 20.559858999999999
#
# number of rings (size 3 to 8) (size 9 to 14) (size 15 to 20)
#    0.600    0.800    0.000    7.200    0.000    2.400 
#    0.000    2.000    0.000    0.000    0.000    0.000 
#    0.000    0.000    0.000    0.000    0.000    0.000 
#
# Total GULP energy -111483.564564 kJ/mol
# GULP energy per Si atom -5574.178228 kJ/mol
# Density = 2.051306 g / cm^3
# Si number density = 20.559859 Si / 1000 Ang^3
#
#
#
# Elastic Constant Matrix: (Units=GPa)
#
#
# Indices 1 2 3 4 5 6 
#
# 1 116.8307 7.5414 21.0444 0.0000 -8.0039 0.0000
# 2 7.5414 94.8182 48.0552 0.0000 -9.2496 0.0000
# 3 21.0444 48.0552 102.6059 0.0000 -19.6743 0.0000
# 4 0.0000 0.0000 0.0000 19.3278 0.0000 22.1760
# 5 -8.0039 -9.2496 -19.6743 0.0000 47.7506 0.0000
# 6 0.0000 0.0000 0.0000 22.1760 0.0000 -36.6084
#
#
#
# Elastic Compliance Matrix: (Units=1/GPa)
#
#
# Indices 1 2 3 4 5 6 
#
# 1 0.008922 0.000286 -0.001809 0.000000 0.000805 0.000000
# 2 0.000286 0.013838 -0.006533 0.000000 0.000037 0.000000
# 3 -0.001809 -0.006533 0.013980 0.000000 0.004192 0.000000
# 4 0.000000 0.000000 0.000000 0.030524 0.000000 0.018490
# 5 0.000805 0.000037 0.004192 0.000000 0.022811 0.000000
# 6 0.000000 0.000000 0.000000 0.018490 0.000000 -0.016115
#
#
# Mechanical properties :
#
#
# Convention : Reuss Voigt Hill
#
# Bulk Modulus (GPa) = 48.47675 51.94853 50.21264
# Shear Modulus (GPa) = 51.57359 21.93490 36.75425
#
# Velocity S-wave (km/s) = 5.01389 3.26986 4.23267
# Velocity P-wave (km/s) = 7.55965 6.29109 6.95435
#
# Compressibility (1/GPa) = 0.02062845
#
# Stress axis : x y z
#
# Youngs Moduli (GPa) = 112.08200 72.26381 71.52865
#
# Poissons Ratio (x) = -0.02067 0.12943
# Poissons Ratio (y) = -0.03205 0.46727
# Poissons Ratio (z) = 0.20280 0.47207
#
# Static dielectric constant tensor:
#      x y z
#    x 1.866390 0.000000 -0.027260 
#    y 0.000000 1.802800 0.000000 
#    z -0.027260 0.000000 1.749350 
# 
# From -- ./inp_files/51715.got.cif
#   From: 2010.05.17/outbox.cif.g08.bks.cpg/sg15_26_cif.got.tgz:51715.got - 2010.06.03 18:47:42.
