data_PCOD9273854
_publ_section_title
;
Structure prediction by ZEFSAII (Michael W. Deem and Ramdas Pophale) SiO2 
 PCOD9273854
Probable space group: C 2/C
;
_chemical_formula_sum "Si O2"
_cell_formula_units_Z 52
_cell_length_a 19.146929
_cell_length_b 29.952713
_cell_length_c 5.309999
_cell_angle_alpha 90.000000
_cell_angle_beta 65.581220
_cell_angle_gamma 90.000000
_cell_volume 2772.890214
_symmetry_space_group_name_H-M "C 2/C"
_symmetry_group_IT_number 15
_symmetry_cell_setting 'monoclinic'
loop_
_space_group_symop_operation_xyz
x,y,z
-x,y,1/2-z
-x,-y,-z
x,-y,1/2+z
1/2+x,1/2+y,z
1/2-x,1/2+y,1/2-z
1/2-x,1/2-y,-z
1/2+x,1/2-y,1/2+z
loop_
_atom_site_type_symbol
_atom_site_label
_atom_site_fract_x
_atom_site_fract_y
_atom_site_fract_z
Si Si1 0.802290 0.163582 0.225864
Si Si2 0.914362 0.681438 0.433246
Si Si3 0.687979 0.767776 0.787362
Si Si4 0.236923 0.623819 0.801997
Si Si5 0.669102 0.030447 0.997282
Si Si6 0.000000 0.530006 0.250000
Si Si7 0.922662 0.223843 0.218426
O O1 0.740001 0.202233 0.386935
O O2 0.788735 0.129681 0.475459
O O3 0.886249 0.186453 0.091686
O O4 0.774980 0.145684 0.994856
O O5 0.877037 0.701151 0.235585
O O6 0.847529 0.647175 0.619178
O O7 0.924750 0.726721 0.587340
O O8 0.000000 0.663336 0.250000
O O9 0.750000 0.750000 0.500000
O O10 0.642304 0.727738 0.973623
O O11 0.224772 0.571981 0.882660
O O12 0.676463 0.997251 0.746365
O O13 0.583096 0.052108 0.125509
O O14 0.000000 0.500000 0.500000
O O15 0.000000 0.213708 0.250000
#
# Coordination Sequence:
#
# PCOD9273854 Si02
#       7
#     8   8   8   8   8   4   8
#     4  11  23  38  56  82 114 152 197 237 296 331
#     4  11  22  34  51  79 113 151 206 242 274 319
#     4  11  20  35  54  73 107 155 198 242 276 331
#     4  11  24  38  59  83 116 150 188 248 289 340
#     4  10  20  38  60  82 110 147 187 229 290 355
#     4   8  16  30  52  78 104 140 178 216 268 336
#     4  12  22  36  56  78 112 159 203 239 279 338
#
# _framework density 18.752997000000001
#
# number of rings (size 3 to 8) (size 9 to 14) (size 15 to 20)
#    0.000    1.231    4.615    3.231    1.077    0.000 
#    0.000    0.000    1.692    0.000    0.000    0.000 
#    0.000   12.308    0.000    0.000    0.000    0.000 
#
# Total GULP energy -144888.407344 kJ/mol
# GULP energy per Si atom -5572.631052 kJ/mol
# Density = 1.871031 g / cm^3
# Si number density = 18.752997 Si / 1000 Ang^3
#
#
#
# Elastic Constant Matrix: (Units=GPa)
#
#
# Indices 1 2 3 4 5 6 
#
# 1 127.1941 25.6106 21.3921 0.0000 1.9308 0.0000
# 2 25.6106 66.3454 16.0404 0.0000 -0.5169 0.0000
# 3 21.3921 16.0404 76.9520 0.0000 9.9624 0.0000
# 4 0.0000 0.0000 0.0000 26.5037 0.0000 -4.1842
# 5 1.9308 -0.5169 9.9624 0.0000 14.4315 0.0000
# 6 0.0000 0.0000 0.0000 -4.1842 0.0000 18.4818
#
#
#
# Elastic Compliance Matrix: (Units=1/GPa)
#
#
# Indices 1 2 3 4 5 6 
#
# 1 0.008761 -0.002942 -0.001819 0.000000 -0.000022 0.000000
# 2 -0.002942 0.016991 -0.003134 0.000000 0.003165 0.000000
# 3 -0.001819 -0.003134 0.015525 0.000000 -0.010586 0.000000
# 4 0.000000 0.000000 0.000000 0.039129 0.000000 0.008859
# 5 -0.000022 0.003165 -0.010586 0.000000 0.076717 0.000000
# 6 0.000000 0.000000 0.000000 0.008859 0.000000 0.056113
#
#
# Mechanical properties :
#
#
# Convention : Reuss Voigt Hill
#
# Bulk Modulus (GPa) = 39.23751 44.06418 41.65084
# Shear Modulus (GPa) = 21.05086 25.71328 23.38207
#
# Velocity S-wave (km/s) = 3.35406 3.70693 3.53490
# Velocity P-wave (km/s) = 5.99736 6.47070 6.23852
#
# Compressibility (1/GPa) = 0.02548582
#
# Stress axis : x y z
#
# Youngs Moduli (GPa) = 114.14604 58.85607 64.41429
#
# Poissons Ratio (x) = 0.17316 0.11719
# Poissons Ratio (y) = 0.33583 0.20185
# Poissons Ratio (z) = 0.20767 0.18443
#
# Static dielectric constant tensor:
#      x y z
#    x 1.625790 0.000000 0.042330 
#    y 0.000000 1.670780 0.000000 
#    z 0.042330 0.000000 1.715820 
# 
# From -- ./inp_files/11933.got.cif
#   From: 2010.05.17/outbox.cif.g08.bks.cpg/sg15_6_cif.got.tgz:11933.got - 2010.06.03 18:47:42.
