data_PCOD9273901
_publ_section_title
;
Structure prediction by ZEFSAII (Michael W. Deem and Ramdas Pophale) SiO2 
 PCOD9273901
Probable space group: C 2/C
;
_chemical_formula_sum "Si O2"
_cell_formula_units_Z 56
_cell_length_a 15.065264
_cell_length_b 14.516733
_cell_length_c 12.359410
_cell_angle_alpha 90.000000
_cell_angle_beta 93.294640
_cell_angle_gamma 90.000000
_cell_volume 2698.515880
_symmetry_space_group_name_H-M "C 2/C"
_symmetry_group_IT_number 15
_symmetry_cell_setting 'monoclinic'
loop_
_space_group_symop_operation_xyz
x,y,z
-x,y,1/2-z
-x,-y,-z
x,-y,1/2+z
1/2+x,1/2+y,z
1/2-x,1/2+y,1/2-z
1/2-x,1/2-y,-z
1/2+x,1/2-y,1/2+z
loop_
_atom_site_type_symbol
_atom_site_label
_atom_site_fract_x
_atom_site_fract_y
_atom_site_fract_z
Si Si1 0.825972 0.371550 0.427133
Si Si2 0.673900 0.528659 0.181129
Si Si3 0.862997 0.170848 0.515862
Si Si4 0.958049 0.088079 0.937527
Si Si5 0.666526 0.945311 0.449645
Si Si6 0.688713 0.358143 0.897661
Si Si7 0.595848 0.812692 0.290815
O O1 0.850719 0.278812 0.494050
O O2 0.718392 0.369367 0.420313
O O3 0.859066 0.464230 0.485791
O O4 0.864517 0.359925 0.311815
O O5 0.596893 0.452337 0.166154
O O6 0.684439 0.566836 0.301567
O O7 0.646739 0.614160 0.098851
O O8 0.761683 0.483608 0.133687
O O9 0.958706 0.153475 0.574217
O O10 0.887845 0.128627 0.018098
O O11 0.000000 0.000000 0.000000
O O12 0.719657 0.875712 0.532904
O O13 0.589902 0.889578 0.383643
O O14 0.665808 0.262529 0.838154
O O15 0.500000 0.772218 0.250000
#
# Coordination Sequence:
#
# PCOD9273901 Si02
#       7
#     8   8   8   8   8   8   8
#     4  10  20  38  60  86 118 162 207 239 303 361
#     4   9  18  35  61  90 121 158 195 241 306 365
#     4   9  17  34  58  91 120 158 198 241 294 365
#     4   9  19  31  54  93 124 150 191 244 299 355
#     4  10  23  40  60  91 122 158 202 255 300 357
#     4  11  21  38  61  91 125 156 194 252 306 363
#     4  12  25  40  63  90 114 160 210 249 303 360
#
# _framework density 20.752147999999998
#
# number of rings (size 3 to 8) (size 9 to 14) (size 15 to 20)
#    0.000    2.000    1.429    3.000    2.000    0.571 
#    0.000    2.857    0.000    0.000    0.000    0.000 
#    0.000    0.000    0.000    0.000    0.000    0.000 
#
# Total GULP energy -156385.010605 kJ/mol
# GULP energy per Si atom -5585.178950 kJ/mol
# Density = 2.070491 g / cm^3
# Si number density = 20.752148 Si / 1000 Ang^3
#
#
#
# Elastic Constant Matrix: (Units=GPa)
#
#
# Indices 1 2 3 4 5 6 
#
# 1 38.1274 6.5736 26.7963 0.0000 2.4180 0.0000
# 2 6.5736 87.5507 23.0670 0.0000 12.9023 0.0000
# 3 26.7963 23.0670 78.8998 0.0000 3.2440 0.0000
# 4 0.0000 0.0000 0.0000 35.6100 0.0000 1.5491
# 5 2.4180 12.9023 3.2440 0.0000 18.5512 0.0000
# 6 0.0000 0.0000 0.0000 1.5491 0.0000 19.3196
#
#
#
# Elastic Compliance Matrix: (Units=1/GPa)
#
#
# Indices 1 2 3 4 5 6 
#
# 1 0.034636 0.001003 -0.011928 0.000000 -0.003126 0.000000
# 2 0.001003 0.013719 -0.003982 0.000000 -0.008976 0.000000
# 3 -0.011928 -0.003982 0.017840 0.000000 0.001205 0.000000
# 4 0.000000 0.000000 0.000000 0.028180 0.000000 -0.002260
# 5 -0.003126 -0.008976 0.001205 0.000000 0.060344 0.000000
# 6 0.000000 0.000000 0.000000 -0.002260 0.000000 0.051942
#
#
# Mechanical properties :
#
#
# Convention : Reuss Voigt Hill
#
# Bulk Modulus (GPa) = 27.48762 35.27240 31.38001
# Shear Modulus (GPa) = 20.11237 24.57223 22.34230
#
# Velocity S-wave (km/s) = 3.11653 3.44478 3.28476
# Velocity P-wave (km/s) = 5.12101 5.73201 5.43510
#
# Compressibility (1/GPa) = 0.03638001
#
# Stress axis : x y z
#
# Youngs Moduli (GPa) = 28.87142 72.89373 56.05364
#
# Poissons Ratio (x) = -0.07310 0.66861
# Poissons Ratio (y) = -0.02895 0.22322
# Poissons Ratio (z) = 0.34438 0.29028
#
# Static dielectric constant tensor:
#      x y z
#    x 1.713950 0.000000 -0.039970 
#    y 0.000000 1.766280 0.000000 
#    z -0.039970 0.000000 1.674590 
# 
# From -- ./inp_files/97010.got.cif
#   From: 2010.05.17/outbox.cif.g08.bks.cpg/sg15_49_cif.got.tgz:97010.got - 2010.06.03 18:47:42.
