data_PCOD9273373
_publ_section_title
;
Structure prediction by ZEFSAII (Michael W. Deem and Ramdas Pophale) SiO2 
 PCOD9273373
Probable space group: C 2/C
;
_chemical_formula_sum "Si O2"
_cell_formula_units_Z 32
_cell_length_a 16.572232
_cell_length_b 11.086912
_cell_length_c 13.080497
_cell_angle_alpha 90.000000
_cell_angle_beta 31.981973
_cell_angle_gamma 90.000000
_cell_volume 1272.936701
_symmetry_space_group_name_H-M "C 2/C"
_symmetry_group_IT_number 15
_symmetry_cell_setting 'monoclinic'
loop_
_space_group_symop_operation_xyz
x,y,z
-x,y,1/2-z
-x,-y,-z
x,-y,1/2+z
1/2+x,1/2+y,z
1/2-x,1/2+y,1/2-z
1/2-x,1/2-y,-z
1/2+x,1/2-y,1/2+z
loop_
_atom_site_type_symbol
_atom_site_label
_atom_site_fract_x
_atom_site_fract_y
_atom_site_fract_z
Si Si1 0.639552 0.630167 0.019891
Si Si2 0.153267 0.497717 0.551112
Si Si3 0.874298 0.231454 0.952338
Si Si4 0.647213 0.659013 0.295620
O O1 0.500000 0.656428 0.250000
O O2 0.530153 0.629599 0.037767
O O3 0.733815 0.520122 0.972090
O O4 0.770444 0.728770 0.852751
O O5 0.086416 0.373274 0.575303
O O6 0.250221 0.550899 0.354930
O O7 0.000000 0.565631 0.750000
O O8 0.000000 0.164533 0.750000
O O9 0.750000 0.250000 0.000000
O O10 0.837974 0.179792 0.100251
#
# Coordination Sequence:
#
# PCOD9273373 Si02
#       4
#     8   8   8   8
#     4  10  20  37  65 100 131 164 220 280 326 384
#     4  10  22  42  69  99 129 170 220 275 331 392
#     4  11  26  45  64  95 140 178 217 272 333 392
#     4  11  21  40  68  98 130 176 223 271 327 396
#
# _framework density 25.138721
#
# number of rings (size 3 to 8) (size 9 to 14) (size 15 to 20)
#    0.000    1.500    0.000    6.750    0.000    5.000 
#    0.000   13.750    0.000    1.500    0.000    0.000 
#    0.000    0.000    0.000    0.000    0.000    0.000 
#
# Total GULP energy -89086.167695 kJ/mol
# GULP energy per Si atom -5567.885481 kJ/mol
# Density = 2.508150 g / cm^3
# Si number density = 25.138721 Si / 1000 Ang^3
#
#
#
# Elastic Constant Matrix: (Units=GPa)
#
#
# Indices 1 2 3 4 5 6 
#
# 1 173.5941 17.3038 84.7168 0.0000 10.2837 0.0000
# 2 17.3038 40.3781 17.9192 0.0000 6.1117 0.0000
# 3 84.7168 17.9192 139.3101 0.0000 -16.3413 0.0000
# 4 0.0000 0.0000 0.0000 29.1456 0.0000 -25.8402
# 5 10.2837 6.1117 -16.3413 0.0000 56.2632 0.0000
# 6 0.0000 0.0000 0.0000 -25.8402 0.0000 -34.2336
#
#
#
# Elastic Compliance Matrix: (Units=1/GPa)
#
#
# Indices 1 2 3 4 5 6 
#
# 1 0.008753 -0.000796 -0.005588 0.000000 -0.003136 0.000000
# 2 -0.000796 0.027223 -0.003465 0.000000 -0.003818 0.000000
# 3 -0.005588 -0.003465 0.011581 0.000000 0.004761 0.000000
# 4 0.000000 0.000000 0.000000 0.020555 0.000000 -0.015515
# 5 -0.003136 -0.003818 0.004761 0.000000 0.020145 0.000000
# 6 0.000000 0.000000 0.000000 -0.015515 0.000000 -0.017500
#
#
# Mechanical properties :
#
#
# Convention : Reuss Voigt Hill
#
# Bulk Modulus (GPa) = 35.89767 65.90690 50.90229
# Shear Modulus (GPa) = 50.12957 25.79119 37.96038
#
# Velocity S-wave (km/s) = 4.47040 3.20653 3.89013
# Velocity P-wave (km/s) = 6.39975 6.32323 6.36161
#
# Compressibility (1/GPa) = 0.02785696
#
# Stress axis : x y z
#
# Youngs Moduli (GPa) = 114.24761 36.73378 86.34969
#
# Poissons Ratio (x) = 0.02925 0.48255
# Poissons Ratio (y) = 0.09097 0.29923
# Poissons Ratio (z) = 0.63845 0.12729
#
# Static dielectric constant tensor:
#      x y z
#    x 2.012390 0.000000 0.032340 
#    y 0.000000 2.060090 0.000000 
#    z 0.032340 0.000000 1.947030 
# 
# From -- ./inp_files/160643.got.cif
#   From: 2010.05.17/outbox.cif.g08.bks.cpg/sg15_81_cif.got.tgz:160643.got - 2010.06.03 18:47:42.
