data_PCOD9273023
_publ_section_title
;
Structure prediction by ZEFSAII (Michael W. Deem and Ramdas Pophale) SiO2 
 PCOD9273023
Probable space group: C 2/C
;
_chemical_formula_sum "Si O2"
_cell_formula_units_Z 48
_cell_length_a 29.438997
_cell_length_b 5.130078
_cell_length_c 14.793666
_cell_angle_alpha 90.000000
_cell_angle_beta 86.214941
_cell_angle_gamma 90.000000
_cell_volume 2229.330373
_symmetry_space_group_name_H-M "C 2/C"
_symmetry_group_IT_number 15
_symmetry_cell_setting 'monoclinic'
loop_
_space_group_symop_operation_xyz
x,y,z
-x,y,1/2-z
-x,-y,-z
x,-y,1/2+z
1/2+x,1/2+y,z
1/2-x,1/2+y,1/2-z
1/2-x,1/2-y,-z
1/2+x,1/2-y,1/2+z
loop_
_atom_site_type_symbol
_atom_site_label
_atom_site_fract_x
_atom_site_fract_y
_atom_site_fract_z
Si Si1 0.552055 0.824396 0.772802
Si Si2 0.315122 0.793126 0.396865
Si Si3 0.723172 0.932461 0.756438
Si Si4 0.724020 0.959599 0.441928
Si Si5 0.032399 0.251214 0.985511
Si Si6 0.912042 0.181952 0.336221
O O1 0.500000 0.881562 0.750000
O O2 0.553703 0.772722 0.881146
O O3 0.566649 0.566730 0.716062
O O4 0.580415 0.069647 0.730588
O O5 0.307704 0.021263 0.325733
O O6 0.267078 0.642042 0.409948
O O7 0.358783 0.635887 0.362800
O O8 0.316277 0.917703 0.495138
O O9 0.766813 0.126190 0.734331
O O10 0.703399 0.081730 0.846195
O O11 0.750000 0.750000 0.500000
O O12 0.065695 0.239227 0.068223
O O13 0.000000 0.500000 0.000000
O O14 0.000000 0.000000 0.000000
#
# Coordination Sequence:
#
# PCOD9273023 Si02
#       6
#     8   8   8   8   8   8
#     4  12  24  44  70  94 132 176 214 266 337 391
#     4  10  24  40  62  98 128 167 216 272 313 371
#     4  10  20  37  62  88 119 167 209 254 316 378
#     4  10  20  41  65  85 129 175 211 253 326 380
#     4  12  23  43  71  96 128 176 218 260 334 397
#     4  12  26  43  66 103 135 165 225 278 312 394
#
# _framework density 21.531130000000001
#
# number of rings (size 3 to 8) (size 9 to 14) (size 15 to 20)
#    0.000    1.000    5.000    1.500    2.333    1.333 
#    3.000    0.000    0.000    0.000    0.000    0.000 
#    0.000    0.000    0.000    0.000    0.000    0.000 
#
# Total GULP energy -133735.145337 kJ/mol
# GULP energy per Si atom -5572.297722 kJ/mol
# Density = 2.148212 g / cm^3
# Si number density = 21.531130 Si / 1000 Ang^3
#
#
#
# Elastic Constant Matrix: (Units=GPa)
#
#
# Indices 1 2 3 4 5 6 
#
# 1 50.3737 4.6758 25.2597 0.0000 -16.0661 0.0000
# 2 4.6758 98.7068 30.2683 0.0000 -3.4768 0.0000
# 3 25.2597 30.2683 182.4560 0.0000 4.4472 0.0000
# 4 0.0000 0.0000 0.0000 41.2844 0.0000 -1.0198
# 5 -16.0661 -3.4768 4.4472 0.0000 25.5782 0.0000
# 6 0.0000 0.0000 0.0000 -1.0198 0.0000 9.6505
#
#
#
# Elastic Compliance Matrix: (Units=1/GPa)
#
#
# Indices 1 2 3 4 5 6 
#
# 1 0.027859 0.000682 -0.004417 0.000000 0.018359 0.000000
# 2 0.000682 0.010771 -0.001935 0.000000 0.002229 0.000000
# 3 -0.004417 -0.001935 0.006515 0.000000 -0.004171 0.000000
# 4 0.000000 0.000000 0.000000 0.024286 0.000000 0.002566
# 5 0.018359 0.002229 -0.004171 0.000000 0.051656 0.000000
# 6 0.000000 0.000000 0.000000 0.002566 0.000000 0.103893
#
#
# Mechanical properties :
#
#
# Convention : Reuss Voigt Hill
#
# Bulk Modulus (GPa) = 29.58391 50.21600 39.89995
# Shear Modulus (GPa) = 20.19475 33.39146 26.79310
#
# Velocity S-wave (km/s) = 3.06589 3.94235 3.53142
# Velocity P-wave (km/s) = 5.12863 6.64048 5.93291
#
# Compressibility (1/GPa) = 0.03380216
#
# Stress axis : x y z
#
# Youngs Moduli (GPa) = 35.89501 92.84411 153.49010
#
# Poissons Ratio (x) = -0.06328 0.67804
# Poissons Ratio (y) = -0.02447 0.29708
# Poissons Ratio (z) = 0.15856 0.17970
#
# Static dielectric constant tensor:
#      x y z
#    x 1.817180 0.000000 0.073810 
#    y 0.000000 1.837450 0.000000 
#    z 0.073810 0.000000 1.952910 
# 
# From -- ./inp_files/175700.got.cif
#   From: 2010.05.17/outbox.cif.g08.bks.cpg/sg15_88_cif.got.tgz:175700.got - 2010.06.03 18:47:42.
