data_PCOD9273498
_publ_section_title
;
Structure prediction by ZEFSAII (Michael W. Deem and Ramdas Pophale) SiO2 
 PCOD9273498
Probable space group: C 2/C
;
_chemical_formula_sum "Si O2"
_cell_formula_units_Z 64
_cell_length_a 18.944649
_cell_length_b 5.556241
_cell_length_c 27.120945
_cell_angle_alpha 90.000000
_cell_angle_beta 86.806543
_cell_angle_gamma 90.000000
_cell_volume 2850.345661
_symmetry_space_group_name_H-M "C 2/C"
_symmetry_group_IT_number 15
_symmetry_cell_setting 'monoclinic'
loop_
_space_group_symop_operation_xyz
x,y,z
-x,y,1/2-z
-x,-y,-z
x,-y,1/2+z
1/2+x,1/2+y,z
1/2-x,1/2+y,1/2-z
1/2-x,1/2-y,-z
1/2+x,1/2-y,1/2+z
loop_
_atom_site_type_symbol
_atom_site_label
_atom_site_fract_x
_atom_site_fract_y
_atom_site_fract_z
Si Si1 0.526101 0.689366 0.039001
Si Si2 0.444780 0.176008 0.215221
Si Si3 0.792188 0.709723 0.882748
Si Si4 0.359067 0.393642 0.132756
Si Si5 0.889733 0.100955 0.894309
Si Si6 0.843207 0.485169 0.973631
Si Si7 0.117672 0.393655 0.426486
Si Si8 0.415448 0.022215 0.315106
O O1 0.546911 0.567823 0.090102
O O2 0.462547 0.872434 0.050253
O O3 0.600926 0.799592 0.020276
O O4 0.500000 0.500000 0.000000
O O5 0.500000 0.310493 0.250000
O O6 0.404159 0.344834 0.179885
O O7 0.397812 0.036516 0.257726
O O8 0.499240 0.989532 0.186472
O O9 0.724513 0.637363 0.854867
O O10 0.786407 0.585405 0.936980
O O11 0.862529 0.635127 0.849513
O O12 0.812043 0.983433 0.893396
O O13 0.371702 0.653001 0.106923
O O14 0.374502 0.153373 0.099294
O O15 0.884299 0.292167 0.938671
O O16 0.906323 0.221405 0.842162
O O17 0.829585 0.384921 0.028240
#
# Coordination Sequence:
#
# PCOD9273498 Si02
#       8
#     8   8   8   8   8   8   8   8
#     4  11  21  36  64 102 134 180 235 294 344 412
#     4   8  21  47  71 105 131 172 234 303 358 420
#     4  10  24  42  67  98 138 191 229 281 349 436
#     4  12  28  47  66 106 143 187 236 290 348 427
#     4  10  20  37  66  96 131 178 230 285 341 423
#     4  10  23  40  65  98 139 187 237 282 347 421
#     4  12  27  41  68 100 147 185 233 292 345 405
#     4   8  19  43  69  93 131 170 227 283 362 406
#
# _framework density 22.453419
#
# number of rings (size 3 to 8) (size 9 to 14) (size 15 to 20)
#    0.750    1.000    1.250    1.875   12.250    1.000 
#    4.500    1.875    0.000    0.000    0.000    0.000 
#    0.000    0.000    0.000    0.000    0.000    0.000 
#
# Total GULP energy -178316.287175 kJ/mol
# GULP energy per Si atom -5572.383974 kJ/mol
# Density = 2.240231 g / cm^3
# Si number density = 22.453419 Si / 1000 Ang^3
#
#
#
# Elastic Constant Matrix: (Units=GPa)
#
#
# Indices 1 2 3 4 5 6 
#
# 1 70.5707 12.3278 33.1761 0.0000 15.1395 0.0000
# 2 12.3278 64.5563 28.7906 0.0000 -1.8079 0.0000
# 3 33.1761 28.7906 100.8091 0.0000 12.0583 0.0000
# 4 0.0000 0.0000 0.0000 7.2737 0.0000 3.4826
# 5 15.1395 -1.8079 12.0583 0.0000 26.7756 0.0000
# 6 0.0000 0.0000 0.0000 3.4826 0.0000 22.1294
#
#
#
# Elastic Compliance Matrix: (Units=1/GPa)
#
#
# Indices 1 2 3 4 5 6 
#
# 1 0.018436 -0.001725 -0.004559 0.000000 -0.008487 0.000000
# 2 -0.001725 0.018263 -0.005192 0.000000 0.004546 0.000000
# 3 -0.004559 -0.005192 0.013356 0.000000 -0.003787 0.000000
# 4 0.000000 0.000000 0.000000 0.148684 0.000000 -0.023399
# 5 -0.008487 0.004546 -0.003787 0.000000 0.044159 0.000000
# 6 0.000000 0.000000 0.000000 -0.023399 0.000000 0.048871
#
#
# Mechanical properties :
#
#
# Convention : Reuss Voigt Hill
#
# Bulk Modulus (GPa) = 36.89757 42.72504 39.81131
# Shear Modulus (GPa) = 15.44380 22.01186 18.72783
#
# Velocity S-wave (km/s) = 2.62547 3.13443 2.89117
# Velocity P-wave (km/s) = 5.06551 5.67178 5.37720
#
# Compressibility (1/GPa) = 0.02710205
#
# Stress axis : x y z
#
# Youngs Moduli (GPa) = 54.24282 54.75699 74.87255
#
# Poissons Ratio (x) = 0.09445 0.34137
# Poissons Ratio (y) = 0.09356 0.38873
# Poissons Ratio (z) = 0.24731 0.28429
#
# Static dielectric constant tensor:
#      x y z
#    x 1.877160 0.000000 -0.015460 
#    y 0.000000 1.964040 0.000000 
#    z -0.015460 0.000000 1.868580 
# 
# From -- ./inp_files/299934.got.cif
#   From: 2010.05.17/outbox.cif.g08.bks.cpg/sg15_150_cif.got.tgz:299934.got - 2010.06.03 18:47:42.
