data_PCOD9273620
_publ_section_title
;
Structure prediction by ZEFSAII (Michael W. Deem and Ramdas Pophale) SiO2 
 PCOD9273620
Probable space group: C 2/C
;
_chemical_formula_sum "Si O2"
_cell_formula_units_Z 60
_cell_length_a 5.288260
_cell_length_b 28.785859
_cell_length_c 16.344897
_cell_angle_alpha 90.000000
_cell_angle_beta 70.351064
_cell_angle_gamma 90.000000
_cell_volume 2343.253696
_symmetry_space_group_name_H-M "C 2/C"
_symmetry_group_IT_number 15
_symmetry_cell_setting 'monoclinic'
loop_
_space_group_symop_operation_xyz
x,y,z
-x,y,1/2-z
-x,-y,-z
x,-y,1/2+z
1/2+x,1/2+y,z
1/2-x,1/2+y,1/2-z
1/2-x,1/2-y,-z
1/2+x,1/2-y,1/2+z
loop_
_atom_site_type_symbol
_atom_site_label
_atom_site_fract_x
_atom_site_fract_y
_atom_site_fract_z
Si Si1 0.093255 0.267696 0.826253
Si Si2 0.321993 0.961272 0.098236
Si Si3 0.020550 0.769728 0.583082
Si Si4 0.574861 0.637106 0.478284
Si Si5 0.000000 0.445535 0.250000
Si Si6 0.686292 0.554101 0.073351
Si Si7 0.889470 0.624733 0.174386
Si Si8 0.522347 0.625945 0.836146
O O1 0.796650 0.263245 0.902127
O O2 0.180966 0.321610 0.799659
O O3 0.000000 0.248355 0.750000
O O4 0.355372 0.250500 0.845643
O O5 0.433113 0.975111 0.176129
O O6 0.222349 0.909609 0.126608
O O7 0.104042 0.001157 0.100969
O O8 0.527851 0.954625 0.001529
O O9 0.250000 0.750000 0.500000
O O10 0.047106 0.825702 0.571569
O O11 0.469202 0.585223 0.474991
O O12 0.882524 0.632856 0.419645
O O13 0.494007 0.653850 0.577751
O O14 0.231741 0.409780 0.196388
O O15 0.701307 0.586570 0.152114
O O16 0.000000 0.606839 0.250000
O O17 0.500000 0.649248 0.750000
#
# Coordination Sequence:
#
# PCOD9273620 Si02
#       8
#     8   8   8   8   4   8   8   8
#     4  10  21  41  69  95 135 174 211 260 328 399
#     4  10  22  35  57  83 117 158 211 263 313 374
#     4  11  23  41  69 103 128 171 216 271 326 398
#     4  11  22  40  64  85 126 165 206 267 321 386
#     4  10  20  38  56  78 114 158 206 266 310 366
#     4  11  21  37  57  86 117 160 209 257 322 374
#     4  10  22  38  58  89 122 165 212 256 313 390
#     4  10  21  39  60  84 115 169 213 258 318 373
#
# _framework density 25.605419999999999
#
# number of rings (size 3 to 8) (size 9 to 14) (size 15 to 20)
#    0.000    1.600    4.000    0.800    0.933    2.133 
#    4.800    0.667    2.933    0.000    0.000    0.000 
#    0.000    0.000    0.000    0.000    0.000    0.000 
#
# Total GULP energy -167209.141793 kJ/mol
# GULP energy per Si atom -5573.638060 kJ/mol
# Density = 2.554714 g / cm^3
# Si number density = 25.605420 Si / 1000 Ang^3
#
#
#
# Elastic Constant Matrix: (Units=GPa)
#
#
# Indices 1 2 3 4 5 6 
#
# 1 71.2642 7.2536 14.5870 0.0000 5.9426 0.0000
# 2 7.2536 90.3878 -2.6859 0.0000 -3.1056 0.0000
# 3 14.5870 -2.6859 136.6764 0.0000 16.2849 0.0000
# 4 0.0000 0.0000 0.0000 3.2603 0.0000 -9.2566
# 5 5.9426 -3.1056 16.2849 0.0000 37.6802 0.0000
# 6 0.0000 0.0000 0.0000 -9.2566 0.0000 9.0375
#
#
#
# Elastic Compliance Matrix: (Units=1/GPa)
#
#
# Indices 1 2 3 4 5 6 
#
# 1 0.014593 -0.001274 -0.001366 0.000000 -0.001816 0.000000
# 2 -0.001274 0.011208 0.000234 0.000000 0.001023 0.000000
# 3 -0.001366 0.000234 0.007843 0.000000 -0.003155 0.000000
# 4 0.000000 0.000000 0.000000 -0.160752 0.000000 -0.164650
# 5 -0.001816 0.001023 -0.003155 0.000000 0.028273 0.000000
# 6 0.000000 0.000000 0.000000 -0.164650 0.000000 -0.057993
#
#
# Mechanical properties :
#
#
# Convention : Reuss Voigt Hill
#
# Bulk Modulus (GPa) = 34.68382 37.40419 36.04401
# Shear Modulus (GPa) = -35.11110 28.60719 -3.25195
#
# Velocity S-wave (km/s) = -3.70704 3.34613 -1.12818
# Velocity P-wave (km/s) = 2.17898 5.43768 3.52281
#
# Compressibility (1/GPa) = 0.02883189
#
# Stress axis : x y z
#
# Youngs Moduli (GPa) = 68.52578 89.22349 127.50466
#
# Poissons Ratio (x) = 0.11368 0.17419
# Poissons Ratio (y) = 0.08731 -0.02987
# Poissons Ratio (z) = 0.09361 -0.02090
#
# Static dielectric constant tensor:
#      x y z
#    x 2.152860 0.000000 -0.101230 
#    y 0.000000 2.044800 0.000000 
#    z -0.101230 0.000000 2.297740 
# 
# From -- ./inp_files/186715.got.cif
#   From: 2010.05.17/outbox.cif.g08.bks.cpg/sg15_94_cif.got.tgz:186715.got - 2010.06.03 18:47:42.
