data_PCOD9273224
_publ_section_title
;
Structure prediction by ZEFSAII (Michael W. Deem and Ramdas Pophale) SiO2 
 PCOD9273224
Probable space group: C 2/C
;
_chemical_formula_sum "Si O2"
_cell_formula_units_Z 56
_cell_length_a 20.117094
_cell_length_b 9.508665
_cell_length_c 14.043665
_cell_angle_alpha 90.000000
_cell_angle_beta 86.435757
_cell_angle_gamma 90.000000
_cell_volume 2681.170256
_symmetry_space_group_name_H-M "C 2/C"
_symmetry_group_IT_number 15
_symmetry_cell_setting 'monoclinic'
loop_
_space_group_symop_operation_xyz
x,y,z
-x,y,1/2-z
-x,-y,-z
x,-y,1/2+z
1/2+x,1/2+y,z
1/2-x,1/2+y,1/2-z
1/2-x,1/2-y,-z
1/2+x,1/2-y,1/2+z
loop_
_atom_site_type_symbol
_atom_site_label
_atom_site_fract_x
_atom_site_fract_y
_atom_site_fract_z
Si Si1 0.763128 0.084416 0.497367
Si Si2 0.651825 0.428709 0.155406
Si Si3 0.616130 0.615043 0.872051
Si Si4 0.681458 0.823795 0.533413
Si Si5 0.950702 0.672032 0.553099
Si Si6 0.469274 0.116896 0.146802
Si Si7 0.011904 0.939633 0.635603
O O1 0.750000 0.250000 0.500000
O O2 0.827425 0.073410 0.559216
O O3 0.787851 0.018979 0.394682
O O4 0.700844 0.988350 0.537710
O O5 0.643667 0.436769 0.268329
O O6 0.658740 0.264573 0.127171
O O7 0.583621 0.490770 0.117687
O O8 0.592813 0.777687 0.864974
O O9 0.546326 0.538631 0.898376
O O10 0.750000 0.750000 0.500000
O O11 0.626058 0.791176 0.458987
O O12 0.949884 0.543366 0.627222
O O13 0.977802 0.639615 0.444098
O O14 0.999122 0.789788 0.590259
O O15 0.500000 0.140179 0.250000
O O16 0.000000 0.928172 0.750000
#
# Coordination Sequence:
#
# PCOD9273224 Si02
#       7
#     8   8   8   8   8   8   8
#     4  11  24  41  60  87 121 159 207 249 291 359
#     4  10  22  40  62  90 120 155 200 249 303 360
#     4  11  22  39  64  88 118 157 197 248 303 355
#     4  10  21  38  58  81 115 159 202 239 286 355
#     4  11  22  38  60  86 121 157 190 245 305 348
#     4  11  23  38  60  90 119 151 193 246 309 367
#     4  10  20  37  63  93 119 151 198 247 298 360
#
# _framework density 20.886402
#
# number of rings (size 3 to 8) (size 9 to 14) (size 15 to 20)
#    0.000    1.429    0.000    6.857    0.000    4.000 
#    0.000    7.143    0.000    0.000    0.000    0.000 
#    0.000    0.000    0.000    0.000    0.000    0.000 
#
# Total GULP energy -156320.427004 kJ/mol
# GULP energy per Si atom -5582.872393 kJ/mol
# Density = 2.083886 g / cm^3
# Si number density = 20.886402 Si / 1000 Ang^3
#
#
#
# Elastic Constant Matrix: (Units=GPa)
#
#
# Indices 1 2 3 4 5 6 
#
# 1 61.8629 0.8049 17.3270 0.0000 -1.6933 0.0000
# 2 0.8049 108.7416 16.6588 0.0000 -12.9508 0.0000
# 3 17.3270 16.6588 67.5285 0.0000 -1.5966 0.0000
# 4 0.0000 0.0000 0.0000 27.8177 0.0000 -3.8481
# 5 -1.6933 -12.9508 -1.5966 0.0000 24.1466 0.0000
# 6 0.0000 0.0000 0.0000 -3.8481 0.0000 40.7668
#
#
#
# Elastic Compliance Matrix: (Units=1/GPa)
#
#
# Indices 1 2 3 4 5 6 
#
# 1 0.017490 0.000738 -0.004639 0.000000 0.001316 0.000000
# 2 0.000738 0.010226 -0.002585 0.000000 0.005365 0.000000
# 3 -0.004639 -0.002585 0.016622 0.000000 -0.000613 0.000000
# 4 0.000000 0.000000 0.000000 0.036424 0.000000 0.003438
# 5 0.001316 0.005365 -0.000613 0.000000 0.044343 0.000000
# 6 0.000000 0.000000 0.000000 0.003438 0.000000 0.024854
#
#
# Mechanical properties :
#
#
# Convention : Reuss Voigt Hill
#
# Bulk Modulus (GPa) = 31.88146 34.19050 33.03598
# Shear Modulus (GPa) = 28.83729 32.10240 30.46985
#
# Velocity S-wave (km/s) = 3.71977 3.92471 3.82362
# Velocity P-wave (km/s) = 5.80916 6.07808 5.94514
#
# Compressibility (1/GPa) = 0.03136619
#
# Stress axis : x y z
#
# Youngs Moduli (GPa) = 57.17410 97.79323 60.16105
#
# Poissons Ratio (x) = -0.07216 0.27907
# Poissons Ratio (y) = -0.04219 0.15552
# Poissons Ratio (z) = 0.26522 0.25280
#
# Static dielectric constant tensor:
#      x y z
#    x 1.756610 0.000000 -0.015260 
#    y 0.000000 1.809200 0.000000 
#    z -0.015260 0.000000 1.746080 
# 
# From -- ./inp_files/166652.got.cif
#   From: 2010.05.17/outbox.cif.g08.bks.cpg/sg15_84_cif.got.tgz:166652.got - 2010.06.03 18:47:42.
