data_PCOD9273684
_publ_section_title
;
Structure prediction by ZEFSAII (Michael W. Deem and Ramdas Pophale) SiO2 
 PCOD9273684
Probable space group: C 2/C
;
_chemical_formula_sum "Si O2"
_cell_formula_units_Z 40
_cell_length_a 13.556328
_cell_length_b 6.796278
_cell_length_c 26.512357
_cell_angle_alpha 90.000000
_cell_angle_beta 142.760634
_cell_angle_gamma 90.000000
_cell_volume 1478.161486
_symmetry_space_group_name_H-M "C 2/C"
_symmetry_group_IT_number 15
_symmetry_cell_setting 'monoclinic'
loop_
_space_group_symop_operation_xyz
x,y,z
-x,y,1/2-z
-x,-y,-z
x,-y,1/2+z
1/2+x,1/2+y,z
1/2-x,1/2+y,1/2-z
1/2-x,1/2-y,-z
1/2+x,1/2-y,1/2+z
loop_
_atom_site_type_symbol
_atom_site_label
_atom_site_fract_x
_atom_site_fract_y
_atom_site_fract_z
Si Si1 0.681644 0.035851 0.000708
Si Si2 0.527881 0.614180 0.935988
Si Si3 0.394507 0.075711 0.329286
Si Si4 0.317561 0.513073 0.161714
Si Si5 0.190058 0.445316 0.817301
O O1 0.828575 0.034119 0.020105
O O2 0.747526 0.104472 0.081502
O O3 0.617387 0.813911 0.991246
O O4 0.524979 0.085432 0.901837
O O5 0.479245 0.709289 0.861180
O O6 0.371758 0.534591 0.902791
O O7 0.279475 0.093735 0.330063
O O8 0.308269 0.043272 0.242459
O O9 0.500000 0.562272 0.250000
O O10 0.305081 0.276095 0.159726
O O11 0.000000 0.512574 0.750000
#
# Coordination Sequence:
#
# PCOD9273684 Si02
#       5
#     8   8   8   8   8
#     4   9  20  40  60  82 110 153 185 230 280 332
#     4   9  20  37  62  77 117 143 188 228 282 321
#     4  10  20  38  58  79 115 147 188 230 272 336
#     4  11  22  36  61  83 114 149 190 225 284 336
#     4  11  22  36  56  87 113 149 186 231 281 331
#
# _framework density 27.060645000000001
#
# number of rings (size 3 to 8) (size 9 to 14) (size 15 to 20)
#    1.200    0.800    0.000    5.400    0.000    1.600 
#    0.000    3.000    0.000    0.000    0.000    0.000 
#    0.000    0.000    0.000    0.000    0.000    0.000 
#
# Total GULP energy -111388.848320 kJ/mol
# GULP energy per Si atom -5569.442416 kJ/mol
# Density = 2.699905 g / cm^3
# Si number density = 27.060645 Si / 1000 Ang^3
#
#
#
# Elastic Constant Matrix: (Units=GPa)
#
#
# Indices 1 2 3 4 5 6 
#
# 1 135.9638 4.7485 50.6515 0.0000 25.1284 0.0000
# 2 4.7485 68.0055 8.4099 0.0000 3.9567 0.0000
# 3 50.6515 8.4099 163.2729 0.0000 -13.5031 0.0000
# 4 0.0000 0.0000 0.0000 -8.8979 0.0000 -3.7483
# 5 25.1284 3.9567 -13.5031 0.0000 50.7332 0.0000
# 6 0.0000 0.0000 0.0000 -3.7483 0.0000 27.7609
#
#
#
# Elastic Compliance Matrix: (Units=1/GPa)
#
#
# Indices 1 2 3 4 5 6 
#
# 1 0.009716 0.000088 -0.003494 0.000000 -0.005749 0.000000
# 2 0.000088 0.014896 -0.000914 0.000000 -0.001449 0.000000
# 3 -0.003494 -0.000914 0.007572 0.000000 0.003817 0.000000
# 4 0.000000 0.000000 0.000000 -0.106337 0.000000 -0.014358
# 5 -0.005749 -0.001449 0.003817 0.000000 0.023688 0.000000
# 6 0.000000 0.000000 0.000000 -0.014358 0.000000 0.034083
#
#
# Mechanical properties :
#
#
# Convention : Reuss Voigt Hill
#
# Bulk Modulus (GPa) = 42.47616 54.98464 48.73040
# Shear Modulus (GPa) = 47423.91648 34.14806 23729.03227
#
# Velocity S-wave (km/s) = 132.52583 3.55619 93.74365
# Velocity P-wave (km/s) = 153.07904 6.10124 108.32917
#
# Compressibility (1/GPa) = 0.02354262
#
# Stress axis : x y z
#
# Youngs Moduli (GPa) = 102.92172 67.13247 132.07398
#
# Poissons Ratio (x) = -0.00592 0.46150
# Poissons Ratio (y) = -0.00908 0.12077
# Poissons Ratio (z) = 0.35963 0.06139
#
# Static dielectric constant tensor:
#      x y z
#    x 2.136030 0.000000 0.120620 
#    y 0.000000 2.321220 0.000000 
#    z 0.120620 0.000000 2.154860 
# 
# From -- ./inp_files/294928.got.cif
#   From: 2010.05.17/outbox.cif.g08.bks.cpg/sg15_148_cif.got.tgz:294928.got - 2010.06.03 18:47:42.
