data_PCOD9273099
_publ_section_title
;
Structure prediction by ZEFSAII (Michael W. Deem and Ramdas Pophale) SiO2 
 PCOD9273099
Probable space group: C 2/C
;
_chemical_formula_sum "Si O2"
_cell_formula_units_Z 60
_cell_length_a 20.245667
_cell_length_b 15.467499
_cell_length_c 11.218527
_cell_angle_alpha 90.000000
_cell_angle_beta 56.841826
_cell_angle_gamma 90.000000
_cell_volume 2941.023336
_symmetry_space_group_name_H-M "C 2/C"
_symmetry_group_IT_number 15
_symmetry_cell_setting 'monoclinic'
loop_
_space_group_symop_operation_xyz
x,y,z
-x,y,1/2-z
-x,-y,-z
x,-y,1/2+z
1/2+x,1/2+y,z
1/2-x,1/2+y,1/2-z
1/2-x,1/2-y,-z
1/2+x,1/2-y,1/2+z
loop_
_atom_site_type_symbol
_atom_site_label
_atom_site_fract_x
_atom_site_fract_y
_atom_site_fract_z
Si Si1 0.682009 0.312873 0.019371
Si Si2 0.883191 0.750155 0.193448
Si Si3 0.000000 0.048353 0.750000
Si Si4 0.184145 0.567851 0.189549
Si Si5 0.191408 0.446100 0.957317
Si Si6 0.877022 0.903244 0.811571
Si Si7 0.547301 0.679069 0.494841
Si Si8 0.827836 0.253703 0.503671
O O1 0.631484 0.320764 0.189776
O O2 0.621843 0.273914 0.983054
O O3 0.750000 0.250000 0.000000
O O4 0.727067 0.394202 0.918945
O O5 0.870998 0.653411 0.254810
O O6 0.970305 0.762432 0.055368
O O7 0.818562 0.762508 0.153610
O O8 0.978035 0.105622 0.886055
O O9 0.925601 0.985763 0.803756
O O10 0.178563 0.529023 0.329864
O O11 0.168784 0.509261 0.088558
O O12 0.285590 0.427306 0.877215
O O13 0.147305 0.354158 0.022995
O O14 0.919794 0.865291 0.654145
O O15 0.879655 0.824704 0.903712
O O16 0.750000 0.250000 0.500000
#
# Coordination Sequence:
#
# PCOD9273099 Si02
#       8
#     8   8   4   8   8   8   8   8
#     4  10  20  37  62  92 119 164 209 259 311 376
#     4  10  21  38  63  87 128 170 210 263 315 382
#     4  12  24  38  56  96 132 168 196 248 322 396
#     4  10  21  39  61  95 123 165 218 263 320 368
#     4  10  21  39  62  89 127 160 216 273 303 375
#     4  11  23  37  59  87 130 170 202 250 330 382
#     4  12  22  40  60  95 135 161 209 260 317 393
#     4   9  21  40  59  88 122 168 220 258 314 381
#
# _framework density 20.401062
#
# number of rings (size 3 to 8) (size 9 to 14) (size 15 to 20)
#    0.000    1.600    2.667    2.000    1.867    2.133 
#    2.400    0.000    0.000    0.800   17.333    0.000 
#    0.000    0.000    0.000    0.000    0.000    0.000 
#
# Total GULP energy -167178.566776 kJ/mol
# GULP energy per Si atom -5572.618893 kJ/mol
# Density = 2.035463 g / cm^3
# Si number density = 20.401062 Si / 1000 Ang^3
#
#
#
# Elastic Constant Matrix: (Units=GPa)
#
#
# Indices 1 2 3 4 5 6 
#
# 1 62.0362 27.1037 12.7341 0.0000 5.8131 0.0000
# 2 27.1037 80.3100 66.3016 0.0000 12.2942 0.0000
# 3 12.7341 66.3016 106.8204 0.0000 27.5381 0.0000
# 4 0.0000 0.0000 0.0000 49.2512 0.0000 -4.1260
# 5 5.8131 12.2942 27.5381 0.0000 39.9077 0.0000
# 6 0.0000 0.0000 0.0000 -4.1260 0.0000 44.0175
#
#
#
# Elastic Compliance Matrix: (Units=1/GPa)
#
#
# Indices 1 2 3 4 5 6 
#
# 1 0.019855 -0.010104 0.004680 0.000000 -0.003009 0.000000
# 2 -0.010104 0.031146 -0.019502 0.000000 0.005334 0.000000
# 3 0.004680 -0.019502 0.023762 0.000000 -0.011071 0.000000
# 4 0.000000 0.000000 0.000000 0.020465 0.000000 0.001918
# 5 -0.003009 0.005334 -0.011071 0.000000 0.031492 0.000000
# 6 0.000000 0.000000 0.000000 0.001918 0.000000 0.022898
#
#
# Mechanical properties :
#
#
# Convention : Reuss Voigt Hill
#
# Bulk Modulus (GPa) = 40.14286 51.27170 45.70728
# Shear Modulus (GPa) = 24.06455 36.17043 30.11749
#
# Velocity S-wave (km/s) = 3.43822 4.21523 3.84639
# Velocity P-wave (km/s) = 5.95662 6.99123 6.49456
#
# Compressibility (1/GPa) = 0.02491103
#
# Stress axis : x y z
#
# Youngs Moduli (GPa) = 50.36414 32.10717 42.08341
#
# Poissons Ratio (x) = 0.32442 -0.19696
# Poissons Ratio (y) = 0.50889 0.82072
# Poissons Ratio (z) = -0.23572 0.62616
#
# Static dielectric constant tensor:
#      x y z
#    x 1.717120 0.000000 -0.038810 
#    y 0.000000 1.748750 0.000000 
#    z -0.038810 0.000000 1.762140 
# 
# From -- ./inp_files/112707.got.cif
#   From: 2010.05.17/outbox.cif.g08.bks.cpg/sg15_57_cif.got.tgz:112707.got - 2010.06.03 18:47:42.
