data_PCOD9273423
_publ_section_title
;
Structure prediction by ZEFSAII (Michael W. Deem and Ramdas Pophale) SiO2 
 PCOD9273423
Probable space group: C 2/C
;
_chemical_formula_sum "Si O2"
_cell_formula_units_Z 44
_cell_length_a 10.902126
_cell_length_b 18.162296
_cell_length_c 14.629116
_cell_angle_alpha 90.000000
_cell_angle_beta 139.560471
_cell_angle_gamma 90.000000
_cell_volume 1878.915282
_symmetry_space_group_name_H-M "C 2/C"
_symmetry_group_IT_number 15
_symmetry_cell_setting 'monoclinic'
loop_
_space_group_symop_operation_xyz
x,y,z
-x,y,1/2-z
-x,-y,-z
x,-y,1/2+z
1/2+x,1/2+y,z
1/2-x,1/2+y,1/2-z
1/2-x,1/2-y,-z
1/2+x,1/2-y,1/2+z
loop_
_atom_site_type_symbol
_atom_site_label
_atom_site_fract_x
_atom_site_fract_y
_atom_site_fract_z
Si Si1 0.085846 0.847138 0.428054
Si Si2 0.044603 0.713698 0.908299
Si Si3 0.608729 0.491659 0.965997
Si Si4 0.500000 0.078959 0.750000
Si Si5 0.378147 0.358987 0.836322
Si Si6 0.495131 0.193833 0.397586
O O1 0.061719 0.849478 0.524244
O O2 0.297599 0.827494 0.518159
O O3 0.960608 0.775343 0.332664
O O4 0.068048 0.932379 0.390488
O O5 0.984539 0.638828 0.823535
O O6 0.906767 0.780866 0.804281
O O7 0.250000 0.750000 0.000000
O O8 0.020744 0.698828 0.002232
O O9 0.822109 0.470606 0.116955
O O10 0.500000 0.500000 0.000000
O O11 0.506221 0.421081 0.864425
O O12 0.154374 0.368518 0.714831
#
# Coordination Sequence:
#
# PCOD9273423 Si02
#       6
#     8   8   8   4   8   8
#     4   9  21  40  64  97 120 168 213 254 321 385
#     4  11  22  39  62  93 121 167 213 257 312 373
#     4  10  23  39  65  93 122 170 216 252 325 387
#     4  12  24  42  66  84 130 172 214 262 312 396
#     4  10  20  37  65  93 125 163 208 263 311 382
#     4  10  21  39  67  94 126 159 216 266 314 373
#
# _framework density 23.417766
#
# number of rings (size 3 to 8) (size 9 to 14) (size 15 to 20)
#    0.000    1.818    1.818    1.636   10.182    0.000 
#    0.000    0.909    4.000    0.000    0.000    0.000 
#    0.000    0.000    0.000    0.000    0.000    0.000 
#
# Total GULP energy -122596.859747 kJ/mol
# GULP energy per Si atom -5572.584534 kJ/mol
# Density = 2.336447 g / cm^3
# Si number density = 23.417766 Si / 1000 Ang^3
#
#
#
# Elastic Constant Matrix: (Units=GPa)
#
#
# Indices 1 2 3 4 5 6 
#
# 1 50.1647 38.3975 5.3522 0.0001 4.9205 0.0000
# 2 38.3975 120.4814 40.5970 0.0002 3.0948 0.0002
# 3 5.3522 40.5970 54.0881 0.0004 11.2638 0.0004
# 4 0.0001 0.0002 0.0004 7.4682 0.0002 12.5023
# 5 4.9205 3.0948 11.2638 0.0002 46.1850 0.0002
# 6 0.0000 0.0002 0.0004 12.5023 0.0002 32.6142
#
#
#
# Elastic Compliance Matrix: (Units=1/GPa)
#
#
# Indices 1 2 3 4 5 6 
#
# 1 0.027999 -0.010919 0.006209 -0.000001 -0.003766 0.000000
# 2 -0.010919 0.015449 -0.011106 0.000001 0.002837 0.000000
# 3 0.006209 -0.011106 0.027594 -0.000002 -0.006647 0.000000
# 4 -0.000001 0.000001 -0.000002 0.373761 0.000000 -0.143278
# 5 -0.003766 0.002837 -0.006647 0.000000 0.023484 0.000000
# 6 0.000000 0.000000 0.000000 -0.143278 0.000000 0.085586
#
#
# Mechanical properties :
#
#
# Convention : Reuss Voigt Hill
#
# Bulk Modulus (GPa) = 25.37407 43.71419 34.54413
# Shear Modulus (GPa) = 8.35224 26.61263 17.48244
#
# Velocity S-wave (km/s) = 1.89060 3.37475 2.73526
# Velocity P-wave (km/s) = 3.95281 5.82176 4.97582
#
# Compressibility (1/GPa) = 0.03941032
#
# Stress axis : x y z
#
# Youngs Moduli (GPa) = 35.71602 64.72835 36.23964
#
# Poissons Ratio (x) = 0.70674 -0.22500
# Poissons Ratio (y) = 0.38997 0.40248
# Poissons Ratio (z) = -0.22175 0.71887
#
# Static dielectric constant tensor:
#      x y z
#    x 1.914250 0.000000 0.062310 
#    y 0.000000 2.047210 0.000000 
#    z 0.062310 0.000000 2.113940 
# 
# From -- ./inp_files/174182.got.cif
#   From: 2010.05.17/outbox.cif.g08.bks.cpg/sg15_88_cif.got.tgz:174182.got - 2010.06.03 18:47:42.
