data_PCOD9273616
_publ_section_title
;
Structure prediction by ZEFSAII (Michael W. Deem and Ramdas Pophale) SiO2 
 PCOD9273616
Probable space group: C 2/C
;
_chemical_formula_sum "Si O2"
_cell_formula_units_Z 64
_cell_length_a 23.145837
_cell_length_b 18.605581
_cell_length_c 9.162745
_cell_angle_alpha 90.000000
_cell_angle_beta 101.856070
_cell_angle_gamma 90.000000
_cell_volume 3861.682662
_symmetry_space_group_name_H-M "C 2/C"
_symmetry_group_IT_number 15
_symmetry_cell_setting 'monoclinic'
loop_
_space_group_symop_operation_xyz
x,y,z
-x,y,1/2-z
-x,-y,-z
x,-y,1/2+z
1/2+x,1/2+y,z
1/2-x,1/2+y,1/2-z
1/2-x,1/2-y,-z
1/2+x,1/2-y,1/2+z
loop_
_atom_site_type_symbol
_atom_site_label
_atom_site_fract_x
_atom_site_fract_y
_atom_site_fract_z
Si Si1 0.778092 0.687971 0.908072
Si Si2 0.484270 0.855109 0.910233
Si Si3 0.903181 0.344911 0.337547
Si Si4 0.383327 0.209080 0.508340
Si Si5 0.561910 0.993525 0.701075
Si Si6 0.317001 0.053496 0.120898
Si Si7 0.286270 0.313624 0.437401
Si Si8 0.785394 0.415133 0.924136
O O1 0.844623 0.692497 0.874041
O O2 0.737486 0.679835 0.741247
O O3 0.750000 0.750000 0.000000
O O4 0.788914 0.617402 0.011806
O O5 0.500000 0.858145 0.750000
O O6 0.458829 0.935582 0.932129
O O7 0.540142 0.833559 0.033630
O O8 0.432844 0.799892 0.914303
O O9 0.909025 0.312430 0.179013
O O10 0.904120 0.433072 0.325481
O O11 0.352508 0.285713 0.481702
O O12 0.333856 0.148361 0.451605
O O13 0.500000 0.011921 0.750000
O O14 0.611823 0.947392 0.815188
O O15 0.284512 0.057567 0.259320
O O16 0.306305 0.979560 0.034585
O O17 0.250000 0.250000 0.500000
O O18 0.272028 0.382439 0.528360
#
# Coordination Sequence:
#
# PCOD9273616 Si02
#       8
#     8   8   8   8   8   8   8   8
#     4  12  24  36  55  80 107 148 194 241 292 341
#     4  11  24  35  52  81 115 153 197 236 274 328
#     4  12  23  36  54  77 111 154 199 232 283 332
#     4  11  21  37  56  74 110 154 192 236 282 335
#     4  11  21  35  51  78 114 154 196 228 272 317
#     4  12  23  35  57  78 115 149 192 239 280 336
#     4  10  20  38  56  74 104 146 193 241 288 335
#     4  11  21  37  54  80 108 148 194 233 288 330
#
# _framework density 16.573087000000001
#
# number of rings (size 3 to 8) (size 9 to 14) (size 15 to 20)
#    0.000    0.750    5.000    6.000    1.750    1.000 
#    0.000    0.000    0.000    0.000    0.000    0.000 
#    0.000    1.000    0.750    0.125    0.000    0.000 
#
# Total GULP energy -178386.434544 kJ/mol
# GULP energy per Si atom -5574.576079 kJ/mol
# Density = 1.653537 g / cm^3
# Si number density = 16.573087 Si / 1000 Ang^3
#
#
#
# Elastic Constant Matrix: (Units=GPa)
#
#
# Indices 1 2 3 4 5 6 
#
# 1 84.9334 49.0834 35.0651 0.0000 -1.7597 0.0000
# 2 49.0834 2.3712 2.7399 0.0000 -6.4652 0.0000
# 3 35.0651 2.7399 89.6009 0.0000 -6.2505 0.0000
# 4 0.0000 0.0000 0.0000 23.9084 0.0000 2.0274
# 5 -1.7597 -6.4652 -6.2505 0.0000 25.6967 0.0000
# 6 0.0000 0.0000 0.0000 2.0274 0.0000 24.4962
#
#
#
# Elastic Compliance Matrix: (Units=1/GPa)
#
#
# Indices 1 2 3 4 5 6 
#
# 1 -0.000321 0.021229 -0.000155 0.000000 0.005282 0.000000
# 2 0.021229 -0.031368 -0.007933 0.000000 -0.008368 0.000000
# 3 -0.000155 -0.007933 0.011519 0.000000 0.000796 0.000000
# 4 0.000000 0.000000 0.000000 0.042122 0.000000 -0.003486
# 5 0.005282 -0.008368 0.000796 0.000000 0.037365 0.000000
# 6 0.000000 0.000000 0.000000 -0.003486 0.000000 0.041111
#
#
# Mechanical properties :
#
#
# Convention : Reuss Voigt Hill
#
# Bulk Modulus (GPa) = 163.57098 38.96468 101.26783
# Shear Modulus (GPa) = 65.63172 20.82140 43.22656
#
# Velocity S-wave (km/s) = 6.29979 3.54833 5.11263
# Velocity P-wave (km/s) = 12.32183 6.35212 9.80247
#
# Compressibility (1/GPa) = 0.00611355
#
# Stress axis : x y z
#
# Youngs Moduli (GPa) = -3112.96890 -31.87949 86.81054
#
# Poissons Ratio (x) = 0.67678 0.01346
# Poissons Ratio (y) = 66.08659 0.68864
# Poissons Ratio (z) = -0.48256 -0.25289
#
# Static dielectric constant tensor:
#      x y z
#    x 1.601590 0.000000 -0.020750 
#    y 0.000000 1.567110 0.000000 
#    z -0.020750 0.000000 1.602210 
# 
# From -- ./inp_files/62512.got.cif
#   From: 2010.05.17/outbox.cif.g08.bks.cpg/sg15_32_cif.got.tgz:62512.got - 2010.06.03 18:47:42.
