data_PCOD9273494
_publ_section_title
;
Structure prediction by ZEFSAII (Michael W. Deem and Ramdas Pophale) SiO2 
 PCOD9273494
Probable space group: C 2/C
;
_chemical_formula_sum "Si O2"
_cell_formula_units_Z 56
_cell_length_a 10.832128
_cell_length_b 18.351493
_cell_length_c 11.854178
_cell_angle_alpha 90.000000
_cell_angle_beta 74.039808
_cell_angle_gamma 90.000000
_cell_volume 2265.607512
_symmetry_space_group_name_H-M "C 2/C"
_symmetry_group_IT_number 15
_symmetry_cell_setting 'monoclinic'
loop_
_space_group_symop_operation_xyz
x,y,z
-x,y,1/2-z
-x,-y,-z
x,-y,1/2+z
1/2+x,1/2+y,z
1/2-x,1/2+y,1/2-z
1/2-x,1/2-y,-z
1/2+x,1/2-y,1/2+z
loop_
_atom_site_type_symbol
_atom_site_label
_atom_site_fract_x
_atom_site_fract_y
_atom_site_fract_z
Si Si1 0.500000 0.718231 0.250000
Si Si2 0.252818 0.350429 0.563922
Si Si3 0.779426 0.894223 0.161791
Si Si4 0.125290 0.250804 0.785928
Si Si5 0.683775 0.407114 0.612830
Si Si6 0.000000 0.972870 0.250000
Si Si7 0.853601 0.534515 0.264001
Si Si8 0.946422 0.727787 0.525835
O O1 0.383578 0.662671 0.310883
O O2 0.517734 0.767366 0.354635
O O3 0.187427 0.305995 0.683072
O O4 0.238477 0.431772 0.613433
O O5 0.163550 0.329763 0.480732
O O6 0.387847 0.309643 0.514387
O O7 0.777996 0.812205 0.205431
O O8 0.665926 0.948182 0.225858
O O9 0.790347 0.892675 0.024026
O O10 0.904308 0.928412 0.193607
O O11 0.000000 0.222441 0.750000
O O12 0.067135 0.283962 0.914606
O O13 0.583785 0.473734 0.650590
O O14 0.802815 0.434297 0.658610
O O15 0.000000 0.555672 0.250000
#
# Coordination Sequence:
#
# PCOD9273494 Si02
#       8
#     4   8   8   8   8   4   8   8
#     4  11  18  36  64 100 138 152 213 286 346 387
#     4  10  22  42  65  99 131 183 224 260 333 411
#     4  11  21  38  65  98 127 171 216 281 332 388
#     4  10  20  38  67 100 135 164 222 281 330 392
#     4  10  21  36  61  96 129 167 212 273 336 390
#     4   9  20  34  58  96 130 160 201 266 344 395
#     4  11  24  44  64  87 134 186 224 265 329 416
#     4  10  20  37  66  95 133 172 214 273 338 392
#
# _framework density 24.717431999999999
#
# number of rings (size 3 to 8) (size 9 to 14) (size 15 to 20)
#    0.000    1.714    3.571    1.714    0.000    1.714 
#    7.714    4.286    4.714    0.000    0.000    0.000 
#    0.000    0.000    0.000    0.000    0.000    0.000 
#
# Total GULP energy -156841.301067 kJ/mol
# GULP energy per Si atom -5601.475038 kJ/mol
# Density = 2.466117 g / cm^3
# Si number density = 24.717432 Si / 1000 Ang^3
#
#
#
# Elastic Constant Matrix: (Units=GPa)
#
#
# Indices 1 2 3 4 5 6 
#
# 1 84.4720 7.0232 38.5521 0.0000 10.9622 0.0000
# 2 7.0232 59.9414 15.5284 0.0000 3.6180 0.0000
# 3 38.5521 15.5284 171.2805 0.0000 22.1552 0.0000
# 4 0.0000 0.0000 0.0000 24.3175 0.0000 3.3007
# 5 10.9622 3.6180 22.1552 0.0000 42.0530 0.0000
# 6 0.0000 0.0000 0.0000 3.3007 0.0000 30.0568
#
#
#
# Elastic Compliance Matrix: (Units=1/GPa)
#
#
# Indices 1 2 3 4 5 6 
#
# 1 0.013387 -0.000752 -0.002685 0.000000 -0.002010 0.000000
# 2 -0.000752 0.017146 -0.001309 0.000000 -0.000590 0.000000
# 3 -0.002685 -0.001309 0.006928 0.000000 -0.002838 0.000000
# 4 0.000000 0.000000 0.000000 0.041745 0.000000 -0.004584
# 5 -0.002010 -0.000590 -0.002838 0.000000 0.025849 0.000000
# 6 0.000000 0.000000 0.000000 -0.004584 0.000000 0.033774
#
#
# Mechanical properties :
#
#
# Convention : Reuss Voigt Hill
#
# Bulk Modulus (GPa) = 35.75261 48.65569 42.20415
# Shear Modulus (GPa) = 31.71708 36.25813 33.98761
#
# Velocity S-wave (km/s) = 3.58605 3.83417 3.71218
# Velocity P-wave (km/s) = 5.62514 6.27126 5.95697
#
# Compressibility (1/GPa) = 0.02796999
#
# Stress axis : x y z
#
# Youngs Moduli (GPa) = 74.69912 58.32363 144.33251
#
# Poissons Ratio (x) = 0.04384 0.38753
# Poissons Ratio (y) = 0.05615 0.18893
# Poissons Ratio (z) = 0.20057 0.07635
#
# Static dielectric constant tensor:
#      x y z
#    x 1.972590 0.000000 -0.000310 
#    y 0.000000 1.988270 0.000000 
#    z -0.000310 0.000000 1.916260 
# 
# From -- ./inp_files/88941.got.cif
#   From: 2010.05.17/outbox.cif.g08.bks.cpg/sg15_45_cif.got.tgz:88941.got - 2010.06.03 18:47:42.
