data_PCOD9273821
_publ_section_title
;
Structure prediction by ZEFSAII (Michael W. Deem and Ramdas Pophale) SiO2 
 PCOD9273821
Probable space group: C 2/C
;
_chemical_formula_sum "Si O2"
_cell_formula_units_Z 60
_cell_length_a 8.917056
_cell_length_b 18.900325
_cell_length_c 19.943908
_cell_angle_alpha 90.000000
_cell_angle_beta 110.815088
_cell_angle_gamma 90.000000
_cell_volume 3141.869920
_symmetry_space_group_name_H-M "C 2/C"
_symmetry_group_IT_number 15
_symmetry_cell_setting 'monoclinic'
loop_
_space_group_symop_operation_xyz
x,y,z
-x,y,1/2-z
-x,-y,-z
x,-y,1/2+z
1/2+x,1/2+y,z
1/2-x,1/2+y,1/2-z
1/2-x,1/2-y,-z
1/2+x,1/2-y,1/2+z
loop_
_atom_site_type_symbol
_atom_site_label
_atom_site_fract_x
_atom_site_fract_y
_atom_site_fract_z
Si Si1 0.580466 0.081405 0.934249
Si Si2 0.946005 0.081321 0.004008
Si Si3 0.675601 0.181484 0.636157
Si Si4 0.509290 0.673059 0.142698
Si Si5 0.266279 0.167591 0.297744
Si Si6 0.000000 0.235525 0.750000
Si Si7 0.516084 0.918714 0.579730
Si Si8 0.230584 0.833558 0.495241
O O1 0.468272 0.128310 0.868163
O O2 0.527450 0.000290 0.922883
O O3 0.766784 0.088343 0.948768
O O4 0.571581 0.100055 0.012778
O O5 0.963190 0.111097 0.083248
O O6 0.058868 0.135341 0.982743
O O7 0.000000 0.000000 0.000000
O O8 0.588598 0.258413 0.619005
O O9 0.844339 0.191814 0.700516
O O10 0.725687 0.148242 0.573521
O O11 0.648803 0.650629 0.217076
O O12 0.354682 0.696019 0.163080
O O13 0.412127 0.216748 0.293500
O O14 0.351196 0.101392 0.345561
O O15 0.356200 0.871886 0.564136
O O16 0.250000 0.750000 0.500000
#
# Coordination Sequence:
#
# PCOD9273821 Si02
#       8
#     8   8   8   8   8   4   8   8
#     4  10  22  37  60  88 128 168 201 265 321 375
#     4  12  23  40  63  94 134 163 211 271 322 381
#     4  10  22  39  60  91 125 161 214 258 320 376
#     4  10  22  40  61  95 123 167 212 260 322 387
#     4  10  21  38  67  87 124 163 212 265 317 382
#     4  10  22  40  64  92 122 166 208 278 310 382
#     4  10  20  38  59  88 123 166 210 256 319 377
#     4  11  21  35  62  92 120 160 212 261 306 375
#
# _framework density 19.096907000000002
#
# number of rings (size 3 to 8) (size 9 to 14) (size 15 to 20)
#    0.000    1.600    4.000    0.800    1.867    2.667 
#    0.000    2.667    0.000    4.800    0.000    0.000 
#    0.000    0.000    0.000    0.000    0.000    0.000 
#
# Total GULP energy -167028.661424 kJ/mol
# GULP energy per Si atom -5567.622047 kJ/mol
# Density = 1.905344 g / cm^3
# Si number density = 19.096907 Si / 1000 Ang^3
#
#
#
# Elastic Constant Matrix: (Units=GPa)
#
#
# Indices 1 2 3 4 5 6 
#
# 1 148.4943 46.1614 41.5802 0.0000 22.5901 0.0000
# 2 46.1614 83.5591 35.4095 0.0000 21.1134 0.0000
# 3 41.5802 35.4095 69.4841 0.0000 14.6069 0.0000
# 4 0.0000 0.0000 0.0000 25.0705 0.0000 6.4273
# 5 22.5901 21.1134 14.6069 0.0000 35.8586 0.0000
# 6 0.0000 0.0000 0.0000 6.4273 0.0000 29.1099
#
#
#
# Elastic Compliance Matrix: (Units=1/GPa)
#
#
# Indices 1 2 3 4 5 6 
#
# 1 0.008961 -0.002876 -0.003353 0.000000 -0.002586 0.000000
# 2 -0.002876 0.017641 -0.005978 0.000000 -0.006140 0.000000
# 3 -0.003353 -0.005978 0.019971 0.000000 -0.002503 0.000000
# 4 0.000000 0.000000 0.000000 0.042281 0.000000 -0.009335
# 5 -0.002586 -0.006140 -0.002503 0.000000 0.034151 0.000000
# 6 0.000000 0.000000 0.000000 -0.009335 0.000000 0.036414
#
#
# Mechanical properties :
#
#
# Convention : Reuss Voigt Hill
#
# Bulk Modulus (GPa) = 45.12972 60.87108 53.00040
# Shear Modulus (GPa) = 26.14806 29.90022 28.02414
#
# Velocity S-wave (km/s) = 3.70433 3.96120 3.83491
# Velocity P-wave (km/s) = 6.47914 7.27087 6.88639
#
# Compressibility (1/GPa) = 0.02215834
#
# Stress axis : x y z
#
# Youngs Moduli (GPa) = 111.60078 56.68543 50.07280
#
# Poissons Ratio (x) = 0.16302 0.16789
# Poissons Ratio (y) = 0.32096 0.29935
# Poissons Ratio (z) = 0.37419 0.33888
#
# Static dielectric constant tensor:
#      x y z
#    x 1.308730 0.000000 -0.098520 
#    y 0.000000 1.564930 0.000000 
#    z -0.098520 0.000000 1.673980 
# 
# From -- ./inp_files/232639.got.cif
#   From: 2010.05.17/outbox.cif.g08.bks.cpg/sg15_117_cif.got.tgz:232639.got - 2010.06.03 18:47:42.
