data_PCOD9273466
_publ_section_title
;
Structure prediction by ZEFSAII (Michael W. Deem and Ramdas Pophale) SiO2 
 PCOD9273466
Probable space group: C 2/C
;
_chemical_formula_sum "Si O2"
_cell_formula_units_Z 48
_cell_length_a 30.918632
_cell_length_b 15.614043
_cell_length_c 9.129527
_cell_angle_alpha 90.000000
_cell_angle_beta 149.001761
_cell_angle_gamma 90.000000
_cell_volume 2269.870282
_symmetry_space_group_name_H-M "C 2/C"
_symmetry_group_IT_number 15
_symmetry_cell_setting 'monoclinic'
loop_
_space_group_symop_operation_xyz
x,y,z
-x,y,1/2-z
-x,-y,-z
x,-y,1/2+z
1/2+x,1/2+y,z
1/2-x,1/2+y,1/2-z
1/2-x,1/2-y,-z
1/2+x,1/2-y,1/2+z
loop_
_atom_site_type_symbol
_atom_site_label
_atom_site_fract_x
_atom_site_fract_y
_atom_site_fract_z
Si Si1 0.188431 0.754883 0.460420
Si Si2 0.557300 0.448565 0.781107
Si Si3 0.821513 0.893972 0.854637
Si Si4 0.088609 0.593199 0.087681
Si Si5 0.679840 0.010872 0.082895
Si Si6 0.692694 0.352900 0.999866
O O1 0.250000 0.750000 0.500000
O O2 0.154609 0.844445 0.426058
O O3 0.114646 0.688164 0.212953
O O4 0.249515 0.720024 0.765255
O O5 0.500000 0.420818 0.750000
O O6 0.500000 0.500000 0.500000
O O7 0.624399 0.521353 0.022346
O O8 0.610802 0.373831 0.859345
O O9 0.726748 0.924005 0.610575
O O10 0.830688 0.838068 0.735867
O O11 0.103994 0.533664 0.274528
O O12 0.153258 0.559437 0.151901
O O13 0.000000 0.589749 0.750000
O O14 0.748559 0.938033 0.320281
#
# Coordination Sequence:
#
# PCOD9273466 Si02
#       6
#     8   8   8   8   8   8
#     4  11  24  40  62  89 123 168 209 253 308 384
#     4  11  23  39  63  98 127 159 211 267 316 366
#     4  11  21  40  62  87 127 166 209 252 314 381
#     4  11  22  40  61  93 121 158 203 263 318 360
#     4  10  20  37  66  88 116 156 211 260 303 367
#     4  10  22  39  66  89 118 169 210 252 310 380
#
# _framework density 21.146581999999999
#
# number of rings (size 3 to 8) (size 9 to 14) (size 15 to 20)
#    0.000    1.333    5.000    1.000    2.333    0.000 
#    3.000    0.000    0.000    0.000    0.000    0.000 
#    0.000    0.000    0.000    0.000    0.000    0.000 
#
# Total GULP energy -134040.142496 kJ/mol
# GULP energy per Si atom -5585.005937 kJ/mol
# Density = 2.109845 g / cm^3
# Si number density = 21.146582 Si / 1000 Ang^3
#
#
#
# Elastic Constant Matrix: (Units=GPa)
#
#
# Indices 1 2 3 4 5 6 
#
# 1 118.3091 20.7348 3.4471 0.0000 -3.6652 0.0000
# 2 20.7348 52.7444 4.1072 0.0000 4.2537 0.0000
# 3 3.4471 4.1072 69.7192 0.0000 -3.0499 0.0000
# 4 0.0000 0.0000 0.0000 17.3726 0.0000 -7.4967
# 5 -3.6652 4.2537 -3.0499 0.0000 30.9284 0.0000
# 6 0.0000 0.0000 0.0000 -7.4967 0.0000 31.9797
#
#
#
# Elastic Compliance Matrix: (Units=1/GPa)
#
#
# Indices 1 2 3 4 5 6 
#
# 1 0.009157 -0.003714 -0.000165 0.000000 0.001580 0.000000
# 2 -0.003714 0.020788 -0.001190 0.000000 -0.003417 0.000000
# 3 -0.000165 -0.001190 0.014490 0.000000 0.001573 0.000000
# 4 0.000000 0.000000 0.000000 0.064040 0.000000 0.015012
# 5 0.001580 -0.003417 0.001573 0.000000 0.033145 0.000000
# 6 0.000000 0.000000 0.000000 0.015012 0.000000 0.034789
#
#
# Mechanical properties :
#
#
# Convention : Reuss Voigt Hill
#
# Bulk Modulus (GPa) = 29.15794 33.03897 31.09845
# Shear Modulus (GPa) = 25.25498 30.22172 27.73835
#
# Velocity S-wave (km/s) = 3.45959 3.78452 3.62569
# Velocity P-wave (km/s) = 5.45681 5.89529 5.68028
#
# Compressibility (1/GPa) = 0.03429598
#
# Stress axis : x y z
#
# Youngs Moduli (GPa) = 109.20415 48.10512 69.01148
#
# Poissons Ratio (x) = 0.17868 0.01137
# Poissons Ratio (y) = 0.40563 0.08215
# Poissons Ratio (z) = 0.01800 0.05727
#
# Static dielectric constant tensor:
#      x y z
#    x 1.783310 0.000000 -0.017100 
#    y 0.000000 1.809800 0.000000 
#    z -0.017100 0.000000 1.775440 
# 
# From -- ./inp_files/48344.got.cif
#   From: 2010.05.17/outbox.cif.g08.bks.cpg/sg15_25_cif.got.tgz:48344.got - 2010.06.03 18:47:42.
