data_PCOD9273186
_publ_section_title
;
Structure prediction by ZEFSAII (Michael W. Deem and Ramdas Pophale) SiO2 
 PCOD9273186
Probable space group: C 2/C
;
_chemical_formula_sum "Si O2"
_cell_formula_units_Z 48
_cell_length_a 10.591620
_cell_length_b 18.888563
_cell_length_c 17.954302
_cell_angle_alpha 90.000000
_cell_angle_beta 139.860795
_cell_angle_gamma 90.000000
_cell_volume 2315.536984
_symmetry_space_group_name_H-M "C 2/C"
_symmetry_group_IT_number 15
_symmetry_cell_setting 'monoclinic'
loop_
_space_group_symop_operation_xyz
x,y,z
-x,y,1/2-z
-x,-y,-z
x,-y,1/2+z
1/2+x,1/2+y,z
1/2-x,1/2+y,1/2-z
1/2-x,1/2-y,-z
1/2+x,1/2-y,1/2+z
loop_
_atom_site_type_symbol
_atom_site_label
_atom_site_fract_x
_atom_site_fract_y
_atom_site_fract_z
Si Si1 0.325611 0.157987 0.112956
Si Si2 0.508368 0.540989 0.919666
Si Si3 0.091649 0.303270 0.018037
Si Si4 0.229323 0.572171 0.929121
Si Si5 0.217785 0.282286 0.348638
Si Si6 0.688841 0.891303 0.201750
O O1 0.500000 0.140166 0.250000
O O2 0.227046 0.233298 0.090294
O O3 0.157487 0.098342 0.023995
O O4 0.400320 0.170923 0.063018
O O5 0.325062 0.537546 0.896414
O O6 0.392263 0.567760 0.796005
O O7 0.627588 0.470559 0.952765
O O8 0.143751 0.362708 0.100372
O O9 0.873681 0.276677 0.932596
O O10 0.248134 0.655663 0.923317
O O11 0.001903 0.567383 0.850366
O O12 0.232015 0.324588 0.276700
O O13 0.000000 0.253896 0.250000
#
# Coordination Sequence:
#
# PCOD9273186 Si02
#       6
#     8   8   8   8   8   8
#     4  11  24  37  58  87 123 161 206 251 295 373
#     4  10  20  39  61  91 119 160 210 246 299 357
#     4  11  22  39  58  91 126 158 201 246 316 364
#     4   9  19  36  62  88 117 156 207 248 293 355
#     4   9  18  36  58  93 122 155 198 245 301 361
#     4  10  20  37  63  90 123 160 195 260 308 356
#
# _framework density 20.729533
#
# number of rings (size 3 to 8) (size 9 to 14) (size 15 to 20)
#    0.000    2.000    3.333    2.500    2.333    7.333 
#    3.000    0.833    0.000    4.000    0.000    0.000 
#    0.000    0.000    0.000    0.000    0.000    0.000 
#
# Total GULP energy -133627.945902 kJ/mol
# GULP energy per Si atom -5567.831079 kJ/mol
# Density = 2.068235 g / cm^3
# Si number density = 20.729533 Si / 1000 Ang^3
#
#
#
# Elastic Constant Matrix: (Units=GPa)
#
#
# Indices 1 2 3 4 5 6 
#
# 1 47.6980 45.1372 73.2382 -0.0001 15.4294 -0.0001
# 2 45.1372 58.5278 74.4810 0.0000 15.1234 0.0000
# 3 73.2382 74.4810 176.9651 -0.0002 22.9671 -0.0001
# 4 -0.0001 0.0000 -0.0002 38.7168 -0.0001 -1.5792
# 5 15.4294 15.1234 22.9671 -0.0001 16.7080 -0.0001
# 6 -0.0001 0.0000 -0.0001 -1.5792 -0.0001 18.9604
#
#
#
# Elastic Compliance Matrix: (Units=1/GPa)
#
#
# Indices 1 2 3 4 5 6 
#
# 1 0.109719 -0.052456 -0.019891 0.000000 -0.026499 0.000000
# 2 -0.052456 0.065062 -0.005255 0.000000 -0.003226 0.000000
# 3 -0.019891 -0.005255 0.015936 0.000000 0.001219 0.000000
# 4 0.000000 0.000000 0.000000 0.025917 0.000000 0.002159
# 5 -0.026499 -0.003226 0.001219 0.000000 0.085566 0.000000
# 6 0.000000 0.000000 0.000000 0.002159 0.000000 0.052921
#
#
# Mechanical properties :
#
#
# Convention : Reuss Voigt Hill
#
# Bulk Modulus (GPa) = 28.15938 74.32264 51.24101
# Shear Modulus (GPa) = 9.57555 20.89934 15.23745
#
# Velocity S-wave (km/s) = 2.15158 3.17865 2.71414
# Velocity P-wave (km/s) = 4.44816 7.02873 5.88172
#
# Compressibility (1/GPa) = 0.03551215
#
# Stress axis : x y z
#
# Youngs Moduli (GPa) = 9.11421 15.37003 62.74914
#
# Poissons Ratio (x) = 0.80625 1.24815
# Poissons Ratio (y) = 0.47810 0.32976
# Poissons Ratio (z) = 0.18129 0.08077
#
# Static dielectric constant tensor:
#      x y z
#    x 1.817850 0.000000 -0.032630 
#    y 0.000000 1.804620 0.000000 
#    z -0.032630 0.000000 1.804210 
# 
# From -- ./inp_files/200971.got.cif
#   From: 2010.05.17/outbox.cif.g08.bks.cpg/sg15_101_cif.got.tgz:200971.got - 2010.06.03 18:47:42.
