data_PCOD9273983
_publ_section_title
;
Structure prediction by ZEFSAII (Michael W. Deem and Ramdas Pophale) SiO2 
 PCOD9273983
Probable space group: C 2/C
;
_chemical_formula_sum "Si O2"
_cell_formula_units_Z 56
_cell_length_a 13.495609
_cell_length_b 8.683708
_cell_length_c 21.497329
_cell_angle_alpha 90.000000
_cell_angle_beta 104.927963
_cell_angle_gamma 90.000000
_cell_volume 2434.287789
_symmetry_space_group_name_H-M "C 2/C"
_symmetry_group_IT_number 15
_symmetry_cell_setting 'monoclinic'
loop_
_space_group_symop_operation_xyz
x,y,z
-x,y,1/2-z
-x,-y,-z
x,-y,1/2+z
1/2+x,1/2+y,z
1/2-x,1/2+y,1/2-z
1/2-x,1/2-y,-z
1/2+x,1/2-y,1/2+z
loop_
_atom_site_type_symbol
_atom_site_label
_atom_site_fract_x
_atom_site_fract_y
_atom_site_fract_z
Si Si1 0.594248 0.700143 0.812076
Si Si2 0.299112 0.754933 0.790254
Si Si3 0.989054 0.521064 0.347519
Si Si4 0.583895 0.302087 0.716081
Si Si5 0.624315 0.154238 0.962298
Si Si6 0.334340 0.652446 0.926628
Si Si7 0.018445 0.026442 0.405308
O O1 0.500000 0.673246 0.750000
O O2 0.685445 0.688049 0.776966
O O3 0.580927 0.592951 0.870762
O O4 0.580202 0.877817 0.831458
O O5 0.190258 0.832442 0.765919
O O6 0.292710 0.648856 0.849601
O O7 0.393870 0.861916 0.826369
O O8 0.947062 0.373430 0.303836
O O9 0.036976 0.455902 0.419600
O O10 0.500000 0.358622 0.750000
O O11 0.567410 0.392032 0.650628
O O12 0.734275 0.105408 0.951136
O O13 0.591231 0.330243 0.936522
O O14 0.638957 0.180220 0.038322
O O15 0.444187 0.565084 0.941097
#
# Coordination Sequence:
#
# PCOD9273983 Si02
#       7
#     8   8   8   8   8   8   8
#     4  10  20  38  60  93 130 157 200 264 336 391
#     4  11  23  36  65  95 129 166 205 265 344 387
#     4  10  22  41  61  92 128 168 209 273 323 394
#     4  11  24  36  61  96 132 164 215 262 329 410
#     4  10  25  44  65  90 128 174 239 262 325 397
#     4  11  23  42  67  91 127 182 218 277 323 399
#     4  11  22  42  64  96 128 171 215 283 325 395
#
# _framework density 23.004676
#
# number of rings (size 3 to 8) (size 9 to 14) (size 15 to 20)
#    0.000    1.429    2.857    3.857    4.000    1.714 
#    0.000    0.000    0.000    1.714    0.000    0.000 
#    0.000    0.000    0.000    0.000    0.000    0.000 
#
# Total GULP energy -155928.147920 kJ/mol
# GULP energy per Si atom -5568.862426 kJ/mol
# Density = 2.295232 g / cm^3
# Si number density = 23.004676 Si / 1000 Ang^3
#
#
#
# Elastic Constant Matrix: (Units=GPa)
#
#
# Indices 1 2 3 4 5 6 
#
# 1 124.6529 15.8778 40.6638 0.0000 -5.2125 0.0000
# 2 15.8778 74.5509 16.1840 0.0000 -22.0130 0.0000
# 3 40.6638 16.1840 71.8599 0.0000 3.4209 0.0000
# 4 0.0000 0.0000 0.0000 29.7282 0.0000 -5.6414
# 5 -5.2125 -22.0130 3.4209 0.0000 38.4614 0.0000
# 6 0.0000 0.0000 0.0000 -5.6414 0.0000 13.3039
#
#
#
# Elastic Compliance Matrix: (Units=1/GPa)
#
#
# Indices 1 2 3 4 5 6 
#
# 1 0.009980 -0.000429 -0.005627 0.000000 0.001607 0.000000
# 2 -0.000429 0.017455 -0.004179 0.000000 0.010303 0.000000
# 3 -0.005627 -0.004179 0.018269 0.000000 -0.004779 0.000000
# 4 0.000000 0.000000 0.000000 0.036582 0.000000 0.015512
# 5 0.001607 0.010303 -0.004779 0.000000 0.032540 0.000000
# 6 0.000000 0.000000 0.000000 0.015512 0.000000 0.081744
#
#
# Mechanical properties :
#
#
# Convention : Reuss Voigt Hill
#
# Bulk Modulus (GPa) = 39.63055 46.27942 42.95499
# Shear Modulus (GPa) = 22.17786 29.52125 25.84955
#
# Velocity S-wave (km/s) = 3.10830 3.58616 3.35575
# Velocity P-wave (km/s) = 5.49059 6.10807 5.80754
#
# Compressibility (1/GPa) = 0.02523306
#
# Stress axis : x y z
#
# Youngs Moduli (GPa) = 100.20194 57.29161 54.73794
#
# Poissons Ratio (x) = 0.02460 0.30802
# Poissons Ratio (y) = 0.04302 0.22873
# Poissons Ratio (z) = 0.56385 0.23940
#
# Static dielectric constant tensor:
#      x y z
#    x 1.909960 0.000000 -0.069610 
#    y 0.000000 1.945600 0.000000 
#    z -0.069610 0.000000 2.124400 
# 
# From -- ./inp_files/272849.got.cif
#   From: 2010.05.17/outbox.cif.g08.bks.cpg/sg15_137_cif.got.tgz:272849.got - 2010.06.03 18:47:42.
