data_PCOD9273749
_publ_section_title
;
Structure prediction by ZEFSAII (Michael W. Deem and Ramdas Pophale) SiO2 
 PCOD9273749
Probable space group: C 2/C
;
_chemical_formula_sum "Si O2"
_cell_formula_units_Z 36
_cell_length_a 21.096300
_cell_length_b 10.614783
_cell_length_c 8.716206
_cell_angle_alpha 90.000000
_cell_angle_beta 67.079472
_cell_angle_gamma 90.000000
_cell_volume 1797.737124
_symmetry_space_group_name_H-M "C 2/C"
_symmetry_group_IT_number 15
_symmetry_cell_setting 'monoclinic'
loop_
_space_group_symop_operation_xyz
x,y,z
-x,y,1/2-z
-x,-y,-z
x,-y,1/2+z
1/2+x,1/2+y,z
1/2-x,1/2+y,1/2-z
1/2-x,1/2-y,-z
1/2+x,1/2-y,1/2+z
loop_
_atom_site_type_symbol
_atom_site_label
_atom_site_fract_x
_atom_site_fract_y
_atom_site_fract_z
Si Si1 0.000000 0.998934 0.250000
Si Si2 0.204965 0.565856 0.148215
Si Si3 0.763236 0.836748 0.269129
Si Si4 0.544128 0.903176 0.860479
Si Si5 0.421804 0.356310 0.057875
O O1 0.939210 0.081092 0.380400
O O2 0.031124 0.917764 0.356183
O O3 0.236153 0.682099 0.224818
O O4 0.230686 0.425858 0.168225
O O5 0.122012 0.561515 0.238358
O O6 0.228225 0.610776 0.957471
O O7 0.843857 0.868275 0.184592
O O8 0.500000 0.871068 0.750000
O O9 0.556163 0.787230 0.962724
O O10 0.500000 0.000000 0.000000
#
# Coordination Sequence:
#
# PCOD9273749 Si02
#       5
#     4   8   8   8   8
#     4  10  20  38  58  92 114 160 200 242 310 346
#     4  10  22  40  63  88 121 159 200 250 297 360
#     4  10  21  40  60  90 119 158 201 246 303 351
#     4  11  23  40  60  88 123 161 200 245 302 358
#     4  10  21  38  62  86 125 154 199 252 295 363
#
# _framework density 20.025175000000001
#
# number of rings (size 3 to 8) (size 9 to 14) (size 15 to 20)
#    0.000    1.778    1.111    2.667    1.556    0.889 
#    8.000    0.000    0.000    0.000    0.000    0.000 
#    0.000    0.000    0.000    0.000    0.000    0.000 
#
# Total GULP energy -100318.305851 kJ/mol
# GULP energy per Si atom -5573.239214 kJ/mol
# Density = 1.997960 g / cm^3
# Si number density = 20.025175 Si / 1000 Ang^3
#
#
#
# Elastic Constant Matrix: (Units=GPa)
#
#
# Indices 1 2 3 4 5 6 
#
# 1 63.9322 35.1168 0.9623 0.0000 -25.2958 0.0000
# 2 35.1168 54.9065 24.4704 0.0000 -25.9553 0.0000
# 3 0.9623 24.4704 77.4399 0.0000 -34.7341 0.0000
# 4 0.0000 0.0000 0.0000 32.5809 0.0000 -6.5143
# 5 -25.2958 -25.9553 -34.7341 0.0000 34.3702 0.0000
# 6 0.0000 0.0000 0.0000 -6.5143 0.0000 7.2557
#
#
#
# Elastic Compliance Matrix: (Units=1/GPa)
#
#
# Indices 1 2 3 4 5 6 
#
# 1 0.040583 -0.017268 0.022864 0.000000 0.039934 0.000000
# 2 -0.017268 0.035730 -0.008549 0.000000 0.005634 0.000000
# 3 0.022864 -0.008549 0.036549 0.000000 0.047308 0.000000
# 4 0.000000 0.000000 0.000000 0.037408 0.000000 0.033585
# 5 0.039934 0.005634 0.047308 0.000000 0.110548 0.000000
# 6 0.000000 0.000000 0.000000 0.033585 0.000000 0.167976
#
#
# Mechanical properties :
#
#
# Convention : Reuss Voigt Hill
#
# Bulk Modulus (GPa) = 9.34968 35.26417 22.30693
# Shear Modulus (GPa) = 10.63030 23.88997 17.26013
#
# Velocity S-wave (km/s) = 2.30651 3.45773 2.93904
# Velocity P-wave (km/s) = 3.43110 5.79563 4.76244
#
# Compressibility (1/GPa) = 0.10695548
#
# Stress axis : x y z
#
# Youngs Moduli (GPa) = 24.64087 27.98733 27.36024
#
# Poissons Ratio (x) = 0.48329 -0.62556
# Poissons Ratio (y) = 0.42551 0.23390
# Poissons Ratio (z) = -0.56338 0.23926
#
# Static dielectric constant tensor:
#      x y z
#    x 1.703890 0.000000 0.016100 
#    y 0.000000 1.749820 0.000000 
#    z 0.016100 0.000000 1.712250 
# 
# From -- ./inp_files/45943.got.cif
#   From: 2010.05.17/outbox.cif.g08.bks.cpg/sg15_23_cif.got.tgz:45943.got - 2010.06.03 18:47:42.
