data_PCOD9273548
_publ_section_title
;
Structure prediction by ZEFSAII (Michael W. Deem and Ramdas Pophale) SiO2 
 PCOD9273548
Probable space group: C 2/C
;
_chemical_formula_sum "Si O2"
_cell_formula_units_Z 44
_cell_length_a 9.422472
_cell_length_b 30.566360
_cell_length_c 9.243170
_cell_angle_alpha 90.000000
_cell_angle_beta 118.678022
_cell_angle_gamma 90.000000
_cell_volume 2335.568731
_symmetry_space_group_name_H-M "C 2/C"
_symmetry_group_IT_number 15
_symmetry_cell_setting 'monoclinic'
loop_
_space_group_symop_operation_xyz
x,y,z
-x,y,1/2-z
-x,-y,-z
x,-y,1/2+z
1/2+x,1/2+y,z
1/2-x,1/2+y,1/2-z
1/2-x,1/2-y,-z
1/2+x,1/2-y,1/2+z
loop_
_atom_site_type_symbol
_atom_site_label
_atom_site_fract_x
_atom_site_fract_y
_atom_site_fract_z
Si Si1 0.498008 0.546914 0.422430
Si Si2 0.759514 0.783861 0.871926
Si Si3 0.083050 0.259113 0.500763
Si Si4 0.500000 0.833285 0.250000
Si Si5 0.830634 0.877984 0.995819
Si Si6 0.306447 0.613260 0.813967
O O1 0.500000 0.543902 0.250000
O O2 0.500000 0.500000 0.500000
O O3 0.351714 0.579644 0.402173
O O4 0.346798 0.428808 0.430865
O O5 0.635094 0.767750 0.690036
O O6 0.750000 0.750000 0.000000
O O7 0.736098 0.834858 0.899472
O O8 0.944964 0.776943 0.909472
O O9 0.250000 0.250000 0.500000
O O10 0.009947 0.302607 0.394578
O O11 0.338474 0.860916 0.186390
O O12 0.776287 0.893859 0.128364
O O13 0.019374 0.862599 0.099331
#
# Coordination Sequence:
#
# PCOD9273548 Si02
#       6
#     8   8   8   4   8   8
#     4  10  20  37  68  96 118 152 203 257 308 376
#     4  12  25  38  59  86 121 168 218 259 312 364
#     4  12  25  38  56  83 123 167 215 260 309 371
#     4  12  22  38  60  86 128 164 208 262 316 362
#     4   9  21  38  60  86 120 157 212 253 306 372
#     4   9  21  36  62  85 120 156 200 251 313 364
#
# _framework density 18.839093999999999
#
# number of rings (size 3 to 8) (size 9 to 14) (size 15 to 20)
#    1.091    0.364    1.818    3.818    7.636    0.000 
#    0.000    0.000    0.000    4.364    0.000    0.000 
#    0.000    0.000    0.000    0.000    0.000    0.000 
#
# Total GULP energy -122538.692504 kJ/mol
# GULP energy per Si atom -5569.940568 kJ/mol
# Density = 1.879622 g / cm^3
# Si number density = 18.839094 Si / 1000 Ang^3
#
#
#
# Elastic Constant Matrix: (Units=GPa)
#
#
# Indices 1 2 3 4 5 6 
#
# 1 40.5175 19.0372 12.3410 0.0000 -12.0787 0.0000
# 2 19.0372 124.6728 56.0944 0.0000 -17.2781 0.0000
# 3 12.3410 56.0944 130.1657 0.0000 -25.8057 0.0000
# 4 0.0000 0.0000 0.0000 36.9420 0.0000 -1.0966
# 5 -12.0787 -17.2781 -25.8057 0.0000 35.9498 0.0000
# 6 0.0000 0.0000 0.0000 -1.0966 0.0000 27.8362
#
#
#
# Elastic Compliance Matrix: (Units=1/GPa)
#
#
# Indices 1 2 3 4 5 6 
#
# 1 0.028623 -0.003401 0.000390 0.000000 0.008262 0.000000
# 2 -0.003401 0.010478 -0.003989 0.000000 0.001030 0.000000
# 3 0.000390 -0.003989 0.010505 0.000000 0.005755 0.000000
# 4 0.000000 0.000000 0.000000 0.027101 0.000000 0.001068
# 5 0.008262 0.001030 0.005755 0.000000 0.035219 0.000000
# 6 0.000000 0.000000 0.000000 0.001068 0.000000 0.035967
#
#
# Mechanical properties :
#
#
# Convention : Reuss Voigt Hill
#
# Bulk Modulus (GPa) = 28.08473 52.25569 40.17021
# Shear Modulus (GPa) = 28.77516 34.00449 31.38982
#
# Velocity S-wave (km/s) = 3.91246 4.25313 4.08635
# Velocity P-wave (km/s) = 5.94557 7.20534 6.60556
#
# Compressibility (1/GPa) = 0.03560653
#
# Stress axis : x y z
#
# Youngs Moduli (GPa) = 34.93689 95.44080 95.18910
#
# Poissons Ratio (x) = 0.32460 -0.03712
# Poissons Ratio (y) = 0.11882 0.37968
# Poissons Ratio (z) = -0.01362 0.38068
#
# Static dielectric constant tensor:
#      x y z
#    x 1.687350 0.000000 -0.032450 
#    y 0.000000 1.674540 0.000000 
#    z -0.032450 0.000000 1.647180 
# 
# From -- ./inp_files/25485.got.cif
#   From: 2010.05.17/outbox.cif.g08.bks.cpg/sg15_13_cif.got.tgz:25485.got - 2010.06.03 18:47:42.
