data_PCOD9273534
_publ_section_title
;
Structure prediction by ZEFSAII (Michael W. Deem and Ramdas Pophale) SiO2 
 PCOD9273534
Probable space group: C 2/C
;
_chemical_formula_sum "Si O2"
_cell_formula_units_Z 48
_cell_length_a 8.808911
_cell_length_b 26.441853
_cell_length_c 9.774348
_cell_angle_alpha 90.000000
_cell_angle_beta 63.150378
_cell_angle_gamma 90.000000
_cell_volume 2031.242093
_symmetry_space_group_name_H-M "C 2/C"
_symmetry_group_IT_number 15
_symmetry_cell_setting 'monoclinic'
loop_
_space_group_symop_operation_xyz
x,y,z
-x,y,1/2-z
-x,-y,-z
x,-y,1/2+z
1/2+x,1/2+y,z
1/2-x,1/2+y,1/2-z
1/2-x,1/2-y,-z
1/2+x,1/2-y,1/2+z
loop_
_atom_site_type_symbol
_atom_site_label
_atom_site_fract_x
_atom_site_fract_y
_atom_site_fract_z
Si Si1 0.318865 0.027219 0.585248
Si Si2 0.283389 0.220103 0.665721
Si Si3 0.509402 0.874228 0.401086
Si Si4 0.045930 0.918904 0.068656
Si Si5 0.341486 0.573355 0.392219
Si Si6 0.478638 0.699721 0.964189
O O1 0.367025 0.076841 0.651476
O O2 0.226800 0.052422 0.490668
O O3 0.500000 0.000000 0.500000
O O4 0.200281 0.979404 0.667519
O O5 0.399150 0.173053 0.567313
O O6 0.401295 0.269446 0.621972
O O7 0.176265 0.208836 0.847151
O O8 0.134798 0.222365 0.613121
O O9 0.500000 0.856919 0.250000
O O10 0.327328 0.892566 0.530684
O O11 0.000000 0.922590 0.250000
O O12 0.053938 0.859995 0.027222
O O13 0.908252 0.939709 0.017801
O O14 0.500000 0.597979 0.250000
#
# Coordination Sequence:
#
# PCOD9273534 Si02
#       6
#     8   8   8   8   8   8
#     4  10  22  40  64  94 131 173 225 277 332 397
#     4  10  20  38  62  98 130 168 222 275 330 404
#     4  11  22  43  69  96 132 180 230 270 332 415
#     4  12  21  42  69  93 127 184 230 265 330 418
#     4  11  26  41  63 100 139 172 220 289 348 382
#     4  10  20  37  67  95 130 168 222 272 338 394
#
# _framework density 23.630862
#
# number of rings (size 3 to 8) (size 9 to 14) (size 15 to 20)
#    0.000    1.333    3.333    3.000    0.000    4.000 
#    0.000    8.333    0.000    0.000    0.000    0.000 
#    0.000    0.000    0.000    0.000    0.000    0.000 
#
# Total GULP energy -133817.280126 kJ/mol
# GULP energy per Si atom -5575.720005 kJ/mol
# Density = 2.357708 g / cm^3
# Si number density = 23.630862 Si / 1000 Ang^3
#
#
#
# Elastic Constant Matrix: (Units=GPa)
#
#
# Indices 1 2 3 4 5 6 
#
# 1 117.4349 33.8444 57.3046 0.0000 -32.3300 0.0000
# 2 33.8444 116.8877 41.8531 0.0000 -29.9833 0.0000
# 3 57.3046 41.8531 79.2334 0.0000 -28.9446 0.0000
# 4 0.0000 0.0000 0.0000 3.3824 0.0000 -10.7620
# 5 -32.3300 -29.9833 -28.9446 0.0000 44.8272 0.0000
# 6 0.0000 0.0000 0.0000 -10.7620 0.0000 21.9124
#
#
#
# Elastic Compliance Matrix: (Units=1/GPa)
#
#
# Indices 1 2 3 4 5 6 
#
# 1 0.013854 0.000206 -0.008413 0.000000 0.004698 0.000000
# 2 0.000206 0.011306 -0.004324 0.000000 0.004918 0.000000
# 3 -0.008413 -0.004324 0.023185 0.000000 0.006011 0.000000
# 4 0.000000 0.000000 0.000000 -0.525417 0.000000 -0.258052
# 5 0.004698 0.004918 0.006011 0.000000 0.032867 0.000000
# 6 0.000000 0.000000 0.000000 -0.258052 0.000000 -0.081103
#
#
# Mechanical properties :
#
#
# Convention : Reuss Voigt Hill
#
# Bulk Modulus (GPa) = 42.94903 64.39559 53.67231
# Shear Modulus (GPa) = -10.15261 26.06131 7.95435
#
# Velocity S-wave (km/s) = -2.07501 3.32452 1.83668
# Velocity P-wave (km/s) = 3.53179 6.48432 5.22111
#
# Compressibility (1/GPa) = 0.02328341
#
# Stress axis : x y z
#
# Youngs Moduli (GPa) = 72.17895 88.45250 43.13085
#
# Poissons Ratio (x) = -0.01820 0.36285
# Poissons Ratio (y) = -0.01485 0.18650
# Poissons Ratio (z) = 0.60722 0.38247
#
# Static dielectric constant tensor:
#      x y z
#    x 1.960740 0.000000 -0.035840 
#    y 0.000000 1.918300 0.000000 
#    z -0.035840 0.000000 2.017150 
# 
# From -- ./inp_files/80548.got.cif
#   From: 2010.05.17/outbox.cif.g08.bks.cpg/sg15_41_cif.got.tgz:80548.got - 2010.06.03 18:47:42.
