data_PCOD9273275
_publ_section_title
;
Structure prediction by ZEFSAII (Michael W. Deem and Ramdas Pophale) SiO2 
 PCOD9273275
Probable space group: C 2/C
;
_chemical_formula_sum "Si O2"
_cell_formula_units_Z 52
_cell_length_a 27.734306
_cell_length_b 14.500563
_cell_length_c 7.432042
_cell_angle_alpha 90.000000
_cell_angle_beta 135.327489
_cell_angle_gamma 90.000000
_cell_volume 2101.351762
_symmetry_space_group_name_H-M "C 2/C"
_symmetry_group_IT_number 15
_symmetry_cell_setting 'monoclinic'
loop_
_space_group_symop_operation_xyz
x,y,z
-x,y,1/2-z
-x,-y,-z
x,-y,1/2+z
1/2+x,1/2+y,z
1/2-x,1/2+y,1/2-z
1/2-x,1/2-y,-z
1/2+x,1/2-y,1/2+z
loop_
_atom_site_type_symbol
_atom_site_label
_atom_site_fract_x
_atom_site_fract_y
_atom_site_fract_z
Si Si1 0.517034 0.394038 0.086313
Si Si2 0.161033 0.825245 0.573762
Si Si3 0.612629 0.712269 0.356052
Si Si4 0.742795 0.851280 0.153080
Si Si5 0.227193 0.536871 0.974062
Si Si6 0.000000 0.557727 0.250000
Si Si7 0.088989 0.407511 0.302522
O O1 0.500000 0.379667 0.250000
O O2 0.595762 0.361090 0.286778
O O3 0.500000 0.500000 0.000000
O O4 0.459579 0.338123 0.827058
O O5 0.135834 0.782915 0.703032
O O6 0.203709 0.745729 0.580805
O O7 0.208414 0.912651 0.756823
O O8 0.676319 0.663704 0.617622
O O9 0.603952 0.810281 0.428822
O O10 0.723603 0.913107 0.274238
O O11 0.730379 0.926006 0.964509
O O12 0.157641 0.561806 0.889370
O O13 0.059556 0.488958 0.343705
O O14 0.029785 0.612659 0.495995
#
# Coordination Sequence:
#
# PCOD9273275 Si02
#       7
#     8   8   8   8   8   4   8
#     4  10  22  39  64  89 121 161 206 254 308 367
#     4  10  20  38  62  95 119 167 212 249 308 385
#     4  10  20  37  64  86 123 162 206 248 310 370
#     4  11  21  39  64  94 121 168 205 260 306 377
#     4  11  21  37  66  86 126 158 212 250 313 366
#     4  10  26  36  62  90 124 158 210 244 322 368
#     4  11  21  41  60  90 121 163 200 259 304 379
#
# _framework density 24.745975999999999
#
# number of rings (size 3 to 8) (size 9 to 14) (size 15 to 20)
#    0.000    1.538    3.077    2.769    3.231    1.231 
#    1.385    0.769    0.000    0.000    0.000    0.000 
#    0.000    0.000    0.000    0.000    0.000    0.000 
#
# Total GULP energy -145531.083681 kJ/mol
# GULP energy per Si atom -5597.349372 kJ/mol
# Density = 2.468965 g / cm^3
# Si number density = 24.745976 Si / 1000 Ang^3
#
#
#
# Elastic Constant Matrix: (Units=GPa)
#
#
# Indices 1 2 3 4 5 6 
#
# 1 81.8057 5.9364 28.1941 0.0000 13.5435 0.0000
# 2 5.9364 122.3560 48.0672 0.0000 14.9083 0.0000
# 3 28.1941 48.0672 111.9804 0.0000 28.3533 0.0000
# 4 0.0000 0.0000 0.0000 -11.9509 0.0000 -23.6744
# 5 13.5435 14.9083 28.3533 0.0000 32.7484 0.0000
# 6 0.0000 0.0000 0.0000 -23.6744 0.0000 18.9079
#
#
#
# Elastic Compliance Matrix: (Units=1/GPa)
#
#
# Indices 1 2 3 4 5 6 
#
# 1 0.013767 0.000930 -0.002967 0.000000 -0.003548 0.000000
# 2 0.000930 0.009922 -0.004165 0.000000 -0.001295 0.000000
# 3 -0.002967 -0.004165 0.013671 0.000000 -0.008713 0.000000
# 4 0.000000 0.000000 0.000000 -0.024042 0.000000 -0.030103
# 5 -0.003548 -0.001295 -0.008713 0.000000 0.040137 0.000000
# 6 0.000000 0.000000 0.000000 -0.030103 0.000000 0.015196
#
#
# Mechanical properties :
#
#
# Convention : Reuss Voigt Hill
#
# Bulk Modulus (GPa) = 40.07155 53.39302 46.73229
# Shear Modulus (GPa) = 55.94551 23.53738 39.74144
#
# Velocity S-wave (km/s) = 4.75994 3.08743 4.01181
# Velocity P-wave (km/s) = 6.81452 5.85943 6.35494
#
# Compressibility (1/GPa) = 0.02495536
#
# Stress axis : x y z
#
# Youngs Moduli (GPa) = 72.63990 100.78803 73.14654
#
# Poissons Ratio (x) = -0.09373 0.21702
# Poissons Ratio (y) = -0.06755 0.30466
# Poissons Ratio (z) = 0.21552 0.41979
#
# Static dielectric constant tensor:
#      x y z
#    x 1.998780 0.000000 -0.077910 
#    y 0.000000 1.925370 0.000000 
#    z -0.077910 0.000000 2.050260 
# 
# From -- ./inp_files/70203.got.cif
#   From: 2010.05.17/outbox.cif.g08.bks.cpg/sg15_36_cif.got.tgz:70203.got - 2010.06.03 18:47:42.
