data_PCOD9273685
_publ_section_title
;
Structure prediction by ZEFSAII (Michael W. Deem and Ramdas Pophale) SiO2 
 PCOD9273685
Probable space group: C 2/C
;
_chemical_formula_sum "Si O2"
_cell_formula_units_Z 64
_cell_length_a 9.321699
_cell_length_b 25.486064
_cell_length_c 14.168627
_cell_angle_alpha 90.000000
_cell_angle_beta 73.245972
_cell_angle_gamma 90.000000
_cell_volume 3223.202346
_symmetry_space_group_name_H-M "C 2/C"
_symmetry_group_IT_number 15
_symmetry_cell_setting 'monoclinic'
loop_
_space_group_symop_operation_xyz
x,y,z
-x,y,1/2-z
-x,-y,-z
x,-y,1/2+z
1/2+x,1/2+y,z
1/2-x,1/2+y,1/2-z
1/2-x,1/2-y,-z
1/2+x,1/2-y,1/2+z
loop_
_atom_site_type_symbol
_atom_site_label
_atom_site_fract_x
_atom_site_fract_y
_atom_site_fract_z
Si Si1 0.645495 0.766047 0.289289
Si Si2 0.348072 0.347241 0.147846
Si Si3 0.657315 0.538277 0.761000
Si Si4 0.484196 0.268707 0.991809
Si Si5 0.614219 0.047869 0.952774
Si Si6 0.822865 0.002277 0.046602
Si Si7 0.752824 0.808342 0.875927
Si Si8 0.174645 0.605071 0.510009
O O1 0.500000 0.779772 0.250000
O O2 0.770384 0.808930 0.238122
O O3 0.616388 0.757505 0.405734
O O4 0.701155 0.710664 0.235296
O O5 0.377080 0.403619 0.189257
O O6 0.226759 0.358507 0.087242
O O7 0.483008 0.316934 0.067360
O O8 0.500000 0.518541 0.750000
O O9 0.786477 0.539910 0.658923
O O10 0.710458 0.502678 0.837198
O O11 0.381327 0.289183 0.924128
O O12 0.393812 0.223420 0.063218
O O13 0.502335 0.095899 0.957908
O O14 0.500000 0.000000 0.000000
O O15 0.735973 0.049488 0.013168
O O16 0.759070 0.949440 0.010754
O O17 0.000000 0.000000 0.000000
O O18 0.725831 0.868587 0.903290
#
# Coordination Sequence:
#
# PCOD9273685 Si02
#       8
#     8   8   8   8   8   8   8   8
#     4   9  15  24  47  74 114 150 184 230 289 325
#     4   9  19  29  50  85 112 146 193 241 287 327
#     4  11  22  37  63  83 111 151 197 238 287 361
#     4   8  14  26  42  71 117 143 177 233 282 321
#     4  10  22  37  59  87 113 143 190 244 296 344
#     4  10  20  38  58  79 118 147 181 239 301 347
#     4   8  14  25  41  73 108 144 179 228 277 326
#     4   9  18  31  52  80 115 140 190 242 282 338
#
# _framework density 19.856030000000001
#
# number of rings (size 3 to 8) (size 9 to 14) (size 15 to 20)
#    0.000    2.750    1.250    2.250    3.500    4.000 
#    0.000    0.000   35.750    0.750    0.000    0.000 
#    0.000    0.000    0.000    0.000    0.000    0.000 
#
# Total GULP energy -178165.737727 kJ/mol
# GULP energy per Si atom -5567.679304 kJ/mol
# Density = 1.981084 g / cm^3
# Si number density = 19.856030 Si / 1000 Ang^3
#
#
#
# Elastic Constant Matrix: (Units=GPa)
#
#
# Indices 1 2 3 4 5 6 
#
# 1 57.4311 10.5738 5.1447 0.0000 0.8067 0.0000
# 2 10.5738 17.6376 14.9880 0.0000 3.5378 0.0000
# 3 5.1447 14.9880 78.3381 0.0000 -5.8929 0.0000
# 4 0.0000 0.0000 0.0000 14.9473 0.0000 -5.8599
# 5 0.8067 3.5378 -5.8929 0.0000 22.2644 0.0000
# 6 0.0000 0.0000 0.0000 -5.8599 0.0000 11.1057
#
#
#
# Elastic Compliance Matrix: (Units=1/GPa)
#
#
# Indices 1 2 3 4 5 6 
#
# 1 0.019723 -0.013367 0.001396 0.000000 0.001779 0.000000
# 2 -0.013367 0.081667 -0.016005 0.000000 -0.016729 0.000000
# 3 0.001396 -0.016005 0.016247 0.000000 0.006793 0.000000
# 4 0.000000 0.000000 0.000000 0.084350 0.000000 0.044507
# 5 0.001779 -0.016729 0.006793 0.000000 0.049307 0.000000
# 6 0.000000 0.000000 0.000000 0.044507 0.000000 0.113529
#
#
# Mechanical properties :
#
#
# Convention : Reuss Voigt Hill
#
# Bulk Modulus (GPa) = 16.21170 23.86887 20.04028
# Shear Modulus (GPa) = 11.32920 17.84350 14.58635
#
# Velocity S-wave (km/s) = 2.39125 3.00099 2.71330
# Velocity P-wave (km/s) = 3.97573 4.90459 4.46438
#
# Compressibility (1/GPa) = 0.06168384
#
# Stress axis : x y z
#
# Youngs Moduli (GPa) = 50.70168 12.24478 61.55091
#
# Poissons Ratio (x) = 0.16368 -0.08593
# Poissons Ratio (y) = 0.67775 0.98515
# Poissons Ratio (z) = -0.07078 0.19598
#
# Static dielectric constant tensor:
#      x y z
#    x 1.724330 0.000000 -0.003300 
#    y 0.000000 1.760100 0.000000 
#    z -0.003300 0.000000 1.737680 
# 
# From -- ./inp_files/138567.got.cif
#   From: 2010.05.17/outbox.cif.g08.bks.cpg/sg15_70_cif.got.tgz:138567.got - 2010.06.03 18:47:42.
