data_PCOD9273711
_publ_section_title
;
Structure prediction by ZEFSAII (Michael W. Deem and Ramdas Pophale) SiO2 
 PCOD9273711
Probable space group: C 2/C
;
_chemical_formula_sum "Si O2"
_cell_formula_units_Z 60
_cell_length_a 27.906705
_cell_length_b 19.664726
_cell_length_c 5.930739
_cell_angle_alpha 90.000000
_cell_angle_beta 131.135259
_cell_angle_gamma 90.000000
_cell_volume 2451.273534
_symmetry_space_group_name_H-M "C 2/C"
_symmetry_group_IT_number 15
_symmetry_cell_setting 'monoclinic'
loop_
_space_group_symop_operation_xyz
x,y,z
-x,y,1/2-z
-x,-y,-z
x,-y,1/2+z
1/2+x,1/2+y,z
1/2-x,1/2+y,1/2-z
1/2-x,1/2-y,-z
1/2+x,1/2-y,1/2+z
loop_
_atom_site_type_symbol
_atom_site_label
_atom_site_fract_x
_atom_site_fract_y
_atom_site_fract_z
Si Si1 0.244900 0.308662 0.296555
Si Si2 0.134829 0.829770 0.131516
Si Si3 0.802213 0.472472 0.778938
Si Si4 0.058087 0.427083 0.310124
Si Si5 0.500000 0.166012 0.250000
Si Si6 0.097752 0.703040 0.211041
Si Si7 0.701566 0.405667 0.695376
Si Si8 0.906329 0.981349 0.604802
O O1 0.250000 0.250000 0.500000
O O2 0.302438 0.302055 0.299309
O O3 0.261892 0.379384 0.473997
O O4 0.172584 0.306304 0.990546
O O5 0.088651 0.765584 0.011595
O O6 0.152638 0.850250 0.444275
O O7 0.109221 0.900455 0.946881
O O8 0.787109 0.503806 0.979704
O O9 0.877780 0.467349 0.026060
O O10 0.755044 0.408905 0.665295
O O11 0.075484 0.367905 0.539969
O O12 0.000000 0.466183 0.250000
O O13 0.038177 0.384792 0.031250
O O14 0.552732 0.210963 0.287055
O O15 0.658250 0.472290 0.597071
O O16 0.934868 0.001087 0.941354
#
# Coordination Sequence:
#
# PCOD9273711 Si02
#       8
#     8   8   8   8   4   8   8   8
#     4  12  24  37  61  99 136 177 215 277 339 415
#     4  11  23  38  59  96 133 171 221 272 334 408
#     4  12  28  42  65  97 132 183 234 280 336 405
#     4  10  25  46  68  89 125 172 231 299 346 389
#     4  10  24  48  70  88 126 176 234 286 360 404
#     4  11  24  40  66  97 130 174 224 282 345 406
#     4  11  23  39  59  90 137 182 215 260 332 409
#     4  10  20  38  58  85 129 174 214 254 312 399
#
# _framework density 24.477073000000001
#
# number of rings (size 3 to 8) (size 9 to 14) (size 15 to 20)
#    0.000    1.067    2.667    3.600   11.200    0.533 
#    0.000    0.000    0.000    0.000    0.000    3.733 
#    0.000    0.000    0.000    0.000    0.000    0.000 
#
# Total GULP energy -167547.265641 kJ/mol
# GULP energy per Si atom -5584.908855 kJ/mol
# Density = 2.442136 g / cm^3
# Si number density = 24.477073 Si / 1000 Ang^3
#
#
#
# Elastic Constant Matrix: (Units=GPa)
#
#
# Indices 1 2 3 4 5 6 
#
# 1 124.4193 40.2357 26.7129 0.0000 -34.5228 0.0000
# 2 40.2357 72.1584 15.5321 0.0000 -10.4740 0.0000
# 3 26.7129 15.5321 90.5380 0.0000 -14.9064 0.0000
# 4 0.0000 0.0000 0.0000 24.8755 0.0000 -19.2026
# 5 -34.5228 -10.4740 -14.9064 0.0000 29.9611 0.0000
# 6 0.0000 0.0000 0.0000 -19.2026 0.0000 34.1055
#
#
#
# Elastic Compliance Matrix: (Units=1/GPa)
#
#
# Indices 1 2 3 4 5 6 
#
# 1 0.013752 -0.005521 -0.000892 0.000000 0.013472 0.000000
# 2 -0.005521 0.017094 -0.001489 0.000000 -0.001126 0.000000
# 3 -0.000892 -0.001489 0.012318 0.000000 0.004580 0.000000
# 4 0.000000 0.000000 0.000000 0.071104 0.000000 0.040034
# 5 0.013472 -0.001126 0.004580 0.000000 0.050785 0.000000
# 6 0.000000 0.000000 0.000000 0.040034 0.000000 0.051861
#
#
# Mechanical properties :
#
#
# Convention : Reuss Voigt Hill
#
# Bulk Modulus (GPa) = 36.55017 50.23079 43.39048
# Shear Modulus (GPa) = 20.67488 31.43075 26.05282
#
# Velocity S-wave (km/s) = 2.90946 3.58731 3.26602
# Velocity P-wave (km/s) = 5.12362 6.14203 5.65579
#
# Compressibility (1/GPa) = 0.02735965
#
# Stress axis : x y z
#
# Youngs Moduli (GPa) = 72.71417 58.50063 81.18308
#
# Poissons Ratio (x) = 0.32297 0.07245
# Poissons Ratio (y) = 0.40144 0.12089
# Poissons Ratio (z) = 0.06489 0.08711
#
# Static dielectric constant tensor:
#      x y z
#    x 2.033530 0.000000 -0.016760 
#    y 0.000000 2.068410 0.000000 
#    z -0.016760 0.000000 1.984330 
# 
# From -- ./inp_files/17528.got.cif
#   From: 2010.05.17/outbox.cif.g08.bks.cpg/sg15_9_cif.got.tgz:17528.got - 2010.06.03 18:47:42.
