data_PCOD9273271
_publ_section_title
;
Structure prediction by ZEFSAII (Michael W. Deem and Ramdas Pophale) SiO2 
 PCOD9273271
Probable space group: C 2/C
;
_chemical_formula_sum "Si O2"
_cell_formula_units_Z 48
_cell_length_a 13.990165
_cell_length_b 14.437841
_cell_length_c 20.453142
_cell_angle_alpha 90.000000
_cell_angle_beta 138.773711
_cell_angle_gamma 90.000000
_cell_volume 2722.659648
_symmetry_space_group_name_H-M "C 2/C"
_symmetry_group_IT_number 15
_symmetry_cell_setting 'monoclinic'
loop_
_space_group_symop_operation_xyz
x,y,z
-x,y,1/2-z
-x,-y,-z
x,-y,1/2+z
1/2+x,1/2+y,z
1/2-x,1/2+y,1/2-z
1/2-x,1/2-y,-z
1/2+x,1/2-y,1/2+z
loop_
_atom_site_type_symbol
_atom_site_label
_atom_site_fract_x
_atom_site_fract_y
_atom_site_fract_z
Si Si1 0.342367 0.362694 0.740483
Si Si2 0.320053 0.241882 0.228363
Si Si3 0.614644 0.008578 0.462097
Si Si4 0.307935 0.055634 0.850785
Si Si5 0.848578 0.691400 0.098897
Si Si6 0.815665 0.167304 0.076970
O O1 0.247947 0.317076 0.748434
O O2 0.304870 0.471614 0.716665
O O3 0.511534 0.345366 0.842047
O O4 0.298779 0.321199 0.646986
O O5 0.259523 0.345709 0.200222
O O6 0.286812 0.198298 0.140257
O O7 0.493287 0.238196 0.321765
O O8 0.452241 0.967567 0.383484
O O9 0.728477 0.925429 0.513259
O O10 0.645129 0.054523 0.548804
O O11 0.632684 0.086869 0.416930
O O12 0.750000 0.750000 0.000000
O O13 0.750000 0.250000 0.000000
#
# Coordination Sequence:
#
# PCOD9273271 Si02
#       6
#     8   8   8   8   8   8
#     4  10  22  40  59  91 121 154 209 249 303 376
#     4  11  23  39  62  88 126 162 204 256 310 362
#     4  10  20  39  62  87 119 159 206 251 305 368
#     4  10  20  37  64  85 116 165 198 251 308 363
#     4  11  23  38  60  92 123 159 206 258 306 362
#     4  10  22  39  64  88 120 161 203 250 306 374
#
# _framework density 17.629819999999999
#
# number of rings (size 3 to 8) (size 9 to 14) (size 15 to 20)
#    0.000    1.667    3.333    1.000    2.333    2.667 
#    3.000    2.500    0.000    0.000    0.000    0.000 
#    0.000    0.000    0.000    0.000    0.000    0.000 
#
# Total GULP energy -133986.328519 kJ/mol
# GULP energy per Si atom -5582.763688 kJ/mol
# Density = 1.758969 g / cm^3
# Si number density = 17.629820 Si / 1000 Ang^3
#
#
#
# Elastic Constant Matrix: (Units=GPa)
#
#
# Indices 1 2 3 4 5 6 
#
# 1 108.0859 51.8398 43.3565 0.0000 -12.4131 0.0000
# 2 51.8398 123.3640 57.0979 0.0000 -9.5152 0.0000
# 3 43.3565 57.0979 101.8580 0.0000 1.4313 0.0000
# 4 0.0000 0.0000 0.0000 33.6105 0.0000 4.5617
# 5 -12.4131 -9.5152 1.4313 0.0000 20.8328 0.0000
# 6 0.0000 0.0000 0.0000 4.5617 0.0000 17.3032
#
#
#
# Elastic Compliance Matrix: (Units=1/GPa)
#
#
# Indices 1 2 3 4 5 6 
#
# 1 0.013101 -0.003202 -0.003874 0.000000 0.006610 0.000000
# 2 -0.003202 0.012378 -0.005634 0.000000 0.004133 0.000000
# 3 -0.003874 -0.005634 0.014708 0.000000 -0.005892 0.000000
# 4 0.000000 0.000000 0.000000 0.030857 0.000000 -0.008135
# 5 0.006610 0.004133 -0.005892 0.000000 0.054232 0.000000
# 6 0.000000 0.000000 0.000000 -0.008135 0.000000 0.059937
#
#
# Mechanical properties :
#
#
# Convention : Reuss Voigt Hill
#
# Bulk Modulus (GPa) = 67.72311 70.87738 69.30025
# Shear Modulus (GPa) = 23.19595 26.41687 24.80641
#
# Velocity S-wave (km/s) = 3.63122 3.87514 3.75516
# Velocity P-wave (km/s) = 7.48855 7.76613 7.62860
#
# Compressibility (1/GPa) = 0.01476601
#
# Stress axis : x y z
#
# Youngs Moduli (GPa) = 76.33031 80.78879 67.99248
#
# Poissons Ratio (x) = 0.25871 0.26342
# Poissons Ratio (y) = 0.24443 0.38304
# Poissons Ratio (z) = 0.29573 0.45513
#
# Static dielectric constant tensor:
#      x y z
#    x 1.599100 0.000000 -0.003360 
#    y 0.000000 1.571040 0.000000 
#    z -0.003360 0.000000 1.598690 
# 
# From -- ./inp_files/123580.got.cif
#   From: 2010.05.17/outbox.cif.g08.bks.cpg/sg15_62_cif.got.tgz:123580.got - 2010.06.03 18:47:42.
