data_PCOD9273400
_publ_section_title
;
Structure prediction by ZEFSAII (Michael W. Deem and Ramdas Pophale) SiO2 
 PCOD9273400
Probable space group: C 2/C
;
_chemical_formula_sum "Si O2"
_cell_formula_units_Z 56
_cell_length_a 16.371242
_cell_length_b 11.774143
_cell_length_c 18.080595
_cell_angle_alpha 90.000000
_cell_angle_beta 51.823967
_cell_angle_gamma 90.000000
_cell_volume 2739.744197
_symmetry_space_group_name_H-M "C 2/C"
_symmetry_group_IT_number 15
_symmetry_cell_setting 'monoclinic'
loop_
_space_group_symop_operation_xyz
x,y,z
-x,y,1/2-z
-x,-y,-z
x,-y,1/2+z
1/2+x,1/2+y,z
1/2-x,1/2+y,1/2-z
1/2-x,1/2-y,-z
1/2+x,1/2-y,1/2+z
loop_
_atom_site_type_symbol
_atom_site_label
_atom_site_fract_x
_atom_site_fract_y
_atom_site_fract_z
Si Si1 0.021569 0.325859 0.495097
Si Si2 0.502202 0.492738 0.119459
Si Si3 0.000000 0.385248 0.750000
Si Si4 0.129118 0.776758 0.067011
Si Si5 0.500000 0.660740 0.250000
Si Si6 0.871601 0.870442 0.076284
Si Si7 0.178655 0.674137 0.594169
Si Si8 0.498458 0.031897 0.879314
O O1 0.095340 0.243310 0.500188
O O2 0.016738 0.433786 0.551686
O O3 0.912522 0.259383 0.552910
O O4 0.050483 0.366057 0.396588
O O5 0.584723 0.402404 0.106761
O O6 0.467899 0.579877 0.200761
O O7 0.407263 0.425726 0.133721
O O8 0.561711 0.564195 0.023390
O O9 0.927338 0.306231 0.841945
O O10 0.052699 0.471147 0.779618
O O11 0.250000 0.750000 0.000000
O O12 0.406296 0.741420 0.325367
O O13 0.753989 0.874684 0.115136
O O14 0.250000 0.750000 0.500000
O O15 0.112353 0.578784 0.587843
#
# Coordination Sequence:
#
# PCOD9273400 Si02
#       8
#     8   8   4   8   4   8   8   8
#     4   9  19  37  64  93 125 167 220 274 333 400
#     4  10  22  41  70  92 135 176 228 278 347 402
#     4  10  22  38  62  92 136 162 222 282 320 396
#     4  10  22  40  68  94 130 179 224 271 337 411
#     4  12  24  40  68 100 132 180 232 284 330 416
#     4  10  21  42  68  94 130 181 218 282 342 407
#     4  12  23  41  70  96 135 177 231 275 343 410
#     4  10  20  37  65  89 128 172 212 275 340 385
#
# _framework density 20.439862999999999
#
# number of rings (size 3 to 8) (size 9 to 14) (size 15 to 20)
#    0.000    1.714    2.857    0.857    4.000    0.000 
#    0.000    5.714   31.429    0.000    0.000    0.000 
#    0.000    0.000    0.000    0.000    0.000    0.000 
#
# Total GULP energy -156145.821187 kJ/mol
# GULP energy per Si atom -5576.636471 kJ/mol
# Density = 2.039334 g / cm^3
# Si number density = 20.439863 Si / 1000 Ang^3
#
#
#
# Elastic Constant Matrix: (Units=GPa)
#
#
# Indices 1 2 3 4 5 6 
#
# 1 119.2929 46.1758 44.9210 0.0000 2.9458 0.0000
# 2 46.1758 104.5519 40.3795 0.0000 1.8641 0.0000
# 3 44.9210 40.3795 99.1610 0.0000 3.0497 0.0000
# 4 0.0000 0.0000 0.0000 27.3585 0.0000 24.1881
# 5 2.9458 1.8641 3.0497 0.0000 27.9887 0.0000
# 6 0.0000 0.0000 0.0000 24.1881 0.0000 33.9303
#
#
#
# Elastic Compliance Matrix: (Units=1/GPa)
#
#
# Indices 1 2 3 4 5 6 
#
# 1 0.011105 -0.003510 -0.003584 0.000000 -0.000544 0.000000
# 2 -0.003510 0.012461 -0.003482 0.000000 -0.000081 0.000000
# 3 -0.003584 -0.003482 0.013151 0.000000 -0.000824 0.000000
# 4 0.000000 0.000000 0.000000 0.098860 0.000000 -0.070475
# 5 -0.000544 -0.000081 -0.000824 0.000000 0.035881 0.000000
# 6 0.000000 0.000000 0.000000 -0.070475 0.000000 0.079712
#
#
# Mechanical properties :
#
#
# Convention : Reuss Voigt Hill
#
# Bulk Modulus (GPa) = 64.24825 65.10649 64.67737
# Shear Modulus (GPa) = 18.01734 30.62413 24.32074
#
# Velocity S-wave (km/s) = 2.97219 3.87493 3.45319
# Velocity P-wave (km/s) = 6.57873 7.20708 6.90006
#
# Compressibility (1/GPa) = 0.01556463
#
# Stress axis : x y z
#
# Youngs Moduli (GPa) = 90.05201 80.24982 76.03754
#
# Poissons Ratio (x) = 0.28171 0.27254
# Poissons Ratio (y) = 0.31612 0.26473
# Poissons Ratio (z) = 0.32278 0.27939
#
# Static dielectric constant tensor:
#      x y z
#    x 1.737590 0.000000 0.048310 
#    y 0.000000 1.793160 0.000000 
#    z 0.048310 0.000000 1.712600 
# 
# From -- ./inp_files/204406.got.cif
#   From: 2010.05.17/outbox.cif.g08.bks.cpg/sg15_103_cif.got.tgz:204406.got - 2010.06.03 18:47:42.
