data_PCOD9273831
_publ_section_title
;
Structure prediction by ZEFSAII (Michael W. Deem and Ramdas Pophale) SiO2 
 PCOD9273831
Probable space group: C 2/C
;
_chemical_formula_sum "Si O2"
_cell_formula_units_Z 48
_cell_length_a 16.673886
_cell_length_b 10.913351
_cell_length_c 17.547994
_cell_angle_alpha 90.000000
_cell_angle_beta 36.957981
_cell_angle_gamma 90.000000
_cell_volume 1919.828652
_symmetry_space_group_name_H-M "C 2/C"
_symmetry_group_IT_number 15
_symmetry_cell_setting 'monoclinic'
loop_
_space_group_symop_operation_xyz
x,y,z
-x,y,1/2-z
-x,-y,-z
x,-y,1/2+z
1/2+x,1/2+y,z
1/2-x,1/2+y,1/2-z
1/2-x,1/2-y,-z
1/2+x,1/2-y,1/2+z
loop_
_atom_site_type_symbol
_atom_site_label
_atom_site_fract_x
_atom_site_fract_y
_atom_site_fract_z
Si Si1 0.041085 0.299950 0.932710
Si Si2 0.819225 0.505100 0.103822
Si Si3 0.851275 0.858395 0.491226
Si Si4 0.356743 0.320964 0.321421
Si Si5 0.885970 0.139432 0.481243
Si Si6 0.396458 0.861795 0.384723
O O1 0.166613 0.391347 0.842740
O O2 0.073024 0.195937 0.969531
O O3 0.980919 0.230453 0.905793
O O4 0.921792 0.394459 0.044144
O O5 0.678723 0.437547 0.203138
O O6 0.861834 0.570098 0.991021
O O7 0.731217 0.798076 0.631471
O O8 0.787852 0.864615 0.455123
O O9 0.897915 0.994348 0.473913
O O10 0.500000 0.307794 0.250000
O O11 0.732909 0.157721 0.569807
O O12 0.956536 0.229984 0.366392
O O13 0.500000 0.928205 0.250000
#
# Coordination Sequence:
#
# PCOD9273831 Si02
#       6
#     8   8   8   8   8   8
#     4   9  19  36  62  82 129 162 190 253 310 357
#     4   9  18  40  64  89 120 164 200 245 308 364
#     4  10  20  38  59  91 120 158 209 253 300 359
#     4  10  21  38  64  90 120 161 207 253 302 359
#     4  10  20  38  59  91 120 158 209 253 300 359
#     4  10  21  38  64  90 120 161 207 253 302 359
#
# _framework density 25.002230999999998
#
# number of rings (size 3 to 8) (size 9 to 14) (size 15 to 20)
#    0.000    2.333    1.667    0.500    0.000    1.333 
#    0.000    8.333    0.000    0.000    0.000    0.000 
#    0.000    0.000    0.000    0.000    0.000    0.000 
#
# Total GULP energy -133635.704802 kJ/mol
# GULP energy per Si atom -5568.154367 kJ/mol
# Density = 2.494532 g / cm^3
# Si number density = 25.002231 Si / 1000 Ang^3
#
#
#
# Elastic Constant Matrix: (Units=GPa)
#
#
# Indices 1 2 3 4 5 6 
#
# 1 159.0232 51.5975 17.4478 0.0000 -1.5346 0.0000
# 2 51.5975 159.7973 6.7711 0.0000 -7.4364 0.0000
# 3 17.4478 6.7711 45.4670 0.0000 -16.4114 0.0000
# 4 0.0000 0.0000 0.0000 8.4837 0.0000 -6.7951
# 5 -1.5346 -7.4364 -16.4114 0.0000 18.7751 0.0000
# 6 0.0000 0.0000 0.0000 -6.7951 0.0000 60.6586
#
#
#
# Elastic Compliance Matrix: (Units=1/GPa)
#
#
# Indices 1 2 3 4 5 6 
#
# 1 0.007458 -0.002418 -0.003839 0.000000 -0.003704 0.000000
# 2 -0.002418 0.007159 0.001189 0.000000 0.003677 0.000000
# 3 -0.003839 0.001189 0.034108 0.000000 0.029972 0.000000
# 4 0.000000 0.000000 0.000000 0.129492 0.000000 0.014506
# 5 -0.003704 0.003677 0.029972 0.000000 0.080614 0.000000
# 6 0.000000 0.000000 0.000000 0.014506 0.000000 0.018111
#
#
# Mechanical properties :
#
#
# Convention : Reuss Voigt Hill
#
# Bulk Modulus (GPa) = 25.91307 57.32448 41.61878
# Shear Modulus (GPa) = 16.66986 36.81487 26.74237
#
# Velocity S-wave (km/s) = 2.58492 3.84143 3.27402
# Velocity P-wave (km/s) = 4.39271 6.53093 5.56547
#
# Compressibility (1/GPa) = 0.03859056
#
# Stress axis : x y z
#
# Youngs Moduli (GPa) = 134.07706 139.67604 29.31832
#
# Poissons Ratio (x) = 0.33773 0.11255
# Poissons Ratio (y) = 0.32419 -0.03486
# Poissons Ratio (z) = 0.51471 -0.16608
#
# Static dielectric constant tensor:
#      x y z
#    x 1.966140 0.000000 0.093210 
#    y 0.000000 2.427260 0.000000 
#    z 0.093210 0.000000 2.466280 
# 
# From -- ./inp_files/248284.got.cif
#   From: 2010.05.17/outbox.cif.g08.bks.cpg/sg15_125_cif.got.tgz:248284.got - 2010.06.03 18:47:42.
