data_PCOD9273359
_publ_section_title
;
Structure prediction by ZEFSAII (Michael W. Deem and Ramdas Pophale) SiO2 
 PCOD9273359
Probable space group: C 2/C
;
_chemical_formula_sum "Si O2"
_cell_formula_units_Z 48
_cell_length_a 14.767891
_cell_length_b 8.610832
_cell_length_c 25.137482
_cell_angle_alpha 90.000000
_cell_angle_beta 139.898189
_cell_angle_gamma 90.000000
_cell_volume 2059.068997
_symmetry_space_group_name_H-M "C 2/C"
_symmetry_group_IT_number 15
_symmetry_cell_setting 'monoclinic'
loop_
_space_group_symop_operation_xyz
x,y,z
-x,y,1/2-z
-x,-y,-z
x,-y,1/2+z
1/2+x,1/2+y,z
1/2-x,1/2+y,1/2-z
1/2-x,1/2-y,-z
1/2+x,1/2-y,1/2+z
loop_
_atom_site_type_symbol
_atom_site_label
_atom_site_fract_x
_atom_site_fract_y
_atom_site_fract_z
Si Si1 0.723917 0.214011 0.049954
Si Si2 0.150947 0.991604 0.315397
Si Si3 0.093931 0.744571 0.581349
Si Si4 0.709088 0.947658 0.881410
Si Si5 0.422234 0.078004 0.294755
Si Si6 0.831610 0.224367 0.273576
O O1 0.815833 0.074536 0.114030
O O2 0.764319 0.371431 0.098736
O O3 0.750000 0.250000 0.000000
O O4 0.562020 0.179442 0.991476
O O5 0.135300 0.124097 0.263317
O O6 0.000000 0.908314 0.250000
O O7 0.284057 0.885306 0.361661
O O8 0.145101 0.854644 0.556372
O O9 0.098821 0.835720 0.640172
O O10 0.639059 0.917134 0.792549
O O11 0.589343 0.898511 0.869408
O O12 0.334649 0.199131 0.290598
O O13 0.384575 0.900628 0.293656
#
# Coordination Sequence:
#
# PCOD9273359 Si02
#       6
#     8   8   8   8   8   8
#     4  12  25  45  67  92 134 177 222 266 336 391
#     4  12  25  42  67  97 132 172 221 271 324 393
#     4  11  25  42  66 101 133 170 216 279 328 388
#     4  10  22  40  65  89 130 168 216 258 333 378
#     4  10  20  37  64  96 123 166 211 276 311 388
#     4  11  21  39  66  97 129 165 221 265 330 382
#
# _framework density 23.311505
#
# number of rings (size 3 to 8) (size 9 to 14) (size 15 to 20)
#    0.000    1.000    3.333    4.000    4.667    0.000 
#    0.000    0.833    0.000    0.000    0.000    0.000 
#    0.000    0.000    0.000    0.000    0.000    0.000 
#
# Total GULP energy -134141.516641 kJ/mol
# GULP energy per Si atom -5589.229860 kJ/mol
# Density = 2.325845 g / cm^3
# Si number density = 23.311505 Si / 1000 Ang^3
#
#
#
# Elastic Constant Matrix: (Units=GPa)
#
#
# Indices 1 2 3 4 5 6 
#
# 1 123.4649 30.2643 39.3032 0.0000 29.4048 0.0000
# 2 30.2643 71.5836 19.3674 0.0000 1.2497 0.0000
# 3 39.3032 19.3674 69.8383 0.0000 29.3728 0.0000
# 4 0.0000 0.0000 0.0000 26.7677 0.0000 8.0849
# 5 29.4048 1.2497 29.3728 0.0000 49.9468 0.0000
# 6 0.0000 0.0000 0.0000 8.0849 0.0000 22.9178
#
#
#
# Elastic Compliance Matrix: (Units=1/GPa)
#
#
# Indices 1 2 3 4 5 6 
#
# 1 0.011152 -0.003731 -0.003347 0.000000 -0.004504 0.000000
# 2 -0.003731 0.016645 -0.004338 0.000000 0.004331 0.000000
# 3 -0.003347 -0.004338 0.021964 0.000000 -0.010837 0.000000
# 4 0.000000 0.000000 0.000000 0.041814 0.000000 -0.014751
# 5 -0.004504 0.004331 -0.010837 0.000000 0.028937 0.000000
# 6 0.000000 0.000000 0.000000 -0.014751 0.000000 0.048838
#
#
# Mechanical properties :
#
#
# Convention : Reuss Voigt Hill
#
# Bulk Modulus (GPa) = 37.13522 49.19519 43.16520
# Shear Modulus (GPa) = 24.85606 31.65660 28.25633
#
# Velocity S-wave (km/s) = 3.26890 3.68908 3.48533
# Velocity P-wave (km/s) = 5.49656 6.26857 5.89522
#
# Compressibility (1/GPa) = 0.02692862
#
# Stress axis : x y z
#
# Youngs Moduli (GPa) = 89.66896 60.07820 45.52998
#
# Poissons Ratio (x) = 0.22413 0.15241
# Poissons Ratio (y) = 0.33452 0.19751
# Poissons Ratio (z) = 0.30016 0.26062
#
# Static dielectric constant tensor:
#      x y z
#    x 1.944680 0.000000 0.029710 
#    y 0.000000 1.901420 0.000000 
#    z 0.029710 0.000000 1.900100 
# 
# From -- ./inp_files/295408.got.cif
#   From: 2010.05.17/outbox.cif.g08.bks.cpg/sg15_148_cif.got.tgz:295408.got - 2010.06.03 18:47:42.
