data_PCOD9273921
_publ_section_title
;
Structure prediction by ZEFSAII (Michael W. Deem and Ramdas Pophale) SiO2 
 PCOD9273921
Probable space group: C 2/C
;
_chemical_formula_sum "Si O2"
_cell_formula_units_Z 32
_cell_length_a 7.607224
_cell_length_b 19.128114
_cell_length_c 13.526091
_cell_angle_alpha 90.000000
_cell_angle_beta 134.480971
_cell_angle_gamma 90.000000
_cell_volume 1404.282259
_symmetry_space_group_name_H-M "C 2/C"
_symmetry_group_IT_number 15
_symmetry_cell_setting 'monoclinic'
loop_
_space_group_symop_operation_xyz
x,y,z
-x,y,1/2-z
-x,-y,-z
x,-y,1/2+z
1/2+x,1/2+y,z
1/2-x,1/2+y,1/2-z
1/2-x,1/2-y,-z
1/2+x,1/2-y,1/2+z
loop_
_atom_site_type_symbol
_atom_site_label
_atom_site_fract_x
_atom_site_fract_y
_atom_site_fract_z
Si Si1 0.272017 0.323748 0.896797
Si Si2 0.782087 0.333905 0.398540
Si Si3 0.439367 0.545784 0.343976
Si Si4 0.976169 0.464744 0.096887
O O1 0.383475 0.245661 0.941562
O O2 0.390649 0.378180 0.869481
O O3 0.000000 0.312241 0.750000
O O4 0.242370 0.354118 0.995563
O O5 0.500000 0.338075 0.250000
O O6 0.947503 0.384325 0.395847
O O7 0.500000 0.549558 0.250000
O O8 0.190604 0.499119 0.247638
O O9 0.686455 0.523249 0.499521
O O10 0.000000 0.500000 0.000000
#
# Coordination Sequence:
#
# PCOD9273921 Si02
#       4
#     8   8   8   8
#     4  10  21  39  65  91 121 167 214 257 316 380
#     4  10  21  40  63  89 125 165 209 262 316 376
#     4  10  21  39  63  92 128 166 208 261 314 374
#     4  10  20  38  60  87 126 164 202 256 313 368
#
# _framework density 22.787441999999999
#
# number of rings (size 3 to 8) (size 9 to 14) (size 15 to 20)
#    0.000    2.000    0.000    5.250    0.000    1.000 
#    0.000   26.250    0.000    0.000    0.000    0.000 
#    0.000    0.000    0.000    0.000    0.000    0.000 
#
# Total GULP energy -89303.249201 kJ/mol
# GULP energy per Si atom -5581.453075 kJ/mol
# Density = 2.273558 g / cm^3
# Si number density = 22.787442 Si / 1000 Ang^3
#
#
#
# Elastic Constant Matrix: (Units=GPa)
#
#
# Indices 1 2 3 4 5 6 
#
# 1 98.2851 47.9614 62.1737 0.0000 19.3782 0.0000
# 2 47.9614 129.3504 35.4989 0.0000 18.5186 0.0000
# 3 62.1737 35.4989 173.8280 0.0000 2.1587 0.0000
# 4 0.0000 0.0000 0.0000 23.8076 0.0000 34.4138
# 5 19.3782 18.5186 2.1587 0.0000 48.4921 0.0000
# 6 0.0000 0.0000 0.0000 34.4138 0.0000 39.1429
#
#
#
# Elastic Compliance Matrix: (Units=1/GPa)
#
#
# Indices 1 2 3 4 5 6 
#
# 1 0.016142 -0.003963 -0.004906 0.000000 -0.004719 0.000000
# 2 -0.003963 0.009642 -0.000526 0.000000 -0.002075 0.000000
# 3 -0.004906 -0.000526 0.007592 0.000000 0.001823 0.000000
# 4 0.000000 0.000000 0.000000 -0.155075 0.000000 0.136340
# 5 -0.004719 -0.002075 0.001823 0.000000 0.023219 0.000000
# 6 0.000000 0.000000 0.000000 0.136340 0.000000 -0.094320
#
#
# Mechanical properties :
#
#
# Convention : Reuss Voigt Hill
#
# Bulk Modulus (GPa) = 68.55566 76.97017 72.76292
# Shear Modulus (GPa) = -29.55969 39.34382 4.89206
#
# Velocity S-wave (km/s) = -3.60556 4.15969 1.46679
# Velocity P-wave (km/s) = 3.58004 7.54464 5.90501
#
# Compressibility (1/GPa) = 0.01458669
#
# Stress axis : x y z
#
# Youngs Moduli (GPa) = 61.94966 103.71463 131.71529
#
# Poissons Ratio (x) = 0.41107 0.64614
# Poissons Ratio (y) = 0.24553 0.06924
# Poissons Ratio (z) = 0.30390 0.05452
#
# Static dielectric constant tensor:
#      x y z
#    x 1.876700 0.000000 0.040590 
#    y 0.000000 1.940610 0.000000 
#    z 0.040590 0.000000 1.858110 
# 
# From -- ./inp_files/76245.got.cif
#   From: 2010.05.17/outbox.cif.g08.bks.cpg/sg15_39_cif.got.tgz:76245.got - 2010.06.03 18:47:42.
