data_PCOD9273972
_publ_section_title
;
Structure prediction by ZEFSAII (Michael W. Deem and Ramdas Pophale) SiO2 
 PCOD9273972
Probable space group: C 2/C
;
_chemical_formula_sum "Si O2"
_cell_formula_units_Z 52
_cell_length_a 9.024959
_cell_length_b 25.463338
_cell_length_c 14.470105
_cell_angle_alpha 90.000000
_cell_angle_beta 51.613083
_cell_angle_gamma 90.000000
_cell_volume 2606.495964
_symmetry_space_group_name_H-M "C 2/C"
_symmetry_group_IT_number 15
_symmetry_cell_setting 'monoclinic'
loop_
_space_group_symop_operation_xyz
x,y,z
-x,y,1/2-z
-x,-y,-z
x,-y,1/2+z
1/2+x,1/2+y,z
1/2-x,1/2+y,1/2-z
1/2-x,1/2-y,-z
1/2+x,1/2-y,1/2+z
loop_
_atom_site_type_symbol
_atom_site_label
_atom_site_fract_x
_atom_site_fract_y
_atom_site_fract_z
Si Si1 0.000000 0.195587 0.750000
Si Si2 0.670484 0.897555 0.244977
Si Si3 0.843417 0.212465 0.623324
Si Si4 0.287780 0.171455 0.123521
Si Si5 0.555104 0.556575 0.518487
Si Si6 0.319866 0.883873 0.050976
Si Si7 0.480594 0.352008 0.602673
O O1 0.922996 0.227754 0.693422
O O2 0.844910 0.157709 0.857812
O O3 0.500000 0.918424 0.250000
O O4 0.704604 0.836057 0.202734
O O5 0.626151 0.905563 0.369154
O O6 0.869573 0.924037 0.145384
O O7 0.772862 0.266468 0.607897
O O8 0.991696 0.188303 0.492989
O O9 0.169002 0.163549 0.262419
O O10 0.180233 0.144038 0.079428
O O11 0.497672 0.148461 0.053936
O O12 0.500000 0.500000 0.500000
O O13 0.731370 0.572201 0.517149
O O14 0.576134 0.593850 0.421812
#
# Coordination Sequence:
#
# PCOD9273972 Si02
#       7
#     4   8   8   8   8   8   8
#     4  10  20  38  60  92 130 162 222 264 314 380
#     4  10  21  41  68  99 127 168 226 269 313 402
#     4  10  21  37  65  93 134 179 210 256 323 389
#     4  11  25  37  66  95 138 175 211 262 334 387
#     4  11  23  46  69  89 127 169 220 286 343 378
#     4  11  20  42  65  95 127 168 214 273 319 389
#     4  10  23  45  56  99 137 167 221 272 313 398
#
# _framework density 19.950154999999999
#
# number of rings (size 3 to 8) (size 9 to 14) (size 15 to 20)
#    0.000    1.538    4.615    2.308    6.462    2.462 
#    8.308    1.538    0.000    0.000    0.000    0.000 
#    0.000    0.000    0.000    0.000    0.000    0.000 
#
# Total GULP energy -144960.843535 kJ/mol
# GULP energy per Si atom -5575.417059 kJ/mol
# Density = 1.990475 g / cm^3
# Si number density = 19.950155 Si / 1000 Ang^3
#
#
#
# Elastic Constant Matrix: (Units=GPa)
#
#
# Indices 1 2 3 4 5 6 
#
# 1 111.3830 33.9858 44.4974 0.0000 11.6388 0.0000
# 2 33.9858 91.7681 35.1827 0.0000 7.2139 0.0000
# 3 44.4974 35.1827 88.6481 0.0000 3.6425 0.0000
# 4 0.0000 0.0000 0.0000 2.6087 0.0000 5.7939
# 5 11.6388 7.2139 3.6425 0.0000 38.5493 0.0000
# 6 0.0000 0.0000 0.0000 5.7939 0.0000 -4.5849
#
#
#
# Elastic Compliance Matrix: (Units=1/GPa)
#
#
# Indices 1 2 3 4 5 6 
#
# 1 0.011951 -0.002307 -0.004972 0.000000 -0.002707 0.000000
# 2 -0.002307 0.013443 -0.004118 0.000000 -0.001430 0.000000
# 3 -0.004972 -0.004118 0.015377 0.000000 0.000819 0.000000
# 4 0.000000 0.000000 0.000000 0.100701 0.000000 0.127254
# 5 -0.002707 -0.001430 0.000819 0.000000 0.026948 0.000000
# 6 0.000000 0.000000 0.000000 0.127254 0.000000 -0.057297
#
#
# Mechanical properties :
#
#
# Convention : Reuss Voigt Hill
#
# Bulk Modulus (GPa) = 55.62954 57.68123 56.65538
# Shear Modulus (GPa) = 35.73703 19.19017 27.46360
#
# Velocity S-wave (km/s) = 4.23699 3.10483 3.71430
# Velocity P-wave (km/s) = 7.20284 6.46751 6.84505
#
# Compressibility (1/GPa) = 0.01797606
#
# Stress axis : x y z
#
# Youngs Moduli (GPa) = 83.67389 74.38943 65.03130
#
# Poissons Ratio (x) = 0.17162 0.32334
# Poissons Ratio (y) = 0.19304 0.26782
# Poissons Ratio (z) = 0.41604 0.30636
#
# Static dielectric constant tensor:
#      x y z
#    x 1.765810 0.000000 -0.001880 
#    y 0.000000 1.716910 0.000000 
#    z -0.001880 0.000000 1.689800 
# 
# From -- ./inp_files/138462.got.cif
#   From: 2010.05.17/outbox.cif.g08.bks.cpg/sg15_70_cif.got.tgz:138462.got - 2010.06.03 18:47:42.
