data_PCOD9273756
_publ_section_title
;
Structure prediction by ZEFSAII (Michael W. Deem and Ramdas Pophale) SiO2 
 PCOD9273756
Probable space group: C 2/C
;
_chemical_formula_sum "Si O2"
_cell_formula_units_Z 60
_cell_length_a 25.449514
_cell_length_b 13.067798
_cell_length_c 9.049302
_cell_angle_alpha 90.000000
_cell_angle_beta 66.453892
_cell_angle_gamma 90.000000
_cell_volume 2758.942460
_symmetry_space_group_name_H-M "C 2/C"
_symmetry_group_IT_number 15
_symmetry_cell_setting 'monoclinic'
loop_
_space_group_symop_operation_xyz
x,y,z
-x,y,1/2-z
-x,-y,-z
x,-y,1/2+z
1/2+x,1/2+y,z
1/2-x,1/2+y,1/2-z
1/2-x,1/2-y,-z
1/2+x,1/2-y,1/2+z
loop_
_atom_site_type_symbol
_atom_site_label
_atom_site_fract_x
_atom_site_fract_y
_atom_site_fract_z
Si Si1 0.790940 0.693682 0.289228
Si Si2 0.616512 0.539829 0.081135
Si Si3 0.456815 0.411854 0.099231
Si Si4 0.262264 0.888473 0.141931
Si Si5 0.139317 0.500660 0.803244
Si Si6 0.062112 0.461083 0.637110
Si Si7 0.500000 0.761123 0.750000
Si Si8 0.309505 0.580828 0.245075
O O1 0.791365 0.814086 0.257861
O O2 0.787491 0.664749 0.467170
O O3 0.837536 0.612703 0.182405
O O4 0.730474 0.665697 0.280364
O O5 0.579840 0.460438 0.223898
O O6 0.649082 0.607416 0.166743
O O7 0.579952 0.605700 0.006813
O O8 0.656555 0.471854 0.928385
O O9 0.488615 0.312507 0.124825
O O10 0.500000 0.500000 0.000000
O O11 0.311427 0.918535 0.204806
O O12 0.232997 0.995997 0.138002
O O13 0.118558 0.500173 0.658331
O O14 0.079337 0.521051 0.950837
O O15 0.052982 0.339620 0.674693
O O16 0.000000 0.505786 0.750000
#
# Coordination Sequence:
#
# PCOD9273756 Si02
#       8
#     8   8   8   8   8   8   4   8
#     4  10  21  38  66  96 129 170 219 267 330 419
#     4  10  21  33  62  84 120 175 200 256 339 387
#     4  11  20  41  62  88 128 171 216 280 332 396
#     4  10  21  38  65  97 132 168 218 267 335 415
#     4  11  21  44  69  99 131 181 219 286 352 378
#     4  10  24  43  72  91 131 179 238 286 325 402
#     4  10  24  40  68  94 122 172 240 262 336 404
#     4  10  20  38  58  93 129 167 205 263 324 410
#
# _framework density 21.747464000000001
#
# number of rings (size 3 to 8) (size 9 to 14) (size 15 to 20)
#    0.400    1.333    4.000    0.400    0.000    3.200 
#    0.000    4.000    2.933    0.000    0.000    0.000 
#    0.000    0.000    0.000    0.000    0.000    0.000 
#
# Total GULP energy -167195.353806 kJ/mol
# GULP energy per Si atom -5573.178460 kJ/mol
# Density = 2.169797 g / cm^3
# Si number density = 21.747464 Si / 1000 Ang^3
#
#
#
# Elastic Constant Matrix: (Units=GPa)
#
#
# Indices 1 2 3 4 5 6 
#
# 1 101.1458 17.5525 29.0149 0.0000 34.0733 0.0000
# 2 17.5525 61.6275 10.0439 0.0000 4.9799 0.0000
# 3 29.0149 10.0439 68.9900 0.0000 13.9077 0.0000
# 4 0.0000 0.0000 0.0000 23.4158 0.0000 -3.0758
# 5 34.0733 4.9799 13.9077 0.0000 47.7068 0.0000
# 6 0.0000 0.0000 0.0000 -3.0758 0.0000 21.0120
#
#
#
# Elastic Compliance Matrix: (Units=1/GPa)
#
#
# Indices 1 2 3 4 5 6 
#
# 1 0.014491 -0.002772 -0.003892 0.000000 -0.008926 0.000000
# 2 -0.002772 0.017205 -0.001462 0.000000 0.000610 0.000000
# 3 -0.003892 -0.001462 0.016737 0.000000 -0.001947 0.000000
# 4 0.000000 0.000000 0.000000 0.043543 0.000000 0.006374
# 5 -0.008926 0.000610 -0.001947 0.000000 0.027841 0.000000
# 6 0.000000 0.000000 0.000000 0.006374 0.000000 0.048525
#
#
# Mechanical properties :
#
#
# Convention : Reuss Voigt Hill
#
# Bulk Modulus (GPa) = 31.07306 38.33177 34.70241
# Shear Modulus (GPa) = 25.59904 30.10371 27.85138
#
# Velocity S-wave (km/s) = 3.43462 3.72457 3.58253
# Velocity P-wave (km/s) = 5.48160 6.01338 5.75364
#
# Compressibility (1/GPa) = 0.03218222
#
# Stress axis : x y z
#
# Youngs Moduli (GPa) = 69.00844 58.12275 59.74832
#
# Poissons Ratio (x) = 0.16110 0.23251
# Poissons Ratio (y) = 0.19128 0.08735
# Poissons Ratio (z) = 0.26855 0.08498
#
# Static dielectric constant tensor:
#      x y z
#    x 1.861880 0.000000 -0.010260 
#    y 0.000000 1.788360 0.000000 
#    z -0.010260 0.000000 1.781870 
# 
# From -- ./inp_files/69339.got.cif
#   From: 2010.05.17/outbox.cif.g08.bks.cpg/sg15_35_cif.got.tgz:69339.got - 2010.06.03 18:47:42.
