data_PCOD9273222
_publ_section_title
;
Structure prediction by ZEFSAII (Michael W. Deem and Ramdas Pophale) SiO2 
 PCOD9273222
Probable space group: C 2/C
;
_chemical_formula_sum "Si O2"
_cell_formula_units_Z 44
_cell_length_a 19.781546
_cell_length_b 18.279341
_cell_length_c 8.936961
_cell_angle_alpha 90.000000
_cell_angle_beta 138.319406
_cell_angle_gamma 90.000000
_cell_volume 2148.906570
_symmetry_space_group_name_H-M "C 2/C"
_symmetry_group_IT_number 15
_symmetry_cell_setting 'monoclinic'
loop_
_space_group_symop_operation_xyz
x,y,z
-x,y,1/2-z
-x,-y,-z
x,-y,1/2+z
1/2+x,1/2+y,z
1/2-x,1/2+y,1/2-z
1/2-x,1/2-y,-z
1/2+x,1/2-y,1/2+z
loop_
_atom_site_type_symbol
_atom_site_label
_atom_site_fract_x
_atom_site_fract_y
_atom_site_fract_z
Si Si1 0.725202 0.583441 0.033157
Si Si2 0.320136 0.320280 0.774981
Si Si3 0.322186 0.022384 0.903244
Si Si4 0.637827 0.840234 0.239052
Si Si5 0.500000 0.094452 0.750000
Si Si6 0.509665 0.421927 0.088690
O O1 0.803375 0.552785 0.039241
O O2 0.626869 0.600153 0.767877
O O3 0.728490 0.653438 0.147886
O O4 0.727356 0.517969 0.162534
O O5 0.356798 0.236678 0.837371
O O6 0.234758 0.335858 0.510077
O O7 0.419760 0.367547 0.897175
O O8 0.353538 0.091010 0.855520
O O9 0.408101 0.959520 0.051531
O O10 0.540251 0.855234 0.181808
O O11 0.500000 0.429491 0.250000
O O12 0.500000 0.500000 0.000000
#
# Coordination Sequence:
#
# PCOD9273222 Si02
#       6
#     8   8   8   8   4   8
#     4  11  21  40  66  97 136 166 223 271 335 396
#     4  10  23  45  64  96 140 176 220 275 344 411
#     4  12  23  41  70 100 129 177 228 287 328 399
#     4  11  24  45  68  94 139 176 226 283 338 402
#     4  12  24  44  70  96 128 176 238 276 334 404
#     4  10  20  37  63  92 127 172 216 264 322 400
#
# _framework density 20.475529000000002
#
# number of rings (size 3 to 8) (size 9 to 14) (size 15 to 20)
#    0.000    1.091    3.636    3.818    0.000    0.727 
#   13.091    0.000    0.000    0.000    0.000    0.000 
#    0.000    0.000    0.000    0.000    0.000    0.000 
#
# Total GULP energy -122660.865610 kJ/mol
# GULP energy per Si atom -5575.493891 kJ/mol
# Density = 2.042893 g / cm^3
# Si number density = 20.475529 Si / 1000 Ang^3
#
#
#
# Elastic Constant Matrix: (Units=GPa)
#
#
# Indices 1 2 3 4 5 6 
#
# 1 95.3569 67.7233 22.2547 0.0000 -10.1310 0.0000
# 2 67.7233 120.4475 11.1659 0.0000 -9.7041 0.0000
# 3 22.2547 11.1659 29.8648 0.0000 7.3746 0.0000
# 4 0.0000 0.0000 0.0000 3.8139 0.0000 -16.7407
# 5 -10.1310 -9.7041 7.3746 0.0000 34.1033 0.0000
# 6 0.0000 0.0000 0.0000 -16.7407 0.0000 35.4191
#
#
#
# Elastic Compliance Matrix: (Units=1/GPa)
#
#
# Indices 1 2 3 4 5 6 
#
# 1 0.021904 -0.010488 -0.014020 0.000000 0.006554 0.000000
# 2 -0.010488 0.013994 0.002503 0.000000 0.000325 0.000000
# 3 -0.014020 0.002503 0.046321 0.000000 -0.013469 0.000000
# 4 0.000000 0.000000 0.000000 -0.243987 0.000000 -0.115320
# 5 0.006554 0.000325 -0.013469 0.000000 0.034275 0.000000
# 6 0.000000 0.000000 0.000000 -0.115320 0.000000 -0.026272
#
#
# Mechanical properties :
#
#
# Convention : Reuss Voigt Hill
#
# Bulk Modulus (GPa) = 26.17095 49.77300 37.97197
# Shear Modulus (GPa) = -51.53552 24.30227 -13.61663
#
# Velocity S-wave (km/s) = -5.02235 3.44887 -2.58159
# Velocity P-wave (km/s) = 4.56318 6.34200 3.11434
#
# Compressibility (1/GPa) = 0.03821031
#
# Stress axis : x y z
#
# Youngs Moduli (GPa) = 45.65394 71.46156 21.58831
#
# Poissons Ratio (x) = 0.74949 0.30266
# Poissons Ratio (y) = 0.47882 -0.05404
# Poissons Ratio (z) = 0.64005 -0.17890
#
# Static dielectric constant tensor:
#      x y z
#    x 1.903010 0.000000 0.081870 
#    y 0.000000 1.702800 0.000000 
#    z 0.081870 0.000000 1.815550 
# 
# From -- ./inp_files/56289.got.cif
#   From: 2010.05.17/outbox.cif.g08.bks.cpg/sg15_29_cif.got.tgz:56289.got - 2010.06.03 18:47:42.
