data_PCOD9273377
_publ_section_title
;
Structure prediction by ZEFSAII (Michael W. Deem and Ramdas Pophale) SiO2 
 PCOD9273377
Probable space group: C 2/C
;
_chemical_formula_sum "Si O2"
_cell_formula_units_Z 56
_cell_length_a 15.156785
_cell_length_b 17.196025
_cell_length_c 10.328357
_cell_angle_alpha 90.000000
_cell_angle_beta 112.673797
_cell_angle_gamma 90.000000
_cell_volume 2483.897866
_symmetry_space_group_name_H-M "C 2/C"
_symmetry_group_IT_number 15
_symmetry_cell_setting 'monoclinic'
loop_
_space_group_symop_operation_xyz
x,y,z
-x,y,1/2-z
-x,-y,-z
x,-y,1/2+z
1/2+x,1/2+y,z
1/2-x,1/2+y,1/2-z
1/2-x,1/2-y,-z
1/2+x,1/2-y,1/2+z
loop_
_atom_site_type_symbol
_atom_site_label
_atom_site_fract_x
_atom_site_fract_y
_atom_site_fract_z
Si Si1 0.534901 0.397040 0.552260
Si Si2 0.500000 0.892195 0.250000
Si Si3 0.112618 0.262973 0.168262
Si Si4 0.813642 0.177006 0.754544
Si Si5 0.649711 0.331758 0.949334
Si Si6 0.000000 0.127556 0.750000
Si Si7 0.814535 0.451718 0.010154
Si Si8 0.722106 0.494916 0.702241
O O1 0.561776 0.305618 0.562567
O O2 0.436850 0.394147 0.579474
O O3 0.513730 0.420271 0.391440
O O4 0.626094 0.443323 0.657845
O O5 0.551411 0.838114 0.171194
O O6 0.418514 0.939292 0.128262
O O7 0.212942 0.286448 0.161213
O O8 0.128988 0.222629 0.317689
O O9 0.904378 0.178113 0.714083
O O10 0.798146 0.085212 0.776963
O O11 0.843640 0.212301 0.910400
O O12 0.750498 0.374030 0.988096
O O13 0.760855 0.510967 0.077830
O O14 0.801223 0.472484 0.853250
#
# Coordination Sequence:
#
# PCOD9273377 Si02
#       8
#     8   4   8   8   8   4   8   8
#     4  11  23  38  69  95 136 170 220 273 340 401
#     4  12  24  42  69 101 128 174 230 288 326 382
#     4  12  21  40  69 102 126 168 226 288 325 380
#     4  10  23  39  64  92 139 172 217 272 328 401
#     4  10  20  37  65 102 123 165 217 283 335 377
#     4  10  24  42  55  97 138 182 210 262 336 416
#     4  11  25  41  67  96 137 178 224 277 334 399
#     4  11  23  43  65 101 131 181 219 273 338 401
#
# _framework density 22.545210999999998
#
# number of rings (size 3 to 8) (size 9 to 14) (size 15 to 20)
#    0.000    1.143    5.714    1.286    0.000    7.429 
#    0.000    0.000    0.000    0.857    0.000    0.000 
#    0.000    0.000    0.000    0.000    0.000    0.000 
#
# Total GULP energy -156447.808967 kJ/mol
# GULP energy per Si atom -5587.421749 kJ/mol
# Density = 2.249390 g / cm^3
# Si number density = 22.545211 Si / 1000 Ang^3
#
#
#
# Elastic Constant Matrix: (Units=GPa)
#
#
# Indices 1 2 3 4 5 6 
#
# 1 110.0870 22.4274 10.8550 0.0000 24.5825 0.0000
# 2 22.4274 41.8471 7.5211 0.0000 14.6607 0.0000
# 3 10.8550 7.5211 85.1661 0.0000 17.1567 0.0000
# 4 0.0000 0.0000 0.0000 26.6665 0.0000 9.8006
# 5 24.5825 14.6607 17.1567 0.0000 45.5895 0.0000
# 6 0.0000 0.0000 0.0000 9.8006 0.0000 28.2908
#
#
#
# Elastic Compliance Matrix: (Units=1/GPa)
#
#
# Indices 1 2 3 4 5 6 
#
# 1 0.010972 -0.004285 -0.000114 0.000000 -0.004495 0.000000
# 2 -0.004285 0.028641 -0.000642 0.000000 -0.006658 0.000000
# 3 -0.000114 -0.000642 0.012724 0.000000 -0.004520 0.000000
# 4 0.000000 0.000000 0.000000 0.042971 0.000000 -0.014886
# 5 -0.004495 -0.006658 -0.004520 0.000000 0.028201 0.000000
# 6 0.000000 0.000000 0.000000 -0.014886 0.000000 0.040504
#
#
# Mechanical properties :
#
#
# Convention : Reuss Voigt Hill
#
# Bulk Modulus (GPa) = 23.66636 35.41192 29.53914
# Shear Modulus (GPa) = 26.57035 33.19580 29.88307
#
# Velocity S-wave (km/s) = 3.43671 3.84136 3.64465
# Velocity P-wave (km/s) = 5.12523 5.95113 5.55355
#
# Compressibility (1/GPa) = 0.04225408
#
# Stress axis : x y z
#
# Youngs Moduli (GPa) = 91.14372 34.91506 78.59395
#
# Poissons Ratio (x) = 0.14960 0.00900
# Poissons Ratio (y) = 0.39053 0.05045
# Poissons Ratio (z) = 0.01043 0.02241
#
# Static dielectric constant tensor:
#      x y z
#    x 1.872290 0.000000 -0.009940 
#    y 0.000000 1.873550 0.000000 
#    z -0.009940 0.000000 1.901290 
# 
# From -- ./inp_files/98416.got.cif
#   From: 2010.05.17/outbox.cif.g08.bks.cpg/sg15_50_cif.got.tgz:98416.got - 2010.06.03 18:47:42.
