data_PCOD9273396
_publ_section_title
;
Structure prediction by ZEFSAII (Michael W. Deem and Ramdas Pophale) SiO2 
 PCOD9273396
Probable space group: C 2/C
;
_chemical_formula_sum "Si O2"
_cell_formula_units_Z 52
_cell_length_a 15.186283
_cell_length_b 14.072077
_cell_length_c 13.742331
_cell_angle_alpha 90.000000
_cell_angle_beta 58.444883
_cell_angle_gamma 90.000000
_cell_volume 2502.531720
_symmetry_space_group_name_H-M "C 2/C"
_symmetry_group_IT_number 15
_symmetry_cell_setting 'monoclinic'
loop_
_space_group_symop_operation_xyz
x,y,z
-x,y,1/2-z
-x,-y,-z
x,-y,1/2+z
1/2+x,1/2+y,z
1/2-x,1/2+y,1/2-z
1/2-x,1/2-y,-z
1/2+x,1/2-y,1/2+z
loop_
_atom_site_type_symbol
_atom_site_label
_atom_site_fract_x
_atom_site_fract_y
_atom_site_fract_z
Si Si1 0.619645 0.921516 0.708567
Si Si2 0.812050 0.194043 0.608237
Si Si3 0.609116 0.881422 0.326542
Si Si4 0.794937 0.129611 0.407620
Si Si5 0.606404 0.710849 0.747617
Si Si6 0.000000 0.751010 0.750000
Si Si7 0.778201 0.576906 0.559029
O O1 0.500000 0.915159 0.750000
O O2 0.645385 0.819218 0.738223
O O3 0.687311 0.929656 0.572061
O O4 0.622879 0.014205 0.773162
O O5 0.710479 0.173852 0.730947
O O6 0.807165 0.126618 0.517491
O O7 0.796437 0.298223 0.570513
O O8 0.901565 0.176910 0.635238
O O9 0.516172 0.821219 0.332238
O O10 0.621417 0.894203 0.434591
O O11 0.901002 0.180514 0.313585
O O12 0.767836 0.025805 0.384824
O O13 0.500000 0.707256 0.750000
O O14 0.689558 0.652389 0.636446
#
# Coordination Sequence:
#
# PCOD9273396 Si02
#       7
#     8   8   8   8   8   4   8
#     4  11  22  38  60  88 119 158 206 250 307 372
#     4   9  19  38  61  86 118 160 197 254 309 367
#     4  10  20  39  59  91 123 155 206 256 312 365
#     4  10  20  37  65  89 122 159 209 255 319 364
#     4  10  23  40  59  87 125 163 207 251 307 382
#     4  10  22  36  60  94 128 158 210 264 304 382
#     4  11  23  39  63  88 126 166 202 261 316 370
#
# _framework density 20.778957999999999
#
# number of rings (size 3 to 8) (size 9 to 14) (size 15 to 20)
#    0.000    1.846    2.308    1.385    1.077    3.077 
#    0.000    3.846    0.000    0.000    0.000    0.000 
#    0.000    0.000    0.000    0.000    0.000    0.000 
#
# Total GULP energy -144933.976845 kJ/mol
# GULP energy per Si atom -5574.383725 kJ/mol
# Density = 2.073166 g / cm^3
# Si number density = 20.778958 Si / 1000 Ang^3
#
#
#
# Elastic Constant Matrix: (Units=GPa)
#
#
# Indices 1 2 3 4 5 6 
#
# 1 94.7780 16.9138 13.7375 0.0000 9.4970 0.0000
# 2 16.9138 79.5950 -1.8884 0.0000 -12.3026 0.0000
# 3 13.7375 -1.8884 44.4219 0.0000 0.3082 0.0000
# 4 0.0000 0.0000 0.0000 18.8994 0.0000 -3.3383
# 5 9.4970 -12.3026 0.3082 0.0000 25.1052 0.0000
# 6 0.0000 0.0000 0.0000 -3.3383 0.0000 17.6266
#
#
#
# Elastic Compliance Matrix: (Units=1/GPa)
#
#
# Indices 1 2 3 4 5 6 
#
# 1 0.012444 -0.003742 -0.003962 0.000000 -0.006492 0.000000
# 2 -0.003742 0.014731 0.001724 0.000000 0.008613 0.000000
# 3 -0.003962 0.001724 0.023796 0.000000 0.002051 0.000000
# 4 0.000000 0.000000 0.000000 0.054743 0.000000 0.010368
# 5 -0.006492 0.008613 0.002051 0.000000 0.046484 0.000000
# 6 0.000000 0.000000 0.000000 0.010368 0.000000 0.058696
#
#
# Mechanical properties :
#
#
# Convention : Reuss Voigt Hill
#
# Bulk Modulus (GPa) = 25.63475 30.70231 28.16853
# Shear Modulus (GPa) = 21.19930 24.99504 23.09717
#
# Velocity S-wave (km/s) = 3.19757 3.47205 3.33763
# Velocity P-wave (km/s) = 5.09865 5.55709 5.33280
#
# Compressibility (1/GPa) = 0.03900955
#
# Stress axis : x y z
#
# Youngs Moduli (GPa) = 80.36295 67.88466 42.02430
#
# Poissons Ratio (x) = 0.25400 0.16651
# Poissons Ratio (y) = 0.30069 -0.07243
# Poissons Ratio (z) = 0.31841 -0.11701
#
# Static dielectric constant tensor:
#      x y z
#    x 1.809760 0.000000 0.038810 
#    y 0.000000 1.800690 0.000000 
#    z 0.038810 0.000000 1.751880 
# 
# From -- ./inp_files/152689.got.cif
#   From: 2010.05.17/outbox.cif.g08.bks.cpg/sg15_77_cif.got.tgz:152689.got - 2010.06.03 18:47:42.
