data_PCOD9273960
_publ_section_title
;
Structure prediction by ZEFSAII (Michael W. Deem and Ramdas Pophale) SiO2 
 PCOD9273960
Probable space group: C 2/C
;
_chemical_formula_sum "Si O2"
_cell_formula_units_Z 60
_cell_length_a 26.762413
_cell_length_b 15.731016
_cell_length_c 16.323528
_cell_angle_alpha 90.000000
_cell_angle_beta 155.708247
_cell_angle_gamma 90.000000
_cell_volume 2827.109237
_symmetry_space_group_name_H-M "C 2/C"
_symmetry_group_IT_number 15
_symmetry_cell_setting 'monoclinic'
loop_
_space_group_symop_operation_xyz
x,y,z
-x,y,1/2-z
-x,-y,-z
x,-y,1/2+z
1/2+x,1/2+y,z
1/2-x,1/2+y,1/2-z
1/2-x,1/2-y,-z
1/2+x,1/2-y,1/2+z
loop_
_atom_site_type_symbol
_atom_site_label
_atom_site_fract_x
_atom_site_fract_y
_atom_site_fract_z
Si Si1 0.199051 0.604535 0.134112
Si Si2 0.000000 0.259658 0.750000
Si Si3 0.943080 0.133111 0.396979
Si Si4 0.471419 0.182795 0.875793
Si Si5 0.057998 0.628175 0.177222
Si Si6 0.809600 0.116068 0.462273
Si Si7 0.895899 0.962539 0.244340
Si Si8 0.627745 0.968089 0.368820
O O1 0.313256 0.633552 0.249790
O O2 0.261379 0.568677 0.309419
O O3 0.118761 0.547793 0.952674
O O4 0.102209 0.670614 0.026679
O O5 0.032456 0.315142 0.718789
O O6 0.886988 0.199343 0.557346
O O7 0.949083 0.217894 0.353387
O O8 0.045678 0.116886 0.619846
O O9 0.960818 0.049533 0.367281
O O10 0.380413 0.124059 0.687028
O O11 0.475561 0.147354 0.975142
O O12 0.193132 0.642584 0.342670
O O13 0.049414 0.531433 0.195547
O O14 0.891540 0.058505 0.642985
O O15 0.757707 0.984092 0.060720
#
# Coordination Sequence:
#
# PCOD9273960 Si02
#       8
#     8   4   8   8   8   8   8   8
#     4  10  22  37  65  90 126 177 210 269 325 388
#     4  12  22  36  66  92 122 164 212 270 324 386
#     4  10  21  41  68  94 128 177 218 270 336 391
#     4  11  22  40  69  93 134 168 219 275 330 395
#     4  10  23  38  60  95 122 165 209 264 324 390
#     4  10  20  38  60  90 126 161 213 265 319 385
#     4   9  20  40  66  88 126 172 218 269 331 390
#     4  10  22  41  63  90 132 171 215 271 332 390
#
# _framework density 21.223092000000001
#
# number of rings (size 3 to 8) (size 9 to 14) (size 15 to 20)
#    0.000    1.867    0.000    3.600    1.867    5.333 
#    0.000    0.000   49.867    0.000    0.000    0.000 
#    0.000    0.000    0.000    0.000    0.000    0.000 
#
# Total GULP energy -167234.324011 kJ/mol
# GULP energy per Si atom -5574.477467 kJ/mol
# Density = 2.117479 g / cm^3
# Si number density = 21.223092 Si / 1000 Ang^3
#
#
#
# Elastic Constant Matrix: (Units=GPa)
#
#
# Indices 1 2 3 4 5 6 
#
# 1 121.9155 38.6058 25.4179 0.0000 -7.7927 0.0000
# 2 38.6058 83.8253 10.1498 0.0000 -9.7197 0.0000
# 3 25.4179 10.1498 76.9807 0.0000 -21.1761 0.0000
# 4 0.0000 0.0000 0.0000 12.8734 0.0000 -0.3959
# 5 -7.7927 -9.7197 -21.1761 0.0000 38.9399 0.0000
# 6 0.0000 0.0000 0.0000 -0.3959 0.0000 23.5024
#
#
#
# Elastic Compliance Matrix: (Units=1/GPa)
#
#
# Indices 1 2 3 4 5 6 
#
# 1 0.010172 -0.004404 -0.002964 0.000000 -0.000675 0.000000
# 2 -0.004404 0.014247 0.000366 0.000000 0.002874 0.000000
# 3 -0.002964 0.000366 0.016207 0.000000 0.008312 0.000000
# 4 0.000000 0.000000 0.000000 0.077720 0.000000 0.001309
# 5 -0.000675 0.002874 0.008312 0.000000 0.030783 0.000000
# 6 0.000000 0.000000 0.000000 0.001309 0.000000 0.042571
#
#
# Mechanical properties :
#
#
# Convention : Reuss Voigt Hill
#
# Bulk Modulus (GPa) = 37.56197 47.89651 42.72924
# Shear Modulus (GPa) = 23.30171 28.96631 26.13401
#
# Velocity S-wave (km/s) = 3.31711 3.69839 3.51293
# Velocity P-wave (km/s) = 5.69281 6.39176 6.05238
#
# Compressibility (1/GPa) = 0.02662267
#
# Stress axis : x y z
#
# Youngs Moduli (GPa) = 98.31186 70.19139 61.70163
#
# Poissons Ratio (x) = 0.30913 0.18286
# Poissons Ratio (y) = 0.43297 -0.02260
# Poissons Ratio (z) = 0.29136 -0.02571
#
# Static dielectric constant tensor:
#      x y z
#    x 1.805400 0.000000 0.028200 
#    y 0.000000 1.757980 0.000000 
#    z 0.028200 0.000000 1.870390 
# 
# From -- ./inp_files/178555.got.cif
#   From: 2010.05.17/outbox.cif.g08.bks.cpg/sg15_90_cif.got.tgz:178555.got - 2010.06.03 18:47:42.
