data_PCOD9273282
_publ_section_title
;
Structure prediction by ZEFSAII (Michael W. Deem and Ramdas Pophale) SiO2 
 PCOD9273282
Probable space group: C 2/C
;
_chemical_formula_sum "Si O2"
_cell_formula_units_Z 56
_cell_length_a 23.750921
_cell_length_b 7.864780
_cell_length_c 14.682583
_cell_angle_alpha 90.000000
_cell_angle_beta 65.441101
_cell_angle_gamma 90.000000
_cell_volume 2494.529661
_symmetry_space_group_name_H-M "C 2/C"
_symmetry_group_IT_number 15
_symmetry_cell_setting 'monoclinic'
loop_
_space_group_symop_operation_xyz
x,y,z
-x,y,1/2-z
-x,-y,-z
x,-y,1/2+z
1/2+x,1/2+y,z
1/2-x,1/2+y,1/2-z
1/2-x,1/2-y,-z
1/2+x,1/2-y,1/2+z
loop_
_atom_site_type_symbol
_atom_site_label
_atom_site_fract_x
_atom_site_fract_y
_atom_site_fract_z
Si Si1 0.735469 0.039490 0.744701
Si Si2 0.910397 0.654719 0.048672
Si Si3 0.503758 0.401877 0.901940
Si Si4 0.695331 0.693757 0.974167
Si Si5 0.612096 0.213967 0.890184
Si Si6 0.395932 0.601282 0.908351
Si Si7 0.659025 0.701273 0.742196
O O1 0.772817 0.106270 0.633176
O O2 0.680690 0.166925 0.811709
O O3 0.791013 0.047694 0.781782
O O4 0.700943 0.867807 0.736823
O O5 0.846985 0.651553 0.032805
O O6 0.921996 0.468406 0.078502
O O7 0.893294 0.782687 0.143596
O O8 0.962115 0.735024 0.950102
O O9 0.573778 0.334677 0.846694
O O10 0.465169 0.522209 0.860541
O O11 0.500000 0.500000 0.000000
O O12 0.750000 0.750000 0.000000
O O13 0.649600 0.559013 0.050132
O O14 0.611158 0.294734 0.992074
O O15 0.374155 0.699543 0.832977
#
# Coordination Sequence:
#
# PCOD9273282 Si02
#       7
#     8   8   8   8   8   8   8
#     4  10  22  36  57  92 123 163 196 249 317 366
#     4   9  20  38  61  87 120 162 198 252 312 353
#     4   9  19  40  62  86 116 162 207 245 306 364
#     4  10  22  37  56  87 126 154 196 248 302 373
#     4  10  20  37  64  88 120 163 204 249 306 364
#     4  10  22  38  63  90 120 163 207 253 303 369
#     4  10  22  38  60  91 125 159 203 256 310 370
#
# _framework density 22.449123
#
# number of rings (size 3 to 8) (size 9 to 14) (size 15 to 20)
#    0.000    2.286    0.000    1.286    8.000    2.286 
#    0.000    2.857    3.143    0.000    0.000    0.000 
#    0.000    0.000    0.000    0.000    0.000    0.000 
#
# Total GULP energy -156294.561448 kJ/mol
# GULP energy per Si atom -5581.948623 kJ/mol
# Density = 2.239803 g / cm^3
# Si number density = 22.449123 Si / 1000 Ang^3
#
#
#
# Elastic Constant Matrix: (Units=GPa)
#
#
# Indices 1 2 3 4 5 6 
#
# 1 150.7387 44.4255 49.3741 0.0000 13.3092 0.0000
# 2 44.4255 87.7662 5.4459 0.0000 1.1258 0.0000
# 3 49.3741 5.4459 56.0729 0.0000 3.5256 0.0000
# 4 0.0000 0.0000 0.0000 14.6345 0.0000 -7.5410
# 5 13.3092 1.1258 3.5256 0.0000 28.2318 0.0000
# 6 0.0000 0.0000 0.0000 -7.5410 0.0000 33.3255
#
#
#
# Elastic Compliance Matrix: (Units=1/GPa)
#
#
# Indices 1 2 3 4 5 6 
#
# 1 0.011656 -0.005258 -0.009495 0.000000 -0.004099 0.000000
# 2 -0.005258 0.013838 0.003190 0.000000 0.001529 0.000000
# 3 -0.009495 0.003190 0.025814 0.000000 0.001125 0.000000
# 4 0.000000 0.000000 0.000000 0.077351 0.000000 0.017503
# 5 -0.004099 0.001529 0.001125 0.000000 0.037152 0.000000
# 6 0.000000 0.000000 0.000000 0.017503 0.000000 0.033968
#
#
# Mechanical properties :
#
#
# Convention : Reuss Voigt Hill
#
# Bulk Modulus (GPa) = 35.48444 54.78543 45.13494
# Shear Modulus (GPa) = 21.52410 28.26050 24.89230
#
# Velocity S-wave (km/s) = 3.09980 3.55190 3.33353
# Velocity P-wave (km/s) = 5.35281 6.42484 5.91317
#
# Compressibility (1/GPa) = 0.02818136
#
# Stress axis : x y z
#
# Youngs Moduli (GPa) = 85.79604 72.26523 38.73903
#
# Poissons Ratio (x) = 0.37998 0.36781
# Poissons Ratio (y) = 0.45112 -0.12357
# Poissons Ratio (z) = 0.81461 -0.23051
#
# Static dielectric constant tensor:
#      x y z
#    x 1.903110 0.000000 0.009590 
#    y 0.000000 1.890030 0.000000 
#    z 0.009590 0.000000 1.833530 
# 
# From -- ./inp_files/172259.got.cif
#   From: 2010.05.17/outbox.cif.g08.bks.cpg/sg15_87_cif.got.tgz:172259.got - 2010.06.03 18:47:42.
