data_PCOD9273590
_publ_section_title
;
Structure prediction by ZEFSAII (Michael W. Deem and Ramdas Pophale) SiO2 
 PCOD9273590
Probable space group: C 2/C
;
_chemical_formula_sum "Si O2"
_cell_formula_units_Z 44
_cell_length_a 5.255903
_cell_length_b 25.639536
_cell_length_c 14.579603
_cell_angle_alpha 90.000000
_cell_angle_beta 70.064779
_cell_angle_gamma 90.000000
_cell_volume 1847.002226
_symmetry_space_group_name_H-M "C 2/C"
_symmetry_group_IT_number 15
_symmetry_cell_setting 'monoclinic'
loop_
_space_group_symop_operation_xyz
x,y,z
-x,y,1/2-z
-x,-y,-z
x,-y,1/2+z
1/2+x,1/2+y,z
1/2-x,1/2+y,1/2-z
1/2-x,1/2-y,-z
1/2+x,1/2-y,1/2+z
loop_
_atom_site_type_symbol
_atom_site_label
_atom_site_fract_x
_atom_site_fract_y
_atom_site_fract_z
Si Si1 0.273958 0.812538 0.519061
Si Si2 0.283566 0.207077 0.414842
Si Si3 0.372291 0.985606 0.864082
Si Si4 0.315470 0.451859 0.421074
Si Si5 0.259023 0.135281 0.841453
Si Si6 0.000000 0.778157 0.250000
O O1 0.250000 0.750000 0.500000
O O2 0.437949 0.819298 0.591347
O O3 0.390148 0.845674 0.420935
O O4 0.966095 0.830886 0.559406
O O5 0.250000 0.250000 0.500000
O O6 0.288341 0.240324 0.323288
O O7 0.500000 0.968152 0.750000
O O8 0.581393 0.029605 0.879335
O O9 0.064816 0.006344 0.886519
O O10 0.326248 0.949957 0.960928
O O11 0.494455 0.400681 0.379540
O O12 0.500000 0.113379 0.750000
O O13 0.147070 0.187308 0.806972
#
# Coordination Sequence:
#
# PCOD9273590 Si02
#       6
#     8   8   8   8   8   4
#     4  10  20  39  55  78 127 164 205 254 325 378
#     4  10  20  38  54  81 115 166 209 252 313 396
#     4  10  21  43  66  91 132 179 207 249 328 414
#     4  10  24  39  63 102 130 162 215 269 322 394
#     4  12  25  36  62  98 133 163 216 290 342 374
#     4  12  24  34  64  90 124 168 220 280 348 368
#
# _framework density 23.822386999999999
#
# number of rings (size 3 to 8) (size 9 to 14) (size 15 to 20)
#    0.000    1.455    3.636    3.273    5.091    0.000 
#    0.000    0.000    2.000    0.000    9.455    0.000 
#    0.000    0.000    0.000    0.000    0.000    0.000 
#
# Total GULP energy -122770.118184 kJ/mol
# GULP energy per Si atom -5580.459917 kJ/mol
# Density = 2.376817 g / cm^3
# Si number density = 23.822387 Si / 1000 Ang^3
#
#
#
# Elastic Constant Matrix: (Units=GPa)
#
#
# Indices 1 2 3 4 5 6 
#
# 1 123.9330 18.7528 10.7989 0.0000 -11.6728 0.0000
# 2 18.7528 48.1649 39.7749 0.0000 -5.0080 0.0000
# 3 10.7989 39.7749 152.2944 0.0000 -19.5906 0.0000
# 4 0.0000 0.0000 0.0000 33.0494 0.0000 -0.3921
# 5 -11.6728 -5.0080 -19.5906 0.0000 32.1324 0.0000
# 6 0.0000 0.0000 0.0000 -0.3921 0.0000 24.4657
#
#
#
# Elastic Compliance Matrix: (Units=1/GPa)
#
#
# Indices 1 2 3 4 5 6 
#
# 1 0.008862 -0.003746 0.000748 0.000000 0.003091 0.000000
# 2 -0.003746 0.028055 -0.007242 0.000000 -0.001404 0.000000
# 3 0.000748 -0.007242 0.009000 0.000000 0.004630 0.000000
# 4 0.000000 0.000000 0.000000 0.030263 0.000000 0.000485
# 5 0.003091 -0.001404 0.004630 0.000000 0.034848 0.000000
# 6 0.000000 0.000000 0.000000 0.000485 0.000000 0.040881
#
#
# Mechanical properties :
#
#
# Convention : Reuss Voigt Hill
#
# Bulk Modulus (GPa) = 39.31477 51.44950 45.38214
# Shear Modulus (GPa) = 27.64406 34.93388 31.28897
#
# Velocity S-wave (km/s) = 3.41019 3.83355 3.62806
# Velocity P-wave (km/s) = 5.66083 6.42175 6.05326
#
# Compressibility (1/GPa) = 0.02543573
#
# Stress axis : x y z
#
# Youngs Moduli (GPa) = 112.84458 35.64386 111.10779
#
# Poissons Ratio (x) = 0.13353 -0.08308
# Poissons Ratio (y) = 0.42275 0.80466
# Poissons Ratio (z) = -0.08437 0.25814
#
# Static dielectric constant tensor:
#      x y z
#    x 1.604700 0.000000 -0.260010 
#    y 0.000000 1.912670 0.000000 
#    z -0.260010 0.000000 1.814210 
# 
# From -- ./inp_files/129956.got.cif
#   From: 2010.05.17/outbox.cif.g08.bks.cpg/sg15_65_cif.got.tgz:129956.got - 2010.06.03 18:47:42.
