data_PCOD9273648
_publ_section_title
;
Structure prediction by ZEFSAII (Michael W. Deem and Ramdas Pophale) SiO2 
 PCOD9273648
Probable space group: C 2/C
;
_chemical_formula_sum "Si O2"
_cell_formula_units_Z 48
_cell_length_a 21.730637
_cell_length_b 10.028504
_cell_length_c 24.637239
_cell_angle_alpha 90.000000
_cell_angle_beta 156.244249
_cell_angle_gamma 90.000000
_cell_volume 2162.876300
_symmetry_space_group_name_H-M "C 2/C"
_symmetry_group_IT_number 15
_symmetry_cell_setting 'monoclinic'
loop_
_space_group_symop_operation_xyz
x,y,z
-x,y,1/2-z
-x,-y,-z
x,-y,1/2+z
1/2+x,1/2+y,z
1/2-x,1/2+y,1/2-z
1/2-x,1/2-y,-z
1/2+x,1/2-y,1/2+z
loop_
_atom_site_type_symbol
_atom_site_label
_atom_site_fract_x
_atom_site_fract_y
_atom_site_fract_z
Si Si1 0.391550 0.422044 0.209287
Si Si2 0.082690 0.622929 0.494237
Si Si3 0.598397 0.697302 0.495056
Si Si4 0.032386 0.099457 0.604772
Si Si5 0.058541 0.237629 0.240228
Si Si6 0.137225 0.578820 0.657983
O O1 0.500000 0.367126 0.250000
O O2 0.434531 0.372125 0.304377
O O3 0.409440 0.581133 0.225235
O O4 0.212943 0.396368 0.055361
O O5 0.137050 0.547765 0.593078
O O6 0.071681 0.778406 0.497011
O O7 0.922412 0.548147 0.356061
O O8 0.536682 0.547872 0.453941
O O9 0.779886 0.706141 0.651229
O O10 0.571439 0.740643 0.410391
O O11 0.482547 0.801215 0.430135
O O12 0.185106 0.110179 0.691592
O O13 0.000000 0.296090 0.250000
#
# Coordination Sequence:
#
# PCOD9273648 Si02
#       6
#     8   8   8   8   8   8
#     4   9  19  38  59  79 113 160 195 234 299 360
#     4  10  20  38  57  81 113 153 197 232 293 359
#     4  11  22  39  62  90 118 155 200 246 297 348
#     4  10  22  36  57  87 118 148 193 256 290 343
#     4  10  21  40  63  88 118 158 202 244 293 355
#     4  10  21  37  60  80 117 159 193 232 298 362
#
# _framework density 22.19267
#
# number of rings (size 3 to 8) (size 9 to 14) (size 15 to 20)
#    0.000    2.000    1.667    1.500    4.667    1.333 
#    6.000    0.833    0.000    0.000    0.000    0.000 
#    0.000    0.000    0.000    0.000    0.000    0.000 
#
# Total GULP energy -133893.916172 kJ/mol
# GULP energy per Si atom -5578.913174 kJ/mol
# Density = 2.214216 g / cm^3
# Si number density = 22.192670 Si / 1000 Ang^3
#
#
#
# Elastic Constant Matrix: (Units=GPa)
#
#
# Indices 1 2 3 4 5 6 
#
# 1 110.0753 18.8728 24.7099 0.0001 32.9010 0.0000
# 2 18.8728 57.6454 -6.4418 -0.0044 -0.3994 -0.0012
# 3 24.7099 -6.4418 51.9681 -0.0053 17.4368 -0.0015
# 4 0.0001 -0.0044 -0.0053 19.5333 -0.0017 2.7379
# 5 32.9010 -0.3994 17.4368 -0.0017 31.9387 -0.0004
# 6 0.0000 -0.0012 -0.0015 2.7379 -0.0004 17.1273
#
#
#
# Elastic Compliance Matrix: (Units=1/GPa)
#
#
# Indices 1 2 3 4 5 6 
#
# 1 0.014735 -0.005266 -0.003114 -0.000003 -0.013545 0.000000
# 2 -0.005266 0.019510 0.003698 0.000006 0.003650 0.000001
# 3 -0.003114 0.003698 0.024595 0.000006 -0.010173 0.000001
# 4 -0.000003 0.000006 0.000006 0.052368 0.000003 -0.008371
# 5 -0.013545 0.003650 -0.010173 0.000003 0.050862 0.000000
# 6 0.000000 0.000001 0.000001 -0.008371 0.000000 0.059724
#
#
# Mechanical properties :
#
#
# Convention : Reuss Voigt Hill
#
# Bulk Modulus (GPa) = 20.21241 32.66339 26.43790
# Shear Modulus (GPa) = 20.18958 25.88971 23.03965
#
# Velocity S-wave (km/s) = 3.01946 3.41924 3.22555
# Velocity P-wave (km/s) = 4.61342 5.50802 5.08045
#
# Compressibility (1/GPa) = 0.04947455
#
# Stress axis : x y z
#
# Youngs Moduli (GPa) = 67.86496 51.25566 40.65838
#
# Poissons Ratio (x) = 0.26992 0.12663
# Poissons Ratio (y) = 0.35738 -0.15034
# Poissons Ratio (z) = 0.21136 -0.18952
#
# Static dielectric constant tensor:
#      x y z
#    x 1.901280 0.000000 -0.058230 
#    y 0.000000 1.787730 0.000000 
#    z -0.058230 0.000000 1.983060 
# 
# From -- ./inp_files/116801.got.cif
#   From: 2010.05.17/outbox.cif.g08.bks.cpg/sg15_59_cif.got.tgz:116801.got - 2010.06.03 18:47:42.
