data_PCOD9273000
_publ_section_title
;
Structure prediction by ZEFSAII (Michael W. Deem and Ramdas Pophale) SiO2 
 PCOD9273000
Probable space group: C 2/C
;
_chemical_formula_sum "Si O2"
_cell_formula_units_Z 48
_cell_length_a 25.804194
_cell_length_b 7.260634
_cell_length_c 19.937518
_cell_angle_alpha 90.000000
_cell_angle_beta 143.909013
_cell_angle_gamma 90.000000
_cell_volume 2200.403297
_symmetry_space_group_name_H-M "C 2/C"
_symmetry_group_IT_number 15
_symmetry_cell_setting 'monoclinic'
loop_
_space_group_symop_operation_xyz
x,y,z
-x,y,1/2-z
-x,-y,-z
x,-y,1/2+z
1/2+x,1/2+y,z
1/2-x,1/2+y,1/2-z
1/2-x,1/2-y,-z
1/2+x,1/2-y,1/2+z
loop_
_atom_site_type_symbol
_atom_site_label
_atom_site_fract_x
_atom_site_fract_y
_atom_site_fract_z
Si Si1 0.821889 0.966933 0.031334
Si Si2 0.994334 0.447686 0.916716
Si Si3 0.562038 0.781887 0.377358
Si Si4 0.673104 0.215002 0.628550
Si Si5 0.802468 0.486255 0.212077
Si Si6 0.723031 0.047829 0.553300
O O1 0.813300 0.749256 0.007810
O O2 0.907478 0.069775 0.092899
O O3 0.739359 0.055289 0.903732
O O4 0.807803 0.990247 0.096244
O O5 0.892951 0.400063 0.795960
O O6 0.018607 0.626124 0.897319
O O7 0.000000 0.500000 0.000000
O O8 0.073639 0.300463 0.995402
O O9 0.500000 0.817224 0.250000
O O10 0.651195 0.896515 0.461340
O O11 0.724825 0.399592 0.666648
O O12 0.725882 0.066513 0.636830
O O13 0.675073 0.168086 0.709345
#
# Coordination Sequence:
#
# PCOD9273000 Si02
#       6
#     8   8   8   8   8   8
#     4  10  21  37  62  90 121 161 217 259 322 389
#     4   9  20  38  58  83 128 165 204 263 327 372
#     4  11  22  37  61  91 123 167 210 264 318 380
#     4   9  20  36  60  87 119 169 211 257 325 381
#     4  10  20  37  62  85 121 172 206 268 323 375
#     4   9  20  39  57  84 124 159 202 267 320 372
#
# _framework density 21.814181999999999
#
# number of rings (size 3 to 8) (size 9 to 14) (size 15 to 20)
#    0.000    2.333    0.000    1.500    7.000    0.667 
#    3.000    9.167    0.000    0.000    0.000    0.000 
#    0.000    0.000    0.000    0.000    0.000    0.000 
#
# Total GULP energy -133646.526213 kJ/mol
# GULP energy per Si atom -5568.605259 kJ/mol
# Density = 2.176453 g / cm^3
# Si number density = 21.814182 Si / 1000 Ang^3
#
#
#
# Elastic Constant Matrix: (Units=GPa)
#
#
# Indices 1 2 3 4 5 6 
#
# 1 96.1809 9.6151 7.1822 0.0000 -4.3101 0.0000
# 2 9.6151 63.1849 4.7206 0.0000 3.3983 0.0000
# 3 7.1822 4.7206 43.5816 0.0000 -2.2950 0.0000
# 4 0.0000 0.0000 0.0000 19.9341 0.0000 4.4104
# 5 -4.3101 3.3983 -2.2950 0.0000 33.5444 0.0000
# 6 0.0000 0.0000 0.0000 4.4104 0.0000 23.5906
#
#
#
# Elastic Compliance Matrix: (Units=1/GPa)
#
#
# Indices 1 2 3 4 5 6 
#
# 1 0.010735 -0.001597 -0.001520 0.000000 0.001437 0.000000
# 2 -0.001597 0.016295 -0.001605 0.000000 -0.001966 0.000000
# 3 -0.001520 -0.001605 0.023453 0.000000 0.001572 0.000000
# 4 0.000000 0.000000 0.000000 0.052330 0.000000 -0.009783
# 5 0.001437 -0.001966 0.001572 0.000000 0.030303 0.000000
# 6 0.000000 0.000000 0.000000 -0.009783 0.000000 0.044219
#
#
# Mechanical properties :
#
#
# Convention : Reuss Voigt Hill
#
# Bulk Modulus (GPa) = 24.36843 27.33148 25.84995
# Shear Modulus (GPa) = 24.94280 27.50913 26.22596
#
# Velocity S-wave (km/s) = 3.38512 3.55500 3.47110
# Velocity P-wave (km/s) = 5.14528 5.42284 5.28588
#
# Compressibility (1/GPa) = 0.04103670
#
# Stress axis : x y z
#
# Youngs Moduli (GPa) = 93.15602 61.36739 42.63903
#
# Poissons Ratio (x) = 0.09802 0.06483
# Poissons Ratio (y) = 0.14879 0.06845
# Poissons Ratio (z) = 0.14163 0.09852
#
# Static dielectric constant tensor:
#      x y z
#    x 1.850800 0.000000 0.001630 
#    y 0.000000 1.842820 0.000000 
#    z 0.001630 0.000000 1.791320 
# 
# From -- ./inp_files/257232.got.cif
#   From: 2010.05.17/outbox.cif.g08.bks.cpg/sg15_129_cif.got.tgz:257232.got - 2010.06.03 18:47:42.
