data_PCOD9273693
_publ_section_title
;
Structure prediction by ZEFSAII (Michael W. Deem and Ramdas Pophale) SiO2 
 PCOD9273693
Probable space group: C 2/C
;
_chemical_formula_sum "Si O2"
_cell_formula_units_Z 64
_cell_length_a 24.073057
_cell_length_b 21.919202
_cell_length_c 11.462581
_cell_angle_alpha 90.000000
_cell_angle_beta 151.771037
_cell_angle_gamma 90.000000
_cell_volume 2860.856375
_symmetry_space_group_name_H-M "C 2/C"
_symmetry_group_IT_number 15
_symmetry_cell_setting 'monoclinic'
loop_
_space_group_symop_operation_xyz
x,y,z
-x,y,1/2-z
-x,-y,-z
x,-y,1/2+z
1/2+x,1/2+y,z
1/2-x,1/2+y,1/2-z
1/2-x,1/2-y,-z
1/2+x,1/2-y,1/2+z
loop_
_atom_site_type_symbol
_atom_site_label
_atom_site_fract_x
_atom_site_fract_y
_atom_site_fract_z
Si Si1 0.632245 0.949406 0.949038
Si Si2 0.108513 0.585729 0.856635
Si Si3 0.015371 0.873939 0.972716
Si Si4 0.905750 0.049885 0.670990
Si Si5 0.243527 0.651815 0.281907
Si Si6 0.878074 0.235050 0.679159
Si Si7 0.839553 0.912135 0.487529
Si Si8 0.943981 0.642922 0.376364
O O1 0.500000 0.951049 0.750000
O O2 0.633041 0.903401 0.842464
O O3 0.662738 0.017705 0.961542
O O4 0.711116 0.924414 0.199894
O O5 0.000000 0.583668 0.750000
O O6 0.053815 0.606676 0.633126
O O7 0.201893 0.634544 0.076801
O O8 0.043851 0.930142 0.111550
O O9 0.057424 0.814967 0.121402
O O10 0.094307 0.885733 0.004188
O O11 0.882855 0.871994 0.677100
O O12 0.791985 0.089394 0.428780
O O13 0.000000 0.070332 0.750000
O O14 0.883197 0.979134 0.607895
O O15 0.340686 0.702845 0.488498
O O16 0.127085 0.665967 0.141295
O O17 0.750000 0.250000 0.500000
O O18 0.954530 0.296338 0.818469
#
# Coordination Sequence:
#
# PCOD9273693 Si02
#       8
#     8   8   8   8   8   8   8   8
#     4  11  22  38  56  87 118 156 195 237 302 356
#     4   9  18  34  54  83 111 141 189 238 286 343
#     4  10  22  39  58  90 119 153 201 246 297 362
#     4  11  20  35  56  87 121 153 189 237 308 358
#     4   9  18  36  57  82 115 149 190 232 294 351
#     4   9  18  36  60  84 115 151 198 241 293 345
#     4  11  21  37  59  85 121 156 197 246 298 354
#     4  10  20  38  58  83 113 152 196 246 286 344
#
# _framework density 22.370923000000001
#
# number of rings (size 3 to 8) (size 9 to 14) (size 15 to 20)
#    0.000    2.000    2.500    3.000    0.000    0.000 
#   18.000    2.500    0.000    0.750    0.000    0.000 
#    0.000    0.000    0.000    0.000    0.000    0.000 
#
# Total GULP energy -178521.806137 kJ/mol
# GULP energy per Si atom -5578.806442 kJ/mol
# Density = 2.232001 g / cm^3
# Si number density = 22.370923 Si / 1000 Ang^3
#
#
#
# Elastic Constant Matrix: (Units=GPa)
#
#
# Indices 1 2 3 4 5 6 
#
# 1 40.8679 4.7663 16.4868 0.0000 -9.2242 0.0000
# 2 4.7663 102.5604 47.5447 0.0000 -16.1221 0.0000
# 3 16.4868 47.5447 191.1594 0.0000 -31.5389 0.0000
# 4 0.0000 0.0000 0.0000 24.5254 0.0000 -3.6132
# 5 -9.2242 -16.1221 -31.5389 0.0000 23.7099 0.0000
# 6 0.0000 0.0000 0.0000 -3.6132 0.0000 16.6672
#
#
#
# Elastic Compliance Matrix: (Units=1/GPa)
#
#
# Indices 1 2 3 4 5 6 
#
# 1 0.026953 0.000695 -0.000883 0.000000 0.009783 0.000000
# 2 0.000695 0.011508 -0.002033 0.000000 0.005392 0.000000
# 3 -0.000883 -0.002033 0.007083 0.000000 0.007696 0.000000
# 4 0.000000 0.000000 0.000000 0.042119 0.000000 0.009131
# 5 0.009783 0.005392 0.007696 0.000000 0.059886 0.000000
# 6 0.000000 0.000000 0.000000 0.009131 0.000000 0.061978
#
#
# Mechanical properties :
#
#
# Convention : Reuss Voigt Hill
#
# Bulk Modulus (GPa) = 24.33030 52.46480 38.39755
# Shear Modulus (GPa) = 21.96181 30.69982 26.33082
#
# Velocity S-wave (km/s) = 3.13663 3.70849 3.43448
# Velocity P-wave (km/s) = 4.90075 6.46841 5.73837
#
# Compressibility (1/GPa) = 0.04110101
#
# Stress axis : x y z
#
# Youngs Moduli (GPa) = 37.10222 86.89704 141.19069
#
# Poissons Ratio (x) = -0.06038 0.12470
# Poissons Ratio (y) = -0.02578 0.28698
# Poissons Ratio (z) = 0.03277 0.17663
#
# Static dielectric constant tensor:
#      x y z
#    x 1.471670 0.000000 -0.195270 
#    y 0.000000 1.832250 0.000000 
#    z -0.195270 0.000000 1.722440 
# 
# From -- ./inp_files/124456.got.cif
#   From: 2010.05.17/outbox.cif.g08.bks.cpg/sg15_63_cif.got.tgz:124456.got - 2010.06.03 18:47:42.
