data_PCOD9273272
_publ_section_title
;
Structure prediction by ZEFSAII (Michael W. Deem and Ramdas Pophale) SiO2 
 PCOD9273272
Probable space group: C 2/C
;
_chemical_formula_sum "Si O2"
_cell_formula_units_Z 48
_cell_length_a 29.875437
_cell_length_b 17.283837
_cell_length_c 9.423343
_cell_angle_alpha 90.000000
_cell_angle_beta 33.949182
_cell_angle_gamma 90.000000
_cell_volume 2717.374271
_symmetry_space_group_name_H-M "C 2/C"
_symmetry_group_IT_number 15
_symmetry_cell_setting 'monoclinic'
loop_
_space_group_symop_operation_xyz
x,y,z
-x,y,1/2-z
-x,-y,-z
x,-y,1/2+z
1/2+x,1/2+y,z
1/2-x,1/2+y,1/2-z
1/2-x,1/2-y,-z
1/2+x,1/2-y,1/2+z
loop_
_atom_site_type_symbol
_atom_site_label
_atom_site_fract_x
_atom_site_fract_y
_atom_site_fract_z
Si Si1 0.223773 0.290201 0.215825
Si Si2 0.193397 0.094910 0.801497
Si Si3 0.592482 0.085173 0.981378
Si Si4 0.942099 0.029549 0.775450
Si Si5 0.170760 0.529096 0.492427
Si Si6 0.194199 0.142422 0.480855
O O1 0.290352 0.347241 0.109971
O O2 0.147671 0.343434 0.382594
O O3 0.201886 0.225726 0.389302
O O4 0.250000 0.250000 0.000000
O O5 0.268434 0.035169 0.602249
O O6 0.190019 0.140051 0.661977
O O7 0.115134 0.041649 0.026534
O O8 0.500000 0.101580 0.250000
O O9 0.618984 0.013216 0.009502
O O10 0.615720 0.064165 0.759633
O O11 0.000000 0.055212 0.750000
O O12 0.882822 0.096479 0.877222
O O13 0.000000 0.000000 0.500000
O O14 0.228227 0.593525 0.273052
#
# Coordination Sequence:
#
# PCOD9273272 Si02
#       6
#     8   8   8   8   8   8
#     4  11  24  39  61  86 121 163 199 243 298 369
#     4  10  22  39  63  86 118 164 203 240 302 362
#     4  11  22  39  60  89 117 149 195 249 306 344
#     4  11  23  38  62  95 122 154 205 258 304 353
#     4  10  20  37  64  86 112 152 202 247 286 355
#     4  11  21  39  62  84 121 162 200 242 297 364
#
# _framework density 17.664111999999999
#
# number of rings (size 3 to 8) (size 9 to 14) (size 15 to 20)
#    0.000    1.333    5.000    1.000    2.333    0.667 
#    0.000    0.000    0.000    0.000    0.000    0.000 
#    0.000    0.000    0.000    0.000    0.000    0.000 
#
# Total GULP energy -134040.765219 kJ/mol
# GULP energy per Si atom -5585.031884 kJ/mol
# Density = 1.762391 g / cm^3
# Si number density = 17.664112 Si / 1000 Ang^3
#
#
#
# Elastic Constant Matrix: (Units=GPa)
#
#
# Indices 1 2 3 4 5 6 
#
# 1 88.0775 15.6243 37.6051 0.0000 -2.4280 0.0000
# 2 15.6243 68.8683 14.6097 0.0000 -3.7089 0.0000
# 3 37.6051 14.6097 85.9447 0.0000 -2.6768 0.0000
# 4 0.0000 0.0000 0.0000 23.9528 0.0000 11.0828
# 5 -2.4280 -3.7089 -2.6768 0.0000 30.5060 0.0000
# 6 0.0000 0.0000 0.0000 11.0828 0.0000 25.9710
#
#
#
# Elastic Compliance Matrix: (Units=1/GPa)
#
#
# Indices 1 2 3 4 5 6 
#
# 1 0.014221 -0.001959 -0.005878 0.000000 0.000378 0.000000
# 2 -0.001959 0.015413 -0.001714 0.000000 0.001568 0.000000
# 3 -0.005878 -0.001714 0.014517 0.000000 0.000598 0.000000
# 4 0.000000 0.000000 0.000000 0.052020 0.000000 -0.022199
# 5 0.000378 0.001568 0.000598 0.000000 0.033053 0.000000
# 6 0.000000 0.000000 0.000000 -0.022199 0.000000 0.047978
#
#
# Mechanical properties :
#
#
# Convention : Reuss Voigt Hill
#
# Bulk Modulus (GPa) = 39.92075 42.06320 40.99198
# Shear Modulus (GPa) = 24.43151 27.75607 26.09379
#
# Velocity S-wave (km/s) = 3.72306 3.96830 3.84763
# Velocity P-wave (km/s) = 6.41331 6.69783 6.55712
#
# Compressibility (1/GPa) = 0.02504963
#
# Stress axis : x y z
#
# Youngs Moduli (GPa) = 70.31822 64.88047 68.88421
#
# Poissons Ratio (x) = 0.12711 0.40488
# Poissons Ratio (y) = 0.13776 0.11807
# Poissons Ratio (z) = 0.41330 0.11121
#
# Static dielectric constant tensor:
#      x y z
#    x 1.622430 0.000000 0.017110 
#    y 0.000000 1.584230 0.000000 
#    z 0.017110 0.000000 1.567030 
# 
# From -- ./inp_files/48083.got.cif
#   From: 2010.05.17/outbox.cif.g08.bks.cpg/sg15_25_cif.got.tgz:48083.got - 2010.06.03 18:47:42.
