data_PCOD9273997
_publ_section_title
;
Structure prediction by ZEFSAII (Michael W. Deem and Ramdas Pophale) SiO2 
 PCOD9273997
Probable space group: C 2/C
;
_chemical_formula_sum "Si O2"
_cell_formula_units_Z 44
_cell_length_a 6.072373
_cell_length_b 16.221754
_cell_length_c 23.295132
_cell_angle_alpha 90.000000
_cell_angle_beta 117.932595
_cell_angle_gamma 90.000000
_cell_volume 2027.344861
_symmetry_space_group_name_H-M "C 2/C"
_symmetry_group_IT_number 15
_symmetry_cell_setting 'monoclinic'
loop_
_space_group_symop_operation_xyz
x,y,z
-x,y,1/2-z
-x,-y,-z
x,-y,1/2+z
1/2+x,1/2+y,z
1/2-x,1/2+y,1/2-z
1/2-x,1/2-y,-z
1/2+x,1/2-y,1/2+z
loop_
_atom_site_type_symbol
_atom_site_label
_atom_site_fract_x
_atom_site_fract_y
_atom_site_fract_z
Si Si1 0.493444 0.077366 0.652678
Si Si2 0.256990 0.315991 0.554057
Si Si3 0.000000 0.157486 0.750000
Si Si4 0.944524 0.028637 0.427936
Si Si5 0.682290 0.111585 0.554935
Si Si6 0.128471 0.786258 0.144699
O O1 0.508543 0.109815 0.589395
O O2 0.315533 0.136779 0.666488
O O3 0.769789 0.095685 0.708814
O O4 0.333423 0.993766 0.627311
O O5 0.250000 0.250000 0.500000
O O6 0.487332 0.376772 0.571778
O O7 0.255800 0.279070 0.617970
O O8 0.007654 0.372624 0.519303
O O9 0.054075 0.217023 0.702247
O O10 0.000000 0.000000 0.500000
O O11 0.149344 0.970235 0.421674
O O12 0.877049 0.185934 0.581521
#
# Coordination Sequence:
#
# PCOD9273997 Si02
#       6
#     8   8   4   8   8   8
#     4  10  20  40  63  95 122 178 226 280 322 400
#     4  12  21  37  62 104 144 167 205 272 358 405
#     4  10  22  40  66  94 120 174 252 278 324 402
#     4  11  22  37  61 100 144 171 213 269 345 423
#     4  10  20  38  60  95 136 173 209 262 341 408
#     4  10  21  37  63  99 123 174 221 282 327 400
#
# _framework density 21.703263
#
# number of rings (size 3 to 8) (size 9 to 14) (size 15 to 20)
#    0.000    1.455    3.636    2.727    0.000    0.000 
#    0.000    0.000    0.000    0.000   80.364    0.000 
#    0.000    0.000    0.000    0.000    0.000    0.000 
#
# Total GULP energy -122622.467325 kJ/mol
# GULP energy per Si atom -5573.748515 kJ/mol
# Density = 2.165387 g / cm^3
# Si number density = 21.703263 Si / 1000 Ang^3
#
#
#
# Elastic Constant Matrix: (Units=GPa)
#
#
# Indices 1 2 3 4 5 6 
#
# 1 94.6483 39.0281 48.0834 0.0000 -10.7527 0.0000
# 2 39.0281 86.1016 43.1332 0.0000 1.9127 0.0000
# 3 48.0834 43.1332 107.0623 0.0000 2.5186 0.0000
# 4 0.0000 0.0000 0.0000 11.4769 0.0000 0.6549
# 5 -10.7527 1.9127 2.5186 0.0000 43.3610 0.0000
# 6 0.0000 0.0000 0.0000 0.6549 0.0000 39.5673
#
#
#
# Elastic Compliance Matrix: (Units=1/GPa)
#
#
# Indices 1 2 3 4 5 6 
#
# 1 0.015619 -0.004524 -0.005295 0.000000 0.004380 0.000000
# 2 -0.004524 0.015866 -0.004323 0.000000 -0.001571 0.000000
# 3 -0.005295 -0.004323 0.013505 0.000000 -0.001907 0.000000
# 4 0.000000 0.000000 0.000000 0.087214 0.000000 -0.001444
# 5 0.004380 -0.001571 -0.001907 0.000000 0.024328 0.000000
# 6 0.000000 0.000000 0.000000 -0.001444 0.000000 0.025297
#
#
# Mechanical properties :
#
#
# Convention : Reuss Voigt Hill
#
# Bulk Modulus (GPa) = 59.86387 60.92242 60.39314
# Shear Modulus (GPa) = 23.18240 29.38556 26.28398
#
# Velocity S-wave (km/s) = 3.27181 3.68362 3.48381
# Velocity P-wave (km/s) = 6.47424 6.79880 6.63850
#
# Compressibility (1/GPa) = 0.01670457
#
# Stress axis : x y z
#
# Youngs Moduli (GPa) = 64.02638 63.02980 74.04759
#
# Poissons Ratio (x) = 0.28517 0.39207
# Poissons Ratio (y) = 0.28968 0.32010
# Poissons Ratio (z) = 0.33901 0.27248
#
# Static dielectric constant tensor:
#      x y z
#    x 1.905550 0.000000 -0.038430 
#    y 0.000000 1.865590 0.000000 
#    z -0.038430 0.000000 1.842410 
# 
# From -- ./inp_files/260932.got.cif
#   From: 2010.05.17/outbox.cif.g08.bks.cpg/sg15_131_cif.got.tgz:260932.got - 2010.06.03 18:47:42.
