data_PCOD9273614
_publ_section_title
;
Structure prediction by ZEFSAII (Michael W. Deem and Ramdas Pophale) SiO2 
 PCOD9273614
Probable space group: C 2/C
;
_chemical_formula_sum "Si O2"
_cell_formula_units_Z 64
_cell_length_a 17.386959
_cell_length_b 23.223548
_cell_length_c 17.932864
_cell_angle_alpha 90.000000
_cell_angle_beta 31.530931
_cell_angle_gamma 90.000000
_cell_volume 3786.773399
_symmetry_space_group_name_H-M "C 2/C"
_symmetry_group_IT_number 15
_symmetry_cell_setting 'monoclinic'
loop_
_space_group_symop_operation_xyz
x,y,z
-x,y,1/2-z
-x,-y,-z
x,-y,1/2+z
1/2+x,1/2+y,z
1/2-x,1/2+y,1/2-z
1/2-x,1/2-y,-z
1/2+x,1/2-y,1/2+z
loop_
_atom_site_type_symbol
_atom_site_label
_atom_site_fract_x
_atom_site_fract_y
_atom_site_fract_z
Si Si1 0.519354 0.179612 0.096854
Si Si2 0.634462 0.614254 0.483718
Si Si3 0.993471 0.452506 0.336870
Si Si4 0.778800 0.522841 0.260820
Si Si5 0.480595 0.103061 0.999844
Si Si6 0.766879 0.262103 0.896611
Si Si7 0.185223 0.428983 0.523275
Si Si8 0.187047 0.075662 0.741449
O O1 0.424419 0.223377 0.227501
O O2 0.440422 0.157351 0.086254
O O3 0.672577 0.208668 0.945065
O O4 0.565211 0.122287 0.106580
O O5 0.696524 0.576026 0.365470
O O6 0.682452 0.679886 0.445516
O O7 0.715360 0.587108 0.488935
O O8 0.459824 0.610925 0.626802
O O9 0.941725 0.409561 0.445809
O O10 0.892737 0.509319 0.408563
O O11 0.000000 0.424453 0.250000
O O12 0.146040 0.480940 0.240314
O O13 0.675181 0.485079 0.293744
O O14 0.910437 0.549359 0.102579
O O15 0.657710 0.100475 0.858011
O O16 0.750000 0.250000 0.000000
O O17 0.288110 0.431588 0.366415
#
# Coordination Sequence:
#
# PCOD9273614 Si02
#       8
#     8   8   8   8   8   8   8   8
#     4  11  24  38  54  75 108 152 192 226 268 312
#     4  12  23  33  51  78 116 147 182 221 269 314
#     4  11  18  31  60  84  99 133 191 224 269 330
#     4  11  18  35  55  75 108 149 178 216 276 330
#     4  10  20  38  56  73 107 148 183 228 270 328
#     4  12  25  36  55  77 110 152 195 228 256 310
#     4  11  20  34  54  73 112 152 178 216 269 322
#     4  10  21  33  50  78 106 146 183 219 264 328
#
# _framework density 16.900932000000001
#
# number of rings (size 3 to 8) (size 9 to 14) (size 15 to 20)
#    0.000    1.000    7.500    1.875    3.500    1.000 
#    0.000    0.000    0.000    0.000    0.000    0.875 
#    0.000    0.000    0.000    0.000    0.000    0.000 
#
# Total GULP energy -178255.109043 kJ/mol
# GULP energy per Si atom -5570.472158 kJ/mol
# Density = 1.686247 g / cm^3
# Si number density = 16.900932 Si / 1000 Ang^3
#
#
#
# Elastic Constant Matrix: (Units=GPa)
#
#
# Indices 1 2 3 4 5 6 
#
# 1 54.9591 17.9650 26.3409 0.0325 16.8141 0.0100
# 2 17.9650 44.7488 6.8771 0.0511 10.3448 -0.0066
# 3 26.3409 6.8771 76.2962 0.0453 7.6216 -0.0180
# 4 0.0325 0.0511 0.0453 13.4674 -0.0124 -11.3246
# 5 16.8141 10.3448 7.6216 -0.0124 33.2081 -0.0036
# 6 0.0100 -0.0066 -0.0180 -11.3246 -0.0036 16.1269
#
#
#
# Elastic Compliance Matrix: (Units=1/GPa)
#
#
# Indices 1 2 3 4 5 6 
#
# 1 0.027373 -0.007544 -0.007799 -0.000113 -0.009720 -0.000110
# 2 -0.007544 0.026319 0.000685 -0.000184 -0.004537 -0.000114
# 3 -0.007799 0.000685 0.015725 -0.000043 0.000127 -0.000007
# 4 -0.000113 -0.000184 -0.000043 0.181325 0.000206 0.127330
# 5 -0.009720 -0.004537 0.000127 0.000206 0.036419 0.000157
# 6 -0.000110 -0.000114 -0.000007 0.127330 0.000157 0.151422
#
#
# Mechanical properties :
#
#
# Convention : Reuss Voigt Hill
#
# Bulk Modulus (GPa) = 24.93649 30.93000 27.93324
# Shear Modulus (GPa) = 10.38925 20.88188 15.63557
#
# Velocity S-wave (km/s) = 2.48203 3.51885 3.04490
# Velocity P-wave (km/s) = 4.79589 5.90341 5.37823
#
# Compressibility (1/GPa) = 0.04010188
#
# Stress axis : x y z
#
# Youngs Moduli (GPa) = 36.53220 37.99526 63.59231
#
# Poissons Ratio (x) = 0.28662 0.49599
# Poissons Ratio (y) = 0.27558 -0.04358
# Poissons Ratio (z) = 0.28493 -0.02604
#
# Static dielectric constant tensor:
#      x y z
#    x 1.590640 0.000000 -0.002230 
#    y 0.000000 1.599320 0.000010 
#    z -0.002230 0.000010 1.618620 
# 
# From -- ./inp_files/212157.got.cif
#   From: 2010.05.17/outbox.cif.g08.bks.cpg/sg15_107_cif.got.tgz:212157.got - 2010.06.03 18:47:42.
