data_PCOD9273939
_publ_section_title
;
Structure prediction by ZEFSAII (Michael W. Deem and Ramdas Pophale) SiO2 
 PCOD9273939
Probable space group: C 2/C
;
_chemical_formula_sum "Si O2"
_cell_formula_units_Z 60
_cell_length_a 13.631790
_cell_length_b 13.425544
_cell_length_c 16.854855
_cell_angle_alpha 90.000000
_cell_angle_beta 110.430961
_cell_angle_gamma 90.000000
_cell_volume 2890.631446
_symmetry_space_group_name_H-M "C 2/C"
_symmetry_group_IT_number 15
_symmetry_cell_setting 'monoclinic'
loop_
_space_group_symop_operation_xyz
x,y,z
-x,y,1/2-z
-x,-y,-z
x,-y,1/2+z
1/2+x,1/2+y,z
1/2-x,1/2+y,1/2-z
1/2-x,1/2-y,-z
1/2+x,1/2-y,1/2+z
loop_
_atom_site_type_symbol
_atom_site_label
_atom_site_fract_x
_atom_site_fract_y
_atom_site_fract_z
Si Si1 0.780384 0.883312 0.493032
Si Si2 0.087152 0.385094 0.215058
Si Si3 0.796552 0.773161 0.646646
Si Si4 0.699488 0.914024 0.747946
Si Si5 0.538275 0.107567 0.980030
Si Si6 0.417000 0.769980 0.565261
Si Si7 0.500000 0.790955 0.750000
Si Si8 0.216273 0.104499 0.057053
O O1 0.842110 0.829712 0.581922
O O2 0.775964 0.811459 0.415322
O O3 0.658917 0.891446 0.488158
O O4 0.811350 0.994811 0.481232
O O5 0.129911 0.289098 0.273448
O O6 0.174803 0.469707 0.228188
O O7 0.031741 0.364935 0.116179
O O8 0.000000 0.429212 0.250000
O O9 0.743245 0.857862 0.684197
O O10 0.591530 0.859668 0.740892
O O11 0.773291 0.899689 0.845194
O O12 0.511066 0.182351 0.042887
O O13 0.500000 0.000000 0.000000
O O14 0.452869 0.732841 0.661863
O O15 0.329604 0.856320 0.556729
O O16 0.364227 0.684706 0.498650
#
# Coordination Sequence:
#
# PCOD9273939 Si02
#       8
#     8   8   8   8   8   8   4   8
#     4  11  22  41  63  90 131 169 210 257 324 386
#     4  12  22  40  66  97 125 160 211 272 313 373
#     4  11  24  39  63  94 130 170 208 261 326 387
#     4  11  21  38  62  94 124 162 208 264 322 371
#     4  12  21  36  65  99 126 159 210 265 323 371
#     4  10  21  34  62  93 129 161 207 264 318 372
#     4  10  20  38  60  88 128 158 212 266 304 366
#     4  10  20  39  58  91 129 168 203 261 319 382
#
# _framework density 20.756710000000002
#
# number of rings (size 3 to 8) (size 9 to 14) (size 15 to 20)
#    0.000    1.067    4.667    3.200    0.000    0.000 
#    0.000    0.000    1.467    7.200    0.000    0.000 
#    0.000    0.000    0.000    0.000    0.000    0.000 
#
# Total GULP energy -167642.619680 kJ/mol
# GULP energy per Si atom -5588.087323 kJ/mol
# Density = 2.070947 g / cm^3
# Si number density = 20.756710 Si / 1000 Ang^3
#
#
#
# Elastic Constant Matrix: (Units=GPa)
#
#
# Indices 1 2 3 4 5 6 
#
# 1 31.3964 12.5520 14.4963 0.0000 -4.5218 0.0000
# 2 12.5520 98.1723 41.9230 0.0000 -4.6901 0.0000
# 3 14.4963 41.9230 158.6753 0.0000 0.3788 0.0000
# 4 0.0000 0.0000 0.0000 36.7462 0.0000 -9.5782
# 5 -4.5218 -4.6901 0.3788 0.0000 24.9508 0.0000
# 6 0.0000 0.0000 0.0000 -9.5782 0.0000 7.4057
#
#
#
# Elastic Compliance Matrix: (Units=1/GPa)
#
#
# Indices 1 2 3 4 5 6 
#
# 1 0.035057 -0.003192 -0.002373 0.000000 0.005789 0.000000
# 2 -0.003192 0.011895 -0.002855 0.000000 0.001701 0.000000
# 3 -0.002373 -0.002855 0.007276 0.000000 -0.001077 0.000000
# 4 0.000000 0.000000 0.000000 0.041054 0.000000 0.053098
# 5 0.005789 0.001701 -0.001077 0.000000 0.041464 0.000000
# 6 0.000000 0.000000 0.000000 0.053098 0.000000 0.203706
#
#
# Mechanical properties :
#
#
# Convention : Reuss Voigt Hill
#
# Bulk Modulus (GPa) = 26.74778 47.35408 37.05093
# Shear Modulus (GPa) = 13.52247 28.43870 20.98059
#
# Velocity S-wave (km/s) = 2.55517 3.70550 3.18273
# Velocity P-wave (km/s) = 4.64968 6.41646 5.60315
#
# Compressibility (1/GPa) = 0.03738629
#
# Stress axis : x y z
#
# Youngs Moduli (GPa) = 28.52534 84.07033 137.44022
#
# Poissons Ratio (x) = 0.26837 0.32616
# Poissons Ratio (y) = 0.09106 0.39241
# Poissons Ratio (z) = 0.06769 0.24003
#
# Static dielectric constant tensor:
#      x y z
#    x 1.752490 0.000000 0.021510 
#    y 0.000000 1.723280 0.000000 
#    z 0.021510 0.000000 1.769350 
# 
# From -- ./inp_files/204500.got.cif
#   From: 2010.05.17/outbox.cif.g08.bks.cpg/sg15_103_cif.got.tgz:204500.got - 2010.06.03 18:47:42.
