data_PCOD9273335
_publ_section_title
;
Structure prediction by ZEFSAII (Michael W. Deem and Ramdas Pophale) SiO2 
 PCOD9273335
Probable space group: C 2/C
;
_chemical_formula_sum "Si O2"
_cell_formula_units_Z 36
_cell_length_a 7.346633
_cell_length_b 14.514035
_cell_length_c 13.841176
_cell_angle_alpha 90.000000
_cell_angle_beta 95.737436
_cell_angle_gamma 90.000000
_cell_volume 1468.481301
_symmetry_space_group_name_H-M "C 2/C"
_symmetry_group_IT_number 15
_symmetry_cell_setting 'monoclinic'
loop_
_space_group_symop_operation_xyz
x,y,z
-x,y,1/2-z
-x,-y,-z
x,-y,1/2+z
1/2+x,1/2+y,z
1/2-x,1/2+y,1/2-z
1/2-x,1/2-y,-z
1/2+x,1/2-y,1/2+z
loop_
_atom_site_type_symbol
_atom_site_label
_atom_site_fract_x
_atom_site_fract_y
_atom_site_fract_z
Si Si1 0.500000 0.612759 0.250000
Si Si2 0.450033 0.276305 0.914573
Si Si3 0.711523 0.351868 0.281524
Si Si4 0.664559 0.003431 0.324612
Si Si5 0.825578 0.601557 0.982645
O O1 0.420440 0.672643 0.154694
O O2 0.348811 0.550538 0.294892
O O3 0.293201 0.240820 0.830434
O O4 0.353617 0.345617 0.983394
O O5 0.479109 0.181848 0.975832
O O6 0.500000 0.343941 0.250000
O O7 0.811257 0.394508 0.194240
O O8 0.762534 0.423619 0.371376
O O9 0.500000 0.038716 0.250000
O O10 0.632808 0.027105 0.434292
#
# Coordination Sequence:
#
# PCOD9273335 Si02
#       5
#     4   8   8   8   8
#     4  10  20  42  64  88 126 166 210 256 312 370
#     4   8  18  38  61  85 126 160 204 265 297 367
#     4  10  20  37  64  94 121 171 205 249 324 366
#     4  11  23  39  63  93 129 166 204 265 315 364
#     4   8  19  40  60  88 132 158 207 269 298 367
#
# _framework density 24.515124
#
# number of rings (size 3 to 8) (size 9 to 14) (size 15 to 20)
#    1.333    1.333    1.111    0.000    1.556    5.333 
#    0.000    1.111    0.000    0.000    0.000    0.000 
#    0.000    0.000    0.000    0.000    0.000    0.000 
#
# Total GULP energy -100304.668821 kJ/mol
# GULP energy per Si atom -5572.481601 kJ/mol
# Density = 2.445933 g / cm^3
# Si number density = 24.515124 Si / 1000 Ang^3
#
#
#
# Elastic Constant Matrix: (Units=GPa)
#
#
# Indices 1 2 3 4 5 6 
#
# 1 66.2876 -2.0480 22.6063 0.0000 -14.1868 0.0000
# 2 -2.0480 42.6046 16.1452 0.0000 -8.9140 0.0000
# 3 22.6063 16.1452 97.8162 0.0000 -29.5983 0.0000
# 4 0.0000 0.0000 0.0000 52.8905 0.0000 -11.2059
# 5 -14.1868 -8.9140 -29.5983 0.0000 57.3082 0.0000
# 6 0.0000 0.0000 0.0000 -11.2059 0.0000 12.3790
#
#
#
# Elastic Compliance Matrix: (Units=1/GPa)
#
#
# Indices 1 2 3 4 5 6 
#
# 1 0.016973 0.002739 -0.003525 0.000000 0.002807 0.000000
# 2 0.002739 0.025692 -0.004100 0.000000 0.002557 0.000000
# 3 -0.003525 -0.004100 0.013343 0.000000 0.005381 0.000000
# 4 0.000000 0.000000 0.000000 0.023394 0.000000 0.021177
# 5 0.002807 0.002557 0.005381 0.000000 0.021321 0.000000
# 6 0.000000 0.000000 0.000000 0.021177 0.000000 0.099952
#
#
# Mechanical properties :
#
#
# Convention : Reuss Voigt Hill
#
# Bulk Modulus (GPa) = 21.62823 31.12394 26.37608
# Shear Modulus (GPa) = 22.13760 35.84919 28.99339
#
# Velocity S-wave (km/s) = 3.00829 3.82819 3.44273
# Velocity P-wave (km/s) = 4.57252 5.68009 5.15613
#
# Compressibility (1/GPa) = 0.04623586
#
# Stress axis : x y z
#
# Youngs Moduli (GPa) = 58.91544 38.92263 74.94588
#
# Poissons Ratio (x) = -0.10662 0.26422
# Poissons Ratio (y) = -0.16138 0.30728
# Poissons Ratio (z) = 0.20770 0.15958
#
# Static dielectric constant tensor:
#      x y z
#    x 1.942170 0.000000 -0.036310 
#    y 0.000000 2.106520 0.000000 
#    z -0.036310 0.000000 1.935580 
# 
# From -- ./inp_files/134018.got.cif
#   From: 2010.05.17/outbox.cif.g08.bks.cpg/sg15_68_cif.got.tgz:134018.got - 2010.06.03 18:47:42.
