data_PCOD9273350
_publ_section_title
;
Structure prediction by ZEFSAII (Michael W. Deem and Ramdas Pophale) SiO2 
 PCOD9273350
Probable space group: C 2/C
;
_chemical_formula_sum "Si O2"
_cell_formula_units_Z 40
_cell_length_a 30.695767
_cell_length_b 11.568942
_cell_length_c 11.252556
_cell_angle_alpha 90.000000
_cell_angle_beta 156.086837
_cell_angle_gamma 90.000000
_cell_volume 1619.776984
_symmetry_space_group_name_H-M "C 2/C"
_symmetry_group_IT_number 15
_symmetry_cell_setting 'monoclinic'
loop_
_space_group_symop_operation_xyz
x,y,z
-x,y,1/2-z
-x,-y,-z
x,-y,1/2+z
1/2+x,1/2+y,z
1/2-x,1/2+y,1/2-z
1/2-x,1/2-y,-z
1/2+x,1/2-y,1/2+z
loop_
_atom_site_type_symbol
_atom_site_label
_atom_site_fract_x
_atom_site_fract_y
_atom_site_fract_z
Si Si1 0.378593 0.936296 0.407063
Si Si2 0.952768 0.959492 0.253722
Si Si3 0.614662 0.807615 0.606507
Si Si4 0.963784 0.736868 0.939558
Si Si5 0.792246 0.137191 0.841015
O O1 0.394629 0.864440 0.326739
O O2 0.333966 0.065426 0.278692
O O3 0.500000 0.953340 0.750000
O O4 0.315515 0.867194 0.351185
O O5 0.000000 0.013665 0.250000
O O6 0.989048 0.827352 0.348265
O O7 0.831291 0.003081 0.935513
O O8 0.000000 0.000000 0.500000
O O9 0.500000 0.802332 0.250000
O O10 0.567706 0.797559 0.621826
O O11 0.690451 0.708306 0.738219
O O12 0.879806 0.801883 0.644900
#
# Coordination Sequence:
#
# PCOD9273350 Si02
#       5
#     8   8   8   8   8
#     4  11  23  38  59  89 125 167 213 264 321 396
#     4  10  20  37  64  95 126 162 213 274 330 389
#     4   9  20  40  61  84 121 164 205 257 327 394
#     4  10  20  39  63  90 122 159 211 275 324 383
#     4  10  21  40  62  88 121 166 211 264 333 390
#
# _framework density 24.694759000000001
#
# number of rings (size 3 to 8) (size 9 to 14) (size 15 to 20)
#    0.000    2.000    0.000    4.800    0.000    3.200 
#    0.000   20.000    0.000    0.000    0.000    0.000 
#    0.000    0.000    0.000    0.000    0.000    0.000 
#
# Total GULP energy -111570.541674 kJ/mol
# GULP energy per Si atom -5578.527084 kJ/mol
# Density = 2.463855 g / cm^3
# Si number density = 24.694759 Si / 1000 Ang^3
#
#
#
# Elastic Constant Matrix: (Units=GPa)
#
#
# Indices 1 2 3 4 5 6 
#
# 1 199.2000 53.6996 48.9427 0.0000 24.9332 0.0000
# 2 53.6996 99.0504 38.4738 0.0000 7.4724 0.0000
# 3 48.9427 38.4738 50.1704 0.0000 29.3673 0.0000
# 4 0.0000 0.0000 0.0000 -177.5417 0.0000 -290.2878
# 5 24.9332 7.4724 29.3673 0.0000 48.7820 0.0000
# 6 0.0000 0.0000 0.0000 -290.2878 0.0000 -412.0790
#
#
#
# Elastic Compliance Matrix: (Units=1/GPa)
#
#
# Indices 1 2 3 4 5 6 
#
# 1 0.006771 -0.001563 -0.005437 0.000000 0.000052 0.000000
# 2 -0.001563 0.016392 -0.015509 0.000000 0.007624 0.000000
# 3 -0.005437 -0.015509 0.052673 0.000000 -0.026555 0.000000
# 4 0.000000 0.000000 0.000000 0.037105 0.000000 -0.026138
# 5 0.000052 0.007624 -0.026555 0.000000 0.035292 0.000000
# 6 0.000000 0.000000 0.000000 -0.026138 0.000000 0.015986
#
#
# Mechanical properties :
#
#
# Convention : Reuss Voigt Hill
#
# Bulk Modulus (GPa) = 32.44750 70.07255 51.26003
# Shear Modulus (GPa) = 22.77812 -94.34743 -35.78465
#
# Velocity S-wave (km/s) = 3.04038 -6.18776 -3.81081
# Velocity P-wave (km/s) = 5.04907 4.75543 1.19980
#
# Compressibility (1/GPa) = 0.03081901
#
# Stress axis : x y z
#
# Youngs Moduli (GPa) = 147.69487 61.00564 18.98494
#
# Poissons Ratio (x) = 0.09534 0.10322
# Poissons Ratio (y) = 0.23081 0.29443
# Poissons Ratio (z) = 0.80302 0.94612
#
# Static dielectric constant tensor:
#      x y z
#    x 1.192670 0.000000 -0.139240 
#    y 0.000000 2.071640 0.000000 
#    z -0.139240 0.000000 1.962630 
# 
# From -- ./inp_files/94654.got.cif
#   From: 2010.05.17/outbox.cif.g08.bks.cpg/sg15_48_cif.got.tgz:94654.got - 2010.06.03 18:47:42.
