data_PCOD9273395
_publ_section_title
;
Structure prediction by ZEFSAII (Michael W. Deem and Ramdas Pophale) SiO2 
 PCOD9273395
Probable space group: C 2/C
;
_chemical_formula_sum "Si O2"
_cell_formula_units_Z 64
_cell_length_a 20.120191
_cell_length_b 10.367767
_cell_length_c 21.476338
_cell_angle_alpha 90.000000
_cell_angle_beta 50.290072
_cell_angle_gamma 90.000000
_cell_volume 3446.410475
_symmetry_space_group_name_H-M "C 2/C"
_symmetry_group_IT_number 15
_symmetry_cell_setting 'monoclinic'
loop_
_space_group_symop_operation_xyz
x,y,z
-x,y,1/2-z
-x,-y,-z
x,-y,1/2+z
1/2+x,1/2+y,z
1/2-x,1/2+y,1/2-z
1/2-x,1/2-y,-z
1/2+x,1/2-y,1/2+z
loop_
_atom_site_type_symbol
_atom_site_label
_atom_site_fract_x
_atom_site_fract_y
_atom_site_fract_z
Si Si1 0.116743 0.724425 0.554377
Si Si2 0.370648 0.501131 0.784075
Si Si3 0.946716 0.017842 0.374516
Si Si4 0.718076 0.122447 0.598689
Si Si5 0.276957 0.811877 0.147944
Si Si6 0.097528 0.447899 0.948148
Si Si7 0.793140 0.853720 0.521431
Si Si8 0.755089 0.278188 0.692875
O O1 0.049681 0.842172 0.594740
O O2 0.202900 0.796615 0.478598
O O3 0.133570 0.673817 0.613943
O O4 0.102650 0.607576 0.515457
O O5 0.456172 0.527659 0.693317
O O6 0.402336 0.460750 0.833530
O O7 0.312999 0.628269 0.822468
O O8 0.310426 0.390654 0.790586
O O9 0.883156 0.915264 0.444228
O O10 0.729567 0.156459 0.664192
O O11 0.731002 0.975837 0.570397
O O12 0.307444 0.708544 0.079914
O O13 0.261581 0.757664 0.225927
O O14 0.344034 0.929229 0.103470
O O15 0.147429 0.332703 0.879411
O O16 0.000000 0.500000 0.000000
O O17 0.750000 0.750000 0.500000
#
# Coordination Sequence:
#
# PCOD9273395 Si02
#       8
#     8   8   8   8   8   8   8   8
#     4   9  17  35  60  87 111 149 198 253 288 350
#     4  10  21  39  61  88 117 158 194 252 310 355
#     4  10  20  37  65  89 116 149 207 257 295 360
#     4   9  18  33  60  85 113 149 201 239 292 352
#     4  11  24  39  59  85 124 163 195 242 315 369
#     4  10  23  40  61  87 122 162 201 250 306 356
#     4  11  21  36  59  89 118 157 200 243 301 363
#     4  10  22  40  61  85 124 163 201 246 303 375
#
# _framework density 18.570046000000001
#
# number of rings (size 3 to 8) (size 9 to 14) (size 15 to 20)
#    0.000    2.000    2.500    0.750    8.750    1.000 
#    0.000    0.625    0.000    1.500    0.000    0.000 
#    0.000    0.000    0.000    0.000    0.000    0.000 
#
# Total GULP energy -178211.709948 kJ/mol
# GULP energy per Si atom -5569.115936 kJ/mol
# Density = 1.852778 g / cm^3
# Si number density = 18.570046 Si / 1000 Ang^3
#
#
#
# Elastic Constant Matrix: (Units=GPa)
#
#
# Indices 1 2 3 4 5 6 
#
# 1 49.2616 34.7263 41.9472 0.0000 2.8799 0.0000
# 2 34.7263 88.0698 41.1880 0.0000 0.0388 0.0000
# 3 41.9472 41.1880 111.5391 0.0000 -0.3792 0.0000
# 4 0.0000 0.0000 0.0000 30.3032 0.0000 14.4452
# 5 2.8799 0.0388 -0.3792 0.0000 36.0948 0.0000
# 6 0.0000 0.0000 0.0000 14.4452 0.0000 11.8129
#
#
#
# Elastic Compliance Matrix: (Units=1/GPa)
#
#
# Indices 1 2 3 4 5 6 
#
# 1 0.035509 -0.009368 -0.009905 0.000000 -0.002927 0.000000
# 2 -0.009368 0.016196 -0.002455 0.000000 0.000704 0.000000
# 3 -0.009905 -0.002455 0.013600 0.000000 0.000936 0.000000
# 4 0.000000 0.000000 0.000000 0.079120 0.000000 -0.096751
# 5 -0.002927 0.000704 0.000936 0.000000 0.027947 0.000000
# 6 0.000000 0.000000 0.000000 -0.096751 0.000000 0.202963
#
#
# Mechanical properties :
#
#
# Convention : Reuss Voigt Hill
#
# Bulk Modulus (GPa) = 45.76751 53.84371 49.80561
# Shear Modulus (GPa) = 11.73502 24.37612 18.05557
#
# Velocity S-wave (km/s) = 2.51655 3.62699 3.12155
# Velocity P-wave (km/s) = 5.75703 6.82627 6.31433
#
# Compressibility (1/GPa) = 0.02184956
#
# Stress axis : x y z
#
# Youngs Moduli (GPa) = 28.16217 61.74200 73.52786
#
# Poissons Ratio (x) = 0.57838 0.72827
# Poissons Ratio (y) = 0.26382 0.18055
# Poissons Ratio (z) = 0.27894 0.15161
#
# Static dielectric constant tensor:
#      x y z
#    x 1.647610 0.000000 0.003580 
#    y 0.000000 1.674400 0.000000 
#    z 0.003580 0.000000 1.655910 
# 
# From -- ./inp_files/279563.got.cif
#   From: 2010.05.17/outbox.cif.g08.bks.cpg/sg15_140_cif.got.tgz:279563.got - 2010.06.03 18:47:42.
