data_PCOD9273851
_publ_section_title
;
Structure prediction by ZEFSAII (Michael W. Deem and Ramdas Pophale) SiO2 
 PCOD9273851
Probable space group: C 2/C
;
_chemical_formula_sum "Si O2"
_cell_formula_units_Z 64
_cell_length_a 16.272590
_cell_length_b 18.188680
_cell_length_c 13.273347
_cell_angle_alpha 90.000000
_cell_angle_beta 95.242496
_cell_angle_gamma 90.000000
_cell_volume 3912.170792
_symmetry_space_group_name_H-M "C 2/C"
_symmetry_group_IT_number 15
_symmetry_cell_setting 'monoclinic'
loop_
_space_group_symop_operation_xyz
x,y,z
-x,y,1/2-z
-x,-y,-z
x,-y,1/2+z
1/2+x,1/2+y,z
1/2-x,1/2+y,1/2-z
1/2-x,1/2-y,-z
1/2+x,1/2-y,1/2+z
loop_
_atom_site_type_symbol
_atom_site_label
_atom_site_fract_x
_atom_site_fract_y
_atom_site_fract_z
Si Si1 0.404834 0.225627 0.219151
Si Si2 0.630772 0.769887 0.017919
Si Si3 0.250592 0.879519 0.730856
Si Si4 0.173405 0.998168 0.843835
Si Si5 0.237024 0.880032 0.503854
Si Si6 0.584926 0.612199 0.697601
Si Si7 0.961442 0.924545 0.532171
Si Si8 0.930782 0.182787 0.326496
O O1 0.500000 0.204793 0.250000
O O2 0.330411 0.173089 0.247936
O O3 0.387220 0.307097 0.261789
O O4 0.403289 0.227298 0.097955
O O5 0.683461 0.843266 0.038278
O O6 0.573252 0.755763 0.106074
O O7 0.684014 0.694041 0.019236
O O8 0.254779 0.910528 0.617031
O O9 0.160822 0.837819 0.724589
O O10 0.244356 0.944333 0.811148
O O11 0.197492 0.059764 0.928095
O O12 0.139469 0.044412 0.744259
O O13 0.106009 0.946449 0.891518
O O14 0.500000 0.600766 0.750000
O O15 0.572057 0.611653 0.575447
O O16 0.033888 0.878808 0.593217
O O17 0.000000 0.000000 0.500000
O O18 0.000000 0.188968 0.250000
#
# Coordination Sequence:
#
# PCOD9273851 Si02
#       8
#     8   8   8   8   8   8   8   8
#     4  10  20  38  60  80 102 140 194 239 264 310
#     4   9  17  34  56  79 101 142 190 226 261 311
#     4  10  22  35  54  81 111 147 183 219 279 322
#     4  12  20  33  52  81 116 145 172 226 277 339
#     4   9  18  33  56  79 105 140 189 229 255 321
#     4  11  21  32  54  81 108 143 183 223 272 325
#     4  12  22  31  47  80 120 146 172 209 276 345
#     4  11  20  33  51  77 117 150 168 209 274 337
#
# _framework density 16.359203000000001
#
# number of rings (size 3 to 8) (size 9 to 14) (size 15 to 20)
#    0.000    1.500    3.750    5.250    0.000    0.000 
#    0.000    0.625    0.000    3.750    0.000    0.000 
#    0.000    0.000    0.000    0.000    0.000    0.000 
#
# Total GULP energy -178176.191309 kJ/mol
# GULP energy per Si atom -5568.005978 kJ/mol
# Density = 1.632197 g / cm^3
# Si number density = 16.359203 Si / 1000 Ang^3
#
#
#
# Elastic Constant Matrix: (Units=GPa)
#
#
# Indices 1 2 3 4 5 6 
#
# 1 72.7376 33.1450 26.9626 0.0000 -9.2885 0.0000
# 2 33.1450 45.1981 14.1261 0.0000 -5.5772 0.0000
# 3 26.9626 14.1261 31.2313 0.0000 -9.8947 0.0000
# 4 0.0000 0.0000 0.0000 5.2301 0.0000 -0.1781
# 5 -9.2885 -5.5772 -9.8947 0.0000 24.1910 0.0000
# 6 0.0000 0.0000 0.0000 -0.1781 0.0000 28.4066
#
#
#
# Elastic Compliance Matrix: (Units=1/GPa)
#
#
# Indices 1 2 3 4 5 6 
#
# 1 0.026212 -0.014144 -0.016172 0.000000 0.000189 0.000000
# 2 -0.014144 0.033438 -0.002518 0.000000 0.001248 0.000000
# 3 -0.016172 -0.002518 0.051663 0.000000 0.014342 0.000000
# 4 0.000000 0.000000 0.000000 0.191242 0.000000 0.001199
# 5 0.000189 0.001248 0.014342 0.000000 0.047564 0.000000
# 6 0.000000 0.000000 0.000000 0.001199 0.000000 0.035211
#
#
# Mechanical properties :
#
#
# Convention : Reuss Voigt Hill
#
# Bulk Modulus (GPa) = 21.90798 33.07050 27.48924
# Shear Modulus (GPa) = 10.72468 16.56109 13.64289
#
# Velocity S-wave (km/s) = 2.56320 3.18518 2.89097
# Velocity P-wave (km/s) = 4.70966 5.81260 5.28995
#
# Compressibility (1/GPa) = 0.04564548
#
# Stress axis : x y z
#
# Youngs Moduli (GPa) = 38.15018 29.90587 19.35607
#
# Poissons Ratio (x) = 0.42300 0.31303
# Poissons Ratio (y) = 0.53961 0.04873
# Poissons Ratio (z) = 0.61697 0.07529
#
# Static dielectric constant tensor:
#      x y z
#    x 1.614970 0.000000 0.000330 
#    y 0.000000 1.554580 0.000000 
#    z 0.000330 0.000000 1.643990 
# 
# From -- ./inp_files/106424.got.cif
#   From: 2010.05.17/outbox.cif.g08.bks.cpg/sg15_54_cif.got.tgz:106424.got - 2010.06.03 18:47:42.
