data_PCOD9273611
_publ_section_title
;
Structure prediction by ZEFSAII (Michael W. Deem and Ramdas Pophale) SiO2 
 PCOD9273611
Probable space group: C 2/C
;
_chemical_formula_sum "Si O2"
_cell_formula_units_Z 56
_cell_length_a 18.740169
_cell_length_b 18.430289
_cell_length_c 14.175111
_cell_angle_alpha 90.000000
_cell_angle_beta 141.762601
_cell_angle_gamma 90.000000
_cell_volume 3030.173459
_symmetry_space_group_name_H-M "C 2/C"
_symmetry_group_IT_number 15
_symmetry_cell_setting 'monoclinic'
loop_
_space_group_symop_operation_xyz
x,y,z
-x,y,1/2-z
-x,-y,-z
x,-y,1/2+z
1/2+x,1/2+y,z
1/2-x,1/2+y,1/2-z
1/2-x,1/2-y,-z
1/2+x,1/2-y,1/2+z
loop_
_atom_site_type_symbol
_atom_site_label
_atom_site_fract_x
_atom_site_fract_y
_atom_site_fract_z
Si Si1 0.577431 0.178219 0.185625
Si Si2 0.730201 0.978367 0.531848
Si Si3 0.123300 0.833745 0.167953
Si Si4 0.877413 0.461623 0.887683
Si Si5 0.479587 0.462495 0.335062
Si Si6 0.199890 0.936211 0.096039
Si Si7 0.834532 0.357266 0.529515
O O1 0.575818 0.253037 0.126931
O O2 0.625178 0.112431 0.173312
O O3 0.653544 0.185155 0.359869
O O4 0.450531 0.156775 0.090959
O O5 0.652443 0.946891 0.534325
O O6 0.744495 0.934131 0.450193
O O7 0.858750 0.994276 0.705586
O O8 0.677425 0.057912 0.455237
O O9 0.032604 0.895017 0.107610
O O10 0.170350 0.860783 0.116164
O O11 0.226749 0.839606 0.351606
O O12 0.784460 0.518798 0.751740
O O13 0.000000 0.500000 0.000000
O O14 0.500000 0.433737 0.250000
O O15 0.583708 0.516037 0.466303
#
# Coordination Sequence:
#
# PCOD9273611 Si02
#       7
#     8   8   8   8   8   8   8
#     4  11  23  35  57  85 122 156 190 242 307 354
#     4  10  20  38  61  86 115 147 202 251 281 349
#     4  11  22  37  56  88 125 150 190 242 304 359
#     4  12  22  37  59  86 117 156 206 242 289 356
#     4   9  20  35  58  88 114 148 192 241 296 346
#     4  11  21  38  61  86 117 157 199 244 292 358
#     4  10  20  38  55  88 118 151 192 249 297 355
#
# _framework density 18.480789999999999
#
# number of rings (size 3 to 8) (size 9 to 14) (size 15 to 20)
#    0.000    1.429    5.714    0.857    2.000    1.714 
#    0.000    0.714    0.000    0.000    3.714    0.000 
#    0.000    0.000    0.000    0.000    0.000    0.000 
#
# Total GULP energy -156345.389986 kJ/mol
# GULP energy per Si atom -5583.763928 kJ/mol
# Density = 1.843873 g / cm^3
# Si number density = 18.480790 Si / 1000 Ang^3
#
#
#
# Elastic Constant Matrix: (Units=GPa)
#
#
# Indices 1 2 3 4 5 6 
#
# 1 151.3255 45.8472 28.7868 0.0000 -10.4092 0.0000
# 2 45.8472 60.6417 12.9413 0.0000 -2.8881 0.0000
# 3 28.7868 12.9413 48.2442 0.0000 -1.0807 0.0000
# 4 0.0000 0.0000 0.0000 12.6042 0.0000 -8.1700
# 5 -10.4092 -2.8881 -1.0807 0.0000 15.5783 0.0000
# 6 0.0000 0.0000 0.0000 -8.1700 0.0000 25.0608
#
#
#
# Elastic Compliance Matrix: (Units=1/GPa)
#
#
# Indices 1 2 3 4 5 6 
#
# 1 0.009565 -0.006153 -0.003946 0.000000 0.004977 0.000000
# 2 -0.006153 0.021583 -0.002124 0.000000 -0.000257 0.000000
# 3 -0.003946 -0.002124 0.023621 0.000000 -0.001392 0.000000
# 4 0.000000 0.000000 0.000000 0.100597 0.000000 0.032795
# 5 0.004977 -0.000257 -0.001392 0.000000 0.067373 0.000000
# 6 0.000000 0.000000 0.000000 0.032795 0.000000 0.050595
#
#
# Mechanical properties :
#
#
# Convention : Reuss Voigt Hill
#
# Bulk Modulus (GPa) = 32.97679 48.37356 40.67517
# Shear Modulus (GPa) = 16.23979 22.15773 19.19876
#
# Velocity S-wave (km/s) = 2.96757 3.46636 3.22662
# Velocity P-wave (km/s) = 5.44284 6.50021 5.99488
#
# Compressibility (1/GPa) = 0.03032436
#
# Stress axis : x y z
#
# Youngs Moduli (GPa) = 104.54494 46.33283 42.33564
#
# Poissons Ratio (x) = 0.28507 0.16704
# Poissons Ratio (y) = 0.64323 0.08993
# Poissons Ratio (z) = 0.41249 0.09842
#
# Static dielectric constant tensor:
#      x y z
#    x 1.672220 0.000000 -0.007240 
#    y 0.000000 1.613700 0.000000 
#    z -0.007240 0.000000 1.655400 
# 
# From -- ./inp_files/106637.got.cif
#   From: 2010.05.17/outbox.cif.g08.bks.cpg/sg15_54_cif.got.tgz:106637.got - 2010.06.03 18:47:42.
