data_PCOD9273206
_publ_section_title
;
Structure prediction by ZEFSAII (Michael W. Deem and Ramdas Pophale) SiO2 
 PCOD9273206
Probable space group: C 2/C
;
_chemical_formula_sum "Si O2"
_cell_formula_units_Z 56
_cell_length_a 15.559403
_cell_length_b 11.788386
_cell_length_c 14.893790
_cell_angle_alpha 90.000000
_cell_angle_beta 56.283574
_cell_angle_gamma 90.000000
_cell_volume 2272.316489
_symmetry_space_group_name_H-M "C 2/C"
_symmetry_group_IT_number 15
_symmetry_cell_setting 'monoclinic'
loop_
_space_group_symop_operation_xyz
x,y,z
-x,y,1/2-z
-x,-y,-z
x,-y,1/2+z
1/2+x,1/2+y,z
1/2-x,1/2+y,1/2-z
1/2-x,1/2-y,-z
1/2+x,1/2-y,1/2+z
loop_
_atom_site_type_symbol
_atom_site_label
_atom_site_fract_x
_atom_site_fract_y
_atom_site_fract_z
Si Si1 0.886443 0.177797 0.324575
Si Si2 0.887472 0.753731 0.160110
Si Si3 0.347267 0.851078 0.494253
Si Si4 0.198398 0.565498 0.047258
Si Si5 0.107842 0.799331 0.059030
Si Si6 0.592531 0.995318 0.768751
Si Si7 0.661308 0.208950 0.830629
O O1 0.778951 0.138469 0.433148
O O2 0.897916 0.292770 0.377668
O O3 0.856429 0.203202 0.239819
O O4 0.000000 0.122410 0.250000
O O5 0.903257 0.625939 0.186585
O O6 0.784127 0.810100 0.257491
O O7 0.877624 0.729137 0.059179
O O8 0.987453 0.823188 0.132217
O O9 0.366172 0.986480 0.483824
O O10 0.314298 0.602422 0.957513
O O11 0.193697 0.501618 0.145170
O O12 0.139982 0.685496 0.093119
O O13 0.130145 0.761586 0.943162
O O14 0.500000 0.999101 0.750000
O O15 0.600617 0.096736 0.834966
#
# Coordination Sequence:
#
# PCOD9273206 Si02
#       7
#     8   8   8   8   8   8   8
#     4  10  20  37  63  91 127 168 208 259 323 369
#     4  11  24  42  64  98 127 167 214 265 320 376
#     4  10  22  39  63  93 128 163 213 264 310 380
#     4  11  23  42  62  94 129 169 210 260 313 387
#     4  11  24  41  65  92 131 168 209 260 322 376
#     4  12  23  41  68  94 128 169 216 260 316 379
#     4  11  23  39  64  96 128 161 215 272 309 371
#
# _framework density 24.644452999999999
#
# number of rings (size 3 to 8) (size 9 to 14) (size 15 to 20)
#    0.000    1.143    4.286    2.143    2.000    1.143 
#    0.000    5.000    0.000    0.000    0.000    0.000 
#    0.000    0.000    0.000    0.000    0.000    0.000 
#
# Total GULP energy -156413.013552 kJ/mol
# GULP energy per Si atom -5586.179055 kJ/mol
# Density = 2.458836 g / cm^3
# Si number density = 24.644453 Si / 1000 Ang^3
#
#
#
# Elastic Constant Matrix: (Units=GPa)
#
#
# Indices 1 2 3 4 5 6 
#
# 1 110.5909 3.1908 19.2026 0.0000 -25.5187 0.0000
# 2 3.1908 45.9508 -13.6556 0.0000 6.5829 0.0000
# 3 19.2026 -13.6556 66.3570 0.0000 2.9202 0.0000
# 4 0.0000 0.0000 0.0000 20.3246 0.0000 -3.9879
# 5 -25.5187 6.5829 2.9202 0.0000 58.1088 0.0000
# 6 0.0000 0.0000 0.0000 -3.9879 0.0000 34.1688
#
#
#
# Elastic Compliance Matrix: (Units=1/GPa)
#
#
# Indices 1 2 3 4 5 6 
#
# 1 0.011052 -0.002723 -0.003995 0.000000 0.005363 0.000000
# 2 -0.002723 0.024339 0.005984 0.000000 -0.004254 0.000000
# 3 -0.003995 0.005984 0.017603 0.000000 -0.003317 0.000000
# 4 0.000000 0.000000 0.000000 0.050354 0.000000 0.005877
# 5 0.005363 -0.004254 -0.003317 0.000000 0.020213 0.000000
# 6 0.000000 0.000000 0.000000 0.005877 0.000000 0.029952
#
#
# Mechanical properties :
#
#
# Convention : Reuss Voigt Hill
#
# Bulk Modulus (GPa) = 19.40714 26.70826 23.05770
# Shear Modulus (GPa) = 29.04332 36.79785 32.92058
#
# Velocity S-wave (km/s) = 3.43664 3.86832 3.65885
# Velocity P-wave (km/s) = 4.86203 5.55093 5.21786
#
# Compressibility (1/GPa) = 0.05152742
#
# Stress axis : x y z
#
# Youngs Moduli (GPa) = 90.48195 41.08612 56.80741
#
# Poissons Ratio (x) = 0.11187 0.22692
# Poissons Ratio (y) = 0.24636 -0.33993
# Poissons Ratio (z) = 0.36144 -0.24585
#
# Static dielectric constant tensor:
#      x y z
#    x 2.001520 0.000000 -0.057200 
#    y 0.000000 1.966880 0.000000 
#    z -0.057200 0.000000 2.039530 
# 
# From -- ./inp_files/178349.got.cif
#   From: 2010.05.17/outbox.cif.g08.bks.cpg/sg15_90_cif.got.tgz:178349.got - 2010.06.03 18:47:42.
