data_PCOD9273558
_publ_section_title
;
Structure prediction by ZEFSAII (Michael W. Deem and Ramdas Pophale) SiO2 
 PCOD9273558
Probable space group: C 2/C
;
_chemical_formula_sum "Si O2"
_cell_formula_units_Z 48
_cell_length_a 5.240886
_cell_length_b 23.538821
_cell_length_c 17.346995
_cell_angle_alpha 90.000000
_cell_angle_beta 105.991825
_cell_angle_gamma 90.000000
_cell_volume 2057.183694
_symmetry_space_group_name_H-M "C 2/C"
_symmetry_group_IT_number 15
_symmetry_cell_setting 'monoclinic'
loop_
_space_group_symop_operation_xyz
x,y,z
-x,y,1/2-z
-x,-y,-z
x,-y,1/2+z
1/2+x,1/2+y,z
1/2-x,1/2+y,1/2-z
1/2-x,1/2-y,-z
1/2+x,1/2-y,1/2+z
loop_
_atom_site_type_symbol
_atom_site_label
_atom_site_fract_x
_atom_site_fract_y
_atom_site_fract_z
Si Si1 0.183993 0.193793 0.342848
Si Si2 0.000000 0.464072 0.750000
Si Si3 0.231578 0.625339 0.369928
Si Si4 0.199062 0.320324 0.341508
Si Si5 0.739936 0.461333 0.490159
Si Si6 0.000000 0.134136 0.750000
Si Si7 0.419314 0.931564 0.348211
O O1 0.473110 0.166823 0.348188
O O2 0.199077 0.258030 0.376747
O O3 0.000000 0.194092 0.250000
O O4 0.011057 0.156743 0.387256
O O5 0.778097 0.419418 0.702839
O O6 0.990478 0.506232 0.822916
O O7 0.215677 0.588846 0.446277
O O8 0.485601 0.328009 0.324348
O O9 0.000000 0.314283 0.250000
O O10 0.116895 0.378011 0.380067
O O11 0.500000 0.500000 0.500000
O O12 0.715682 0.437556 0.402012
O O13 0.000000 0.500000 0.500000
O O14 0.242823 0.092163 0.764078
#
# Coordination Sequence:
#
# PCOD9273558 Si02
#       7
#     8   4   8   8   8   4   8
#     4  11  23  43  69  98 134 174 227 280 336 399
#     4  12  22  41  66 102 133 166 230 280 332 396
#     4  12  26  43  66 102 136 180 221 275 340 410
#     4   9  21  39  66  98 129 172 226 288 338 387
#     4  12  28  46  67  96 145 187 219 274 345 417
#     4  10  20  37  70 100 125 172 224 290 332 390
#     4  11  24  42  66 101 133 172 232 281 339 396
#
# _framework density 23.332871000000001
#
# number of rings (size 3 to 8) (size 9 to 14) (size 15 to 20)
#    0.000    1.000    5.833    1.000   11.667    0.000 
#    0.000    1.667    0.000    0.000    0.000    0.000 
#    0.000    0.000    0.000    0.000    0.000    0.000 
#
# Total GULP energy -133663.261336 kJ/mol
# GULP energy per Si atom -5569.302556 kJ/mol
# Density = 2.327976 g / cm^3
# Si number density = 23.332871 Si / 1000 Ang^3
#
#
#
# Elastic Constant Matrix: (Units=GPa)
#
#
# Indices 1 2 3 4 5 6 
#
# 1 107.8987 54.3401 1.9381 0.0000 -24.7668 0.0000
# 2 54.3401 167.9916 24.5452 0.0000 -23.6840 0.0000
# 3 1.9381 24.5452 58.8633 0.0000 -22.0161 0.0000
# 4 0.0000 0.0000 0.0000 17.4889 0.0000 -10.6084
# 5 -24.7668 -23.6840 -22.0161 0.0000 32.5862 0.0000
# 6 0.0000 0.0000 0.0000 -10.6084 0.0000 31.2308
#
#
#
# Elastic Compliance Matrix: (Units=1/GPa)
#
#
# Indices 1 2 3 4 5 6 
#
# 1 0.013552 -0.003564 0.005250 0.000000 0.011257 0.000000
# 2 -0.003564 0.007643 -0.002683 0.000000 0.001034 0.000000
# 3 0.005250 -0.002683 0.025020 0.000000 0.018945 0.000000
# 4 0.000000 0.000000 0.000000 0.072018 0.000000 0.024463
# 5 0.011257 0.001034 0.018945 0.000000 0.052795 0.000000
# 6 0.000000 0.000000 0.000000 0.024463 0.000000 0.040329
#
#
# Mechanical properties :
#
#
# Convention : Reuss Voigt Hill
#
# Bulk Modulus (GPa) = 22.61285 55.15560 38.88423
# Shear Modulus (GPa) = 21.92102 33.18986 27.55544
#
# Velocity S-wave (km/s) = 3.06844 3.77563 3.44025
# Velocity P-wave (km/s) = 4.71871 6.53430 5.69927
#
# Compressibility (1/GPa) = 0.04422265
#
# Stress axis : x y z
#
# Youngs Moduli (GPa) = 73.78738 130.83457 39.96776
#
# Poissons Ratio (x) = 0.46627 -0.20984
# Poissons Ratio (y) = 0.26296 0.10724
# Poissons Ratio (z) = -0.38741 0.35105
#
# Static dielectric constant tensor:
#      x y z
#    x 2.015890 0.000000 -0.010550 
#    y 0.000000 1.967020 0.000000 
#    z -0.010550 0.000000 2.009840 
# 
# From -- ./inp_files/227304.got.cif
#   From: 2010.05.17/outbox.cif.g08.bks.cpg/sg15_114_cif.got.tgz:227304.got - 2010.06.03 18:47:42.
