data_PCOD9273125
_publ_section_title
;
Structure prediction by ZEFSAII (Michael W. Deem and Ramdas Pophale) SiO2 
 PCOD9273125
Probable space group: C 2/C
;
_chemical_formula_sum "Si O2"
_cell_formula_units_Z 60
_cell_length_a 22.122497
_cell_length_b 11.476140
_cell_length_c 13.286190
_cell_angle_alpha 90.000000
_cell_angle_beta 115.834170
_cell_angle_gamma 90.000000
_cell_volume 3035.997739
_symmetry_space_group_name_H-M "C 2/C"
_symmetry_group_IT_number 15
_symmetry_cell_setting 'monoclinic'
loop_
_space_group_symop_operation_xyz
x,y,z
-x,y,1/2-z
-x,-y,-z
x,-y,1/2+z
1/2+x,1/2+y,z
1/2-x,1/2+y,1/2-z
1/2-x,1/2-y,-z
1/2+x,1/2-y,1/2+z
loop_
_atom_site_type_symbol
_atom_site_label
_atom_site_fract_x
_atom_site_fract_y
_atom_site_fract_z
Si Si1 0.170671 0.386578 0.141357
Si Si2 0.564170 0.089351 0.390303
Si Si3 0.573523 0.553011 0.749844
Si Si4 0.973000 0.764308 0.438000
Si Si5 0.500000 0.117779 0.750000
Si Si6 0.417543 0.291387 0.811229
Si Si7 0.868202 0.611364 0.278160
Si Si8 0.294002 0.692361 0.622323
O O1 0.143379 0.265805 0.169762
O O2 0.158806 0.486663 0.213214
O O3 0.244722 0.387897 0.150770
O O4 0.123135 0.416224 0.012723
O O5 0.522815 0.202258 0.394359
O O6 0.591347 0.103922 0.297571
O O7 0.521356 0.970129 0.355216
O O8 0.500000 0.552589 0.750000
O O9 0.559918 0.622793 0.636239
O O10 0.593406 0.419784 0.740605
O O11 0.635525 0.623777 0.848416
O O12 0.914341 0.667424 0.398973
O O13 0.016985 0.791892 0.567359
O O14 0.439537 0.200238 0.740766
O O15 0.811324 0.702438 0.209512
O O16 0.250000 0.750000 0.500000
#
# Coordination Sequence:
#
# PCOD9273125 Si02
#       8
#     8   8   8   8   4   8   8   8
#     4  11  24  39  64  91 125 173 218 267 330 399
#     4  11  19  35  65  91 123 165 217 263 317 379
#     4  11  24  42  66  94 130 168 214 273 334 394
#     4  10  20  37  62  95 123 164 215 268 315 388
#     4  12  20  36  60  96 136 162 206 276 328 380
#     4  11  23  38  61  96 134 167 208 266 341 394
#     4  11  20  39  60  92 125 162 217 272 316 377
#     4  11  25  44  67  92 125 175 226 271 325 400
#
# _framework density 19.76286
#
# number of rings (size 3 to 8) (size 9 to 14) (size 15 to 20)
#    0.000    1.067    4.667    2.800    3.733    2.133 
#    0.000    0.000    0.000    2.400    0.000    0.000 
#    0.000    0.000    0.000    0.000    0.000    0.000 
#
# Total GULP energy -167313.261006 kJ/mol
# GULP energy per Si atom -5577.108700 kJ/mol
# Density = 1.971788 g / cm^3
# Si number density = 19.762860 Si / 1000 Ang^3
#
#
#
# Elastic Constant Matrix: (Units=GPa)
#
#
# Indices 1 2 3 4 5 6 
#
# 1 74.6055 26.6165 19.5680 0.0000 17.9064 0.0000
# 2 26.6165 121.8376 27.1701 0.0000 11.9936 0.0000
# 3 19.5680 27.1701 73.7615 0.0000 11.7571 0.0000
# 4 0.0000 0.0000 0.0000 21.7526 0.0000 -2.4277
# 5 17.9064 11.9936 11.7571 0.0000 20.3578 0.0000
# 6 0.0000 0.0000 0.0000 -2.4277 0.0000 26.5504
#
#
#
# Elastic Compliance Matrix: (Units=1/GPa)
#
#
# Indices 1 2 3 4 5 6 
#
# 1 0.017869 -0.002184 -0.001802 0.000000 -0.013391 0.000000
# 2 -0.002184 0.009471 -0.002562 0.000000 -0.002179 0.000000
# 3 -0.001802 -0.002562 0.015954 0.000000 -0.006120 0.000000
# 4 0.000000 0.000000 0.000000 0.046445 0.000000 0.004247
# 5 -0.013391 -0.002179 -0.006120 0.000000 0.065718 0.000000
# 6 0.000000 0.000000 0.000000 0.004247 0.000000 0.038053
#
#
# Mechanical properties :
#
#
# Convention : Reuss Voigt Hill
#
# Bulk Modulus (GPa) = 33.11309 46.32376 39.71842
# Shear Modulus (GPa) = 23.07645 26.85549 24.96597
#
# Velocity S-wave (km/s) = 3.42082 3.69031 3.55812
# Velocity P-wave (km/s) = 5.69160 6.45357 6.08452
#
# Compressibility (1/GPa) = 0.03019954
#
# Stress axis : x y z
#
# Youngs Moduli (GPa) = 55.96141 105.59085 62.67903
#
# Poissons Ratio (x) = 0.23059 0.11293
# Poissons Ratio (y) = 0.12221 0.16057
# Poissons Ratio (z) = 0.10083 0.27050
#
# Static dielectric constant tensor:
#      x y z
#    x 1.777850 0.000000 0.025150 
#    y 0.000000 1.744190 0.000000 
#    z 0.025150 0.000000 1.719940 
# 
# From -- ./inp_files/167696.got.cif
#   From: 2010.05.17/outbox.cif.g08.bks.cpg/sg15_84_cif.got.tgz:167696.got - 2010.06.03 18:47:42.
