data_PCOD9273740
_publ_section_title
;
Structure prediction by ZEFSAII (Michael W. Deem and Ramdas Pophale) SiO2 
 PCOD9273740
Probable space group: C 2/C
;
_chemical_formula_sum "Si O2"
_cell_formula_units_Z 52
_cell_length_a 8.060647
_cell_length_b 11.767859
_cell_length_c 24.557368
_cell_angle_alpha 90.000000
_cell_angle_beta 71.817963
_cell_angle_gamma 90.000000
_cell_volume 2213.118904
_symmetry_space_group_name_H-M "C 2/C"
_symmetry_group_IT_number 15
_symmetry_cell_setting 'monoclinic'
loop_
_space_group_symop_operation_xyz
x,y,z
-x,y,1/2-z
-x,-y,-z
x,-y,1/2+z
1/2+x,1/2+y,z
1/2-x,1/2+y,1/2-z
1/2-x,1/2-y,-z
1/2+x,1/2-y,1/2+z
loop_
_atom_site_type_symbol
_atom_site_label
_atom_site_fract_x
_atom_site_fract_y
_atom_site_fract_z
Si Si1 0.778025 0.340704 0.179242
Si Si2 0.750000 0.750000 0.000000
Si Si3 0.000000 0.580742 0.750000
Si Si4 0.587105 0.913270 0.069507
Si Si5 0.273879 0.417510 0.674615
Si Si6 0.000000 0.007435 0.250000
Si Si7 0.553880 0.529022 0.056244
Si Si8 0.344437 0.132420 0.502255
O O1 0.932713 0.385968 0.125241
O O2 0.728487 0.213343 0.167972
O O3 0.617642 0.426307 0.199912
O O4 0.862964 0.345156 0.230756
O O5 0.863048 0.846744 0.954013
O O6 0.744023 0.663905 0.943427
O O7 0.893205 0.497414 0.800935
O O8 0.612929 0.044908 0.051349
O O9 0.526647 0.851390 0.016667
O O10 0.377050 0.423927 0.721539
O O11 0.397208 0.465992 0.614771
O O12 0.500000 0.500000 0.000000
O O13 0.709523 0.440007 0.052719
O O14 0.250000 0.250000 0.500000
#
# Coordination Sequence:
#
# PCOD9273740 Si02
#       8
#     8   4   4   8   8   4   8   8
#     4  11  22  43  67  90 128 169 213 275 322 378
#     4  10  20  38  58  90 122 166 196 252 314 384
#     4  10  26  40  62 100 124 168 224 268 328 386
#     4  10  21  37  61  87 123 164 205 249 318 379
#     4  11  23  43  67  94 131 170 219 274 324 388
#     4  10  24  44  66  96 124 172 228 264 324 388
#     4  11  23  37  63  93 126 163 211 255 326 390
#     4  10  22  38  56  91 128 160 204 255 308 385
#
# _framework density 23.496251000000001
#
# number of rings (size 3 to 8) (size 9 to 14) (size 15 to 20)
#    0.000    1.538    1.538    2.769    4.308    0.000 
#    0.000    6.154    0.000    0.000    0.000    0.000 
#    0.000    0.000    0.000    0.000    0.000    0.000 
#
# Total GULP energy -144960.714810 kJ/mol
# GULP energy per Si atom -5575.412108 kJ/mol
# Density = 2.344277 g / cm^3
# Si number density = 23.496251 Si / 1000 Ang^3
#
#
#
# Elastic Constant Matrix: (Units=GPa)
#
#
# Indices 1 2 3 4 5 6 
#
# 1 49.3494 8.0953 -4.4203 0.0000 2.6333 0.0000
# 2 8.0953 173.0458 37.1796 0.0000 -12.2079 0.0000
# 3 -4.4203 37.1796 124.2939 0.0000 -43.0297 0.0000
# 4 0.0000 0.0000 0.0000 16.8783 0.0000 -5.2671
# 5 2.6333 -12.2079 -43.0297 0.0000 51.5648 0.0000
# 6 0.0000 0.0000 0.0000 -5.2671 0.0000 28.9705
#
#
#
# Elastic Compliance Matrix: (Units=1/GPa)
#
#
# Indices 1 2 3 4 5 6 
#
# 1 0.020570 -0.001194 0.000882 0.000000 -0.000597 0.000000
# 2 -0.001194 0.006245 -0.001937 0.000000 -0.000077 0.000000
# 3 0.000882 -0.001937 0.011928 0.000000 0.009450 0.000000
# 4 0.000000 0.000000 0.000000 0.062811 0.000000 0.011420
# 5 -0.000597 -0.000077 0.009450 0.000000 0.027291 0.000000
# 6 0.000000 0.000000 0.000000 0.011420 0.000000 0.036594
#
#
# Mechanical properties :
#
#
# Convention : Reuss Voigt Hill
#
# Bulk Modulus (GPa) = 29.20132 47.59981 38.40056
# Shear Modulus (GPa) = 27.57043 39.87168 33.72106
#
# Velocity S-wave (km/s) = 3.42920 4.12386 3.79247
# Velocity P-wave (km/s) = 5.30418 6.55572 5.96287
#
# Compressibility (1/GPa) = 0.03424503
#
# Stress axis : x y z
#
# Youngs Moduli (GPa) = 48.61356 160.11589 83.83795
#
# Poissons Ratio (x) = 0.19117 -0.07394
# Poissons Ratio (y) = 0.05804 0.16242
# Poissons Ratio (z) = -0.04288 0.31020
#
# Static dielectric constant tensor:
#      x y z
#    x 1.442910 0.000000 0.303890 
#    y 0.000000 1.331460 0.000000 
#    z 0.303890 0.000000 1.841340 
# 
# From -- ./inp_files/287613.got.cif
#   From: 2010.05.17/outbox.cif.g08.bks.cpg/sg15_144_cif.got.tgz:287613.got - 2010.06.03 18:47:42.
