data_PCOD9273042
_publ_section_title
;
Structure prediction by ZEFSAII (Michael W. Deem and Ramdas Pophale) SiO2 
 PCOD9273042
Probable space group: C 2/C
;
_chemical_formula_sum "Si O2"
_cell_formula_units_Z 56
_cell_length_a 19.197635
_cell_length_b 28.758154
_cell_length_c 9.405860
_cell_angle_alpha 90.000000
_cell_angle_beta 30.299627
_cell_angle_gamma 90.000000
_cell_volume 2619.915938
_symmetry_space_group_name_H-M "C 2/C"
_symmetry_group_IT_number 15
_symmetry_cell_setting 'monoclinic'
loop_
_space_group_symop_operation_xyz
x,y,z
-x,y,1/2-z
-x,-y,-z
x,-y,1/2+z
1/2+x,1/2+y,z
1/2-x,1/2+y,1/2-z
1/2-x,1/2-y,-z
1/2+x,1/2-y,1/2+z
loop_
_atom_site_type_symbol
_atom_site_label
_atom_site_fract_x
_atom_site_fract_y
_atom_site_fract_z
Si Si1 0.138533 0.976566 0.183739
Si Si2 0.342839 0.139756 0.054516
Si Si3 0.024251 0.881470 0.376499
Si Si4 0.725350 0.196868 0.589789
Si Si5 0.654381 0.700052 0.827241
Si Si6 0.405873 0.798974 0.684708
Si Si7 0.217601 0.047288 0.234551
O O1 0.140358 0.921183 0.203095
O O2 0.252875 0.007971 0.058886
O O3 0.155004 0.977962 0.984418
O O4 0.000000 0.000000 0.500000
O O5 0.500000 0.153306 0.750000
O O6 0.258162 0.165188 0.079207
O O7 0.318160 0.163448 0.248651
O O8 0.332067 0.084370 0.077337
O O9 0.892724 0.915393 0.634609
O O10 0.000000 0.870626 0.250000
O O11 0.064828 0.837183 0.396801
O O12 0.750000 0.250000 0.500000
O O13 0.827263 0.186925 0.540827
O O14 0.566442 0.189006 0.920907
O O15 0.593262 0.751112 0.906523
O O16 0.811252 0.705907 0.489962
#
# Coordination Sequence:
#
# PCOD9273042 Si02
#       7
#     8   8   8   8   8   8   8
#     4   9  18  35  59  88 122 154 188 252 325 362
#     4  10  22  42  61  83 125 170 204 252 318 360
#     4   9  19  34  57  89 121 151 194 251 310 367
#     4  11  23  39  57  83 123 162 209 258 304 355
#     4  11  22  36  62  91 115 161 214 255 302 374
#     4  10  22  38  58  84 122 163 205 260 310 356
#     4  10  20  37  62  89 122 162 200 256 314 387
#
# _framework density 21.374732000000002
#
# number of rings (size 3 to 8) (size 9 to 14) (size 15 to 20)
#    0.000    2.000    1.429    3.429    2.000    3.429 
#    0.000    2.143    0.000    1.714    0.000    0.000 
#    0.000    0.000    0.000    0.000    0.000    0.000 
#
# Total GULP energy -155929.651521 kJ/mol
# GULP energy per Si atom -5568.916126 kJ/mol
# Density = 2.132608 g / cm^3
# Si number density = 21.374732 Si / 1000 Ang^3
#
#
#
# Elastic Constant Matrix: (Units=GPa)
#
#
# Indices 1 2 3 4 5 6 
#
# 1 127.4568 74.4956 13.5556 0.0000 13.3902 0.0000
# 2 74.4956 137.0400 12.3018 0.0000 12.9389 0.0000
# 3 13.5556 12.3018 42.8441 0.0001 0.6231 -0.0001
# 4 0.0000 0.0000 0.0001 25.8905 -0.0001 1.2987
# 5 13.3902 12.9389 0.6231 -0.0001 18.3865 0.0000
# 6 0.0000 0.0000 -0.0001 1.2987 0.0000 44.5613
#
#
#
# Elastic Compliance Matrix: (Units=1/GPa)
#
#
# Indices 1 2 3 4 5 6 
#
# 1 0.011989 -0.005910 -0.002031 0.000000 -0.004504 0.000000
# 2 -0.005910 0.010936 -0.001221 0.000000 -0.003350 0.000000
# 3 -0.002031 -0.001221 0.024312 0.000000 0.001515 0.000000
# 4 0.000000 0.000000 0.000000 0.038681 0.000000 -0.001127
# 5 -0.004504 -0.003350 0.001515 0.000000 0.059974 0.000000
# 6 0.000000 0.000000 0.000000 -0.001127 0.000000 0.022474
#
#
# Mechanical properties :
#
#
# Convention : Reuss Voigt Hill
#
# Bulk Modulus (GPa) = 34.58744 56.44965 45.51854
# Shear Modulus (GPa) = 25.46779 31.56686 28.51733
#
# Velocity S-wave (km/s) = 3.45554 3.84712 3.65658
# Velocity P-wave (km/s) = 5.66900 6.79711 6.25853
#
# Compressibility (1/GPa) = 0.02891223
#
# Stress axis : x y z
#
# Youngs Moduli (GPa) = 83.40947 91.44357 41.13252
#
# Poissons Ratio (x) = 0.54041 0.08354
# Poissons Ratio (y) = 0.49293 0.05024
# Poissons Ratio (z) = 0.16940 0.11169
#
# Static dielectric constant tensor:
#      x y z
#    x 1.872420 0.000000 -0.024640 
#    y 0.000000 1.776070 0.000000 
#    z -0.024640 0.000000 1.874170 
# 
# From -- ./inp_files/52294.got.cif
#   From: 2010.05.17/outbox.cif.g08.bks.cpg/sg15_27_cif.got.tgz:52294.got - 2010.06.03 18:47:42.
