data_PCOD9273825
_publ_section_title
;
Structure prediction by ZEFSAII (Michael W. Deem and Ramdas Pophale) SiO2 
 PCOD9273825
Probable space group: C 2/C
;
_chemical_formula_sum "Si O2"
_cell_formula_units_Z 48
_cell_length_a 7.273901
_cell_length_b 19.364333
_cell_length_c 14.398521
_cell_angle_alpha 90.000000
_cell_angle_beta 75.707919
_cell_angle_gamma 90.000000
_cell_volume 1965.322996
_symmetry_space_group_name_H-M "C 2/C"
_symmetry_group_IT_number 15
_symmetry_cell_setting 'monoclinic'
loop_
_space_group_symop_operation_xyz
x,y,z
-x,y,1/2-z
-x,-y,-z
x,-y,1/2+z
1/2+x,1/2+y,z
1/2-x,1/2+y,1/2-z
1/2-x,1/2-y,-z
1/2+x,1/2-y,1/2+z
loop_
_atom_site_type_symbol
_atom_site_label
_atom_site_fract_x
_atom_site_fract_y
_atom_site_fract_z
Si Si1 0.278962 0.627795 0.463576
Si Si2 0.784589 0.477309 0.045460
Si Si3 0.771542 0.513624 0.765237
Si Si4 0.193689 0.342885 0.168157
Si Si5 0.764237 0.804746 0.779256
Si Si6 0.187934 0.119440 0.395120
O O1 0.318603 0.546854 0.474064
O O2 0.156821 0.657092 0.562603
O O3 0.204369 0.643851 0.370075
O O4 0.490321 0.657397 0.441762
O O5 0.743798 0.473172 0.159547
O O6 0.755258 0.411927 0.983667
O O7 0.000000 0.500000 0.000000
O O8 0.706933 0.584434 0.822437
O O9 0.677380 0.446875 0.824894
O O10 0.000000 0.504030 0.750000
O O11 0.291735 0.272502 0.186309
O O12 0.000000 0.346225 0.250000
O O13 0.700584 0.827774 0.685068
O O14 0.000000 0.807542 0.750000
#
# Coordination Sequence:
#
# PCOD9273825 Si02
#       6
#     8   8   8   8   8   8
#     4  11  21  37  64  93 121 160 209 264 306 361
#     4  12  22  36  61  91 121 162 203 253 306 371
#     4  11  21  37  61  90 124 165 206 251 307 372
#     4  10  20  38  59  89 125 165 213 253 303 377
#     4   9  20  37  62  90 125 164 204 256 311 371
#     4  11  22  39  60  97 125 154 207 260 314 360
#
# _framework density 24.423466999999999
#
# number of rings (size 3 to 8) (size 9 to 14) (size 15 to 20)
#    0.000    1.333    5.000    2.000    0.000    0.000 
#    0.000    0.833    0.000    4.000    0.000    0.000 
#    0.000    0.000    0.000    0.000    0.000    0.000 
#
# Total GULP energy -134051.463146 kJ/mol
# GULP energy per Si atom -5585.477631 kJ/mol
# Density = 2.436788 g / cm^3
# Si number density = 24.423467 Si / 1000 Ang^3
#
#
#
# Elastic Constant Matrix: (Units=GPa)
#
#
# Indices 1 2 3 4 5 6 
#
# 1 42.8420 -18.0100 21.7037 0.0000 -2.7894 0.0000
# 2 -18.0100 82.4219 22.1341 0.0000 8.8075 0.0000
# 3 21.7037 22.1341 192.3508 0.0000 17.5945 0.0000
# 4 0.0000 0.0000 0.0000 -28.6455 0.0000 21.4217
# 5 -2.7894 8.8075 17.5945 0.0000 36.2309 0.0000
# 6 0.0000 0.0000 0.0000 21.4217 0.0000 10.1723
#
#
#
# Elastic Compliance Matrix: (Units=1/GPa)
#
#
# Indices 1 2 3 4 5 6 
#
# 1 0.028688 0.007149 -0.004293 0.000000 0.002556 0.000000
# 2 0.007149 0.014513 -0.002307 0.000000 -0.001857 0.000000
# 3 -0.004293 -0.002307 0.006203 0.000000 -0.002782 0.000000
# 4 0.000000 0.000000 0.000000 -0.013558 0.000000 0.028552
# 5 0.002556 -0.001857 -0.002782 0.000000 0.029600 0.000000
# 6 0.000000 0.000000 0.000000 0.028552 0.000000 0.038180
#
#
# Mechanical properties :
#
#
# Convention : Reuss Voigt Hill
#
# Bulk Modulus (GPa) = 19.80164 41.03003 30.41584
# Shear Modulus (GPa) = 41.88916 23.00399 32.44658
#
# Velocity S-wave (km/s) = 4.14589 3.07234 3.64881
# Velocity P-wave (km/s) = 5.57164 5.42417 5.49840
#
# Compressibility (1/GPa) = 0.05050086
#
# Stress axis : x y z
#
# Youngs Moduli (GPa) = 34.85763 68.90538 161.20712
#
# Poissons Ratio (x) = -0.49257 0.69212
# Poissons Ratio (y) = -0.24918 0.37186
# Poissons Ratio (z) = 0.14966 0.15894
#
# Static dielectric constant tensor:
#      x y z
#    x 2.224590 0.000000 -0.112910 
#    y 0.000000 2.036160 0.000000 
#    z -0.112910 0.000000 2.005950 
# 
# From -- ./inp_files/135907.got.cif
#   From: 2010.05.17/outbox.cif.g08.bks.cpg/sg15_68_cif.got.tgz:135907.got - 2010.06.03 18:47:42.
