data_PCOD9273773
_publ_section_title
;
Structure prediction by ZEFSAII (Michael W. Deem and Ramdas Pophale) SiO2 
 PCOD9273773
Probable space group: C 2/C
;
_chemical_formula_sum "Si O2"
_cell_formula_units_Z 44
_cell_length_a 11.798502
_cell_length_b 29.675346
_cell_length_c 13.999040
_cell_angle_alpha 90.000000
_cell_angle_beta 147.437881
_cell_angle_gamma 90.000000
_cell_volume 2638.005214
_symmetry_space_group_name_H-M "C 2/C"
_symmetry_group_IT_number 15
_symmetry_cell_setting 'monoclinic'
loop_
_space_group_symop_operation_xyz
x,y,z
-x,y,1/2-z
-x,-y,-z
x,-y,1/2+z
1/2+x,1/2+y,z
1/2-x,1/2+y,1/2-z
1/2-x,1/2-y,-z
1/2+x,1/2-y,1/2+z
loop_
_atom_site_type_symbol
_atom_site_label
_atom_site_fract_x
_atom_site_fract_y
_atom_site_fract_z
Si Si1 0.288569 0.302611 0.038569
Si Si2 0.500000 0.478314 0.750000
Si Si3 0.100634 0.628608 0.540068
Si Si4 0.872248 0.889773 0.750000
Si Si5 0.979503 0.128608 0.540068
Si Si6 0.209580 0.445402 0.959580
O O1 0.500000 0.308839 0.250000
O O2 0.115220 0.329231 0.977086
O O3 0.338953 0.329231 0.977086
O O4 0.250000 0.250000 0.000000
O O5 0.394123 0.443798 0.750000
O O6 0.328904 0.510180 0.578904
O O7 0.286836 0.632446 0.750000
O O8 0.149743 0.585268 0.508509
O O9 0.871080 0.623955 0.421406
O O10 0.000000 0.870627 0.750000
O O11 0.971733 0.876045 0.921407
O O12 0.867275 0.085268 0.508509
O O13 0.000000 0.454464 0.750000
#
# Coordination Sequence:
#
# PCOD9273773 Si02
#       6
#     8   4   8   8   8   8
#     4   9  20  33  61 102 112 130 178 227 296 351
#     4  10  24  38  48  88 106 142 222 228 260 352
#     4  10  20  38  59  81 120 148 175 242 295 327
#     4  10  24  39  53  81 105 168 200 209 281 338
#     4  10  20  38  59  81 120 148 175 242 295 327
#     4  11  19  35  58  82 111 146 188 248 302 318
#
# _framework density 16.679269999999999
#
# number of rings (size 3 to 8) (size 9 to 14) (size 15 to 20)
#    0.545    1.455    3.636    1.091    2.545    3.636 
#    0.000    0.000    0.000    1.091    0.000    0.000 
#    0.000    0.000    0.000    0.000    0.000    0.000 
#
# Total GULP energy -122643.199699 kJ/mol
# GULP energy per Si atom -5574.690895 kJ/mol
# Density = 1.664131 g / cm^3
# Si number density = 16.679270 Si / 1000 Ang^3
#
#
#
# Elastic Constant Matrix: (Units=GPa)
#
#
# Indices 1 2 3 4 5 6 
#
# 1 150.3414 54.3863 68.9410 0.0000 1.2029 0.0000
# 2 54.3863 117.7701 42.8610 0.0000 0.7560 0.0000
# 3 68.9410 42.8610 132.4554 0.0000 -0.0303 0.0001
# 4 0.0000 0.0000 0.0000 26.0373 0.0000 0.4012
# 5 1.2029 0.7560 -0.0303 0.0000 31.6098 0.0000
# 6 0.0000 0.0000 0.0001 0.4012 0.0000 32.1526
#
#
#
# Elastic Compliance Matrix: (Units=1/GPa)
#
#
# Indices 1 2 3 4 5 6 
#
# 1 0.009567 -0.002952 -0.004025 0.000000 -0.000297 0.000000
# 2 -0.002952 0.010537 -0.001873 0.000000 -0.000141 0.000000
# 3 -0.004025 -0.001873 0.010251 0.000000 0.000208 0.000000
# 4 0.000000 0.000000 0.000000 0.038414 0.000000 -0.000479
# 5 -0.000297 -0.000141 0.000208 0.000000 0.031651 0.000000
# 6 0.000000 0.000000 0.000000 -0.000479 0.000000 0.031108
#
#
# Mechanical properties :
#
#
# Convention : Reuss Voigt Hill
#
# Bulk Modulus (GPa) = 79.01559 81.43816 80.22687
# Shear Modulus (GPa) = 32.58511 33.58518 33.08515
#
# Velocity S-wave (km/s) = 4.42478 4.49217 4.45860
# Velocity P-wave (km/s) = 8.57796 8.70851 8.64348
#
# Compressibility (1/GPa) = 0.01265573
#
# Stress axis : x y z
#
# Youngs Moduli (GPa) = 104.52458 94.90506 97.55449
#
# Poissons Ratio (x) = 0.28011 0.39261
# Poissons Ratio (y) = 0.30851 0.18276
# Poissons Ratio (z) = 0.42066 0.17780
#
# Static dielectric constant tensor:
#      x y z
#    x 1.550540 0.000000 -0.001320 
#    y 0.000000 1.570940 0.000000 
#    z -0.001320 0.000000 1.570720 
# 
# From -- ./inp_files/149072.got.cif
#   From: 2010.05.17/outbox.cif.g08.bks.cpg/sg15_75_cif.got.tgz:149072.got - 2010.06.03 18:47:42.
