data_PCOD9273722
_publ_section_title
;
Structure prediction by ZEFSAII (Michael W. Deem and Ramdas Pophale) SiO2 
 PCOD9273722
Probable space group: C 2/C
;
_chemical_formula_sum "Si O2"
_cell_formula_units_Z 52
_cell_length_a 10.071115
_cell_length_b 9.957736
_cell_length_c 24.359330
_cell_angle_alpha 90.000000
_cell_angle_beta 66.822075
_cell_angle_gamma 90.000000
_cell_volume 2245.715022
_symmetry_space_group_name_H-M "C 2/C"
_symmetry_group_IT_number 15
_symmetry_cell_setting 'monoclinic'
loop_
_space_group_symop_operation_xyz
x,y,z
-x,y,1/2-z
-x,-y,-z
x,-y,1/2+z
1/2+x,1/2+y,z
1/2-x,1/2+y,1/2-z
1/2-x,1/2-y,-z
1/2+x,1/2-y,1/2+z
loop_
_atom_site_type_symbol
_atom_site_label
_atom_site_fract_x
_atom_site_fract_y
_atom_site_fract_z
Si Si1 0.735439 0.613639 0.119286
Si Si2 0.558104 0.113117 0.046043
Si Si3 0.165313 0.510393 0.215197
Si Si4 0.321581 0.636246 0.929304
Si Si5 0.694324 0.111131 0.588879
Si Si6 0.164394 0.212103 0.244942
Si Si7 0.000000 0.000000 0.500000
O O1 0.672929 0.465410 0.122162
O O2 0.648460 0.734353 0.104660
O O3 0.756704 0.657503 0.178344
O O4 0.889595 0.617785 0.064820
O O5 0.607942 0.218118 0.085322
O O6 0.595664 0.967030 0.062408
O O7 0.657656 0.153040 0.978227
O O8 0.183221 0.459080 0.150202
O O9 0.182937 0.372317 0.247937
O O10 0.281517 0.622450 0.213443
O O11 0.000000 0.558100 0.250000
O O12 0.404631 0.561059 0.964712
O O13 0.858055 0.089517 0.543004
O O14 0.000000 0.190673 0.250000
#
# Coordination Sequence:
#
# PCOD9273722 Si02
#       7
#     8   8   8   8   8   8   4
#     4  11  22  40  62  86 119 162 196 247 300 359
#     4  10  21  40  55  90 119 155 200 247 287 362
#     4  10  22  43  63  90 125 162 202 259 297 364
#     4  10  22  38  60  85 124 153 201 244 294 356
#     4  10  22  39  63  87 124 158 198 245 303 352
#     4  10  24  39  62  93 122 154 211 250 304 359
#     4  10  20  38  58  88 116 158 190 240 298 358
#
# _framework density 23.15521
#
# number of rings (size 3 to 8) (size 9 to 14) (size 15 to 20)
#    0.000    1.846    1.538    1.385    2.154    4.308 
#    8.308    0.000    0.000    0.000    0.000    0.000 
#    0.000    0.000    0.000    0.000    0.000    0.000 
#
# Total GULP energy -144763.659773 kJ/mol
# GULP energy per Si atom -5567.833068 kJ/mol
# Density = 2.310251 g / cm^3
# Si number density = 23.155210 Si / 1000 Ang^3
#
#
#
# Elastic Constant Matrix: (Units=GPa)
#
#
# Indices 1 2 3 4 5 6 
#
# 1 55.3047 14.2860 0.0694 0.0000 -7.6069 0.0000
# 2 14.2860 77.1528 3.9682 0.0000 1.8759 0.0000
# 3 0.0694 3.9682 22.7392 0.0000 -1.0119 0.0000
# 4 0.0000 0.0000 0.0000 30.8428 0.0000 9.0956
# 5 -7.6069 1.8759 -1.0119 0.0000 10.3986 0.0000
# 6 0.0000 0.0000 0.0000 9.0956 0.0000 20.0735
#
#
#
# Elastic Compliance Matrix: (Units=1/GPa)
#
#
# Indices 1 2 3 4 5 6 
#
# 1 0.021531 -0.004468 0.001457 0.000000 0.016698 0.000000
# 2 -0.004468 0.014076 -0.002713 0.000000 -0.006071 0.000000
# 3 0.001457 -0.002713 0.044709 0.000000 0.005906 0.000000
# 4 0.000000 0.000000 0.000000 0.037423 0.000000 -0.016957
# 5 0.016698 -0.006071 0.005906 0.000000 0.110052 0.000000
# 6 0.000000 0.000000 0.000000 -0.016957 0.000000 0.057501
#
#
# Mechanical properties :
#
#
# Convention : Reuss Voigt Hill
#
# Bulk Modulus (GPa) = 14.52055 21.31599 17.91827
# Shear Modulus (GPa) = 15.63997 21.38783 18.51390
#
# Velocity S-wave (km/s) = 2.60174 3.04250 2.83071
# Velocity P-wave (km/s) = 3.91280 4.64414 4.29407
#
# Compressibility (1/GPa) = 0.06886793
#
# Stress axis : x y z
#
# Youngs Moduli (GPa) = 46.44543 71.04437 22.36700
#
# Poissons Ratio (x) = 0.31740 -0.03259
# Poissons Ratio (y) = 0.20750 0.06068
# Poissons Ratio (z) = -0.06767 0.19274
#
# Static dielectric constant tensor:
#      x y z
#    x 1.823020 0.000000 -0.020050 
#    y 0.000000 1.916750 0.000000 
#    z -0.020050 0.000000 1.929730 
# 
# From -- ./inp_files/309894.got.cif
#   From: 2010.05.17/outbox.cif.g08.bks.cpg/sg15_155_cif.got.tgz:309894.got - 2010.06.03 18:47:42.
