data_PCOD9273091
_publ_section_title
;
Structure prediction by ZEFSAII (Michael W. Deem and Ramdas Pophale) SiO2 
 PCOD9273091
Probable space group: C 2/C
;
_chemical_formula_sum "Si O2"
_cell_formula_units_Z 56
_cell_length_a 28.122701
_cell_length_b 7.764456
_cell_length_c 18.898532
_cell_angle_alpha 90.000000
_cell_angle_beta 137.776630
_cell_angle_gamma 90.000000
_cell_volume 2773.192859
_symmetry_space_group_name_H-M "C 2/C"
_symmetry_group_IT_number 15
_symmetry_cell_setting 'monoclinic'
loop_
_space_group_symop_operation_xyz
x,y,z
-x,y,1/2-z
-x,-y,-z
x,-y,1/2+z
1/2+x,1/2+y,z
1/2-x,1/2+y,1/2-z
1/2-x,1/2-y,-z
1/2+x,1/2-y,1/2+z
loop_
_atom_site_type_symbol
_atom_site_label
_atom_site_fract_x
_atom_site_fract_y
_atom_site_fract_z
Si Si1 0.804295 0.118162 0.598353
Si Si2 0.681478 0.326702 0.106626
Si Si3 0.321487 0.005731 0.958391
Si Si4 0.470204 0.647447 0.518145
Si Si5 0.121858 0.877634 0.457512
Si Si6 0.167252 0.649549 0.683639
Si Si7 0.618735 0.208939 0.184371
O O1 0.750000 0.250000 0.500000
O O2 0.748184 0.987852 0.570751
O O3 0.860472 0.057619 0.601559
O O4 0.845258 0.207477 0.707743
O O5 0.677577 0.515977 0.068199
O O6 0.763024 0.272238 0.205272
O O7 0.644452 0.310163 0.141976
O O8 0.645535 0.182622 0.016684
O O9 0.367629 0.169920 0.035254
O O10 0.306205 0.072361 0.862035
O O11 0.500000 0.500000 0.500000
O O12 0.448331 0.589260 0.573587
O O13 0.399630 0.730418 0.406583
O O14 0.534227 0.780910 0.595183
O O15 0.142414 0.486973 0.701513
#
# Coordination Sequence:
#
# PCOD9273091 Si02
#       7
#     8   8   8   8   8   8   8
#     4  10  20  37  62  91 125 159 201 253 315 368
#     4  11  21  36  65  94 118 159 210 259 303 358
#     4   9  20  33  57  88 123 151 195 251 308 350
#     4  11  23  38  60  90 127 160 210 255 309 362
#     4  10  22  40  58  89 126 161 205 255 308 375
#     4  10  21  35  60  95 120 153 212 259 300 359
#     4  11  22  38  63  88 126 166 203 257 312 367
#
# _framework density 20.193332000000002
#
# number of rings (size 3 to 8) (size 9 to 14) (size 15 to 20)
#    0.000    1.714    2.857    2.143    8.000    1.143 
#    0.000    0.000    0.000    0.000    3.714    0.000 
#    0.000    0.000    0.000    0.000    0.000    0.000 
#
# Total GULP energy -155967.541437 kJ/mol
# GULP energy per Si atom -5570.269337 kJ/mol
# Density = 2.014737 g / cm^3
# Si number density = 20.193332 Si / 1000 Ang^3
#
#
#
# Elastic Constant Matrix: (Units=GPa)
#
#
# Indices 1 2 3 4 5 6 
#
# 1 175.6994 31.8859 31.6521 0.0000 -6.9816 0.0000
# 2 31.8859 52.5256 16.5708 0.0001 0.7712 0.0000
# 3 31.6521 16.5708 49.6251 0.0000 5.7420 0.0000
# 4 0.0000 0.0001 0.0000 20.4929 0.0000 2.9520
# 5 -6.9816 0.7712 5.7420 0.0000 33.3818 0.0000
# 6 0.0000 0.0000 0.0000 2.9520 0.0000 34.3624
#
#
#
# Elastic Compliance Matrix: (Units=1/GPa)
#
#
# Indices 1 2 3 4 5 6 
#
# 1 0.007007 -0.003126 -0.003677 0.000000 0.002170 0.000000
# 2 -0.003126 0.022693 -0.005558 0.000000 -0.000222 0.000000
# 3 -0.003677 -0.005558 0.024922 0.000000 -0.004927 0.000000
# 4 0.000000 0.000000 0.000000 0.049409 0.000000 -0.004245
# 5 0.002170 -0.000222 -0.004927 0.000000 0.031263 0.000000
# 6 0.000000 0.000000 0.000000 -0.004245 0.000000 0.029466
#
#
# Mechanical properties :
#
#
# Convention : Reuss Voigt Hill
#
# Bulk Modulus (GPa) = 33.44383 48.67419 41.05901
# Shear Modulus (GPa) = 25.06906 30.83016 27.94961
#
# Velocity S-wave (km/s) = 3.52725 3.91160 3.72439
# Velocity P-wave (km/s) = 5.76076 6.67512 6.23473
#
# Compressibility (1/GPa) = 0.02990088
#
# Stress axis : x y z
#
# Youngs Moduli (GPa) = 142.70577 44.06720 40.12456
#
# Poissons Ratio (x) = 0.13774 0.14753
# Poissons Ratio (y) = 0.44607 0.22302
# Poissons Ratio (z) = 0.52471 0.24493
#
# Static dielectric constant tensor:
#      x y z
#    x 1.753820 0.000000 0.002300 
#    y 0.000000 1.798300 0.000000 
#    z 0.002300 0.000000 1.725120 
# 
# From -- ./inp_files/222085.got.cif
#   From: 2010.05.17/outbox.cif.g08.bks.cpg/sg15_112_cif.got.tgz:222085.got - 2010.06.03 18:47:42.
