data_PCOD9273216
_publ_section_title
;
Structure prediction by ZEFSAII (Michael W. Deem and Ramdas Pophale) SiO2 
 PCOD9273216
Probable space group: C 2/C
;
_chemical_formula_sum "Si O2"
_cell_formula_units_Z 48
_cell_length_a 21.790976
_cell_length_b 11.043143
_cell_length_c 11.662095
_cell_angle_alpha 90.000000
_cell_angle_beta 127.502905
_cell_angle_gamma 90.000000
_cell_volume 2226.361641
_symmetry_space_group_name_H-M "C 2/C"
_symmetry_group_IT_number 15
_symmetry_cell_setting 'monoclinic'
loop_
_space_group_symop_operation_xyz
x,y,z
-x,y,1/2-z
-x,-y,-z
x,-y,1/2+z
1/2+x,1/2+y,z
1/2-x,1/2+y,1/2-z
1/2-x,1/2-y,-z
1/2+x,1/2-y,1/2+z
loop_
_atom_site_type_symbol
_atom_site_label
_atom_site_fract_x
_atom_site_fract_y
_atom_site_fract_z
Si Si1 0.241225 0.147464 0.587631
Si Si2 0.982326 0.529273 0.612759
Si Si3 0.672609 0.529673 0.307803
Si Si4 0.376209 0.284336 0.345749
Si Si5 0.970262 0.204407 0.338553
Si Si6 0.677047 0.964354 0.676155
O O1 0.250000 0.250000 0.500000
O O2 0.178039 0.194729 0.604825
O O3 0.206262 0.039165 0.473210
O O4 0.311244 0.088560 0.739340
O O5 0.889101 0.536267 0.496973
O O6 0.000000 0.456112 0.750000
O O7 0.000000 0.500000 0.500000
O O8 0.033352 0.651546 0.686821
O O9 0.641097 0.395135 0.255841
O O10 0.606045 0.630765 0.217028
O O11 0.740501 0.552923 0.292552
O O12 0.463613 0.298955 0.489450
O O13 0.351175 0.149741 0.278975
O O14 0.000000 0.152690 0.250000
#
# Coordination Sequence:
#
# PCOD9273216 Si02
#       6
#     8   8   8   8   8   8
#     4  11  22  37  66  92 125 174 213 271 342 411
#     4  10  24  41  68  98 137 182 229 288 347 418
#     4  11  22  36  66  90 127 171 220 278 339 408
#     4  10  21  40  57  92 125 165 220 276 332 406
#     4  10  20  37  63  92 123 175 230 274 340 414
#     4  10  24  39  63  99 129 167 228 283 341 407
#
# _framework density 21.559840000000001
#
# number of rings (size 3 to 8) (size 9 to 14) (size 15 to 20)
#    0.000    1.667    3.333    0.500    4.667    0.667 
#    0.000    0.000   14.667    0.000    0.000    0.000 
#    0.000    0.000    0.000    0.000    0.000    0.000 
#
# Total GULP energy -133689.209021 kJ/mol
# GULP energy per Si atom -5570.383709 kJ/mol
# Density = 2.151077 g / cm^3
# Si number density = 21.559840 Si / 1000 Ang^3
#
#
#
# Elastic Constant Matrix: (Units=GPa)
#
#
# Indices 1 2 3 4 5 6 
#
# 1 97.6901 23.7684 34.1054 0.0000 16.5415 0.0000
# 2 23.7684 55.4375 31.1662 0.0000 1.9080 0.0000
# 3 34.1054 31.1662 82.3964 0.0000 10.2787 0.0000
# 4 0.0000 0.0000 0.0000 44.4825 0.0000 0.1312
# 5 16.5415 1.9080 10.2787 0.0000 41.6810 0.0000
# 6 0.0000 0.0000 0.0000 0.1312 0.0000 31.9388
#
#
#
# Elastic Compliance Matrix: (Units=1/GPa)
#
#
# Indices 1 2 3 4 5 6 
#
# 1 0.013018 -0.003429 -0.003577 0.000000 -0.004127 0.000000
# 2 -0.003429 0.023864 -0.007883 0.000000 0.002212 0.000000
# 3 -0.003577 -0.007883 0.016896 0.000000 -0.002386 0.000000
# 4 0.000000 0.000000 0.000000 0.022481 0.000000 -0.000092
# 5 -0.004127 0.002212 -0.002386 0.000000 0.026117 0.000000
# 6 0.000000 0.000000 0.000000 -0.000092 0.000000 0.031310
#
#
# Mechanical properties :
#
#
# Convention : Reuss Voigt Hill
#
# Bulk Modulus (GPa) = 41.66424 45.95601 43.81012
# Shear Modulus (GPa) = 29.16049 33.38607 31.27328
#
# Velocity S-wave (km/s) = 3.68168 3.93941 3.81272
# Velocity P-wave (km/s) = 6.11881 6.48489 6.30451
#
# Compressibility (1/GPa) = 0.02400140
#
# Stress axis : x y z
#
# Youngs Moduli (GPa) = 76.81537 41.90396 59.18395
#
# Poissons Ratio (x) = 0.14367 0.21169
# Poissons Ratio (y) = 0.26337 0.46657
# Poissons Ratio (z) = 0.27475 0.33034
#
# Static dielectric constant tensor:
#      x y z
#    x 1.848160 0.000000 -0.004120 
#    y 0.000000 1.904220 0.000000 
#    z -0.004120 0.000000 1.835900 
# 
# From -- ./inp_files/111781.got.cif
#   From: 2010.05.17/outbox.cif.g08.bks.cpg/sg15_56_cif.got.tgz:111781.got - 2010.06.03 18:47:42.
