data_PCOD9273339
_publ_section_title
;
Structure prediction by ZEFSAII (Michael W. Deem and Ramdas Pophale) SiO2 
 PCOD9273339
Probable space group: C 2/C
;
_chemical_formula_sum "Si O2"
_cell_formula_units_Z 36
_cell_length_a 7.758408
_cell_length_b 20.121909
_cell_length_c 12.184295
_cell_angle_alpha 90.000000
_cell_angle_beta 111.601061
_cell_angle_gamma 90.000000
_cell_volume 1768.550946
_symmetry_space_group_name_H-M "C 2/C"
_symmetry_group_IT_number 15
_symmetry_cell_setting 'monoclinic'
loop_
_space_group_symop_operation_xyz
x,y,z
-x,y,1/2-z
-x,-y,-z
x,-y,1/2+z
1/2+x,1/2+y,z
1/2-x,1/2+y,1/2-z
1/2-x,1/2-y,-z
1/2+x,1/2-y,1/2+z
loop_
_atom_site_type_symbol
_atom_site_label
_atom_site_fract_x
_atom_site_fract_y
_atom_site_fract_z
Si Si1 0.500000 0.106706 0.250000
Si Si2 0.767399 0.671457 0.007352
Si Si3 0.183123 0.471455 0.606069
Si Si4 0.798811 0.107228 0.715618
Si Si5 0.917313 0.075853 0.974761
O O1 0.409138 0.150341 0.134301
O O2 0.364788 0.059589 0.287957
O O3 0.583241 0.629070 0.999476
O O4 0.750000 0.750000 0.000000
O O5 0.827432 0.648197 0.898185
O O6 0.306024 0.535812 0.659113
O O7 0.294662 0.421080 0.555533
O O8 0.000000 0.500000 0.500000
O O9 0.000000 0.141029 0.750000
O O10 0.780154 0.091114 0.839307
O O11 0.000000 0.000000 0.000000
#
# Coordination Sequence:
#
# PCOD9273339 Si02
#       5
#     4   8   8   8   8
#     4  12  26  40  66  92 134 172 218 288 334 410
#     4  11  25  43  65  95 134 185 220 270 345 418
#     4  12  21  39  65 103 132 162 226 286 344 390
#     4  10  20  37  64  94 129 169 217 275 332 406
#     4  11  21  40  70  99 129 174 228 282 343 406
#
# _framework density 20.355647999999999
#
# number of rings (size 3 to 8) (size 9 to 14) (size 15 to 20)
#    0.000    0.889    6.667    2.667    4.667    0.000 
#    0.000    1.111    4.889    0.000    0.000    0.000 
#    0.000    0.000    0.000    0.000    0.000    0.000 
#
# Total GULP energy -100255.715995 kJ/mol
# GULP energy per Si atom -5569.762000 kJ/mol
# Density = 2.030932 g / cm^3
# Si number density = 20.355648 Si / 1000 Ang^3
#
#
#
# Elastic Constant Matrix: (Units=GPa)
#
#
# Indices 1 2 3 4 5 6 
#
# 1 44.8469 16.8372 7.4690 0.0000 -13.2661 0.0000
# 2 16.8372 128.3376 35.3434 0.0000 -3.2730 0.0000
# 3 7.4690 35.3434 134.5524 0.0000 -5.2464 0.0000
# 4 0.0000 0.0000 0.0000 11.2526 0.0000 2.3091
# 5 -13.2661 -3.2730 -5.2464 0.0000 48.8360 0.0000
# 6 0.0000 0.0000 0.0000 2.3091 0.0000 19.5175
#
#
#
# Elastic Compliance Matrix: (Units=1/GPa)
#
#
# Indices 1 2 3 4 5 6 
#
# 1 0.025487 -0.003078 -0.000346 0.000000 0.006680 0.000000
# 2 -0.003078 0.008777 -0.002153 0.000000 -0.000479 0.000000
# 3 -0.000346 -0.002153 0.008041 0.000000 0.000626 0.000000
# 4 0.000000 0.000000 0.000000 0.091080 0.000000 -0.010775
# 5 0.006680 -0.000479 0.000626 0.000000 0.022326 0.000000
# 6 0.000000 0.000000 0.000000 -0.010775 0.000000 0.052511
#
#
# Mechanical properties :
#
#
# Convention : Reuss Voigt Hill
#
# Bulk Modulus (GPa) = 32.10191 47.44847 39.77519
# Shear Modulus (GPa) = 21.76184 32.46036 27.11110
#
# Velocity S-wave (km/s) = 3.27323 3.99765 3.65344
# Velocity P-wave (km/s) = 5.48545 6.68346 6.11387
#
# Compressibility (1/GPa) = 0.03115079
#
# Stress axis : x y z
#
# Youngs Moduli (GPa) = 39.23509 113.94000 124.35918
#
# Poissons Ratio (x) = 0.35073 0.04300
# Poissons Ratio (y) = 0.12077 0.26777
# Poissons Ratio (z) = 0.01357 0.24533
#
# Static dielectric constant tensor:
#      x y z
#    x 1.765290 0.000000 0.038010 
#    y 0.000000 1.820240 0.000000 
#    z 0.038010 0.000000 1.823610 
# 
# From -- ./inp_files/76571.got.cif
#   From: 2010.05.17/outbox.cif.g08.bks.cpg/sg15_39_cif.got.tgz:76571.got - 2010.06.03 18:47:42.
