data_PCOD9273567
_publ_section_title
;
Structure prediction by ZEFSAII (Michael W. Deem and Ramdas Pophale) SiO2 
 PCOD9273567
Probable space group: C 2/C
;
_chemical_formula_sum "Si O2"
_cell_formula_units_Z 32
_cell_length_a 8.537739
_cell_length_b 17.404666
_cell_length_c 15.277030
_cell_angle_alpha 90.000000
_cell_angle_beta 31.881663
_cell_angle_gamma 90.000000
_cell_volume 1198.997934
_symmetry_space_group_name_H-M "C 2/C"
_symmetry_group_IT_number 15
_symmetry_cell_setting 'monoclinic'
loop_
_space_group_symop_operation_xyz
x,y,z
-x,y,1/2-z
-x,-y,-z
x,-y,1/2+z
1/2+x,1/2+y,z
1/2-x,1/2+y,1/2-z
1/2-x,1/2-y,-z
1/2+x,1/2-y,1/2+z
loop_
_atom_site_type_symbol
_atom_site_label
_atom_site_fract_x
_atom_site_fract_y
_atom_site_fract_z
Si Si1 0.151861 0.650165 0.901928
Si Si2 0.813925 0.879750 0.566974
Si Si3 0.814479 0.454418 0.428614
Si Si4 0.736777 0.246473 0.304734
O O1 0.500000 0.635697 0.750000
O O2 0.128839 0.727584 0.851877
O O3 0.994554 0.582269 0.922417
O O4 0.961649 0.672309 0.077966
O O5 0.500000 0.851331 0.750000
O O6 0.007508 0.910167 0.557757
O O7 0.012287 0.816865 0.427163
O O8 0.760524 0.955766 0.533472
O O9 0.000000 0.443951 0.250000
O O10 0.000000 0.246686 0.250000
#
# Coordination Sequence:
#
# PCOD9273567 Si02
#       4
#     8   8   8   8
#     4  12  25  44  69 106 145 183 231 299 357 415
#     4  10  20  37  72  97 132 186 244 272 348 428
#     4  10  20  42  68  99 135 187 239 285 342 428
#     4  12  24  45  72 102 142 187 239 291 352 423
#
# _framework density 26.688953999999999
#
# number of rings (size 3 to 8) (size 9 to 14) (size 15 to 20)
#    0.000    1.000    5.000    2.250    0.000    0.000 
#    0.000    1.250    0.000    1.500    0.000    1.750 
#    0.000    0.000    0.000    0.000    0.000    0.000 
#
# Total GULP energy -89787.984468 kJ/mol
# GULP energy per Si atom -5611.749029 kJ/mol
# Density = 2.662821 g / cm^3
# Si number density = 26.688954 Si / 1000 Ang^3
#
#
#
# Elastic Constant Matrix: (Units=GPa)
#
#
# Indices 1 2 3 4 5 6 
#
# 1 145.2523 54.5249 47.0211 -0.0006 -28.5855 -0.0014
# 2 54.5249 95.6109 24.3357 0.0010 -15.6980 -0.0079
# 3 47.0211 24.3357 146.2352 -0.0096 -18.1781 -0.0061
# 4 -0.0006 0.0010 -0.0096 44.2706 -0.0060 -16.3793
# 5 -28.5855 -15.6980 -18.1781 -0.0060 69.6617 0.0079
# 6 -0.0014 -0.0079 -0.0061 -16.3793 0.0079 52.0112
#
#
#
# Elastic Compliance Matrix: (Units=1/GPa)
#
#
# Indices 1 2 3 4 5 6 
#
# 1 0.009777 -0.004651 -0.002068 0.000000 0.002424 -0.000001
# 2 -0.004651 0.013426 -0.000620 0.000000 0.000955 0.000002
# 3 -0.002068 -0.000620 0.007735 0.000002 0.001030 0.000001
# 4 0.000000 0.000000 0.000002 0.025567 0.000002 0.008052
# 5 0.002424 0.000955 0.001030 0.000002 0.015834 -0.000002
# 6 -0.000001 0.000002 0.000001 0.008052 -0.000002 0.021762
#
#
# Mechanical properties :
#
#
# Convention : Reuss Voigt Hill
#
# Bulk Modulus (GPa) = 61.50581 70.98463 66.24522
# Shear Modulus (GPa) = 43.78270 50.60313 47.19292
#
# Velocity S-wave (km/s) = 4.05468 4.35907 4.20963
# Velocity P-wave (km/s) = 6.70940 7.21041 6.96441
#
# Compressibility (1/GPa) = 0.01625863
#
# Stress axis : x y z
#
# Youngs Moduli (GPa) = 102.27843 74.48120 129.28934
#
# Poissons Ratio (x) = 0.34643 0.26743
# Poissons Ratio (y) = 0.47572 0.08016
# Poissons Ratio (z) = 0.21156 0.04618
#
# Static dielectric constant tensor:
#      x y z
#    x 2.158930 0.000000 0.056160 
#    y 0.000000 2.071730 0.000010 
#    z 0.056160 0.000010 2.060830 
# 
# From -- ./inp_files/191868.got.cif
#   From: 2010.05.17/outbox.cif.g08.bks.cpg/sg15_96_cif.got.tgz:191868.got - 2010.06.03 18:47:42.
