data_PCOD9273507
_publ_section_title
;
Structure prediction by ZEFSAII (Michael W. Deem and Ramdas Pophale) SiO2 
 PCOD9273507
Probable space group: C 2/C
;
_chemical_formula_sum "Si O2"
_cell_formula_units_Z 60
_cell_length_a 14.813945
_cell_length_b 20.857829
_cell_length_c 14.226340
_cell_angle_alpha 90.000000
_cell_angle_beta 28.287063
_cell_angle_gamma 90.000000
_cell_volume 2083.099433
_symmetry_space_group_name_H-M "C 2/C"
_symmetry_group_IT_number 15
_symmetry_cell_setting 'monoclinic'
loop_
_space_group_symop_operation_xyz
x,y,z
-x,y,1/2-z
-x,-y,-z
x,-y,1/2+z
1/2+x,1/2+y,z
1/2-x,1/2+y,1/2-z
1/2-x,1/2-y,-z
1/2+x,1/2-y,1/2+z
loop_
_atom_site_type_symbol
_atom_site_label
_atom_site_fract_x
_atom_site_fract_y
_atom_site_fract_z
Si Si1 0.345360 0.860753 0.137348
Si Si2 0.050329 0.275540 0.096617
Si Si3 0.780665 0.617971 0.319725
Si Si4 0.322014 0.178471 0.454014
Si Si5 0.406999 0.347889 0.684322
Si Si6 0.500000 0.415023 0.250000
Si Si7 0.756059 0.031968 0.417824
Si Si8 0.804909 0.468385 0.311650
O O1 0.406030 0.802908 0.149851
O O2 0.243464 0.916299 0.291302
O O3 0.545363 0.890877 0.919309
O O4 0.250936 0.836408 0.127406
O O5 0.000000 0.290395 0.250000
O O6 0.074096 0.199316 0.061285
O O7 0.239899 0.312511 0.895516
O O8 0.938916 0.664145 0.238226
O O9 0.630409 0.655790 0.392596
O O10 0.733645 0.541266 0.372031
O O11 0.250000 0.250000 0.500000
O O12 0.159660 0.128948 0.549519
O O13 0.380524 0.420242 0.742467
O O14 0.359866 0.463222 0.323429
O O15 0.743124 0.053605 0.538497
O O16 0.535359 0.026171 0.593797
#
# Coordination Sequence:
#
# PCOD9273507 Si02
#       8
#     8   8   8   8   8   4   8   8
#     4  10  21  38  70  96 124 188 241 272 348 417
#     4  11  23  46  67  94 131 180 237 291 346 403
#     4  10  20  37  66  99 132 178 222 283 347 421
#     4  10  22  44  67  97 140 185 224 283 345 417
#     4  11  25  43  67  96 136 181 237 289 344 409
#     4  12  24  40  66 102 148 184 222 276 358 428
#     4  11  23  39  62 100 139 178 230 282 346 420
#     4  11  20  38  70  96 137 185 228 277 354 430
#
# _framework density 28.803232999999999
#
# number of rings (size 3 to 8) (size 9 to 14) (size 15 to 20)
#    0.000    1.333    4.000    3.200    4.667    0.000 
#    2.400    2.000    0.000    0.000    0.000    0.000 
#    0.000    0.000    0.000    0.000    0.000    0.000 
#
# Total GULP energy -167963.405955 kJ/mol
# GULP energy per Si atom -5598.780199 kJ/mol
# Density = 2.873768 g / cm^3
# Si number density = 28.803233 Si / 1000 Ang^3
#
#
#
# Elastic Constant Matrix: (Units=GPa)
#
#
# Indices 1 2 3 4 5 6 
#
# 1 198.3482 89.0659 56.3336 0.0077 41.3493 -0.0033
# 2 89.0659 211.5395 45.3809 -0.0111 21.4274 0.0153
# 3 56.3336 45.3809 170.8555 0.0211 3.3600 -0.0071
# 4 0.0077 -0.0111 0.0211 37.9436 -0.0160 -2.3489
# 5 41.3493 21.4274 3.3600 -0.0160 63.7048 0.0044
# 6 -0.0033 0.0153 -0.0071 -2.3489 0.0044 53.3656
#
#
#
# Elastic Compliance Matrix: (Units=1/GPa)
#
#
# Indices 1 2 3 4 5 6 
#
# 1 0.007410 -0.002348 -0.001742 -0.000003 -0.003928 0.000001
# 2 -0.002348 0.005929 -0.000792 0.000002 -0.000428 -0.000002
# 3 -0.001742 -0.000792 0.006617 -0.000003 0.001048 0.000001
# 4 -0.000003 0.000002 -0.000003 0.026427 0.000008 0.001163
# 5 -0.003928 -0.000428 0.001048 0.000008 0.018336 -0.000001
# 6 0.000001 -0.000002 0.000001 0.001163 -0.000001 0.018790
#
#
# Mechanical properties :
#
#
# Convention : Reuss Voigt Hill
#
# Bulk Modulus (GPa) = 98.12580 106.92266 102.52423
# Shear Modulus (GPa) = 51.72210 57.00031 54.36121
#
# Velocity S-wave (km/s) = 4.24217 4.45337 4.34905
# Velocity P-wave (km/s) = 7.62472 7.97783 7.80327
#
# Compressibility (1/GPa) = 0.01019100
#
# Stress axis : x y z
#
# Youngs Moduli (GPa) = 134.95925 168.65527 151.12326
#
# Poissons Ratio (x) = 0.39603 0.26328
# Poissons Ratio (y) = 0.31690 0.11972
# Poissons Ratio (z) = 0.23512 0.13361
#
# Static dielectric constant tensor:
#      x y z
#    x 2.373760 -0.000050 -0.038580 
#    y -0.000050 2.202460 0.000080 
#    z -0.038580 0.000080 2.334640 
# 
# From -- ./inp_files/156338.got.cif
#   From: 2010.05.17/outbox.cif.g08.bks.cpg/sg15_79_cif.got.tgz:156338.got - 2010.06.03 18:47:42.
