data_PCOD9273166
_publ_section_title
;
Structure prediction by ZEFSAII (Michael W. Deem and Ramdas Pophale) SiO2 
 PCOD9273166
Probable space group: C 2/C
;
_chemical_formula_sum "Si O2"
_cell_formula_units_Z 44
_cell_length_a 8.724920
_cell_length_b 22.876968
_cell_length_c 10.392087
_cell_angle_alpha 90.000000
_cell_angle_beta 65.811015
_cell_angle_gamma 90.000000
_cell_volume 1892.135523
_symmetry_space_group_name_H-M "C 2/C"
_symmetry_group_IT_number 15
_symmetry_cell_setting 'monoclinic'
loop_
_space_group_symop_operation_xyz
x,y,z
-x,y,1/2-z
-x,-y,-z
x,-y,1/2+z
1/2+x,1/2+y,z
1/2-x,1/2+y,1/2-z
1/2-x,1/2-y,-z
1/2+x,1/2-y,1/2+z
loop_
_atom_site_type_symbol
_atom_site_label
_atom_site_fract_x
_atom_site_fract_y
_atom_site_fract_z
Si Si1 0.005444 0.145472 0.450823
Si Si2 0.172392 0.263473 0.389215
Si Si3 0.125076 0.356188 0.992833
Si Si4 0.500000 0.452350 0.750000
Si Si5 0.000000 0.554801 0.750000
Si Si6 0.351382 0.028803 0.134746
Si Si7 0.500000 0.667083 0.750000
O O1 0.812198 0.159326 0.475367
O O2 0.049158 0.088398 0.353967
O O3 0.031136 0.137862 0.597540
O O4 0.114105 0.200295 0.361171
O O5 0.250000 0.250000 0.500000
O O6 0.330948 0.296094 0.271444
O O7 0.007918 0.303891 0.462444
O O8 0.058990 0.401438 0.121569
O O9 0.124214 0.400992 0.871616
O O10 0.333733 0.484051 0.854155
O O11 0.143960 0.509134 0.737932
O O12 0.500000 0.000000 0.000000
#
# Coordination Sequence:
#
# PCOD9273166 Si02
#       7
#     8   8   8   4   4   8   4
#     4  10  22  40  64  94 129 172 219 269 330 405
#     4  10  22  38  59  91 130 169 212 266 328 406
#     4  10  20  39  62  88 123 167 215 268 330 394
#     4  10  22  41  67  96 128 173 225 276 336 408
#     4  10  20  37  63  88 118 163 215 274 332 392
#     4   9  21  41  62  90 126 168 220 278 335 389
#     4  10  22  38  56  90 132 172 214 264 326 388
#
# _framework density 23.254148000000001
#
# number of rings (size 3 to 8) (size 9 to 14) (size 15 to 20)
#    0.000    2.182    0.000    1.636    0.000   10.909 
#    0.000   22.727    0.000    0.000    0.000    0.000 
#    0.000    0.000    0.000    0.000    0.000    0.000 
#
# Total GULP energy -122510.967538 kJ/mol
# GULP energy per Si atom -5568.680343 kJ/mol
# Density = 2.320122 g / cm^3
# Si number density = 23.254148 Si / 1000 Ang^3
#
#
#
# Elastic Constant Matrix: (Units=GPa)
#
#
# Indices 1 2 3 4 5 6 
#
# 1 117.4635 41.3982 19.0794 0.0000 -19.6589 0.0000
# 2 41.3982 53.5449 10.5401 0.0000 12.0761 0.0000
# 3 19.0794 10.5401 84.2741 0.0000 6.3522 0.0000
# 4 0.0000 0.0000 0.0000 48.7466 0.0000 4.5851
# 5 -19.6589 12.0761 6.3522 0.0000 40.9869 0.0000
# 6 0.0000 0.0000 0.0000 4.5851 0.0000 32.1281
#
#
#
# Elastic Compliance Matrix: (Units=1/GPa)
#
#
# Indices 1 2 3 4 5 6 
#
# 1 0.016365 -0.014965 -0.002790 0.000000 0.012691 0.000000
# 2 -0.014965 0.034059 0.000431 0.000000 -0.017280 0.000000
# 3 -0.002790 0.000431 0.012703 0.000000 -0.003434 0.000000
# 4 0.000000 0.000000 0.000000 0.020793 0.000000 -0.002967
# 5 0.012691 -0.017280 -0.003434 0.000000 0.036108 0.000000
# 6 0.000000 0.000000 0.000000 -0.002967 0.000000 0.031549
#
#
# Mechanical properties :
#
#
# Convention : Reuss Voigt Hill
#
# Bulk Modulus (GPa) = 35.11565 44.14646 39.63105
# Shear Modulus (GPa) = 25.54703 36.65664 31.10184
#
# Velocity S-wave (km/s) = 3.31811 3.97463 3.66112
# Velocity P-wave (km/s) = 5.46017 6.33160 5.91196
#
# Compressibility (1/GPa) = 0.02847733
#
# Stress axis : x y z
#
# Youngs Moduli (GPa) = 61.10717 29.36113 78.72423
#
# Poissons Ratio (x) = 0.43940 0.21962
# Poissons Ratio (y) = 0.91449 -0.03392
# Poissons Ratio (z) = 0.17048 -0.01265
#
# Static dielectric constant tensor:
#      x y z
#    x 2.023720 0.000000 -0.081800 
#    y 0.000000 1.921210 0.000000 
#    z -0.081800 0.000000 2.073920 
# 
# From -- ./inp_files/78154.got.cif
#   From: 2010.05.17/outbox.cif.g08.bks.cpg/sg15_40_cif.got.tgz:78154.got - 2010.06.03 18:47:42.
