data_PCOD9273705
_publ_section_title
;
Structure prediction by ZEFSAII (Michael W. Deem and Ramdas Pophale) SiO2 
 PCOD9273705
Probable space group: C 2/C
;
_chemical_formula_sum "Si O2"
_cell_formula_units_Z 56
_cell_length_a 17.739264
_cell_length_b 14.833484
_cell_length_c 12.287343
_cell_angle_alpha 90.000000
_cell_angle_beta 70.643804
_cell_angle_gamma 90.000000
_cell_volume 3050.476995
_symmetry_space_group_name_H-M "C 2/C"
_symmetry_group_IT_number 15
_symmetry_cell_setting 'monoclinic'
loop_
_space_group_symop_operation_xyz
x,y,z
-x,y,1/2-z
-x,-y,-z
x,-y,1/2+z
1/2+x,1/2+y,z
1/2-x,1/2+y,1/2-z
1/2-x,1/2-y,-z
1/2+x,1/2-y,1/2+z
loop_
_atom_site_type_symbol
_atom_site_label
_atom_site_fract_x
_atom_site_fract_y
_atom_site_fract_z
Si Si1 0.723543 0.884064 0.481840
Si Si2 0.380419 0.739440 0.074179
Si Si3 0.013875 0.606310 0.870121
Si Si4 0.271201 0.601340 0.210355
Si Si5 0.630893 0.440392 0.222091
Si Si6 0.376268 0.957661 0.582621
Si Si7 0.978970 0.075643 0.922765
O O1 0.671267 0.794233 0.490400
O O2 0.751410 0.904748 0.590946
O O3 0.798160 0.881137 0.362657
O O4 0.670518 0.967986 0.466259
O O5 0.435615 0.811794 0.106055
O O6 0.321176 0.693414 0.189655
O O7 0.432204 0.659751 0.996198
O O8 0.064368 0.514825 0.868281
O O9 0.000000 0.616876 0.750000
O O10 0.931838 0.599351 0.976428
O O11 0.327215 0.521104 0.230652
O O12 0.189388 0.596186 0.316995
O O13 0.578645 0.468463 0.141368
O O14 0.563105 0.394710 0.328744
O O15 0.000000 0.000000 0.000000
#
# Coordination Sequence:
#
# PCOD9273705 Si02
#       7
#     8   8   8   8   8   8   8
#     4  10  20  38  58  85 115 148 190 246 282 336
#     4  11  23  36  57  87 118 152 188 239 295 327
#     4  10  21  41  59  86 117 149 188 240 282 341
#     4  11  20  37  58  86 114 150 189 238 281 341
#     4  10  21  35  59  81 111 153 197 228 284 343
#     4   9  21  38  64  84 109 153 196 225 291 341
#     4  11  21  38  56  84 116 156 194 235 281 347
#
# _framework density 18.357785
#
# number of rings (size 3 to 8) (size 9 to 14) (size 15 to 20)
#    0.000    1.714    2.857    1.286    0.000    2.286 
#    2.571    0.714    0.000    0.000    0.000    0.000 
#    0.000    0.000    0.000    0.000    0.000    0.000 
#
# Total GULP energy -156178.475081 kJ/mol
# GULP energy per Si atom -5577.802681 kJ/mol
# Density = 1.831600 g / cm^3
# Si number density = 18.357785 Si / 1000 Ang^3
#
#
#
# Elastic Constant Matrix: (Units=GPa)
#
#
# Indices 1 2 3 4 5 6 
#
# 1 118.3582 52.0557 79.6071 0.0000 -13.3099 0.0000
# 2 52.0557 86.7574 68.1080 0.0000 -6.6634 0.0000
# 3 79.6071 68.1080 132.3548 0.0000 -15.0830 0.0000
# 4 0.0000 0.0000 0.0000 19.9479 0.0000 -4.1258
# 5 -13.3099 -6.6634 -15.0830 0.0000 48.0885 0.0000
# 6 0.0000 0.0000 0.0000 -4.1258 0.0000 29.3691
#
#
#
# Elastic Compliance Matrix: (Units=1/GPa)
#
#
# Indices 1 2 3 4 5 6 
#
# 1 0.014778 -0.003200 -0.007079 0.000000 0.001426 0.000000
# 2 -0.003200 0.020041 -0.008476 0.000000 -0.000767 0.000000
# 3 -0.007079 -0.008476 0.016404 0.000000 0.002011 0.000000
# 4 0.000000 0.000000 0.000000 0.051631 0.000000 0.007253
# 5 0.001426 -0.000767 0.002011 0.000000 0.021714 0.000000
# 6 0.000000 0.000000 0.000000 0.007253 0.000000 0.035068
#
#
# Mechanical properties :
#
#
# Convention : Reuss Voigt Hill
#
# Bulk Modulus (GPa) = 72.92076 81.89023 77.40550
# Shear Modulus (GPa) = 24.78700 28.66109 26.72404
#
# Velocity S-wave (km/s) = 3.67852 3.95555 3.81955
# Velocity P-wave (km/s) = 7.60593 8.09732 7.85547
#
# Compressibility (1/GPa) = 0.01371352
#
# Stress axis : x y z
#
# Youngs Moduli (GPa) = 67.66648 49.89702 60.96000
#
# Poissons Ratio (x) = 0.15967 0.43156
# Poissons Ratio (y) = 0.21653 0.51668
# Poissons Ratio (z) = 0.47904 0.42291
#
# Static dielectric constant tensor:
#      x y z
#    x 1.660940 0.000000 -0.015180 
#    y 0.000000 1.606980 0.000000 
#    z -0.015180 0.000000 1.624380 
# 
# From -- ./inp_files/105267.got.cif
#   From: 2010.05.17/outbox.cif.g08.bks.cpg/sg15_53_cif.got.tgz:105267.got - 2010.06.03 18:47:42.
