data_PCOD9273476
_publ_section_title
;
Structure prediction by ZEFSAII (Michael W. Deem and Ramdas Pophale) SiO2 
 PCOD9273476
Probable space group: C 2/C
;
_chemical_formula_sum "Si O2"
_cell_formula_units_Z 56
_cell_length_a 8.895914
_cell_length_b 20.849010
_cell_length_c 19.195706
_cell_angle_alpha 90.000000
_cell_angle_beta 57.309561
_cell_angle_gamma 90.000000
_cell_volume 2996.306973
_symmetry_space_group_name_H-M "C 2/C"
_symmetry_group_IT_number 15
_symmetry_cell_setting 'monoclinic'
loop_
_space_group_symop_operation_xyz
x,y,z
-x,y,1/2-z
-x,-y,-z
x,-y,1/2+z
1/2+x,1/2+y,z
1/2-x,1/2+y,1/2-z
1/2-x,1/2-y,-z
1/2+x,1/2-y,1/2+z
loop_
_atom_site_type_symbol
_atom_site_label
_atom_site_fract_x
_atom_site_fract_y
_atom_site_fract_z
Si Si1 0.712875 0.794426 0.944330
Si Si2 0.691530 0.599729 0.738217
Si Si3 0.794927 0.268679 0.281205
Si Si4 0.568536 0.639043 0.309850
Si Si5 0.254283 0.007823 0.492524
Si Si6 0.343093 0.489678 0.641053
Si Si7 0.045551 0.402989 0.458422
O O1 0.703760 0.753856 0.875581
O O2 0.886307 0.840336 0.893715
O O3 0.750000 0.750000 0.000000
O O4 0.536418 0.834708 0.002797
O O5 0.500000 0.589509 0.750000
O O6 0.704436 0.670435 0.768795
O O7 0.716837 0.545334 0.790889
O O8 0.838699 0.596036 0.640704
O O9 0.816772 0.204222 0.229125
O O10 0.000000 0.286460 0.250000
O O11 0.500000 0.619154 0.250000
O O12 0.667392 0.580206 0.320922
O O13 0.254695 0.008733 0.408803
O O14 0.378412 0.950318 0.488322
O O15 0.337370 0.070626 0.507194
O O16 0.052612 0.000294 0.570377
#
# Coordination Sequence:
#
# PCOD9273476 Si02
#       7
#     8   8   8   8   8   8   8
#     4  10  20  37  66  91 120 169 209 265 307 382
#     4  12  25  41  63  94 131 169 204 274 330 380
#     4   9  22  41  64  91 120 165 220 247 312 388
#     4   9  19  38  65  90 118 165 207 254 307 386
#     4  10  24  38  63  93 129 160 209 266 314 387
#     4  11  22  41  64  94 125 167 209 260 329 382
#     4  11  22  42  62  94 126 165 217 264 321 382
#
# _framework density 18.689675000000001
#
# number of rings (size 3 to 8) (size 9 to 14) (size 15 to 20)
#    0.000    2.000    2.857    2.143    4.000    1.143 
#    2.571    0.714    0.000    0.000    0.000    0.000 
#    0.000    0.000    0.000    0.000    0.000    0.000 
#
# Total GULP energy -156329.154749 kJ/mol
# GULP energy per Si atom -5583.184098 kJ/mol
# Density = 1.864714 g / cm^3
# Si number density = 18.689675 Si / 1000 Ang^3
#
#
#
# Elastic Constant Matrix: (Units=GPa)
#
#
# Indices 1 2 3 4 5 6 
#
# 1 60.0200 39.8949 38.1672 0.0000 18.4483 0.0000
# 2 39.8949 97.7736 54.6244 0.0000 24.6233 0.0000
# 3 38.1672 54.6244 136.1797 0.0000 6.7511 0.0000
# 4 0.0000 0.0000 0.0000 3.7511 0.0000 9.6693
# 5 18.4483 24.6233 6.7511 0.0000 24.7817 0.0000
# 6 0.0000 0.0000 0.0000 9.6693 0.0000 27.3509
#
#
#
# Elastic Compliance Matrix: (Units=1/GPa)
#
#
# Indices 1 2 3 4 5 6 
#
# 1 0.027456 -0.004759 -0.005076 0.000000 -0.014328 0.000000
# 2 -0.004759 0.018613 -0.005465 0.000000 -0.013463 0.000000
# 3 -0.005076 -0.005465 0.010645 0.000000 0.006309 0.000000
# 4 0.000000 0.000000 0.000000 3.005255 0.000000 -1.062446
# 5 -0.014328 -0.013463 0.006309 0.000000 0.062677 0.000000
# 6 0.000000 0.000000 0.000000 -1.062446 0.000000 0.412168
#
#
# Mechanical properties :
#
#
# Convention : Reuss Voigt Hill
#
# Bulk Modulus (GPa) = 38.29214 62.14960 50.22087
# Shear Modulus (GPa) = 1.39816 21.92920 11.66368
#
# Velocity S-wave (km/s) = 0.86586 3.42911 2.50085
# Velocity P-wave (km/s) = 4.64031 7.00029 5.93871
#
# Compressibility (1/GPa) = 0.02611502
#
# Stress axis : x y z
#
# Youngs Moduli (GPa) = 36.42181 53.72579 93.93879
#
# Poissons Ratio (x) = 0.25567 0.47683
# Poissons Ratio (y) = 0.17332 0.51337
# Poissons Ratio (z) = 0.18488 0.29361
#
# Static dielectric constant tensor:
#      x y z
#    x 1.628010 0.000000 -0.006720 
#    y 0.000000 1.640630 0.000000 
#    z -0.006720 0.000000 1.635910 
# 
# From -- ./inp_files/192034.got.cif
#   From: 2010.05.17/outbox.cif.g08.bks.cpg/sg15_97_cif.got.tgz:192034.got - 2010.06.03 18:47:42.
