data_PCOD9273586
_publ_section_title
;
Structure prediction by ZEFSAII (Michael W. Deem and Ramdas Pophale) SiO2 
 PCOD9273586
Probable space group: C 2/C
;
_chemical_formula_sum "Si O2"
_cell_formula_units_Z 56
_cell_length_a 11.930874
_cell_length_b 27.504182
_cell_length_c 12.068446
_cell_angle_alpha 90.000000
_cell_angle_beta 143.038440
_cell_angle_gamma 90.000000
_cell_volume 2381.214056
_symmetry_space_group_name_H-M "C 2/C"
_symmetry_group_IT_number 15
_symmetry_cell_setting 'monoclinic'
loop_
_space_group_symop_operation_xyz
x,y,z
-x,y,1/2-z
-x,-y,-z
x,-y,1/2+z
1/2+x,1/2+y,z
1/2-x,1/2+y,1/2-z
1/2-x,1/2-y,-z
1/2+x,1/2-y,1/2+z
loop_
_atom_site_type_symbol
_atom_site_label
_atom_site_fract_x
_atom_site_fract_y
_atom_site_fract_z
Si Si1 0.190680 0.185598 0.670036
Si Si2 0.975454 0.905657 0.394184
Si Si3 0.911526 0.638256 0.526450
Si Si4 0.658142 0.939498 0.713580
Si Si5 0.158172 0.927428 0.962141
Si Si6 0.383314 0.720647 0.260927
Si Si7 0.760755 0.515960 0.916057
O O1 0.079241 0.150891 0.667433
O O2 0.381290 0.157439 0.793839
O O3 0.273788 0.240033 0.749490
O O4 0.039791 0.192458 0.453784
O O5 0.897844 0.917344 0.457203
O O6 0.860477 0.938962 0.220174
O O7 0.191805 0.920351 0.578917
O O8 0.901176 0.607661 0.404500
O O9 0.835811 0.601141 0.557812
O O10 0.769537 0.683261 0.405200
O O11 0.470324 0.966237 0.601965
O O12 0.743699 0.977655 0.691328
O O13 0.000000 0.910973 0.750000
O O14 0.189653 0.984292 0.963083
O O15 0.500000 0.743183 0.250000
#
# Coordination Sequence:
#
# PCOD9273586 Si02
#       7
#     8   8   8   8   8   8   8
#     4  12  24  35  54  74 106 156 193 238 283 323
#     4  12  22  37  61  79 109 161 199 232 292 331
#     4  11  21  38  52  73 111 147 193 240 274 327
#     4  10  20  38  54  78 109 142 196 243 274 335
#     4  11  22  38  58  82 111 148 202 242 275 346
#     4  12  24  35  47  75 112 142 195 245 272 322
#     4  10  22  39  54  81 112 145 192 247 289 328
#
# _framework density 23.517416000000001
#
# number of rings (size 3 to 8) (size 9 to 14) (size 15 to 20)
#    0.000    0.857    7.143    2.143    2.000    0.000 
#    0.000    1.429    0.000    0.000    0.000    0.000 
#    0.000    0.000    0.000   20.571    4.286    9.286 
#
# Total GULP energy -156721.007329 kJ/mol
# GULP energy per Si atom -5597.178833 kJ/mol
# Density = 2.346389 g / cm^3
# Si number density = 23.517416 Si / 1000 Ang^3
#
#
#
# Elastic Constant Matrix: (Units=GPa)
#
#
# Indices 1 2 3 4 5 6 
#
# 1 45.5330 13.8771 25.0643 0.0000 2.4317 0.0000
# 2 13.8771 135.9106 46.0431 0.0000 5.5667 0.0000
# 3 25.0643 46.0431 164.8255 0.0000 27.5463 0.0000
# 4 0.0000 0.0000 0.0000 45.1036 0.0000 12.5231
# 5 2.4317 5.5667 27.5463 0.0000 34.3477 0.0000
# 6 0.0000 0.0000 0.0000 12.5231 0.0000 31.3289
#
#
#
# Elastic Compliance Matrix: (Units=1/GPa)
#
#
# Indices 1 2 3 4 5 6 
#
# 1 0.024244 -0.001332 -0.003538 0.000000 0.001337 0.000000
# 2 -0.001332 0.008210 -0.002176 0.000000 0.000509 0.000000
# 3 -0.003538 -0.002176 0.008213 0.000000 -0.005983 0.000000
# 4 0.000000 0.000000 0.000000 0.024939 0.000000 -0.009969
# 5 0.001337 0.000509 -0.005983 0.000000 0.033736 0.000000
# 6 0.000000 0.000000 0.000000 -0.009969 0.000000 0.035904
#
#
# Mechanical properties :
#
#
# Convention : Reuss Voigt Hill
#
# Bulk Modulus (GPa) = 37.62836 57.35976 47.49406
# Shear Modulus (GPa) = 31.60635 39.57500 35.59068
#
# Velocity S-wave (km/s) = 3.66998 4.10664 3.89443
# Velocity P-wave (km/s) = 5.83037 6.85049 6.36092
#
# Compressibility (1/GPa) = 0.02657570
#
# Stress axis : x y z
#
# Youngs Moduli (GPa) = 41.24704 121.80173 121.76002
#
# Poissons Ratio (x) = 0.16219 0.43081
# Poissons Ratio (y) = 0.05492 0.26495
# Poissons Ratio (z) = 0.14594 0.26504
#
# Static dielectric constant tensor:
#      x y z
#    x 1.926920 0.000000 0.014140 
#    y 0.000000 1.931100 0.000000 
#    z 0.014140 0.000000 1.901710 
# 
# From -- ./inp_files/157229.got.cif
#   From: 2010.05.17/outbox.cif.g08.bks.cpg/sg15_79_cif.got.tgz:157229.got - 2010.06.03 18:47:42.
