data_PCOD9273715
_publ_section_title
;
Structure prediction by ZEFSAII (Michael W. Deem and Ramdas Pophale) SiO2 
 PCOD9273715
Probable space group: C 2/C
;
_chemical_formula_sum "Si O2"
_cell_formula_units_Z 44
_cell_length_a 13.894763
_cell_length_b 26.830210
_cell_length_c 8.119286
_cell_angle_alpha 90.000000
_cell_angle_beta 38.281217
_cell_angle_gamma 90.000000
_cell_volume 1875.208653
_symmetry_space_group_name_H-M "C 2/C"
_symmetry_group_IT_number 15
_symmetry_cell_setting 'monoclinic'
loop_
_space_group_symop_operation_xyz
x,y,z
-x,y,1/2-z
-x,-y,-z
x,-y,1/2+z
1/2+x,1/2+y,z
1/2-x,1/2+y,1/2-z
1/2-x,1/2-y,-z
1/2+x,1/2-y,1/2+z
loop_
_atom_site_type_symbol
_atom_site_label
_atom_site_fract_x
_atom_site_fract_y
_atom_site_fract_z
Si Si1 0.000000 0.482188 0.250000
Si Si2 0.224709 0.785027 0.288524
Si Si3 0.178090 0.681246 0.478055
Si Si4 0.500000 0.846367 0.750000
Si Si5 0.000000 0.927064 0.250000
Si Si6 0.981045 0.133057 0.084889
Si Si7 0.660717 0.062906 0.225219
O O1 0.131933 0.520997 0.125247
O O2 0.947749 0.450025 0.474414
O O3 0.198279 0.725823 0.319135
O O4 0.258530 0.798766 0.432482
O O5 0.064388 0.813023 0.461719
O O6 0.368278 0.810206 0.002416
O O7 0.300163 0.637886 0.279382
O O8 0.000000 0.668566 0.750000
O O9 0.405590 0.884114 0.754729
O O10 0.058639 0.897711 0.334475
O O11 0.839659 0.948934 0.528642
O O12 0.000000 0.115929 0.250000
#
# Coordination Sequence:
#
# PCOD9273715 Si02
#       7
#     4   8   8   4   4   8   8
#     4   9  22  48  72  99 132 172 204 263 326 428
#     4  10  20  38  58  86 128 173 221 281 323 381
#     4  10  21  37  61  85 123 182 234 268 331 384
#     4  11  22  39  64  94 132 170 214 282 332 387
#     4  12  24  43  66 107 134 170 220 277 334 399
#     4  10  23  42  60  93 137 174 225 287 330 387
#     4  10  23  44  72 102 134 167 218 260 338 411
#
# _framework density 23.464055999999999
#
# number of rings (size 3 to 8) (size 9 to 14) (size 15 to 20)
#    0.000    1.818    1.818    2.727    2.545    4.364 
#    3.273    2.727    0.000    0.000    0.000    0.000 
#    0.000    0.000    0.000    0.000    0.000    0.000 
#
# Total GULP energy -122768.675817 kJ/mol
# GULP energy per Si atom -5580.394355 kJ/mol
# Density = 2.341065 g / cm^3
# Si number density = 23.464056 Si / 1000 Ang^3
#
#
#
# Elastic Constant Matrix: (Units=GPa)
#
#
# Indices 1 2 3 4 5 6 
#
# 1 63.6043 6.2638 4.1905 0.0000 -18.0945 0.0000
# 2 6.2638 49.9194 28.8827 0.0000 3.0179 0.0000
# 3 4.1905 28.8827 103.1076 0.0000 -18.4522 0.0000
# 4 0.0000 0.0000 0.0000 32.5800 0.0000 11.2478
# 5 -18.0945 3.0179 -18.4522 0.0000 58.4911 0.0000
# 6 0.0000 0.0000 0.0000 11.2478 0.0000 10.4517
#
#
#
# Elastic Compliance Matrix: (Units=1/GPa)
#
#
# Indices 1 2 3 4 5 6 
#
# 1 0.017687 -0.003337 0.001299 0.000000 0.006054 0.000000
# 2 -0.003337 0.025252 -0.007796 0.000000 -0.004795 0.000000
# 3 0.001299 -0.007796 0.012690 0.000000 0.004807 0.000000
# 4 0.000000 0.000000 0.000000 0.048839 0.000000 -0.052558
# 5 0.006054 -0.004795 0.004807 0.000000 0.020733 0.000000
# 6 0.000000 0.000000 0.000000 -0.052558 0.000000 0.152239
#
#
# Mechanical properties :
#
#
# Convention : Reuss Voigt Hill
#
# Bulk Modulus (GPa) = 27.80753 32.81168 30.30961
# Shear Modulus (GPa) = 16.17629 32.12419 24.15024
#
# Velocity S-wave (km/s) = 2.62851 3.70412 3.21166
# Velocity P-wave (km/s) = 4.59226 5.68403 5.16706
#
# Compressibility (1/GPa) = 0.03596149
#
# Stress axis : x y z
#
# Youngs Moduli (GPa) = 56.53728 39.60157 78.80239
#
# Poissons Ratio (x) = 0.13216 -0.10239
# Poissons Ratio (y) = 0.18867 0.61434
# Poissons Ratio (z) = -0.07346 0.30873
#
# Static dielectric constant tensor:
#      x y z
#    x 1.948650 0.000000 -0.006520 
#    y 0.000000 1.916860 0.000000 
#    z -0.006520 0.000000 1.910160 
# 
# From -- ./inp_files/43377.got.cif
#   From: 2010.05.17/outbox.cif.g08.bks.cpg/sg15_22_cif.got.tgz:43377.got - 2010.06.03 18:47:42.
