data_PCOD9273609
_publ_section_title
;
Structure prediction by ZEFSAII (Michael W. Deem and Ramdas Pophale) SiO2 
 PCOD9273609
Probable space group: C 2/C
;
_chemical_formula_sum "Si O2"
_cell_formula_units_Z 64
_cell_length_a 10.996584
_cell_length_b 11.583816
_cell_length_c 25.508839
_cell_angle_alpha 90.000000
_cell_angle_beta 89.999930
_cell_angle_gamma 90.000000
_cell_volume 3249.377278
_symmetry_space_group_name_H-M "C 2/C"
_symmetry_group_IT_number 15
_symmetry_cell_setting 'monoclinic'
loop_
_space_group_symop_operation_xyz
x,y,z
-x,y,1/2-z
-x,-y,-z
x,-y,1/2+z
1/2+x,1/2+y,z
1/2-x,1/2+y,1/2-z
1/2-x,1/2-y,-z
1/2+x,1/2-y,1/2+z
loop_
_atom_site_type_symbol
_atom_site_label
_atom_site_fract_x
_atom_site_fract_y
_atom_site_fract_z
Si Si1 0.860558 0.972725 0.841308
Si Si2 1.000000 0.499999 0.383814
Si Si3 0.358098 0.900147 0.206802
Si Si4 0.750001 0.250000 0.716881
Si Si5 0.360559 0.527273 0.658692
Si Si6 0.641901 0.900147 0.706802
Si Si7 0.735259 0.888776 0.061648
Si Si8 0.235257 0.388777 0.938353
O O1 0.803528 0.855640 0.816212
O O2 0.834998 0.953810 0.902911
O O3 0.774034 0.072155 0.818014
O O4 1.000000 0.999999 0.829933
O O5 0.053617 0.406538 0.342609
O O6 0.106342 0.561029 0.416798
O O7 0.946384 0.593460 0.342609
O O8 0.893656 0.438969 0.416798
O O9 0.354831 0.790412 0.243455
O O10 0.377946 1.000000 0.250000
O O11 0.803530 0.144359 0.683788
O O12 0.854833 0.290413 0.756545
O O13 0.274033 0.427845 0.681986
O O14 0.335000 0.546189 0.597089
O O15 0.750002 0.750000 0.068851
O O16 0.745583 0.912308 0.000000
#
# Coordination Sequence:
#
# PCOD9273609 Si02
#       8
#     8   8   8   8   8   8   8   8
#     4  10  21  39  58  90 124 158 206 248 298 365
#     4  10  20  38  58  84 124 154 194 258 294 364
#     4   9  20  36  54  85 121 160 200 234 300 362
#     4  10  20  38  55  86 125 164 192 248 294 358
#     4  10  21  39  58  90 124 158 206 248 298 365
#     4   9  20  36  54  85 121 160 200 234 300 362
#     4  10  21  39  63  89 115 156 206 254 313 356
#     4  10  21  39  63  89 115 156 206 254 313 356
#
# _framework density 19.696081
#
# number of rings (size 3 to 8) (size 9 to 14) (size 15 to 20)
#    0.000    2.250    1.250    0.750    0.000    7.000 
#   13.500    0.000    0.000    0.000    0.000   13.125 
#    0.000    0.000    0.000    0.000    0.000    0.000 
#
# Total GULP energy -178401.455293 kJ/mol
# GULP energy per Si atom -5575.045478 kJ/mol
# Density = 1.965125 g / cm^3
# Si number density = 19.696081 Si / 1000 Ang^3
#
#
#
# Elastic Constant Matrix: (Units=GPa)
#
#
# Indices 1 2 3 4 5 6 
#
# 1 109.4506 10.9061 33.3911 0.0000 2.4189 0.0000
# 2 10.9061 42.6710 32.4439 0.0000 -1.7554 0.0000
# 3 33.3911 32.4439 138.6415 0.0000 -4.7981 0.0000
# 4 0.0000 0.0000 0.0000 -6.3927 0.0000 1.0305
# 5 2.4189 -1.7554 -4.7981 0.0000 23.7768 0.0000
# 6 0.0000 0.0000 0.0000 1.0305 0.0000 6.2574
#
#
#
# Elastic Compliance Matrix: (Units=1/GPa)
#
#
# Indices 1 2 3 4 5 6 
#
# 1 0.009943 -0.000904 -0.002236 0.000000 -0.001529 0.000000
# 2 -0.000904 0.028603 -0.006445 0.000000 0.000903 0.000000
# 3 -0.002236 -0.006445 0.009316 0.000000 0.001632 0.000000
# 4 0.000000 0.000000 0.000000 -0.152384 0.000000 0.025094
# 5 -0.001529 0.000903 0.001632 0.000000 0.042609 0.000000
# 6 0.000000 0.000000 0.000000 0.025094 0.000000 0.155677
#
#
# Mechanical properties :
#
#
# Convention : Reuss Voigt Hill
#
# Bulk Modulus (GPa) = 34.85208 49.36059 42.10634
# Shear Modulus (GPa) = 40.81724 18.99645 29.90685
#
# Velocity S-wave (km/s) = 4.55725 3.10898 3.90091
# Velocity P-wave (km/s) = 6.73979 6.16467 6.45863
#
# Compressibility (1/GPa) = 0.02869269
#
# Stress axis : x y z
#
# Youngs Moduli (GPa) = 100.57751 34.96106 107.34277
#
# Poissons Ratio (x) = 0.03160 0.24002
# Poissons Ratio (y) = 0.09092 0.69178
# Poissons Ratio (z) = 0.22489 0.22531
#
# Static dielectric constant tensor:
#      x y z
#    x 1.335600 0.000000 -0.028350 
#    y 0.000000 1.749080 0.000000 
#    z -0.028350 0.000000 1.683440 
# 
# From -- ./inp_files/268926.got.cif
#   From: 2010.05.17/outbox.cif.g08.bks.cpg/sg15_135_cif.got.tgz:268926.got - 2010.06.03 18:47:42.
