data_PCOD9273293
_publ_section_title
;
Structure prediction by ZEFSAII (Michael W. Deem and Ramdas Pophale) SiO2 
 PCOD9273293
Probable space group: C 2/C
;
_chemical_formula_sum "Si O2"
_cell_formula_units_Z 64
_cell_length_a 32.483009
_cell_length_b 7.886081
_cell_length_c 19.441657
_cell_angle_alpha 90.000000
_cell_angle_beta 34.607999
_cell_angle_gamma 90.000000
_cell_volume 2828.573616
_symmetry_space_group_name_H-M "C 2/C"
_symmetry_group_IT_number 15
_symmetry_cell_setting 'monoclinic'
loop_
_space_group_symop_operation_xyz
x,y,z
-x,y,1/2-z
-x,-y,-z
x,-y,1/2+z
1/2+x,1/2+y,z
1/2-x,1/2+y,1/2-z
1/2-x,1/2-y,-z
1/2+x,1/2-y,1/2+z
loop_
_atom_site_type_symbol
_atom_site_label
_atom_site_fract_x
_atom_site_fract_y
_atom_site_fract_z
Si Si1 0.269403 0.584263 0.325900
Si Si2 0.200785 0.916329 0.985267
Si Si3 0.550299 0.473326 0.744484
Si Si4 0.068284 0.906022 0.871166
Si Si5 0.772656 0.535630 0.761075
Si Si6 0.679270 0.036200 0.072669
Si Si7 0.020566 0.374905 0.799475
Si Si8 0.068597 0.559277 0.949125
O O1 0.349083 0.520122 0.242454
O O2 0.245268 0.470891 0.294501
O O3 0.269180 0.774393 0.295827
O O4 0.212719 0.578229 0.466666
O O5 0.271318 0.981855 0.928318
O O6 0.215384 0.929611 0.884559
O O7 0.131469 0.021690 0.104110
O O8 0.188148 0.725251 0.028486
O O9 0.500000 0.419405 0.750000
O O10 0.547156 0.374703 0.820717
O O11 0.531120 0.670341 0.790434
O O12 0.079799 0.744301 0.902701
O O13 0.000000 0.000000 0.000000
O O14 0.854415 0.466764 0.660867
O O15 0.595849 0.028255 0.209121
O O16 0.000000 0.409726 0.750000
O O17 0.957724 0.430401 0.936675
O O18 0.000000 0.500000 0.000000
#
# Coordination Sequence:
#
# PCOD9273293 Si02
#       8
#     8   8   8   8   8   8   8   8
#     4  11  24  42  62  95 130 167 218 261 324 379
#     4  10  21  38  61  93 124 163 213 253 320 378
#     4  10  21  39  64  95 122 159 215 263 311 375
#     4  11  23  41  67  92 126 167 214 267 315 378
#     4  11  25  41  64  94 129 172 209 270 316 384
#     4  10  20  38  65  88 123 167 210 262 313 382
#     4  10  20  37  64  89 123 167 210 261 311 377
#     4  11  24  43  63  95 131 168 212 263 329 385
#
# _framework density 22.626245000000001
#
# number of rings (size 3 to 8) (size 9 to 14) (size 15 to 20)
#    0.000    1.500    2.500    2.250    1.750    4.500 
#    2.250    0.625    0.000    0.000    0.000    0.000 
#    0.000    0.000    0.000    0.000    0.000    0.000 
#
# Total GULP energy -178868.365356 kJ/mol
# GULP energy per Si atom -5589.636417 kJ/mol
# Density = 2.257475 g / cm^3
# Si number density = 22.626245 Si / 1000 Ang^3
#
#
#
# Elastic Constant Matrix: (Units=GPa)
#
#
# Indices 1 2 3 4 5 6 
#
# 1 88.0593 3.0174 20.4405 0.0032 6.3628 -0.0028
# 2 3.0174 25.9072 9.9468 -0.0098 2.8385 0.0033
# 3 20.4405 9.9468 117.6976 -0.0048 12.5071 0.0047
# 4 0.0032 -0.0098 -0.0048 24.8727 0.0019 7.8252
# 5 6.3628 2.8385 12.5071 0.0019 40.7253 -0.0005
# 6 -0.0028 0.0033 0.0047 7.8252 -0.0005 18.0867
#
#
#
# Elastic Compliance Matrix: (Units=1/GPa)
#
#
# Indices 1 2 3 4 5 6 
#
# 1 0.011903 -0.000524 -0.001891 -0.000003 -0.001242 0.000004
# 2 -0.000524 0.040045 -0.003107 0.000020 -0.001755 -0.000015
# 3 -0.001891 -0.003107 0.009338 0.000002 -0.002356 -0.000003
# 4 -0.000003 0.000020 0.000002 0.046540 -0.000004 -0.020135
# 5 -0.001242 -0.001755 -0.002356 -0.000004 0.025595 0.000003
# 6 0.000004 -0.000015 -0.000003 -0.020135 0.000003 0.064001
#
#
# Mechanical properties :
#
#
# Convention : Reuss Voigt Hill
#
# Bulk Modulus (GPa) = 19.90363 33.16372 26.53367
# Shear Modulus (GPa) = 22.20133 29.95422 26.07778
#
# Velocity S-wave (km/s) = 3.13584 3.64245 3.39860
# Velocity P-wave (km/s) = 4.68264 5.69025 5.21086
#
# Compressibility (1/GPa) = 0.05024210
#
# Stress axis : x y z
#
# Youngs Moduli (GPa) = 84.01517 24.97165 107.09380
#
# Poissons Ratio (x) = 0.01309 0.20249
# Poissons Ratio (y) = 0.04404 0.33271
# Poissons Ratio (z) = 0.15885 0.07758
#
# Static dielectric constant tensor:
#      x y z
#    x 1.778290 -0.000030 0.011370 
#    y -0.000030 1.878340 0.000040 
#    z 0.011370 0.000040 1.753470 
# 
# From -- ./inp_files/224575.got.cif
#   From: 2010.05.17/outbox.cif.g08.bks.cpg/sg15_113_cif.got.tgz:224575.got - 2010.06.03 18:47:42.
