data_PCOD9273187
_publ_section_title
;
Structure prediction by ZEFSAII (Michael W. Deem and Ramdas Pophale) SiO2 
 PCOD9273187
Probable space group: C 2/C
;
_chemical_formula_sum "Si O2"
_cell_formula_units_Z 60
_cell_length_a 14.009962
_cell_length_b 12.097358
_cell_length_c 18.000411
_cell_angle_alpha 90.000000
_cell_angle_beta 87.677663
_cell_angle_gamma 90.000000
_cell_volume 3048.267443
_symmetry_space_group_name_H-M "C 2/C"
_symmetry_group_IT_number 15
_symmetry_cell_setting 'monoclinic'
loop_
_space_group_symop_operation_xyz
x,y,z
-x,y,1/2-z
-x,-y,-z
x,-y,1/2+z
1/2+x,1/2+y,z
1/2-x,1/2+y,1/2-z
1/2-x,1/2-y,-z
1/2+x,1/2-y,1/2+z
loop_
_atom_site_type_symbol
_atom_site_label
_atom_site_fract_x
_atom_site_fract_y
_atom_site_fract_z
Si Si1 0.038533 0.237240 0.403761
Si Si2 0.417930 0.058544 0.956268
Si Si3 0.000000 0.877779 0.750000
Si Si4 0.245433 0.824737 0.105543
Si Si5 0.301435 0.082857 0.349083
Si Si6 0.645028 0.557554 0.473177
Si Si7 0.766792 0.865112 0.958385
Si Si8 0.206608 0.044518 0.198503
O O1 0.019686 0.196835 0.321262
O O2 0.141867 0.298176 0.402661
O O3 0.053223 0.128171 0.453851
O O4 0.957154 0.321337 0.432023
O O5 0.384824 0.987798 0.885462
O O6 0.327592 0.067837 0.013752
O O7 0.500000 0.000000 0.000000
O O8 0.902639 0.944742 0.769990
O O9 0.192554 0.713057 0.133308
O O10 0.225807 0.924925 0.162398
O O11 0.203622 0.864746 0.028421
O O12 0.205671 0.045338 0.395899
O O13 0.279617 0.064944 0.263560
O O14 0.646619 0.438066 0.511120
O O15 0.777867 0.867893 0.869429
O O16 0.750000 0.750000 0.000000
#
# Coordination Sequence:
#
# PCOD9273187 Si02
#       8
#     8   8   4   8   8   8   8   8
#     4  11  21  38  66  94 120 161 215 261 303 370
#     4  11  22  39  66  95 123 158 215 263 306 382
#     4  12  24  40  60  94 120 160 220 262 292 382
#     4  10  20  39  66  86 122 168 204 250 317 381
#     4  10  20  37  63  90 123 163 202 258 324 368
#     4   9  18  38  63  89 118 166 211 245 307 379
#     4  10  22  41  63  92 129 169 202 259 325 378
#     4  11  23  40  62  91 125 165 212 255 321 380
#
# _framework density 19.683312999999998
#
# number of rings (size 3 to 8) (size 9 to 14) (size 15 to 20)
#    0.000    1.600    2.667    5.600    1.867    2.133 
#    0.000    7.333    2.933    0.000    0.000    0.000 
#    0.000    0.000    0.000    0.000    0.000    0.000 
#
# Total GULP energy -167451.448932 kJ/mol
# GULP energy per Si atom -5581.714964 kJ/mol
# Density = 1.963851 g / cm^3
# Si number density = 19.683313 Si / 1000 Ang^3
#
#
#
# Elastic Constant Matrix: (Units=GPa)
#
#
# Indices 1 2 3 4 5 6 
#
# 1 114.0357 52.1643 48.7279 0.0000 2.4177 0.0000
# 2 52.1643 92.2409 45.7553 0.0000 15.3206 0.0000
# 3 48.7279 45.7553 146.0711 0.0000 24.1691 0.0000
# 4 0.0000 0.0000 0.0000 30.1260 0.0000 -7.1083
# 5 2.4177 15.3206 24.1691 0.0000 28.5166 0.0000
# 6 0.0000 0.0000 0.0000 -7.1083 0.0000 36.1832
#
#
#
# Elastic Compliance Matrix: (Units=1/GPa)
#
#
# Indices 1 2 3 4 5 6 
#
# 1 0.013047 -0.006689 -0.003104 0.000000 0.005118 0.000000
# 2 -0.006689 0.016681 -0.001867 0.000000 -0.006813 0.000000
# 3 -0.003104 -0.001867 0.009603 0.000000 -0.006873 0.000000
# 4 0.000000 0.000000 0.000000 0.034807 0.000000 0.006838
# 5 0.005118 -0.006813 -0.006873 0.000000 0.044119 0.000000
# 6 0.000000 0.000000 0.000000 0.006838 0.000000 0.028980
#
#
# Mechanical properties :
#
#
# Convention : Reuss Voigt Hill
#
# Bulk Modulus (GPa) = 62.44994 71.73807 67.09400
# Shear Modulus (GPa) = 28.42621 32.67851 30.55236
#
# Velocity S-wave (km/s) = 3.80436 4.07899 3.94407
# Velocity P-wave (km/s) = 7.14799 7.66221 7.40956
#
# Compressibility (1/GPa) = 0.01601283
#
# Stress axis : x y z
#
# Youngs Moduli (GPa) = 76.64842 59.94757 104.12955
#
# Poissons Ratio (x) = 0.40096 0.32321
# Poissons Ratio (y) = 0.51267 0.19438
# Poissons Ratio (z) = 0.23791 0.11191
#
# Static dielectric constant tensor:
#      x y z
#    x 1.711670 0.000000 0.001130 
#    y 0.000000 1.733990 0.000000 
#    z 0.001130 0.000000 1.682920 
# 
# From -- ./inp_files/204050.got.cif
#   From: 2010.05.17/outbox.cif.g08.bks.cpg/sg15_103_cif.got.tgz:204050.got - 2010.06.03 18:47:42.
