data_PCOD9273486
_publ_section_title
;
Structure prediction by ZEFSAII (Michael W. Deem and Ramdas Pophale) SiO2 
 PCOD9273486
Probable space group: C 2/C
;
_chemical_formula_sum "Si O2"
_cell_formula_units_Z 36
_cell_length_a 26.455173
_cell_length_b 8.033006
_cell_length_c 13.530691
_cell_angle_alpha 90.000000
_cell_angle_beta 36.978111
_cell_angle_gamma 90.000000
_cell_volume 1729.622926
_symmetry_space_group_name_H-M "C 2/C"
_symmetry_group_IT_number 15
_symmetry_cell_setting 'monoclinic'
loop_
_space_group_symop_operation_xyz
x,y,z
-x,y,1/2-z
-x,-y,-z
x,-y,1/2+z
1/2+x,1/2+y,z
1/2-x,1/2+y,1/2-z
1/2-x,1/2-y,-z
1/2+x,1/2-y,1/2+z
loop_
_atom_site_type_symbol
_atom_site_label
_atom_site_fract_x
_atom_site_fract_y
_atom_site_fract_z
Si Si1 0.214764 0.262408 0.220606
Si Si2 0.699866 0.516457 0.079261
Si Si3 0.361174 0.098003 0.108614
Si Si4 0.000000 0.530110 0.750000
Si Si5 0.873559 0.324733 0.816081
O O1 0.171765 0.125717 0.216879
O O2 0.273631 0.177170 0.209634
O O3 0.152935 0.398500 0.363082
O O4 0.274729 0.364780 0.050911
O O5 0.638708 0.369270 0.142279
O O6 0.786729 0.423555 0.975400
O O7 0.383579 0.158351 0.182608
O O8 0.433670 0.134428 0.917160
O O9 0.947093 0.415729 0.758276
#
# Coordination Sequence:
#
# PCOD9273486 Si02
#       5
#     8   8   8   4   8
#     4  10  20  37  66  94 116 165 212 253 292 375
#     4   9  19  39  67  90 119 160 218 253 295 366
#     4  11  23  38  67  90 128 163 212 248 313 363
#     4  12  24  40  60  94 132 162 196 266 314 364
#     4  10  21  40  63  91 123 166 204 257 309 368
#
# _framework density 20.813786
#
# number of rings (size 3 to 8) (size 9 to 14) (size 15 to 20)
#    0.000    1.778    2.222    2.000    6.222    0.000 
#    0.000    2.222    0.000    0.000    0.000    0.000 
#    0.000    0.000    0.000    0.000    0.000    0.000 
#
# Total GULP energy -100622.348717 kJ/mol
# GULP energy per Si atom -5590.130484 kJ/mol
# Density = 2.076641 g / cm^3
# Si number density = 20.813786 Si / 1000 Ang^3
#
#
#
# Elastic Constant Matrix: (Units=GPa)
#
#
# Indices 1 2 3 4 5 6 
#
# 1 57.0158 -10.6841 -19.9940 0.0000 8.2272 0.0000
# 2 -10.6841 60.8783 -12.9550 -0.0003 4.2284 0.0001
# 3 -19.9940 -12.9550 49.2267 -0.0002 15.1427 0.0000
# 4 0.0000 -0.0003 -0.0002 8.5790 0.0000 7.5183
# 5 8.2272 4.2284 15.1427 0.0000 25.9465 0.0000
# 6 0.0000 0.0001 0.0000 7.5183 0.0000 19.7553
#
#
#
# Elastic Compliance Matrix: (Units=1/GPa)
#
#
# Indices 1 2 3 4 5 6 
#
# 1 0.032597 0.012903 0.024939 0.000002 -0.026993 -0.000001
# 2 0.012903 0.023523 0.016903 0.000002 -0.017790 -0.000001
# 3 0.024939 0.016903 0.046524 0.000002 -0.037814 -0.000001
# 4 0.000002 0.000002 0.000002 0.174893 -0.000002 -0.066559
# 5 -0.026993 -0.017790 -0.037814 -0.000002 0.072068 0.000001
# 6 -0.000001 -0.000001 -0.000001 -0.066559 0.000001 0.075950
#
#
# Mechanical properties :
#
#
# Convention : Reuss Voigt Hill
#
# Bulk Modulus (GPa) = 4.71401 8.87274 6.79337
# Shear Modulus (GPa) = 12.92735 24.90644 18.91689
#
# Velocity S-wave (km/s) = 2.49488 3.46299 3.01801
# Velocity P-wave (km/s) = 3.25100 4.50132 3.92625
#
# Compressibility (1/GPa) = 0.21213370
#
# Stress axis : x y z
#
# Youngs Moduli (GPa) = 30.67752 42.51109 21.49436
#
# Poissons Ratio (x) = -0.54850 -0.53604
# Poissons Ratio (y) = -0.39582 -0.36333
# Poissons Ratio (z) = -0.76506 -0.71858
#
# Static dielectric constant tensor:
#      x y z
#    x 1.720000 0.000000 0.035700 
#    y 0.000000 1.752380 0.000000 
#    z 0.035700 0.000000 1.749450 
# 
# From -- ./inp_files/102625.got.cif
#   From: 2010.05.17/outbox.cif.g08.bks.cpg/sg15_52_cif.got.tgz:102625.got - 2010.06.03 18:47:42.
