data_PCOD9273811
_publ_section_title
;
Structure prediction by ZEFSAII (Michael W. Deem and Ramdas Pophale) SiO2 
 PCOD9273811
Probable space group: C 2/C
;
_chemical_formula_sum "Si O2"
_cell_formula_units_Z 64
_cell_length_a 22.795722
_cell_length_b 15.277436
_cell_length_c 9.384690
_cell_angle_alpha 90.000000
_cell_angle_beta 91.266379
_cell_angle_gamma 90.000000
_cell_volume 3267.515580
_symmetry_space_group_name_H-M "C 2/C"
_symmetry_group_IT_number 15
_symmetry_cell_setting 'monoclinic'
loop_
_space_group_symop_operation_xyz
x,y,z
-x,y,1/2-z
-x,-y,-z
x,-y,1/2+z
1/2+x,1/2+y,z
1/2-x,1/2+y,1/2-z
1/2-x,1/2-y,-z
1/2+x,1/2-y,1/2+z
loop_
_atom_site_type_symbol
_atom_site_label
_atom_site_fract_x
_atom_site_fract_y
_atom_site_fract_z
Si Si1 0.046519 0.827625 0.479035
Si Si2 0.868179 0.055493 0.699556
Si Si3 0.764804 0.774028 0.837448
Si Si4 0.767097 0.419837 0.323553
Si Si5 0.566508 0.837136 0.780310
Si Si6 0.089361 0.187270 0.565825
Si Si7 0.180990 0.573401 0.358710
Si Si8 0.113728 0.147959 0.249980
O O1 0.088080 0.901597 0.412735
O O2 0.063785 0.736376 0.404649
O O3 0.060282 0.824824 0.646061
O O4 0.978691 0.843894 0.440554
O O5 0.800725 0.057650 0.647049
O O6 0.874929 0.117294 0.838616
O O7 0.885596 0.956465 0.732593
O O8 0.767049 0.679437 0.764911
O O9 0.715075 0.842950 0.792220
O O10 0.827024 0.820658 0.824277
O O11 0.750000 0.750000 0.000000
O O12 0.793397 0.487308 0.212631
O O13 0.803572 0.425434 0.472732
O O14 0.500000 0.867645 0.750000
O O15 0.587985 0.780509 0.645196
O O16 0.612804 0.910622 0.824500
O O17 0.111010 0.189442 0.406042
#
# Coordination Sequence:
#
# PCOD9273811 Si02
#       8
#     8   8   8   8   8   8   8   8
#     4  10  20  38  59  87 125 173 208 249 321 387
#     4  11  22  37  55  85 129 168 210 252 316 381
#     4  10  21  39  60  85 123 169 203 248 317 378
#     4  11  24  39  64  89 124 163 212 262 309 380
#     4   9  20  43  67  87 119 163 207 254 317 386
#     4  10  23  36  59  90 125 164 213 264 309 369
#     4  11  22  42  64  93 118 163 206 255 323 376
#     4  12  22  34  59  91 126 160 213 264 311 369
#
# _framework density 19.586746000000002
#
# number of rings (size 3 to 8) (size 9 to 14) (size 15 to 20)
#    0.000    1.500    1.250    6.750    1.750    4.000 
#    0.000    2.500    0.000    1.500    0.000    0.000 
#    0.000    0.000    0.000    0.000    0.000    0.000 
#
# Total GULP energy -178814.282420 kJ/mol
# GULP energy per Si atom -5587.946326 kJ/mol
# Density = 1.954217 g / cm^3
# Si number density = 19.586746 Si / 1000 Ang^3
#
#
#
# Elastic Constant Matrix: (Units=GPa)
#
#
# Indices 1 2 3 4 5 6 
#
# 1 73.0376 -5.4150 2.9280 0.0000 7.2824 0.0000
# 2 -5.4150 46.9471 -8.3592 0.0000 -6.5731 0.0000
# 3 2.9280 -8.3592 81.3389 0.0000 4.1341 0.0000
# 4 0.0000 0.0000 0.0000 12.9621 0.0000 2.0765
# 5 7.2824 -6.5731 4.1341 0.0000 29.9733 0.0000
# 6 0.0000 0.0000 0.0000 2.0765 0.0000 17.8615
#
#
#
# Elastic Compliance Matrix: (Units=1/GPa)
#
#
# Indices 1 2 3 4 5 6 
#
# 1 0.014099 0.001145 -0.000230 0.000000 -0.003143 0.000000
# 2 0.001145 0.022406 0.002040 0.000000 0.004354 0.000000
# 3 -0.000230 0.002040 0.012575 0.000000 -0.001231 0.000000
# 4 0.000000 0.000000 0.000000 0.078612 0.000000 -0.009139
# 5 -0.003143 0.004354 -0.001231 0.000000 0.035251 0.000000
# 6 0.000000 0.000000 0.000000 -0.009139 0.000000 0.057049
#
#
# Mechanical properties :
#
#
# Convention : Reuss Voigt Hill
#
# Bulk Modulus (GPa) = 18.18518 19.95901 19.07209
# Shear Modulus (GPa) = 21.51364 26.30403 23.90883
#
# Velocity S-wave (km/s) = 3.31777 3.66860 3.49759
# Velocity P-wave (km/s) = 4.89708 5.30632 5.10580
#
# Compressibility (1/GPa) = 0.05498984
#
# Stress axis : x y z
#
# Youngs Moduli (GPa) = 70.92671 44.63185 79.52437
#
# Poissons Ratio (x) = -0.05111 0.01830
# Poissons Ratio (y) = -0.08123 -0.16224
# Poissons Ratio (z) = 0.01632 -0.09105
#
# Static dielectric constant tensor:
#      x y z
#    x 1.728600 0.000000 0.007320 
#    y 0.000000 1.675600 0.000000 
#    z 0.007320 0.000000 1.701670 
# 
# From -- ./inp_files/61944.got.cif
#   From: 2010.05.17/outbox.cif.g08.bks.cpg/sg15_31_cif.got.tgz:61944.got - 2010.06.03 18:47:42.
