data_PCOD9273692
_publ_section_title
;
Structure prediction by ZEFSAII (Michael W. Deem and Ramdas Pophale) SiO2 
 PCOD9273692
Probable space group: C 2/C
;
_chemical_formula_sum "Si O2"
_cell_formula_units_Z 60
_cell_length_a 17.272327
_cell_length_b 13.820955
_cell_length_c 12.715344
_cell_angle_alpha 90.000000
_cell_angle_beta 77.874326
_cell_angle_gamma 90.000000
_cell_volume 2967.685265
_symmetry_space_group_name_H-M "C 2/C"
_symmetry_group_IT_number 15
_symmetry_cell_setting 'monoclinic'
loop_
_space_group_symop_operation_xyz
x,y,z
-x,y,1/2-z
-x,-y,-z
x,-y,1/2+z
1/2+x,1/2+y,z
1/2-x,1/2+y,1/2-z
1/2-x,1/2-y,-z
1/2+x,1/2-y,1/2+z
loop_
_atom_site_type_symbol
_atom_site_label
_atom_site_fract_x
_atom_site_fract_y
_atom_site_fract_z
Si Si1 0.533002 0.715365 0.576437
Si Si2 0.528209 0.893898 0.022556
Si Si3 0.275691 0.109373 0.207796
Si Si4 0.630424 0.293213 0.841146
Si Si5 0.788407 0.644430 0.988015
Si Si6 0.124950 0.195533 0.767988
Si Si7 0.715454 0.900080 0.256305
Si Si8 0.500000 0.211681 0.750000
O O1 0.511563 0.824971 0.552221
O O2 0.578864 0.681340 0.458452
O O3 0.586964 0.709982 0.664125
O O4 0.447174 0.671426 0.631886
O O5 0.621974 0.874273 0.998836
O O6 0.505163 0.855523 0.145623
O O7 0.500000 0.000000 0.000000
O O8 0.200665 0.131409 0.303011
O O9 0.330058 0.205214 0.208939
O O10 0.316769 0.007477 0.217823
O O11 0.242868 0.096544 0.098331
O O12 0.670708 0.185429 0.832216
O O13 0.574387 0.280289 0.754807
O O14 0.787993 0.615126 0.867742
O O15 0.750000 0.750000 0.000000
O O16 0.192161 0.114016 0.743476
#
# Coordination Sequence:
#
# PCOD9273692 Si02
#       8
#     8   8   8   8   8   8   8   4
#     4  10  22  38  64  85 126 163 201 268 334 374
#     4  11  23  33  58  93 123 159 208 265 325 389
#     4  11  24  39  63  91 124 168 217 260 320 382
#     4  10  22  40  62  91 121 166 215 266 319 384
#     4  12  21  42  64  87 133 179 216 255 330 405
#     4  10  22  42  61  90 126 168 210 259 329 389
#     4  11  24  40  65  92 128 170 219 264 317 391
#     4  10  20  38  58  82 128 158 206 258 330 372
#
# _framework density 20.217777000000002
#
# number of rings (size 3 to 8) (size 9 to 14) (size 15 to 20)
#    0.000    1.333    5.333    0.000    5.600    5.333 
#    0.000    2.000    0.000    0.000    0.000    0.000 
#    0.000    0.000    0.000    0.000    0.000    0.000 
#
# Total GULP energy -167069.795941 kJ/mol
# GULP energy per Si atom -5568.993198 kJ/mol
# Density = 2.017176 g / cm^3
# Si number density = 20.217777 Si / 1000 Ang^3
#
#
#
# Elastic Constant Matrix: (Units=GPa)
#
#
# Indices 1 2 3 4 5 6 
#
# 1 102.7251 0.8875 25.3776 0.0000 -4.2458 0.0000
# 2 0.8875 36.3194 -0.0999 0.0000 2.9454 0.0000
# 3 25.3776 -0.0999 106.7224 0.0000 -5.6723 0.0000
# 4 0.0000 0.0000 0.0000 16.6304 0.0000 7.0857
# 5 -4.2458 2.9454 -5.6723 0.0000 35.7952 0.0000
# 6 0.0000 0.0000 0.0000 7.0857 0.0000 16.9660
#
#
#
# Elastic Compliance Matrix: (Units=1/GPa)
#
#
# Indices 1 2 3 4 5 6 
#
# 1 0.010372 -0.000331 -0.002420 0.000000 0.000874 0.000000
# 2 -0.000331 0.027730 -0.000019 0.000000 -0.002324 0.000000
# 3 -0.002420 -0.000019 0.010015 0.000000 0.001301 0.000000
# 4 0.000000 0.000000 0.000000 0.073147 0.000000 -0.030549
# 5 0.000874 -0.002324 0.001301 0.000000 0.028438 0.000000
# 6 0.000000 0.000000 0.000000 -0.030549 0.000000 0.071700
#
#
# Mechanical properties :
#
#
# Convention : Reuss Voigt Hill
#
# Bulk Modulus (GPa) = 23.48719 33.12193 28.30456
# Shear Modulus (GPa) = 20.73538 28.51842 24.62690
#
# Velocity S-wave (km/s) = 3.20598 3.75982 3.49389
# Velocity P-wave (km/s) = 5.03455 5.93856 5.50514
#
# Compressibility (1/GPa) = 0.04257640
#
# Stress axis : x y z
#
# Youngs Moduli (GPa) = 96.41739 36.06204 99.85277
#
# Poissons Ratio (x) = 0.01194 0.24166
# Poissons Ratio (y) = 0.03191 0.00188
# Poissons Ratio (z) = 0.23334 0.00068
#
# Static dielectric constant tensor:
#      x y z
#    x 1.989710 0.000000 -0.106080 
#    y 0.000000 1.906860 0.000000 
#    z -0.106080 0.000000 1.848430 
# 
# From -- ./inp_files/105692.got.cif
#   From: 2010.05.17/outbox.cif.g08.bks.cpg/sg15_53_cif.got.tgz:105692.got - 2010.06.03 18:47:42.
