data_PCOD9273054
_publ_section_title
;
Structure prediction by ZEFSAII (Michael W. Deem and Ramdas Pophale) SiO2 
 PCOD9273054
Probable space group: C 2/C
;
_chemical_formula_sum "Si O2"
_cell_formula_units_Z 56
_cell_length_a 8.903633
_cell_length_b 23.610215
_cell_length_c 18.336960
_cell_angle_alpha 90.000000
_cell_angle_beta 131.933905
_cell_angle_gamma 90.000000
_cell_volume 2867.599922
_symmetry_space_group_name_H-M "C 2/C"
_symmetry_group_IT_number 15
_symmetry_cell_setting 'monoclinic'
loop_
_space_group_symop_operation_xyz
x,y,z
-x,y,1/2-z
-x,-y,-z
x,-y,1/2+z
1/2+x,1/2+y,z
1/2-x,1/2+y,1/2-z
1/2-x,1/2-y,-z
1/2+x,1/2-y,1/2+z
loop_
_atom_site_type_symbol
_atom_site_label
_atom_site_fract_x
_atom_site_fract_y
_atom_site_fract_z
Si Si1 0.646437 0.105905 0.959542
Si Si2 0.660983 0.015777 0.488354
Si Si3 0.709743 0.201154 0.861004
Si Si4 0.842960 0.811885 0.032772
Si Si5 0.223281 0.833099 0.852823
Si Si6 0.949281 0.618995 0.148616
Si Si7 0.298671 0.397293 0.139479
O O1 0.705371 0.156349 0.925085
O O2 0.403659 0.097090 0.878721
O O3 0.733909 0.042797 0.976673
O O4 0.713362 0.125450 0.061649
O O5 0.569158 0.058605 0.398758
O O6 0.819002 0.052181 0.586888
O O7 0.500000 0.000000 0.500000
O O8 0.500000 0.193962 0.750000
O O9 0.726567 0.268367 0.883087
O O10 0.915918 0.188406 0.884919
O O11 0.761693 0.842186 0.078437
O O12 0.750000 0.750000 0.000000
O O13 0.758665 0.847590 0.936650
O O14 0.380305 0.844312 0.838221
O O15 0.000000 0.844486 0.750000
O O16 0.000000 0.614034 0.250000
O O17 0.500000 0.392686 0.250000
#
# Coordination Sequence:
#
# PCOD9273054 Si02
#       7
#     8   8   8   8   8   8   8
#     4  11  21  42  64  88 128 165 208 265 317 381
#     4   9  19  41  64  87 130 167 212 267 316 381
#     4  11  24  40  60  96 130 163 208 260 320 382
#     4  11  21  41  61  88 129 167 207 263 322 378
#     4  11  23  41  62  93 124 166 210 262 322 381
#     4  11  23  42  64  97 125 164 223 262 315 386
#     4  10  20  37  62  90 118 168 216 256 316 386
#
# _framework density 19.528527
#
# number of rings (size 3 to 8) (size 9 to 14) (size 15 to 20)
#    0.000    1.429    5.714    1.286    2.000    1.714 
#    2.571    2.857    0.000    0.000    0.000    0.000 
#    0.000    0.000    0.000    0.000    0.000    0.000 
#
# Total GULP energy -156166.678787 kJ/mol
# GULP energy per Si atom -5577.381385 kJ/mol
# Density = 1.948408 g / cm^3
# Si number density = 19.528527 Si / 1000 Ang^3
#
#
#
# Elastic Constant Matrix: (Units=GPa)
#
#
# Indices 1 2 3 4 5 6 
#
# 1 46.0039 28.7904 14.3842 0.0000 4.7129 0.0000
# 2 28.7904 146.5716 55.7555 0.0000 -16.7183 0.0000
# 3 14.3842 55.7555 89.2832 0.0000 -7.7046 0.0000
# 4 0.0000 0.0000 0.0000 9.6272 0.0000 0.5629
# 5 4.7129 -16.7183 -7.7046 0.0000 34.1531 0.0000
# 6 0.0000 0.0000 0.0000 0.5629 0.0000 23.9720
#
#
#
# Elastic Compliance Matrix: (Units=1/GPa)
#
#
# Indices 1 2 3 4 5 6 
#
# 1 0.026207 -0.005344 -0.001451 0.000000 -0.006560 0.000000
# 2 -0.005344 0.010390 -0.005227 0.000000 0.004645 0.000000
# 3 -0.001451 -0.005227 0.014782 0.000000 0.000976 0.000000
# 4 0.000000 0.000000 0.000000 0.104015 0.000000 -0.002442
# 5 -0.006560 0.004645 0.000976 0.000000 0.032679 0.000000
# 6 0.000000 0.000000 0.000000 -0.002442 0.000000 0.041773
#
#
# Mechanical properties :
#
#
# Convention : Reuss Voigt Hill
#
# Bulk Modulus (GPa) = 36.58124 53.30208 44.94166
# Shear Modulus (GPa) = 19.01124 25.74572 22.37848
#
# Velocity S-wave (km/s) = 3.12350 3.63487 3.38884
# Velocity P-wave (km/s) = 5.63748 6.70597 6.19481
#
# Compressibility (1/GPa) = 0.02733641
#
# Stress axis : x y z
#
# Youngs Moduli (GPa) = 38.15704 96.24326 67.64817
#
# Poissons Ratio (x) = 0.51433 0.09816
# Poissons Ratio (y) = 0.20391 0.35358
# Poissons Ratio (z) = 0.05537 0.50304
#
# Static dielectric constant tensor:
#      x y z
#    x 1.696980 0.000000 0.007990 
#    y 0.000000 1.721260 0.000000 
#    z 0.007990 0.000000 1.663970 
# 
# From -- ./inp_files/193317.got.cif
#   From: 2010.05.17/outbox.cif.g08.bks.cpg/sg15_97_cif.got.tgz:193317.got - 2010.06.03 18:47:42.
