data_PCOD9273296
_publ_section_title
;
Structure prediction by ZEFSAII (Michael W. Deem and Ramdas Pophale) SiO2 
 PCOD9273296
Probable space group: C 2/C
;
_chemical_formula_sum "Si O2"
_cell_formula_units_Z 60
_cell_length_a 11.053449
_cell_length_b 19.786402
_cell_length_c 11.952362
_cell_angle_alpha 90.000000
_cell_angle_beta 95.914659
_cell_angle_gamma 90.000000
_cell_volume 2600.160936
_symmetry_space_group_name_H-M "C 2/C"
_symmetry_group_IT_number 15
_symmetry_cell_setting 'monoclinic'
loop_
_space_group_symop_operation_xyz
x,y,z
-x,y,1/2-z
-x,-y,-z
x,-y,1/2+z
1/2+x,1/2+y,z
1/2-x,1/2+y,1/2-z
1/2-x,1/2-y,-z
1/2+x,1/2-y,1/2+z
loop_
_atom_site_type_symbol
_atom_site_label
_atom_site_fract_x
_atom_site_fract_y
_atom_site_fract_z
Si Si1 0.000000 0.612226 0.250000
Si Si2 0.788263 0.388850 0.337216
Si Si3 0.876196 0.727071 0.682184
Si Si4 0.044320 0.608327 0.971825
Si Si5 0.694154 0.154643 0.173243
Si Si6 0.802204 0.499292 0.149384
Si Si7 0.920474 0.068302 0.134899
Si Si8 0.898357 0.073263 0.518211
O O1 0.119342 0.669073 0.276697
O O2 0.099894 0.551564 0.298025
O O3 0.822665 0.323862 0.269020
O O4 0.764176 0.448848 0.246087
O O5 0.679026 0.377809 0.411972
O O6 0.908755 0.407578 0.420398
O O7 0.913989 0.678109 0.583839
O O8 0.773854 0.781695 0.644429
O O9 0.000000 0.756742 0.750000
O O10 0.132276 0.549675 0.935207
O O11 0.067831 0.623153 0.104926
O O12 0.788552 0.095304 0.153599
O O13 0.690628 0.539369 0.082996
O O14 0.000000 0.081751 0.250000
O O15 0.984341 0.102766 0.033051
O O16 0.928523 0.990183 0.100780
#
# Coordination Sequence:
#
# PCOD9273296 Si02
#       8
#     4   8   8   8   8   8   8   8
#     4  12  24  34  62  96 126 156 194 270 324 370
#     4  10  20  39  64  94 130 163 209 273 309 373
#     4   9  21  41  63  85 120 170 218 258 306 365
#     4  10  20  37  64  90 122 165 208 257 319 370
#     4  12  23  40  61  87 123 166 212 258 310 379
#     4  11  20  36  61  96 129 159 204 259 327 377
#     4  11  24  39  57  87 129 170 203 257 314 388
#     4  11  22  37  61  92 126 167 211 250 326 385
#
# _framework density 23.075493999999999
#
# number of rings (size 3 to 8) (size 9 to 14) (size 15 to 20)
#    0.000    1.333    2.667    4.800    0.000    1.067 
#    0.000    2.667    0.000    6.400    0.000    0.000 
#    0.000    0.000    0.000    0.000    0.000    0.000 
#
# Total GULP energy -167217.768279 kJ/mol
# GULP energy per Si atom -5573.925609 kJ/mol
# Density = 2.302297 g / cm^3
# Si number density = 23.075494 Si / 1000 Ang^3
#
#
#
# Elastic Constant Matrix: (Units=GPa)
#
#
# Indices 1 2 3 4 5 6 
#
# 1 122.3770 17.4233 38.8805 0.0000 -45.5529 0.0000
# 2 17.4233 56.1914 21.7416 0.0000 -5.4939 0.0000
# 3 38.8805 21.7416 79.5114 0.0000 -14.4238 0.0000
# 4 0.0000 0.0000 0.0000 13.3957 0.0000 -3.7287
# 5 -45.5529 -5.4939 -14.4238 0.0000 39.5648 0.0000
# 6 0.0000 0.0000 0.0000 -3.7287 0.0000 26.1638
#
#
#
# Elastic Compliance Matrix: (Units=1/GPa)
#
#
# Indices 1 2 3 4 5 6 
#
# 1 0.015945 -0.001645 -0.004346 0.000000 0.016546 0.000000
# 2 -0.001645 0.020097 -0.004849 0.000000 -0.000871 0.000000
# 3 -0.004346 -0.004849 0.016060 0.000000 0.000178 0.000000
# 4 0.000000 0.000000 0.000000 0.077735 0.000000 0.011078
# 5 0.016546 -0.000871 0.000178 0.000000 0.044269 0.000000
# 6 0.000000 0.000000 0.000000 0.011078 0.000000 0.039799
#
#
# Mechanical properties :
#
#
# Convention : Reuss Voigt Hill
#
# Bulk Modulus (GPa) = 32.86980 46.01896 39.44438
# Shear Modulus (GPa) = 20.34782 27.82717 24.08749
#
# Velocity S-wave (km/s) = 2.97272 3.47640 3.23438
# Velocity P-wave (km/s) = 5.10472 6.00832 5.57486
#
# Compressibility (1/GPa) = 0.03042306
#
# Stress axis : x y z
#
# Youngs Moduli (GPa) = 62.71432 49.75769 62.26613
#
# Poissons Ratio (x) = 0.08185 0.27060
# Poissons Ratio (y) = 0.10316 0.30193
# Poissons Ratio (z) = 0.27255 0.24128
#
# Static dielectric constant tensor:
#      x y z
#    x 2.004260 0.000000 -0.169970 
#    y 0.000000 1.874750 0.000000 
#    z -0.169970 0.000000 2.253000 
# 
# From -- ./inp_files/89623.got.cif
#   From: 2010.05.17/outbox.cif.g08.bks.cpg/sg15_45_cif.got.tgz:89623.got - 2010.06.03 18:47:42.
