data_PCOD9273495
_publ_section_title
;
Structure prediction by ZEFSAII (Michael W. Deem and Ramdas Pophale) SiO2 
 PCOD9273495
Probable space group: C 2/C
;
_chemical_formula_sum "Si O2"
_cell_formula_units_Z 52
_cell_length_a 9.415275
_cell_length_b 16.840303
_cell_length_c 16.023850
_cell_angle_alpha 90.000000
_cell_angle_beta 57.040913
_cell_angle_gamma 90.000000
_cell_volume 2131.780168
_symmetry_space_group_name_H-M "C 2/C"
_symmetry_group_IT_number 15
_symmetry_cell_setting 'monoclinic'
loop_
_space_group_symop_operation_xyz
x,y,z
-x,y,1/2-z
-x,-y,-z
x,-y,1/2+z
1/2+x,1/2+y,z
1/2-x,1/2+y,1/2-z
1/2-x,1/2-y,-z
1/2+x,1/2-y,1/2+z
loop_
_atom_site_type_symbol
_atom_site_label
_atom_site_fract_x
_atom_site_fract_y
_atom_site_fract_z
Si Si1 0.000000 0.423487 0.750000
Si Si2 0.735819 0.546131 0.859075
Si Si3 0.870840 0.007629 0.919844
Si Si4 0.288878 0.661265 0.385844
Si Si5 0.018012 0.710013 0.117527
Si Si6 0.742052 0.834084 0.393192
Si Si7 0.051867 0.319611 0.124991
O O1 0.149379 0.482873 0.726687
O O2 0.068819 0.365616 0.656802
O O3 0.556044 0.546712 0.871215
O O4 0.845345 0.624955 0.842888
O O5 0.693986 0.513277 0.966075
O O6 0.862392 0.927275 0.868051
O O7 0.757394 0.075188 0.915405
O O8 0.161115 0.665436 0.505833
O O9 0.427672 0.727896 0.358421
O O10 0.176093 0.690822 0.343864
O O11 0.083268 0.786954 0.146312
O O12 0.117737 0.710006 0.998515
O O13 0.642724 0.833894 0.337863
#
# Coordination Sequence:
#
# PCOD9273495 Si02
#       7
#     4   8   8   8   8   8   8
#     4  12  24  40  60  96 128 176 198 274 314 382
#     4  10  22  37  62  90 133 162 207 253 322 371
#     4  10  20  37  67  96 117 161 216 264 300 377
#     4   9  19  35  62  94 124 157 207 261 311 369
#     4  10  22  37  62  89 133 166 208 259 324 373
#     4  10  20  37  66  96 119 162 219 264 305 377
#     4   9  19  35  61  95 124 156 205 264 311 368
#
# _framework density 24.392758000000001
#
# number of rings (size 3 to 8) (size 9 to 14) (size 15 to 20)
#    0.000    2.154    1.538    0.923    4.308    5.538 
#    0.000    3.846    0.000    0.000    0.000    0.000 
#    0.000    0.000    0.000    0.000    0.000    0.000 
#
# Total GULP energy -145235.120627 kJ/mol
# GULP energy per Si atom -5585.966178 kJ/mol
# Density = 2.433724 g / cm^3
# Si number density = 24.392758 Si / 1000 Ang^3
#
#
#
# Elastic Constant Matrix: (Units=GPa)
#
#
# Indices 1 2 3 4 5 6 
#
# 1 159.8529 77.8465 8.1770 0.0000 20.5184 0.0000
# 2 77.8465 151.5327 -4.9210 0.0000 12.3652 0.0000
# 3 8.1770 -4.9210 68.3394 0.0000 3.8244 0.0000
# 4 0.0000 0.0000 0.0000 8.0075 0.0000 -7.4423
# 5 20.5184 12.3652 3.8244 0.0000 22.8856 0.0000
# 6 0.0000 0.0000 0.0000 -7.4423 0.0000 27.6416
#
#
#
# Elastic Compliance Matrix: (Units=1/GPa)
#
#
# Indices 1 2 3 4 5 6 
#
# 1 0.009112 -0.004252 -0.001078 0.000000 -0.005692 0.000000
# 2 -0.004252 0.008922 0.001219 0.000000 -0.001212 0.000000
# 3 -0.001078 0.001219 0.014972 0.000000 -0.002194 0.000000
# 4 0.000000 0.000000 0.000000 0.166563 0.000000 0.044846
# 5 -0.005692 -0.001212 -0.002194 0.000000 0.049821 0.000000
# 6 0.000000 0.000000 0.000000 0.044846 0.000000 0.048252
#
#
# Mechanical properties :
#
#
# Convention : Reuss Voigt Hill
#
# Bulk Modulus (GPa) = 40.34637 60.21445 50.28041
# Shear Modulus (GPa) = 15.91725 31.61512 23.76618
#
# Velocity S-wave (km/s) = 2.55726 3.60403 3.12479
# Velocity P-wave (km/s) = 5.02948 6.48519 5.80316
#
# Compressibility (1/GPa) = 0.02478538
#
# Stress axis : x y z
#
# Youngs Moduli (GPa) = 109.74519 112.08348 66.78962
#
# Poissons Ratio (x) = 0.47653 0.07199
# Poissons Ratio (y) = 0.46659 -0.08142
# Poissons Ratio (z) = 0.11829 -0.13663
#
# Static dielectric constant tensor:
#      x y z
#    x 1.951780 0.000000 -0.014280 
#    y 0.000000 1.874060 0.000000 
#    z -0.014280 0.000000 1.995840 
# 
# From -- ./inp_files/190344.got.cif
#   From: 2010.05.17/outbox.cif.g08.bks.cpg/sg15_96_cif.got.tgz:190344.got - 2010.06.03 18:47:42.
