data_PCOD9273030
_publ_section_title
;
Structure prediction by ZEFSAII (Michael W. Deem and Ramdas Pophale) SiO2 
 PCOD9273030
Probable space group: C 2/C
;
_chemical_formula_sum "Si O2"
_cell_formula_units_Z 52
_cell_length_a 8.856204
_cell_length_b 31.284935
_cell_length_c 12.074833
_cell_angle_alpha 90.000000
_cell_angle_beta 57.136769
_cell_angle_gamma 90.000000
_cell_volume 2810.133044
_symmetry_space_group_name_H-M "C 2/C"
_symmetry_group_IT_number 15
_symmetry_cell_setting 'monoclinic'
loop_
_space_group_symop_operation_xyz
x,y,z
-x,y,1/2-z
-x,-y,-z
x,-y,1/2+z
1/2+x,1/2+y,z
1/2-x,1/2+y,1/2-z
1/2-x,1/2-y,-z
1/2+x,1/2-y,1/2+z
loop_
_atom_site_type_symbol
_atom_site_label
_atom_site_fract_x
_atom_site_fract_y
_atom_site_fract_z
Si Si1 0.876840 0.040438 0.081239
Si Si2 0.449832 0.302076 0.896468
Si Si3 0.972335 0.705974 0.892545
Si Si4 0.500000 0.491622 0.750000
Si Si5 0.798289 0.627655 0.628985
Si Si6 0.989936 0.871919 0.068857
Si Si7 0.857059 0.464113 0.020685
O O1 0.891003 0.037793 0.207257
O O2 0.973361 0.082780 0.001549
O O3 0.685628 0.037916 0.094335
O O4 0.000000 0.000000 0.000000
O O5 0.500000 0.313827 0.750000
O O6 0.531946 0.255040 0.888782
O O7 0.235215 0.297177 0.991359
O O8 0.498239 0.336151 0.971105
O O9 0.000000 0.698993 0.750000
O O10 0.075600 0.668721 0.914946
O O11 0.341542 0.522141 0.857364
O O12 0.694654 0.625556 0.788028
O O13 0.646987 0.634653 0.596007
O O14 0.892722 0.582634 0.558896
O O15 0.000000 0.500000 0.000000
#
# Coordination Sequence:
#
# PCOD9273030 Si02
#       7
#     8   8   8   4   8   8   8
#     4   9  19  35  55  82 115 150 192 235 295 349
#     4  10  22  38  60  88 122 154 195 252 308 359
#     4  10  20  39  61  88 118 153 202 251 296 365
#     4  10  20  38  56  78 120 156 186 244 302 356
#     4  10  20  38  62  86 118 150 206 249 291 359
#     4  10  20  37  62  89 114 158 197 247 300 359
#     4  10  21  38  58  86 117 152 201 252 297 352
#
# _framework density 18.504463000000001
#
# number of rings (size 3 to 8) (size 9 to 14) (size 15 to 20)
#    0.000    2.154    1.538    2.769    1.077    3.692 
#    2.769    0.769    0.000    0.000    0.000    0.000 
#    0.000    0.000    0.000    0.000    0.000    0.000 
#
# Total GULP energy -144867.085980 kJ/mol
# GULP energy per Si atom -5571.810999 kJ/mol
# Density = 1.846235 g / cm^3
# Si number density = 18.504463 Si / 1000 Ang^3
#
#
#
# Elastic Constant Matrix: (Units=GPa)
#
#
# Indices 1 2 3 4 5 6 
#
# 1 43.2860 61.3137 17.8362 0.0000 11.8080 0.0000
# 2 61.3137 163.5869 35.4036 0.0000 21.2669 0.0000
# 3 17.8362 35.4036 78.7387 0.0000 16.0528 0.0000
# 4 0.0000 0.0000 0.0000 32.8109 0.0000 2.1405
# 5 11.8080 21.2669 16.0528 0.0000 30.8831 0.0000
# 6 0.0000 0.0000 0.0000 2.1405 0.0000 57.4454
#
#
#
# Elastic Compliance Matrix: (Units=1/GPa)
#
#
# Indices 1 2 3 4 5 6 
#
# 1 0.050902 -0.017799 -0.002302 0.000000 -0.006008 0.000000
# 2 -0.017799 0.013340 -0.001656 0.000000 -0.001520 0.000000
# 3 -0.002302 -0.001656 0.015161 0.000000 -0.005860 0.000000
# 4 0.000000 0.000000 0.000000 0.030552 0.000000 -0.001138
# 5 -0.006008 -0.001520 -0.005860 0.000000 0.038770 0.000000
# 6 0.000000 0.000000 0.000000 -0.001138 0.000000 0.017450
#
#
# Mechanical properties :
#
#
# Convention : Reuss Voigt Hill
#
# Bulk Modulus (GPa) = 27.86479 57.19094 42.52787
# Shear Modulus (GPa) = 22.55767 35.63176 29.09471
#
# Velocity S-wave (km/s) = 3.49526 4.39290 3.96954
# Velocity P-wave (km/s) = 5.60181 7.53019 6.63641
#
# Compressibility (1/GPa) = 0.03588759
#
# Stress axis : x y z
#
# Youngs Moduli (GPa) = 19.64561 74.96089 65.95776
#
# Poissons Ratio (x) = 1.33423 0.15186
# Poissons Ratio (y) = 0.34967 0.10926
# Poissons Ratio (z) = 0.04523 0.12417
#
# Static dielectric constant tensor:
#      x y z
#    x 1.643180 0.000000 0.040120 
#    y 0.000000 1.638010 0.000000 
#    z 0.040120 0.000000 1.732830 
# 
# From -- ./inp_files/81171.got.cif
#   From: 2010.05.17/outbox.cif.g08.bks.cpg/sg15_41_cif.got.tgz:81171.got - 2010.06.03 18:47:42.
