data_PCOD9273490
_publ_section_title
;
Structure prediction by ZEFSAII (Michael W. Deem and Ramdas Pophale) SiO2 
 PCOD9273490
Probable space group: C 2/C
;
_chemical_formula_sum "Si O2"
_cell_formula_units_Z 32
_cell_length_a 10.672232
_cell_length_b 13.432018
_cell_length_c 11.068440
_cell_angle_alpha 90.000000
_cell_angle_beta 59.206057
_cell_angle_gamma 90.000000
_cell_volume 1362.960254
_symmetry_space_group_name_H-M "C 2/C"
_symmetry_group_IT_number 15
_symmetry_cell_setting 'monoclinic'
loop_
_space_group_symop_operation_xyz
x,y,z
-x,y,1/2-z
-x,-y,-z
x,-y,1/2+z
1/2+x,1/2+y,z
1/2-x,1/2+y,1/2-z
1/2-x,1/2-y,-z
1/2+x,1/2-y,1/2+z
loop_
_atom_site_type_symbol
_atom_site_label
_atom_site_fract_x
_atom_site_fract_y
_atom_site_fract_z
Si Si1 0.000000 0.716377 0.750000
Si Si2 0.785070 0.785829 0.662509
Si Si3 0.623327 0.042279 0.528402
Si Si4 0.848316 0.901715 0.394045
Si Si5 0.500000 0.881283 0.750000
O O1 0.881150 0.776606 0.733369
O O2 0.917356 0.645204 0.888909
O O3 0.861119 0.855863 0.523487
O O4 0.764769 0.676434 0.612812
O O5 0.615446 0.817856 0.770177
O O6 0.500000 0.000000 0.500000
O O7 0.784337 0.013230 0.405759
O O8 0.610664 0.957872 0.636702
O O9 0.000000 0.895207 0.250000
#
# Coordination Sequence:
#
# PCOD9273490 Si02
#       5
#     4   8   8   8   4
#     4  11  22  38  68 101 124 156 224 271 306 364
#     4  10  20  37  66  95 122 167 211 267 306 376
#     4  10  20  38  65  90 126 171 205 259 317 380
#     4  10  20  38  66  90 128 171 207 248 328 387
#     4   9  20  38  66  87 122 170 212 245 324 374
#
# _framework density 23.478308999999999
#
# number of rings (size 3 to 8) (size 9 to 14) (size 15 to 20)
#    0.000    2.000    3.750    0.000    0.000    0.000 
#    0.000    6.250    2.750   15.000    0.000    0.000 
#    0.000    0.000    0.000    0.000    0.000    0.000 
#
# Total GULP energy -89140.421763 kJ/mol
# GULP energy per Si atom -5571.276360 kJ/mol
# Density = 2.342487 g / cm^3
# Si number density = 23.478309 Si / 1000 Ang^3
#
#
#
# Elastic Constant Matrix: (Units=GPa)
#
#
# Indices 1 2 3 4 5 6 
#
# 1 176.0325 46.1275 53.0522 0.0000 9.1686 0.0000
# 2 46.1275 66.5935 25.2990 0.0000 -10.0692 0.0000
# 3 53.0522 25.2990 72.3524 0.0000 -13.0799 0.0000
# 4 0.0000 0.0000 0.0000 -35.6270 0.0000 -4.8857
# 5 9.1686 -10.0692 -13.0799 0.0000 37.6381 0.0000
# 6 0.0000 0.0000 0.0000 -4.8857 0.0000 18.0963
#
#
#
# Elastic Compliance Matrix: (Units=1/GPa)
#
#
# Indices 1 2 3 4 5 6 
#
# 1 0.009025 -0.004838 -0.005930 0.000000 -0.005553 0.000000
# 2 -0.004838 0.020171 -0.002472 0.000000 0.005716 0.000000
# 3 -0.005930 -0.002472 0.020461 0.000000 0.007893 0.000000
# 4 0.000000 0.000000 0.000000 -0.027066 0.000000 -0.007308
# 5 -0.005553 0.005716 0.007893 0.000000 0.032194 0.000000
# 6 0.000000 0.000000 0.000000 -0.007308 0.000000 0.053287
#
#
# Mechanical properties :
#
#
# Convention : Reuss Voigt Hill
#
# Bulk Modulus (GPa) = 43.14727 62.65956 52.90341
# Shear Modulus (GPa) = 35.14271 16.72146 25.93208
#
# Velocity S-wave (km/s) = 3.87307 2.67162 3.32703
# Velocity P-wave (km/s) = 6.19825 6.02187 6.11070
#
# Compressibility (1/GPa) = 0.02317644
#
# Stress axis : x y z
#
# Youngs Moduli (GPa) = 110.80427 49.57539 48.87450
#
# Poissons Ratio (x) = 0.23986 0.28981
# Poissons Ratio (y) = 0.53611 0.12083
# Poissons Ratio (z) = 0.65703 0.12256
#
# Static dielectric constant tensor:
#      x y z
#    x 2.272090 0.000000 -0.779380 
#    y 0.000000 2.805350 0.000000 
#    z -0.779380 0.000000 3.619700 
# 
# From -- ./inp_files/75569.got.cif
#   From: 2010.05.17/outbox.cif.g08.bks.cpg/sg15_38_cif.got.tgz:75569.got - 2010.06.03 18:47:42.
