data_PCOD9273253
_publ_section_title
;
Structure prediction by ZEFSAII (Michael W. Deem and Ramdas Pophale) SiO2 
 PCOD9273253
Probable space group: C 2/C
;
_chemical_formula_sum "Si O2"
_cell_formula_units_Z 60
_cell_length_a 5.677368
_cell_length_b 21.079403
_cell_length_c 25.882889
_cell_angle_alpha 90.000000
_cell_angle_beta 105.217678
_cell_angle_gamma 90.000000
_cell_volume 2988.934586
_symmetry_space_group_name_H-M "C 2/C"
_symmetry_group_IT_number 15
_symmetry_cell_setting 'monoclinic'
loop_
_space_group_symop_operation_xyz
x,y,z
-x,y,1/2-z
-x,-y,-z
x,-y,1/2+z
1/2+x,1/2+y,z
1/2-x,1/2+y,1/2-z
1/2-x,1/2-y,-z
1/2+x,1/2-y,1/2+z
loop_
_atom_site_type_symbol
_atom_site_label
_atom_site_fract_x
_atom_site_fract_y
_atom_site_fract_z
Si Si1 0.739548 0.715187 0.115263
Si Si2 0.414470 0.519830 0.684664
Si Si3 0.463630 0.192366 0.457056
Si Si4 0.500000 0.811069 0.250000
Si Si5 0.377643 0.911674 0.156050
Si Si6 0.143096 0.683607 0.932796
Si Si7 0.152595 0.295754 0.714449
Si Si8 0.609684 0.622503 0.356016
O O1 0.561154 0.774211 0.107836
O O2 0.639085 0.652550 0.137159
O O3 0.781152 0.697947 0.057844
O O4 0.986260 0.731713 0.158865
O O5 0.500000 0.517032 0.750000
O O6 0.639966 0.553005 0.666463
O O7 0.390577 0.450795 0.657169
O O8 0.140400 0.551325 0.666992
O O9 0.357617 0.264242 0.449546
O O10 0.449948 0.169505 0.514757
O O11 0.302324 0.146436 0.410732
O O12 0.430895 0.854928 0.198833
O O13 0.718143 0.762841 0.250451
O O14 0.309447 0.878760 0.097684
O O15 0.329719 0.341483 0.693664
O O16 0.000000 0.330181 0.750000
#
# Coordination Sequence:
#
# PCOD9273253 Si02
#       8
#     8   8   8   4   8   8   8   8
#     4  10  20  37  63  98 129 166 208 279 336 405
#     4  12  28  48  67  91 132 190 230 273 323 392
#     4   9  20  41  67 101 128 168 208 287 336 402
#     4  12  24  42  58  98 132 162 222 274 342 410
#     4  12  27  45  67  96 132 183 222 273 327 406
#     4  10  21  39  68  99 134 165 219 265 353 399
#     4  11  23  35  63  94 128 165 208 287 336 399
#     4  10  24  42  63  94 127 167 233 268 331 387
#
# _framework density 20.074043
#
# number of rings (size 3 to 8) (size 9 to 14) (size 15 to 20)
#    0.000    1.333    1.333    4.400   12.133    0.000 
#    0.000    1.333    0.000    0.000    0.000    0.000 
#    0.000    0.000    0.000    0.000    0.000    0.000 
#
# Total GULP energy -167395.615901 kJ/mol
# GULP energy per Si atom -5579.853863 kJ/mol
# Density = 2.002835 g / cm^3
# Si number density = 20.074043 Si / 1000 Ang^3
#
#
#
# Elastic Constant Matrix: (Units=GPa)
#
#
# Indices 1 2 3 4 5 6 
#
# 1 93.1126 49.8639 32.4505 0.0000 -20.8953 0.0000
# 2 49.8639 115.3186 53.7116 0.0000 -14.8715 0.0000
# 3 32.4505 53.7116 121.1830 0.0000 -26.2128 0.0000
# 4 0.0000 0.0000 0.0000 28.2195 0.0000 -0.0771
# 5 -20.8953 -14.8715 -26.2128 0.0000 44.1494 0.0000
# 6 0.0000 0.0000 0.0000 -0.0771 0.0000 1.7786
#
#
#
# Elastic Compliance Matrix: (Units=1/GPa)
#
#
# Indices 1 2 3 4 5 6 
#
# 1 0.015033 -0.005653 -0.000451 0.000000 0.004943 0.000000
# 2 -0.005653 0.013086 -0.004488 0.000000 -0.000932 0.000000
# 3 -0.000451 -0.004488 0.011461 0.000000 0.005079 0.000000
# 4 0.000000 0.000000 0.000000 0.035441 0.000000 0.001536
# 5 0.004943 -0.000932 0.005079 0.000000 0.027692 0.000000
# 6 0.000000 0.000000 0.000000 0.001536 0.000000 0.562292
#
#
# Mechanical properties :
#
#
# Convention : Reuss Voigt Hill
#
# Bulk Modulus (GPa) = 54.35809 66.85179 60.60494
# Shear Modulus (GPa) = 7.22209 27.73540 17.47874
#
# Velocity S-wave (km/s) = 1.89882 3.72109 2.95399
# Velocity P-wave (km/s) = 5.65199 7.19979 6.47232
#
# Compressibility (1/GPa) = 0.01839653
#
# Stress axis : x y z
#
# Youngs Moduli (GPa) = 66.51844 76.41668 87.25527
#
# Poissons Ratio (x) = 0.43198 0.03934
# Poissons Ratio (y) = 0.37603 0.39160
# Poissons Ratio (z) = 0.02999 0.34296
#
# Static dielectric constant tensor:
#      x y z
#    x 1.840660 0.000000 0.008370 
#    y 0.000000 1.667560 0.000000 
#    z 0.008370 0.000000 1.735150 
# 
# From -- ./inp_files/261382.got.cif
#   From: 2010.05.17/outbox.cif.g08.bks.cpg/sg15_131_cif.got.tgz:261382.got - 2010.06.03 18:47:42.
