data_PCOD9273143
_publ_section_title
;
Structure prediction by ZEFSAII (Michael W. Deem and Ramdas Pophale) SiO2 
 PCOD9273143
Probable space group: C 2/C
;
_chemical_formula_sum "Si O2"
_cell_formula_units_Z 56
_cell_length_a 18.577621
_cell_length_b 11.717006
_cell_length_c 15.951782
_cell_angle_alpha 90.000000
_cell_angle_beta 127.504265
_cell_angle_gamma 90.000000
_cell_volume 2754.595307
_symmetry_space_group_name_H-M "C 2/C"
_symmetry_group_IT_number 15
_symmetry_cell_setting 'monoclinic'
loop_
_space_group_symop_operation_xyz
x,y,z
-x,y,1/2-z
-x,-y,-z
x,-y,1/2+z
1/2+x,1/2+y,z
1/2-x,1/2+y,1/2-z
1/2-x,1/2-y,-z
1/2+x,1/2-y,1/2+z
loop_
_atom_site_type_symbol
_atom_site_label
_atom_site_fract_x
_atom_site_fract_y
_atom_site_fract_z
Si Si1 0.016684 0.162425 0.995717
Si Si2 0.151702 0.982294 0.120100
Si Si3 0.447634 0.277466 0.796880
Si Si4 0.580639 0.022645 0.757270
Si Si5 0.748663 0.383568 0.028306
Si Si6 0.763690 0.090766 0.161109
Si Si7 0.934206 0.599209 0.417772
O O1 0.996379 0.289257 0.951008
O O2 0.936831 0.081680 0.907371
O O3 0.113489 0.100907 0.053221
O O4 0.007434 0.169208 0.090059
O O5 0.213729 0.007243 0.245039
O O6 0.192725 0.908489 0.073407
O O7 0.500000 0.313845 0.750000
O O8 0.455323 0.141373 0.807535
O O9 0.341313 0.311316 0.724851
O O10 0.500000 0.964703 0.750000
O O11 0.654715 0.066547 0.875068
O O12 0.606276 0.941717 0.699831
O O13 0.750000 0.250000 0.000000
O O14 0.720114 0.449276 0.923080
O O15 0.657008 0.122896 0.092509
O O16 0.000000 0.500000 0.500000
#
# Coordination Sequence:
#
# PCOD9273143 Si02
#       7
#     8   8   8   8   8   8   8
#     4  10  22  40  65  89 138 179 214 277 342 404
#     4  10  23  43  63 104 131 171 230 278 343 399
#     4  10  20  37  63 100 128 165 223 283 329 390
#     4  11  23  39  60  98 131 166 225 274 331 398
#     4  12  22  39  68  99 130 173 229 283 331 400
#     4  11  23  38  66  99 138 173 218 283 341 398
#     4  12  23  40  63  96 138 183 222 274 346 407
#
# _framework density 20.329664999999999
#
# number of rings (size 3 to 8) (size 9 to 14) (size 15 to 20)
#    0.000    1.143    4.286    2.571    4.000    0.000 
#    0.000    1.429    0.000    2.571    0.000    0.000 
#    0.000    0.000    0.000    0.000    0.000    0.000 
#
# Total GULP energy -156016.402466 kJ/mol
# GULP energy per Si atom -5572.014374 kJ/mol
# Density = 2.028339 g / cm^3
# Si number density = 20.329665 Si / 1000 Ang^3
#
#
#
# Elastic Constant Matrix: (Units=GPa)
#
#
# Indices 1 2 3 4 5 6 
#
# 1 74.5105 13.9611 25.0739 0.0000 -6.9911 0.0000
# 2 13.9611 84.3268 38.9498 0.0000 -4.7048 0.0000
# 3 25.0739 38.9498 120.2362 0.0000 -6.3508 0.0000
# 4 0.0000 0.0000 0.0000 28.7524 0.0000 -3.9142
# 5 -6.9911 -4.7048 -6.3508 0.0000 38.9993 0.0000
# 6 0.0000 0.0000 0.0000 -3.9142 0.0000 25.0549
#
#
#
# Elastic Compliance Matrix: (Units=1/GPa)
#
#
# Indices 1 2 3 4 5 6 
#
# 1 0.014698 -0.001120 -0.002593 0.000000 0.002078 0.000000
# 2 -0.001120 0.014066 -0.004281 0.000000 0.000799 0.000000
# 3 -0.002593 -0.004281 0.010281 0.000000 0.000693 0.000000
# 4 0.000000 0.000000 0.000000 0.035535 0.000000 0.005551
# 5 0.002078 0.000799 0.000693 0.000000 0.026223 0.000000
# 6 0.000000 0.000000 0.000000 0.005551 0.000000 0.040780
#
#
# Mechanical properties :
#
#
# Convention : Reuss Voigt Hill
#
# Bulk Modulus (GPa) = 43.36846 48.33813 45.85330
# Shear Modulus (GPa) = 30.25606 31.96722 31.11164
#
# Velocity S-wave (km/s) = 3.86200 3.96971 3.91622
# Velocity P-wave (km/s) = 6.42383 6.69628 6.56147
#
# Compressibility (1/GPa) = 0.02305823
#
# Stress axis : x y z
#
# Youngs Moduli (GPa) = 68.03569 71.09389 97.26721
#
# Poissons Ratio (x) = 0.07963 0.25217
# Poissons Ratio (y) = 0.07620 0.41638
# Poissons Ratio (z) = 0.17639 0.30434
#
# Static dielectric constant tensor:
#      x y z
#    x 1.769670 0.000000 0.017730 
#    y 0.000000 1.744360 0.000000 
#    z 0.017730 0.000000 1.796710 
# 
# From -- ./inp_files/161433.got.cif
#   From: 2010.05.17/outbox.cif.g08.bks.cpg/sg15_81_cif.got.tgz:161433.got - 2010.06.03 18:47:42.
