data_PCOD9273062
_publ_section_title
;
Structure prediction by ZEFSAII (Michael W. Deem and Ramdas Pophale) SiO2 
 PCOD9273062
Probable space group: C 2/C
;
_chemical_formula_sum "Si O2"
_cell_formula_units_Z 32
_cell_length_a 18.988284
_cell_length_b 5.128311
_cell_length_c 16.580979
_cell_angle_alpha 90.000000
_cell_angle_beta 107.502816
_cell_angle_gamma 90.000000
_cell_volume 1539.866296
_symmetry_space_group_name_H-M "C 2/C"
_symmetry_group_IT_number 15
_symmetry_cell_setting 'monoclinic'
loop_
_space_group_symop_operation_xyz
x,y,z
-x,y,1/2-z
-x,-y,-z
x,-y,1/2+z
1/2+x,1/2+y,z
1/2-x,1/2+y,1/2-z
1/2-x,1/2-y,-z
1/2+x,1/2-y,1/2+z
loop_
_atom_site_type_symbol
_atom_site_label
_atom_site_fract_x
_atom_site_fract_y
_atom_site_fract_z
Si Si1 0.316648 0.544966 0.036262
Si Si2 0.288412 0.757022 0.382761
Si Si3 0.087258 0.123779 0.281205
Si Si4 0.162409 0.619444 0.228678
O O1 0.278647 0.332288 0.081360
O O2 0.382675 0.636468 0.116256
O O3 0.250000 0.750000 0.000000
O O4 0.338111 0.420305 0.957816
O O5 0.244624 0.610612 0.296665
O O6 0.325621 0.014607 0.358322
O O7 0.113068 0.393700 0.251100
O O8 0.000000 0.090438 0.250000
O O9 0.124557 0.890925 0.241064
#
# Coordination Sequence:
#
# PCOD9273062 Si02
#       4
#     8   8   8   8
#     4  10  20  37  62  90 123 157 205 262 303 358
#     4  10  21  36  61  96 119 152 210 263 305 349
#     4  11  24  42  61  87 128 171 203 244 314 377
#     4  11  22  38  64  91 122 161 208 256 303 365
#
# _framework density 20.781023999999999
#
# number of rings (size 3 to 8) (size 9 to 14) (size 15 to 20)
#    0.000    1.500    2.500    3.750    3.500    0.000 
#    0.000    2.500    0.000    0.000    0.000    0.000 
#    0.000    0.000    0.000    0.000    0.000    0.000 
#
# Total GULP energy -89211.305335 kJ/mol
# GULP energy per Si atom -5575.706583 kJ/mol
# Density = 2.073373 g / cm^3
# Si number density = 20.781024 Si / 1000 Ang^3
#
#
#
# Elastic Constant Matrix: (Units=GPa)
#
#
# Indices 1 2 3 4 5 6 
#
# 1 101.7280 29.1167 36.0120 0.0000 15.2969 0.0000
# 2 29.1167 95.9983 28.0119 0.0000 -7.6917 0.0000
# 3 36.0120 28.0119 91.9286 0.0000 11.6644 0.0000
# 4 0.0000 0.0000 0.0000 26.6168 0.0000 -8.0199
# 5 15.2969 -7.6917 11.6644 0.0000 28.1463 0.0000
# 6 0.0000 0.0000 0.0000 -8.0199 0.0000 25.9683
#
#
#
# Elastic Compliance Matrix: (Units=1/GPa)
#
#
# Indices 1 2 3 4 5 6 
#
# 1 0.012971 -0.003554 -0.003146 0.000000 -0.006717 0.000000
# 2 -0.003554 0.013063 -0.003469 0.000000 0.006939 0.000000
# 3 -0.003146 -0.003469 0.013796 0.000000 -0.004955 0.000000
# 4 0.000000 0.000000 0.000000 0.041425 0.000000 0.012793
# 5 -0.006717 0.006939 -0.004955 0.000000 0.043129 0.000000
# 6 0.000000 0.000000 0.000000 0.012793 0.000000 0.042460
#
#
# Mechanical properties :
#
#
# Convention : Reuss Voigt Hill
#
# Bulk Modulus (GPa) = 51.30177 52.88179 52.09178
# Shear Modulus (GPa) = 25.81585 29.24722 27.53153
#
# Velocity S-wave (km/s) = 3.52842 3.75560 3.64378
# Velocity P-wave (km/s) = 6.42963 6.65646 6.54403
#
# Compressibility (1/GPa) = 0.01949250
#
# Stress axis : x y z
#
# Youngs Moduli (GPa) = 77.09360 76.55200 72.48446
#
# Poissons Ratio (x) = 0.27210 0.22803
# Poissons Ratio (y) = 0.27403 0.25141
# Poissons Ratio (z) = 0.24253 0.26552
#
# Static dielectric constant tensor:
#      x y z
#    x 1.710790 0.000000 -0.011300 
#    y 0.000000 1.863550 0.000000 
#    z -0.011300 0.000000 1.895850 
# 
# From -- ./inp_files/158159.got.cif
#   From: 2010.05.17/outbox.cif.g08.bks.cpg/sg15_80_cif.got.tgz:158159.got - 2010.06.03 18:47:42.
