data_PCOD9273319
_publ_section_title
;
Structure prediction by ZEFSAII (Michael W. Deem and Ramdas Pophale) SiO2 
 PCOD9273319
Probable space group: C 2/C
;
_chemical_formula_sum "Si O2"
_cell_formula_units_Z 60
_cell_length_a 28.408654
_cell_length_b 16.050637
_cell_length_c 14.697766
_cell_angle_alpha 90.000000
_cell_angle_beta 25.393376
_cell_angle_gamma 90.000000
_cell_volume 2873.956056
_symmetry_space_group_name_H-M "C 2/C"
_symmetry_group_IT_number 15
_symmetry_cell_setting 'monoclinic'
loop_
_space_group_symop_operation_xyz
x,y,z
-x,y,1/2-z
-x,-y,-z
x,-y,1/2+z
1/2+x,1/2+y,z
1/2-x,1/2+y,1/2-z
1/2-x,1/2-y,-z
1/2+x,1/2-y,1/2+z
loop_
_atom_site_type_symbol
_atom_site_label
_atom_site_fract_x
_atom_site_fract_y
_atom_site_fract_z
Si Si1 0.500000 0.429752 0.250000
Si Si2 0.728187 0.643236 0.727127
Si Si3 0.514342 0.554017 0.063657
Si Si4 0.164386 0.802478 0.055242
Si Si5 0.117029 0.828586 0.602420
Si Si6 0.091128 0.528289 0.169487
Si Si7 0.054198 0.655400 0.756183
Si Si8 0.096780 0.333912 0.804139
O O1 0.542617 0.490672 0.096307
O O2 0.406040 0.370062 0.374487
O O3 0.783508 0.729021 0.597907
O O4 0.803720 0.568547 0.561751
O O5 0.609838 0.622986 0.889911
O O6 0.708021 0.648865 0.869922
O O7 0.403912 0.601880 0.285723
O O8 0.500000 0.500000 0.000000
O O9 0.271739 0.844135 0.912161
O O10 0.090690 0.751725 0.256842
O O11 0.129996 0.736950 0.620955
O O12 0.000000 0.827868 0.750000
O O13 0.108590 0.434569 0.173380
O O14 0.057274 0.590063 0.310273
O O15 0.000000 0.527989 0.250000
O O16 0.000000 0.652718 0.750000
O O17 0.964812 0.667760 0.992202
#
# Coordination Sequence:
#
# PCOD9273319 Si02
#       8
#     4   8   8   8   8   8   8   8
#     4  12  26  42  68 106 134 172 242 286 336 404
#     4  10  21  43  63  89 134 171 221 274 349 397
#     4  11  24  42  69 100 138 179 229 289 345 409
#     4  10  24  39  70  98 128 181 225 279 343 417
#     4   9  18  39  61  89 121 171 215 275 331 396
#     4  10  23  39  64  99 129 177 223 281 333 410
#     4  10  20  37  64  92 126 171 228 268 330 407
#     4  10  21  40  65  95 134 173 222 271 351 403
#
# _framework density 20.877146
#
# number of rings (size 3 to 8) (size 9 to 14) (size 15 to 20)
#    0.000    1.867    2.000    2.800   11.200    3.200 
#    0.000    1.333    0.000    2.400    0.000    0.000 
#    0.000    0.000    0.000    0.000    0.000    0.000 
#
# Total GULP energy -167528.913180 kJ/mol
# GULP energy per Si atom -5584.297106 kJ/mol
# Density = 2.082963 g / cm^3
# Si number density = 20.877146 Si / 1000 Ang^3
#
#
#
# Elastic Constant Matrix: (Units=GPa)
#
#
# Indices 1 2 3 4 5 6 
#
# 1 55.7794 43.9605 20.7175 0.0000 26.3054 0.0000
# 2 43.9605 148.7665 47.1661 0.0000 22.8434 0.0000
# 3 20.7175 47.1661 104.6647 0.0000 43.7957 0.0000
# 4 0.0000 0.0000 0.0000 24.5365 0.0000 9.4774
# 5 26.3054 22.8434 43.7957 0.0000 37.3212 0.0000
# 6 0.0000 0.0000 0.0000 9.4774 0.0000 13.6683
#
#
#
# Elastic Compliance Matrix: (Units=1/GPa)
#
#
# Indices 1 2 3 4 5 6 
#
# 1 0.036534 -0.009130 0.010451 0.000000 -0.032427 0.000000
# 2 -0.009130 0.010156 -0.005621 0.000000 0.006816 0.000000
# 3 0.010451 -0.005621 0.022912 0.000000 -0.030813 0.000000
# 4 0.000000 0.000000 0.000000 0.055664 0.000000 -0.038596
# 5 -0.032427 0.006816 -0.030813 0.000000 0.081636 0.000000
# 6 0.000000 0.000000 0.000000 -0.038596 0.000000 0.099924
#
#
# Mechanical properties :
#
#
# Convention : Reuss Voigt Hill
#
# Bulk Modulus (GPa) = 16.39309 59.21097 37.80203
# Shear Modulus (GPa) = 14.89164 28.26297 21.57731
#
# Velocity S-wave (km/s) = 2.67366 3.68336 3.21836
# Velocity P-wave (km/s) = 4.17139 6.82002 5.65302
#
# Compressibility (1/GPa) = 0.06100130
#
# Stress axis : x y z
#
# Youngs Moduli (GPa) = 27.37190 98.46853 43.64549
#
# Poissons Ratio (x) = 0.89903 -0.45616
# Poissons Ratio (y) = 0.24991 0.24534
# Poissons Ratio (z) = -0.28607 0.55351
#
# Static dielectric constant tensor:
#      x y z
#    x 1.798990 0.000000 0.025290 
#    y 0.000000 1.762640 0.000000 
#    z 0.025290 0.000000 1.773110 
# 
# From -- ./inp_files/182299.got.cif
#   From: 2010.05.17/outbox.cif.g08.bks.cpg/sg15_92_cif.got.tgz:182299.got - 2010.06.03 18:47:42.
