data_PCOD9273918
_publ_section_title
;
Structure prediction by ZEFSAII (Michael W. Deem and Ramdas Pophale) SiO2 
 PCOD9273918
Probable space group: C 2/C
;
_chemical_formula_sum "Si O2"
_cell_formula_units_Z 56
_cell_length_a 31.713798
_cell_length_b 8.783179
_cell_length_c 13.921724
_cell_angle_alpha 90.000000
_cell_angle_beta 46.624334
_cell_angle_gamma 90.000000
_cell_volume 2818.691936
_symmetry_space_group_name_H-M "C 2/C"
_symmetry_group_IT_number 15
_symmetry_cell_setting 'monoclinic'
loop_
_space_group_symop_operation_xyz
x,y,z
-x,y,1/2-z
-x,-y,-z
x,-y,1/2+z
1/2+x,1/2+y,z
1/2-x,1/2+y,1/2-z
1/2-x,1/2-y,-z
1/2+x,1/2-y,1/2+z
loop_
_atom_site_type_symbol
_atom_site_label
_atom_site_fract_x
_atom_site_fract_y
_atom_site_fract_z
Si Si1 0.170537 0.043417 0.608490
Si Si2 0.891706 0.864404 0.950589
Si Si3 0.787901 0.052741 0.756604
Si Si4 0.017187 0.145796 0.037571
Si Si5 0.725959 0.891740 0.689050
Si Si6 0.610613 0.157622 0.271420
Si Si7 0.446375 0.106681 0.763302
O O1 0.182865 0.979330 0.695450
O O2 0.230472 0.035302 0.456196
O O3 0.147544 0.215346 0.656501
O O4 0.122103 0.958220 0.623095
O O5 0.949149 0.909379 0.919231
O O6 0.899983 0.691142 0.904116
O O7 0.838964 0.896006 0.104851
O O8 0.761012 0.211448 0.833450
O O9 0.743472 0.952967 0.766024
O O10 0.969061 0.264242 0.152379
O O11 0.063113 0.248741 0.906392
O O12 0.000000 0.000000 0.000000
O O13 0.659319 0.916505 0.764415
O O14 0.580022 0.034629 0.252057
O O15 0.500000 0.065600 0.750000
#
# Coordination Sequence:
#
# PCOD9273918 Si02
#       7
#     8   8   8   8   8   8   8
#     4  10  21  39  64  90 120 160 206 239 303 371
#     4  10  21  40  62  88 122 158 203 253 298 356
#     4  10  20  38  60  87 123 157 199 244 303 361
#     4  11  22  41  65  85 121 162 208 253 297 359
#     4  10  22  38  60  91 121 160 196 249 297 370
#     4  11  21  41  61  86 128 156 197 257 307 349
#     4  10  24  39  59  91 123 157 204 256 302 353
#
# _framework density 19.867372
#
# number of rings (size 3 to 8) (size 9 to 14) (size 15 to 20)
#    0.000    1.714    2.857    3.000    0.000    4.571 
#    2.571    2.857    0.000    0.000    0.000    0.000 
#    0.000    0.000    0.000    0.000    0.000    0.000 
#
# Total GULP energy -156229.060866 kJ/mol
# GULP energy per Si atom -5579.609317 kJ/mol
# Density = 1.982215 g / cm^3
# Si number density = 19.867372 Si / 1000 Ang^3
#
#
#
# Elastic Constant Matrix: (Units=GPa)
#
#
# Indices 1 2 3 4 5 6 
#
# 1 185.4190 86.1162 45.2539 0.0000 24.6611 0.0000
# 2 86.1162 58.9222 19.6184 0.0000 4.6197 -0.0001
# 3 45.2539 19.6184 72.9721 0.0000 7.6200 0.0000
# 4 0.0000 0.0000 0.0000 23.8998 0.0000 7.2851
# 5 24.6611 4.6197 7.6200 0.0000 27.9004 0.0000
# 6 0.0000 -0.0001 0.0000 7.2851 0.0000 46.7062
#
#
#
# Elastic Compliance Matrix: (Units=1/GPa)
#
#
# Indices 1 2 3 4 5 6 
#
# 1 0.021996 -0.029680 -0.004266 0.000000 -0.013363 0.000000
# 2 -0.029680 0.058773 0.000908 0.000000 0.016255 0.000000
# 3 -0.004266 0.000908 0.016189 0.000000 -0.000801 0.000000
# 4 0.000000 0.000000 0.000000 0.043930 0.000000 -0.006852
# 5 -0.013363 0.016255 -0.000801 0.000000 0.045181 0.000000
# 6 0.000000 0.000000 0.000000 -0.006852 0.000000 0.022479
#
#
# Mechanical properties :
#
#
# Convention : Reuss Voigt Hill
#
# Bulk Modulus (GPa) = 32.38193 68.81003 50.59598
# Shear Modulus (GPa) = 17.54888 30.78959 24.16923
#
# Velocity S-wave (km/s) = 2.97526 3.94097 3.49166
# Velocity P-wave (km/s) = 5.30447 7.44434 6.46357
#
# Compressibility (1/GPa) = 0.03088142
#
# Stress axis : x y z
#
# Youngs Moduli (GPa) = 45.46222 17.01472 61.76963
#
# Poissons Ratio (x) = 0.50499 0.26353
# Poissons Ratio (y) = 1.34931 -0.05608
# Poissons Ratio (z) = 0.19396 -0.01545
#
# Static dielectric constant tensor:
#      x y z
#    x 1.720920 0.000000 0.009870 
#    y 0.000000 1.691170 0.000000 
#    z 0.009870 0.000000 1.756910 
# 
# From -- ./inp_files/171969.got.cif
#   From: 2010.05.17/outbox.cif.g08.bks.cpg/sg15_86_cif.got.tgz:171969.got - 2010.06.03 18:47:42.
