data_PCOD9273587
_publ_section_title
;
Structure prediction by ZEFSAII (Michael W. Deem and Ramdas Pophale) SiO2 
 PCOD9273587
Probable space group: C 2/C
;
_chemical_formula_sum "Si O2"
_cell_formula_units_Z 64
_cell_length_a 20.022372
_cell_length_b 19.227595
_cell_length_c 21.969988
_cell_angle_alpha 90.000000
_cell_angle_beta 155.726647
_cell_angle_gamma 90.000000
_cell_volume 3477.024008
_symmetry_space_group_name_H-M "C 2/C"
_symmetry_group_IT_number 15
_symmetry_cell_setting 'monoclinic'
loop_
_space_group_symop_operation_xyz
x,y,z
-x,y,1/2-z
-x,-y,-z
x,-y,1/2+z
1/2+x,1/2+y,z
1/2-x,1/2+y,1/2-z
1/2-x,1/2-y,-z
1/2+x,1/2-y,1/2+z
loop_
_atom_site_type_symbol
_atom_site_label
_atom_site_fract_x
_atom_site_fract_y
_atom_site_fract_z
Si Si1 0.572288 0.757996 0.076511
Si Si2 0.817729 0.633816 0.609681
Si Si3 0.462507 0.967696 0.064234
Si Si4 0.327859 0.625075 0.131233
Si Si5 0.110489 0.103457 0.084858
Si Si6 0.679719 0.532819 0.579453
Si Si7 0.225722 0.752198 0.828822
Si Si8 0.527987 0.897306 0.559637
O O1 0.580254 0.684637 0.048675
O O2 0.708246 0.761087 0.242035
O O3 0.418277 0.760836 0.994080
O O4 0.553333 0.822242 0.015327
O O5 0.749664 0.665789 0.490796
O O6 0.701478 0.570299 0.533139
O O7 0.824814 0.688829 0.670458
O O8 0.000000 0.608355 0.750000
O O9 0.638374 0.959001 0.241769
O O10 0.440973 0.049488 0.033010
O O11 0.306921 0.932868 0.965932
O O12 0.480223 0.930035 0.014130
O O13 0.500000 0.599200 0.250000
O O14 0.349560 0.677060 0.206529
O O15 0.282003 0.102747 0.263704
O O16 0.132728 0.048238 0.048429
O O17 0.959219 0.074400 0.998761
#
# Coordination Sequence:
#
# PCOD9273587 Si02
#       8
#     8   8   8   8   8   8   8   8
#     4  12  20  35  56  81 111 150 178 226 280 328
#     4  12  22  36  53  76 108 156 194 219 264 325
#     4  10  20  38  54  79 105 147 185 230 278 322
#     4  12  24  37  53  78 116 155 189 224 268 324
#     4  10  21  36  56  80 109 139 184 233 282 320
#     4  10  21  37  55  79 106 143 187 236 270 325
#     4  12  23  35  50  78 118 150 190 218 258 329
#     4  10  21  35  57  77 110 140 184 232 282 327
#
# _framework density 18.406545000000001
#
# number of rings (size 3 to 8) (size 9 to 14) (size 15 to 20)
#    0.000    1.000    5.000    3.000    1.750    0.000 
#    0.000    0.000    0.000    0.000    0.000    1.750 
#    0.000    0.000    0.000    0.000    0.000    0.000 
#
# Total GULP energy -178423.203794 kJ/mol
# GULP energy per Si atom -5575.725119 kJ/mol
# Density = 1.836465 g / cm^3
# Si number density = 18.406545 Si / 1000 Ang^3
#
#
#
# Elastic Constant Matrix: (Units=GPa)
#
#
# Indices 1 2 3 4 5 6 
#
# 1 44.4657 39.2789 19.6648 -0.0013 10.4836 0.0025
# 2 39.2789 150.9328 31.0642 -0.0041 2.4309 0.0038
# 3 19.6648 31.0642 59.8956 -0.0100 7.4294 0.0086
# 4 -0.0013 -0.0041 -0.0100 25.7096 -0.0006 -0.9942
# 5 10.4836 2.4309 7.4294 -0.0006 27.5809 0.0036
# 6 0.0025 0.0038 0.0086 -0.9942 0.0036 18.9254
#
#
#
# Elastic Compliance Matrix: (Units=1/GPa)
#
#
# Indices 1 2 3 4 5 6 
#
# 1 0.034341 -0.007521 -0.006039 -0.000002 -0.010764 0.000002
# 2 -0.007521 0.009068 -0.002576 0.000000 0.002753 0.000000
# 3 -0.006039 -0.002576 0.020382 0.000007 -0.002968 -0.000007
# 4 -0.000002 0.000000 0.000007 0.038975 -0.000001 0.002047
# 5 -0.010764 0.002753 -0.002968 -0.000001 0.040905 -0.000006
# 6 0.000002 0.000000 -0.000007 0.002047 -0.000006 0.052947
#
#
# Mechanical properties :
#
#
# Convention : Reuss Voigt Hill
#
# Bulk Modulus (GPa) = 31.72474 48.36778 40.04626
# Shear Modulus (GPa) = 20.88583 25.46226 23.17404
#
# Velocity S-wave (km/s) = 3.37218 3.72334 3.55210
# Velocity P-wave (km/s) = 5.69518 6.69469 6.21506
#
# Compressibility (1/GPa) = 0.03152114
#
# Stress axis : x y z
#
# Youngs Moduli (GPa) = 29.11953 110.27308 49.06193
#
# Poissons Ratio (x) = 0.82933 0.29630
# Poissons Ratio (y) = 0.21900 0.12636
# Poissons Ratio (z) = 0.17586 0.28401
#
# Static dielectric constant tensor:
#      x y z
#    x 1.628000 -0.000010 -0.020820 
#    y -0.000010 1.689210 -0.000010 
#    z -0.020820 -0.000010 1.663610 
# 
# From -- ./inp_files/302437.got.cif
#   From: 2010.05.17/outbox.cif.g08.bks.cpg/sg15_152_cif.got.tgz:302437.got - 2010.06.03 18:47:42.
