data_PCOD9273872
_publ_section_title
;
Structure prediction by ZEFSAII (Michael W. Deem and Ramdas Pophale) SiO2 
 PCOD9273872
Probable space group: C 2/C
;
_chemical_formula_sum "Si O2"
_cell_formula_units_Z 56
_cell_length_a 5.434436
_cell_length_b 28.455738
_cell_length_c 17.427245
_cell_angle_alpha 90.000000
_cell_angle_beta 68.747962
_cell_angle_gamma 90.000000
_cell_volume 2511.693493
_symmetry_space_group_name_H-M "C 2/C"
_symmetry_group_IT_number 15
_symmetry_cell_setting 'monoclinic'
loop_
_space_group_symop_operation_xyz
x,y,z
-x,y,1/2-z
-x,-y,-z
x,-y,1/2+z
1/2+x,1/2+y,z
1/2-x,1/2+y,1/2-z
1/2-x,1/2-y,-z
1/2+x,1/2-y,1/2+z
loop_
_atom_site_type_symbol
_atom_site_label
_atom_site_fract_x
_atom_site_fract_y
_atom_site_fract_z
Si Si1 0.544984 0.035799 0.922675
Si Si2 0.655264 0.296443 0.058356
Si Si3 0.536564 0.781788 0.157199
Si Si4 0.493057 0.879403 0.528706
Si Si5 0.930576 0.000971 0.598791
Si Si6 0.500692 0.330372 0.660620
Si Si7 0.677901 0.087420 0.159040
O O1 0.367971 0.020069 0.871226
O O2 0.860011 0.031793 0.879140
O O3 0.460995 0.087941 0.958241
O O4 0.500000 0.000000 0.000000
O O5 0.811900 0.297488 0.122286
O O6 0.750000 0.250000 0.000000
O O7 0.761133 0.344089 0.007895
O O8 0.162212 0.205783 0.900247
O O9 0.500000 0.796802 0.250000
O O10 0.504923 0.725260 0.158275
O O11 0.244094 0.848955 0.583092
O O12 0.545455 0.915694 0.591725
O O13 0.925132 0.947609 0.629515
O O14 0.000000 0.000000 0.500000
O O15 0.500000 0.345290 0.750000
O O16 0.247673 0.357730 0.658527
O O17 0.500000 0.074022 0.250000
#
# Coordination Sequence:
#
# PCOD9273872 Si02
#       7
#     8   8   8   8   8   8   8
#     4  10  20  38  61  88 117 162 212 257 311 386
#     4  12  25  44  67 106 134 172 233 283 331 412
#     4  11  26  47  69  91 139 187 225 278 347 400
#     4  12  24  38  66  96 131 169 221 278 333 394
#     4  10  20  38  60  83 126 161 212 249 310 393
#     4  11  23  37  60  94 136 174 209 271 343 413
#     4  12  24  37  61  98 135 171 209 275 347 414
#
# _framework density 22.295714
#
# number of rings (size 3 to 8) (size 9 to 14) (size 15 to 20)
#    0.000    0.857    5.714    3.429    2.000    0.000 
#    0.000    0.000    0.000    5.143    0.000    0.000 
#    0.000    0.000    0.000    0.000    0.000    0.000 
#
# Total GULP energy -156373.629012 kJ/mol
# GULP energy per Si atom -5584.772465 kJ/mol
# Density = 2.224497 g / cm^3
# Si number density = 22.295714 Si / 1000 Ang^3
#
#
#
# Elastic Constant Matrix: (Units=GPa)
#
#
# Indices 1 2 3 4 5 6 
#
# 1 123.6410 3.8500 23.4666 0.0000 5.5760 0.0000
# 2 3.8500 63.6062 30.2052 0.0000 -0.5052 0.0000
# 3 23.4666 30.2052 71.3221 0.0000 -1.5931 0.0000
# 4 0.0000 0.0000 0.0000 19.0794 0.0000 -5.9588
# 5 5.5760 -0.5052 -1.5931 0.0000 34.4707 0.0000
# 6 0.0000 0.0000 0.0000 -5.9588 0.0000 36.5810
#
#
#
# Elastic Compliance Matrix: (Units=1/GPa)
#
#
# Indices 1 2 3 4 5 6 
#
# 1 0.008764 0.001055 -0.003365 0.000000 -0.001558 0.000000
# 2 0.001055 0.019807 -0.008742 0.000000 -0.000284 0.000000
# 3 -0.003365 -0.008742 0.018859 0.000000 0.001288 0.000000
# 4 0.000000 0.000000 0.000000 0.055222 0.000000 0.008995
# 5 -0.001558 -0.000284 0.001288 0.000000 0.029318 0.000000
# 6 0.000000 0.000000 0.000000 0.008995 0.000000 0.028802
#
#
# Mechanical properties :
#
#
# Convention : Reuss Voigt Hill
#
# Bulk Modulus (GPa) = 39.48462 41.51255 40.49858
# Shear Modulus (GPa) = 26.13461 31.42939 28.78200
#
# Velocity S-wave (km/s) = 3.42743 3.75862 3.59684
# Velocity P-wave (km/s) = 5.78022 6.12338 5.95427
#
# Compressibility (1/GPa) = 0.02532632
#
# Stress axis : x y z
#
# Youngs Moduli (GPa) = 114.10267 50.48737 53.02471
#
# Poissons Ratio (x) = -0.05328 0.17844
# Poissons Ratio (y) = -0.12041 0.46353
# Poissons Ratio (z) = 0.38399 0.44135
#
# Static dielectric constant tensor:
#      x y z
#    x 1.756150 0.000000 -0.003300 
#    y 0.000000 1.868540 0.000000 
#    z -0.003300 0.000000 1.862490 
# 
# From -- ./inp_files/186644.got.cif
#   From: 2010.05.17/outbox.cif.g08.bks.cpg/sg15_94_cif.got.tgz:186644.got - 2010.06.03 18:47:42.
