data_PCOD9273920
_publ_section_title
;
Structure prediction by ZEFSAII (Michael W. Deem and Ramdas Pophale) SiO2 
 PCOD9273920
Probable space group: C 2/C
;
_chemical_formula_sum "Si O2"
_cell_formula_units_Z 64
_cell_length_a 16.288032
_cell_length_b 11.247829
_cell_length_c 29.328480
_cell_angle_alpha 90.000000
_cell_angle_beta 144.131745
_cell_angle_gamma 90.000000
_cell_volume 3148.239483
_symmetry_space_group_name_H-M "C 2/C"
_symmetry_group_IT_number 15
_symmetry_cell_setting 'monoclinic'
loop_
_space_group_symop_operation_xyz
x,y,z
-x,y,1/2-z
-x,-y,-z
x,-y,1/2+z
1/2+x,1/2+y,z
1/2-x,1/2+y,1/2-z
1/2-x,1/2-y,-z
1/2+x,1/2-y,1/2+z
loop_
_atom_site_type_symbol
_atom_site_label
_atom_site_fract_x
_atom_site_fract_y
_atom_site_fract_z
Si Si1 0.823813 0.163755 0.478390
Si Si2 0.756083 0.423682 0.459955
Si Si3 0.263931 0.814760 0.795063
Si Si4 0.652643 0.080633 0.327944
Si Si5 0.723931 0.295943 0.299359
Si Si6 0.613274 0.431730 0.117165
Si Si7 0.038710 0.519784 0.571473
Si Si8 0.534690 0.487817 0.683486
O O1 0.817387 0.303759 0.464762
O O2 0.815900 0.135482 0.528209
O O3 0.689291 0.099704 0.396873
O O4 0.969248 0.106395 0.527882
O O5 0.628922 0.494762 0.379921
O O6 0.886539 0.510159 0.526615
O O7 0.274772 0.784601 0.745942
O O8 0.306135 0.690353 0.835784
O O9 0.108980 0.867294 0.732996
O O10 0.369073 0.914094 0.863482
O O11 0.500000 0.030072 0.250000
O O12 0.665653 0.210659 0.311809
O O13 0.778984 0.008871 0.362599
O O14 0.871444 0.360577 0.378257
O O15 0.615895 0.402519 0.242604
O O16 0.571160 0.496965 0.145726
O O17 0.000000 0.500000 0.500000
#
# Coordination Sequence:
#
# PCOD9273920 Si02
#       8
#     8   8   8   8   8   8   8   8
#     4  10  21  36  62  90 125 160 200 268 307 378
#     4  10  20  38  64  92 118 159 215 252 322 368
#     4  10  20  40  64  85 125 168 204 254 319 386
#     4  12  24  36  60  93 126 155 216 262 308 375
#     4  10  22  37  61  89 124 169 210 257 320 377
#     4  10  20  38  60  87 125 166 199 247 325 369
#     4  11  23  40  65  94 124 167 215 267 314 378
#     4   9  19  37  63  90 118 162 207 259 305 377
#
# _framework density 20.328824000000001
#
# number of rings (size 3 to 8) (size 9 to 14) (size 15 to 20)
#    0.000    1.750    2.500    1.875    3.500    0.000 
#    0.000    3.750    0.000    0.000    0.000    0.000 
#    0.000    0.000    0.000    0.000    0.000    0.000 
#
# Total GULP energy -178361.876012 kJ/mol
# GULP energy per Si atom -5573.808625 kJ/mol
# Density = 2.028255 g / cm^3
# Si number density = 20.328824 Si / 1000 Ang^3
#
#
#
# Elastic Constant Matrix: (Units=GPa)
#
#
# Indices 1 2 3 4 5 6 
#
# 1 33.2682 12.1901 21.8068 0.0000 16.0040 0.0000
# 2 12.1901 32.0266 24.5357 0.0000 1.5061 0.0000
# 3 21.8068 24.5357 126.2034 0.0000 24.6047 0.0000
# 4 0.0000 0.0000 0.0000 45.8165 0.0000 39.8027
# 5 16.0040 1.5061 24.6047 0.0000 40.5526 0.0000
# 6 0.0000 0.0000 0.0000 39.8027 0.0000 67.6870
#
#
#
# Elastic Compliance Matrix: (Units=1/GPa)
#
#
# Indices 1 2 3 4 5 6 
#
# 1 0.044221 -0.014810 -0.001663 0.000000 -0.015892 0.000000
# 2 -0.014810 0.042057 -0.007318 0.000000 0.008723 0.000000
# 3 -0.001663 -0.007318 0.010721 0.000000 -0.005577 0.000000
# 4 0.000000 0.000000 0.000000 0.044621 0.000000 -0.026239
# 5 -0.015892 0.008723 -0.005577 0.000000 0.033991 0.000000
# 6 0.000000 0.000000 0.000000 -0.026239 0.000000 0.030204
#
#
# Mechanical properties :
#
#
# Convention : Reuss Voigt Hill
#
# Bulk Modulus (GPa) = 20.23612 34.28481 27.26046
# Shear Modulus (GPa) = 18.52747 39.67559 29.10153
#
# Velocity S-wave (km/s) = 3.02220 4.42259 3.78767
# Velocity P-wave (km/s) = 4.70683 6.55597 5.70680
#
# Compressibility (1/GPa) = 0.04941660
#
# Stress axis : x y z
#
# Youngs Moduli (GPa) = 22.61381 23.77711 93.27400
#
# Poissons Ratio (x) = 0.35213 0.15514
# Poissons Ratio (y) = 0.33491 0.68259
# Poissons Ratio (z) = 0.03761 0.17400
#
# Static dielectric constant tensor:
#      x y z
#    x 1.761550 0.000000 -0.048150 
#    y 0.000000 1.710720 0.000000 
#    z -0.048150 0.000000 1.803750 
# 
# From -- ./inp_files/296161.got.cif
#   From: 2010.05.17/outbox.cif.g08.bks.cpg/sg15_149_cif.got.tgz:296161.got - 2010.06.03 18:47:42.
