data_PCOD9273183
_publ_section_title
;
Structure prediction by ZEFSAII (Michael W. Deem and Ramdas Pophale) SiO2 
 PCOD9273183
Probable space group: C 2/C
;
_chemical_formula_sum "Si O2"
_cell_formula_units_Z 36
_cell_length_a 14.471145
_cell_length_b 13.574927
_cell_length_c 8.771450
_cell_angle_alpha 90.000000
_cell_angle_beta 72.970749
_cell_angle_gamma 90.000000
_cell_volume 1647.556275
_symmetry_space_group_name_H-M "C 2/C"
_symmetry_group_IT_number 15
_symmetry_cell_setting 'monoclinic'
loop_
_space_group_symop_operation_xyz
x,y,z
-x,y,1/2-z
-x,-y,-z
x,-y,1/2+z
1/2+x,1/2+y,z
1/2-x,1/2+y,1/2-z
1/2-x,1/2-y,-z
1/2+x,1/2-y,1/2+z
loop_
_atom_site_type_symbol
_atom_site_label
_atom_site_fract_x
_atom_site_fract_y
_atom_site_fract_z
Si Si1 0.575760 0.210099 0.853256
Si Si2 0.500000 0.467768 0.250000
Si Si3 0.370424 0.586559 0.074692
Si Si4 0.824988 0.467338 0.363395
Si Si5 0.435225 0.088936 0.095143
O O1 0.500000 0.226979 0.750000
O O2 0.642244 0.302758 0.859395
O O3 0.643560 0.118576 0.769934
O O4 0.501628 0.182470 0.026256
O O5 0.440506 0.535734 0.163184
O O6 0.425370 0.407161 0.387418
O O7 0.279676 0.514599 0.098732
O O8 0.895003 0.558448 0.278703
O O9 0.845823 0.419589 0.518173
O O10 0.500000 0.000000 0.000000
#
# Coordination Sequence:
#
# PCOD9273183 Si02
#       5
#     8   4   8   8   8
#     4   9  19  39  64  89 119 163 201 235 306 369
#     4  10  24  40  62  78 134 168 188 246 314 350
#     4  11  21  43  60  91 121 161 204 246 297 364
#     4  10  20  37  63  90 120 153 207 256 288 351
#     4   9  18  37  60  87 120 160 193 245 307 349
#
# _framework density 21.850545
#
# number of rings (size 3 to 8) (size 9 to 14) (size 15 to 20)
#    0.000    2.222    1.111    3.333    0.000    0.000 
#   16.000    8.889    0.000    0.000    0.000    0.000 
#    0.000    0.000    0.000    0.000    0.000    0.000 
#
# Total GULP energy -100362.830246 kJ/mol
# GULP energy per Si atom -5575.712791 kJ/mol
# Density = 2.180081 g / cm^3
# Si number density = 21.850545 Si / 1000 Ang^3
#
#
#
# Elastic Constant Matrix: (Units=GPa)
#
#
# Indices 1 2 3 4 5 6 
#
# 1 105.9272 40.0420 24.0658 0.0000 -11.0995 0.0000
# 2 40.0420 102.9319 19.6438 0.0000 -2.5816 0.0000
# 3 24.0658 19.6438 93.9372 0.0000 2.4190 0.0000
# 4 0.0000 0.0000 0.0000 10.9554 0.0000 -5.8408
# 5 -11.0995 -2.5816 2.4190 0.0000 21.3379 0.0000
# 6 0.0000 0.0000 0.0000 -5.8408 0.0000 26.1963
#
#
#
# Elastic Compliance Matrix: (Units=1/GPa)
#
#
# Indices 1 2 3 4 5 6 
#
# 1 0.012191 -0.004128 -0.002418 0.000000 0.006116 0.000000
# 2 -0.004128 0.011563 -0.001345 0.000000 -0.000596 0.000000
# 3 -0.002418 -0.001345 0.011617 0.000000 -0.002737 0.000000
# 4 0.000000 0.000000 0.000000 0.103594 0.000000 0.023097
# 5 0.006116 -0.000596 -0.002737 0.000000 0.050285 0.000000
# 6 0.000000 0.000000 0.000000 0.023097 0.000000 0.043323
#
#
# Mechanical properties :
#
#
# Convention : Reuss Voigt Hill
#
# Bulk Modulus (GPa) = 51.04795 52.25549 51.65172
# Shear Modulus (GPa) = 19.61692 26.30089 22.95890
#
# Velocity S-wave (km/s) = 2.99954 3.47316 3.24500
# Velocity P-wave (km/s) = 5.95058 6.32856 6.14248
#
# Compressibility (1/GPa) = 0.01958943
#
# Stress axis : x y z
#
# Youngs Moduli (GPa) = 82.02857 86.48540 86.08420
#
# Poissons Ratio (x) = 0.35698 0.20811
# Poissons Ratio (y) = 0.33859 0.11580
# Poissons Ratio (z) = 0.19831 0.11633
#
# Static dielectric constant tensor:
#      x y z
#    x 1.868290 0.000000 0.043470 
#    y 0.000000 1.785670 0.000000 
#    z 0.043470 0.000000 1.859690 
# 
# From -- ./inp_files/37443.got.cif
#   From: 2010.05.17/outbox.cif.g08.bks.cpg/sg15_19_cif.got.tgz:37443.got - 2010.06.03 18:47:42.
