data_PCOD9273150
_publ_section_title
;
Structure prediction by ZEFSAII (Michael W. Deem and Ramdas Pophale) SiO2 
 PCOD9273150
Probable space group: C 2/C
;
_chemical_formula_sum "Si O2"
_cell_formula_units_Z 36
_cell_length_a 13.513459
_cell_length_b 9.052312
_cell_length_c 24.271744
_cell_angle_alpha 90.000000
_cell_angle_beta 147.651985
_cell_angle_gamma 90.000000
_cell_volume 1588.656203
_symmetry_space_group_name_H-M "C 2/C"
_symmetry_group_IT_number 15
_symmetry_cell_setting 'monoclinic'
loop_
_space_group_symop_operation_xyz
x,y,z
-x,y,1/2-z
-x,-y,-z
x,-y,1/2+z
1/2+x,1/2+y,z
1/2-x,1/2+y,1/2-z
1/2-x,1/2-y,-z
1/2+x,1/2-y,1/2+z
loop_
_atom_site_type_symbol
_atom_site_label
_atom_site_fract_x
_atom_site_fract_y
_atom_site_fract_z
Si Si1 0.456108 0.766050 0.616338
Si Si2 0.499280 0.920595 0.416452
Si Si3 0.212286 0.050751 0.357388
Si Si4 0.292829 0.155140 0.718276
Si Si5 0.500000 0.904895 0.750000
O O1 0.250000 0.750000 0.500000
O O2 0.599091 0.644744 0.660660
O O3 0.441950 0.798732 0.673716
O O4 0.522879 0.920015 0.621903
O O5 0.696880 0.916494 0.539905
O O6 0.443319 0.818265 0.338424
O O7 0.344992 0.926768 0.391985
O O8 0.220544 0.206617 0.328807
O O9 0.000000 0.007704 0.250000
O O10 0.349339 0.015770 0.706953
#
# Coordination Sequence:
#
# PCOD9273150 Si02
#       5
#     8   8   8   8   4
#     4  10  23  40  63  96 126 169 217 264 322 383
#     4   9  22  39  58  93 123 155 218 258 309 393
#     4  10  20  37  63  85 119 167 200 255 323 370
#     4  10  21  42  62  89 130 163 210 266 318 381
#     4  10  22  44  64  92 132 168 214 270 320 386
#
# _framework density 22.660658999999999
#
# number of rings (size 3 to 8) (size 9 to 14) (size 15 to 20)
#    0.000    2.222    1.111    0.000    3.111    7.111 
#    0.000    0.000    0.000    0.000    0.000    0.000 
#    0.000    0.000    0.000    0.000    0.000    0.000 
#
# Total GULP energy -100355.893657 kJ/mol
# GULP energy per Si atom -5575.327425 kJ/mol
# Density = 2.260908 g / cm^3
# Si number density = 22.660659 Si / 1000 Ang^3
#
#
#
# Elastic Constant Matrix: (Units=GPa)
#
#
# Indices 1 2 3 4 5 6 
#
# 1 122.9529 1.2213 41.1654 0.0000 7.5417 0.0000
# 2 1.2213 -90.2451 -135.7247 0.0000 60.8462 0.0000
# 3 41.1654 -135.7247 -17.1793 0.0000 63.8252 0.0000
# 4 0.0000 0.0000 0.0000 31.1597 0.0000 -1.5192
# 5 7.5417 60.8462 63.8252 0.0000 14.9303 0.0000
# 6 0.0000 0.0000 0.0000 -1.5192 0.0000 0.0368
#
#
#
# Elastic Compliance Matrix: (Units=1/GPa)
#
#
# Indices 1 2 3 4 5 6 
#
# 1 0.009024 0.001862 -0.002264 0.000000 -0.002469 0.000001
# 2 0.001862 0.005334 -0.007223 0.000000 0.008198 -0.000008
# 3 -0.002264 -0.007223 0.006340 0.000000 0.003475 0.000001
# 4 0.000000 0.000000 0.000000 -0.031642 0.000000 -1.307189
# 5 -0.002469 0.008198 0.003475 0.000000 0.019960 0.000003
# 6 0.000001 -0.000008 0.000001 -1.307189 0.000003-26.810446
#
#
# Mechanical properties :
#
#
# Convention : Reuss Voigt Hill
#
# Bulk Modulus (GPa) = 183.50534 -19.01640 82.24447
# Shear Modulus (GPa) = -0.18668 16.48314 8.14823
#
# Velocity S-wave (km/s) = -0.28733 2.69994 1.89831
# Velocity P-wave (km/s) = 9.00252 1.14436 6.41697
#
# Compressibility (1/GPa) = 0.00544943
#
# Stress axis : x y z
#
# Youngs Moduli (GPa) = 110.81291 187.47551 157.72426
#
# Poissons Ratio (x) = -0.34916 0.35711
# Poissons Ratio (y) = -0.20638 1.13920
# Poissons Ratio (z) = 0.25090 1.35409
#
# Static dielectric constant tensor:
#      x y z
#    x 1.953980 0.000000 0.013640 
#    y 0.000000 1.895430 0.000000 
#    z 0.013640 0.000000 1.823250 
# 
# From -- ./inp_files/94382.got.cif
#   From: 2010.05.17/outbox.cif.g08.bks.cpg/sg15_48_cif.got.tgz:94382.got - 2010.06.03 18:47:42.
