data_PCOD9273888
_publ_section_title
;
Structure prediction by ZEFSAII (Michael W. Deem and Ramdas Pophale) SiO2 
 PCOD9273888
Probable space group: C 2/C
;
_chemical_formula_sum "Si O2"
_cell_formula_units_Z 40
_cell_length_a 12.830101
_cell_length_b 16.279408
_cell_length_c 16.049333
_cell_angle_alpha 90.000000
_cell_angle_beta 142.379973
_cell_angle_gamma 90.000000
_cell_volume 2046.236806
_symmetry_space_group_name_H-M "C 2/C"
_symmetry_group_IT_number 15
_symmetry_cell_setting 'monoclinic'
loop_
_space_group_symop_operation_xyz
x,y,z
-x,y,1/2-z
-x,-y,-z
x,-y,1/2+z
1/2+x,1/2+y,z
1/2-x,1/2+y,1/2-z
1/2-x,1/2-y,-z
1/2+x,1/2-y,1/2+z
loop_
_atom_site_type_symbol
_atom_site_label
_atom_site_fract_x
_atom_site_fract_y
_atom_site_fract_z
Si Si1 0.844831 0.832358 0.087456
Si Si2 0.704338 0.810943 0.358080
Si Si3 0.419688 0.434745 0.383965
Si Si4 0.186432 0.861293 0.895542
Si Si5 0.184136 0.478697 0.082789
O O1 0.716973 0.894392 0.054584
O O2 0.000000 0.814581 0.250000
O O3 0.931130 0.880739 0.064664
O O4 0.750000 0.750000 0.000000
O O5 0.500000 0.819529 0.250000
O O6 0.781840 0.872655 0.339464
O O7 0.807651 0.828574 0.507665
O O8 0.737778 0.713441 0.366274
O O9 0.500000 0.500000 0.500000
O O10 0.319036 0.478850 0.244624
O O11 0.000000 0.884673 0.750000
O O12 0.287187 0.944878 0.959524
O O13 0.000000 0.500000 0.000000
#
# Coordination Sequence:
#
# PCOD9273888 Si02
#       5
#     8   8   8   8   8
#     4  10  24  44  62  91 132 169 212 262 314 383
#     4  10  21  37  61  90 119 152 202 258 300 368
#     4  11  23  40  63  92 125 162 208 258 311 378
#     4  10  20  38  60  85 120 154 195 256 311 354
#     4  11  23  39  63  90 124 164 209 254 311 381
#
# _framework density 19.548079999999999
#
# number of rings (size 3 to 8) (size 9 to 14) (size 15 to 20)
#    0.000    1.600    0.000    5.400    2.800    1.600 
#   10.800    1.000    0.000    0.000    0.000    0.000 
#    0.000    0.000    0.000    0.000    0.000    0.000 
#
# Total GULP energy -111499.742965 kJ/mol
# GULP energy per Si atom -5574.987148 kJ/mol
# Density = 1.950359 g / cm^3
# Si number density = 19.548080 Si / 1000 Ang^3
#
#
#
# Elastic Constant Matrix: (Units=GPa)
#
#
# Indices 1 2 3 4 5 6 
#
# 1 82.4530 63.9400 37.5765 0.0000 5.2035 -0.0001
# 2 63.9400 149.8335 39.6001 0.0000 12.3244 -0.0001
# 3 37.5765 39.6001 60.7483 0.0002 13.8873 -0.0001
# 4 0.0000 0.0000 0.0002 37.8993 0.0003 -2.7839
# 5 5.2035 12.3244 13.8873 0.0003 26.4298 0.0000
# 6 -0.0001 -0.0001 -0.0001 -2.7839 0.0000 29.2447
#
#
#
# Elastic Compliance Matrix: (Units=1/GPa)
#
#
# Indices 1 2 3 4 5 6 
#
# 1 0.021825 -0.007052 -0.009857 0.000000 0.004171 0.000000
# 2 -0.007052 0.010372 -0.001831 0.000000 -0.002486 0.000000
# 3 -0.009857 -0.001831 0.026268 0.000000 -0.011008 0.000000
# 4 0.000000 0.000000 0.000000 0.026572 0.000000 0.002529
# 5 0.004171 -0.002486 -0.011008 0.000000 0.043958 0.000000
# 6 0.000000 0.000000 0.000000 0.002529 0.000000 0.034435
#
#
# Mechanical properties :
#
#
# Convention : Reuss Voigt Hill
#
# Bulk Modulus (GPa) = 47.64926 63.91867 55.78397
# Shear Modulus (GPa) = 24.04946 28.84265 26.44606
#
# Velocity S-wave (km/s) = 3.51133 3.84535 3.68213
# Velocity P-wave (km/s) = 6.39278 7.24464 6.83200
#
# Compressibility (1/GPa) = 0.02098668
#
# Stress axis : x y z
#
# Youngs Moduli (GPa) = 45.81798 96.41640 38.06856
#
# Poissons Ratio (x) = 0.67990 0.37524
# Poissons Ratio (y) = 0.32310 0.06969
# Poissons Ratio (z) = 0.45163 0.17651
#
# Static dielectric constant tensor:
#      x y z
#    x 1.551930 0.000000 -0.026350 
#    y 0.000000 1.589700 0.000000 
#    z -0.026350 0.000000 1.655430 
# 
# From -- ./inp_files/29196.got.cif
#   From: 2010.05.17/outbox.cif.g08.bks.cpg/sg15_15_cif.got.tgz:29196.got - 2010.06.03 18:47:42.
