data_PCOD9273407
_publ_section_title
;
Structure prediction by ZEFSAII (Michael W. Deem and Ramdas Pophale) SiO2 
 PCOD9273407
Probable space group: C 2/C
;
_chemical_formula_sum "Si O2"
_cell_formula_units_Z 64
_cell_length_a 17.365017
_cell_length_b 15.553628
_cell_length_c 11.792577
_cell_angle_alpha 90.000000
_cell_angle_beta 81.325155
_cell_angle_gamma 90.000000
_cell_volume 3148.609221
_symmetry_space_group_name_H-M "C 2/C"
_symmetry_group_IT_number 15
_symmetry_cell_setting 'monoclinic'
loop_
_space_group_symop_operation_xyz
x,y,z
-x,y,1/2-z
-x,-y,-z
x,-y,1/2+z
1/2+x,1/2+y,z
1/2-x,1/2+y,1/2-z
1/2-x,1/2-y,-z
1/2+x,1/2-y,1/2+z
loop_
_atom_site_type_symbol
_atom_site_label
_atom_site_fract_x
_atom_site_fract_y
_atom_site_fract_z
Si Si1 0.184497 0.802950 0.942162
Si Si2 0.583841 0.841789 0.784276
Si Si3 0.591537 0.287527 0.737194
Si Si4 0.587255 0.333530 0.180254
Si Si5 0.777401 0.107616 0.537292
Si Si6 0.643886 0.524310 0.171578
Si Si7 0.221176 0.540931 0.191287
Si Si8 0.647780 0.224130 0.480128
O O1 0.143059 0.763597 0.837448
O O2 0.230985 0.887614 0.890641
O O3 0.250000 0.750000 0.000000
O O4 0.112569 0.825805 0.042556
O O5 0.500000 0.855586 0.750000
O O6 0.621824 0.755783 0.721191
O O7 0.638514 0.920915 0.741678
O O8 0.582444 0.820126 0.918196
O O9 0.500000 0.265486 0.750000
O O10 0.598596 0.392158 0.728193
O O11 0.626812 0.247073 0.614043
O O12 0.500000 0.327496 0.250000
O O13 0.611447 0.430697 0.204738
O O14 0.840142 0.046321 0.462911
O O15 0.721228 0.160135 0.464710
O O16 0.826006 0.185224 0.580806
O O17 0.723074 0.048693 0.625111
O O18 0.728665 0.525519 0.208221
#
# Coordination Sequence:
#
# PCOD9273407 Si02
#       8
#     8   8   8   8   8   8   8   8
#     4  11  23  40  63  96 129 170 223 272 321 399
#     4  11  24  40  65  94 134 174 217 276 330 399
#     4  10  24  40  63  90 134 173 211 279 341 394
#     4  11  23  38  64  99 133 171 216 269 344 397
#     4  10  20  37  65  91 119 166 216 277 312 383
#     4  10  20  39  59  94 126 166 217 268 325 401
#     4  11  21  39  63  92 125 167 223 270 330 384
#     4  10  22  42  64  92 128 169 223 266 333 388
#
# _framework density 20.326435
#
# number of rings (size 3 to 8) (size 9 to 14) (size 15 to 20)
#    0.000    1.500    3.750    1.125    5.250    1.000 
#    0.000    3.125    0.000    0.000    0.000    0.000 
#    0.000    0.000    0.000    0.000    0.000    0.000 
#
# Total GULP energy -178183.376278 kJ/mol
# GULP energy per Si atom -5568.230509 kJ/mol
# Density = 2.028017 g / cm^3
# Si number density = 20.326435 Si / 1000 Ang^3
#
#
#
# Elastic Constant Matrix: (Units=GPa)
#
#
# Indices 1 2 3 4 5 6 
#
# 1 112.2855 31.9772 50.4329 0.0000 6.6860 0.0000
# 2 31.9772 78.4908 26.4090 0.0000 -7.2993 0.0000
# 3 50.4329 26.4090 95.3159 0.0000 3.1841 0.0000
# 4 0.0000 0.0000 0.0000 17.7701 0.0000 -5.3408
# 5 6.6860 -7.2993 3.1841 0.0000 26.3368 0.0000
# 6 0.0000 0.0000 0.0000 -5.3408 0.0000 29.1896
#
#
#
# Elastic Compliance Matrix: (Units=1/GPa)
#
#
# Indices 1 2 3 4 5 6 
#
# 1 0.012647 -0.003606 -0.005575 0.000000 -0.003536 0.000000
# 2 -0.003606 0.015601 -0.002600 0.000000 0.005553 0.000000
# 3 -0.005575 -0.002600 0.014196 0.000000 -0.001022 0.000000
# 4 0.000000 0.000000 0.000000 0.059549 0.000000 0.010896
# 5 -0.003536 0.005553 -0.001022 0.000000 0.040530 0.000000
# 6 0.000000 0.000000 0.000000 0.010896 0.000000 0.036252
#
#
# Mechanical properties :
#
#
# Convention : Reuss Voigt Hill
#
# Bulk Modulus (GPa) = 52.95923 55.97005 54.46464
# Shear Modulus (GPa) = 23.96593 26.47751 25.22172
#
# Velocity S-wave (km/s) = 3.43746 3.61309 3.52637
# Velocity P-wave (km/s) = 6.47037 6.70830 6.59041
#
# Compressibility (1/GPa) = 0.01888245
#
# Stress axis : x y z
#
# Youngs Moduli (GPa) = 79.06965 64.10023 70.44455
#
# Poissons Ratio (x) = 0.23112 0.39270
# Poissons Ratio (y) = 0.28510 0.18317
# Poissons Ratio (z) = 0.44078 0.16667
#
# Static dielectric constant tensor:
#      x y z
#    x 1.735670 0.000000 0.018190 
#    y 0.000000 1.754070 0.000000 
#    z 0.018190 0.000000 1.878560 
# 
# From -- ./inp_files/105736.got.cif
#   From: 2010.05.17/outbox.cif.g08.bks.cpg/sg15_53_cif.got.tgz:105736.got - 2010.06.03 18:47:42.
