data_PCOD9273964
_publ_section_title
;
Structure prediction by ZEFSAII (Michael W. Deem and Ramdas Pophale) SiO2 
 PCOD9273964
Probable space group: C 2/C
;
_chemical_formula_sum "Si O2"
_cell_formula_units_Z 36
_cell_length_a 11.313008
_cell_length_b 23.028867
_cell_length_c 5.282030
_cell_angle_alpha 90.000000
_cell_angle_beta 94.550942
_cell_angle_gamma 90.000000
_cell_volume 1371.766253
_symmetry_space_group_name_H-M "C 2/C"
_symmetry_group_IT_number 15
_symmetry_cell_setting 'monoclinic'
loop_
_space_group_symop_operation_xyz
x,y,z
-x,y,1/2-z
-x,-y,-z
x,-y,1/2+z
1/2+x,1/2+y,z
1/2-x,1/2+y,1/2-z
1/2-x,1/2-y,-z
1/2+x,1/2-y,1/2+z
loop_
_atom_site_type_symbol
_atom_site_label
_atom_site_fract_x
_atom_site_fract_y
_atom_site_fract_z
Si Si1 0.000000 0.039399 0.750000
Si Si2 0.000000 0.633245 0.750000
Si Si3 0.132817 0.473749 0.058339
Si Si4 0.813689 0.302800 0.867151
Si Si5 0.901311 0.870749 0.546360
Si Si6 0.000000 0.233264 0.750000
O O1 0.105725 0.085680 0.695088
O O2 0.000000 0.000000 0.500000
O O3 0.096549 0.591823 0.621937
O O4 0.920498 0.670592 0.549096
O O5 0.190930 0.509170 0.301014
O O6 0.000000 0.500000 0.000000
O O7 0.718248 0.353765 0.829333
O O8 0.885238 0.271559 0.654137
O O9 0.750000 0.250000 0.000000
O O10 0.000000 0.894828 0.750000
O O11 0.957398 0.810507 0.457627
#
# Coordination Sequence:
#
# PCOD9273964 Si02
#       6
#     4   4   8   8   8   4
#     4  11  22  46  77 108 149 194 250 311 366 444
#     4  10  20  38  60  90 136 174 236 288 358 440
#     4   8  16  33  62  84 120 161 206 280 345 418
#     4  10  23  41  63 101 140 194 246 300 375 436
#     4  10  22  44  72 103 144 189 249 311 368 443
#     4   9  22  40  67  96 143 188 240 303 368 438
#
# _framework density 26.243539999999999
#
# number of rings (size 3 to 8) (size 9 to 14) (size 15 to 20)
#    0.000    2.667    1.111    0.000    6.222    4.444 
#    8.000    6.667    0.000    0.000    0.000    0.000 
#    0.000    0.000    0.000    0.000    0.000    0.000 
#
# Total GULP energy -100427.005441 kJ/mol
# GULP energy per Si atom -5579.278080 kJ/mol
# Density = 2.618381 g / cm^3
# Si number density = 26.243540 Si / 1000 Ang^3
#
#
#
# Elastic Constant Matrix: (Units=GPa)
#
#
# Indices 1 2 3 4 5 6 
#
# 1 113.0516 60.5778 30.4849 0.0000 -15.0336 0.0000
# 2 60.5778 152.3155 46.6027 0.0000 -15.0675 0.0000
# 3 30.4849 46.6027 132.1596 0.0000 -7.7722 0.0000
# 4 0.0000 0.0000 0.0000 13.6650 0.0000 11.0372
# 5 -15.0336 -15.0675 -7.7722 0.0000 26.8860 0.0000
# 6 0.0000 0.0000 0.0000 11.0372 0.0000 22.8390
#
#
#
# Elastic Compliance Matrix: (Units=1/GPa)
#
#
# Indices 1 2 3 4 5 6 
#
# 1 0.011800 -0.003958 -0.001087 0.000000 0.004066 0.000000
# 2 -0.003958 0.009012 -0.002134 0.000000 0.002220 0.000000
# 3 -0.001087 -0.002134 0.008610 0.000000 0.000685 0.000000
# 4 0.000000 0.000000 0.000000 0.120031 0.000000 -0.058006
# 5 0.004066 0.002220 0.000685 0.000000 0.040910 0.000000
# 6 0.000000 0.000000 0.000000 -0.058006 0.000000 0.071817
#
#
# Mechanical properties :
#
#
# Convention : Reuss Voigt Hill
#
# Bulk Modulus (GPa) = 66.38584 74.76195 70.57389
# Shear Modulus (GPa) = 17.75816 30.00210 23.88013
#
# Velocity S-wave (km/s) = 2.60411 3.38482 3.01980
# Velocity P-wave (km/s) = 5.86454 6.62009 6.25374
#
# Compressibility (1/GPa) = 0.01506345
#
# Stress axis : x y z
#
# Youngs Moduli (GPa) = 84.74317 110.95986 116.14061
#
# Poissons Ratio (x) = 0.43922 0.12625
# Poissons Ratio (y) = 0.33545 0.24788
# Poissons Ratio (z) = 0.09212 0.23682
#
# Static dielectric constant tensor:
#      x y z
#    x 1.987920 0.000000 0.056550 
#    y 0.000000 2.165270 0.000000 
#    z 0.056550 0.000000 2.189460 
# 
# From -- ./inp_files/4369.got.cif
#   From: 2010.05.17/outbox.cif.g08.bks.cpg/sg15_3_cif.got.tgz:4369.got - 2010.06.03 18:47:42.
