data_PCOD9273204
_publ_section_title
;
Structure prediction by ZEFSAII (Michael W. Deem and Ramdas Pophale) SiO2 
 PCOD9273204
Probable space group: C 2/C
;
_chemical_formula_sum "Si O2"
_cell_formula_units_Z 56
_cell_length_a 10.681397
_cell_length_b 12.758355
_cell_length_c 21.804855
_cell_angle_alpha 90.000000
_cell_angle_beta 69.379753
_cell_angle_gamma 90.000000
_cell_volume 2781.132611
_symmetry_space_group_name_H-M "C 2/C"
_symmetry_group_IT_number 15
_symmetry_cell_setting 'monoclinic'
loop_
_space_group_symop_operation_xyz
x,y,z
-x,y,1/2-z
-x,-y,-z
x,-y,1/2+z
1/2+x,1/2+y,z
1/2-x,1/2+y,1/2-z
1/2-x,1/2-y,-z
1/2+x,1/2-y,1/2+z
loop_
_atom_site_type_symbol
_atom_site_label
_atom_site_fract_x
_atom_site_fract_y
_atom_site_fract_z
Si Si1 0.013757 0.114655 0.835229
Si Si2 0.602597 0.833137 0.842143
Si Si3 0.712054 0.130182 0.122880
Si Si4 0.856710 0.520166 0.055069
Si Si5 0.230657 0.346334 0.332406
Si Si6 0.377369 0.549147 0.983775
Si Si7 0.261100 0.999638 0.770246
O O1 0.890831 0.135392 0.811098
O O2 0.944457 0.103998 0.913676
O O3 0.116407 0.211056 0.825183
O O4 0.100781 0.014217 0.801829
O O5 0.442353 0.846237 0.863935
O O6 0.642558 0.878288 0.901299
O O7 0.681104 0.902927 0.778995
O O8 0.781281 0.224028 0.149881
O O9 0.705282 0.025252 0.165228
O O10 0.794580 0.118510 0.046300
O O11 0.830482 0.419742 0.103747
O O12 0.736458 0.524901 0.026805
O O13 0.000000 0.500000 0.000000
O O14 0.184581 0.399673 0.276926
O O15 0.500000 0.500000 0.000000
#
# Coordination Sequence:
#
# PCOD9273204 Si02
#       7
#     8   8   8   8   8   8   8
#     4  10  21  38  63  88 122 159 210 257 298 378
#     4  10  22  38  64  92 117 163 211 259 305 358
#     4  11  21  38  65  89 123 160 210 257 304 375
#     4  10  20  37  63  91 126 159 205 256 302 371
#     4   9  22  36  61  91 114 161 214 255 297 364
#     4  11  22  39  63  93 127 164 200 255 323 362
#     4  11  20  36  58  87 125 154 200 255 312 348
#
# _framework density 20.135681000000002
#
# number of rings (size 3 to 8) (size 9 to 14) (size 15 to 20)
#    0.000    1.714    2.857    1.714    2.000    4.000 
#    0.000    0.714    9.429   10.286    0.000    0.000 
#    0.000    0.000    0.000    0.000    0.000    0.000 
#
# Total GULP energy -156024.587484 kJ/mol
# GULP energy per Si atom -5572.306696 kJ/mol
# Density = 2.008985 g / cm^3
# Si number density = 20.135681 Si / 1000 Ang^3
#
#
#
# Elastic Constant Matrix: (Units=GPa)
#
#
# Indices 1 2 3 4 5 6 
#
# 1 67.7862 30.0132 15.7756 0.0000 -2.6406 0.0000
# 2 30.0132 67.8716 30.0732 0.0000 -4.1967 0.0000
# 3 15.7756 30.0732 112.2481 0.0000 -21.6371 0.0000
# 4 0.0000 0.0000 0.0000 23.3115 0.0000 -2.5586
# 5 -2.6406 -4.1967 -21.6371 0.0000 40.4465 0.0000
# 6 0.0000 0.0000 0.0000 -2.5586 0.0000 33.7566
#
#
#
# Elastic Compliance Matrix: (Units=1/GPa)
#
#
# Indices 1 2 3 4 5 6 
#
# 1 0.018366 -0.007921 -0.000431 0.000000 0.000147 0.000000
# 2 -0.007921 0.020155 -0.004441 0.000000 -0.000802 0.000000
# 3 -0.000431 -0.004441 0.011222 0.000000 0.005514 0.000000
# 4 0.000000 0.000000 0.000000 0.043257 0.000000 0.003279
# 5 0.000147 -0.000802 0.005514 0.000000 0.027600 0.000000
# 6 0.000000 0.000000 0.000000 0.003279 0.000000 0.029872
#
#
# Mechanical properties :
#
#
# Convention : Reuss Voigt Hill
#
# Bulk Modulus (GPa) = 41.39700 44.40333 42.90016
# Shear Modulus (GPa) = 27.15755 30.97250 29.06503
#
# Velocity S-wave (km/s) = 3.67649 3.92623 3.80341
# Velocity P-wave (km/s) = 6.21496 6.53098 6.37493
#
# Compressibility (1/GPa) = 0.02415634
#
# Stress axis : x y z
#
# Youngs Moduli (GPa) = 54.44984 49.61580 89.10934
#
# Poissons Ratio (x) = 0.39303 0.03836
# Poissons Ratio (y) = 0.43132 0.39574
# Poissons Ratio (z) = 0.02344 0.22035
#
# Static dielectric constant tensor:
#      x y z
#    x 1.714480 0.000000 0.017870 
#    y 0.000000 1.763680 0.000000 
#    z 0.017870 0.000000 1.784110 
# 
# From -- ./inp_files/268742.got.cif
#   From: 2010.05.17/outbox.cif.g08.bks.cpg/sg15_135_cif.got.tgz:268742.got - 2010.06.03 18:47:42.
