data_PCOD9273852
_publ_section_title
;
Structure prediction by ZEFSAII (Michael W. Deem and Ramdas Pophale) SiO2 
 PCOD9273852
Probable space group: C 2/C
;
_chemical_formula_sum "Si O2"
_cell_formula_units_Z 52
_cell_length_a 10.946794
_cell_length_b 31.404369
_cell_length_c 8.552904
_cell_angle_alpha 90.000000
_cell_angle_beta 118.619803
_cell_angle_gamma 90.000000
_cell_volume 2581.040601
_symmetry_space_group_name_H-M "C 2/C"
_symmetry_group_IT_number 15
_symmetry_cell_setting 'monoclinic'
loop_
_space_group_symop_operation_xyz
x,y,z
-x,y,1/2-z
-x,-y,-z
x,-y,1/2+z
1/2+x,1/2+y,z
1/2-x,1/2+y,1/2-z
1/2-x,1/2-y,-z
1/2+x,1/2-y,1/2+z
loop_
_atom_site_type_symbol
_atom_site_label
_atom_site_fract_x
_atom_site_fract_y
_atom_site_fract_z
Si Si1 0.558684 0.541799 0.614426
Si Si2 0.930000 0.789130 0.999106
Si Si3 0.500000 0.997741 0.750000
Si Si4 0.635941 0.054612 0.582577
Si Si5 0.858337 0.355964 0.262571
Si Si6 0.716132 0.731154 0.758416
Si Si7 0.552766 0.370956 0.954137
O O1 0.500000 0.549450 0.750000
O O2 0.500000 0.500000 0.500000
O O3 0.722213 0.539848 0.747866
O O4 0.520663 0.581185 0.481921
O O5 0.812361 0.772606 0.809176
O O6 0.970541 0.838505 0.016866
O O7 0.861228 0.775921 0.121987
O O8 0.081582 0.767826 0.063829
O O9 0.386374 0.965029 0.604174
O O10 0.524781 0.031123 0.624743
O O11 0.629727 0.105752 0.602145
O O12 0.817588 0.309462 0.302740
O O13 0.000000 0.355286 0.250000
O O14 0.719085 0.366221 0.076305
O O15 0.500000 0.360784 0.750000
#
# Coordination Sequence:
#
# PCOD9273852 Si02
#       7
#     8   8   4   8   8   8   8
#     4  11  23  39  62  89 119 155 198 245 297 354
#     4   9  19  37  60  86 115 155 196 247 297 358
#     4  10  20  38  60  80 114 156 190 238 290 344
#     4  10  21  38  58  84 115 152 194 237 291 350
#     4  10  21  39  58  83 119 159 194 245 298 352
#     4   9  19  36  62  84 116 152 199 242 302 355
#     4  10  23  39  60  88 121 158 202 248 299 357
#
# _framework density 20.146910999999999
#
# number of rings (size 3 to 8) (size 9 to 14) (size 15 to 20)
#    0.000    2.154    0.769    1.385    6.462    3.077 
#    2.769    6.154    0.000    0.000    0.000    0.000 
#    0.000    0.000    0.000    0.000    0.000    0.000 
#
# Total GULP energy -144754.317041 kJ/mol
# GULP energy per Si atom -5567.473732 kJ/mol
# Density = 2.010106 g / cm^3
# Si number density = 20.146911 Si / 1000 Ang^3
#
#
#
# Elastic Constant Matrix: (Units=GPa)
#
#
# Indices 1 2 3 4 5 6 
#
# 1 56.8985 42.2041 -4.8998 0.0000 14.8052 0.0000
# 2 42.2041 87.8050 12.4357 0.0000 33.1114 0.0000
# 3 -4.8998 12.4357 32.6042 0.0000 10.4694 0.0000
# 4 0.0000 0.0000 0.0000 21.4110 0.0000 9.6771
# 5 14.8052 33.1114 10.4694 0.0000 22.7344 0.0000
# 6 0.0000 0.0000 0.0000 9.6771 0.0000 20.9641
#
#
#
# Elastic Compliance Matrix: (Units=1/GPa)
#
#
# Indices 1 2 3 4 5 6 
#
# 1 0.030597 -0.015149 0.011371 0.000000 -0.003099 0.000000
# 2 -0.015149 0.032948 -0.003054 0.000000 -0.036716 0.000000
# 3 0.011371 -0.003054 0.040480 0.000000 -0.021599 0.000000
# 4 0.000000 0.000000 0.000000 0.059018 0.000000 -0.027243
# 5 -0.003099 -0.036716 -0.021599 0.000000 0.109426 0.000000
# 6 0.000000 0.000000 0.000000 -0.027243 0.000000 0.060276
#
#
# Mechanical properties :
#
#
# Convention : Reuss Voigt Hill
#
# Bulk Modulus (GPa) = 11.06645 30.75418 20.91031
# Shear Modulus (GPa) = 13.27919 21.52642 17.40280
#
# Velocity S-wave (km/s) = 2.57011 3.27230 2.94223
# Velocity P-wave (km/s) = 3.78314 5.43832 4.68441
#
# Compressibility (1/GPa) = 0.09036319
#
# Stress axis : x y z
#
# Youngs Moduli (GPa) = 32.68287 30.35047 24.70352
#
# Poissons Ratio (x) = 0.45977 -0.28091
# Poissons Ratio (y) = 0.49510 0.07544
# Poissons Ratio (z) = -0.37164 0.09268
#
# Static dielectric constant tensor:
#      x y z
#    x 1.738060 0.000000 -0.008100 
#    y 0.000000 1.708100 0.000000 
#    z -0.008100 0.000000 1.764890 
# 
# From -- ./inp_files/35357.got.cif
#   From: 2010.05.17/outbox.cif.g08.bks.cpg/sg15_18_cif.got.tgz:35357.got - 2010.06.03 18:47:42.
