data_PCOD9273341
_publ_section_title
;
Structure prediction by ZEFSAII (Michael W. Deem and Ramdas Pophale) SiO2 
 PCOD9273341
Probable space group: C 2/C
;
_chemical_formula_sum "Si O2"
_cell_formula_units_Z 56
_cell_length_a 17.661833
_cell_length_b 27.275350
_cell_length_c 5.297325
_cell_angle_alpha 90.000000
_cell_angle_beta 88.709402
_cell_angle_gamma 90.000000
_cell_volume 2551.247184
_symmetry_space_group_name_H-M "C 2/C"
_symmetry_group_IT_number 15
_symmetry_cell_setting 'monoclinic'
loop_
_space_group_symop_operation_xyz
x,y,z
-x,y,1/2-z
-x,-y,-z
x,-y,1/2+z
1/2+x,1/2+y,z
1/2-x,1/2+y,1/2-z
1/2-x,1/2-y,-z
1/2+x,1/2-y,1/2+z
loop_
_atom_site_type_symbol
_atom_site_label
_atom_site_fract_x
_atom_site_fract_y
_atom_site_fract_z
Si Si1 0.091369 0.971360 0.213930
Si Si2 0.805923 0.678481 0.487208
Si Si3 0.607888 0.365075 0.363154
Si Si4 0.275646 0.126405 0.002529
Si Si5 0.833008 0.468466 0.733672
Si Si6 0.500000 0.662677 0.250000
Si Si7 0.367726 0.283334 0.515726
Si Si8 0.500000 0.033100 0.250000
O O1 0.117244 0.914608 0.197842
O O2 0.000000 0.972731 0.250000
O O3 0.118065 0.998302 0.468093
O O4 0.806367 0.639722 0.719601
O O5 0.718842 0.697571 0.476371
O O6 0.859552 0.725125 0.526425
O O7 0.819672 0.658015 0.207783
O O8 0.686799 0.361231 0.504444
O O9 0.532445 0.372432 0.531619
O O10 0.599378 0.313192 0.224899
O O11 0.280123 0.072454 0.118207
O O12 0.825826 0.511293 0.520026
O O13 0.917367 0.443452 0.733396
O O14 0.572511 0.696846 0.287663
O O15 0.500000 0.000000 0.500000
#
# Coordination Sequence:
#
# PCOD9273341 Si02
#       8
#     8   8   8   8   8   4   8   4
#     4  10  23  38  56  81 119 162 204 259 313 352
#     4  10  23  42  64  91 122 164 201 266 332 382
#     4  11  25  39  63  91 124 166 222 263 310 377
#     4  11  23  41  63  93 130 166 209 261 319 376
#     4  10  20  37  64  94 129 170 214 256 308 380
#     4  12  22  40  64  95 116 168 219 270 302 380
#     4  10  23  40  66  88 122 156 216 264 322 380
#     4   8  16  32  56  89 118 154 205 252 300 364
#
# _framework density 21.950049
#
# number of rings (size 3 to 8) (size 9 to 14) (size 15 to 20)
#    0.000    1.714    1.429    2.143    7.000    2.857 
#    0.000    1.429    0.000    0.000    0.000    0.000 
#    0.000    0.000    0.000    0.000    0.000    0.000 
#
# Total GULP energy -155993.284531 kJ/mol
# GULP energy per Si atom -5571.188733 kJ/mol
# Density = 2.190009 g / cm^3
# Si number density = 21.950049 Si / 1000 Ang^3
#
#
#
# Elastic Constant Matrix: (Units=GPa)
#
#
# Indices 1 2 3 4 5 6 
#
# 1 41.7969 12.8849 15.8958 0.0000 10.1516 0.0000
# 2 12.8849 55.4855 28.6252 0.0000 8.3871 0.0000
# 3 15.8958 28.6252 117.8576 0.0000 12.2763 0.0000
# 4 0.0000 0.0000 0.0000 25.5137 0.0000 2.8525
# 5 10.1516 8.3871 12.2763 0.0000 21.9288 0.0000
# 6 0.0000 0.0000 0.0000 2.8525 0.0000 21.5026
#
#
#
# Elastic Compliance Matrix: (Units=1/GPa)
#
#
# Indices 1 2 3 4 5 6 
#
# 1 0.028428 -0.004103 -0.001731 0.000000 -0.010622 0.000000
# 2 -0.004103 0.021815 -0.004326 0.000000 -0.004022 0.000000
# 3 -0.001731 -0.004326 0.010102 0.000000 -0.003199 0.000000
# 4 0.000000 0.000000 0.000000 0.039785 0.000000 -0.005278
# 5 -0.010622 -0.004022 -0.003199 0.000000 0.053849 0.000000
# 6 0.000000 0.000000 0.000000 -0.005278 0.000000 0.047206
#
#
# Mechanical properties :
#
#
# Convention : Reuss Voigt Hill
#
# Bulk Modulus (GPa) = 24.98417 36.66133 30.82275
# Shear Modulus (GPa) = 21.29033 24.30462 22.79748
#
# Velocity S-wave (km/s) = 3.11777 3.33118 3.22624
# Velocity P-wave (km/s) = 4.93636 5.61552 5.28686
#
# Compressibility (1/GPa) = 0.04002535
#
# Stress axis : x y z
#
# Youngs Moduli (GPa) = 35.17617 45.83915 98.98721
#
# Poissons Ratio (x) = 0.18807 0.17138
# Poissons Ratio (y) = 0.14432 0.42824
# Poissons Ratio (z) = 0.06090 0.19831
#
# Static dielectric constant tensor:
#      x y z
#    x 1.832060 0.000000 0.010970 
#    y 0.000000 1.820000 0.000000 
#    z 0.010970 0.000000 1.933580 
# 
# From -- ./inp_files/13764.got.cif
#   From: 2010.05.17/outbox.cif.g08.bks.cpg/sg15_7_cif.got.tgz:13764.got - 2010.06.03 18:47:42.
