data_PCOD9273462
_publ_section_title
;
Structure prediction by ZEFSAII (Michael W. Deem and Ramdas Pophale) SiO2 
 PCOD9273462
Probable space group: C 2/C
;
_chemical_formula_sum "Si O2"
_cell_formula_units_Z 56
_cell_length_a 11.198685
_cell_length_b 19.578777
_cell_length_c 14.429504
_cell_angle_alpha 90.000000
_cell_angle_beta 60.532244
_cell_angle_gamma 90.000000
_cell_volume 2754.475758
_symmetry_space_group_name_H-M "C 2/C"
_symmetry_group_IT_number 15
_symmetry_cell_setting 'monoclinic'
loop_
_space_group_symop_operation_xyz
x,y,z
-x,y,1/2-z
-x,-y,-z
x,-y,1/2+z
1/2+x,1/2+y,z
1/2-x,1/2+y,1/2-z
1/2-x,1/2-y,-z
1/2+x,1/2-y,1/2+z
loop_
_atom_site_type_symbol
_atom_site_label
_atom_site_fract_x
_atom_site_fract_y
_atom_site_fract_z
Si Si1 0.367723 0.674647 0.240391
Si Si2 0.166264 0.465641 0.521190
Si Si3 0.639679 0.936721 0.868737
Si Si4 0.225020 0.165009 0.606364
Si Si5 0.214951 0.811558 0.320156
Si Si6 0.432761 0.720015 0.013334
Si Si7 0.164847 0.460195 0.199919
O O1 0.500000 0.653488 0.250000
O O2 0.238100 0.626744 0.313385
O O3 0.328606 0.752552 0.280269
O O4 0.394735 0.676571 0.119402
O O5 0.140980 0.534550 0.472399
O O6 0.255535 0.413560 0.427854
O O7 0.222145 0.490912 0.597446
O O8 0.020608 0.427861 0.594645
O O9 0.688171 0.999413 0.785817
O O10 0.167111 0.180024 0.730702
O O11 0.372001 0.204280 0.552500
O O12 0.140392 0.195076 0.552897
O O13 0.271079 0.885519 0.326197
O O14 0.092322 0.786792 0.432077
O O15 0.000000 0.454018 0.250000
#
# Coordination Sequence:
#
# PCOD9273462 Si02
#       7
#     8   8   8   8   8   8   8
#     4  11  25  42  60  92 130 162 206 257 311 371
#     4  10  20  37  66  87 118 163 205 254 305 364
#     4  10  21  40  59  90 122 159 208 250 308 367
#     4  10  20  41  64  91 122 156 211 259 300 370
#     4  11  22  41  63  92 125 163 207 252 311 373
#     4  10  23  39  64  91 121 165 205 252 317 356
#     4  10  21  38  62  92 122 160 208 256 307 367
#
# _framework density 20.330548
#
# number of rings (size 3 to 8) (size 9 to 14) (size 15 to 20)
#    0.000    1.714    1.429    2.571    2.000    0.571 
#    2.571    5.714    0.000    0.000    0.000    0.000 
#    0.000    0.000    0.000    0.000    0.000    0.000 
#
# Total GULP energy -156243.209944 kJ/mol
# GULP energy per Si atom -5580.114641 kJ/mol
# Density = 2.028428 g / cm^3
# Si number density = 20.330548 Si / 1000 Ang^3
#
#
#
# Elastic Constant Matrix: (Units=GPa)
#
#
# Indices 1 2 3 4 5 6 
#
# 1 39.9596 12.2834 15.4368 0.0000 7.2732 0.0000
# 2 12.2834 71.1280 16.9467 0.0000 -3.9671 0.0000
# 3 15.4368 16.9467 92.6509 0.0000 1.2807 0.0000
# 4 0.0000 0.0000 0.0000 28.3059 0.0000 1.1672
# 5 7.2732 -3.9671 1.2807 0.0000 21.6124 0.0000
# 6 0.0000 0.0000 0.0000 1.1672 0.0000 21.0388
#
#
#
# Elastic Compliance Matrix: (Units=1/GPa)
#
#
# Indices 1 2 3 4 5 6 
#
# 1 0.030000 -0.004836 -0.003965 0.000000 -0.010748 0.000000
# 2 -0.004836 0.015658 -0.002122 0.000000 0.004627 0.000000
# 3 -0.003965 -0.002122 0.011839 0.000000 0.000243 0.000000
# 4 0.000000 0.000000 0.000000 0.035409 0.000000 -0.001964
# 5 -0.010748 0.004627 0.000243 0.000000 0.050722 0.000000
# 6 0.000000 0.000000 0.000000 -0.001964 0.000000 0.047640
#
#
# Mechanical properties :
#
#
# Convention : Reuss Voigt Hill
#
# Bulk Modulus (GPa) = 28.05028 32.56358 30.30693
# Shear Modulus (GPa) = 22.22246 24.79619 23.50932
#
# Velocity S-wave (km/s) = 3.30973 3.49614 3.40421
# Velocity P-wave (km/s) = 5.33224 5.68763 5.51280
#
# Compressibility (1/GPa) = 0.03565027
#
# Stress axis : x y z
#
# Youngs Moduli (GPa) = 33.33346 63.86525 84.46873
#
# Poissons Ratio (x) = 0.30882 0.33495
# Poissons Ratio (y) = 0.16119 0.17927
# Poissons Ratio (z) = 0.13218 0.13554
#
# Static dielectric constant tensor:
#      x y z
#    x 1.724300 0.000000 0.002010 
#    y 0.000000 1.697000 0.000000 
#    z 0.002010 0.000000 1.721880 
# 
# From -- ./inp_files/145570.got.cif
#   From: 2010.05.17/outbox.cif.g08.bks.cpg/sg15_73_cif.got.tgz:145570.got - 2010.06.03 18:47:42.
