data_PCOD9273425
_publ_section_title
;
Structure prediction by ZEFSAII (Michael W. Deem and Ramdas Pophale) SiO2 
 PCOD9273425
Probable space group: C 2/C
;
_chemical_formula_sum "Si O2"
_cell_formula_units_Z 52
_cell_length_a 29.330264
_cell_length_b 8.911812
_cell_length_c 16.206292
_cell_angle_alpha 90.000000
_cell_angle_beta 143.614031
_cell_angle_gamma 90.000000
_cell_volume 2512.943484
_symmetry_space_group_name_H-M "C 2/C"
_symmetry_group_IT_number 15
_symmetry_cell_setting 'monoclinic'
loop_
_space_group_symop_operation_xyz
x,y,z
-x,y,1/2-z
-x,-y,-z
x,-y,1/2+z
1/2+x,1/2+y,z
1/2-x,1/2+y,1/2-z
1/2-x,1/2-y,-z
1/2+x,1/2-y,1/2+z
loop_
_atom_site_type_symbol
_atom_site_label
_atom_site_fract_x
_atom_site_fract_y
_atom_site_fract_z
Si Si1 0.987467 0.098376 0.395216
Si Si2 0.000000 0.893172 0.250000
Si Si3 0.317147 0.726132 0.167454
Si Si4 0.266587 0.036897 0.724273
Si Si5 0.335593 0.685337 0.526846
Si Si6 0.354916 0.764669 0.871188
Si Si7 0.292021 0.596606 0.639401
O O1 0.906645 0.190593 0.276048
O O2 0.059633 0.209461 0.487359
O O3 0.000000 0.000000 0.500000
O O4 0.991001 0.991051 0.320184
O O5 0.076994 0.798564 0.368781
O O6 0.296961 0.568560 0.183323
O O7 0.308123 0.867431 0.213676
O O8 0.250000 0.750000 0.000000
O O9 0.208523 0.910626 0.605592
O O10 0.332718 0.934118 0.861412
O O11 0.210507 0.154490 0.686876
O O12 0.321698 0.589620 0.589598
O O13 0.293543 0.841167 0.481975
O O14 0.342849 0.724760 0.756814
#
# Coordination Sequence:
#
# PCOD9273425 Si02
#       7
#     8   4   8   8   8   8   8
#     4  12  25  42  68 106 142 184 237 292 348 431
#     4  12  20  40  68 102 134 190 226 288 356 416
#     4  12  23  42  68  98 132 184 227 288 361 414
#     4  11  23  40  67  94 133 179 225 283 343 421
#     4  10  20  37  65  93 127 171 227 275 339 409
#     4  11  23  41  66  99 134 179 231 282 344 418
#     4  10  20  38  63  95 127 172 222 279 334 419
#
# _framework density 20.692864
#
# number of rings (size 3 to 8) (size 9 to 14) (size 15 to 20)
#    0.000    0.923    6.154    0.923    0.000    0.615 
#    0.000    0.000   10.154    0.000    0.000    0.000 
#    0.000    0.000    0.000    0.000    0.000    0.000 
#
# Total GULP energy -144896.738999 kJ/mol
# GULP energy per Si atom -5572.951500 kJ/mol
# Density = 2.064577 g / cm^3
# Si number density = 20.692864 Si / 1000 Ang^3
#
#
#
# Elastic Constant Matrix: (Units=GPa)
#
#
# Indices 1 2 3 4 5 6 
#
# 1 97.1662 35.5474 52.2085 0.0000 29.7761 0.0000
# 2 35.5474 90.7743 27.5421 0.0000 31.0939 0.0000
# 3 52.2085 27.5421 95.6960 0.0000 39.8697 0.0000
# 4 0.0000 0.0000 0.0000 33.0967 0.0000 4.7214
# 5 29.7761 31.0939 39.8697 0.0000 53.2712 0.0000
# 6 0.0000 0.0000 0.0000 4.7214 0.0000 39.6051
#
#
#
# Elastic Compliance Matrix: (Units=1/GPa)
#
#
# Indices 1 2 3 4 5 6 
#
# 1 0.015801 -0.003544 -0.006950 0.000000 -0.001562 0.000000
# 2 -0.003544 0.014617 0.000662 0.000000 -0.007047 0.000000
# 3 -0.006950 0.000662 0.018299 0.000000 -0.010198 0.000000
# 4 0.000000 0.000000 0.000000 0.030737 0.000000 -0.003664
# 5 -0.001562 -0.007047 -0.010198 0.000000 0.031390 0.000000
# 6 0.000000 0.000000 0.000000 -0.003664 0.000000 0.025686
#
#
# Mechanical properties :
#
#
# Convention : Reuss Voigt Hill
#
# Bulk Modulus (GPa) = 34.41779 57.13694 45.77736
# Shear Modulus (GPa) = 30.14253 36.41716 33.27985
#
# Velocity S-wave (km/s) = 3.82077 4.19966 4.01468
# Velocity P-wave (km/s) = 6.01108 7.15458 6.60761
#
# Compressibility (1/GPa) = 0.02905474
#
# Stress axis : x y z
#
# Youngs Moduli (GPa) = 63.28694 68.41376 54.64674
#
# Poissons Ratio (x) = 0.24246 0.37978
# Poissons Ratio (y) = 0.22429 -0.03620
# Poissons Ratio (z) = 0.43983 -0.04532
#
# Static dielectric constant tensor:
#      x y z
#    x 1.817560 0.000000 -0.056080 
#    y 0.000000 1.735590 0.000000 
#    z -0.056080 0.000000 1.834170 
# 
# From -- ./inp_files/224279.got.cif
#   From: 2010.05.17/outbox.cif.g08.bks.cpg/sg15_113_cif.got.tgz:224279.got - 2010.06.03 18:47:42.
