data_PCOD9273934
_publ_section_title
;
Structure prediction by ZEFSAII (Michael W. Deem and Ramdas Pophale) SiO2 
 PCOD9273934
Probable space group: C 2/C
;
_chemical_formula_sum "Si O2"
_cell_formula_units_Z 60
_cell_length_a 22.711181
_cell_length_b 21.259057
_cell_length_c 11.208856
_cell_angle_alpha 90.000000
_cell_angle_beta 30.892414
_cell_angle_gamma 90.000000
_cell_volume 2778.588596
_symmetry_space_group_name_H-M "C 2/C"
_symmetry_group_IT_number 15
_symmetry_cell_setting 'monoclinic'
loop_
_space_group_symop_operation_xyz
x,y,z
-x,y,1/2-z
-x,-y,-z
x,-y,1/2+z
1/2+x,1/2+y,z
1/2-x,1/2+y,1/2-z
1/2-x,1/2-y,-z
1/2+x,1/2-y,1/2+z
loop_
_atom_site_type_symbol
_atom_site_label
_atom_site_fract_x
_atom_site_fract_y
_atom_site_fract_z
Si Si1 0.507045 0.307526 0.973834
Si Si2 0.250465 0.390978 0.749603
Si Si3 0.000000 0.859954 0.250000
Si Si4 0.016662 0.415609 0.858308
Si Si5 0.279901 0.756533 0.808919
Si Si6 0.364780 0.801396 0.146586
Si Si7 0.806046 0.892463 0.925066
Si Si8 0.177073 0.506200 0.216620
O O1 0.605132 0.254029 0.814058
O O2 0.564875 0.368170 0.814148
O O3 0.480125 0.321984 0.160707
O O4 0.398340 0.281735 0.092760
O O5 0.383052 0.396919 0.478203
O O6 0.205391 0.328152 0.762489
O O7 0.249439 0.383761 0.892738
O O8 0.187258 0.453711 0.818871
O O9 0.000000 0.431250 0.750000
O O10 0.139321 0.440965 0.686972
O O11 0.980426 0.343127 0.935503
O O12 0.923116 0.454525 0.097037
O O13 0.180283 0.727856 0.898529
O O14 0.250000 0.750000 0.000000
O O15 0.264129 0.847248 0.365020
O O16 0.787401 0.964751 0.993873
#
# Coordination Sequence:
#
# PCOD9273934 Si02
#       8
#     8   8   4   8   8   8   8   8
#     4  11  21  39  62  94 132 173 215 267 337 400
#     4  11  22  41  66  90 128 173 218 272 329 398
#     4  10  20  38  60  88 124 164 208 272 326 382
#     4  10  22  36  63  90 126 167 215 284 329 382
#     4  12  24  38  66 100 130 170 223 268 334 404
#     4  11  23  40  63  96 135 168 214 279 337 394
#     4  10  23  44  65  91 137 172 214 280 335 393
#     4  10  22  42  60  94 123 173 229 267 328 401
#
# _framework density 21.593696000000001
#
# number of rings (size 3 to 8) (size 9 to 14) (size 15 to 20)
#    0.000    1.333    4.000    2.000    4.667    0.533 
#    0.000    9.333    0.000    0.000    0.000    0.000 
#    0.000    0.000    0.000    0.000    0.000    0.000 
#
# Total GULP energy -167520.618860 kJ/mol
# GULP energy per Si atom -5584.020629 kJ/mol
# Density = 2.154455 g / cm^3
# Si number density = 21.593696 Si / 1000 Ang^3
#
#
#
# Elastic Constant Matrix: (Units=GPa)
#
#
# Indices 1 2 3 4 5 6 
#
# 1 42.0528 23.9039 1.0241 -0.0001 -4.8185 0.0000
# 2 23.9039 106.5137 21.9747 0.0000 -4.4308 0.0000
# 3 1.0241 21.9747 45.4153 0.0000 0.2078 0.0001
# 4 -0.0001 0.0000 0.0000 7.9528 0.0000 13.2438
# 5 -4.8185 -4.4308 0.2078 0.0000 28.6525 0.0000
# 6 0.0000 0.0000 0.0001 13.2438 0.0000 15.7616
#
#
#
# Elastic Compliance Matrix: (Units=1/GPa)
#
#
# Indices 1 2 3 4 5 6 
#
# 1 0.027910 -0.006642 0.002568 -0.000001 0.003648 0.000001
# 2 -0.006642 0.012089 -0.005703 0.000000 0.000794 0.000000
# 3 0.002568 -0.005703 0.024723 -0.000001 -0.000629 0.000000
# 4 -0.000001 0.000000 -0.000001 -0.314917 0.000000 0.264612
# 5 0.003648 0.000794 -0.000629 0.000000 0.035642 0.000000
# 6 0.000001 0.000000 0.000000 0.264612 0.000000 -0.158898
#
#
# Mechanical properties :
#
#
# Convention : Reuss Voigt Hill
#
# Bulk Modulus (GPa) = 22.13948 31.97636 27.05792
# Shear Modulus (GPa) = -14.75621 20.27865 2.76122
#
# Velocity S-wave (km/s) = -2.61695 3.06780 1.13203
# Velocity P-wave (km/s) = 1.06948 5.23344 3.77708
#
# Compressibility (1/GPa) = 0.04516817
#
# Stress axis : x y z
#
# Youngs Moduli (GPa) = 35.82896 82.72263 40.44743
#
# Poissons Ratio (x) = 0.54941 -0.10385
# Poissons Ratio (y) = 0.23796 0.23067
# Poissons Ratio (z) = -0.09199 0.47177
#
# Static dielectric constant tensor:
#      x y z
#    x 1.755740 0.000000 -0.014060 
#    y 0.000000 1.814240 0.000000 
#    z -0.014060 0.000000 1.831160 
# 
# From -- ./inp_files/119932.got.cif
#   From: 2010.05.17/outbox.cif.g08.bks.cpg/sg15_60_cif.got.tgz:119932.got - 2010.06.03 18:47:42.
