data_PCOD9273709
_publ_section_title
;
Structure prediction by ZEFSAII (Michael W. Deem and Ramdas Pophale) SiO2 
 PCOD9273709
Probable space group: C 2/C
;
_chemical_formula_sum "Si O2"
_cell_formula_units_Z 60
_cell_length_a 15.375870
_cell_length_b 11.919117
_cell_length_c 17.171363
_cell_angle_alpha 90.000000
_cell_angle_beta 85.887156
_cell_angle_gamma 90.000000
_cell_volume 3138.836416
_symmetry_space_group_name_H-M "C 2/C"
_symmetry_group_IT_number 15
_symmetry_cell_setting 'monoclinic'
loop_
_space_group_symop_operation_xyz
x,y,z
-x,y,1/2-z
-x,-y,-z
x,-y,1/2+z
1/2+x,1/2+y,z
1/2-x,1/2+y,1/2-z
1/2-x,1/2-y,-z
1/2+x,1/2-y,1/2+z
loop_
_atom_site_type_symbol
_atom_site_label
_atom_site_fract_x
_atom_site_fract_y
_atom_site_fract_z
Si Si1 0.044765 0.030656 0.578766
Si Si2 0.676508 0.655502 0.098749
Si Si3 0.249450 0.984875 0.200016
Si Si4 0.151568 0.420506 0.661141
Si Si5 0.000000 0.672362 0.250000
Si Si6 0.388395 0.367196 0.184540
Si Si7 0.732842 0.113728 0.570577
Si Si8 0.788733 0.194029 0.918455
O O1 0.121832 0.124576 0.567631
O O2 0.971950 0.070996 0.643458
O O3 0.089614 0.916345 0.603294
O O4 0.000000 0.000000 0.500000
O O5 0.730468 0.607460 0.166996
O O6 0.666202 0.787442 0.095988
O O7 0.731587 0.623933 0.018402
O O8 0.161476 0.934468 0.244552
O O9 0.267622 0.897505 0.128023
O O10 0.315900 0.009288 0.265401
O O11 0.186496 0.496757 0.588917
O O12 0.192281 0.298193 0.640825
O O13 0.049777 0.399361 0.681772
O O14 0.073015 0.751117 0.285354
O O15 0.316369 0.363274 0.120748
O O16 0.750000 0.250000 0.000000
#
# Coordination Sequence:
#
# PCOD9273709 Si02
#       8
#     8   8   8   8   4   8   8   8
#     4  11  21  38  63  97 118 153 209 262 308 353
#     4  10  20  38  58  85 121 156 202 246 303 370
#     4  10  22  37  63  91 115 161 212 250 303 369
#     4  11  22  38  61  90 124 158 207 248 308 380
#     4  12  20  38  60  88 124 160 194 258 300 376
#     4  11  20  38  62  90 113 158 206 251 306 359
#     4  10  22  38  62  83 119 165 197 244 309 372
#     4  11  23  40  64  93 125 164 207 263 314 368
#
# _framework density 19.115364
#
# number of rings (size 3 to 8) (size 9 to 14) (size 15 to 20)
#    0.000    1.333    4.000    3.200    3.733    0.000 
#    0.000    2.667    0.000    5.600    0.000    0.000 
#    0.000    0.000    0.000    0.000    0.000    0.000 
#
# Total GULP energy -167235.861055 kJ/mol
# GULP energy per Si atom -5574.528702 kJ/mol
# Density = 1.907186 g / cm^3
# Si number density = 19.115364 Si / 1000 Ang^3
#
#
#
# Elastic Constant Matrix: (Units=GPa)
#
#
# Indices 1 2 3 4 5 6 
#
# 1 68.3619 33.3814 19.6191 0.0000 -12.8620 0.0000
# 2 33.3814 99.7923 7.7388 0.0000 -2.6115 0.0000
# 3 19.6191 7.7388 67.7201 0.0000 -4.2431 0.0000
# 4 0.0000 0.0000 0.0000 31.1024 0.0000 -7.9513
# 5 -12.8620 -2.6115 -4.2431 0.0000 16.7516 0.0000
# 6 0.0000 0.0000 0.0000 -7.9513 0.0000 29.2918
#
#
#
# Elastic Compliance Matrix: (Units=1/GPa)
#
#
# Indices 1 2 3 4 5 6 
#
# 1 0.021947 -0.006595 -0.004688 0.000000 0.014636 0.000000
# 2 -0.006595 0.012120 0.000332 0.000000 -0.003090 0.000000
# 3 -0.004688 0.000332 0.016120 0.000000 0.000536 0.000000
# 4 0.000000 0.000000 0.000000 0.034549 0.000000 0.009379
# 5 0.014636 -0.003090 0.000536 0.000000 0.070587 0.000000
# 6 0.000000 0.000000 0.000000 0.009379 0.000000 0.036685
#
#
# Mechanical properties :
#
#
# Convention : Reuss Voigt Hill
#
# Bulk Modulus (GPa) = 35.35250 39.70590 37.52920
# Shear Modulus (GPa) = 22.38736 27.10482 24.74609
#
# Velocity S-wave (km/s) = 3.42595 3.76967 3.60191
# Velocity P-wave (km/s) = 5.84670 6.30587 6.08062
#
# Compressibility (1/GPa) = 0.02828654
#
# Stress axis : x y z
#
# Youngs Moduli (GPa) = 45.56344 82.50615 62.03334
#
# Poissons Ratio (x) = 0.54413 0.29079
# Poissons Ratio (y) = 0.30049 -0.02059
# Poissons Ratio (z) = 0.21359 -0.02739
#
# Static dielectric constant tensor:
#      x y z
#    x 1.664040 0.000000 0.026670 
#    y 0.000000 1.683280 0.000000 
#    z 0.026670 0.000000 1.718310 
# 
# From -- ./inp_files/204010.got.cif
#   From: 2010.05.17/outbox.cif.g08.bks.cpg/sg15_103_cif.got.tgz:204010.got - 2010.06.03 18:47:42.
