data_PCOD9273291
_publ_section_title
;
Structure prediction by ZEFSAII (Michael W. Deem and Ramdas Pophale) SiO2 
 PCOD9273291
Probable space group: C 2/C
;
_chemical_formula_sum "Si O2"
_cell_formula_units_Z 48
_cell_length_a 16.531698
_cell_length_b 14.149643
_cell_length_c 13.885039
_cell_angle_alpha 90.000000
_cell_angle_beta 139.187231
_cell_angle_gamma 90.000000
_cell_volume 2122.828836
_symmetry_space_group_name_H-M "C 2/C"
_symmetry_group_IT_number 15
_symmetry_cell_setting 'monoclinic'
loop_
_space_group_symop_operation_xyz
x,y,z
-x,y,1/2-z
-x,-y,-z
x,-y,1/2+z
1/2+x,1/2+y,z
1/2-x,1/2+y,1/2-z
1/2-x,1/2-y,-z
1/2+x,1/2-y,1/2+z
loop_
_atom_site_type_symbol
_atom_site_label
_atom_site_fract_x
_atom_site_fract_y
_atom_site_fract_z
Si Si1 0.243888 0.634591 0.706259
Si Si2 0.273574 0.570350 0.332177
Si Si3 0.637393 0.556707 0.870663
Si Si4 0.654416 0.251948 0.029285
Si Si5 0.899302 0.850229 0.758615
Si Si6 0.969468 0.610158 0.468001
O O1 0.258086 0.533574 0.772522
O O2 0.285460 0.617633 0.635219
O O3 0.324714 0.701682 0.846400
O O4 0.099471 0.661975 0.574388
O O5 0.316361 0.558553 0.479034
O O6 0.362943 0.624992 0.337547
O O7 0.137916 0.617612 0.207643
O O8 0.500000 0.596388 0.750000
O O9 0.626755 0.449545 0.819055
O O10 0.798186 0.228153 0.131201
O O11 0.594123 0.148851 0.992061
O O12 0.541642 0.313943 0.883490
O O13 0.000000 0.500000 0.500000
#
# Coordination Sequence:
#
# PCOD9273291 Si02
#       6
#     8   8   8   8   8   8
#     4  10  20  37  64  89 122 164 206 260 312 368
#     4   9  20  39  63  90 123 163 209 254 310 375
#     4  11  22  39  62  92 124 163 215 254 310 379
#     4  11  19  38  64  93 125 162 209 260 316 377
#     4  10  22  38  66  92 126 170 204 259 319 366
#     4   9  19  37  62  88 119 165 206 253 317 372
#
# _framework density 22.611336999999999
#
# number of rings (size 3 to 8) (size 9 to 14) (size 15 to 20)
#    0.000    2.000    1.667    3.000    0.000    3.333 
#    0.000    6.667   11.000    0.000    0.000    0.000 
#    0.000    0.000    0.000    0.000    0.000    0.000 
#
# Total GULP energy -133873.995760 kJ/mol
# GULP energy per Si atom -5578.083157 kJ/mol
# Density = 2.255987 g / cm^3
# Si number density = 22.611337 Si / 1000 Ang^3
#
#
#
# Elastic Constant Matrix: (Units=GPa)
#
#
# Indices 1 2 3 4 5 6 
#
# 1 100.7772 -2.4540 74.4732 0.0000 24.2374 0.0000
# 2 -2.4540 68.4402 17.5986 0.0000 13.1642 0.0000
# 3 74.4732 17.5986 158.6561 0.0000 4.1110 0.0000
# 4 0.0000 0.0000 0.0000 32.2284 0.0000 0.8478
# 5 24.2374 13.1642 4.1110 0.0000 37.7227 0.0000
# 6 0.0000 0.0000 0.0000 0.8478 0.0000 5.2447
#
#
#
# Elastic Compliance Matrix: (Units=1/GPa)
#
#
# Indices 1 2 3 4 5 6 
#
# 1 0.021171 0.006213 -0.010247 0.000000 -0.014654 0.000000
# 2 0.006213 0.017902 -0.004650 0.000000 -0.009732 0.000000
# 3 -0.010247 -0.004650 0.011448 0.000000 0.006959 0.000000
# 4 0.000000 0.000000 0.000000 0.031161 0.000000 -0.005037
# 5 -0.014654 -0.009732 0.006959 0.000000 0.038563 0.000000
# 6 0.000000 0.000000 0.000000 -0.005037 0.000000 0.191484
#
#
# Mechanical properties :
#
#
# Convention : Reuss Voigt Hill
#
# Bulk Modulus (GPa) = 30.16350 56.34545 43.25448
# Shear Modulus (GPa) = 14.69949 30.92287 22.81118
#
# Velocity S-wave (km/s) = 2.55246 3.70210 3.17967
# Velocity P-wave (km/s) = 4.69635 6.57626 5.71415
#
# Compressibility (1/GPa) = 0.03315265
#
# Stress axis : x y z
#
# Youngs Moduli (GPa) = 47.23443 55.86085 87.34870
#
# Poissons Ratio (x) = -0.34704 0.89507
# Poissons Ratio (y) = -0.29345 0.40615
# Poissons Ratio (z) = 0.48402 0.25974
#
# Static dielectric constant tensor:
#      x y z
#    x 1.951520 0.000000 -0.039470 
#    y 0.000000 1.924290 0.000000 
#    z -0.039470 0.000000 1.911750 
# 
# From -- ./inp_files/162379.got.cif
#   From: 2010.05.17/outbox.cif.g08.bks.cpg/sg15_82_cif.got.tgz:162379.got - 2010.06.03 18:47:42.
