data_PCOD9273817
_publ_section_title
;
Structure prediction by ZEFSAII (Michael W. Deem and Ramdas Pophale) SiO2 
 PCOD9273817
Probable space group: C 2/C
;
_chemical_formula_sum "Si O2"
_cell_formula_units_Z 44
_cell_length_a 11.996103
_cell_length_b 9.776794
_cell_length_c 27.514911
_cell_angle_alpha 90.000000
_cell_angle_beta 44.869635
_cell_angle_gamma 90.000000
_cell_volume 2276.666220
_symmetry_space_group_name_H-M "C 2/C"
_symmetry_group_IT_number 15
_symmetry_cell_setting 'monoclinic'
loop_
_space_group_symop_operation_xyz
x,y,z
-x,y,1/2-z
-x,-y,-z
x,-y,1/2+z
1/2+x,1/2+y,z
1/2-x,1/2+y,1/2-z
1/2-x,1/2-y,-z
1/2+x,1/2-y,1/2+z
loop_
_atom_site_type_symbol
_atom_site_label
_atom_site_fract_x
_atom_site_fract_y
_atom_site_fract_z
Si Si1 0.203793 0.556193 0.040650
Si Si2 0.345936 0.820737 0.043641
Si Si3 0.581255 0.320185 0.543044
Si Si4 0.000000 0.766692 0.750000
Si Si5 0.825578 0.966649 0.314829
Si Si6 0.052471 0.643178 0.836019
O O1 0.238105 0.696601 0.057519
O O2 0.090125 0.459165 0.106628
O O3 0.122713 0.587761 0.013652
O O4 0.369988 0.477155 0.980003
O O5 0.494964 0.751148 0.024232
O O6 0.252667 0.908175 0.112473
O O7 0.750000 0.250000 0.500000
O O8 0.477043 0.279986 0.622183
O O9 0.950418 0.679960 0.719099
O O10 0.858900 0.871344 0.807976
O O11 0.710610 0.927332 0.306473
O O12 0.000000 0.907465 0.250000
#
# Coordination Sequence:
#
# PCOD9273817 Si02
#       6
#     8   8   8   4   8   8
#     4  10  21  35  60  94 118 148 197 249 305 358
#     4  10  20  38  59  88 123 153 192 249 305 351
#     4   9  19  35  58  85 119 150 192 240 300 361
#     4  10  22  42  58  80 122 158 206 248 292 344
#     4   9  22  41  60  82 119 163 202 244 295 355
#     4  10  21  39  60  88 111 163 202 242 305 354
#
# _framework density 19.326505000000001
#
# number of rings (size 3 to 8) (size 9 to 14) (size 15 to 20)
#    0.545    1.818    0.000    1.636    0.000   10.909 
#    8.182    3.636    0.000    0.000    0.000    0.000 
#    0.000    0.000    0.000    0.000    0.000    0.000 
#
# Total GULP energy -122706.893373 kJ/mol
# GULP energy per Si atom -5577.586062 kJ/mol
# Density = 1.928252 g / cm^3
# Si number density = 19.326505 Si / 1000 Ang^3
#
#
#
# Elastic Constant Matrix: (Units=GPa)
#
#
# Indices 1 2 3 4 5 6 
#
# 1 115.3894 17.7607 36.2612 0.0000 23.7428 0.0000
# 2 17.7607 67.0920 24.6948 0.0000 19.9356 0.0000
# 3 36.2612 24.6948 38.7259 0.0000 16.8095 0.0000
# 4 0.0000 0.0000 0.0000 -5.9444 0.0000 22.6115
# 5 23.7428 19.9356 16.8095 0.0000 37.1686 0.0000
# 6 0.0000 0.0000 0.0000 22.6115 0.0000 9.2903
#
#
#
# Elastic Compliance Matrix: (Units=1/GPa)
#
#
# Indices 1 2 3 4 5 6 
#
# 1 0.012816 0.002069 -0.011552 0.000000 -0.004072 0.000000
# 2 0.002069 0.020952 -0.012252 0.000000 -0.007019 0.000000
# 3 -0.011552 -0.012252 0.047776 0.000000 -0.007655 0.000000
# 4 0.000000 0.000000 0.000000 -0.016399 0.000000 0.039914
# 5 -0.004072 -0.007019 -0.007655 0.000000 0.036732 0.000000
# 6 0.000000 0.000000 0.000000 0.039914 0.000000 0.010493
#
#
# Mechanical properties :
#
#
# Convention : Reuss Voigt Hill
#
# Bulk Modulus (GPa) = 26.26476 42.07118 34.16797
# Shear Modulus (GPa) = 29.66802 17.60228 23.63515
#
# Velocity S-wave (km/s) = 3.92228 3.02119 3.50085
# Velocity P-wave (km/s) = 5.84225 5.82976 5.83601
#
# Compressibility (1/GPa) = 0.03807383
#
# Stress axis : x y z
#
# Youngs Moduli (GPa) = 78.02721 47.72739 20.93116
#
# Poissons Ratio (x) = -0.09877 0.24181
# Poissons Ratio (y) = -0.16148 0.25645
# Poissons Ratio (z) = 0.90141 0.58476
#
# Static dielectric constant tensor:
#      x y z
#    x 1.664230 0.000000 -0.002690 
#    y 0.000000 1.726470 0.000000 
#    z -0.002690 0.000000 1.667420 
# 
# From -- ./inp_files/291800.got.cif
#   From: 2010.05.17/outbox.cif.g08.bks.cpg/sg15_146_cif.got.tgz:291800.got - 2010.06.03 18:47:42.
