data_PCOD9273769
_publ_section_title
;
Structure prediction by ZEFSAII (Michael W. Deem and Ramdas Pophale) SiO2 
 PCOD9273769
Probable space group: C 2/C
;
_chemical_formula_sum "Si O2"
_cell_formula_units_Z 48
_cell_length_a 13.721398
_cell_length_b 29.159617
_cell_length_c 8.794772
_cell_angle_alpha 90.000000
_cell_angle_beta 50.135398
_cell_angle_gamma 90.000000
_cell_volume 2700.958007
_symmetry_space_group_name_H-M "C 2/C"
_symmetry_group_IT_number 15
_symmetry_cell_setting 'monoclinic'
loop_
_space_group_symop_operation_xyz
x,y,z
-x,y,1/2-z
-x,-y,-z
x,-y,1/2+z
1/2+x,1/2+y,z
1/2-x,1/2+y,1/2-z
1/2-x,1/2-y,-z
1/2+x,1/2-y,1/2+z
loop_
_atom_site_type_symbol
_atom_site_label
_atom_site_fract_x
_atom_site_fract_y
_atom_site_fract_z
Si Si1 0.851463 0.548150 0.581125
Si Si2 0.999992 0.803207 0.433366
Si Si3 0.500010 0.201572 0.931278
Si Si4 0.261678 0.146943 0.672126
Si Si5 0.148538 0.451850 0.784043
Si Si6 0.261694 0.853057 0.804522
O O1 0.776868 0.593765 0.702820
O O2 0.806037 0.500000 0.693967
O O3 0.847326 0.545161 0.402677
O O4 0.000001 0.554111 0.477113
O O5 0.999999 0.753648 0.509962
O O6 0.873287 0.831171 0.600955
O O7 0.000000 0.797031 0.250000
O O8 0.126685 0.831177 0.347565
O O9 0.500000 0.200428 0.750000
O O10 0.624046 0.175821 0.870734
O O11 0.375987 0.175816 0.118818
O O12 0.274981 0.148861 0.475030
O O13 0.223134 0.406235 0.756538
#
# Coordination Sequence:
#
# PCOD9273769 Si02
#       6
#     8   8   8   8   8   8
#     4   9  17  31  53  79 107 137 174 221 267 314
#     4  10  22  38  59  80 106 146 186 224 268 320
#     4  12  24  36  55  82 111 144 182 226 275 322
#     4  10  20  38  59  81 108 143 186 225 264 319
#     4   9  17  31  53  79 107 137 174 221 267 314
#     4  10  20  38  59  81 108 143 186 225 264 319
#
# _framework density 17.771470999999998
#
# number of rings (size 3 to 8) (size 9 to 14) (size 15 to 20)
#    0.000    2.000    1.667    2.500    0.000    6.667 
#    0.000    0.833    0.000    0.000    0.000    0.000 
#    0.000    0.000    0.000    0.000    0.000    0.000 
#
# Total GULP energy -133994.224039 kJ/mol
# GULP energy per Si atom -5583.092668 kJ/mol
# Density = 1.773102 g / cm^3
# Si number density = 17.771471 Si / 1000 Ang^3
#
#
#
# Elastic Constant Matrix: (Units=GPa)
#
#
# Indices 1 2 3 4 5 6 
#
# 1 71.2876 81.2464 63.9260 0.0000 -33.6646 0.0000
# 2 81.2464 221.3047 77.4240 0.0000 -27.4511 0.0000
# 3 63.9260 77.4240 62.3116 0.0000 -31.2330 0.0000
# 4 0.0000 0.0000 0.0000 12.7227 0.0000 19.3986
# 5 -33.6646 -27.4511 -31.2330 0.0000 18.9934 0.0000
# 6 0.0000 0.0000 0.0000 19.3986 0.0000 10.0751
#
#
#
# Elastic Compliance Matrix: (Units=1/GPa)
#
#
# Indices 1 2 3 4 5 6 
#
# 1 0.232860 -0.019756 -0.123933 0.000000 0.180380 0.000000
# 2 -0.019756 0.013241 -0.023578 0.000000 -0.054651 0.000000
# 3 -0.123933 -0.023578 0.257771 0.000000 0.170142 0.000000
# 4 0.000000 0.000000 0.000000 -0.040605 0.000000 0.078182
# 5 0.180380 -0.054651 0.170142 0.000000 0.573160 0.000000
# 6 0.000000 0.000000 0.000000 0.078182 0.000000 -0.051276
#
#
# Mechanical properties :
#
#
# Convention : Reuss Voigt Hill
#
# Bulk Modulus (GPa) = 5.90532 88.89964 47.40248
# Shear Modulus (GPa) = 3.63338 17.17872 10.40605
#
# Velocity S-wave (km/s) = 1.43141 3.11247 2.42243
# Velocity P-wave (km/s) = 2.46212 7.94034 5.87839
#
# Compressibility (1/GPa) = 0.16933875
#
# Stress axis : x y z
#
# Youngs Moduli (GPa) = 4.29443 75.52034 3.87941
#
# Poissons Ratio (x) = 1.49196 0.48079
# Poissons Ratio (y) = 0.08484 0.09147
# Poissons Ratio (z) = 0.53222 1.78064
#
# Static dielectric constant tensor:
#      x y z
#    x 1.590890 0.000000 0.010130 
#    y 0.000000 1.597740 0.000000 
#    z 0.010130 0.000000 1.592280 
# 
# From -- ./inp_files/43797.got.cif
#   From: 2010.05.17/outbox.cif.g08.bks.cpg/sg15_22_cif.got.tgz:43797.got - 2010.06.03 18:47:42.
