data_PCOD9273531
_publ_section_title
;
Structure prediction by ZEFSAII (Michael W. Deem and Ramdas Pophale) SiO2 
 PCOD9273531
Probable space group: C 2/C
;
_chemical_formula_sum "Si O2"
_cell_formula_units_Z 56
_cell_length_a 8.371733
_cell_length_b 17.141257
_cell_length_c 20.760205
_cell_angle_alpha 90.000000
_cell_angle_beta 66.342672
_cell_angle_gamma 90.000000
_cell_volume 2728.770340
_symmetry_space_group_name_H-M "C 2/C"
_symmetry_group_IT_number 15
_symmetry_cell_setting 'monoclinic'
loop_
_space_group_symop_operation_xyz
x,y,z
-x,y,1/2-z
-x,-y,-z
x,-y,1/2+z
1/2+x,1/2+y,z
1/2-x,1/2+y,1/2-z
1/2-x,1/2-y,-z
1/2+x,1/2-y,1/2+z
loop_
_atom_site_type_symbol
_atom_site_label
_atom_site_fract_x
_atom_site_fract_y
_atom_site_fract_z
Si Si1 0.665655 0.271401 0.772579
Si Si2 0.099705 0.216501 0.570930
Si Si3 0.883858 0.636321 0.145712
Si Si4 0.785666 0.852808 0.058618
Si Si5 0.889276 0.190518 0.398794
Si Si6 0.494063 0.020468 0.579135
Si Si7 0.316524 0.372892 0.312772
O O1 0.500000 0.273273 0.750000
O O2 0.816151 0.328255 0.723081
O O3 0.591285 0.307082 0.850376
O O4 0.729032 0.183399 0.773087
O O5 0.250000 0.250000 0.500000
O O6 0.152369 0.185301 0.632119
O O7 0.983871 0.293065 0.596764
O O8 0.970503 0.148587 0.565208
O O9 0.709649 0.629050 0.130362
O O10 0.993483 0.559231 0.119663
O O11 0.673071 0.779876 0.103810
O O12 0.659591 0.926571 0.072041
O O13 0.839986 0.829297 0.978225
O O14 0.319848 0.065351 0.633890
O O15 0.500000 0.000000 0.500000
O O16 0.500000 0.400740 0.250000
#
# Coordination Sequence:
#
# PCOD9273531 Si02
#       7
#     8   8   8   8   8   8   8
#     4  10  20  39  69  93 128 178 233 276 334 430
#     4  11  23  41  69  99 134 178 234 286 340 424
#     4  10  21  38  65  95 129 170 226 278 344 398
#     4  10  20  37  67  94 129 183 231 269 345 418
#     4   9  17  34  64  96 119 172 236 275 314 418
#     4  12  24  43  68 100 141 180 230 296 356 419
#     4  12  25  42  69 100 140 175 227 292 360 411
#
# _framework density 20.522064
#
# number of rings (size 3 to 8) (size 9 to 14) (size 15 to 20)
#    0.000    1.429    4.286    1.714    2.000    1.714 
#    0.000    2.857    9.429    0.000    0.000    0.000 
#    0.000    0.000    0.000    0.000    0.000    0.000 
#
# Total GULP energy -155921.126959 kJ/mol
# GULP energy per Si atom -5568.611677 kJ/mol
# Density = 2.047536 g / cm^3
# Si number density = 20.522064 Si / 1000 Ang^3
#
#
#
# Elastic Constant Matrix: (Units=GPa)
#
#
# Indices 1 2 3 4 5 6 
#
# 1 70.5377 38.3808 27.5407 0.0000 -10.4782 0.0000
# 2 38.3808 103.7228 39.7869 0.0000 -11.5161 0.0000
# 3 27.5407 39.7869 141.8136 0.0000 -42.3275 0.0000
# 4 0.0000 0.0000 0.0000 29.8020 0.0000 6.5791
# 5 -10.4782 -11.5161 -42.3275 0.0000 32.6227 0.0000
# 6 0.0000 0.0000 0.0000 6.5791 0.0000 -15.6566
#
#
#
# Elastic Compliance Matrix: (Units=1/GPa)
#
#
# Indices 1 2 3 4 5 6 
#
# 1 0.018263 -0.006057 -0.001199 0.000000 0.002172 0.000000
# 2 -0.006057 0.012813 -0.002692 0.000000 -0.000914 0.000000
# 3 -0.001199 -0.002692 0.012470 0.000000 0.014845 0.000000
# 4 0.000000 0.000000 0.000000 0.030706 0.000000 0.012903
# 5 0.002172 -0.000914 0.014845 0.000000 0.050289 0.000000
# 6 0.000000 0.000000 0.000000 0.012903 0.000000 -0.058449
#
#
# Mechanical properties :
#
#
# Convention : Reuss Voigt Hill
#
# Bulk Modulus (GPa) = 42.28049 58.61009 50.44529
# Shear Modulus (GPa) = 53.26373 23.37800 38.32087
#
# Velocity S-wave (km/s) = 5.10007 3.37881 4.32592
# Velocity P-wave (km/s) = 7.43829 6.62143 7.04172
#
# Compressibility (1/GPa) = 0.02365157
#
# Stress axis : x y z
#
# Youngs Moduli (GPa) = 54.75448 78.04431 80.19077
#
# Poissons Ratio (x) = 0.47270 0.09617
# Poissons Ratio (y) = 0.33164 0.21583
# Poissons Ratio (z) = 0.06566 0.21006
#
# Static dielectric constant tensor:
#      x y z
#    x 1.818770 0.000000 -0.093620 
#    y 0.000000 1.752770 0.000000 
#    z -0.093620 0.000000 1.463480 
# 
# From -- ./inp_files/264576.got.cif
#   From: 2010.05.17/outbox.cif.g08.bks.cpg/sg15_133_cif.got.tgz:264576.got - 2010.06.03 18:47:42.
