data_PCOD9273943
_publ_section_title
;
Structure prediction by ZEFSAII (Michael W. Deem and Ramdas Pophale) SiO2 
 PCOD9273943
Probable space group: C 2/C
;
_chemical_formula_sum "Si O2"
_cell_formula_units_Z 40
_cell_length_a 5.045363
_cell_length_b 14.388225
_cell_length_c 22.654516
_cell_angle_alpha 90.000000
_cell_angle_beta 98.806635
_cell_angle_gamma 90.000000
_cell_volume 1625.189323
_symmetry_space_group_name_H-M "C 2/C"
_symmetry_group_IT_number 15
_symmetry_cell_setting 'monoclinic'
loop_
_space_group_symop_operation_xyz
x,y,z
-x,y,1/2-z
-x,-y,-z
x,-y,1/2+z
1/2+x,1/2+y,z
1/2-x,1/2+y,1/2-z
1/2-x,1/2-y,-z
1/2+x,1/2-y,1/2+z
loop_
_atom_site_type_symbol
_atom_site_label
_atom_site_fract_x
_atom_site_fract_y
_atom_site_fract_z
Si Si1 0.860167 0.395745 0.189252
Si Si2 0.975682 0.112798 0.495214
Si Si3 0.728200 0.813964 0.712013
Si Si4 0.914431 0.615830 0.422025
Si Si5 0.814360 0.083038 0.613048
O O1 0.748703 0.297626 0.208174
O O2 0.597579 0.444773 0.153144
O O3 0.000000 0.444399 0.250000
O O4 0.099325 0.374636 0.150964
O O5 0.722961 0.132774 0.445486
O O6 0.908019 0.142865 0.559683
O O7 0.238529 0.149386 0.471609
O O8 0.000000 0.000000 0.500000
O O9 0.500000 0.838406 0.750000
O O10 0.674868 0.846872 0.644119
O O11 0.000000 0.850521 0.750000
O O12 0.850177 0.505848 0.415836
#
# Coordination Sequence:
#
# PCOD9273943 Si02
#       5
#     8   8   8   8   8
#     4  11  23  40  59  84 120 158 192 239 297 344
#     4  10  20  38  60  89 122 153 185 240 303 342
#     4  11  24  43  60  83 121 161 192 238 299 348
#     4  11  22  39  63  89 117 154 197 240 286 349
#     4  11  21  38  63  89 115 152 198 241 284 347
#
# _framework density 24.612517
#
# number of rings (size 3 to 8) (size 9 to 14) (size 15 to 20)
#    0.000    1.200    0.000   10.200    0.000    2.400 
#    0.000    6.000    0.000    0.000    0.000    0.000 
#    0.000    0.000    0.000    0.000    0.000    0.000 
#
# Total GULP energy -111973.219170 kJ/mol
# GULP energy per Si atom -5598.660959 kJ/mol
# Density = 2.455650 g / cm^3
# Si number density = 24.612517 Si / 1000 Ang^3
#
#
#
# Elastic Constant Matrix: (Units=GPa)
#
#
# Indices 1 2 3 4 5 6 
#
# 1 134.4009 2.2006 17.0902 0.0000 -9.9880 0.0000
# 2 2.2006 44.8230 10.3860 0.0000 -14.8900 0.0000
# 3 17.0902 10.3860 92.6858 0.0000 -4.3658 0.0000
# 4 0.0000 0.0000 0.0000 12.7816 0.0000 -45.4210
# 5 -9.9880 -14.8900 -4.3658 0.0000 58.2442 0.0000
# 6 0.0000 0.0000 0.0000 -45.4210 0.0000 -100.4829
#
#
#
# Elastic Compliance Matrix: (Units=1/GPa)
#
#
# Indices 1 2 3 4 5 6 
#
# 1 0.007710 0.000383 -0.001403 0.000000 0.001315 0.000000
# 2 0.000383 0.024965 -0.002574 0.000000 0.006255 0.000000
# 3 -0.001403 -0.002574 0.011334 0.000000 -0.000049 0.000000
# 4 0.000000 0.000000 0.000000 0.030018 0.000000 -0.013569
# 5 0.001315 0.006255 -0.000049 0.000000 0.018990 0.000000
# 6 0.000000 0.000000 0.000000 -0.013569 0.000000 -0.003818
#
#
# Mechanical properties :
#
#
# Convention : Reuss Voigt Hill
#
# Bulk Modulus (GPa) = 27.15643 36.80702 31.98172
# Shear Modulus (GPa) = 46.01518 10.25743 28.13631
#
# Velocity S-wave (km/s) = 4.32856 2.04368 3.38475
# Velocity P-wave (km/s) = 6.00329 4.53386 5.31955
#
# Compressibility (1/GPa) = 0.03682370
#
# Stress axis : x y z
#
# Youngs Moduli (GPa) = 129.69759 40.05542 88.23118
#
# Poissons Ratio (x) = -0.01535 0.12376
# Poissons Ratio (y) = -0.04972 0.22707
# Poissons Ratio (z) = 0.18193 0.10308
#
# Static dielectric constant tensor:
#      x y z
#    x 1.903180 0.000000 -0.032720 
#    y 0.000000 2.000600 0.000000 
#    z -0.032720 0.000000 1.995220 
# 
# From -- ./inp_files/184754.got.cif
#   From: 2010.05.17/outbox.cif.g08.bks.cpg/sg15_93_cif.got.tgz:184754.got - 2010.06.03 18:47:42.
