data_PCOD9273699
_publ_section_title
;
Structure prediction by ZEFSAII (Michael W. Deem and Ramdas Pophale) SiO2 
 PCOD9273699
Probable space group: C 2/C
;
_chemical_formula_sum "Si O2"
_cell_formula_units_Z 36
_cell_length_a 15.000524
_cell_length_b 8.237687
_cell_length_c 14.660869
_cell_angle_alpha 90.000000
_cell_angle_beta 93.324291
_cell_angle_gamma 90.000000
_cell_volume 1808.589631
_symmetry_space_group_name_H-M "C 2/C"
_symmetry_group_IT_number 15
_symmetry_cell_setting 'monoclinic'
loop_
_space_group_symop_operation_xyz
x,y,z
-x,y,1/2-z
-x,-y,-z
x,-y,1/2+z
1/2+x,1/2+y,z
1/2-x,1/2+y,1/2-z
1/2-x,1/2-y,-z
1/2+x,1/2-y,1/2+z
loop_
_atom_site_type_symbol
_atom_site_label
_atom_site_fract_x
_atom_site_fract_y
_atom_site_fract_z
Si Si1 0.912942 0.587635 0.126218
Si Si2 0.101662 0.453785 0.178739
Si Si3 0.000000 0.841525 0.750000
Si Si4 0.428138 0.465026 0.073516
Si Si5 0.267078 0.939937 0.478700
O O1 0.888043 0.566570 0.231387
O O2 0.922102 0.773900 0.096674
O O3 0.010431 0.507624 0.122743
O O4 0.836834 0.504548 0.060148
O O5 0.183266 0.454793 0.114969
O O6 0.077265 0.275755 0.214950
O O7 0.040927 0.945516 0.833504
O O8 0.330157 0.518947 0.033217
O O9 0.500000 0.500000 0.000000
O O10 0.250000 0.750000 0.500000
#
# Coordination Sequence:
#
# PCOD9273699 Si02
#       5
#     8   8   4   8   8
#     4   9  20  40  60  84 117 155 193 235 290 354
#     4  10  21  39  62  85 114 156 193 235 289 352
#     4  10  20  38  58  84 116 148 194 246 290 336
#     4  11  23  38  58  86 118 153 191 245 293 335
#     4  10  21  37  60  86 116 151 191 237 287 342
#
# _framework density 19.905013
#
# number of rings (size 3 to 8) (size 9 to 14) (size 15 to 20)
#    0.000    2.222    0.000    4.667    0.000    7.111 
#    0.000   10.000    0.000    0.000    0.000    0.000 
#    0.000    0.000    0.000    0.000    0.000    0.000 
#
# Total GULP energy -100504.361611 kJ/mol
# GULP energy per Si atom -5583.575645 kJ/mol
# Density = 1.985971 g / cm^3
# Si number density = 19.905013 Si / 1000 Ang^3
#
#
#
# Elastic Constant Matrix: (Units=GPa)
#
#
# Indices 1 2 3 4 5 6 
#
# 1 174.7484 34.8131 107.8653 0.0000 -11.3719 0.0000
# 2 34.8131 61.4801 41.2242 0.0000 8.0772 0.0000
# 3 107.8653 41.2242 135.0694 0.0000 6.9432 0.0000
# 4 0.0000 0.0000 0.0000 17.8994 0.0000 0.9397
# 5 -11.3719 8.0772 6.9432 0.0000 38.4535 0.0000
# 6 0.0000 0.0000 0.0000 0.9397 0.0000 17.1232
#
#
#
# Elastic Compliance Matrix: (Units=1/GPa)
#
#
# Indices 1 2 3 4 5 6 
#
# 1 0.012397 -0.001173 -0.009834 0.000000 0.005688 0.000000
# 2 -0.001173 0.020959 -0.005265 0.000000 -0.003799 0.000000
# 3 -0.009834 -0.005265 0.017116 0.000000 -0.004893 0.000000
# 4 0.000000 0.000000 0.000000 0.056029 0.000000 -0.003075
# 5 0.005688 -0.003799 -0.004893 0.000000 0.029369 0.000000
# 6 0.000000 0.000000 0.000000 -0.003075 0.000000 0.058569
#
#
# Mechanical properties :
#
#
# Convention : Reuss Voigt Hill
#
# Bulk Modulus (GPa) = 55.78159 82.12256 68.95207
# Shear Modulus (GPa) = 21.46306 27.18823 24.32564
#
# Velocity S-wave (km/s) = 3.28727 3.69982 3.49963
# Velocity P-wave (km/s) = 6.51866 7.71999 7.14462
#
# Compressibility (1/GPa) = 0.01792706
#
# Stress axis : x y z
#
# Youngs Moduli (GPa) = 80.66704 47.71244 58.42608
#
# Poissons Ratio (x) = 0.05595 0.57458
# Poissons Ratio (y) = 0.09460 0.30761
# Poissons Ratio (z) = 0.79331 0.25121
#
# Static dielectric constant tensor:
#      x y z
#    x 1.706420 0.000000 0.033230 
#    y 0.000000 1.710320 0.000000 
#    z 0.033230 0.000000 1.696810 
# 
# From -- ./inp_files/150262.got.cif
#   From: 2010.05.17/outbox.cif.g08.bks.cpg/sg15_76_cif.got.tgz:150262.got - 2010.06.03 18:47:42.
