data_PCOD9273455
_publ_section_title
;
Structure prediction by ZEFSAII (Michael W. Deem and Ramdas Pophale) SiO2 
 PCOD9273455
Probable space group: C 2/C
;
_chemical_formula_sum "Si O2"
_cell_formula_units_Z 52
_cell_length_a 15.373013
_cell_length_b 5.880648
_cell_length_c 25.439398
_cell_angle_alpha 90.000000
_cell_angle_beta 87.193135
_cell_angle_gamma 90.000000
_cell_volume 2297.045845
_symmetry_space_group_name_H-M "C 2/C"
_symmetry_group_IT_number 15
_symmetry_cell_setting 'monoclinic'
loop_
_space_group_symop_operation_xyz
x,y,z
-x,y,1/2-z
-x,-y,-z
x,-y,1/2+z
1/2+x,1/2+y,z
1/2-x,1/2+y,1/2-z
1/2-x,1/2-y,-z
1/2+x,1/2-y,1/2+z
loop_
_atom_site_type_symbol
_atom_site_label
_atom_site_fract_x
_atom_site_fract_y
_atom_site_fract_z
Si Si1 0.840097 0.189072 0.199031
Si Si2 0.951457 0.248780 0.509669
Si Si3 0.576115 0.847185 0.670320
Si Si4 0.436354 0.574409 0.623542
Si Si5 0.500000 0.818115 0.250000
Si Si6 0.285215 0.458892 0.814707
Si Si7 0.104288 0.263692 0.097849
O O1 0.940473 0.181533 0.212999
O O2 0.809215 0.429938 0.177923
O O3 0.845368 0.015938 0.150353
O O4 0.791561 0.142394 0.255573
O O5 0.921977 0.217370 0.570621
O O6 0.880960 0.246262 0.464608
O O7 0.000000 0.500000 0.500000
O O8 0.000000 0.000000 0.500000
O O9 0.483322 0.733926 0.664562
O O10 0.648988 0.673786 0.685632
O O11 0.566253 0.034271 0.714889
O O12 0.594368 0.974796 0.615328
O O13 0.512704 0.379091 0.609917
O O14 0.322717 0.324034 0.863476
#
# Coordination Sequence:
#
# PCOD9273455 Si02
#       7
#     8   8   8   8   4   8   8
#     4  12  23  41  58  91 126 170 219 269 340 410
#     4  10  20  37  66 101 131 169 227 286 341 397
#     4  11  19  37  61  87 122 163 207 275 337 393
#     4  10  21  37  63  94 124 163 226 278 324 401
#     4  12  20  36  64  86 120 158 224 274 324 396
#     4  11  25  39  57  89 132 172 212 269 345 421
#     4  10  20  39  62  93 124 170 212 275 338 398
#
# _framework density 22.637772999999999
#
# number of rings (size 3 to 8) (size 9 to 14) (size 15 to 20)
#    0.000    1.231    4.615    2.769    0.000    0.000 
#    0.000    0.769    0.000    0.923    0.000    0.000 
#    0.000    0.000    0.000    0.000    0.000    0.000 
#
# Total GULP energy -144816.067035 kJ/mol
# GULP energy per Si atom -5569.848732 kJ/mol
# Density = 2.258625 g / cm^3
# Si number density = 22.637773 Si / 1000 Ang^3
#
#
#
# Elastic Constant Matrix: (Units=GPa)
#
#
# Indices 1 2 3 4 5 6 
#
# 1 51.1374 19.9596 31.0216 0.0000 19.9052 0.0000
# 2 19.9596 82.1801 23.1323 0.0000 12.3461 0.0000
# 3 31.0216 23.1323 119.4717 0.0000 22.5528 0.0000
# 4 0.0000 0.0000 0.0000 26.0901 0.0000 5.3401
# 5 19.9052 12.3461 22.5528 0.0000 12.9005 0.0000
# 6 0.0000 0.0000 0.0000 5.3401 0.0000 34.0430
#
#
#
# Elastic Compliance Matrix: (Units=1/GPa)
#
#
# Indices 1 2 3 4 5 6 
#
# 1 0.049427 -0.000691 0.002346 0.000000 -0.079705 0.000000
# 2 -0.000691 0.014227 -0.000308 0.000000 -0.012012 0.000000
# 3 0.002346 -0.000308 0.012610 0.000000 -0.025369 0.000000
# 4 0.000000 0.000000 0.000000 0.039600 0.000000 -0.006212
# 5 -0.079705 -0.012012 -0.025369 0.000000 0.256346 0.000000
# 6 0.000000 0.000000 0.000000 -0.006212 0.000000 0.030349
#
#
# Mechanical properties :
#
#
# Convention : Reuss Voigt Hill
#
# Bulk Modulus (GPa) = 12.66493 44.55734 28.61114
# Shear Modulus (GPa) = 11.73201 26.51843 19.12522
#
# Velocity S-wave (km/s) = 2.27898 3.42632 2.90976
# Velocity P-wave (km/s) = 3.54002 5.94797 4.89439
#
# Compressibility (1/GPa) = 0.07895819
#
# Stress axis : x y z
#
# Youngs Moduli (GPa) = 20.23195 70.28680 79.30420
#
# Poissons Ratio (x) = 0.04854 -0.18602
# Poissons Ratio (y) = 0.01397 0.02441
# Poissons Ratio (z) = -0.04746 0.02164
#
# Static dielectric constant tensor:
#      x y z
#    x 1.918250 0.000000 -0.051630 
#    y 0.000000 1.970930 0.000000 
#    z -0.051630 0.000000 1.897020 
# 
# From -- ./inp_files/297491.got.cif
#   From: 2010.05.17/outbox.cif.g08.bks.cpg/sg15_149_cif.got.tgz:297491.got - 2010.06.03 18:47:42.
