data_PCOD9273792
_publ_section_title
;
Structure prediction by ZEFSAII (Michael W. Deem and Ramdas Pophale) SiO2 
 PCOD9273792
Probable space group: C 2/C
;
_chemical_formula_sum "Si O2"
_cell_formula_units_Z 40
_cell_length_a 5.248938
_cell_length_b 29.492535
_cell_length_c 17.553804
_cell_angle_alpha 90.000000
_cell_angle_beta 128.635968
_cell_angle_gamma 90.000000
_cell_volume 2122.645017
_symmetry_space_group_name_H-M "C 2/C"
_symmetry_group_IT_number 15
_symmetry_cell_setting 'monoclinic'
loop_
_space_group_symop_operation_xyz
x,y,z
-x,y,1/2-z
-x,-y,-z
x,-y,1/2+z
1/2+x,1/2+y,z
1/2-x,1/2+y,1/2-z
1/2-x,1/2-y,-z
1/2+x,1/2-y,1/2+z
loop_
_atom_site_type_symbol
_atom_site_label
_atom_site_fract_x
_atom_site_fract_y
_atom_site_fract_z
Si Si1 0.693541 0.303281 0.990573
Si Si2 0.393527 0.037986 0.817841
Si Si3 0.804315 0.369145 0.362868
Si Si4 0.107854 0.437944 0.682378
Si Si5 0.116401 0.352704 0.955869
O O1 0.336915 0.318384 0.949331
O O2 0.800003 0.326846 0.930821
O O3 0.750000 0.250000 0.000000
O O4 0.945844 0.327462 0.096177
O O5 0.500000 0.043419 0.750000
O O6 0.485428 0.083107 0.880879
O O7 0.000000 0.036714 0.750000
O O8 0.506889 0.988248 0.865579
O O9 0.500000 0.365057 0.250000
O O10 0.701265 0.367699 0.432114
O O11 0.500000 0.436424 0.750000
O O12 0.000000 0.433502 0.750000
O O13 0.966853 0.396999 0.607282
#
# Coordination Sequence:
#
# PCOD9273792 Si02
#       5
#     8   8   8   8   8
#     4  10  22  40  60  82 119 147 190 255 297 339
#     4   9  19  33  55  85 121 156 193 237 279 345
#     4   9  22  36  62  86 118 154 194 237 293 349
#     4  10  20  38  59  84 123 161 196 237 288 345
#     4  10  22  37  63  85 113 156 189 249 286 354
#
# _framework density 18.844414
#
# number of rings (size 3 to 8) (size 9 to 14) (size 15 to 20)
#    1.200    1.200    0.000    1.800    5.600    0.800 
#    0.000    4.000    4.400    0.000    0.000    0.000 
#    0.000    0.000    0.000    0.000    0.000    0.000 
#
# Total GULP energy -111357.155915 kJ/mol
# GULP energy per Si atom -5567.857796 kJ/mol
# Density = 1.880152 g / cm^3
# Si number density = 18.844414 Si / 1000 Ang^3
#
#
#
# Elastic Constant Matrix: (Units=GPa)
#
#
# Indices 1 2 3 4 5 6 
#
# 1 134.9631 37.6547 13.6073 0.0000 -22.4046 0.0000
# 2 37.6547 179.2880 36.5145 0.0000 -22.0947 0.0000
# 3 13.6073 36.5145 36.3680 0.0000 -6.6090 0.0000
# 4 0.0000 0.0000 0.0000 33.6068 0.0000 -1.3072
# 5 -22.4046 -22.0947 -6.6090 0.0000 13.4897 0.0000
# 6 0.0000 0.0000 0.0000 -1.3072 0.0000 33.8947
#
#
#
# Elastic Compliance Matrix: (Units=1/GPa)
#
#
# Indices 1 2 3 4 5 6 
#
# 1 0.010253 0.000090 -0.000884 0.000000 0.016743 0.000000
# 2 0.000090 0.008119 -0.006303 0.000000 0.010360 0.000000
# 3 -0.000884 -0.006303 0.035142 0.000000 0.005425 0.000000
# 4 0.000000 0.000000 0.000000 0.029801 0.000000 0.001149
# 5 0.016743 0.010360 0.005425 0.000000 0.121565 0.000000
# 6 0.000000 0.000000 0.000000 0.001149 0.000000 0.029547
#
#
# Mechanical properties :
#
#
# Convention : Reuss Voigt Hill
#
# Bulk Modulus (GPa) = 25.43232 58.46356 41.94794
# Shear Modulus (GPa) = 19.10388 33.72107 26.41247
#
# Velocity S-wave (km/s) = 3.18743 4.23477 3.74787
# Velocity P-wave (km/s) = 5.20303 7.41639 6.40602
#
# Compressibility (1/GPa) = 0.03932004
#
# Stress axis : x y z
#
# Youngs Moduli (GPa) = 97.53357 123.16691 28.45634
#
# Poissons Ratio (x) = -0.01109 0.02515
# Poissons Ratio (y) = -0.00878 0.17936
# Poissons Ratio (z) = 0.08621 0.77630
#
# Static dielectric constant tensor:
#      x y z
#    x 1.676860 0.000000 0.010130 
#    y 0.000000 1.662130 0.000000 
#    z 0.010130 0.000000 1.638000 
# 
# From -- ./inp_files/186431.got.cif
#   From: 2010.05.17/outbox.cif.g08.bks.cpg/sg15_94_cif.got.tgz:186431.got - 2010.06.03 18:47:42.
