data_PCOD9273219
_publ_section_title
;
Structure prediction by ZEFSAII (Michael W. Deem and Ramdas Pophale) SiO2 
 PCOD9273219
Probable space group: C 2/C
;
_chemical_formula_sum "Si O2"
_cell_formula_units_Z 48
_cell_length_a 8.216020
_cell_length_b 17.408140
_cell_length_c 15.998829
_cell_angle_alpha 90.000000
_cell_angle_beta 76.323772
_cell_angle_gamma 90.000000
_cell_volume 2223.364686
_symmetry_space_group_name_H-M "C 2/C"
_symmetry_group_IT_number 15
_symmetry_cell_setting 'monoclinic'
loop_
_space_group_symop_operation_xyz
x,y,z
-x,y,1/2-z
-x,-y,-z
x,-y,1/2+z
1/2+x,1/2+y,z
1/2-x,1/2+y,1/2-z
1/2-x,1/2-y,-z
1/2+x,1/2-y,1/2+z
loop_
_atom_site_type_symbol
_atom_site_label
_atom_site_fract_x
_atom_site_fract_y
_atom_site_fract_z
Si Si1 0.380805 0.894649 0.074377
Si Si2 0.130791 0.349772 0.168233
Si Si3 0.388169 0.066802 0.099481
Si Si4 0.601575 0.304222 0.043088
Si Si5 0.114150 0.075464 0.987608
Si Si6 0.132234 0.281609 0.808959
O O1 0.510852 0.836325 0.102140
O O2 0.192386 0.863513 0.095765
O O3 0.397305 0.976727 0.118194
O O4 0.441619 0.911179 0.971739
O O5 0.280596 0.402251 0.110103
O O6 0.207766 0.275142 0.206503
O O7 0.000000 0.385130 0.250000
O O8 0.345698 0.127735 0.176656
O O9 0.245567 0.071753 0.046007
O O10 0.514018 0.354584 0.983745
O O11 0.463417 0.250540 0.098924
O O12 0.750000 0.250000 0.000000
O O13 0.000000 0.000000 0.000000
O O14 0.000000 0.270328 0.750000
#
# Coordination Sequence:
#
# PCOD9273219 Si02
#       6
#     8   8   8   8   8   8
#     4  10  20  37  63  92 124 164 208 256 321 386
#     4  10  23  40  65  88 129 171 211 264 328 386
#     4  10  21  38  61  93 126 161 210 265 315 381
#     4  11  21  35  64  93 124 162 208 262 318 375
#     4  10  21  39  65  97 129 165 216 270 317 388
#     4  11  24  41  61  89 128 167 216 266 320 384
#
# _framework density 21.588899999999999
#
# number of rings (size 3 to 8) (size 9 to 14) (size 15 to 20)
#    0.000    1.667    3.333    1.000    2.333    2.667 
#    0.000    0.000    0.000    0.000    0.000    0.000 
#    0.000    0.000    0.000    0.000    0.000    0.000 
#
# Total GULP energy -133703.694507 kJ/mol
# GULP energy per Si atom -5570.987271 kJ/mol
# Density = 2.153976 g / cm^3
# Si number density = 21.588900 Si / 1000 Ang^3
#
#
#
# Elastic Constant Matrix: (Units=GPa)
#
#
# Indices 1 2 3 4 5 6 
#
# 1 87.7122 26.3710 6.3944 0.0000 1.7398 0.0000
# 2 26.3710 118.0590 21.6255 0.0000 5.9761 0.0000
# 3 6.3944 21.6255 39.3279 0.0000 4.7219 0.0000
# 4 0.0000 0.0000 0.0000 16.4348 0.0000 14.1509
# 5 1.7398 5.9761 4.7219 0.0000 34.0438 0.0000
# 6 0.0000 0.0000 0.0000 14.1509 0.0000 37.8730
#
#
#
# Elastic Compliance Matrix: (Units=1/GPa)
#
#
# Indices 1 2 3 4 5 6 
#
# 1 0.012232 -0.002630 -0.000532 0.000000 -0.000090 0.000000
# 2 -0.002630 0.010015 -0.004967 0.000000 -0.000935 0.000000
# 3 -0.000532 -0.004967 0.028614 0.000000 -0.003070 0.000000
# 4 0.000000 0.000000 0.000000 0.089707 0.000000 -0.033518
# 5 -0.000090 -0.000935 -0.003070 0.000000 0.029968 0.000000
# 6 0.000000 0.000000 0.000000 -0.033518 0.000000 0.038928
#
#
# Mechanical properties :
#
#
# Convention : Reuss Voigt Hill
#
# Bulk Modulus (GPa) = 28.89976 39.32013 34.10995
# Shear Modulus (GPa) = 21.07422 30.38419 25.72921
#
# Velocity S-wave (km/s) = 3.12775 3.75560 3.45596
# Velocity P-wave (km/s) = 5.14385 6.08759 5.63551
#
# Compressibility (1/GPa) = 0.03460236
#
# Stress axis : x y z
#
# Youngs Moduli (GPa) = 81.75072 99.84949 34.94847
#
# Poissons Ratio (x) = 0.26265 0.01858
# Poissons Ratio (y) = 0.21504 0.17359
# Poissons Ratio (z) = 0.04347 0.49597
#
# Static dielectric constant tensor:
#      x y z
#    x 1.856980 0.000000 0.012840 
#    y 0.000000 1.878310 0.000000 
#    z 0.012840 0.000000 1.831540 
# 
# From -- ./inp_files/134836.got.cif
#   From: 2010.05.17/outbox.cif.g08.bks.cpg/sg15_68_cif.got.tgz:134836.got - 2010.06.03 18:47:42.
