data_PCOD9273628
_publ_section_title
;
Structure prediction by ZEFSAII (Michael W. Deem and Ramdas Pophale) SiO2 
 PCOD9273628
Probable space group: C 2/C
;
_chemical_formula_sum "Si O2"
_cell_formula_units_Z 44
_cell_length_a 5.415895
_cell_length_b 14.463164
_cell_length_c 23.453670
_cell_angle_alpha 90.000000
_cell_angle_beta 103.737967
_cell_angle_gamma 90.000000
_cell_volume 1784.591681
_symmetry_space_group_name_H-M "C 2/C"
_symmetry_group_IT_number 15
_symmetry_cell_setting 'monoclinic'
loop_
_space_group_symop_operation_xyz
x,y,z
-x,y,1/2-z
-x,-y,-z
x,-y,1/2+z
1/2+x,1/2+y,z
1/2-x,1/2+y,1/2-z
1/2-x,1/2-y,-z
1/2+x,1/2-y,1/2+z
loop_
_atom_site_type_symbol
_atom_site_label
_atom_site_fract_x
_atom_site_fract_y
_atom_site_fract_z
Si Si1 0.910186 0.742489 0.426736
Si Si2 0.551307 0.721593 0.819364
Si Si3 0.044725 0.854570 0.690301
Si Si4 0.450179 0.852015 0.461152
Si Si5 0.000000 0.492961 0.750000
Si Si6 0.770763 0.468686 0.354134
O O1 0.677942 0.796366 0.442739
O O2 0.863832 0.735103 0.356260
O O3 0.173646 0.801503 0.444965
O O4 0.966800 0.652218 0.468076
O O5 0.500000 0.730209 0.750000
O O6 0.811893 0.780384 0.841467
O O7 0.566495 0.613404 0.834416
O O8 0.000000 0.809584 0.750000
O O9 0.267206 0.927275 0.721491
O O10 0.850358 0.930081 0.653674
O O11 0.412881 0.942646 0.420426
O O12 0.934741 0.544329 0.805160
#
# Coordination Sequence:
#
# PCOD9273628 Si02
#       6
#     8   8   8   8   4   8
#     4   9  20  37  60  94 124 169 216 272 329 395
#     4  11  22  37  64  95 124 168 222 271 335 407
#     4  10  22  40  54  92 133 168 208 276 342 387
#     4   9  19  38  62  88 129 166 217 274 328 385
#     4  10  20  38  56  84 128 160 204 274 328 388
#     4  10  23  36  63  89 124 171 224 267 334 410
#
# _framework density 24.655501999999998
#
# number of rings (size 3 to 8) (size 9 to 14) (size 15 to 20)
#    0.000    2.182    0.909    1.636    8.909    1.455 
#    0.000    0.909    0.000    1.091    0.000    0.000 
#    0.000    0.000    0.000    0.000    0.000    0.000 
#
# Total GULP energy -122726.148219 kJ/mol
# GULP energy per Si atom -5578.461283 kJ/mol
# Density = 2.459939 g / cm^3
# Si number density = 24.655502 Si / 1000 Ang^3
#
#
#
# Elastic Constant Matrix: (Units=GPa)
#
#
# Indices 1 2 3 4 5 6 
#
# 1 62.0559 1.2862 -0.6941 0.0000 0.5401 0.0000
# 2 1.2862 106.1308 3.9630 0.0000 10.4938 0.0000
# 3 -0.6941 3.9630 130.0611 0.0000 3.1443 0.0000
# 4 0.0000 0.0000 0.0000 26.8947 0.0000 5.8946
# 5 0.5401 10.4938 3.1443 0.0000 21.0228 0.0000
# 6 0.0000 0.0000 0.0000 5.8946 0.0000 4.6943
#
#
#
# Elastic Compliance Matrix: (Units=1/GPa)
#
#
# Indices 1 2 3 4 5 6 
#
# 1 0.016122 -0.000165 0.000099 0.000000 -0.000347 0.000000
# 2 -0.000165 0.009918 -0.000184 0.000000 -0.004919 0.000000
# 3 0.000099 -0.000184 0.007721 0.000000 -0.001065 0.000000
# 4 0.000000 0.000000 0.000000 0.051300 0.000000 -0.064417
# 5 -0.000347 -0.004919 -0.001065 0.000000 0.050191 0.000000
# 6 0.000000 0.000000 0.000000 -0.064417 0.000000 0.293912
#
#
# Mechanical properties :
#
#
# Convention : Reuss Voigt Hill
#
# Bulk Modulus (GPa) = 30.06512 34.15089 32.10801
# Shear Modulus (GPa) = 11.34431 30.10190 20.72310
#
# Velocity S-wave (km/s) = 2.14735 3.49793 2.90229
# Velocity P-wave (km/s) = 4.28587 5.49502 4.92768
#
# Compressibility (1/GPa) = 0.03326113
#
# Stress axis : x y z
#
# Youngs Moduli (GPa) = 62.02689 100.83140 129.52378
#
# Poissons Ratio (x) = 0.01662 -0.01288
# Poissons Ratio (y) = 0.01022 0.02385
# Poissons Ratio (z) = -0.00617 0.01857
#
# Static dielectric constant tensor:
#      x y z
#    x 2.142080 0.000000 0.049840 
#    y 0.000000 1.907060 0.000000 
#    z 0.049840 0.000000 2.058720 
# 
# From -- ./inp_files/285404.got.cif
#   From: 2010.05.17/outbox.cif.g08.bks.cpg/sg15_143_cif.got.tgz:285404.got - 2010.06.03 18:47:42.
