data_PCOD9273641
_publ_section_title
;
Structure prediction by ZEFSAII (Michael W. Deem and Ramdas Pophale) SiO2 
 PCOD9273641
Probable space group: C 2/C
;
_chemical_formula_sum "Si O2"
_cell_formula_units_Z 60
_cell_length_a 26.227367
_cell_length_b 14.682012
_cell_length_c 20.497050
_cell_angle_alpha 90.000000
_cell_angle_beta 159.067976
_cell_angle_gamma 90.000000
_cell_volume 2819.785907
_symmetry_space_group_name_H-M "C 2/C"
_symmetry_group_IT_number 15
_symmetry_cell_setting 'monoclinic'
loop_
_space_group_symop_operation_xyz
x,y,z
-x,y,1/2-z
-x,-y,-z
x,-y,1/2+z
1/2+x,1/2+y,z
1/2-x,1/2+y,1/2-z
1/2-x,1/2-y,-z
1/2+x,1/2-y,1/2+z
loop_
_atom_site_type_symbol
_atom_site_label
_atom_site_fract_x
_atom_site_fract_y
_atom_site_fract_z
Si Si1 0.716170 0.661113 0.918469
Si Si2 0.847094 0.074367 0.253777
Si Si3 0.163928 0.709728 0.243131
Si Si4 0.500000 0.565859 0.750000
Si Si5 0.188942 0.938661 0.171786
Si Si6 0.148538 0.529517 0.900268
Si Si7 0.661758 0.255024 0.666582
Si Si8 0.216772 0.514320 0.348198
O O1 0.699138 0.699361 0.825814
O O2 0.571491 0.624071 0.778041
O O3 0.750000 0.750000 0.000000
O O4 0.827629 0.579207 0.059162
O O5 0.814378 0.172143 0.247614
O O6 0.018197 0.060099 0.455307
O O7 0.790368 0.994885 0.235824
O O8 0.775647 0.068596 0.097153
O O9 0.290090 0.693337 0.341960
O O10 0.164390 0.618630 0.287213
O O11 0.002797 0.724300 0.026001
O O12 0.376163 0.510707 0.567664
O O13 0.241221 0.834617 0.226856
O O14 0.278253 0.985028 0.220194
O O15 0.139334 0.543539 0.811318
O O16 0.000000 0.562100 0.750000
#
# Coordination Sequence:
#
# PCOD9273641 Si02
#       8
#     8   8   8   4   8   8   8   8
#     4  11  22  33  59  93 137 172 214 276 350 425
#     4  11  25  47  70 101 143 184 229 289 355 423
#     4  12  24  40  63 102 139 178 226 289 348 418
#     4  10  20  38  56  92 132 180 218 272 350 430
#     4  11  24  45  73 101 134 185 234 292 348 412
#     4  11  26  42  64  98 138 184 227 286 348 415
#     4  12  26  44  70 101 137 182 234 286 351 413
#     4  11  23  40  67  96 135 177 233 286 347 413
#
# _framework density 21.278210999999999
#
# number of rings (size 3 to 8) (size 9 to 14) (size 15 to 20)
#    0.000    0.800    5.333    3.200    6.533    1.600 
#    0.000    0.667    1.467    0.000    0.000    0.000 
#    0.000    0.000    0.000    0.000    0.000    0.000 
#
# Total GULP energy -167365.269554 kJ/mol
# GULP energy per Si atom -5578.842318 kJ/mol
# Density = 2.122978 g / cm^3
# Si number density = 21.278211 Si / 1000 Ang^3
#
#
#
# Elastic Constant Matrix: (Units=GPa)
#
#
# Indices 1 2 3 4 5 6 
#
# 1 98.2602 9.6566 -10.9544 -0.0002 3.3545 -0.0008
# 2 9.6566 69.1073 -1.2500 -0.0013 -10.5221 -0.0002
# 3 -10.9544 -1.2500 30.0872 -0.0014 6.5108 0.0000
# 4 -0.0002 -0.0013 -0.0014 122.4689 -0.0004 -75.7716
# 5 3.3545 -10.5221 6.5108 -0.0004 29.6020 -0.0006
# 6 -0.0008 -0.0002 0.0000 -75.7716 -0.0006 81.4660
#
#
#
# Elastic Compliance Matrix: (Units=1/GPa)
#
#
# Indices 1 2 3 4 5 6 
#
# 1 0.010970 -0.001895 0.004546 0.000000 -0.002916 0.000000
# 2 -0.001895 0.015635 -0.001354 0.000000 0.006070 0.000000
# 3 0.004546 -0.001354 0.036803 0.000001 -0.009091 0.000001
# 4 0.000000 0.000000 0.000001 0.019233 0.000001 0.017889
# 5 -0.002916 0.006070 -0.009091 0.000001 0.038269 0.000001
# 6 0.000000 0.000000 0.000001 0.017889 0.000001 0.028913
#
#
# Mechanical properties :
#
#
# Convention : Reuss Voigt Hill
#
# Bulk Modulus (GPa) = 15.15078 21.37323 18.26201
# Shear Modulus (GPa) = 29.54596 60.04090 44.79343
#
# Velocity S-wave (km/s) = 3.73037 5.31774 4.59315
# Velocity P-wave (km/s) = 5.06853 6.91165 6.06057
#
# Compressibility (1/GPa) = 0.06600319
#
# Stress axis : x y z
#
# Youngs Moduli (GPa) = 91.16051 63.96042 27.17173
#
# Poissons Ratio (x) = 0.12118 -0.12353
# Poissons Ratio (y) = 0.17272 0.03678
# Poissons Ratio (z) = -0.41444 0.08658
#
# Static dielectric constant tensor:
#      x y z
#    x 1.880120 0.000000 -0.009830 
#    y 0.000000 1.929870 0.000000 
#    z -0.009830 0.000000 1.765920 
# 
# From -- ./inp_files/257870.got.cif
#   From: 2010.05.17/outbox.cif.g08.bks.cpg/sg15_129_cif.got.tgz:257870.got - 2010.06.03 18:47:42.
