data_PCOD9273969
_publ_section_title
;
Structure prediction by ZEFSAII (Michael W. Deem and Ramdas Pophale) SiO2 
 PCOD9273969
Probable space group: C 2/C
;
_chemical_formula_sum "Si O2"
_cell_formula_units_Z 52
_cell_length_a 10.736141
_cell_length_b 27.019976
_cell_length_c 8.388097
_cell_angle_alpha 90.000000
_cell_angle_beta 80.258594
_cell_angle_gamma 90.000000
_cell_volume 2398.220605
_symmetry_space_group_name_H-M "C 2/C"
_symmetry_group_IT_number 15
_symmetry_cell_setting 'monoclinic'
loop_
_space_group_symop_operation_xyz
x,y,z
-x,y,1/2-z
-x,-y,-z
x,-y,1/2+z
1/2+x,1/2+y,z
1/2-x,1/2+y,1/2-z
1/2-x,1/2-y,-z
1/2+x,1/2-y,1/2+z
loop_
_atom_site_type_symbol
_atom_site_label
_atom_site_fract_x
_atom_site_fract_y
_atom_site_fract_z
Si Si1 0.500000 0.660265 0.750000
Si Si2 0.856109 0.074236 0.673461
Si Si3 0.365530 0.479410 0.844199
Si Si4 0.860745 0.687111 0.357286
Si Si5 0.863459 0.413640 0.719357
Si Si6 0.628727 0.137788 0.627623
Si Si7 0.259161 0.781881 0.209640
O O1 0.453889 0.619677 0.630412
O O2 0.377280 0.693577 0.805689
O O3 0.861334 0.036600 0.527082
O O4 0.722722 0.101137 0.699464
O O5 0.866396 0.038583 0.822873
O O6 0.500000 0.460912 0.750000
O O7 0.244204 0.454233 0.786350
O O8 0.823684 0.629776 0.349706
O O9 0.766419 0.723662 0.283765
O O10 0.851613 0.704582 0.542442
O O11 0.000000 0.692122 0.250000
O O12 0.880951 0.383299 0.548616
O O13 0.000000 0.433121 0.750000
O O14 0.500000 0.136810 0.750000
O O15 0.689052 0.192158 0.642565
#
# Coordination Sequence:
#
# PCOD9273969 Si02
#       7
#     4   8   8   8   8   8   8
#     4  10  20  38  60  92 120 162 198 246 310 370
#     4  10  23  37  61  87 121 157 200 247 310 364
#     4  11  23  39  59  90 121 156 202 256 306 367
#     4  10  20  38  60  92 119 163 205 253 308 368
#     4  10  23  40  60  87 123 163 208 253 308 363
#     4  10  21  40  59  88 119 161 204 253 301 369
#     4  10  21  36  63  87 123 158 203 253 307 369
#
# _framework density 21.682741
#
# number of rings (size 3 to 8) (size 9 to 14) (size 15 to 20)
#    0.000    1.846    1.538    2.308    2.154    3.692 
#    0.000    3.846    0.000    0.000    0.000    0.000 
#    0.000    0.000    0.000    0.000    0.000    0.000 
#
# Total GULP energy -145073.487347 kJ/mol
# GULP energy per Si atom -5579.749513 kJ/mol
# Density = 2.163339 g / cm^3
# Si number density = 21.682741 Si / 1000 Ang^3
#
#
#
# Elastic Constant Matrix: (Units=GPa)
#
#
# Indices 1 2 3 4 5 6 
#
# 1 116.7367 14.9191 17.3068 0.0000 0.3124 0.0000
# 2 14.9191 52.1989 -2.0087 0.0000 -2.7408 0.0000
# 3 17.3068 -2.0087 32.6301 0.0000 -2.0899 0.0000
# 4 0.0000 0.0000 0.0000 8.3555 0.0000 -3.8629
# 5 0.3124 -2.7408 -2.0899 0.0000 24.4316 0.0000
# 6 0.0000 0.0000 0.0000 -3.8629 0.0000 25.0242
#
#
#
# Elastic Compliance Matrix: (Units=1/GPa)
#
#
# Indices 1 2 3 4 5 6 
#
# 1 0.009763 -0.003048 -0.005425 0.000000 -0.000931 0.000000
# 2 -0.003048 0.020280 0.003030 0.000000 0.002573 0.000000
# 3 -0.005425 0.003030 0.033923 0.000000 0.003311 0.000000
# 4 0.000000 0.000000 0.000000 0.128879 0.000000 0.019895
# 5 -0.000931 0.002573 0.003311 0.000000 0.041514 0.000000
# 6 0.000000 0.000000 0.000000 0.019895 0.000000 0.043032
#
#
# Mechanical properties :
#
#
# Convention : Reuss Voigt Hill
#
# Bulk Modulus (GPa) = 18.83983 29.11111 23.97547
# Shear Modulus (GPa) = 16.34139 22.98550 19.66345
#
# Velocity S-wave (km/s) = 2.74826 3.25942 3.01470
# Velocity P-wave (km/s) = 4.33340 5.25549 4.81656
#
# Compressibility (1/GPa) = 0.05307903
#
# Stress axis : x y z
#
# Youngs Moduli (GPa) = 102.43142 49.30884 29.47877
#
# Poissons Ratio (x) = 0.15029 0.15993
# Poissons Ratio (y) = 0.31220 -0.08932
# Poissons Ratio (z) = 0.55572 -0.14940
#
# Static dielectric constant tensor:
#      x y z
#    x 1.855840 0.000000 0.061940 
#    y 0.000000 1.783720 0.000000 
#    z 0.061940 0.000000 1.823790 
# 
# From -- ./inp_files/33555.got.cif
#   From: 2010.05.17/outbox.cif.g08.bks.cpg/sg15_17_cif.got.tgz:33555.got - 2010.06.03 18:47:42.
