data_PCOD9273433
_publ_section_title
;
Structure prediction by ZEFSAII (Michael W. Deem and Ramdas Pophale) SiO2 
 PCOD9273433
Probable space group: C 2/C
;
_chemical_formula_sum "Si O2"
_cell_formula_units_Z 48
_cell_length_a 19.396029
_cell_length_b 25.945222
_cell_length_c 5.158316
_cell_angle_alpha 90.000000
_cell_angle_beta 122.332841
_cell_angle_gamma 90.000000
_cell_volume 2193.370266
_symmetry_space_group_name_H-M "C 2/C"
_symmetry_group_IT_number 15
_symmetry_cell_setting 'monoclinic'
loop_
_space_group_symop_operation_xyz
x,y,z
-x,y,1/2-z
-x,-y,-z
x,-y,1/2+z
1/2+x,1/2+y,z
1/2-x,1/2+y,1/2-z
1/2-x,1/2-y,-z
1/2+x,1/2-y,1/2+z
loop_
_atom_site_type_symbol
_atom_site_label
_atom_site_fract_x
_atom_site_fract_y
_atom_site_fract_z
Si Si1 0.410646 0.293199 0.659217
Si Si2 0.054530 0.643938 0.110340
Si Si3 0.123895 0.531186 0.153999
Si Si4 0.200324 0.290273 0.727059
Si Si5 0.143683 0.851509 0.470208
Si Si6 0.178713 0.031762 0.945866
O O1 0.500000 0.275800 0.750000
O O2 0.350379 0.244536 0.576990
O O3 0.412760 0.327649 0.920201
O O4 0.376525 0.326832 0.349645
O O5 0.084727 0.585099 0.151391
O O6 0.133016 0.680361 0.260460
O O7 0.000000 0.652402 0.250000
O O8 0.000000 0.654028 0.750000
O O9 0.101164 0.488520 0.322857
O O10 0.222410 0.537050 0.355252
O O11 0.265381 0.332252 0.762427
O O12 0.250000 0.250000 0.000000
O O13 0.142378 0.912727 0.440721
O O14 0.156043 0.990282 0.119783
#
# Coordination Sequence:
#
# PCOD9273433 Si02
#       6
#     8   8   8   8   8   8
#     4  11  24  41  66  94 129 163 205 260 323 379
#     4  12  26  41  63  93 133 172 208 261 318 372
#     4  10  21  39  61  90 127 169 211 253 304 367
#     4  10  24  44  65  93 123 167 218 265 307 371
#     4  11  22  42  68  94 125 165 211 258 311 374
#     4  10  20  37  65  95 124 160 210 262 306 365
#
# _framework density 21.884132000000001
#
# number of rings (size 3 to 8) (size 9 to 14) (size 15 to 20)
#    0.000    1.333    1.667    3.500    0.000   10.000 
#    0.000    0.000    0.000   10.000    0.000    0.000 
#    0.000    0.000    0.000    0.000    0.000    0.000 
#
# Total GULP energy -134322.471408 kJ/mol
# GULP energy per Si atom -5596.769642 kJ/mol
# Density = 2.183432 g / cm^3
# Si number density = 21.884132 Si / 1000 Ang^3
#
#
#
# Elastic Constant Matrix: (Units=GPa)
#
#
# Indices 1 2 3 4 5 6 
#
# 1 59.9308 12.1893 21.7472 0.0000 -20.0072 0.0000
# 2 12.1893 79.2583 6.7684 0.0000 7.6617 0.0000
# 3 21.7472 6.7684 60.0702 0.0000 -13.8458 0.0000
# 4 0.0000 0.0000 0.0000 22.3619 0.0000 -1.3241
# 5 -20.0072 7.6617 -13.8458 0.0000 35.5851 0.0000
# 6 0.0000 0.0000 0.0000 -1.3241 0.0000 38.1618
#
#
#
# Elastic Compliance Matrix: (Units=1/GPa)
#
#
# Indices 1 2 3 4 5 6 
#
# 1 0.023512 -0.004341 -0.005230 0.000000 0.012119 0.000000
# 2 -0.004341 0.013982 -0.001384 0.000000 -0.005990 0.000000
# 3 -0.005230 -0.001384 0.019869 0.000000 0.005089 0.000000
# 4 0.000000 0.000000 0.000000 0.044811 0.000000 0.001555
# 5 0.012119 -0.005990 0.005089 0.000000 0.038185 0.000000
# 6 0.000000 0.000000 0.000000 0.001555 0.000000 0.026258
#
#
# Mechanical properties :
#
#
# Convention : Reuss Voigt Hill
#
# Bulk Modulus (GPa) = 28.20596 31.18547 29.69571
# Shear Modulus (GPa) = 24.95684 29.79206 27.37445
#
# Velocity S-wave (km/s) = 3.38066 3.69366 3.54062
# Velocity P-wave (km/s) = 5.30615 5.69842 5.50578
#
# Compressibility (1/GPa) = 0.03545350
#
# Stress axis : x y z
#
# Youngs Moduli (GPa) = 42.53071 71.52142 50.32873
#
# Poissons Ratio (x) = 0.31047 0.26320
# Poissons Ratio (y) = 0.18462 0.06968
# Poissons Ratio (z) = 0.22242 0.09902
#
# Static dielectric constant tensor:
#      x y z
#    x 1.789060 0.000000 0.038180 
#    y 0.000000 1.772070 0.000000 
#    z 0.038180 0.000000 1.788930 
# 
# From -- ./inp_files/10652.got.cif
#   From: 2010.05.17/outbox.cif.g08.bks.cpg/sg15_6_cif.got.tgz:10652.got - 2010.06.03 18:47:42.
