data_PCOD9273653
_publ_section_title
;
Structure prediction by ZEFSAII (Michael W. Deem and Ramdas Pophale) SiO2 
 PCOD9273653
Probable space group: C 2/C
;
_chemical_formula_sum "Si O2"
_cell_formula_units_Z 40
_cell_length_a 4.994372
_cell_length_b 22.009085
_cell_length_c 18.920538
_cell_angle_alpha 90.000000
_cell_angle_beta 98.767626
_cell_angle_gamma 90.000000
_cell_volume 2055.472146
_symmetry_space_group_name_H-M "C 2/C"
_symmetry_group_IT_number 15
_symmetry_cell_setting 'monoclinic'
loop_
_space_group_symop_operation_xyz
x,y,z
-x,y,1/2-z
-x,-y,-z
x,-y,1/2+z
1/2+x,1/2+y,z
1/2-x,1/2+y,1/2-z
1/2-x,1/2-y,-z
1/2+x,1/2-y,1/2+z
loop_
_atom_site_type_symbol
_atom_site_label
_atom_site_fract_x
_atom_site_fract_y
_atom_site_fract_z
Si Si1 0.653813 0.716658 0.923646
Si Si2 0.094513 0.749932 0.830344
Si Si3 0.743604 0.918021 0.023939
Si Si4 0.264197 0.886763 0.797660
Si Si5 0.683663 0.448365 0.938533
O O1 0.342251 0.722124 0.885812
O O2 0.715871 0.645442 0.935923
O O3 0.832988 0.746610 0.869319
O O4 0.750000 0.750000 0.000000
O O5 0.193450 0.818119 0.817823
O O6 0.000000 0.723506 0.750000
O O7 0.859125 0.979206 0.064586
O O8 0.425840 0.931263 0.001795
O O9 0.911269 0.916617 0.956505
O O10 0.500000 0.886554 0.750000
O O11 0.297853 0.924544 0.869688
O O12 0.000000 0.913247 0.750000
#
# Coordination Sequence:
#
# PCOD9273653 Si02
#       5
#     8   8   8   8   8
#     4  12  22  37  61  89 115 150 200 240 282 349
#     4  11  23  39  57  83 120 155 186 235 298 348
#     4  10  21  36  59  83 112 147 184 236 291 331
#     4  11  21  36  58  81 108 146 190 229 275 337
#     4  10  20  38  57  82 113 144 186 239 287 331
#
# _framework density 19.460246999999999
#
# number of rings (size 3 to 8) (size 9 to 14) (size 15 to 20)
#    0.000    1.200    0.000    8.400    0.000    0.000 
#    0.000    3.000    0.000    0.000    0.000    0.000 
#    0.000    0.000    0.000    0.000    0.000    0.000 
#
# Total GULP energy -111586.620066 kJ/mol
# GULP energy per Si atom -5579.331003 kJ/mol
# Density = 1.941595 g / cm^3
# Si number density = 19.460247 Si / 1000 Ang^3
#
#
#
# Elastic Constant Matrix: (Units=GPa)
#
#
# Indices 1 2 3 4 5 6 
#
# 1 83.5366 -3.1676 3.4698 0.0000 -9.9111 0.0000
# 2 -3.1676 72.1713 18.5802 0.0000 -3.4367 0.0000
# 3 3.4698 18.5802 77.2610 0.0000 -7.3670 0.0000
# 4 0.0000 0.0000 0.0000 18.4367 0.0000 -4.5068
# 5 -9.9111 -3.4367 -7.3670 0.0000 53.3972 0.0000
# 6 0.0000 0.0000 0.0000 -4.5068 0.0000 25.6930
#
#
#
# Elastic Compliance Matrix: (Units=1/GPa)
#
#
# Indices 1 2 3 4 5 6 
#
# 1 0.012290 0.000782 -0.000525 0.000000 0.002259 0.000000
# 2 0.000782 0.014832 -0.003544 0.000000 0.000611 0.000000
# 3 -0.000525 -0.003544 0.013972 0.000000 0.001602 0.000000
# 4 0.000000 0.000000 0.000000 0.056670 0.000000 0.009940
# 5 0.002259 0.000611 0.001602 0.000000 0.019407 0.000000
# 6 0.000000 0.000000 0.000000 0.009940 0.000000 0.040665
#
#
# Mechanical properties :
#
#
# Convention : Reuss Voigt Hill
#
# Bulk Modulus (GPa) = 28.96778 30.08153 29.52465
# Shear Modulus (GPa) = 28.42287 33.77781 31.10034
#
# Velocity S-wave (km/s) = 3.82587 4.17073 4.00202
# Velocity P-wave (km/s) = 5.86808 6.21972 6.04645
#
# Compressibility (1/GPa) = 0.03452112
#
# Stress axis : x y z
#
# Youngs Moduli (GPa) = 81.36513 67.42346 71.57344
#
# Poissons Ratio (x) = -0.05273 0.03755
# Poissons Ratio (y) = -0.06363 0.25363
# Poissons Ratio (z) = 0.04269 0.23893
#
# Static dielectric constant tensor:
#      x y z
#    x 1.706010 0.000000 0.027020 
#    y 0.000000 1.668910 0.000000 
#    z 0.027020 0.000000 1.700030 
# 
# From -- ./inp_files/129127.got.cif
#   From: 2010.05.17/outbox.cif.g08.bks.cpg/sg15_65_cif.got.tgz:129127.got - 2010.06.03 18:47:42.
