data_PCOD9273732
_publ_section_title
;
Structure prediction by ZEFSAII (Michael W. Deem and Ramdas Pophale) SiO2 
 PCOD9273732
Probable space group: C 2/C
;
_chemical_formula_sum "Si O2"
_cell_formula_units_Z 56
_cell_length_a 22.652504
_cell_length_b 12.583959
_cell_length_c 10.359235
_cell_angle_alpha 90.000000
_cell_angle_beta 64.338681
_cell_angle_gamma 90.000000
_cell_volume 2661.730583
_symmetry_space_group_name_H-M "C 2/C"
_symmetry_group_IT_number 15
_symmetry_cell_setting 'monoclinic'
loop_
_space_group_symop_operation_xyz
x,y,z
-x,y,1/2-z
-x,-y,-z
x,-y,1/2+z
1/2+x,1/2+y,z
1/2-x,1/2+y,1/2-z
1/2-x,1/2-y,-z
1/2+x,1/2-y,1/2+z
loop_
_atom_site_type_symbol
_atom_site_label
_atom_site_fract_x
_atom_site_fract_y
_atom_site_fract_z
Si Si1 0.643416 0.558488 0.366478
Si Si2 0.815379 0.601327 0.851858
Si Si3 0.743743 0.034025 0.906176
Si Si4 0.070440 0.936324 0.662456
Si Si5 0.762956 0.750391 0.670156
Si Si6 0.564292 0.805380 0.109911
Si Si7 0.856794 0.408367 0.664270
O O1 0.698957 0.484868 0.249313
O O2 0.609145 0.504652 0.520660
O O3 0.599853 0.580256 0.279036
O O4 0.680440 0.661906 0.385858
O O5 0.785752 0.676852 0.770111
O O6 0.867342 0.671644 0.880653
O O7 0.856849 0.493457 0.779124
O O8 0.751962 0.549106 0.981460
O O9 0.740208 0.158544 0.936194
O O10 0.677622 0.987275 0.906545
O O11 0.059451 0.821315 0.607452
O O12 0.000000 0.989026 0.750000
O O13 0.694956 0.812907 0.760533
O O14 0.500000 0.842473 0.250000
O O15 0.577411 0.861516 0.959561
#
# Coordination Sequence:
#
# PCOD9273732 Si02
#       7
#     8   8   8   8   8   8   8
#     4  11  23  39  67  90 126 163 200 257 311 361
#     4  10  20  38  59  86 120 158 197 255 300 368
#     4   9  21  33  58  91 120 154 200 243 310 368
#     4  11  24  43  64  91 122 164 213 253 300 366
#     4  10  20  38  58  89 124 153 198 250 318 360
#     4  10  21  38  60  82 114 163 206 246 301 362
#     4   9  20  33  56  87 116 151 202 246 302 365
#
# _framework density 21.038944999999998
#
# number of rings (size 3 to 8) (size 9 to 14) (size 15 to 20)
#    0.000    2.000    1.429    1.286    8.000    2.857 
#    2.571    0.000    0.000    3.429    0.000    0.000 
#    0.000    0.000    0.000    0.000    0.000    0.000 
#
# Total GULP energy -155966.204089 kJ/mol
# GULP energy per Si atom -5570.221575 kJ/mol
# Density = 2.099106 g / cm^3
# Si number density = 21.038945 Si / 1000 Ang^3
#
#
#
# Elastic Constant Matrix: (Units=GPa)
#
#
# Indices 1 2 3 4 5 6 
#
# 1 35.4779 0.2260 24.4489 0.0000 -4.3110 0.0000
# 2 0.2260 120.6256 53.8811 0.0000 -19.6909 0.0000
# 3 24.4489 53.8811 144.7915 0.0000 -25.8659 0.0000
# 4 0.0000 0.0000 0.0000 34.6628 0.0000 4.8503
# 5 -4.3110 -19.6909 -25.8659 0.0000 28.4345 0.0000
# 6 0.0000 0.0000 0.0000 4.8503 0.0000 19.3188
#
#
#
# Elastic Compliance Matrix: (Units=1/GPa)
#
#
# Indices 1 2 3 4 5 6 
#
# 1 0.032748 0.003008 -0.006436 0.000000 0.001194 0.000000
# 2 0.003008 0.010658 -0.003671 0.000000 0.004498 0.000000
# 3 -0.006436 -0.003671 0.010425 0.000000 0.005965 0.000000
# 4 0.000000 0.000000 0.000000 0.029900 0.000000 -0.007507
# 5 0.001194 0.004498 0.005965 0.000000 0.043891 0.000000
# 6 0.000000 0.000000 0.000000 -0.007507 0.000000 0.053648
#
#
# Mechanical properties :
#
#
# Convention : Reuss Voigt Hill
#
# Bulk Modulus (GPa) = 25.23074 50.88965 38.06020
# Shear Modulus (GPa) = 23.96046 31.30583 27.63315
#
# Velocity S-wave (km/s) = 3.37836 3.86164 3.62806
# Velocity P-wave (km/s) = 5.21883 6.64258 5.97328
#
# Compressibility (1/GPa) = 0.03963419
#
# Stress axis : x y z
#
# Youngs Moduli (GPa) = 30.53662 93.82314 95.92442
#
# Poissons Ratio (x) = -0.28225 0.61735
# Poissons Ratio (y) = -0.09186 0.35211
# Poissons Ratio (z) = 0.19653 0.34440
#
# Static dielectric constant tensor:
#      x y z
#    x 1.834570 0.000000 0.125650 
#    y 0.000000 1.776390 0.000000 
#    z 0.125650 0.000000 1.949370 
# 
# From -- ./inp_files/122613.got.cif
#   From: 2010.05.17/outbox.cif.g08.bks.cpg/sg15_62_cif.got.tgz:122613.got - 2010.06.03 18:47:42.
