data_PCOD9273320
_publ_section_title
;
Structure prediction by ZEFSAII (Michael W. Deem and Ramdas Pophale) SiO2 
 PCOD9273320
Probable space group: C 2/C
;
_chemical_formula_sum "Si O2"
_cell_formula_units_Z 36
_cell_length_a 22.497371
_cell_length_b 6.442778
_cell_length_c 9.253401
_cell_angle_alpha 90.000000
_cell_angle_beta 85.878321
_cell_angle_gamma 90.000000
_cell_volume 1337.770552
_symmetry_space_group_name_H-M "C 2/C"
_symmetry_group_IT_number 15
_symmetry_cell_setting 'monoclinic'
loop_
_space_group_symop_operation_xyz
x,y,z
-x,y,1/2-z
-x,-y,-z
x,-y,1/2+z
1/2+x,1/2+y,z
1/2-x,1/2+y,1/2-z
1/2-x,1/2-y,-z
1/2+x,1/2-y,1/2+z
loop_
_atom_site_type_symbol
_atom_site_label
_atom_site_fract_x
_atom_site_fract_y
_atom_site_fract_z
Si Si1 0.287318 0.360620 0.776773
Si Si2 0.913990 0.003256 0.744929
Si Si3 0.796309 0.529161 0.456716
Si Si4 0.500000 0.852462 0.750000
Si Si5 0.921992 0.726666 0.500725
O O1 0.343078 0.509364 0.733820
O O2 0.249029 0.344276 0.638133
O O3 0.315258 0.155761 0.843340
O O4 0.240907 0.430589 0.906749
O O5 0.936789 0.795680 0.660952
O O6 0.950394 0.202467 0.682245
O O7 0.922732 0.051518 0.913371
O O8 0.855063 0.642875 0.501183
O O9 0.538268 0.925143 0.606038
#
# Coordination Sequence:
#
# PCOD9273320 Si02
#       5
#     8   8   8   4   8
#     4  11  23  40  65  98 129 166 207 264 329 383
#     4  10  20  37  64  92 127 167 214 264 312 380
#     4  11  24  41  63  98 132 165 211 265 327 381
#     4   8  22  38  66  94 124 176 218 258 310 376
#     4  10  21  40  64  93 131 167 217 260 311 377
#
# _framework density 26.910444999999999
#
# number of rings (size 3 to 8) (size 9 to 14) (size 15 to 20)
#    1.333    0.444    0.000    4.667    0.000    4.444 
#    0.000    1.111    0.000    4.000    0.000    0.000 
#    0.000    0.000    0.000    0.000    0.000    0.000 
#
# Total GULP energy -100409.811701 kJ/mol
# GULP energy per Si atom -5578.322872 kJ/mol
# Density = 2.684920 g / cm^3
# Si number density = 26.910445 Si / 1000 Ang^3
#
#
#
# Elastic Constant Matrix: (Units=GPa)
#
#
# Indices 1 2 3 4 5 6 
#
# 1 127.9539 5.9545 40.6996 0.0000 -28.0288 0.0000
# 2 5.9545 29.4031 28.1202 0.0000 9.8724 0.0000
# 3 40.6996 28.1202 156.4852 0.0000 2.6307 0.0000
# 4 0.0000 0.0000 0.0000 50.6785 0.0000 12.0521
# 5 -28.0288 9.8724 2.6307 0.0000 48.6134 0.0000
# 6 0.0000 0.0000 0.0000 12.0521 0.0000 40.0790
#
#
#
# Elastic Compliance Matrix: (Units=1/GPa)
#
#
# Indices 1 2 3 4 5 6 
#
# 1 0.010039 -0.001870 -0.002381 0.000000 0.006297 0.000000
# 2 -0.001870 0.044732 -0.007388 0.000000 -0.009763 0.000000
# 3 -0.002381 -0.007388 0.008343 0.000000 -0.000324 0.000000
# 4 0.000000 0.000000 0.000000 0.021252 0.000000 -0.006391
# 5 0.006297 -0.009763 -0.000324 0.000000 0.026201 0.000000
# 6 0.000000 0.000000 0.000000 -0.006391 0.000000 0.026872
#
#
# Mechanical properties :
#
#
# Convention : Reuss Voigt Hill
#
# Bulk Modulus (GPa) = 25.10291 51.48787 38.29539
# Shear Modulus (GPa) = 28.73636 43.81203 36.27419
#
# Velocity S-wave (km/s) = 3.27134 4.03931 3.67544
# Velocity P-wave (km/s) = 4.85978 6.39760 5.68097
#
# Compressibility (1/GPa) = 0.03983603
#
# Stress axis : x y z
#
# Youngs Moduli (GPa) = 99.61204 22.35529 119.86687
#
# Poissons Ratio (x) = 0.04181 0.28537
# Poissons Ratio (y) = 0.18631 0.88555
# Poissons Ratio (z) = 0.23715 0.16516
#
# Static dielectric constant tensor:
#      x y z
#    x 2.021420 0.000000 -0.042560 
#    y 0.000000 2.284160 0.000000 
#    z -0.042560 0.000000 2.093470 
# 
# From -- ./inp_files/53636.got.cif
#   From: 2010.05.17/outbox.cif.g08.bks.cpg/sg15_27_cif.got.tgz:53636.got - 2010.06.03 18:47:42.
