data_PCOD9273794
_publ_section_title
;
Structure prediction by ZEFSAII (Michael W. Deem and Ramdas Pophale) SiO2 
 PCOD9273794
Probable space group: C 2/C
;
_chemical_formula_sum "Si O2"
_cell_formula_units_Z 48
_cell_length_a 9.411467
_cell_length_b 27.021990
_cell_length_c 14.207077
_cell_angle_alpha 90.000000
_cell_angle_beta 39.310014
_cell_angle_gamma 90.000000
_cell_volume 2288.953932
_symmetry_space_group_name_H-M "C 2/C"
_symmetry_group_IT_number 15
_symmetry_cell_setting 'monoclinic'
loop_
_space_group_symop_operation_xyz
x,y,z
-x,y,1/2-z
-x,-y,-z
x,-y,1/2+z
1/2+x,1/2+y,z
1/2-x,1/2+y,1/2-z
1/2-x,1/2-y,-z
1/2+x,1/2-y,1/2+z
loop_
_atom_site_type_symbol
_atom_site_label
_atom_site_fract_x
_atom_site_fract_y
_atom_site_fract_z
Si Si1 0.404961 0.251864 0.651040
Si Si2 0.649248 0.101695 0.522335
Si Si3 0.251675 0.886832 0.089843
Si Si4 0.500000 0.830694 0.250000
Si Si5 0.500000 0.333261 0.750000
Si Si6 0.747089 0.004108 0.927245
Si Si7 0.447349 0.785621 0.927912
O O1 0.392402 0.205200 0.727488
O O2 0.514807 0.296424 0.653295
O O3 0.514262 0.231708 0.500080
O O4 0.161438 0.274183 0.755324
O O5 0.397593 0.103758 0.609840
O O6 0.663743 0.133255 0.609476
O O7 0.732321 0.045966 0.495127
O O8 0.792826 0.129431 0.367900
O O9 0.360189 0.841394 0.978561
O O10 0.000000 0.873851 0.250000
O O11 0.254799 0.939537 0.034656
O O12 0.000000 0.001161 0.750000
O O13 0.500000 0.000000 0.000000
O O14 0.250000 0.750000 0.000000
#
# Coordination Sequence:
#
# PCOD9273794 Si02
#       7
#     8   8   8   4   4   8   8
#     4  11  22  38  55  88 120 154 197 247 301 351
#     4  11  20  37  63  90 115 155 201 248 306 357
#     4  10  20  38  59  85 117 159 202 240 296 362
#     4  11  22  36  60  88 126 156 189 254 310 362
#     4  11  20  36  62  86 118 150 199 254 296 350
#     4   9  19  35  63  89 116 154 209 253 304 367
#     4  12  23  37  60  85 117 163 201 236 293 366
#
# _framework density 20.970276999999999
#
# number of rings (size 3 to 8) (size 9 to 14) (size 15 to 20)
#    0.000    1.333    4.167    2.500    0.000    2.667 
#    0.000    0.000    3.667    9.000    0.000    0.000 
#    0.000    0.000    0.000    0.000    0.000    0.000 
#
# Total GULP energy -133715.838130 kJ/mol
# GULP energy per Si atom -5571.493255 kJ/mol
# Density = 2.092255 g / cm^3
# Si number density = 20.970277 Si / 1000 Ang^3
#
#
#
# Elastic Constant Matrix: (Units=GPa)
#
#
# Indices 1 2 3 4 5 6 
#
# 1 44.8943 2.2729 13.8119 0.0000 -9.7917 0.0000
# 2 2.2729 164.2174 38.4842 0.0000 8.1701 0.0000
# 3 13.8119 38.4842 80.8793 0.0000 -17.2200 0.0000
# 4 0.0000 0.0000 0.0000 26.1436 0.0000 2.7930
# 5 -9.7917 8.1701 -17.2200 0.0000 37.1574 0.0000
# 6 0.0000 0.0000 0.0000 2.7930 0.0000 9.2350
#
#
#
# Elastic Compliance Matrix: (Units=1/GPa)
#
#
# Indices 1 2 3 4 5 6 
#
# 1 0.024315 0.000168 -0.003191 0.000000 0.004892 0.000000
# 2 0.000168 0.007252 -0.004227 0.000000 -0.003509 0.000000
# 3 -0.003191 -0.004227 0.016574 0.000000 0.007770 0.000000
# 4 0.000000 0.000000 0.000000 0.039527 0.000000 -0.011955
# 5 0.004892 -0.003509 0.007770 0.000000 0.032574 0.000000
# 6 0.000000 0.000000 0.000000 -0.011955 0.000000 0.111900
#
#
# Mechanical properties :
#
#
# Convention : Reuss Voigt Hill
#
# Bulk Modulus (GPa) = 29.72438 44.34767 37.03603
# Shear Modulus (GPa) = 19.39074 30.20199 24.79637
#
# Velocity S-wave (km/s) = 3.04415 3.79915 3.44241
# Velocity P-wave (km/s) = 5.15375 6.35913 5.78790
#
# Compressibility (1/GPa) = 0.03364242
#
# Stress axis : x y z
#
# Youngs Moduli (GPa) = 41.12764 137.88840 60.33440
#
# Poissons Ratio (x) = -0.02314 0.19250
# Poissons Ratio (y) = -0.00690 0.25501
# Poissons Ratio (z) = 0.13122 0.58279
#
# Static dielectric constant tensor:
#      x y z
#    x 2.162160 0.000000 -0.140620 
#    y 0.000000 1.759210 0.000000 
#    z -0.140620 0.000000 1.800410 
# 
# From -- ./inp_files/138946.got.cif
#   From: 2010.05.17/outbox.cif.g08.bks.cpg/sg15_70_cif.got.tgz:138946.got - 2010.06.03 18:47:42.
