data_PCOD9273789
_publ_section_title
;
Structure prediction by ZEFSAII (Michael W. Deem and Ramdas Pophale) SiO2 
 PCOD9273789
Probable space group: C 2/C
;
_chemical_formula_sum "Si O2"
_cell_formula_units_Z 36
_cell_length_a 8.677045
_cell_length_b 21.460830
_cell_length_c 7.681442
_cell_angle_alpha 90.000000
_cell_angle_beta 82.594403
_cell_angle_gamma 90.000000
_cell_volume 1418.480245
_symmetry_space_group_name_H-M "C 2/C"
_symmetry_group_IT_number 15
_symmetry_cell_setting 'monoclinic'
loop_
_space_group_symop_operation_xyz
x,y,z
-x,y,1/2-z
-x,-y,-z
x,-y,1/2+z
1/2+x,1/2+y,z
1/2-x,1/2+y,1/2-z
1/2-x,1/2-y,-z
1/2+x,1/2-y,1/2+z
loop_
_atom_site_type_symbol
_atom_site_label
_atom_site_fract_x
_atom_site_fract_y
_atom_site_fract_z
Si Si1 0.500000 0.193911 0.750000
Si Si2 0.662529 0.926145 0.158205
Si Si3 0.500000 0.401547 0.750000
Si Si4 0.745930 0.548873 0.489482
Si Si5 0.715122 0.292756 0.668568
Si Si6 0.500000 0.127829 0.250000
O O1 0.398310 0.143337 0.872457
O O2 0.622361 0.243783 0.809045
O O3 0.500000 0.956001 0.250000
O O4 0.270337 0.974101 0.490366
O O5 0.772734 0.925998 0.312046
O O6 0.393655 0.436973 0.624636
O O7 0.609700 0.352153 0.633869
O O8 0.902702 0.582307 0.393968
O O9 0.750000 0.250000 0.500000
O O10 0.863866 0.323675 0.727516
#
# Coordination Sequence:
#
# PCOD9273789 Si02
#       6
#     4   8   4   8   8   4
#     4   9  21  36  56  90 117 149 198 242 290 349
#     4  10  22  35  63  83 116 152 199 244 286 356
#     4   9  24  38  58  88 122 153 196 250 288 355
#     4  11  21  40  59  89 115 157 199 242 300 344
#     4  10  20  38  59  84 119 155 195 239 294 349
#     4  10  21  34  64  82 113 160 194 246 290 350
#
# _framework density 25.379275
#
# number of rings (size 3 to 8) (size 9 to 14) (size 15 to 20)
#    0.667    1.333    1.111    2.000    0.000    4.444 
#    0.000    7.778    0.000    0.000    0.000    0.000 
#    0.000    0.000    0.000    0.000    0.000    0.000 
#
# Total GULP energy -100360.284202 kJ/mol
# GULP energy per Si atom -5575.571345 kJ/mol
# Density = 2.532151 g / cm^3
# Si number density = 25.379275 Si / 1000 Ang^3
#
#
#
# Elastic Constant Matrix: (Units=GPa)
#
#
# Indices 1 2 3 4 5 6 
#
# 1 123.5180 68.6155 22.4933 0.0000 16.3084 0.0000
# 2 68.6155 219.0283 26.9743 0.0000 6.5665 0.0000
# 3 22.4933 26.9743 53.6647 0.0000 8.0240 0.0000
# 4 0.0000 0.0000 0.0000 23.5429 0.0000 1.7004
# 5 16.3084 6.5665 8.0240 0.0000 30.0108 0.0000
# 6 0.0000 0.0000 0.0000 1.7004 0.0000 20.4238
#
#
#
# Elastic Compliance Matrix: (Units=1/GPa)
#
#
# Indices 1 2 3 4 5 6 
#
# 1 0.010764 -0.002946 -0.002347 0.000000 -0.004577 0.000000
# 2 -0.002946 0.005678 -0.001743 0.000000 0.000824 0.000000
# 3 -0.002347 -0.001743 0.021089 0.000000 -0.003982 0.000000
# 4 0.000000 0.000000 0.000000 0.042733 0.000000 -0.003558
# 5 -0.004577 0.000824 -0.003982 0.000000 0.036693 0.000000
# 6 0.000000 0.000000 0.000000 -0.003558 0.000000 0.049259
#
#
# Mechanical properties :
#
#
# Convention : Reuss Voigt Hill
#
# Bulk Modulus (GPa) = 42.62329 70.26413 56.44371
# Shear Modulus (GPa) = 26.58064 33.33736 29.95900
#
# Velocity S-wave (km/s) = 3.23977 3.62825 3.43950
# Velocity P-wave (km/s) = 5.55210 6.73038 6.16943
#
# Compressibility (1/GPa) = 0.02346135
#
# Stress axis : x y z
#
# Youngs Moduli (GPa) = 92.90092 176.10605 47.41765
#
# Poissons Ratio (x) = 0.51879 0.11127
# Poissons Ratio (y) = 0.27368 0.08264
# Poissons Ratio (z) = 0.21800 0.30690
#
# Static dielectric constant tensor:
#      x y z
#    x 2.122400 0.000000 -0.091940 
#    y 0.000000 2.008620 0.000000 
#    z -0.091940 0.000000 2.169880 
# 
# From -- ./inp_files/77362.got.cif
#   From: 2010.05.17/outbox.cif.g08.bks.cpg/sg15_39_cif.got.tgz:77362.got - 2010.06.03 18:47:42.
