data_PCOD9273059
_publ_section_title
;
Structure prediction by ZEFSAII (Michael W. Deem and Ramdas Pophale) SiO2 
 PCOD9273059
Probable space group: C 2/C
;
_chemical_formula_sum "Si O2"
_cell_formula_units_Z 64
_cell_length_a 17.046254
_cell_length_b 11.413019
_cell_length_c 28.066568
_cell_angle_alpha 90.000000
_cell_angle_beta 147.859676
_cell_angle_gamma 90.000000
_cell_volume 2904.865731
_symmetry_space_group_name_H-M "C 2/C"
_symmetry_group_IT_number 15
_symmetry_cell_setting 'monoclinic'
loop_
_space_group_symop_operation_xyz
x,y,z
-x,y,1/2-z
-x,-y,-z
x,-y,1/2+z
1/2+x,1/2+y,z
1/2-x,1/2+y,1/2-z
1/2-x,1/2-y,-z
1/2+x,1/2-y,1/2+z
loop_
_atom_site_type_symbol
_atom_site_label
_atom_site_fract_x
_atom_site_fract_y
_atom_site_fract_z
Si Si1 0.918011 0.626396 0.608163
Si Si2 0.005857 0.404698 0.807384
Si Si3 0.440990 0.418238 0.364888
Si Si4 0.208477 0.209405 0.043991
Si Si5 0.175078 0.940652 0.348475
Si Si6 0.675782 0.618275 0.133061
Si Si7 0.617700 0.608296 0.398454
Si Si8 0.660469 0.131434 0.661383
O O1 0.954952 0.540970 0.670254
O O2 0.750800 0.613442 0.504802
O O3 0.947482 0.761376 0.636036
O O4 0.020805 0.581754 0.617561
O O5 0.142457 0.341651 0.902740
O O6 0.000000 0.360883 0.750000
O O7 0.840942 0.385174 0.739997
O O8 0.563299 0.322847 0.440546
O O9 0.403926 0.501611 0.390784
O O10 0.505976 0.509640 0.359648
O O11 0.293014 0.363473 0.267609
O O12 0.248681 0.341315 0.079356
O O13 0.188462 0.136282 0.083173
O O14 0.268988 0.934090 0.347957
O O15 0.000000 0.912405 0.250000
O O16 0.175419 0.062614 0.377169
O O17 0.609927 0.739385 0.118628
#
# Coordination Sequence:
#
# PCOD9273059 Si02
#       8
#     8   8   8   8   8   8   8   8
#     4  11  23  44  63  93 128 173 217 267 314 401
#     4  10  20  37  62  90 121 161 210 263 322 382
#     4  12  21  38  64  94 124 170 216 269 327 392
#     4  10  22  38  63  95 125 161 215 271 324 384
#     4  11  23  44  65  96 132 171 214 276 335 386
#     4  10  21  39  61  90 127 162 209 275 328 377
#     4  11  25  41  66  90 129 173 214 261 332 384
#     4  11  23  40  67  91 131 171 220 270 331 390
#
# _framework density 22.031998000000002
#
# number of rings (size 3 to 8) (size 9 to 14) (size 15 to 20)
#    0.000    1.250    5.000    2.250    0.000    2.500 
#    0.000    0.000    5.500    0.000    0.000    0.000 
#    0.000    0.000    0.000    0.000    0.000    0.000 
#
# Total GULP energy -178707.338564 kJ/mol
# GULP energy per Si atom -5584.604330 kJ/mol
# Density = 2.198185 g / cm^3
# Si number density = 22.031998 Si / 1000 Ang^3
#
#
#
# Elastic Constant Matrix: (Units=GPa)
#
#
# Indices 1 2 3 4 5 6 
#
# 1 65.1510 34.1131 -4.2834 0.0000 0.2102 0.0000
# 2 34.1131 55.5172 -4.3237 0.0000 -11.7935 0.0000
# 3 -4.2834 -4.3237 27.6335 0.0000 9.1869 0.0000
# 4 0.0000 0.0000 0.0000 21.1349 0.0000 -3.9945
# 5 0.2102 -11.7935 9.1869 0.0000 25.1955 0.0000
# 6 0.0000 0.0000 0.0000 -3.9945 0.0000 32.6001
#
#
#
# Elastic Compliance Matrix: (Units=1/GPa)
#
#
# Indices 1 2 3 4 5 6 
#
# 1 0.024413 -0.016703 0.004367 0.000000 -0.009614 0.000000
# 2 -0.016703 0.031429 -0.002969 0.000000 0.015933 0.000000
# 3 0.004367 -0.002969 0.041961 0.000000 -0.016726 0.000000
# 4 0.000000 0.000000 0.000000 0.048437 0.000000 0.005935
# 5 -0.009614 0.015933 -0.016726 0.000000 0.053327 0.000000
# 6 0.000000 0.000000 0.000000 0.005935 0.000000 0.031402
#
#
# Mechanical properties :
#
#
# Convention : Reuss Voigt Hill
#
# Bulk Modulus (GPa) = 14.88224 22.14597 18.51411
# Shear Modulus (GPa) = 17.60716 23.97247 20.78982
#
# Velocity S-wave (km/s) = 2.83001 3.30218 3.07517
# Velocity P-wave (km/s) = 4.17710 4.96112 4.58589
#
# Compressibility (1/GPa) = 0.06719419
#
# Stress axis : x y z
#
# Youngs Moduli (GPa) = 40.96215 31.81750 23.83160
#
# Poissons Ratio (x) = 0.53145 -0.10407
# Poissons Ratio (y) = 0.68419 0.07075
# Poissons Ratio (z) = -0.17888 0.09445
#
# Static dielectric constant tensor:
#      x y z
#    x 1.859560 0.000000 -0.002540 
#    y 0.000000 1.794250 0.000000 
#    z -0.002540 0.000000 1.795730 
# 
# From -- ./inp_files/316224.got.cif
#   From: 2010.05.17/outbox.cif.g08.bks.cpg/sg15_159_cif.got.tgz:316224.got - 2010.06.03 18:47:42.
