data_PCOD9273191
_publ_section_title
;
Structure prediction by ZEFSAII (Michael W. Deem and Ramdas Pophale) SiO2 
 PCOD9273191
Probable space group: C 2/C
;
_chemical_formula_sum "Si O2"
_cell_formula_units_Z 60
_cell_length_a 20.600428
_cell_length_b 18.260937
_cell_length_c 7.988034
_cell_angle_alpha 90.000000
_cell_angle_beta 65.391645
_cell_angle_gamma 90.000000
_cell_volume 2732.038914
_symmetry_space_group_name_H-M "C 2/C"
_symmetry_group_IT_number 15
_symmetry_cell_setting 'monoclinic'
loop_
_space_group_symop_operation_xyz
x,y,z
-x,y,1/2-z
-x,-y,-z
x,-y,1/2+z
1/2+x,1/2+y,z
1/2-x,1/2+y,1/2-z
1/2-x,1/2-y,-z
1/2+x,1/2-y,1/2+z
loop_
_atom_site_type_symbol
_atom_site_label
_atom_site_fract_x
_atom_site_fract_y
_atom_site_fract_z
Si Si1 0.118305 0.004411 0.793470
Si Si2 0.993328 0.895003 0.553831
Si Si3 0.158189 0.407385 0.017762
Si Si4 0.078460 0.492419 0.833333
Si Si5 0.000000 0.628092 0.250000
Si Si6 0.833332 0.751616 0.950817
Si Si7 0.307669 0.413630 0.052359
Si Si8 0.533214 0.228984 0.897600
O O1 0.139700 0.970963 0.593228
O O2 0.053862 0.061899 0.886163
O O3 0.189888 0.048200 0.771118
O O4 0.083003 0.930663 0.911826
O O5 0.000000 0.905539 0.750000
O O6 0.996335 0.808891 0.522532
O O7 0.100973 0.432924 0.219214
O O8 0.150232 0.323254 0.966582
O O9 0.139978 0.463343 0.889765
O O10 0.234592 0.412345 0.027284
O O11 0.066080 0.426182 0.716196
O O12 0.000000 0.500000 0.000000
O O13 0.984326 0.674990 0.432634
O O14 0.842295 0.832583 0.016762
O O15 0.883186 0.741928 0.734623
O O16 0.750000 0.750000 0.000000
O O17 0.500000 0.209695 0.750000
#
# Coordination Sequence:
#
# PCOD9273191 Si02
#       8
#     8   8   8   8   4   8   8   8
#     4  11  20  36  60  90 129 166 215 267 304 392
#     4  10  20  37  63  90 135 178 216 259 336 393
#     4  11  24  41  69  89 127 171 216 273 344 406
#     4  12  23  45  67  95 129 164 220 292 348 404
#     4  12  26  40  72 106 130 166 242 284 350 418
#     4  10  22  42  67  91 130 184 220 269 349 416
#     4  11  22  40  63  95 128 173 223 261 333 409
#     4  11  22  43  69  99 138 180 226 285 341 409
#
# _framework density 21.961618000000001
#
# number of rings (size 3 to 8) (size 9 to 14) (size 15 to 20)
#    0.000    1.067    4.000    3.200    0.000    1.067 
#    0.000    0.000    0.000    2.400    0.000    0.000 
#    0.000    0.000    0.000    0.000    0.000    0.000 
#
# Total GULP energy -167231.250117 kJ/mol
# GULP energy per Si atom -5574.375004 kJ/mol
# Density = 2.191163 g / cm^3
# Si number density = 21.961618 Si / 1000 Ang^3
#
#
#
# Elastic Constant Matrix: (Units=GPa)
#
#
# Indices 1 2 3 4 5 6 
#
# 1 96.4035 39.7486 14.1334 0.0000 -1.1337 0.0000
# 2 39.7486 158.0352 47.2543 0.0000 17.4684 0.0000
# 3 14.1334 47.2543 51.0921 0.0000 -3.7046 0.0000
# 4 0.0000 0.0000 0.0000 38.7891 0.0000 0.4722
# 5 -1.1337 17.4684 -3.7046 0.0000 26.7628 0.0000
# 6 0.0000 0.0000 0.0000 0.4722 0.0000 33.3367
#
#
#
# Elastic Compliance Matrix: (Units=1/GPa)
#
#
# Indices 1 2 3 4 5 6 
#
# 1 0.011741 -0.003211 -0.000091 0.000000 0.002581 0.000000
# 2 -0.003211 0.011098 -0.010011 0.000000 -0.008766 0.000000
# 3 -0.000091 -0.010011 0.029628 0.000000 0.010632 0.000000
# 4 0.000000 0.000000 0.000000 0.025785 0.000000 -0.000365
# 5 0.002581 -0.008766 0.010632 0.000000 0.044668 0.000000
# 6 0.000000 0.000000 0.000000 -0.000365 0.000000 0.030002
#
#
# Mechanical properties :
#
#
# Convention : Reuss Voigt Hill
#
# Bulk Modulus (GPa) = 38.70002 56.42261 47.56131
# Shear Modulus (GPa) = 26.57298 33.40402 29.98850
#
# Velocity S-wave (km/s) = 3.48224 3.90425 3.69927
# Velocity P-wave (km/s) = 5.81618 6.78760 6.32058
#
# Compressibility (1/GPa) = 0.02583978
#
# Stress axis : x y z
#
# Youngs Moduli (GPa) = 85.17367 90.10806 33.75194
#
# Poissons Ratio (x) = 0.28935 0.00306
# Poissons Ratio (y) = 0.27350 0.33791
# Poissons Ratio (z) = 0.00773 0.90211
#
# Static dielectric constant tensor:
#      x y z
#    x 1.871230 0.000000 0.037410 
#    y 0.000000 1.857940 0.000000 
#    z 0.037410 0.000000 1.882040 
# 
# From -- ./inp_files/56569.got.cif
#   From: 2010.05.17/outbox.cif.g08.bks.cpg/sg15_29_cif.got.tgz:56569.got - 2010.06.03 18:47:42.
