data_PCOD9273094
_publ_section_title
;
Structure prediction by ZEFSAII (Michael W. Deem and Ramdas Pophale) SiO2 
 PCOD9273094
Probable space group: C 2/C
;
_chemical_formula_sum "Si O2"
_cell_formula_units_Z 60
_cell_length_a 26.248827
_cell_length_b 16.361710
_cell_length_c 22.269265
_cell_angle_alpha 90.000000
_cell_angle_beta 159.749771
_cell_angle_gamma 90.000000
_cell_volume 3310.336801
_symmetry_space_group_name_H-M "C 2/C"
_symmetry_group_IT_number 15
_symmetry_cell_setting 'monoclinic'
loop_
_space_group_symop_operation_xyz
x,y,z
-x,y,1/2-z
-x,-y,-z
x,-y,1/2+z
1/2+x,1/2+y,z
1/2-x,1/2+y,1/2-z
1/2-x,1/2-y,-z
1/2+x,1/2-y,1/2+z
loop_
_atom_site_type_symbol
_atom_site_label
_atom_site_fract_x
_atom_site_fract_y
_atom_site_fract_z
Si Si1 0.609620 0.987143 0.755737
Si Si2 0.531498 0.171519 0.454653
Si Si3 0.829222 0.124456 0.566055
Si Si4 0.767684 0.319479 0.970448
Si Si5 0.534509 0.276427 0.907680
Si Si6 0.000000 0.550488 0.750000
Si Si7 0.725829 0.281900 0.374233
Si Si8 0.344405 0.851504 0.274891
O O1 0.490272 0.004819 0.676018
O O2 0.637736 0.064389 0.743398
O O3 0.555907 0.910580 0.657991
O O4 0.744293 0.952182 0.944202
O O5 0.419847 0.247883 0.320637
O O6 0.659948 0.187021 0.548615
O O7 0.596328 0.155173 0.592018
O O8 0.788109 0.203525 0.479855
O O9 0.795519 0.150065 0.597524
O O10 0.000000 0.109664 0.750000
O O11 0.599817 0.333662 0.763781
O O12 0.750000 0.250000 0.000000
O O13 0.881507 0.281274 0.047831
O O14 0.853677 0.394946 0.093285
O O15 0.444314 0.215230 0.850614
O O16 0.671905 0.327066 0.085095
#
# Coordination Sequence:
#
# PCOD9273094 Si02
#       8
#     8   8   8   8   8   4   8   8
#     4  11  24  36  58  89 124 162 194 247 321 363
#     4  11  22  39  63  85 121 162 201 254 293 365
#     4  10  20  37  62  91 129 149 193 258 314 371
#     4  11  18  33  57  85 113 144 187 251 296 337
#     4  10  21  36  59  84 112 154 207 246 284 344
#     4  12  20  36  56  84 120 152 192 240 300 372
#     4  10  20  37  64  96 115 152 206 251 310 359
#     4  11  22  41  58  86 120 163 214 243 296 358
#
# _framework density 18.125043999999999
#
# number of rings (size 3 to 8) (size 9 to 14) (size 15 to 20)
#    0.000    1.333    4.000    2.800    0.000    1.067 
#    0.000    0.000    0.000    1.600    0.000    0.000 
#    0.000    0.000    0.000    0.000    0.000    0.000 
#
# Total GULP energy -167190.255281 kJ/mol
# GULP energy per Si atom -5573.008509 kJ/mol
# Density = 1.808379 g / cm^3
# Si number density = 18.125044 Si / 1000 Ang^3
#
#
#
# Elastic Constant Matrix: (Units=GPa)
#
#
# Indices 1 2 3 4 5 6 
#
# 1 85.4011 35.8147 56.0734 -0.0006 -0.7934 -0.0005
# 2 35.8147 62.2540 45.7542 -0.0018 -4.1277 0.0004
# 3 56.0734 45.7542 146.8944 -0.0001 0.2272 0.0017
# 4 -0.0006 -0.0018 -0.0001 4.2808 -0.0004 0.5890
# 5 -0.7934 -4.1277 0.2272 -0.0004 32.3978 0.0014
# 6 -0.0005 0.0004 0.0017 0.5890 0.0014 20.1335
#
#
#
# Elastic Compliance Matrix: (Units=1/GPa)
#
#
# Indices 1 2 3 4 5 6 
#
# 1 0.017554 -0.006745 -0.004599 -0.000001 -0.000397 0.000001
# 2 -0.006745 0.023663 -0.004800 0.000009 0.002883 -0.000001
# 3 -0.004599 -0.004800 0.010060 -0.000002 -0.000795 -0.000001
# 4 -0.000001 0.000009 -0.000002 0.234544 0.000004 -0.006862
# 5 -0.000397 0.002883 -0.000795 0.000004 0.031229 -0.000002
# 6 0.000001 -0.000001 -0.000001 -0.006862 -0.000002 0.049869
#
#
# Mechanical properties :
#
#
# Convention : Reuss Voigt Hill
#
# Bulk Modulus (GPa) = 52.66569 63.31493 57.99031
# Shear Modulus (GPa) = 12.32931 21.82290 17.07611
#
# Velocity S-wave (km/s) = 2.61096 3.47366 3.07274
# Velocity P-wave (km/s) = 6.18138 7.14819 6.68229
#
# Compressibility (1/GPa) = 0.01898769
#
# Stress axis : x y z
#
# Youngs Moduli (GPa) = 56.96595 42.26069 99.40662
#
# Poissons Ratio (x) = 0.28505 0.45721
# Poissons Ratio (y) = 0.38423 0.47716
# Poissons Ratio (z) = 0.26201 0.20286
#
# Static dielectric constant tensor:
#      x y z
#    x 1.685290 0.000010 -0.009840 
#    y 0.000010 1.646920 0.000000 
#    z -0.009840 0.000000 1.679110 
# 
# From -- ./inp_files/61568.got.cif
#   From: 2010.05.17/outbox.cif.g08.bks.cpg/sg15_31_cif.got.tgz:61568.got - 2010.06.03 18:47:42.
