data_PCOD9273517
_publ_section_title
;
Structure prediction by ZEFSAII (Michael W. Deem and Ramdas Pophale) SiO2 
 PCOD9273517
Probable space group: C 2/C
;
_chemical_formula_sum "Si O2"
_cell_formula_units_Z 48
_cell_length_a 8.203335
_cell_length_b 18.523784
_cell_length_c 27.277450
_cell_angle_alpha 90.000000
_cell_angle_beta 35.668106
_cell_angle_gamma 90.000000
_cell_volume 2416.900796
_symmetry_space_group_name_H-M "C 2/C"
_symmetry_group_IT_number 15
_symmetry_cell_setting 'monoclinic'
loop_
_space_group_symop_operation_xyz
x,y,z
-x,y,1/2-z
-x,-y,-z
x,-y,1/2+z
1/2+x,1/2+y,z
1/2-x,1/2+y,1/2-z
1/2-x,1/2-y,-z
1/2+x,1/2-y,1/2+z
loop_
_atom_site_type_symbol
_atom_site_label
_atom_site_fract_x
_atom_site_fract_y
_atom_site_fract_z
Si Si1 0.010556 0.601979 0.113121
Si Si2 0.158801 0.612190 0.488485
Si Si3 0.422306 0.768919 0.574216
Si Si4 0.059731 0.496481 0.292357
Si Si5 0.671211 0.381260 0.440507
Si Si6 0.177738 0.995454 0.123083
O O1 0.869945 0.677684 0.132649
O O2 0.972656 0.576582 0.177727
O O3 0.861779 0.540838 0.116680
O O4 0.339000 0.603234 0.019884
O O5 0.251539 0.627587 0.521091
O O6 0.352715 0.551091 0.415172
O O7 0.137494 0.681755 0.458972
O O8 0.855806 0.573445 0.563480
O O9 0.750000 0.750000 0.500000
O O10 0.273428 0.692649 0.602812
O O11 0.383700 0.475122 0.218029
O O12 0.000000 0.492462 0.250000
O O13 0.850439 0.445231 0.373284
#
# Coordination Sequence:
#
# PCOD9273517 Si02
#       6
#     8   8   8   8   8   8
#     4  10  21  41  63  89 125 163 206 253 312 380
#     4  10  20  37  67  86 126 159 214 248 313 374
#     4   9  21  38  64  89 122 164 209 250 310 383
#     4  12  25  36  60  96 130 153 212 267 314 359
#     4  11  22  39  63  95 121 166 206 258 311 379
#     4  10  22  37  61  96 119 161 200 266 310 365
#
# _framework density 19.860144999999999
#
# number of rings (size 3 to 8) (size 9 to 14) (size 15 to 20)
#    0.000    1.667    1.667    2.500    9.333    0.000 
#    0.000    3.333    0.000    0.000    0.000    0.000 
#    0.000    0.000    0.000    0.000    0.000    0.000 
#
# Total GULP energy -134005.244423 kJ/mol
# GULP energy per Si atom -5583.551851 kJ/mol
# Density = 1.981494 g / cm^3
# Si number density = 19.860145 Si / 1000 Ang^3
#
#
#
# Elastic Constant Matrix: (Units=GPa)
#
#
# Indices 1 2 3 4 5 6 
#
# 1 105.2958 33.7388 13.8552 -0.0105 4.8173 0.0126
# 2 33.7388 67.9835 -4.2390 -0.0341 0.7404 -0.0174
# 3 13.8552 -4.2390 54.6148 0.0088 -13.4973 -0.0426
# 4 -0.0105 -0.0341 0.0088 5.5226 -0.0171 0.5891
# 5 4.8173 0.7404 -13.4973 -0.0171 22.6210 -0.0231
# 6 0.0126 -0.0174 -0.0426 0.5891 -0.0231 27.6052
#
#
#
# Elastic Compliance Matrix: (Units=1/GPa)
#
#
# Indices 1 2 3 4 5 6 
#
# 1 0.012468 -0.006440 -0.005005 -0.000023 -0.005431 -0.000022
# 2 -0.006440 0.018109 0.003791 0.000101 0.003041 0.000021
# 3 -0.005005 0.003791 0.023585 0.000017 0.015014 0.000053
# 4 -0.000023 0.000101 0.000017 0.181487 0.000145 -0.003873
# 5 -0.005431 0.003041 0.015014 0.000145 0.054222 0.000070
# 6 -0.000022 0.000021 0.000053 -0.003873 0.000070 0.036308
#
#
# Mechanical properties :
#
#
# Convention : Reuss Voigt Hill
#
# Bulk Modulus (GPa) = 25.73842 34.95602 30.34722
# Shear Modulus (GPa) = 14.10683 23.45238 18.77960
#
# Velocity S-wave (km/s) = 2.66805 3.44012 3.07838
# Velocity P-wave (km/s) = 4.74124 5.78087 5.28667
#
# Compressibility (1/GPa) = 0.03885242
#
# Stress axis : x y z
#
# Youngs Moduli (GPa) = 80.20725 55.22116 42.40068
#
# Poissons Ratio (x) = 0.35565 0.21221
# Poissons Ratio (y) = 0.51657 -0.16074
# Poissons Ratio (z) = 0.40143 -0.20934
#
# Static dielectric constant tensor:
#      x y z
#    x 1.750340 0.000000 0.010860 
#    y 0.000000 1.700390 0.000020 
#    z 0.010860 0.000020 1.699210 
# 
# From -- ./inp_files/308910.got.cif
#   From: 2010.05.17/outbox.cif.g08.bks.cpg/sg15_155_cif.got.tgz:308910.got - 2010.06.03 18:47:42.
