data_PCOD9273880
_publ_section_title
;
Structure prediction by ZEFSAII (Michael W. Deem and Ramdas Pophale) SiO2 
 PCOD9273880
Probable space group: C 2/C
;
_chemical_formula_sum "Si O2"
_cell_formula_units_Z 60
_cell_length_a 8.303267
_cell_length_b 31.276953
_cell_length_c 9.867788
_cell_angle_alpha 90.000000
_cell_angle_beta 71.178304
_cell_angle_gamma 90.000000
_cell_volume 2425.639924
_symmetry_space_group_name_H-M "C 2/C"
_symmetry_group_IT_number 15
_symmetry_cell_setting 'monoclinic'
loop_
_space_group_symop_operation_xyz
x,y,z
-x,y,1/2-z
-x,-y,-z
x,-y,1/2+z
1/2+x,1/2+y,z
1/2-x,1/2+y,1/2-z
1/2-x,1/2-y,-z
1/2+x,1/2-y,1/2+z
loop_
_atom_site_type_symbol
_atom_site_label
_atom_site_fract_x
_atom_site_fract_y
_atom_site_fract_z
Si Si1 0.185271 0.000541 0.380798
Si Si2 0.293038 0.208996 0.288248
Si Si3 0.500000 0.558485 0.750000
Si Si4 0.228968 0.416817 0.527331
Si Si5 0.360028 0.826911 0.019373
Si Si6 0.160960 0.197001 0.804523
Si Si7 0.256623 0.160165 0.050745
Si Si8 0.081430 0.428091 0.080803
O O1 0.313712 0.971469 0.430423
O O2 0.149090 0.973355 0.257253
O O3 0.243863 0.049528 0.359390
O O4 0.000000 0.000000 0.500000
O O5 0.500000 0.202965 0.250000
O O6 0.251024 0.206046 0.459104
O O7 0.263682 0.255120 0.229158
O O8 0.205135 0.173541 0.216605
O O9 0.592258 0.584701 0.605784
O O10 0.164623 0.369045 0.565749
O O11 0.073903 0.434088 0.479018
O O12 0.284702 0.834591 0.188264
O O13 0.555618 0.817468 0.998910
O O14 0.147362 0.180935 0.960807
O O15 0.000000 0.197105 0.750000
O O16 0.298883 0.110836 0.004803
O O17 0.000000 0.417318 0.250000
#
# Coordination Sequence:
#
# PCOD9273880 Si02
#       8
#     8   8   4   8   8   8   8   8
#     4  10  22  38  58  85 124 158 196 252 322 359
#     4   9  20  40  59  87 127 163 202 262 320 377
#     4  10  20  38  60  84 122 160 192 252 314 370
#     4  10  21  37  61  89 116 159 205 259 305 370
#     4  10  21  39  63  88 123 162 212 255 316 371
#     4  11  22  35  62  92 120 164 211 256 314 376
#     4  10  21  39  63  92 122 162 211 264 310 368
#     4  11  20  38  63  93 116 160 221 259 305 377
#
# _framework density 24.735738999999999
#
# number of rings (size 3 to 8) (size 9 to 14) (size 15 to 20)
#    0.000    1.867    1.333    3.200    0.933    1.067 
#    4.800    4.000    0.000    0.000    0.000    0.000 
#    0.000    0.000    0.000    0.000    0.000    0.000 
#
# Total GULP energy -167364.703666 kJ/mol
# GULP energy per Si atom -5578.823456 kJ/mol
# Density = 2.467944 g / cm^3
# Si number density = 24.735739 Si / 1000 Ang^3
#
#
#
# Elastic Constant Matrix: (Units=GPa)
#
#
# Indices 1 2 3 4 5 6 
#
# 1 75.7887 22.7310 17.0528 0.0000 12.8892 0.0000
# 2 22.7310 109.5273 8.6605 0.0000 9.7818 0.0000
# 3 17.0528 8.6605 60.3035 0.0000 16.0250 0.0000
# 4 0.0000 0.0000 0.0000 28.9259 0.0000 11.0662
# 5 12.8892 9.7818 16.0250 0.0000 27.5774 0.0000
# 6 0.0000 0.0000 0.0000 11.0662 0.0000 22.8411
#
#
#
# Elastic Compliance Matrix: (Units=1/GPa)
#
#
# Indices 1 2 3 4 5 6 
#
# 1 0.015374 -0.002556 -0.002734 0.000000 -0.004690 0.000000
# 2 -0.002556 0.009869 -0.000097 0.000000 -0.002250 0.000000
# 3 -0.002734 -0.000097 0.020130 0.000000 -0.010385 0.000000
# 4 0.000000 0.000000 0.000000 0.042437 0.000000 -0.020560
# 5 -0.004690 -0.002250 -0.010385 0.000000 0.045286 0.000000
# 6 0.000000 0.000000 0.000000 -0.020560 0.000000 0.053742
#
#
# Mechanical properties :
#
#
# Convention : Reuss Voigt Hill
#
# Bulk Modulus (GPa) = 28.90200 38.05645 33.47923
# Shear Modulus (GPa) = 23.90704 29.01390 26.46047
#
# Velocity S-wave (km/s) = 3.11223 3.42856 3.27422
# Velocity P-wave (km/s) = 4.96229 5.57602 5.27808
#
# Compressibility (1/GPa) = 0.03459968
#
# Stress axis : x y z
#
# Youngs Moduli (GPa) = 65.04522 101.32617 49.67830
#
# Poissons Ratio (x) = 0.25895 0.13582
# Poissons Ratio (y) = 0.16623 0.00481
# Poissons Ratio (z) = 0.17784 0.00981
#
# Static dielectric constant tensor:
#      x y z
#    x 1.968950 0.000000 -0.065220 
#    y 0.000000 2.003190 0.000000 
#    z -0.065220 0.000000 2.122080 
# 
# From -- ./inp_files/82198.got.cif
#   From: 2010.05.17/outbox.cif.g08.bks.cpg/sg15_42_cif.got.tgz:82198.got - 2010.06.03 18:47:42.
