data_PCOD9273702
_publ_section_title
;
Structure prediction by ZEFSAII (Michael W. Deem and Ramdas Pophale) SiO2 
 PCOD9273702
Probable space group: C 2/C
;
_chemical_formula_sum "Si O2"
_cell_formula_units_Z 64
_cell_length_a 16.158417
_cell_length_b 31.617987
_cell_length_c 7.977084
_cell_angle_alpha 90.000000
_cell_angle_beta 46.362810
_cell_angle_gamma 90.000000
_cell_volume 2949.512354
_symmetry_space_group_name_H-M "C 2/C"
_symmetry_group_IT_number 15
_symmetry_cell_setting 'monoclinic'
loop_
_space_group_symop_operation_xyz
x,y,z
-x,y,1/2-z
-x,-y,-z
x,-y,1/2+z
1/2+x,1/2+y,z
1/2-x,1/2+y,1/2-z
1/2-x,1/2-y,-z
1/2+x,1/2-y,1/2+z
loop_
_atom_site_type_symbol
_atom_site_label
_atom_site_fract_x
_atom_site_fract_y
_atom_site_fract_z
Si Si1 0.753757 0.163445 0.231817
Si Si2 0.878975 0.539441 0.830483
Si Si3 0.016178 0.201259 0.424408
Si Si4 0.092922 0.038542 0.851718
Si Si5 0.479914 0.203471 0.080717
Si Si6 0.893716 0.371189 0.271670
Si Si7 0.100441 0.127136 0.741784
Si Si8 0.257191 0.521239 0.168342
O O1 0.866459 0.188158 0.141504
O O2 0.647139 0.189976 0.304969
O O3 0.709383 0.141493 0.463319
O O4 0.788321 0.131537 0.032220
O O5 0.877841 0.581897 0.720483
O O6 0.850778 0.494927 0.784519
O O7 0.000000 0.535615 0.750000
O O8 0.783268 0.545543 0.110926
O O9 0.000000 0.191992 0.250000
O O10 0.003862 0.251238 0.465532
O O11 0.918558 0.172691 0.647833
O O12 0.076854 0.088389 0.902675
O O13 0.146794 0.039178 0.589166
O O14 0.189193 0.022487 0.841754
O O15 0.000000 0.000000 0.000000
O O16 0.500000 0.208083 0.250000
O O17 0.568431 0.166907 0.899420
O O18 0.000000 0.375727 0.250000
O O19 0.000000 0.121025 0.750000
#
# Coordination Sequence:
#
# PCOD9273702 Si02
#       8
#     8   8   8   8   8   8   8   8
#     4  10  22  42  64  87 126 163 199 260 305 358
#     4  10  20  38  58  84 118 155 201 256 301 354
#     4  11  25  41  62  92 123 160 207 250 306 373
#     4  11  22  38  58  85 122 159 199 250 298 358
#     4  11  24  42  64  94 123 159 205 250 310 373
#     4   9  20  38  62  88 118 160 206 250 308 366
#     4  10  22  40  62  90 120 161 205 248 307 362
#     4  10  22  35  57  86 115 159 205 240 303 365
#
# _framework density 21.698501
#
# number of rings (size 3 to 8) (size 9 to 14) (size 15 to 20)
#    0.000    1.750    0.000    4.500    0.000   11.000 
#    0.000    3.125    0.000    0.000    0.000    0.000 
#    0.000    0.000    0.000    0.000    0.000    0.000 
#
# Total GULP energy -178257.557478 kJ/mol
# GULP energy per Si atom -5570.548671 kJ/mol
# Density = 2.164911 g / cm^3
# Si number density = 21.698501 Si / 1000 Ang^3
#
#
#
# Elastic Constant Matrix: (Units=GPa)
#
#
# Indices 1 2 3 4 5 6 
#
# 1 55.4056 11.1228 2.1595 0.0000 2.5676 0.0000
# 2 11.1228 97.0095 22.0225 0.0000 -11.0205 0.0000
# 3 2.1595 22.0225 74.9972 0.0000 -0.6931 0.0000
# 4 0.0000 0.0000 0.0000 12.7834 0.0000 15.7452
# 5 2.5676 -11.0205 -0.6931 0.0000 28.3665 0.0000
# 6 0.0000 0.0000 0.0000 15.7452 0.0000 1.8668
#
#
#
# Elastic Compliance Matrix: (Units=1/GPa)
#
#
# Indices 1 2 3 4 5 6 
#
# 1 0.018662 -0.002478 0.000166 0.000000 -0.002648 0.000000
# 2 -0.002478 0.011901 -0.003379 0.000000 0.004765 0.000000
# 3 0.000166 -0.003379 0.014312 0.000000 -0.000978 0.000000
# 4 0.000000 0.000000 0.000000 -0.008332 0.000000 0.070276
# 5 -0.002648 0.004765 -0.000978 0.000000 0.037320 0.000000
# 6 0.000000 0.000000 0.000000 0.070276 0.000000 -0.057056
#
#
# Mechanical properties :
#
#
# Convention : Reuss Voigt Hill
#
# Bulk Modulus (GPa) = 29.85747 33.11355 31.48551
# Shear Modulus (GPa) = 127.05073 21.41049 74.23061
#
# Velocity S-wave (km/s) = 7.66028 3.14463 5.85528
# Velocity P-wave (km/s) = 9.59322 5.33655 7.76237
#
# Compressibility (1/GPa) = 0.03349246
#
# Stress axis : x y z
#
# Youngs Moduli (GPa) = 53.58345 84.02730 69.86994
#
# Poissons Ratio (x) = 0.20824 -0.01159
# Poissons Ratio (y) = 0.13279 0.23611
# Poissons Ratio (z) = -0.00889 0.28395
#
# Static dielectric constant tensor:
#      x y z
#    x 1.654760 0.000000 0.116840 
#    y 0.000000 1.873090 0.000000 
#    z 0.116840 0.000000 1.748060 
# 
# From -- ./inp_files/52792.got.cif
#   From: 2010.05.17/outbox.cif.g08.bks.cpg/sg15_27_cif.got.tgz:52792.got - 2010.06.03 18:47:42.
