data_PCOD9273691
_publ_section_title
;
Structure prediction by ZEFSAII (Michael W. Deem and Ramdas Pophale) SiO2 
 PCOD9273691
Probable space group: C 2/C
;
_chemical_formula_sum "Si O2"
_cell_formula_units_Z 40
_cell_length_a 16.211413
_cell_length_b 13.211530
_cell_length_c 15.204210
_cell_angle_alpha 90.000000
_cell_angle_beta 33.736868
_cell_angle_gamma 90.000000
_cell_volume 1808.538698
_symmetry_space_group_name_H-M "C 2/C"
_symmetry_group_IT_number 15
_symmetry_cell_setting 'monoclinic'
loop_
_space_group_symop_operation_xyz
x,y,z
-x,y,1/2-z
-x,-y,-z
x,-y,1/2+z
1/2+x,1/2+y,z
1/2-x,1/2+y,1/2-z
1/2-x,1/2-y,-z
1/2+x,1/2-y,1/2+z
loop_
_atom_site_type_symbol
_atom_site_label
_atom_site_fract_x
_atom_site_fract_y
_atom_site_fract_z
Si Si1 0.382259 0.868996 0.024529
Si Si2 0.074388 0.354370 0.321220
Si Si3 0.269948 0.325663 0.901142
Si Si4 0.133522 0.293333 0.702873
Si Si5 0.793213 0.502123 0.445546
O O1 0.366022 0.898893 0.139801
O O2 0.246288 0.797453 0.116599
O O3 0.539348 0.812876 0.874071
O O4 0.387997 0.953707 0.943925
O O5 0.133628 0.239164 0.252541
O O6 0.134009 0.423424 0.187939
O O7 0.897249 0.345700 0.482368
O O8 0.250000 0.250000 0.000000
O O9 0.323399 0.432104 0.896948
O O10 0.226300 0.393660 0.591672
O O11 0.000000 0.273954 0.750000
#
# Coordination Sequence:
#
# PCOD9273691 Si02
#       5
#     8   8   8   8   8
#     4  11  22  37  60  87 116 151 193 241 287 340
#     4  11  22  37  60  88 116 152 194 237 289 343
#     4  10  20  38  58  82 117 151 188 234 284 341
#     4  10  20  38  60  83 115 152 192 239 289 340
#     4  10  21  38  61  86 113 151 196 239 283 339
#
# _framework density 22.117305000000002
#
# number of rings (size 3 to 8) (size 9 to 14) (size 15 to 20)
#    0.000    1.600    0.000    9.600    0.000    4.800 
#    0.000   12.000    0.000   12.000    0.000    0.000 
#    0.000    0.000    0.000    0.000    0.000    0.000 
#
# Total GULP energy -111338.346503 kJ/mol
# GULP energy per Si atom -5566.917325 kJ/mol
# Density = 2.206696 g / cm^3
# Si number density = 22.117305 Si / 1000 Ang^3
#
#
#
# Elastic Constant Matrix: (Units=GPa)
#
#
# Indices 1 2 3 4 5 6 
#
# 1 117.4492 47.8989 32.8347 0.0000 25.1036 0.0000
# 2 47.8989 88.6539 40.8834 0.0000 -9.6814 0.0000
# 3 32.8347 40.8834 83.9682 0.0000 7.7413 0.0000
# 4 0.0000 0.0000 0.0000 41.4519 0.0000 6.7245
# 5 25.1036 -9.6814 7.7413 0.0000 34.7382 0.0000
# 6 0.0000 0.0000 0.0000 6.7245 0.0000 16.3507
#
#
#
# Elastic Compliance Matrix: (Units=1/GPa)
#
#
# Indices 1 2 3 4 5 6 
#
# 1 0.015565 -0.009972 0.000063 0.000000 -0.014041 0.000000
# 2 -0.009972 0.022154 -0.008291 0.000000 0.015228 0.000000
# 3 0.000063 -0.008291 0.016477 0.000000 -0.006028 0.000000
# 4 0.000000 0.000000 0.000000 0.025849 0.000000 -0.010631
# 5 -0.014041 0.015228 -0.006028 0.000000 0.044521 0.000000
# 6 0.000000 0.000000 0.000000 -0.010631 0.000000 0.065532
#
#
# Mechanical properties :
#
#
# Convention : Reuss Voigt Hill
#
# Bulk Modulus (GPa) = 56.19116 59.25614 57.72365
# Shear Modulus (GPa) = 21.51195 29.73844 25.62520
#
# Velocity S-wave (km/s) = 3.12208 3.67083 3.40752
# Velocity P-wave (km/s) = 6.20143 6.69452 6.45268
#
# Compressibility (1/GPa) = 0.01779640
#
# Stress axis : x y z
#
# Youngs Moduli (GPa) = 64.24851 45.13838 60.69013
#
# Poissons Ratio (x) = 0.45012 -0.00385
# Poissons Ratio (y) = 0.64069 0.50319
# Poissons Ratio (z) = -0.00408 0.37425
#
# Static dielectric constant tensor:
#      x y z
#    x 1.875270 0.000000 0.034330 
#    y 0.000000 1.978230 0.000000 
#    z 0.034330 0.000000 1.961170 
# 
# From -- ./inp_files/210767.got.cif
#   From: 2010.05.17/outbox.cif.g08.bks.cpg/sg15_106_cif.got.tgz:210767.got - 2010.06.03 18:47:42.
