data_PCOD9273735
_publ_section_title
;
Structure prediction by ZEFSAII (Michael W. Deem and Ramdas Pophale) SiO2 
 PCOD9273735
Probable space group: C 2/C
;
_chemical_formula_sum "Si O2"
_cell_formula_units_Z 60
_cell_length_a 27.826295
_cell_length_b 12.693518
_cell_length_c 28.563012
_cell_angle_alpha 90.000000
_cell_angle_beta 160.741936
_cell_angle_gamma 90.000000
_cell_volume 3327.537879
_symmetry_space_group_name_H-M "C 2/C"
_symmetry_group_IT_number 15
_symmetry_cell_setting 'monoclinic'
loop_
_space_group_symop_operation_xyz
x,y,z
-x,y,1/2-z
-x,-y,-z
x,-y,1/2+z
1/2+x,1/2+y,z
1/2-x,1/2+y,1/2-z
1/2-x,1/2-y,-z
1/2+x,1/2-y,1/2+z
loop_
_atom_site_type_symbol
_atom_site_label
_atom_site_fract_x
_atom_site_fract_y
_atom_site_fract_z
Si Si1 0.632093 0.344614 0.206582
Si Si2 0.266836 0.550437 0.163586
Si Si3 0.502723 0.851558 0.467666
Si Si4 0.932699 0.159749 0.037078
Si Si5 0.500000 0.762173 0.250000
Si Si6 0.297593 0.184445 0.482374
Si Si7 0.130474 0.187959 0.081405
Si Si8 0.787662 0.041204 0.816260
O O1 0.715128 0.426189 0.315681
O O2 0.711215 0.234294 0.282152
O O3 0.651663 0.394450 0.172349
O O4 0.459129 0.334165 0.048318
O O5 0.430559 0.593365 0.319753
O O6 0.202305 0.592884 0.055958
O O7 0.162957 0.598257 0.109090
O O8 0.497043 0.762610 0.422482
O O9 0.453804 0.782307 0.467743
O O10 0.385359 0.941923 0.348521
O O11 0.833426 0.207138 0.986993
O O12 0.843401 0.097766 0.914994
O O13 0.579180 0.825748 0.364598
O O14 0.635590 0.695253 0.354438
O O15 0.154768 0.077915 0.130658
#
# Coordination Sequence:
#
# PCOD9273735 Si02
#       8
#     8   8   8   8   4   8   8   8
#     4  11  24  36  52  73 108 152 201 246 272 321
#     4  11  22  36  54  80 110 151 190 227 282 338
#     4  10  22  32  53  73 103 146 199 240 268 323
#     4  11  19  35  53  83 110 156 185 223 272 333
#     4  10  20  38  58  90 116 146 174 224 294 356
#     4  10  21  36  60  85 121 147 176 226 284 359
#     4  11  23  36  50  72 105 150 201 244 277 301
#     4  11  22  35  54  72 109 153 203 239 275 315
#
# _framework density 18.03135
#
# number of rings (size 3 to 8) (size 9 to 14) (size 15 to 20)
#    0.000    1.333    4.000    2.800    7.467    1.067 
#    0.000    0.000    0.000    0.000    0.000    0.000 
#    0.000   18.133    0.000    0.000    0.000    0.000 
#
# Total GULP energy -167324.812615 kJ/mol
# GULP energy per Si atom -5577.493754 kJ/mol
# Density = 1.799031 g / cm^3
# Si number density = 18.031350 Si / 1000 Ang^3
#
#
#
# Elastic Constant Matrix: (Units=GPa)
#
#
# Indices 1 2 3 4 5 6 
#
# 1 51.7641 10.4095 32.3567 0.0011 -9.9226 0.0001
# 2 10.4095 60.7416 35.2391 0.0115 -6.6141 0.0025
# 3 32.3567 35.2391 113.2707 0.0061 -12.0339 0.0016
# 4 0.0011 0.0115 0.0061 32.6382 0.0025 -2.9555
# 5 -9.9226 -6.6141 -12.0339 0.0025 33.4167 0.0005
# 6 0.0001 0.0025 0.0016 -2.9555 0.0005 13.5360
#
#
#
# Elastic Compliance Matrix: (Units=1/GPa)
#
#
# Indices 1 2 3 4 5 6 
#
# 1 0.024265 0.000116 -0.006446 0.000000 0.004907 0.000000
# 2 0.000116 0.020194 -0.006121 -0.000006 0.001827 -0.000005
# 3 -0.006446 -0.006121 0.012729 0.000000 0.001458 0.000000
# 4 0.000000 -0.000006 0.000000 0.031257 -0.000004 0.006825
# 5 0.004907 0.001827 0.001458 -0.000004 0.032269 -0.000002
# 6 0.000000 -0.000005 0.000000 0.006825 -0.000002 0.075367
#
#
# Mechanical properties :
#
#
# Convention : Reuss Voigt Hill
#
# Bulk Modulus (GPa) = 30.97500 42.42075 36.69787
# Shear Modulus (GPa) = 21.57536 25.76958 23.67247
#
# Velocity S-wave (km/s) = 3.46287 3.78452 3.62726
# Velocity P-wave (km/s) = 5.76232 6.53253 6.15947
#
# Compressibility (1/GPa) = 0.03228410
#
# Stress axis : x y z
#
# Youngs Moduli (GPa) = 41.21142 49.52082 78.56013
#
# Poissons Ratio (x) = -0.00573 0.50642
# Poissons Ratio (y) = -0.00477 0.48089
# Poissons Ratio (z) = 0.26566 0.30313
#
# Static dielectric constant tensor:
#      x y z
#    x 1.647970 0.000000 0.011930 
#    y 0.000000 1.633090 0.000000 
#    z 0.011930 0.000000 1.684570 
# 
# From -- ./inp_files/320275.got.cif
#   From: 2010.05.17/outbox.cif.g08.bks.cpg/sg15_161_cif.got.tgz:320275.got - 2010.06.03 18:47:42.
