data_PCOD9273347
_publ_section_title
;
Structure prediction by ZEFSAII (Michael W. Deem and Ramdas Pophale) SiO2 
 PCOD9273347
Probable space group: C 2/C
;
_chemical_formula_sum "Si O2"
_cell_formula_units_Z 36
_cell_length_a 10.999860
_cell_length_b 8.804214
_cell_length_c 18.309596
_cell_angle_alpha 90.000000
_cell_angle_beta 50.430671
_cell_angle_gamma 90.000000
_cell_volume 1366.875119
_symmetry_space_group_name_H-M "C 2/C"
_symmetry_group_IT_number 15
_symmetry_cell_setting 'monoclinic'
loop_
_space_group_symop_operation_xyz
x,y,z
-x,y,1/2-z
-x,-y,-z
x,-y,1/2+z
1/2+x,1/2+y,z
1/2-x,1/2+y,1/2-z
1/2-x,1/2-y,-z
1/2+x,1/2-y,1/2+z
loop_
_atom_site_type_symbol
_atom_site_label
_atom_site_fract_x
_atom_site_fract_y
_atom_site_fract_z
Si Si1 0.517022 0.180044 0.512325
Si Si2 0.696309 0.904588 0.284667
Si Si3 0.000000 0.394098 0.750000
Si Si4 0.036374 0.171901 0.613638
Si Si5 0.849949 0.119071 0.350263
O O1 0.431312 0.196274 0.622656
O O2 0.432412 0.269767 0.479301
O O3 0.703962 0.214233 0.437937
O O4 0.500000 0.000000 0.500000
O O5 0.846556 0.820870 0.194651
O O6 0.613611 0.003033 0.254635
O O7 0.774003 0.014439 0.315458
O O8 0.910947 0.285596 0.842037
O O9 0.095142 0.004187 0.610255
O O10 0.000000 0.189718 0.250000
#
# Coordination Sequence:
#
# PCOD9273347 Si02
#       5
#     8   8   4   8   8
#     4  10  20  37  64  95 121 157 210 252 299 367
#     4  10  22  37  59  98 119 161 211 243 310 366
#     4  12  20  38  62  86 130 162 198 256 294 362
#     4  11  21  39  66  89 124 166 199 252 309 358
#     4   9  18  34  60  93 118 160 204 240 307 359
#
# _framework density 26.337448999999999
#
# number of rings (size 3 to 8) (size 9 to 14) (size 15 to 20)
#    0.000    1.778    7.778    0.000    0.000    5.333 
#    2.000    1.111    0.000    4.000    0.000    0.000 
#    0.000    0.000    0.000    0.000    0.000    0.000 
#
# Total GULP energy -100838.207812 kJ/mol
# GULP energy per Si atom -5602.122656 kJ/mol
# Density = 2.627750 g / cm^3
# Si number density = 26.337449 Si / 1000 Ang^3
#
#
#
# Elastic Constant Matrix: (Units=GPa)
#
#
# Indices 1 2 3 4 5 6 
#
# 1 105.1399 45.1611 71.2595 0.0000 3.0888 0.0000
# 2 45.1611 80.7726 22.7011 0.0000 18.7631 0.0000
# 3 71.2595 22.7011 165.0399 0.0000 -16.8632 0.0000
# 4 0.0000 0.0000 0.0000 29.5995 0.0000 16.6572
# 5 3.0888 18.7631 -16.8632 0.0000 53.7094 0.0000
# 6 0.0000 0.0000 0.0000 16.6572 0.0000 37.6651
#
#
#
# Elastic Compliance Matrix: (Units=1/GPa)
#
#
# Indices 1 2 3 4 5 6 
#
# 1 0.017165 -0.007739 -0.006376 0.000000 -0.000286 0.000000
# 2 -0.007739 0.017961 0.000284 0.000000 -0.005740 0.000000
# 3 -0.006376 0.000284 0.009092 0.000000 0.003122 0.000000
# 4 0.000000 0.000000 0.000000 0.044978 0.000000 -0.019891
# 5 -0.000286 -0.005740 0.003122 0.000000 0.021621 0.000000
# 6 0.000000 0.000000 0.000000 -0.019891 0.000000 0.035347
#
#
# Mechanical properties :
#
#
# Convention : Reuss Voigt Hill
#
# Bulk Modulus (GPa) = 60.39810 69.91065 65.15438
# Shear Modulus (GPa) = 27.87946 38.31686 33.09816
#
# Velocity S-wave (km/s) = 3.25706 3.81838 3.54884
# Velocity P-wave (km/s) = 6.09318 6.78541 6.44859
#
# Compressibility (1/GPa) = 0.01655681
#
# Stress axis : x y z
#
# Youngs Moduli (GPa) = 58.25771 55.67660 109.98656
#
# Poissons Ratio (x) = 0.43088 0.70128
# Poissons Ratio (y) = 0.45085 -0.03128
# Poissons Ratio (z) = 0.37146 -0.01584
#
# Static dielectric constant tensor:
#      x y z
#    x 2.133370 0.000000 -0.046280 
#    y 0.000000 2.032420 0.000000 
#    z -0.046280 0.000000 2.114490 
# 
# From -- ./inp_files/195880.got.cif
#   From: 2010.05.17/outbox.cif.g08.bks.cpg/sg15_98_cif.got.tgz:195880.got - 2010.06.03 18:47:42.
