data_PCOD9273446
_publ_section_title
;
Structure prediction by ZEFSAII (Michael W. Deem and Ramdas Pophale) SiO2 
 PCOD9273446
Probable space group: C 2/C
;
_chemical_formula_sum "Si O2"
_cell_formula_units_Z 44
_cell_length_a 20.451176
_cell_length_b 13.644989
_cell_length_c 13.461758
_cell_angle_alpha 90.000000
_cell_angle_beta 148.052221
_cell_angle_gamma 90.000000
_cell_volume 1987.782497
_symmetry_space_group_name_H-M "C 2/C"
_symmetry_group_IT_number 15
_symmetry_cell_setting 'monoclinic'
loop_
_space_group_symop_operation_xyz
x,y,z
-x,y,1/2-z
-x,-y,-z
x,-y,1/2+z
1/2+x,1/2+y,z
1/2-x,1/2+y,1/2-z
1/2-x,1/2-y,-z
1/2+x,1/2-y,1/2+z
loop_
_atom_site_type_symbol
_atom_site_label
_atom_site_fract_x
_atom_site_fract_y
_atom_site_fract_z
Si Si1 0.500000 0.288695 0.750000
Si Si2 0.409479 0.930413 0.539093
Si Si3 0.678830 0.847894 0.578544
Si Si4 0.429584 0.431690 0.828798
Si Si5 0.190732 0.881274 0.389291
Si Si6 0.894346 0.694005 0.301228
O O1 0.383088 0.215649 0.588689
O O2 0.499132 0.357761 0.845748
O O3 0.500000 0.921273 0.750000
O O4 0.280764 0.884335 0.408929
O O5 0.482850 0.871707 0.549656
O O6 0.384380 0.044844 0.491295
O O7 0.821913 0.870155 0.743872
O O8 0.647798 0.795135 0.641042
O O9 0.365254 0.511835 0.674165
O O10 0.500000 0.500000 0.000000
O O11 0.091672 0.797000 0.238579
O O12 0.278980 0.855763 0.594632
#
# Coordination Sequence:
#
# PCOD9273446 Si02
#       6
#     4   8   8   8   8   8
#     4  12  26  46  72  98 140 182 222 290 344 404
#     4   9  18  38  61  90 130 167 215 274 327 388
#     4  11  23  42  67  99 132 179 229 275 337 414
#     4  11  26  46  67  98 137 181 229 281 344 411
#     4   9  21  39  59  92 133 169 224 279 331 398
#     4  10  20  37  65  97 127 175 221 279 337 397
#
# _framework density 22.135218999999999
#
# number of rings (size 3 to 8) (size 9 to 14) (size 15 to 20)
#    0.000    1.818    0.909    2.182    2.545    2.909 
#    4.909    0.000    0.000    0.000    0.000    0.000 
#    0.000    0.000    0.000    0.000    0.000    0.000 
#
# Total GULP energy -122852.854471 kJ/mol
# GULP energy per Si atom -5584.220658 kJ/mol
# Density = 2.208484 g / cm^3
# Si number density = 22.135219 Si / 1000 Ang^3
#
#
#
# Elastic Constant Matrix: (Units=GPa)
#
#
# Indices 1 2 3 4 5 6 
#
# 1 65.2719 31.5221 28.0169 0.0000 -0.0909 0.0000
# 2 31.5221 92.2074 41.8717 0.0000 4.8331 0.0000
# 3 28.0169 41.8717 59.9934 0.0000 5.9385 0.0000
# 4 0.0000 0.0000 0.0000 27.2998 0.0000 -4.9629
# 5 -0.0909 4.8331 5.9385 0.0000 25.0886 0.0000
# 6 0.0000 0.0000 0.0000 -4.9629 0.0000 17.7608
#
#
#
# Elastic Compliance Matrix: (Units=1/GPa)
#
#
# Indices 1 2 3 4 5 6 
#
# 1 0.020183 -0.003862 -0.006974 0.000000 0.002468 0.000000
# 2 -0.003862 0.016621 -0.009706 0.000000 -0.000918 0.000000
# 3 -0.006974 -0.009706 0.027153 0.000000 -0.004583 0.000000
# 4 0.000000 0.000000 0.000000 0.038591 0.000000 0.010783
# 5 0.002468 -0.000918 -0.004583 0.000000 0.041129 0.000000
# 6 0.000000 0.000000 0.000000 0.010783 0.000000 0.059317
#
#
# Mechanical properties :
#
#
# Convention : Reuss Voigt Hill
#
# Bulk Modulus (GPa) = 43.72038 46.69933 45.20986
# Shear Modulus (GPa) = 19.86474 21.76730 20.81602
#
# Velocity S-wave (km/s) = 2.99896 3.13929 3.06993
# Velocity P-wave (km/s) = 5.63791 5.85519 5.74758
#
# Compressibility (1/GPa) = 0.02287263
#
# Stress axis : x y z
#
# Youngs Moduli (GPa) = 49.54767 60.16469 36.82806
#
# Poissons Ratio (x) = 0.23236 0.25684
# Poissons Ratio (y) = 0.19135 0.35745
# Poissons Ratio (z) = 0.34555 0.58396
#
# Static dielectric constant tensor:
#      x y z
#    x 1.806310 0.000000 0.008240 
#    y 0.000000 1.836830 0.000000 
#    z 0.008240 0.000000 1.823900 
# 
# From -- ./inp_files/168556.got.cif
#   From: 2010.05.17/outbox.cif.g08.bks.cpg/sg15_85_cif.got.tgz:168556.got - 2010.06.03 18:47:42.
