data_PCOD9273439
_publ_section_title
;
Structure prediction by ZEFSAII (Michael W. Deem and Ramdas Pophale) SiO2 
 PCOD9273439
Probable space group: C 2/C
;
_chemical_formula_sum "Si O2"
_cell_formula_units_Z 64
_cell_length_a 14.519717
_cell_length_b 26.844476
_cell_length_c 18.639486
_cell_angle_alpha 90.000000
_cell_angle_beta 151.229802
_cell_angle_gamma 90.000000
_cell_volume 3496.720303
_symmetry_space_group_name_H-M "C 2/C"
_symmetry_group_IT_number 15
_symmetry_cell_setting 'monoclinic'
loop_
_space_group_symop_operation_xyz
x,y,z
-x,y,1/2-z
-x,-y,-z
x,-y,1/2+z
1/2+x,1/2+y,z
1/2-x,1/2+y,1/2-z
1/2-x,1/2-y,-z
1/2+x,1/2-y,1/2+z
loop_
_atom_site_type_symbol
_atom_site_label
_atom_site_fract_x
_atom_site_fract_y
_atom_site_fract_z
Si Si1 0.270354 0.575682 0.105455
Si Si2 0.972593 0.619512 0.003851
Si Si3 0.193588 0.173617 0.428858
Si Si4 0.230221 0.961872 0.407212
Si Si5 0.625527 0.121563 0.405727
Si Si6 0.410941 0.292103 0.110602
Si Si7 0.802296 0.713360 0.800749
Si Si8 0.148443 0.228477 0.542458
O O1 0.500000 0.571441 0.250000
O O2 0.209309 0.619491 0.009036
O O3 0.203889 0.518927 0.052506
O O4 0.174929 0.598675 0.112632
O O5 0.823513 0.573140 0.909031
O O6 0.887307 0.663136 0.895385
O O7 0.979293 0.637966 0.091241
O O8 0.158813 0.188415 0.486675
O O9 0.297458 0.219135 0.459463
O O10 0.000000 0.169906 0.250000
O O11 0.308643 0.934581 0.531864
O O12 0.000000 0.958871 0.250000
O O13 0.500000 0.125867 0.250000
O O14 0.809917 0.156091 0.523495
O O15 0.500000 0.296383 0.250000
O O16 0.413398 0.280596 0.320520
O O17 0.250000 0.250000 0.000000
O O18 0.785134 0.715742 0.702276
O O19 0.930974 0.759550 0.915248
#
# Coordination Sequence:
#
# PCOD9273439 Si02
#       8
#     8   8   8   8   8   8   8   8
#     4  10  20  37  65  96 120 160 211 260 308 375
#     4  10  21  39  65  88 126 160 212 249 321 371
#     4  10  20  39  59  84 129 158 205 248 306 364
#     4   9  19  38  69  90 123 158 206 259 318 369
#     4  10  22  41  63  87 124 165 204 256 317 372
#     4  12  23  40  58  88 121 159 204 258 303 372
#     4  12  23  39  61  88 120 166 207 252 310 372
#     4  11  23  38  61  87 122 168 200 250 307 370
#
# _framework density 18.302866000000002
#
# number of rings (size 3 to 8) (size 9 to 14) (size 15 to 20)
#    0.750    0.750    3.750    2.625    0.000    0.000 
#    4.500    1.250    0.000    1.500    0.000    0.000 
#    0.000    0.000    0.000    0.000    0.000    0.000 
#
# Total GULP energy -178134.844383 kJ/mol
# GULP energy per Si atom -5566.713887 kJ/mol
# Density = 1.826121 g / cm^3
# Si number density = 18.302866 Si / 1000 Ang^3
#
#
#
# Elastic Constant Matrix: (Units=GPa)
#
#
# Indices 1 2 3 4 5 6 
#
# 1 86.6416 34.2601 41.8765 0.0001 1.9074 0.0001
# 2 34.2601 97.6624 27.4027 0.0000 -16.6835 0.0001
# 3 41.8765 27.4027 105.7432 0.0004 -25.1535 0.0001
# 4 0.0001 0.0000 0.0004 11.7823 0.0002 7.0664
# 5 1.9074 -16.6835 -25.1535 0.0002 36.5028 0.0000
# 6 0.0001 0.0001 0.0001 7.0664 0.0000 26.2330
#
#
#
# Elastic Compliance Matrix: (Units=1/GPa)
#
#
# Indices 1 2 3 4 5 6 
#
# 1 0.017589 -0.005520 -0.007599 0.000000 -0.008679 0.000000
# 2 -0.005520 0.013204 0.000321 0.000000 0.006545 0.000000
# 3 -0.007599 0.000321 0.014966 -0.000001 0.010857 0.000000
# 4 0.000000 0.000000 -0.000001 0.101226 -0.000001 -0.027267
# 5 -0.008679 0.006545 0.010857 -0.000001 0.038321 0.000000
# 6 0.000000 0.000000 0.000000 -0.027267 0.000000 0.045465
#
#
# Mechanical properties :
#
#
# Convention : Reuss Voigt Hill
#
# Bulk Modulus (GPa) = 49.60038 55.23620 52.41829
# Shear Modulus (GPa) = 19.00506 27.33749 23.17128
#
# Velocity S-wave (km/s) = 3.22586 3.86893 3.56194
# Velocity P-wave (km/s) = 6.40574 7.08538 6.75412
#
# Compressibility (1/GPa) = 0.02016114
#
# Stress axis : x y z
#
# Youngs Moduli (GPa) = 56.85433 75.73582 66.81991
#
# Poissons Ratio (x) = 0.41810 0.50779
# Poissons Ratio (y) = 0.31386 -0.02147
# Poissons Ratio (z) = 0.43206 -0.02434
#
# Static dielectric constant tensor:
#      x y z
#    x 1.692580 0.000000 0.045950 
#    y 0.000000 1.661240 0.000000 
#    z 0.045950 0.000000 1.636040 
# 
# From -- ./inp_files/207587.got.cif
#   From: 2010.05.17/outbox.cif.g08.bks.cpg/sg15_104_cif.got.tgz:207587.got - 2010.06.03 18:47:42.
