data_PCOD9273887
_publ_section_title
;
Structure prediction by ZEFSAII (Michael W. Deem and Ramdas Pophale) SiO2 
 PCOD9273887
Probable space group: C 2/C
;
_chemical_formula_sum "Si O2"
_cell_formula_units_Z 56
_cell_length_a 22.876817
_cell_length_b 13.550546
_cell_length_c 24.730006
_cell_angle_alpha 90.000000
_cell_angle_beta 20.311804
_cell_angle_gamma 90.000000
_cell_volume 2661.137686
_symmetry_space_group_name_H-M "C 2/C"
_symmetry_group_IT_number 15
_symmetry_cell_setting 'monoclinic'
loop_
_space_group_symop_operation_xyz
x,y,z
-x,y,1/2-z
-x,-y,-z
x,-y,1/2+z
1/2+x,1/2+y,z
1/2-x,1/2+y,1/2-z
1/2-x,1/2-y,-z
1/2+x,1/2-y,1/2+z
loop_
_atom_site_type_symbol
_atom_site_label
_atom_site_fract_x
_atom_site_fract_y
_atom_site_fract_z
Si Si1 0.581196 0.686581 0.344656
Si Si2 0.506777 0.566109 0.305456
Si Si3 0.870174 0.436322 0.648070
Si Si4 0.361718 0.359700 0.322261
Si Si5 0.264404 0.113041 0.808476
Si Si6 0.521891 0.177704 0.339094
Si Si7 0.347503 0.000005 0.342071
O O1 0.544801 0.651176 0.315094
O O2 0.746464 0.629111 0.220034
O O3 0.618952 0.801638 0.316358
O O4 0.419901 0.655102 0.519313
O O5 0.500000 0.602643 0.250000
O O6 0.637202 0.474891 0.195063
O O7 0.329246 0.514796 0.474645
O O8 0.759049 0.517959 0.775561
O O9 0.000000 0.500000 0.500000
O O10 0.951998 0.366514 0.623464
O O11 0.500000 0.347715 0.250000
O O12 0.414444 0.288074 0.227336
O O13 0.175535 0.331129 0.502875
O O14 0.344468 0.076429 0.795273
O O15 0.625215 0.107182 0.208407
O O16 0.500000 0.981435 0.250000
#
# Coordination Sequence:
#
# PCOD9273887 Si02
#       7
#     8   8   8   8   8   8   8
#     4  11  23  42  64  87 121 157 197 246 296 353
#     4  10  22  38  60  89 120 156 197 243 295 351
#     4  11  24  42  63  88 120 157 199 248 299 354
#     4  11  21  36  58  87 121 156 195 242 294 352
#     4  10  24  41  62  90 117 155 201 244 295 353
#     4  11  23  37  58  88 119 156 200 243 294 352
#     4  10  20  38  60  85 119 155 194 244 295 349
#
# _framework density 21.043631000000001
#
# number of rings (size 3 to 8) (size 9 to 14) (size 15 to 20)
#    0.000    1.429    0.000    5.571    0.000    7.429 
#    0.000    2.857    0.000    0.000    0.000    0.000 
#    0.000    0.000    0.000    0.000    0.000    0.000 
#
# Total GULP energy -156613.596131 kJ/mol
# GULP energy per Si atom -5593.342719 kJ/mol
# Density = 2.099573 g / cm^3
# Si number density = 21.043631 Si / 1000 Ang^3
#
#
#
# Elastic Constant Matrix: (Units=GPa)
#
#
# Indices 1 2 3 4 5 6 
#
# 1 66.4254 1.3609 20.5551 0.0027 2.4293 -0.0014
# 2 1.3609 55.9565 -9.2006 0.0032 -2.4886 -0.0009
# 3 20.5551 -9.2006 26.1031 -0.0077 -1.1078 0.0004
# 4 0.0027 0.0032 -0.0077 22.0379 0.0065 7.4582
# 5 2.4293 -2.4886 -1.1078 0.0065 26.6938 -0.0008
# 6 -0.0014 -0.0009 0.0004 7.4582 -0.0008 15.2987
#
#
#
# Elastic Compliance Matrix: (Units=1/GPa)
#
#
# Indices 1 2 3 4 5 6 
#
# 1 0.020705 -0.003541 -0.017678 -0.000010 -0.002948 0.000007
# 2 -0.003541 0.019689 0.009837 0.000000 0.002566 0.000001
# 3 -0.017678 0.009837 0.055903 0.000024 0.004846 -0.000014
# 4 -0.000010 0.000000 0.000024 0.054342 -0.000012 -0.026492
# 5 -0.002948 0.002566 0.004846 -0.000012 0.038170 0.000008
# 6 0.000007 0.000001 -0.000014 -0.026492 0.000008 0.078280
#
#
# Mechanical properties :
#
#
# Convention : Reuss Voigt Hill
#
# Bulk Modulus (GPa) = 13.59929 19.32397 16.46163
# Shear Modulus (GPa) = 15.90513 21.85739 18.88126
#
# Velocity S-wave (km/s) = 2.75220 3.22634 2.99865
# Velocity P-wave (km/s) = 4.07135 4.80435 4.45296
#
# Compressibility (1/GPa) = 0.07353324
#
# Stress axis : x y z
#
# Youngs Moduli (GPa) = 48.29716 50.79043 17.88814
#
# Poissons Ratio (x) = 0.17986 0.31622
# Poissons Ratio (y) = 0.17103 -0.17597
# Poissons Ratio (z) = 0.85378 -0.49964
#
# Static dielectric constant tensor:
#      x y z
#    x 1.760240 0.000000 0.029430 
#    y 0.000000 1.732230 0.000000 
#    z 0.029430 0.000000 1.751840 
# 
# From -- ./inp_files/302286.got.cif
#   From: 2010.05.17/outbox.cif.g08.bks.cpg/sg15_152_cif.got.tgz:302286.got - 2010.06.03 18:47:42.
