data_PCOD9273810
_publ_section_title
;
Structure prediction by ZEFSAII (Michael W. Deem and Ramdas Pophale) SiO2 
 PCOD9273810
Probable space group: C 2/C
;
_chemical_formula_sum "Si O2"
_cell_formula_units_Z 44
_cell_length_a 14.231511
_cell_length_b 27.141884
_cell_length_c 5.850657
_cell_angle_alpha 90.000000
_cell_angle_beta 109.176691
_cell_angle_gamma 90.000000
_cell_volume 2134.529880
_symmetry_space_group_name_H-M "C 2/C"
_symmetry_group_IT_number 15
_symmetry_cell_setting 'monoclinic'
loop_
_space_group_symop_operation_xyz
x,y,z
-x,y,1/2-z
-x,-y,-z
x,-y,1/2+z
1/2+x,1/2+y,z
1/2-x,1/2+y,1/2-z
1/2-x,1/2-y,-z
1/2+x,1/2-y,1/2+z
loop_
_atom_site_type_symbol
_atom_site_label
_atom_site_fract_x
_atom_site_fract_y
_atom_site_fract_z
Si Si1 0.772603 0.803907 0.291749
Si Si2 0.384906 0.028136 0.150935
Si Si3 0.400549 0.333612 0.787135
Si Si4 0.404760 0.239800 0.071120
Si Si5 0.000000 0.027361 0.750000
Si Si6 0.307702 0.595192 0.552414
O O1 0.816911 0.805384 0.576667
O O2 0.831895 0.760667 0.207889
O O3 0.798322 0.858015 0.213711
O O4 0.657968 0.793371 0.151140
O O5 0.500000 0.046040 0.250000
O O6 0.373806 0.001277 0.394771
O O7 0.296657 0.067870 0.063018
O O8 0.500000 0.352800 0.750000
O O9 0.440918 0.290414 0.982937
O O10 0.343876 0.378634 0.851480
O O11 0.500000 0.213376 0.250000
O O12 0.101451 0.059303 0.814128
O O13 0.000000 0.000000 0.500000
#
# Coordination Sequence:
#
# PCOD9273810 Si02
#       6
#     8   8   8   8   4   8
#     4  10  22  37  60  88 125 168 219 273 332 396
#     4  10  23  45  72  95 127 174 221 273 340 409
#     4  11  21  37  63  91 131 179 217 272 341 405
#     4  10  20  38  59  87 123 171 222 270 325 400
#     4  12  28  44  68 102 140 180 222 278 348 422
#     4  11  25  40  65  96 132 169 221 280 340 405
#
# _framework density 20.613440000000001
#
# number of rings (size 3 to 8) (size 9 to 14) (size 15 to 20)
#    0.000    1.455    1.818    2.727    8.909    0.727 
#    0.000    0.000    0.000    0.000    0.000    0.000 
#    0.000    0.000    0.000    0.000    0.000    0.000 
#
# Total GULP energy -122572.154230 kJ/mol
# GULP energy per Si atom -5571.461556 kJ/mol
# Density = 2.056652 g / cm^3
# Si number density = 20.613440 Si / 1000 Ang^3
#
#
#
# Elastic Constant Matrix: (Units=GPa)
#
#
# Indices 1 2 3 4 5 6 
#
# 1 98.2892 46.1638 42.6038 0.0000 20.2601 0.0000
# 2 46.1638 64.9457 42.8736 0.0000 9.2089 0.0000
# 3 42.6038 42.8736 133.1577 0.0000 24.8463 0.0000
# 4 0.0000 0.0000 0.0000 21.8753 0.0000 -8.8691
# 5 20.2601 9.2089 24.8463 0.0000 44.9541 0.0000
# 6 0.0000 0.0000 0.0000 -8.8691 0.0000 40.5353
#
#
#
# Elastic Compliance Matrix: (Units=1/GPa)
#
#
# Indices 1 2 3 4 5 6 
#
# 1 0.016457 -0.010329 -0.001060 0.000000 -0.004715 0.000000
# 2 -0.010329 0.026051 -0.005526 0.000000 0.002373 0.000000
# 3 -0.001060 -0.005526 0.010400 0.000000 -0.004139 0.000000
# 4 0.000000 0.000000 0.000000 0.050164 0.000000 0.010976
# 5 -0.004715 0.002373 -0.004139 0.000000 0.026171 0.000000
# 6 0.000000 0.000000 0.000000 0.010976 0.000000 0.027071
#
#
# Mechanical properties :
#
#
# Convention : Reuss Voigt Hill
#
# Bulk Modulus (GPa) = 52.41494 62.18612 57.30053
# Shear Modulus (GPa) = 25.44482 32.45635 28.95059
#
# Velocity S-wave (km/s) = 3.51719 3.97233 3.75167
# Velocity P-wave (km/s) = 6.47896 7.16048 6.82823
#
# Compressibility (1/GPa) = 0.01907853
#
# Stress axis : x y z
#
# Youngs Moduli (GPa) = 60.76523 38.38621 96.15066
#
# Poissons Ratio (x) = 0.39651 0.10189
# Poissons Ratio (y) = 0.62767 0.53130
# Poissons Ratio (z) = 0.06439 0.21211
#
# Static dielectric constant tensor:
#      x y z
#    x 1.738850 0.000000 -0.042830 
#    y 0.000000 1.747770 0.000000 
#    z -0.042830 0.000000 1.895020 
# 
# From -- ./inp_files/8305.got.cif
#   From: 2010.05.17/outbox.cif.g08.bks.cpg/sg15_5_cif.got.tgz:8305.got - 2010.06.03 18:47:42.
