data_PCOD9273083
_publ_section_title
;
Structure prediction by ZEFSAII (Michael W. Deem and Ramdas Pophale) SiO2 
 PCOD9273083
Probable space group: C 2/C
;
_chemical_formula_sum "Si O2"
_cell_formula_units_Z 40
_cell_length_a 10.602890
_cell_length_b 24.283504
_cell_length_c 14.909332
_cell_angle_alpha 90.000000
_cell_angle_beta 28.118769
_cell_angle_gamma 90.000000
_cell_volume 1809.222558
_symmetry_space_group_name_H-M "C 2/C"
_symmetry_group_IT_number 15
_symmetry_cell_setting 'monoclinic'
loop_
_space_group_symop_operation_xyz
x,y,z
-x,y,1/2-z
-x,-y,-z
x,-y,1/2+z
1/2+x,1/2+y,z
1/2-x,1/2+y,1/2-z
1/2-x,1/2-y,-z
1/2+x,1/2-y,1/2+z
loop_
_atom_site_type_symbol
_atom_site_label
_atom_site_fract_x
_atom_site_fract_y
_atom_site_fract_z
Si Si1 0.573327 0.408158 0.056572
Si Si2 0.708402 0.832373 0.185628
Si Si3 0.890999 0.207870 0.219354
Si Si4 0.583396 0.118853 0.336109
Si Si5 0.806788 0.015632 0.287114
O O1 0.322790 0.368218 0.194705
O O2 0.450446 0.469597 0.134462
O O3 0.765924 0.390883 0.853375
O O4 0.773349 0.398437 0.015311
O O5 0.500000 0.862696 0.250000
O O6 0.601694 0.773983 0.288227
O O7 0.926332 0.813544 0.975908
O O8 0.614528 0.178153 0.364007
O O9 0.000000 0.192316 0.250000
O O10 0.763170 0.077067 0.280525
O O11 0.000000 0.016796 0.250000
O O12 0.500000 0.000000 0.500000
#
# Coordination Sequence:
#
# PCOD9273083 Si02
#       5
#     8   8   8   8   8
#     4  10  23  42  60  89 124 163 205 250 311 373
#     4  10  21  38  61  89 121 160 205 250 307 369
#     4  10  20  37  62  91 121 160 202 252 305 368
#     4  10  22  42  63  86 126 162 204 253 308 371
#     4  12  24  41  62  92 124 159 207 258 309 364
#
# _framework density 22.108944000000001
#
# number of rings (size 3 to 8) (size 9 to 14) (size 15 to 20)
#    0.000    1.600    2.000    3.600    0.000    7.200 
#    3.600    0.000    0.000    0.000    0.000    0.000 
#    0.000    0.000    0.000    0.000    0.000    0.000 
#
# Total GULP energy -111409.469127 kJ/mol
# GULP energy per Si atom -5570.473456 kJ/mol
# Density = 2.205862 g / cm^3
# Si number density = 22.108944 Si / 1000 Ang^3
#
#
#
# Elastic Constant Matrix: (Units=GPa)
#
#
# Indices 1 2 3 4 5 6 
#
# 1 112.0249 47.1940 28.9425 0.0041 -31.3546 0.0008
# 2 47.1940 71.5558 -1.1156 0.0032 -21.5008 0.0019
# 3 28.9425 -1.1156 56.8432 0.0267 -25.0185 -0.0134
# 4 0.0041 0.0032 0.0267 -0.5619 -0.0126 1.4792
# 5 -31.3546 -21.5008 -25.0185 -0.0126 40.7015 0.0040
# 6 0.0008 0.0019 -0.0134 1.4792 0.0040 41.9197
#
#
#
# Elastic Compliance Matrix: (Units=1/GPa)
#
#
# Indices 1 2 3 4 5 6 
#
# 1 0.015450 -0.009501 -0.006887 -0.000304 0.002650 0.000008
# 2 -0.009501 0.023944 0.010492 0.000277 0.011778 -0.000008
# 3 -0.006887 0.010492 0.029349 0.000925 0.018277 -0.000025
# 4 -0.000304 0.000277 0.000925 -1.628499 -0.000029 0.057462
# 5 0.002650 0.011778 0.018277 -0.000029 0.044067 0.000002
# 6 0.000008 -0.000008 -0.000025 0.057462 0.000002 0.021828
#
#
# Mechanical properties :
#
#
# Convention : Reuss Voigt Hill
#
# Bulk Modulus (GPa) = 17.55917 43.38508 30.47212
# Shear Modulus (GPa) = -3.41744 27.43873 12.01065
#
# Velocity S-wave (km/s) = -1.24462 3.52670 2.33330
# Velocity P-wave (km/s) = 2.42774 6.02075 4.59039
#
# Compressibility (1/GPa) = 0.05695029
#
# Stress axis : x y z
#
# Youngs Moduli (GPa) = 64.72428 41.76377 34.07313
#
# Poissons Ratio (x) = 0.39680 0.23465
# Poissons Ratio (y) = 0.61496 -0.35748
# Poissons Ratio (z) = 0.44574 -0.43816
#
# Static dielectric constant tensor:
#      x y z
#    x 1.890620 0.000130 0.079310 
#    y 0.000130 1.862590 -0.000260 
#    z 0.079310 -0.000260 1.812340 
# 
# From -- ./inp_files/32273.got.cif
#   From: 2010.05.17/outbox.cif.g08.bks.cpg/sg15_17_cif.got.tgz:32273.got - 2010.06.03 18:47:42.
