data_PCOD9273006
_publ_section_title
;
Structure prediction by ZEFSAII (Michael W. Deem and Ramdas Pophale) SiO2 
 PCOD9273006
Probable space group: C 2/C
;
_chemical_formula_sum "Si O2"
_cell_formula_units_Z 40
_cell_length_a 6.168743
_cell_length_b 27.641181
_cell_length_c 11.753291
_cell_angle_alpha 90.000000
_cell_angle_beta 77.397873
_cell_angle_gamma 90.000000
_cell_volume 1955.788707
_symmetry_space_group_name_H-M "C 2/C"
_symmetry_group_IT_number 15
_symmetry_cell_setting 'monoclinic'
loop_
_space_group_symop_operation_xyz
x,y,z
-x,y,1/2-z
-x,-y,-z
x,-y,1/2+z
1/2+x,1/2+y,z
1/2-x,1/2+y,1/2-z
1/2-x,1/2-y,-z
1/2+x,1/2-y,1/2+z
loop_
_atom_site_type_symbol
_atom_site_label
_atom_site_fract_x
_atom_site_fract_y
_atom_site_fract_z
Si Si1 0.173393 0.489035 0.626598
Si Si2 0.788409 0.175596 0.547224
Si Si3 0.000000 0.209664 0.750000
Si Si4 0.900264 0.755426 0.595577
Si Si5 0.000000 0.053171 0.250000
Si Si6 0.365612 0.077763 0.040703
O O1 0.402445 0.480000 0.662256
O O2 0.181080 0.532727 0.537844
O O3 0.000000 0.498853 0.750000
O O4 0.096314 0.439699 0.571456
O O5 0.588387 0.214258 0.577558
O O6 0.671595 0.125781 0.527313
O O7 0.929972 0.177494 0.648692
O O8 0.963412 0.194898 0.432144
O O9 0.214830 0.244272 0.710308
O O10 0.750000 0.750000 0.500000
O O11 0.802919 0.081549 0.333490
#
# Coordination Sequence:
#
# PCOD9273006 Si02
#       6
#     8   8   4   8   4   8
#     4   9  20  37  60  85 122 157 192 247 301 353
#     4  10  21  38  61  89 120 156 204 246 302 362
#     4  10  20  37  62  86 120 158 200 254 305 354
#     4   9  20  39  57  83 116 159 195 248 297 354
#     4  10  20  39  58  84 120 158 194 242 299 356
#     4  10  21  38  59  89 119 154 201 247 296 362
#
# _framework density 20.452107000000002
#
# number of rings (size 3 to 8) (size 9 to 14) (size 15 to 20)
#    0.000    2.400    0.000    1.200    0.000    5.600 
#   10.800    0.000    8.800    0.000    0.000    0.000 
#    0.000    0.000    0.000    0.000    0.000    0.000 
#
# Total GULP energy -111378.790165 kJ/mol
# GULP energy per Si atom -5568.939508 kJ/mol
# Density = 2.040556 g / cm^3
# Si number density = 20.452107 Si / 1000 Ang^3
#
#
#
# Elastic Constant Matrix: (Units=GPa)
#
#
# Indices 1 2 3 4 5 6 
#
# 1 99.0672 41.4628 26.1276 0.0000 16.7444 0.0000
# 2 41.4628 102.8499 31.4839 0.0000 12.8966 0.0000
# 3 26.1276 31.4839 75.9725 0.0000 10.6261 0.0000
# 4 0.0000 0.0000 0.0000 20.0782 0.0000 6.7456
# 5 16.7444 12.8966 10.6261 0.0000 49.4894 0.0000
# 6 0.0000 0.0000 0.0000 6.7456 0.0000 5.7100
#
#
#
# Elastic Compliance Matrix: (Units=1/GPa)
#
#
# Indices 1 2 3 4 5 6 
#
# 1 0.012915 -0.004142 -0.002335 0.000000 -0.002789 0.000000
# 2 -0.004142 0.012653 -0.003664 0.000000 -0.001109 0.000000
# 3 -0.002335 -0.003664 0.015712 0.000000 -0.001629 0.000000
# 4 0.000000 0.000000 0.000000 0.082582 0.000000 -0.097561
# 5 -0.002789 -0.001109 -0.001629 0.000000 0.021789 0.000000
# 6 0.000000 0.000000 0.000000 -0.097561 0.000000 0.290388
#
#
# Mechanical properties :
#
#
# Convention : Reuss Voigt Hill
#
# Bulk Modulus (GPa) = 47.62339 52.89314 50.25826
# Shear Modulus (GPa) = 10.79164 26.97652 18.88408
#
# Velocity S-wave (km/s) = 2.29956 3.63576 3.04193
# Velocity P-wave (km/s) = 5.51240 6.59872 6.07987
#
# Compressibility (1/GPa) = 0.02099809
#
# Stress axis : x y z
#
# Youngs Moduli (GPa) = 77.42970 79.02978 63.64589
#
# Poissons Ratio (x) = 0.32734 0.14861
# Poissons Ratio (y) = 0.32072 0.23321
# Poissons Ratio (z) = 0.18080 0.28957
#
# Static dielectric constant tensor:
#      x y z
#    x 1.765540 0.000000 -0.028710 
#    y 0.000000 1.699900 0.000000 
#    z -0.028710 0.000000 1.808040 
# 
# From -- ./inp_files/73125.got.cif
#   From: 2010.05.17/outbox.cif.g08.bks.cpg/sg15_37_cif.got.tgz:73125.got - 2010.06.03 18:47:42.
