data_PCOD9273385
_publ_section_title
;
Structure prediction by ZEFSAII (Michael W. Deem and Ramdas Pophale) SiO2 
 PCOD9273385
Probable space group: C 2/C
;
_chemical_formula_sum "Si O2"
_cell_formula_units_Z 40
_cell_length_a 17.610508
_cell_length_b 8.526250
_cell_length_c 20.121525
_cell_angle_alpha 90.000000
_cell_angle_beta 43.059186
_cell_angle_gamma 90.000000
_cell_volume 2062.788777
_symmetry_space_group_name_H-M "C 2/C"
_symmetry_group_IT_number 15
_symmetry_cell_setting 'monoclinic'
loop_
_space_group_symop_operation_xyz
x,y,z
-x,y,1/2-z
-x,-y,-z
x,-y,1/2+z
1/2+x,1/2+y,z
1/2-x,1/2+y,1/2-z
1/2-x,1/2-y,-z
1/2+x,1/2-y,1/2+z
loop_
_atom_site_type_symbol
_atom_site_label
_atom_site_fract_x
_atom_site_fract_y
_atom_site_fract_z
Si Si1 0.086983 0.470519 0.383568
Si Si2 0.576926 0.194952 0.603709
Si Si3 0.704463 0.298517 0.279246
Si Si4 0.772887 0.265419 0.377003
Si Si5 0.936708 0.999840 0.727504
O O1 0.178565 0.330768 0.333865
O O2 0.159905 0.623342 0.320002
O O3 0.000000 0.500000 0.500000
O O4 0.012400 0.423416 0.368221
O O5 0.670614 0.221075 0.488716
O O6 0.636380 0.149156 0.634562
O O7 0.519059 0.363565 0.649998
O O8 0.732541 0.352744 0.336779
O O9 0.831581 0.102319 0.319224
O O10 0.608314 0.388992 0.301193
O O11 0.000000 0.076560 0.750000
#
# Coordination Sequence:
#
# PCOD9273385 Si02
#       5
#     8   8   8   8   8
#     4  12  23  41  64  93 130 162 209 265 314 365
#     4  10  20  39  63  87 119 166 203 259 314 370
#     4  12  22  40  62  92 121 165 210 257 315 375
#     4  10  20  37  65  86 117 159 216 243 309 382
#     4  10  21  40  58  84 125 161 201 261 311 362
#
# _framework density 19.391224999999999
#
# number of rings (size 3 to 8) (size 9 to 14) (size 15 to 20)
#    0.000    1.200    6.000    0.000    0.000    0.800 
#    7.200    0.000    0.000    4.800    0.000    0.000 
#    0.000    0.000    0.000    0.000    0.000    0.000 
#
# Total GULP energy -111479.986037 kJ/mol
# GULP energy per Si atom -5573.999302 kJ/mol
# Density = 1.934709 g / cm^3
# Si number density = 19.391225 Si / 1000 Ang^3
#
#
#
# Elastic Constant Matrix: (Units=GPa)
#
#
# Indices 1 2 3 4 5 6 
#
# 1 218.5570 49.1335 42.0807 0.0000 6.9856 0.0000
# 2 49.1335 55.3578 43.8083 0.0000 -4.8367 0.0000
# 3 42.0807 43.8083 101.0634 0.0000 -12.3553 0.0000
# 4 0.0000 0.0000 0.0000 19.9215 0.0000 -2.8759
# 5 6.9856 -4.8367 -12.3553 0.0000 32.0517 0.0000
# 6 0.0000 0.0000 0.0000 -2.8759 0.0000 40.1918
#
#
#
# Elastic Compliance Matrix: (Units=1/GPa)
#
#
# Indices 1 2 3 4 5 6 
#
# 1 0.005871 -0.004955 -0.000572 0.000000 -0.002248 0.000000
# 2 -0.004955 0.031686 -0.011497 0.000000 0.001430 0.000000
# 3 -0.000572 -0.011497 0.015657 0.000000 0.004425 0.000000
# 4 0.000000 0.000000 0.000000 0.050721 0.000000 0.003629
# 5 -0.002248 0.001430 0.004425 0.000000 0.033611 0.000000
# 6 0.000000 0.000000 0.000000 0.003629 0.000000 0.025140
#
#
# Mechanical properties :
#
#
# Convention : Reuss Voigt Hill
#
# Bulk Modulus (GPa) = 52.17301 71.66923 61.92112
# Shear Modulus (GPa) = 24.61565 34.43004 29.52285
#
# Velocity S-wave (km/s) = 3.56676 4.21830 3.90614
# Velocity P-wave (km/s) = 6.62769 7.79520 7.23504
#
# Compressibility (1/GPa) = 0.01916700
#
# Stress axis : x y z
#
# Youngs Moduli (GPa) = 170.31887 31.56015 63.86803
#
# Poissons Ratio (x) = 0.15639 0.03650
# Poissons Ratio (y) = 0.84398 0.73428
# Poissons Ratio (z) = 0.09734 0.36284
#
# Static dielectric constant tensor:
#      x y z
#    x 1.736040 0.000000 0.010450 
#    y 0.000000 1.678180 0.000000 
#    z 0.010450 0.000000 1.689230 
# 
# From -- ./inp_files/202216.got.cif
#   From: 2010.05.17/outbox.cif.g08.bks.cpg/sg15_102_cif.got.tgz:202216.got - 2010.06.03 18:47:42.
