data_PCOD9273516
_publ_section_title
;
Structure prediction by ZEFSAII (Michael W. Deem and Ramdas Pophale) SiO2 
 PCOD9273516
Probable space group: C 2/C
;
_chemical_formula_sum "Si O2"
_cell_formula_units_Z 56
_cell_length_a 28.936696
_cell_length_b 6.318131
_cell_length_c 18.670486
_cell_angle_alpha 90.000000
_cell_angle_beta 118.947924
_cell_angle_gamma 90.000000
_cell_volume 2986.971077
_symmetry_space_group_name_H-M "C 2/C"
_symmetry_group_IT_number 15
_symmetry_cell_setting 'monoclinic'
loop_
_space_group_symop_operation_xyz
x,y,z
-x,y,1/2-z
-x,-y,-z
x,-y,1/2+z
1/2+x,1/2+y,z
1/2-x,1/2+y,1/2-z
1/2-x,1/2-y,-z
1/2+x,1/2-y,1/2+z
loop_
_atom_site_type_symbol
_atom_site_label
_atom_site_fract_x
_atom_site_fract_y
_atom_site_fract_z
Si Si1 0.747767 0.869395 0.573618
Si Si2 0.793394 0.968702 0.890401
Si Si3 0.571240 0.934158 0.497519
Si Si4 0.317263 0.723595 0.672018
Si Si5 0.654279 0.824255 0.964717
Si Si6 0.527923 0.312221 0.565478
Si Si7 0.622201 0.600191 0.648592
O O1 0.750000 0.750000 0.500000
O O2 0.724171 0.709567 0.612853
O O3 0.800278 0.982666 0.640149
O O4 0.706354 0.050888 0.526548
O O5 0.737735 0.843940 0.850470
O O6 0.829762 0.960828 0.847862
O O7 0.832889 0.896534 0.984719
O O8 0.519551 0.809260 0.429842
O O9 0.601812 0.764013 0.571537
O O10 0.606641 0.043228 0.463126
O O11 0.552184 0.130729 0.532460
O O12 0.343787 0.808021 0.619129
O O13 0.355766 0.728601 0.767864
O O14 0.500000 0.500000 0.500000
O O15 0.575930 0.438911 0.637413
#
# Coordination Sequence:
#
# PCOD9273516 Si02
#       7
#     8   8   8   8   8   8   8
#     4  11  19  37  55  79 121 166 199 227 280 356
#     4  11  21  35  54  82 123 165 203 229 284 368
#     4  10  20  37  67  86 107 156 209 243 298 362
#     4  11  25  34  54  93 131 155 196 251 293 349
#     4  11  20  37  58  88 113 162 204 241 285 361
#     4   9  20  40  63  89 109 144 206 255 295 357
#     4  11  23  37  58  91 125 155 193 258 301 338
#
# _framework density 18.748090000000001
#
# number of rings (size 3 to 8) (size 9 to 14) (size 15 to 20)
#    0.000    1.429    5.714    0.857    2.000    1.143 
#    0.000    0.000    0.000    9.429    0.000    0.000 
#    0.000    0.000    0.000    0.000    0.000    0.000 
#
# Total GULP energy -155944.547363 kJ/mol
# GULP energy per Si atom -5569.448120 kJ/mol
# Density = 1.870542 g / cm^3
# Si number density = 18.748090 Si / 1000 Ang^3
#
#
#
# Elastic Constant Matrix: (Units=GPa)
#
#
# Indices 1 2 3 4 5 6 
#
# 1 109.0830 27.1141 61.1550 0.0000 -0.3114 0.0000
# 2 27.1141 58.6993 20.8711 0.0000 -4.3650 0.0000
# 3 61.1550 20.8711 79.7138 0.0000 1.0269 0.0000
# 4 0.0000 0.0000 0.0000 21.1186 0.0000 0.5759
# 5 -0.3114 -4.3650 1.0269 0.0000 5.9104 0.0000
# 6 0.0000 0.0000 0.0000 0.5759 0.0000 35.4276
#
#
#
# Elastic Compliance Matrix: (Units=1/GPa)
#
#
# Indices 1 2 3 4 5 6 
#
# 1 0.016709 -0.003450 -0.011921 0.000000 0.000404 0.000000
# 2 -0.003450 0.020876 -0.003022 0.000000 0.015761 0.000000
# 3 -0.011921 -0.003022 0.022569 0.000000 -0.006781 0.000000
# 4 0.000000 0.000000 0.000000 0.047373 0.000000 -0.000770
# 5 0.000404 0.015761 -0.006781 0.000000 0.182032 0.000000
# 6 0.000000 0.000000 0.000000 -0.000770 0.000000 0.028239
#
#
# Mechanical properties :
#
#
# Convention : Reuss Voigt Hill
#
# Bulk Modulus (GPa) = 42.79296 51.75296 47.27296
# Shear Modulus (GPa) = 13.79790 21.71503 17.75647
#
# Velocity S-wave (km/s) = 2.71581 3.40700 3.08085
# Velocity P-wave (km/s) = 5.71917 6.56820 6.15833
#
# Compressibility (1/GPa) = 0.02336833
#
# Stress axis : x y z
#
# Youngs Moduli (GPa) = 59.84737 47.90181 44.30825
#
# Poissons Ratio (x) = 0.16524 0.52820
# Poissons Ratio (y) = 0.20645 0.13392
# Poissons Ratio (z) = 0.71344 0.14478
#
# Static dielectric constant tensor:
#      x y z
#    x 1.686520 0.000000 0.004320 
#    y 0.000000 1.696910 0.000000 
#    z 0.004320 0.000000 1.650620 
# 
# From -- ./inp_files/223813.got.cif
#   From: 2010.05.17/outbox.cif.g08.bks.cpg/sg15_112_cif.got.tgz:223813.got - 2010.06.03 18:47:42.
