data_PCOD9273196
_publ_section_title
;
Structure prediction by ZEFSAII (Michael W. Deem and Ramdas Pophale) SiO2 
 PCOD9273196
Probable space group: C 2/C
;
_chemical_formula_sum "Si O2"
_cell_formula_units_Z 64
_cell_length_a 22.123703
_cell_length_b 9.724962
_cell_length_c 13.261025
_cell_angle_alpha 90.000000
_cell_angle_beta 115.803000
_cell_angle_gamma 90.000000
_cell_volume 2568.668963
_symmetry_space_group_name_H-M "C 2/C"
_symmetry_group_IT_number 15
_symmetry_cell_setting 'monoclinic'
loop_
_space_group_symop_operation_xyz
x,y,z
-x,y,1/2-z
-x,-y,-z
x,-y,1/2+z
1/2+x,1/2+y,z
1/2-x,1/2+y,1/2-z
1/2-x,1/2-y,-z
1/2+x,1/2-y,1/2+z
loop_
_atom_site_type_symbol
_atom_site_label
_atom_site_fract_x
_atom_site_fract_y
_atom_site_fract_z
Si Si1 0.856109 0.502238 0.896514
Si Si2 0.715946 0.176257 0.864960
Si Si3 0.511114 0.340438 0.139234
Si Si4 0.759828 0.171613 0.308547
Si Si5 0.101073 0.990168 0.563675
Si Si6 0.050862 0.539341 0.208358
Si Si7 0.819870 0.384137 0.575002
Si Si8 0.865865 0.750505 0.534508
O O1 0.796704 0.419758 0.793058
O O2 0.910633 0.542107 0.851505
O O3 0.832537 0.608605 0.965471
O O4 0.890377 0.383374 0.993308
O O5 0.719481 0.202925 0.748931
O O6 0.645617 0.238579 0.854717
O O7 0.715350 0.027223 0.916172
O O8 0.787000 0.240163 0.947675
O O9 0.500000 0.370177 0.250000
O O10 0.573829 0.430752 0.143032
O O11 0.519323 0.176271 0.136851
O O12 0.450783 0.383006 0.021287
O O13 0.723109 0.217775 0.385682
O O14 0.826089 0.078229 0.370817
O O15 0.102267 0.111993 0.481794
O O16 0.107753 0.606730 0.321109
O O17 0.000000 0.468467 0.250000
#
# Coordination Sequence:
#
# PCOD9273196 Si02
#       8
#     8   8   8   8   8   8   8   8
#     4   9  19  37  60  91 123 158 200 258 311 378
#     4   9  18  33  55  94 121 151 193 252 301 374
#     4  10  24  41  59  84 122 165 211 259 313 366
#     4  10  21  32  61  94 126 148 196 261 313 373
#     4  11  21  37  62  89 117 167 206 249 317 376
#     4  10  21  41  63  83 120 169 211 260 309 364
#     4  10  20  37  63  91 118 165 211 243 324 380
#     4   9  16  32  60  82 120 155 193 243 309 360
#
# _framework density 24.915628999999999
#
# number of rings (size 3 to 8) (size 9 to 14) (size 15 to 20)
#    0.000    2.250    2.500    0.750    1.750    0.500 
#    0.000    6.250    0.000    9.750    0.000    0.000 
#    0.000    0.000    0.000    0.000    0.000    0.000 
#
# Total GULP energy -178569.921451 kJ/mol
# GULP energy per Si atom -5580.310045 kJ/mol
# Density = 2.485892 g / cm^3
# Si number density = 24.915629 Si / 1000 Ang^3
#
#
#
# Elastic Constant Matrix: (Units=GPa)
#
#
# Indices 1 2 3 4 5 6 
#
# 1 170.9620 12.0292 52.8270 0.0000 -51.5230 0.0000
# 2 12.0292 39.3314 3.7455 0.0000 -11.2362 0.0000
# 3 52.8270 3.7455 92.6971 0.0000 -48.0396 0.0000
# 4 0.0000 0.0000 0.0000 34.3211 0.0000 -6.1896
# 5 -51.5230 -11.2362 -48.0396 0.0000 54.3445 0.0000
# 6 0.0000 0.0000 0.0000 -6.1896 0.0000 34.5861
#
#
#
# Elastic Compliance Matrix: (Units=1/GPa)
#
#
# Indices 1 2 3 4 5 6 
#
# 1 0.008270 -0.000519 -0.001263 0.000000 0.006617 0.000000
# 2 -0.000519 0.027622 0.003477 0.000000 0.008293 0.000000
# 3 -0.001263 0.003477 0.020519 0.000000 0.017661 0.000000
# 4 0.000000 0.000000 0.000000 0.030108 0.000000 0.005388
# 5 0.006617 0.008293 0.017661 0.000000 0.042001 0.000000
# 6 0.000000 0.000000 0.000000 0.005388 0.000000 0.029878
#
#
# Mechanical properties :
#
#
# Convention : Reuss Voigt Hill
#
# Bulk Modulus (GPa) = 16.72147 48.91044 32.81595
# Shear Modulus (GPa) = 28.58108 40.27627 34.42867
#
# Velocity S-wave (km/s) = 3.39058 4.02494 3.72130
# Velocity P-wave (km/s) = 4.69615 6.42443 5.62704
#
# Compressibility (1/GPa) = 0.05980334
#
# Stress axis : x y z
#
# Youngs Moduli (GPa) = 120.91583 36.20343 48.73437
#
# Poissons Ratio (x) = 0.01878 0.06154
# Poissons Ratio (y) = 0.06272 -0.16947
# Poissons Ratio (z) = 0.15269 -0.12589
#
# Static dielectric constant tensor:
#      x y z
#    x 2.038510 0.000000 -0.094300 
#    y 0.000000 2.101240 0.000000 
#    z -0.094300 0.000000 2.221810 
# 
# From -- ./inp_files/167650.got.cif
#   From: 2010.05.17/outbox.cif.g08.bks.cpg/sg15_84_cif.got.tgz:167650.got - 2010.06.03 18:47:42.
