data_PCOD9273589
_publ_section_title
;
Structure prediction by ZEFSAII (Michael W. Deem and Ramdas Pophale) SiO2 
 PCOD9273589
Probable space group: C 2/C
;
_chemical_formula_sum "Si O2"
_cell_formula_units_Z 36
_cell_length_a 9.311478
_cell_length_b 17.896866
_cell_length_c 9.114713
_cell_angle_alpha 90.000000
_cell_angle_beta 107.768737
_cell_angle_gamma 90.000000
_cell_volume 1446.473860
_symmetry_space_group_name_H-M "C 2/C"
_symmetry_group_IT_number 15
_symmetry_cell_setting 'monoclinic'
loop_
_space_group_symop_operation_xyz
x,y,z
-x,y,1/2-z
-x,-y,-z
x,-y,1/2+z
1/2+x,1/2+y,z
1/2-x,1/2+y,1/2-z
1/2-x,1/2-y,-z
1/2+x,1/2-y,1/2+z
loop_
_atom_site_type_symbol
_atom_site_label
_atom_site_fract_x
_atom_site_fract_y
_atom_site_fract_z
Si Si1 0.672506 0.398370 0.670304
Si Si2 0.665475 0.101966 0.756881
Si Si3 0.781833 0.256400 0.838366
Si Si4 0.000000 0.351278 0.750000
Si Si5 0.713712 0.495560 0.448823
O O1 0.664141 0.312385 0.718203
O O2 0.852340 0.400640 0.685381
O O3 0.607104 0.435998 0.503162
O O4 0.648680 0.449009 0.804935
O O5 0.500000 0.128321 0.750000
O O6 0.769132 0.174360 0.768513
O O7 0.669716 0.051951 0.613298
O O8 0.723471 0.051477 0.909108
O O9 0.943253 0.296214 0.861247
O O10 0.750000 0.250000 0.000000
#
# Coordination Sequence:
#
# PCOD9273589 Si02
#       5
#     8   8   8   4   8
#     4   9  20  34  55  81 112 144 180 227 286 332
#     4  11  22  32  58  84 112 145 183 235 290 330
#     4  10  20  38  54  80 114 156 185 223 285 338
#     4   8  20  34  56  78 112 148 186 220 274 334
#     4  10  21  33  52  87 116 134 179 243 291 330
#
# _framework density 24.888109
#
# number of rings (size 3 to 8) (size 9 to 14) (size 15 to 20)
#    1.333    0.889    2.222    0.667   12.444    0.889 
#    0.000    0.000    0.000    1.333   11.556    0.000 
#    0.000    0.000    0.000    0.000    0.000    0.000 
#
# Total GULP energy -100398.263491 kJ/mol
# GULP energy per Si atom -5577.681305 kJ/mol
# Density = 2.483146 g / cm^3
# Si number density = 24.888109 Si / 1000 Ang^3
#
#
#
# Elastic Constant Matrix: (Units=GPa)
#
#
# Indices 1 2 3 4 5 6 
#
# 1 72.6335 20.5572 33.0771 0.0000 -3.4151 0.0000
# 2 20.5572 163.1067 51.1402 0.0000 -9.6885 0.0000
# 3 33.0771 51.1402 147.4501 0.0000 -40.7587 0.0000
# 4 0.0000 0.0000 0.0000 48.1002 0.0000 -18.7212
# 5 -3.4151 -9.6885 -40.7587 0.0000 14.4850 0.0000
# 6 0.0000 0.0000 0.0000 -18.7212 0.0000 19.7754
#
#
#
# Elastic Compliance Matrix: (Units=1/GPa)
#
#
# Indices 1 2 3 4 5 6 
#
# 1 0.018179 -0.000153 -0.012911 0.000000 -0.032146 0.000000
# 2 -0.000153 0.007184 -0.005127 0.000000 -0.009657 0.000000
# 3 -0.012911 -0.005127 0.043510 0.000000 0.115957 0.000000
# 4 0.000000 0.000000 0.000000 0.032920 0.000000 0.031165
# 5 -0.032146 -0.009657 0.115957 0.000000 0.381286 0.000000
# 6 0.000000 0.000000 0.000000 0.031165 0.000000 0.080071
#
#
# Mechanical properties :
#
#
# Convention : Reuss Voigt Hill
#
# Bulk Modulus (GPa) = 30.77689 65.85990 48.31839
# Shear Modulus (GPa) = 8.19186 35.03318 21.61252
#
# Velocity S-wave (km/s) = 1.81621 3.75591 2.95004
# Velocity P-wave (km/s) = 4.09770 6.73268 5.57315
#
# Compressibility (1/GPa) = 0.03249191
#
# Stress axis : x y z
#
# Youngs Moduli (GPa) = 55.00805 139.19772 22.98331
#
# Poissons Ratio (x) = 0.02124 0.29674
# Poissons Ratio (y) = 0.00839 0.11783
# Poissons Ratio (z) = 0.71021 0.71365
#
# Static dielectric constant tensor:
#      x y z
#    x 2.000410 0.000000 0.010560 
#    y 0.000000 1.994710 0.000000 
#    z 0.010560 0.000000 2.013850 
# 
# From -- ./inp_files/38319.got.cif
#   From: 2010.05.17/outbox.cif.g08.bks.cpg/sg15_20_cif.got.tgz:38319.got - 2010.06.03 18:47:42.
