data_PCOD9273136
_publ_section_title
;
Structure prediction by ZEFSAII (Michael W. Deem and Ramdas Pophale) SiO2 
 PCOD9273136
Probable space group: C 2/C
;
_chemical_formula_sum "Si O2"
_cell_formula_units_Z 60
_cell_length_a 20.279767
_cell_length_b 10.192433
_cell_length_c 24.852106
_cell_angle_alpha 90.000000
_cell_angle_beta 31.791268
_cell_angle_gamma 90.000000
_cell_volume 2706.271982
_symmetry_space_group_name_H-M "C 2/C"
_symmetry_group_IT_number 15
_symmetry_cell_setting 'monoclinic'
loop_
_space_group_symop_operation_xyz
x,y,z
-x,y,1/2-z
-x,-y,-z
x,-y,1/2+z
1/2+x,1/2+y,z
1/2-x,1/2+y,1/2-z
1/2-x,1/2-y,-z
1/2+x,1/2-y,1/2+z
loop_
_atom_site_type_symbol
_atom_site_label
_atom_site_fract_x
_atom_site_fract_y
_atom_site_fract_z
Si Si1 0.943707 0.812467 0.973802
Si Si2 0.225867 0.188450 0.305499
Si Si3 0.274608 0.614982 0.685955
Si Si4 0.551811 0.105685 0.765990
Si Si5 0.000000 0.843045 0.250000
Si Si6 0.697076 0.130213 0.500324
Si Si7 0.289960 0.852548 0.882293
Si Si8 0.908891 0.019476 0.904512
O O1 0.081964 0.774143 0.894691
O O2 0.949436 0.903436 0.916597
O O3 0.881547 0.889125 0.066453
O O4 0.851241 0.693542 0.021360
O O5 0.304211 0.283796 0.212662
O O6 0.253382 0.200814 0.349253
O O7 0.245296 0.033405 0.279698
O O8 0.151109 0.663293 0.738913
O O9 0.500000 0.185301 0.750000
O O10 0.629712 0.985090 0.686090
O O11 0.427909 0.071947 0.885465
O O12 0.883568 0.749308 0.343890
O O13 0.018538 0.922696 0.292249
O O14 0.750000 0.250000 0.500000
O O15 0.809483 0.029295 0.428043
O O16 0.170883 0.886123 0.001135
#
# Coordination Sequence:
#
# PCOD9273136 Si02
#       8
#     8   8   8   8   4   8   8   8
#     4  11  22  43  67  94 133 174 218 283 344 394
#     4  11  25  42  71  98 132 183 228 272 335 406
#     4  11  24  43  69  98 136 181 227 278 334 408
#     4  11  17  38  69  92 125 176 226 268 339 400
#     4  12  26  40  66  98 136 172 224 282 332 420
#     4  10  20  37  62  96 127 161 222 276 336 392
#     4  11  23  42  66  91 133 185 222 267 343 410
#     4  11  23  42  64  99 130 175 222 280 345 401
#
# _framework density 22.170719999999999
#
# number of rings (size 3 to 8) (size 9 to 14) (size 15 to 20)
#    0.000    1.067    6.000    1.600    1.867    1.067 
#    4.800    2.000    0.000    0.000    0.000    0.000 
#    0.000    0.000    0.000    0.000    0.000    0.000 
#
# Total GULP energy -167501.472229 kJ/mol
# GULP energy per Si atom -5583.382408 kJ/mol
# Density = 2.212026 g / cm^3
# Si number density = 22.170720 Si / 1000 Ang^3
#
#
#
# Elastic Constant Matrix: (Units=GPa)
#
#
# Indices 1 2 3 4 5 6 
#
# 1 94.2478 12.9717 3.1102 0.0000 9.8477 0.0000
# 2 12.9717 50.5502 13.5076 0.0000 29.8865 0.0000
# 3 3.1102 13.5076 60.2336 -0.0002 9.4335 0.0000
# 4 0.0000 0.0000 -0.0002 28.2725 0.0000 6.3835
# 5 9.8477 29.8865 9.4335 0.0000 31.9329 0.0000
# 6 0.0000 0.0000 0.0000 6.3835 0.0000 27.5850
#
#
#
# Elastic Compliance Matrix: (Units=1/GPa)
#
#
# Indices 1 2 3 4 5 6 
#
# 1 0.011040 -0.001859 0.000113 0.000000 -0.001698 0.000000
# 2 -0.001859 0.045363 -0.003688 0.000000 -0.040793 0.000000
# 3 0.000113 -0.003688 0.017707 0.000000 -0.001814 0.000000
# 4 0.000000 0.000000 0.000000 0.037320 0.000000 -0.008636
# 5 -0.001698 -0.040793 -0.001814 0.000000 0.070554 0.000000
# 6 0.000000 0.000000 0.000000 -0.008636 0.000000 0.038250
#
#
# Mechanical properties :
#
#
# Convention : Reuss Voigt Hill
#
# Bulk Modulus (GPa) = 15.81255 29.35671 22.58463
# Shear Modulus (GPa) = 19.82686 29.25422 24.54054
#
# Velocity S-wave (km/s) = 2.99370 3.63643 3.33060
# Velocity P-wave (km/s) = 4.37004 5.55891 4.99994
#
# Compressibility (1/GPa) = 0.06324092
#
# Stress axis : x y z
#
# Youngs Moduli (GPa) = 90.58055 22.04456 56.47366
#
# Poissons Ratio (x) = 0.04099 -0.00637
# Poissons Ratio (y) = 0.16843 0.20827
# Poissons Ratio (z) = -0.01022 0.08130
#
# Static dielectric constant tensor:
#      x y z
#    x 1.841420 0.000000 -0.012790 
#    y 0.000000 1.855980 0.000000 
#    z -0.012790 0.000000 1.828880 
# 
# From -- ./inp_files/280069.got.cif
#   From: 2010.05.17/outbox.cif.g08.bks.cpg/sg15_141_cif.got.tgz:280069.got - 2010.06.03 18:47:42.
