data_PCOD9273013
_publ_section_title
;
Structure prediction by ZEFSAII (Michael W. Deem and Ramdas Pophale) SiO2 
 PCOD9273013
Probable space group: C 2/C
;
_chemical_formula_sum "Si O2"
_cell_formula_units_Z 52
_cell_length_a 30.678871
_cell_length_b 9.060483
_cell_length_c 15.676643
_cell_angle_alpha 90.000000
_cell_angle_beta 41.532516
_cell_angle_gamma 90.000000
_cell_volume 2889.261059
_symmetry_space_group_name_H-M "C 2/C"
_symmetry_group_IT_number 15
_symmetry_cell_setting 'monoclinic'
loop_
_space_group_symop_operation_xyz
x,y,z
-x,y,1/2-z
-x,-y,-z
x,-y,1/2+z
1/2+x,1/2+y,z
1/2-x,1/2+y,1/2-z
1/2-x,1/2-y,-z
1/2+x,1/2-y,1/2+z
loop_
_atom_site_type_symbol
_atom_site_label
_atom_site_fract_x
_atom_site_fract_y
_atom_site_fract_z
Si Si1 0.626799 0.364168 0.010069
Si Si2 0.500000 0.501038 0.250000
Si Si3 0.737927 0.172152 0.926986
Si Si4 0.236736 0.167285 0.107319
Si Si5 0.039355 0.163101 0.021511
Si Si6 0.322376 0.682945 0.631553
Si Si7 0.913329 0.148995 0.114019
O O1 0.673112 0.248351 0.986012
O O2 0.664594 0.514833 0.923122
O O3 0.595781 0.299404 0.969444
O O4 0.566986 0.409918 0.158153
O O5 0.508784 0.594606 0.152033
O O6 0.788916 0.189792 0.773368
O O7 0.736737 0.997927 0.942059
O O8 0.750000 0.250000 0.000000
O O9 0.275903 0.238984 0.129978
O O10 0.157899 0.165280 0.238766
O O11 0.250000 0.250000 0.000000
O O12 0.976377 0.225640 0.064577
O O13 0.104196 0.247704 0.959501
O O14 0.068284 0.026144 0.922391
#
# Coordination Sequence:
#
# PCOD9273013 Si02
#       7
#     8   4   8   8   8   8   8
#     4  10  20  37  62  87 117 156 193 256 290 349
#     4   8  18  30  58  88 112 148 204 240 290 338
#     4  12  23  36  59  89 121 158 198 238 299 357
#     4  12  24  37  60  89 124 157 197 244 296 358
#     4   9  18  32  61  87 114 146 201 257 277 340
#     4  10  20  41  59  90 118 152 200 251 297 338
#     4   9  18  34  55  85 114 146 191 244 296 324
#
# _framework density 17.997679999999999
#
# number of rings (size 3 to 8) (size 9 to 14) (size 15 to 20)
#    0.000    2.154    4.615    0.923    6.462    1.231 
#    0.000    0.000    3.385    0.923    0.000    0.000 
#    0.000    0.000    0.000    0.000    0.000    0.000 
#
# Total GULP energy -144740.828695 kJ/mol
# GULP energy per Si atom -5566.954950 kJ/mol
# Density = 1.795672 g / cm^3
# Si number density = 17.997680 Si / 1000 Ang^3
#
#
#
# Elastic Constant Matrix: (Units=GPa)
#
#
# Indices 1 2 3 4 5 6 
#
# 1 172.9910 58.4871 65.9281 -0.0001 -16.3618 0.0000
# 2 58.4871 62.7428 44.6968 -0.0001 2.6461 0.0000
# 3 65.9281 44.6968 146.0563 -0.0001 -2.4865 0.0000
# 4 -0.0001 -0.0001 -0.0001 18.9754 0.0000 -4.9978
# 5 -16.3618 2.6461 -2.4865 0.0000 30.5021 0.0000
# 6 0.0000 0.0000 0.0000 -4.9978 0.0000 27.6668
#
#
#
# Elastic Compliance Matrix: (Units=1/GPa)
#
#
# Indices 1 2 3 4 5 6 
#
# 1 0.009736 -0.008002 -0.001847 0.000000 0.005766 0.000000
# 2 -0.008002 0.027119 -0.004807 0.000000 -0.007037 0.000000
# 3 -0.001847 -0.004807 0.009154 0.000000 0.000172 0.000000
# 4 0.000000 0.000000 0.000000 0.055332 0.000000 0.009995
# 5 0.005766 -0.007037 0.000172 0.000000 0.036502 0.000000
# 6 0.000000 0.000000 0.000000 0.009995 0.000000 0.037950
#
#
# Mechanical properties :
#
#
# Convention : Reuss Voigt Hill
#
# Bulk Modulus (GPa) = 59.89516 80.00157 69.94836
# Shear Modulus (GPa) = 23.73366 29.60739 26.67053
#
# Velocity S-wave (km/s) = 3.63534 4.06034 3.85370
# Velocity P-wave (km/s) = 7.13951 8.15656 7.66492
#
# Compressibility (1/GPa) = 0.01669584
#
# Stress axis : x y z
#
# Youngs Moduli (GPa) = 102.71542 36.87516 109.23635
#
# Poissons Ratio (x) = 0.29509 0.20181
# Poissons Ratio (y) = 0.82197 0.52505
# Poissons Ratio (z) = 0.18976 0.17724
#
# Static dielectric constant tensor:
#      x y z
#    x 1.992140 0.000000 0.244410 
#    y 0.000000 1.621880 0.000000 
#    z 0.244410 0.000000 1.858410 
# 
# From -- ./inp_files/181076.got.cif
#   From: 2010.05.17/outbox.cif.g08.bks.cpg/sg15_91_cif.got.tgz:181076.got - 2010.06.03 18:47:42.
