data_PCOD9273142
_publ_section_title
;
Structure prediction by ZEFSAII (Michael W. Deem and Ramdas Pophale) SiO2 
 PCOD9273142
Probable space group: C 2/C
;
_chemical_formula_sum "Si O2"
_cell_formula_units_Z 60
_cell_length_a 18.327251
_cell_length_b 25.744638
_cell_length_c 12.509775
_cell_angle_alpha 90.000000
_cell_angle_beta 152.758365
_cell_angle_gamma 90.000000
_cell_volume 2701.819842
_symmetry_space_group_name_H-M "C 2/C"
_symmetry_group_IT_number 15
_symmetry_cell_setting 'monoclinic'
loop_
_space_group_symop_operation_xyz
x,y,z
-x,y,1/2-z
-x,-y,-z
x,-y,1/2+z
1/2+x,1/2+y,z
1/2-x,1/2+y,1/2-z
1/2-x,1/2-y,-z
1/2+x,1/2-y,1/2+z
loop_
_atom_site_type_symbol
_atom_site_label
_atom_site_fract_x
_atom_site_fract_y
_atom_site_fract_z
Si Si1 0.475887 0.094905 0.488698
Si Si2 0.000000 0.051059 0.250000
Si Si3 0.183513 0.778814 0.017162
Si Si4 0.694524 0.479146 0.664233
Si Si5 0.747012 0.178851 0.217905
Si Si6 0.475728 0.384619 0.346227
Si Si7 0.836324 0.431966 0.473554
Si Si8 0.223120 0.378727 0.460524
O O1 0.349419 0.048235 0.315716
O O2 0.371237 0.147926 0.356545
O O3 0.603381 0.089814 0.561191
O O4 0.570391 0.089586 0.723445
O O5 0.119216 0.087250 0.338982
O O6 0.107133 0.016118 0.466472
O O7 0.000000 0.787136 0.750000
O O8 0.250000 0.750000 0.000000
O O9 0.210353 0.739453 0.150139
O O10 0.264297 0.834677 0.116336
O O11 0.574056 0.431982 0.528093
O O12 0.749212 0.513368 0.835763
O O13 0.928791 0.166074 0.487902
O O14 0.713044 0.150517 0.059792
O O15 0.500000 0.388288 0.250000
O O16 0.292572 0.394045 0.138915
O O17 0.000000 0.438834 0.750000
#
# Coordination Sequence:
#
# PCOD9273142 Si02
#       8
#     8   4   8   8   8   8   8   8
#     4  11  24  42  59  97 135 175 220 273 330 395
#     4  12  22  38  64  92 136 176 226 266 336 392
#     4  10  20  37  62  99 131 166 211 272 339 398
#     4  11  24  41  62  91 133 182 227 276 329 401
#     4  10  22  40  65  95 131 178 215 278 343 399
#     4  11  24  45  63  92 134 178 231 281 330 403
#     4  12  25  40  63  92 129 183 229 283 333 396
#     4  11  22  38  66  96 138 170 220 276 336 404
#
# _framework density 22.207253999999999
#
# number of rings (size 3 to 8) (size 9 to 14) (size 15 to 20)
#    0.000    1.067    2.667    5.200    0.000    3.200 
#    0.000    0.000    0.000    0.800    0.000   10.267 
#    2.000    0.000    0.000    0.000    0.000    0.000 
#
# Total GULP energy -167750.383644 kJ/mol
# GULP energy per Si atom -5591.679455 kJ/mol
# Density = 2.215671 g / cm^3
# Si number density = 22.207254 Si / 1000 Ang^3
#
#
#
# Elastic Constant Matrix: (Units=GPa)
#
#
# Indices 1 2 3 4 5 6 
#
# 1 77.2421 14.7309 27.5029 0.0000 11.3625 0.0000
# 2 14.7309 86.8813 30.3602 0.0000 -4.1183 0.0000
# 3 27.5029 30.3602 134.8021 0.0000 0.5597 0.0000
# 4 0.0000 0.0000 0.0000 21.2770 0.0000 0.9430
# 5 11.3625 -4.1183 0.5597 0.0000 38.1515 0.0000
# 6 0.0000 0.0000 0.0000 0.9430 0.0000 10.6157
#
#
#
# Elastic Compliance Matrix: (Units=1/GPa)
#
#
# Indices 1 2 3 4 5 6 
#
# 1 0.014901 -0.001833 -0.002608 0.000000 -0.004597 0.000000
# 2 -0.001833 0.012793 -0.002515 0.000000 0.001964 0.000000
# 3 -0.002608 -0.002515 0.008515 0.000000 0.000380 0.000000
# 4 0.000000 0.000000 0.000000 0.047185 0.000000 -0.004192
# 5 -0.004597 0.001964 0.000380 0.000000 0.027787 0.000000
# 6 0.000000 0.000000 0.000000 -0.004192 0.000000 0.094572
#
#
# Mechanical properties :
#
#
# Convention : Reuss Voigt Hill
#
# Bulk Modulus (GPa) = 44.85135 49.34595 47.09865
# Shear Modulus (GPa) = 22.01691 29.09761 25.55726
#
# Velocity S-wave (km/s) = 3.15211 3.62370 3.39610
# Velocity P-wave (km/s) = 5.78691 6.30691 6.05250
#
# Compressibility (1/GPa) = 0.02229587
#
# Stress axis : x y z
#
# Youngs Moduli (GPa) = 67.11024 78.16886 117.43487
#
# Poissons Ratio (x) = 0.14328 0.30630
# Poissons Ratio (y) = 0.12301 0.29539
# Poissons Ratio (z) = 0.17504 0.19662
#
# Static dielectric constant tensor:
#      x y z
#    x 1.834120 0.000000 -0.007310 
#    y 0.000000 1.778690 0.000000 
#    z -0.007310 0.000000 1.810140 
# 
# From -- ./inp_files/108431.got.cif
#   From: 2010.05.17/outbox.cif.g08.bks.cpg/sg15_55_cif.got.tgz:108431.got - 2010.06.03 18:47:42.
