data_PCOD9273762
_publ_section_title
;
Structure prediction by ZEFSAII (Michael W. Deem and Ramdas Pophale) SiO2 
 PCOD9273762
Probable space group: C 2/C
;
_chemical_formula_sum "Si O2"
_cell_formula_units_Z 52
_cell_length_a 18.353923
_cell_length_b 25.207420
_cell_length_c 9.136907
_cell_angle_alpha 90.000000
_cell_angle_beta 44.236238
_cell_angle_gamma 90.000000
_cell_volume 2948.997658
_symmetry_space_group_name_H-M "C 2/C"
_symmetry_group_IT_number 15
_symmetry_cell_setting 'monoclinic'
loop_
_space_group_symop_operation_xyz
x,y,z
-x,y,1/2-z
-x,-y,-z
x,-y,1/2+z
1/2+x,1/2+y,z
1/2-x,1/2+y,1/2-z
1/2-x,1/2-y,-z
1/2+x,1/2-y,1/2+z
loop_
_atom_site_type_symbol
_atom_site_label
_atom_site_fract_x
_atom_site_fract_y
_atom_site_fract_z
Si Si1 0.582582 0.738116 0.763582
Si Si2 0.719574 0.422417 0.213186
Si Si3 0.799619 0.975574 0.944259
Si Si4 0.014209 0.852360 0.556737
Si Si5 0.330904 0.596660 0.149715
Si Si6 0.716722 0.836038 0.574996
Si Si7 0.500000 0.480255 0.250000
O O1 0.500000 0.734291 0.750000
O O2 0.617489 0.798515 0.738714
O O3 0.684691 0.703857 0.574707
O O4 0.545100 0.706568 0.960774
O O5 0.730890 0.452222 0.353243
O O6 0.735252 0.467367 0.066734
O O7 0.603613 0.395226 0.380351
O O8 0.789253 0.372284 0.063028
O O9 0.769410 0.934771 0.862359
O O10 0.926693 0.981711 0.759115
O O11 0.000000 0.856254 0.750000
O O12 0.908184 0.864051 0.622871
O O13 0.252313 0.625185 0.153650
O O14 0.412594 0.556328 0.952368
#
# Coordination Sequence:
#
# PCOD9273762 Si02
#       7
#     8   8   8   8   8   8   4
#     4  10  20  38  59  72  96 140 183 228 269 309
#     4  11  20  31  45  76 113 145 175 204 248 322
#     4  12  20  27  45  74 112 151 165 197 253 325
#     4  11  20  32  49  76 109 141 177 214 260 313
#     4  12  19  30  47  74 112 141 167 210 252 313
#     4  10  21  36  53  77 102 137 184 220 266 311
#     4  12  18  26  44  72 112 148 172 186 248 328
#
# _framework density 17.633111
#
# number of rings (size 3 to 8) (size 9 to 14) (size 15 to 20)
#    0.000    0.923    7.692    2.308    0.000    0.000 
#    0.000    2.308    0.000    0.000    0.000    4.308 
#    0.000    0.000    0.000    0.000    0.000    0.000 
#
# Total GULP energy -144805.714282 kJ/mol
# GULP energy per Si atom -5569.450549 kJ/mol
# Density = 1.759298 g / cm^3
# Si number density = 17.633111 Si / 1000 Ang^3
#
#
#
# Elastic Constant Matrix: (Units=GPa)
#
#
# Indices 1 2 3 4 5 6 
#
# 1 43.8997 37.4617 31.2996 0.0000 25.7316 0.0000
# 2 37.4617 122.0285 50.4866 0.0000 18.7152 0.0000
# 3 31.2996 50.4866 44.4397 0.0000 21.4556 0.0000
# 4 0.0000 0.0000 0.0000 27.1781 0.0000 -0.6137
# 5 25.7316 18.7152 21.4556 0.0000 22.7231 0.0000
# 6 0.0000 0.0000 0.0000 -0.6137 0.0000 33.2052
#
#
#
# Elastic Compliance Matrix: (Units=1/GPa)
#
#
# Indices 1 2 3 4 5 6 
#
# 1 0.083362 -0.009083 -0.011817 0.000000 -0.075760 0.000000
# 2 -0.009083 0.017098 -0.020572 0.000000 0.015628 0.000000
# 3 -0.011817 -0.020572 0.072695 0.000000 -0.038315 0.000000
# 4 0.000000 0.000000 0.000000 0.036810 0.000000 0.000680
# 5 -0.075760 0.015628 -0.038315 0.000000 0.153104 0.000000
# 6 0.000000 0.000000 0.000000 0.000680 0.000000 0.030128
#
#
# Mechanical properties :
#
#
# Convention : Reuss Voigt Hill
#
# Bulk Modulus (GPa) = 11.08518 49.87374 30.47946
# Shear Modulus (GPa) = 9.87728 22.69596 16.28662
#
# Velocity S-wave (km/s) = 2.36933 3.59154 3.04244
# Velocity P-wave (km/s) = 3.71284 6.74866 5.44654
#
# Compressibility (1/GPa) = 0.09021049
#
# Stress axis : x y z
#
# Youngs Moduli (GPa) = 11.99586 58.48753 13.75605
#
# Poissons Ratio (x) = 0.53126 0.16255
# Poissons Ratio (y) = 0.10896 0.28299
# Poissons Ratio (z) = 0.14175 1.20321
#
# Static dielectric constant tensor:
#      x y z
#    x 1.613620 0.000000 0.033010 
#    y 0.000000 1.674870 0.000000 
#    z 0.033010 0.000000 1.610030 
# 
# From -- ./inp_files/42063.got.cif
#   From: 2010.05.17/outbox.cif.g08.bks.cpg/sg15_22_cif.got.tgz:42063.got - 2010.06.03 18:47:42.
