data_PCOD9273419
_publ_section_title
;
Structure prediction by ZEFSAII (Michael W. Deem and Ramdas Pophale) SiO2 
 PCOD9273419
Probable space group: C 2/C
;
_chemical_formula_sum "Si O2"
_cell_formula_units_Z 64
_cell_length_a 10.556022
_cell_length_b 30.298654
_cell_length_c 9.351436
_cell_angle_alpha 90.000000
_cell_angle_beta 97.761611
_cell_angle_gamma 90.000000
_cell_volume 2963.499260
_symmetry_space_group_name_H-M "C 2/C"
_symmetry_group_IT_number 15
_symmetry_cell_setting 'monoclinic'
loop_
_space_group_symop_operation_xyz
x,y,z
-x,y,1/2-z
-x,-y,-z
x,-y,1/2+z
1/2+x,1/2+y,z
1/2-x,1/2+y,1/2-z
1/2-x,1/2-y,-z
1/2+x,1/2-y,1/2+z
loop_
_atom_site_type_symbol
_atom_site_label
_atom_site_fract_x
_atom_site_fract_y
_atom_site_fract_z
Si Si1 0.869540 0.381278 0.299793
Si Si2 0.098735 0.751735 0.397721
Si Si3 0.902897 0.208253 0.046726
Si Si4 0.844800 0.874096 0.712474
Si Si5 0.870627 0.968185 0.631123
Si Si6 0.113313 0.351862 0.880217
Si Si7 0.138790 0.946790 0.207265
Si Si8 0.697501 0.218939 0.773838
O O1 0.883849 0.379859 0.473841
O O2 0.744212 0.408403 0.231881
O O3 0.854546 0.330216 0.248629
O O4 0.000000 0.399027 0.250000
O O5 0.087886 0.699144 0.421053
O O6 0.237444 0.765115 0.361762
O O7 0.000000 0.757834 0.250000
O O8 0.044741 0.785995 0.506817
O O9 0.844177 0.162632 0.090922
O O10 0.889130 0.244316 0.167474
O O11 0.812118 0.219557 0.903366
O O12 0.800622 0.923014 0.663633
O O13 0.750626 0.857635 0.822757
O O14 0.000000 0.876845 0.750000
O O15 0.883904 0.964208 0.460232
O O16 0.000000 0.968060 0.750000
O O17 0.812382 0.013773 0.680400
O O18 0.000000 0.363341 0.750000
O O19 0.000000 0.932473 0.250000
#
# Coordination Sequence:
#
# PCOD9273419 Si02
#       8
#     8   8   8   8   8   8   8   8
#     4  12  29  45  67 106 146 187 237 291 357 424
#     4   9  19  37  60  93 127 187 239 288 339 412
#     4  10  20  37  65  92 137 182 233 284 348 408
#     4  11  25  40  69 105 135 175 240 293 351 419
#     4  10  23  44  78 110 145 176 231 292 363 415
#     4  11  26  46  69  94 146 196 241 284 355 423
#     4  11  25  47  79 107 142 180 234 295 359 425
#     4  10  21  38  61  90 135 184 232 280 344 413
#
# _framework density 21.59609
#
# number of rings (size 3 to 8) (size 9 to 14) (size 15 to 20)
#    0.000    1.500    1.250    3.000   12.250    3.500 
#    0.000    1.250    0.000    0.000    0.000    0.000 
#    0.000    0.000    0.000    0.000    0.000    0.000 
#
# Total GULP energy -178439.424813 kJ/mol
# GULP energy per Si atom -5576.232025 kJ/mol
# Density = 2.154694 g / cm^3
# Si number density = 21.596090 Si / 1000 Ang^3
#
#
#
# Elastic Constant Matrix: (Units=GPa)
#
#
# Indices 1 2 3 4 5 6 
#
# 1 108.4284 26.2209 54.9678 0.0000 -3.9263 0.0000
# 2 26.2209 77.3219 17.3313 0.0000 -6.3987 0.0000
# 3 54.9678 17.3313 140.7164 0.0000 -2.0735 0.0000
# 4 0.0000 0.0000 0.0000 23.8457 0.0000 6.6624
# 5 -3.9263 -6.3987 -2.0735 0.0000 38.0393 0.0000
# 6 0.0000 0.0000 0.0000 6.6624 0.0000 25.0605
#
#
#
# Elastic Compliance Matrix: (Units=1/GPa)
#
#
# Indices 1 2 3 4 5 6 
#
# 1 0.012216 -0.003120 -0.004380 0.000000 0.000497 0.000000
# 2 -0.003120 0.014275 -0.000509 0.000000 0.002051 0.000000
# 3 -0.004380 -0.000509 0.008879 0.000000 -0.000054 0.000000
# 4 0.000000 0.000000 0.000000 0.045301 0.000000 -0.012044
# 5 0.000497 0.002051 -0.000054 0.000000 0.026682 0.000000
# 6 0.000000 0.000000 0.000000 -0.012044 0.000000 0.043105
#
#
# Mechanical properties :
#
#
# Convention : Reuss Voigt Hill
#
# Bulk Modulus (GPa) = 51.67512 58.16740 54.92126
# Shear Modulus (GPa) = 28.91391 32.58554 30.74972
#
# Velocity S-wave (km/s) = 3.66300 3.88862 3.77750
# Velocity P-wave (km/s) = 6.47070 6.86692 6.67175
#
# Compressibility (1/GPa) = 0.01935167
#
# Stress axis : x y z
#
# Youngs Moduli (GPa) = 81.86237 70.05374 112.61926
#
# Poissons Ratio (x) = 0.21853 0.49330
# Poissons Ratio (y) = 0.25537 0.05736
# Poissons Ratio (z) = 0.35858 0.03568
#
# Static dielectric constant tensor:
#      x y z
#    x 1.886100 0.000000 -0.092200 
#    y 0.000000 1.824620 0.000000 
#    z -0.092200 0.000000 1.935140 
# 
# From -- ./inp_files/35690.got.cif
#   From: 2010.05.17/outbox.cif.g08.bks.cpg/sg15_18_cif.got.tgz:35690.got - 2010.06.03 18:47:42.
