data_PCOD9273086
_publ_section_title
;
Structure prediction by ZEFSAII (Michael W. Deem and Ramdas Pophale) SiO2 
 PCOD9273086
Probable space group: C 2/C
;
_chemical_formula_sum "Si O2"
_cell_formula_units_Z 56
_cell_length_a 30.413754
_cell_length_b 4.960930
_cell_length_c 21.355092
_cell_angle_alpha 90.000000
_cell_angle_beta 118.722513
_cell_angle_gamma 90.000000
_cell_volume 2825.615561
_symmetry_space_group_name_H-M "C 2/C"
_symmetry_group_IT_number 15
_symmetry_cell_setting 'monoclinic'
loop_
_space_group_symop_operation_xyz
x,y,z
-x,y,1/2-z
-x,-y,-z
x,-y,1/2+z
1/2+x,1/2+y,z
1/2-x,1/2+y,1/2-z
1/2-x,1/2-y,-z
1/2+x,1/2-y,1/2+z
loop_
_atom_site_type_symbol
_atom_site_label
_atom_site_fract_x
_atom_site_fract_y
_atom_site_fract_z
Si Si1 0.467605 0.395407 0.919440
Si Si2 0.415195 0.280908 0.277300
Si Si3 0.432407 0.733661 0.066740
Si Si4 0.892729 0.273635 0.469227
Si Si5 0.799301 0.084550 0.338465
Si Si6 0.942540 0.274276 0.216560
Si Si7 0.812265 0.583863 0.263289
O O1 0.445666 0.628132 0.860094
O O2 0.508265 0.227486 0.907696
O O3 0.421854 0.246080 0.922392
O O4 0.500000 0.500000 0.000000
O O5 0.412237 0.554041 0.235175
O O6 0.361460 0.164788 0.259802
O O7 0.441314 0.055280 0.252561
O O8 0.422836 0.792520 0.132444
O O9 0.418658 0.431138 0.036196
O O10 0.400642 0.930734 0.001217
O O11 0.836469 0.176392 0.418265
O O12 0.812391 0.280348 0.288938
O O13 0.740141 0.121893 0.309237
O O14 0.809305 0.782109 0.321610
O O15 0.000000 0.177644 0.250000
#
# Coordination Sequence:
#
# PCOD9273086 Si02
#       7
#     8   8   8   8   8   8   8
#     4  10  23  36  59  89 123 154 190 244 303 366
#     4  12  24  40  63  86 124 162 199 254 293 353
#     4  11  24  40  56  87 120 163 206 240 288 363
#     4  11  22  38  63  86 124 154 192 250 312 358
#     4  10  20  37  62  91 123 153 190 247 313 371
#     4  12  26  41  61  82 120 169 214 240 284 344
#     4  10  21  37  60  93 122 152 196 246 307 365
#
# _framework density 19.81869
#
# number of rings (size 3 to 8) (size 9 to 14) (size 15 to 20)
#    0.000    1.143    2.857    3.429    6.000    0.000 
#    0.000    0.000    0.000    5.143    0.000    0.000 
#    0.000    0.000    0.000    0.000    0.000    0.000 
#
# Total GULP energy -156519.903837 kJ/mol
# GULP energy per Si atom -5589.996566 kJ/mol
# Density = 1.977358 g / cm^3
# Si number density = 19.818690 Si / 1000 Ang^3
#
#
#
# Elastic Constant Matrix: (Units=GPa)
#
#
# Indices 1 2 3 4 5 6 
#
# 1 62.4886 -12.6249 40.9513 -0.0006 5.2301 -0.0012
# 2 -12.6249 52.8553 7.9284 -0.0102 -16.9839 -0.0028
# 3 40.9513 7.9284 92.7431 0.0004 -8.1396 -0.0007
# 4 -0.0006 -0.0102 0.0004 30.4435 0.0000 -1.6735
# 5 5.2301 -16.9839 -8.1396 0.0000 30.0596 0.0003
# 6 -0.0012 -0.0028 -0.0007 -1.6735 0.0003 24.9853
#
#
#
# Elastic Compliance Matrix: (Units=1/GPa)
#
#
# Indices 1 2 3 4 5 6 
#
# 1 0.025753 0.006703 -0.012298 0.000003 -0.004023 0.000002
# 2 0.006703 0.024927 -0.004053 0.000009 0.011820 0.000003
# 3 -0.012298 -0.004053 0.016949 -0.000002 0.004439 -0.000001
# 4 0.000003 0.000009 -0.000002 0.032969 0.000004 0.002208
# 5 -0.004023 0.011820 0.004439 0.000004 0.041848 0.000001
# 6 0.000002 0.000003 -0.000001 0.002208 0.000001 0.040171
#
#
# Mechanical properties :
#
#
# Convention : Reuss Voigt Hill
#
# Bulk Modulus (GPa) = 20.68987 31.17741 25.93364
# Shear Modulus (GPa) = 22.93331 28.55314 25.74323
#
# Velocity S-wave (km/s) = 3.40539 3.79980 3.60799
# Velocity P-wave (km/s) = 5.09161 5.91749 5.52002
#
# Compressibility (1/GPa) = 0.04833283
#
# Stress axis : x y z
#
# Youngs Moduli (GPa) = 38.83032 40.11744 59.00172
#
# Poissons Ratio (x) = -0.26891 0.72558
# Poissons Ratio (y) = -0.26028 0.23916
# Poissons Ratio (z) = 0.47752 0.16261
#
# Static dielectric constant tensor:
#      x y z
#    x 1.708130 0.000000 0.009010 
#    y 0.000000 1.696870 0.000000 
#    z 0.009010 0.000000 1.703350 
# 
# From -- ./inp_files/221291.got.cif
#   From: 2010.05.17/outbox.cif.g08.bks.cpg/sg15_111_cif.got.tgz:221291.got - 2010.06.03 18:47:42.
