data_PCOD9273537
_publ_section_title
;
Structure prediction by ZEFSAII (Michael W. Deem and Ramdas Pophale) SiO2 
 PCOD9273537
Probable space group: C 2/C
;
_chemical_formula_sum "Si O2"
_cell_formula_units_Z 44
_cell_length_a 7.053020
_cell_length_b 24.315123
_cell_length_c 13.968036
_cell_angle_alpha 90.000000
_cell_angle_beta 138.866939
_cell_angle_gamma 90.000000
_cell_volume 1575.750221
_symmetry_space_group_name_H-M "C 2/C"
_symmetry_group_IT_number 15
_symmetry_cell_setting 'monoclinic'
loop_
_space_group_symop_operation_xyz
x,y,z
-x,y,1/2-z
-x,-y,-z
x,-y,1/2+z
1/2+x,1/2+y,z
1/2-x,1/2+y,1/2-z
1/2-x,1/2-y,-z
1/2+x,1/2-y,1/2+z
loop_
_atom_site_type_symbol
_atom_site_label
_atom_site_fract_x
_atom_site_fract_y
_atom_site_fract_z
Si Si1 0.500000 0.878077 0.250000
Si Si2 0.057292 0.302518 0.451578
Si Si3 0.000000 0.742985 0.250000
Si Si4 0.883017 0.355252 0.843022
Si Si5 0.500000 0.060775 0.250000
Si Si6 0.294616 0.565887 0.591589
Si Si7 0.236857 0.533972 0.975028
O O1 0.453692 0.836478 0.320150
O O2 0.267475 0.919546 0.110407
O O3 0.250000 0.250000 0.500000
O O4 0.226024 0.340576 0.592445
O O5 0.766581 0.278661 0.386603
O O6 0.895819 0.701890 0.293116
O O7 0.776491 0.400315 0.724262
O O8 0.193506 0.384808 0.982766
O O9 0.367135 0.019714 0.123304
O O10 0.500000 0.590454 0.750000
O O11 0.440076 0.506473 0.617420
O O12 0.999828 0.553109 0.538267
#
# Coordination Sequence:
#
# PCOD9273537 Si02
#       7
#     4   8   4   8   4   8   8
#     4  11  22  43  68  96 138 179 224 285 342 408
#     4  12  26  44  68 102 137 181 237 288 343 403
#     4  11  26  47  68  96 138 177 236 295 336 404
#     4  10  21  42  68  94 129 180 224 281 350 400
#     4   8  18  38  68  90 132 174 218 270 332 426
#     4  10  20  37  67  97 131 176 225 273 339 419
#     4   9  19  39  61  96 137 169 214 278 336 411
#
# _framework density 27.923209
#
# number of rings (size 3 to 8) (size 9 to 14) (size 15 to 20)
#    0.000    1.818    1.818    1.636    1.273    1.455 
#    0.000   17.273    0.000    0.000    0.000    0.000 
#    0.000    0.000    0.000    0.000    0.000    0.000 
#
# Total GULP energy -122626.536438 kJ/mol
# GULP energy per Si atom -5573.933474 kJ/mol
# Density = 2.785965 g / cm^3
# Si number density = 27.923209 Si / 1000 Ang^3
#
#
#
# Elastic Constant Matrix: (Units=GPa)
#
#
# Indices 1 2 3 4 5 6 
#
# 1 91.6959 39.9494 -1.0293 0.0000 -18.5031 0.0000
# 2 39.9494 169.1616 24.0141 0.0000 -21.5468 0.0000
# 3 -1.0293 24.0141 91.7069 0.0000 -26.9719 0.0000
# 4 0.0000 0.0000 0.0000 38.8832 0.0000 -23.3444
# 5 -18.5031 -21.5468 -26.9719 0.0000 49.7066 0.0000
# 6 0.0000 0.0000 0.0000 -23.3444 0.0000 60.8528
#
#
#
# Elastic Compliance Matrix: (Units=1/GPa)
#
#
# Indices 1 2 3 4 5 6 
#
# 1 0.013154 -0.002808 0.002338 0.000000 0.004948 0.000000
# 2 -0.002808 0.006935 -0.001512 0.000000 0.001140 0.000000
# 3 0.002338 -0.001512 0.013553 0.000000 0.007569 0.000000
# 4 0.000000 0.000000 0.000000 0.033414 0.000000 0.012818
# 5 0.004948 0.001140 0.007569 0.000000 0.026561 0.000000
# 6 0.000000 0.000000 0.000000 0.012818 0.000000 0.021350
#
#
# Mechanical properties :
#
#
# Convention : Reuss Voigt Hill
#
# Bulk Modulus (GPa) = 33.69623 53.15922 43.42772
# Shear Modulus (GPa) = 38.81318 49.19722 44.00520
#
# Velocity S-wave (km/s) = 3.73231 4.20202 3.97411
# Velocity P-wave (km/s) = 5.53780 6.52853 6.05346
#
# Compressibility (1/GPa) = 0.02967691
#
# Stress axis : x y z
#
# Youngs Moduli (GPa) = 76.02440 144.20556 73.78685
#
# Poissons Ratio (x) = 0.40494 -0.17253
# Poissons Ratio (y) = 0.21348 0.11157
# Poissons Ratio (z) = -0.17776 0.21804
#
# Static dielectric constant tensor:
#      x y z
#    x 2.525800 0.000000 -0.293800 
#    y 0.000000 2.122420 0.000000 
#    z -0.293800 0.000000 2.741710 
# 
# From -- ./inp_files/138844.got.cif
#   From: 2010.05.17/outbox.cif.g08.bks.cpg/sg15_70_cif.got.tgz:138844.got - 2010.06.03 18:47:42.
