data_PCOD9273485
_publ_section_title
;
Structure prediction by ZEFSAII (Michael W. Deem and Ramdas Pophale) SiO2 
 PCOD9273485
Probable space group: C 2/C
;
_chemical_formula_sum "Si O2"
_cell_formula_units_Z 52
_cell_length_a 25.379489
_cell_length_b 5.490816
_cell_length_c 17.526288
_cell_angle_alpha 90.000000
_cell_angle_beta 119.462734
_cell_angle_gamma 90.000000
_cell_volume 2126.503869
_symmetry_space_group_name_H-M "C 2/C"
_symmetry_group_IT_number 15
_symmetry_cell_setting 'monoclinic'
loop_
_space_group_symop_operation_xyz
x,y,z
-x,y,1/2-z
-x,-y,-z
x,-y,1/2+z
1/2+x,1/2+y,z
1/2-x,1/2+y,1/2-z
1/2-x,1/2-y,-z
1/2+x,1/2-y,1/2+z
loop_
_atom_site_type_symbol
_atom_site_label
_atom_site_fract_x
_atom_site_fract_y
_atom_site_fract_z
Si Si1 0.000000 0.022295 0.750000
Si Si2 0.720659 0.014617 0.141850
Si Si3 0.338729 0.744980 0.265939
Si Si4 0.615156 0.350485 0.109200
Si Si5 0.146147 0.284591 0.957521
Si Si6 0.111382 0.351858 0.777659
Si Si7 0.072221 0.216587 0.429842
O O1 0.053962 0.205658 0.766654
O O2 0.018806 0.853960 0.834684
O O3 0.791111 0.072235 0.189800
O O4 0.675747 0.248428 0.111189
O O5 0.707411 0.905508 0.216345
O O6 0.697220 0.848449 0.055747
O O7 0.378691 0.628265 0.361493
O O8 0.381229 0.860408 0.232019
O O9 0.614168 0.227252 0.191235
O O10 0.561409 0.290148 0.013329
O O11 0.161180 0.300341 0.878469
O O12 0.117105 0.019176 0.951697
O O13 0.099005 0.515045 0.931918
#
# Coordination Sequence:
#
# PCOD9273485 Si02
#       7
#     4   8   8   8   8   8   8
#     4  10  24  48  66  92 134 184 218 288 342 390
#     4  10  20  37  66  93 136 178 219 266 345 391
#     4  11  20  37  65  99 130 176 223 275 324 410
#     4  10  21  40  64  98 130 173 223 284 320 409
#     4  10  22  42  65  98 136 180 215 278 331 407
#     4  10  25  41  65  97 135 174 230 277 335 391
#     4  10  22  42  70  94 131 177 231 271 341 390
#
# _framework density 24.453284
#
# number of rings (size 3 to 8) (size 9 to 14) (size 15 to 20)
#    0.000    1.846    3.077    0.000    4.308    3.692 
#    0.000    1.538    0.000    0.000    0.000    0.000 
#    0.000    0.000    0.000    0.000    0.000    0.000 
#
# Total GULP energy -144911.995269 kJ/mol
# GULP energy per Si atom -5573.538280 kJ/mol
# Density = 2.439763 g / cm^3
# Si number density = 24.453284 Si / 1000 Ang^3
#
#
#
# Elastic Constant Matrix: (Units=GPa)
#
#
# Indices 1 2 3 4 5 6 
#
# 1 39.2831 15.9463 30.4653 -0.0001 -5.3440 0.0004
# 2 15.9463 82.4048 9.8474 -0.0004 -5.0599 0.0010
# 3 30.4653 9.8474 176.2042 0.0000 -14.7136 0.0001
# 4 -0.0001 -0.0004 0.0000 49.9723 0.0000 -6.4851
# 5 -5.3440 -5.0599 -14.7136 0.0000 28.8088 0.0000
# 6 0.0004 0.0010 0.0001 -6.4851 0.0000 27.8838
#
#
#
# Elastic Compliance Matrix: (Units=1/GPa)
#
#
# Indices 1 2 3 4 5 6 
#
# 1 0.031866 -0.005421 -0.005006 0.000000 0.002402 0.000000
# 2 -0.005421 0.013237 0.000321 0.000000 0.001483 0.000000
# 3 -0.005006 0.000321 0.006737 0.000000 0.002569 0.000000
# 4 0.000000 0.000000 0.000000 0.020634 0.000000 0.004799
# 5 0.002402 0.001483 0.002569 0.000000 0.036730 0.000000
# 6 0.000000 0.000000 0.000000 0.004799 0.000000 0.036979
#
#
# Mechanical properties :
#
#
# Convention : Reuss Voigt Hill
#
# Bulk Modulus (GPa) = 31.61626 45.60114 38.60870
# Shear Modulus (GPa) = 28.25875 37.44187 32.85031
#
# Velocity S-wave (km/s) = 3.40313 3.91725 3.66921
# Velocity P-wave (km/s) = 5.32908 6.25688 5.81152
#
# Compressibility (1/GPa) = 0.03162930
#
# Stress axis : x y z
#
# Youngs Moduli (GPa) = 31.38166 75.54661 148.42739
#
# Poissons Ratio (x) = 0.40951 0.74302
# Poissons Ratio (y) = 0.17011 -0.04769
# Poissons Ratio (z) = 0.15710 -0.02428
#
# Static dielectric constant tensor:
#      x y z
#    x 1.934340 0.000000 -0.015040 
#    y 0.000000 2.278460 0.000000 
#    z -0.015040 0.000000 1.995990 
# 
# From -- ./inp_files/221349.got.cif
#   From: 2010.05.17/outbox.cif.g08.bks.cpg/sg15_111_cif.got.tgz:221349.got - 2010.06.03 18:47:42.
