data_PCOD9273418
_publ_section_title
;
Structure prediction by ZEFSAII (Michael W. Deem and Ramdas Pophale) SiO2 
 PCOD9273418
Probable space group: C 2/C
;
_chemical_formula_sum "Si O2"
_cell_formula_units_Z 48
_cell_length_a 12.119148
_cell_length_b 14.175798
_cell_length_c 13.017866
_cell_angle_alpha 90.000000
_cell_angle_beta 57.221990
_cell_angle_gamma 90.000000
_cell_volume 1880.350919
_symmetry_space_group_name_H-M "C 2/C"
_symmetry_group_IT_number 15
_symmetry_cell_setting 'monoclinic'
loop_
_space_group_symop_operation_xyz
x,y,z
-x,y,1/2-z
-x,-y,-z
x,-y,1/2+z
1/2+x,1/2+y,z
1/2-x,1/2+y,1/2-z
1/2-x,1/2-y,-z
1/2+x,1/2-y,1/2+z
loop_
_atom_site_type_symbol
_atom_site_label
_atom_site_fract_x
_atom_site_fract_y
_atom_site_fract_z
Si Si1 0.996359 0.533036 0.375961
Si Si2 0.231204 0.138409 0.494555
Si Si3 0.564484 0.826374 0.108708
Si Si4 0.811327 0.195357 0.601731
Si Si5 0.724881 0.618560 0.251518
Si Si6 0.965722 0.039499 0.631237
O O1 0.860823 0.585494 0.469617
O O2 0.997314 0.422400 0.399507
O O3 0.000000 0.537695 0.250000
O O4 0.132153 0.576234 0.344722
O O5 0.250000 0.250000 0.500000
O O6 0.221299 0.126325 0.376434
O O7 0.097755 0.090435 0.605428
O O8 0.500000 0.802668 0.250000
O O9 0.715599 0.849629 0.064852
O O10 0.570878 0.743379 0.022511
O O11 0.732816 0.279511 0.695990
O O12 0.860933 0.121669 0.659453
O O13 0.608472 0.548065 0.278180
O O14 0.000000 0.000000 0.500000
#
# Coordination Sequence:
#
# PCOD9273418 Si02
#       6
#     8   8   8   8   8   8
#     4   9  18  39  61  86 124 169 208 267 336 393
#     4  10  20  37  65  92 133 176 216 275 341 398
#     4  10  22  39  64  89 124 169 217 271 335 397
#     4  11  23  40  63  97 129 171 221 275 343 397
#     4  10  22  40  65  92 133 174 221 272 335 402
#     4  10  21  39  65  94 133 176 220 281 335 395
#
# _framework density 25.527151
#
# number of rings (size 3 to 8) (size 9 to 14) (size 15 to 20)
#    0.000    2.000    0.000    5.000    4.667    0.667 
#    3.000    0.000    7.333    0.000    0.000    0.000 
#    0.000    0.000    0.000    0.000    0.000    0.000 
#
# Total GULP energy -134391.360496 kJ/mol
# GULP energy per Si atom -5599.640021 kJ/mol
# Density = 2.546905 g / cm^3
# Si number density = 25.527151 Si / 1000 Ang^3
#
#
#
# Elastic Constant Matrix: (Units=GPa)
#
#
# Indices 1 2 3 4 5 6 
#
# 1 132.4963 66.4438 26.9253 0.0000 -20.5206 0.0000
# 2 66.4438 153.8051 36.9887 0.0000 -22.5075 0.0000
# 3 26.9253 36.9887 82.3269 0.0000 -9.1802 0.0000
# 4 0.0000 0.0000 0.0000 43.8867 0.0000 3.6655
# 5 -20.5206 -22.5075 -9.1802 0.0000 39.4584 0.0000
# 6 0.0000 0.0000 0.0000 3.6655 0.0000 14.8131
#
#
#
# Elastic Compliance Matrix: (Units=1/GPa)
#
#
# Indices 1 2 3 4 5 6 
#
# 1 0.010076 -0.003607 -0.001355 0.000000 0.002867 0.000000
# 2 -0.003607 0.009080 -0.002599 0.000000 0.002699 0.000000
# 3 -0.001355 -0.002599 0.013873 0.000000 0.001041 0.000000
# 4 0.000000 0.000000 0.000000 0.023267 0.000000 -0.005757
# 5 0.002867 0.002699 0.001041 0.000000 0.028616 0.000000
# 6 0.000000 0.000000 0.000000 -0.005757 0.000000 0.068932
#
#
# Mechanical properties :
#
#
# Convention : Reuss Voigt Hill
#
# Bulk Modulus (GPa) = 55.84352 69.92711 62.88532
# Shear Modulus (GPa) = 28.58200 35.51633 32.04916
#
# Velocity S-wave (km/s) = 3.34978 3.73408 3.54714
# Velocity P-wave (km/s) = 6.07330 6.78556 6.43929
#
# Compressibility (1/GPa) = 0.01790718
#
# Stress axis : x y z
#
# Youngs Moduli (GPa) = 99.24820 110.13184 72.07989
#
# Poissons Ratio (x) = 0.39728 0.09766
# Poissons Ratio (y) = 0.35802 0.18732
# Poissons Ratio (z) = 0.13447 0.28622
#
# Static dielectric constant tensor:
#      x y z
#    x 2.066320 0.000000 0.010010 
#    y 0.000000 1.984900 0.000000 
#    z 0.010010 0.000000 2.115180 
# 
# From -- ./inp_files/144095.got.cif
#   From: 2010.05.17/outbox.cif.g08.bks.cpg/sg15_73_cif.got.tgz:144095.got - 2010.06.03 18:47:42.
