data_PCOD9273840
_publ_section_title
;
Structure prediction by ZEFSAII (Michael W. Deem and Ramdas Pophale) SiO2 
 PCOD9273840
Probable space group: C 2/C
;
_chemical_formula_sum "Si O2"
_cell_formula_units_Z 28
_cell_length_a 6.686668
_cell_length_b 26.672065
_cell_length_c 6.922008
_cell_angle_alpha 90.000000
_cell_angle_beta 67.511363
_cell_angle_gamma 90.000000
_cell_volume 1140.642398
_symmetry_space_group_name_H-M "C 2/C"
_symmetry_group_IT_number 15
_symmetry_cell_setting 'monoclinic'
loop_
_space_group_symop_operation_xyz
x,y,z
-x,y,1/2-z
-x,-y,-z
x,-y,1/2+z
1/2+x,1/2+y,z
1/2-x,1/2+y,1/2-z
1/2-x,1/2-y,-z
1/2+x,1/2-y,1/2+z
loop_
_atom_site_type_symbol
_atom_site_label
_atom_site_fract_x
_atom_site_fract_y
_atom_site_fract_z
Si Si1 0.814863 0.567027 0.561563
Si Si2 0.000000 0.251939 0.750000
Si Si3 0.105106 0.675235 0.917960
Si Si4 0.306205 0.458110 0.964332
O O1 0.808644 0.625060 0.508749
O O2 0.701652 0.518806 0.507249
O O3 0.071156 0.554648 0.460424
O O4 0.716474 0.565671 0.815459
O O5 0.940771 0.291345 0.602524
O O6 0.199044 0.214091 0.665650
O O7 0.000000 0.662177 0.750000
O O8 0.500000 0.442379 0.750000
#
# Coordination Sequence:
#
# PCOD9273840 Si02
#       4
#     8   4   8   8
#     4  10  22  39  61  94 134 168 221 267 328 401
#     4  10  26  42  72  96 124 176 230 276 346 388
#     4  11  22  48  66  98 133 172 221 287 331 400
#     4  10  20  38  59  93 129 172 212 262 322 405
#
# _framework density 24.547573
#
# number of rings (size 3 to 8) (size 9 to 14) (size 15 to 20)
#    0.000    1.714    2.857    1.714    2.000    4.571 
#   10.286    0.000    0.000    0.000    0.000    0.000 
#    0.000    0.000    0.000    0.000    0.000    0.000 
#
# Total GULP energy -78195.979063 kJ/mol
# GULP energy per Si atom -5585.427076 kJ/mol
# Density = 2.449170 g / cm^3
# Si number density = 24.547573 Si / 1000 Ang^3
#
#
#
# Elastic Constant Matrix: (Units=GPa)
#
#
# Indices 1 2 3 4 5 6 
#
# 1 52.0950 13.0298 23.0903 0.0000 -9.1362 0.0000
# 2 13.0298 215.6973 43.7650 0.0000 -10.2471 0.0000
# 3 23.0903 43.7650 113.0682 0.0000 -36.2066 0.0000
# 4 0.0000 0.0000 0.0000 44.8707 0.0000 -2.5014
# 5 -9.1362 -10.2471 -36.2066 0.0000 40.5074 0.0000
# 6 0.0000 0.0000 0.0000 -2.5014 0.0000 36.0620
#
#
#
# Elastic Compliance Matrix: (Units=1/GPa)
#
#
# Indices 1 2 3 4 5 6 
#
# 1 0.021195 -0.000462 -0.003721 0.000000 0.001337 0.000000
# 2 -0.000462 0.005054 -0.002082 0.000000 -0.000686 0.000000
# 3 -0.003721 -0.002082 0.013971 0.000000 0.011122 0.000000
# 4 0.000000 0.000000 0.000000 0.022373 0.000000 0.001552
# 5 0.001337 -0.000686 0.011122 0.000000 0.034756 0.000000
# 6 0.000000 0.000000 0.000000 0.001552 0.000000 0.027838
#
#
# Mechanical properties :
#
#
# Convention : Reuss Voigt Hill
#
# Bulk Modulus (GPa) = 36.11300 60.07006 48.09153
# Shear Modulus (GPa) = 34.02591 44.35305 39.18948
#
# Velocity S-wave (km/s) = 3.72710 4.25528 3.99992
# Velocity P-wave (km/s) = 5.76759 6.97619 6.40048
#
# Compressibility (1/GPa) = 0.02769086
#
# Stress axis : x y z
#
# Youngs Moduli (GPa) = 47.18047 197.87187 71.57462
#
# Poissons Ratio (x) = 0.09137 0.26636
# Poissons Ratio (y) = 0.02179 0.14899
# Poissons Ratio (z) = 0.17558 0.41189
#
# Static dielectric constant tensor:
#      x y z
#    x 2.064040 0.000000 0.034950 
#    y 0.000000 1.864740 0.000000 
#    z 0.034950 0.000000 2.115190 
# 
# From -- ./inp_files/22480.got.cif
#   From: 2010.05.17/outbox.cif.g08.bks.cpg/sg15_12_cif.got.tgz:22480.got - 2010.06.03 18:47:42.
