data_PCOD9273190
_publ_section_title
;
Structure prediction by ZEFSAII (Michael W. Deem and Ramdas Pophale) SiO2 
 PCOD9273190
Probable space group: C 2/C
;
_chemical_formula_sum "Si O2"
_cell_formula_units_Z 44
_cell_length_a 11.854838
_cell_length_b 12.814937
_cell_length_c 15.435085
_cell_angle_alpha 90.000000
_cell_angle_beta 54.461470
_cell_angle_gamma 90.000000
_cell_volume 1908.089276
_symmetry_space_group_name_H-M "C 2/C"
_symmetry_group_IT_number 15
_symmetry_cell_setting 'monoclinic'
loop_
_space_group_symop_operation_xyz
x,y,z
-x,y,1/2-z
-x,-y,-z
x,-y,1/2+z
1/2+x,1/2+y,z
1/2-x,1/2+y,1/2-z
1/2-x,1/2-y,-z
1/2+x,1/2-y,1/2+z
loop_
_atom_site_type_symbol
_atom_site_label
_atom_site_fract_x
_atom_site_fract_y
_atom_site_fract_z
Si Si1 0.788867 0.424172 0.953206
Si Si2 0.000000 0.761972 0.750000
Si Si3 0.888743 0.806335 0.968914
Si Si4 0.777674 0.581135 0.820485
Si Si5 0.334167 0.571712 0.817076
Si Si6 0.127237 0.736004 0.964728
O O1 0.736294 0.480816 0.065407
O O2 0.893136 0.336317 0.942310
O O3 0.845844 0.495051 0.852266
O O4 0.661480 0.354238 0.974349
O O5 0.036455 0.835356 0.653322
O O6 0.123573 0.683203 0.723960
O O7 0.994835 0.725766 0.964670
O O8 0.750000 0.750000 0.000000
O O9 0.851960 0.887210 0.060037
O O10 0.725651 0.541177 0.750643
O O11 0.500000 0.572855 0.750000
O O12 0.264935 0.687297 0.859618
#
# Coordination Sequence:
#
# PCOD9273190 Si02
#       6
#     8   4   8   8   8   8
#     4   9  21  40  61  95 131 166 218 272 323 385
#     4  10  20  44  58  88 130 168 210 258 332 398
#     4  10  21  38  66  88 124 173 210 262 330 386
#     4  11  22  40  66  96 127 170 219 275 317 394
#     4  10  20  37  63  90 128 174 216 270 324 388
#     4   9  19  42  61  89 135 170 216 265 328 395
#
# _framework density 23.059716999999999
#
# number of rings (size 3 to 8) (size 9 to 14) (size 15 to 20)
#    1.091    1.091    1.818    1.091    0.000    2.909 
#    6.545    8.182    0.000    0.000    0.000    0.000 
#    0.000    0.000    0.000    0.000    0.000    0.000 
#
# Total GULP energy -122492.393901 kJ/mol
# GULP energy per Si atom -5567.836086 kJ/mol
# Density = 2.300723 g / cm^3
# Si number density = 23.059717 Si / 1000 Ang^3
#
#
#
# Elastic Constant Matrix: (Units=GPa)
#
#
# Indices 1 2 3 4 5 6 
#
# 1 128.3076 5.3411 47.2094 0.0000 8.4346 0.0000
# 2 5.3411 55.8190 25.3158 0.0000 6.3362 0.0000
# 3 47.2094 25.3158 110.3382 0.0000 32.0726 0.0000
# 4 0.0000 0.0000 0.0000 8.2755 0.0000 1.2373
# 5 8.4346 6.3362 32.0726 0.0000 39.4105 0.0000
# 6 0.0000 0.0000 0.0000 1.2373 0.0000 1.4828
#
#
#
# Elastic Compliance Matrix: (Units=1/GPa)
#
#
# Indices 1 2 3 4 5 6 
#
# 1 0.009387 0.001065 -0.004751 0.000000 0.001686 0.000000
# 2 0.001065 0.020131 -0.005328 0.000000 0.000871 0.000000
# 3 -0.004751 -0.005328 0.015421 0.000000 -0.010677 0.000000
# 4 0.000000 0.000000 0.000000 0.138063 0.000000 -0.115203
# 5 0.001686 0.000871 -0.010677 0.000000 0.033562 0.000000
# 6 0.000000 0.000000 0.000000 -0.115203 0.000000 0.770506
#
#
# Mechanical properties :
#
#
# Convention : Reuss Voigt Hill
#
# Bulk Modulus (GPa) = 37.15791 50.02195 43.58993
# Shear Modulus (GPa) = 4.93064 24.27368 14.60216
#
# Velocity S-wave (km/s) = 1.46385 3.24797 2.51914
# Velocity P-wave (km/s) = 4.35957 5.98374 5.23503
#
# Compressibility (1/GPa) = 0.02691217
#
# Stress axis : x y z
#
# Youngs Moduli (GPa) = 106.53588 49.67582 64.84464
#
# Poissons Ratio (x) = -0.05290 0.30805
# Poissons Ratio (y) = -0.11346 0.34547
# Poissons Ratio (z) = 0.50610 0.26465
#
# Static dielectric constant tensor:
#      x y z
#    x 1.861770 0.000000 0.059250 
#    y 0.000000 1.954750 0.000000 
#    z 0.059250 0.000000 1.913290 
# 
# From -- ./inp_files/197626.got.cif
#   From: 2010.05.17/outbox.cif.g08.bks.cpg/sg15_99_cif.got.tgz:197626.got - 2010.06.03 18:47:42.
