data_PCOD9273089
_publ_section_title
;
Structure prediction by ZEFSAII (Michael W. Deem and Ramdas Pophale) SiO2 
 PCOD9273089
Probable space group: C 2/C
;
_chemical_formula_sum "Si O2"
_cell_formula_units_Z 48
_cell_length_a 12.720985
_cell_length_b 21.717432
_cell_length_c 10.554347
_cell_angle_alpha 90.000000
_cell_angle_beta 44.809483
_cell_angle_gamma 90.000000
_cell_volume 2054.928310
_symmetry_space_group_name_H-M "C 2/C"
_symmetry_group_IT_number 15
_symmetry_cell_setting 'monoclinic'
loop_
_space_group_symop_operation_xyz
x,y,z
-x,y,1/2-z
-x,-y,-z
x,-y,1/2+z
1/2+x,1/2+y,z
1/2-x,1/2+y,1/2-z
1/2-x,1/2-y,-z
1/2+x,1/2-y,1/2+z
loop_
_atom_site_type_symbol
_atom_site_label
_atom_site_fract_x
_atom_site_fract_y
_atom_site_fract_z
Si Si1 0.188329 0.564917 0.193633
Si Si2 0.029318 0.082229 0.860153
Si Si3 0.261267 0.016945 0.087744
Si Si4 0.166161 0.644087 0.566490
Si Si5 0.565983 0.810502 0.881645
Si Si6 0.233788 0.810776 0.261936
O O1 0.148268 0.530743 0.359862
O O2 0.116919 0.632375 0.252864
O O3 0.367265 0.574064 0.056287
O O4 0.167702 0.527224 0.081086
O O5 0.145674 0.125207 0.830039
O O6 0.000000 0.113742 0.750000
O O7 0.112539 0.018655 0.757562
O O8 0.238222 0.082636 0.039665
O O9 0.142720 0.675531 0.451889
O O10 0.223527 0.689987 0.625441
O O11 0.000000 0.622360 0.750000
O O12 0.630754 0.743539 0.796395
O O13 0.389112 0.811016 0.053770
#
# Coordination Sequence:
#
# PCOD9273089 Si02
#       6
#     8   8   8   8   8   8
#     4  10  21  39  61  92 127 163 204 253 305 365
#     4  10  22  39  60  90 123 162 207 251 301 363
#     4  10  20  37  62  91 124 160 203 249 301 364
#     4   9  20  36  60  93 126 158 199 252 312 370
#     4  10  22  39  61  91 122 158 207 255 306 368
#     4  11  21  40  63  87 122 165 204 254 311 364
#
# _framework density 23.358478000000002
#
# number of rings (size 3 to 8) (size 9 to 14) (size 15 to 20)
#    0.000    2.000    0.000    3.000    0.000    4.000 
#    0.000   20.833    0.000    0.000    0.000    0.000 
#    0.000    0.000    0.000    0.000    0.000    0.000 
#
# Total GULP energy -134108.445482 kJ/mol
# GULP energy per Si atom -5587.851895 kJ/mol
# Density = 2.330531 g / cm^3
# Si number density = 23.358478 Si / 1000 Ang^3
#
#
#
# Elastic Constant Matrix: (Units=GPa)
#
#
# Indices 1 2 3 4 5 6 
#
# 1 73.8533 30.8849 41.9180 0.0000 4.3966 0.0000
# 2 30.8849 120.2747 72.4446 0.0000 -15.3385 0.0000
# 3 41.9180 72.4446 99.0735 0.0000 -9.2486 0.0000
# 4 0.0000 0.0000 0.0000 19.8257 0.0000 -3.8486
# 5 4.3966 -15.3385 -9.2486 0.0000 43.2620 0.0000
# 6 0.0000 0.0000 0.0000 -3.8486 0.0000 -18.8737
#
#
#
# Elastic Compliance Matrix: (Units=1/GPa)
#
#
# Indices 1 2 3 4 5 6 
#
# 1 0.018371 -0.000536 -0.007727 0.000000 -0.003709 0.000000
# 2 -0.000536 0.015267 -0.010639 0.000000 0.003193 0.000000
# 3 -0.007727 -0.010639 0.021288 0.000000 0.001564 0.000000
# 4 0.000000 0.000000 0.000000 0.048519 0.000000 -0.009894
# 5 -0.003709 0.003193 0.001564 0.000000 0.024958 0.000000
# 6 0.000000 0.000000 0.000000 -0.009894 0.000000 -0.050966
#
#
# Mechanical properties :
#
#
# Convention : Reuss Voigt Hill
#
# Bulk Modulus (GPa) = 58.40263 64.85515 61.62889
# Shear Modulus (GPa) = 41.33981 18.70640 30.02311
#
# Velocity S-wave (km/s) = 4.21146 2.83298 3.58902
# Velocity P-wave (km/s) = 6.97894 6.20697 6.60424
#
# Compressibility (1/GPa) = 0.01712252
#
# Stress axis : x y z
#
# Youngs Moduli (GPa) = 54.43329 65.49985 46.97484
#
# Poissons Ratio (x) = 0.03513 0.36297
# Poissons Ratio (y) = 0.02920 0.49975
# Poissons Ratio (z) = 0.42060 0.69683
#
# Static dielectric constant tensor:
#      x y z
#    x 1.916360 0.000000 0.050470 
#    y 0.000000 1.872640 0.000000 
#    z 0.050470 0.000000 1.886630 
# 
# From -- ./inp_files/99991.got.cif
#   From: 2010.05.17/outbox.cif.g08.bks.cpg/sg15_50_cif.got.tgz:99991.got - 2010.06.03 18:47:42.
