data_PCOD9273458
_publ_section_title
;
Structure prediction by ZEFSAII (Michael W. Deem and Ramdas Pophale) SiO2 
 PCOD9273458
Probable space group: C 2/C
;
_chemical_formula_sum "Si O2"
_cell_formula_units_Z 40
_cell_length_a 8.308466
_cell_length_b 21.755453
_cell_length_c 10.498598
_cell_angle_alpha 90.000000
_cell_angle_beta 101.015638
_cell_angle_gamma 90.000000
_cell_volume 1862.703812
_symmetry_space_group_name_H-M "C 2/C"
_symmetry_group_IT_number 15
_symmetry_cell_setting 'monoclinic'
loop_
_space_group_symop_operation_xyz
x,y,z
-x,y,1/2-z
-x,-y,-z
x,-y,1/2+z
1/2+x,1/2+y,z
1/2-x,1/2+y,1/2-z
1/2-x,1/2-y,-z
1/2+x,1/2-y,1/2+z
loop_
_atom_site_type_symbol
_atom_site_label
_atom_site_fract_x
_atom_site_fract_y
_atom_site_fract_z
Si Si1 0.264547 0.821236 0.467250
Si Si2 0.500000 0.999752 0.750000
Si Si3 0.151385 0.099258 0.180156
Si Si4 0.575628 0.904378 0.567349
Si Si5 0.500000 0.368854 0.250000
Si Si6 0.303074 0.541131 0.878556
O O1 0.250000 0.750000 0.500000
O O2 0.170109 0.855738 0.566353
O O3 0.447700 0.852874 0.497855
O O4 0.158197 0.831977 0.323376
O O5 0.659190 0.039718 0.749277
O O6 0.471889 0.959071 0.619534
O O7 0.309804 0.111811 0.294368
O O8 0.000000 0.109815 0.250000
O O9 0.135859 0.029289 0.123029
O O10 0.703922 0.931981 0.484251
O O11 0.558892 0.413278 0.146081
#
# Coordination Sequence:
#
# PCOD9273458 Si02
#       6
#     8   4   8   8   4   8
#     4  12  28  49  70  96 144 192 250 286 340 425
#     4  10  20  37  66 104 147 174 220 284 366 440
#     4  11  24  44  75 108 145 185 227 298 364 427
#     4  11  22  43  72 102 138 188 232 284 357 420
#     4  12  28  43  70 106 139 180 230 310 348 418
#     4  11  22  39  72 108 146 170 228 297 369 423
#
# _framework density 21.474160999999999
#
# number of rings (size 3 to 8) (size 9 to 14) (size 15 to 20)
#    0.000    0.800    5.000    3.000    8.400    1.600 
#    3.600    2.000    0.000    0.000    0.000    0.000 
#    0.000    0.000    0.000    0.000    0.000    0.000 
#
# Total GULP energy -111507.129670 kJ/mol
# GULP energy per Si atom -5575.356484 kJ/mol
# Density = 2.142528 g / cm^3
# Si number density = 21.474161 Si / 1000 Ang^3
#
#
#
# Elastic Constant Matrix: (Units=GPa)
#
#
# Indices 1 2 3 4 5 6 
#
# 1 96.4528 33.9784 34.1808 0.0000 -8.9346 0.0000
# 2 33.9784 125.2787 53.0502 0.0000 10.0455 0.0000
# 3 34.1808 53.0502 97.0733 0.0000 9.6654 0.0000
# 4 0.0000 0.0000 0.0000 28.0650 0.0000 -1.0055
# 5 -8.9346 10.0455 9.6654 0.0000 56.6924 0.0000
# 6 0.0000 0.0000 0.0000 -1.0055 0.0000 17.7074
#
#
#
# Elastic Compliance Matrix: (Units=1/GPa)
#
#
# Indices 1 2 3 4 5 6 
#
# 1 0.012675 -0.002162 -0.003579 0.000000 0.002991 0.000000
# 2 -0.002162 0.010798 -0.005001 0.000000 -0.001402 0.000000
# 3 -0.003579 -0.005001 0.014509 0.000000 -0.002152 0.000000
# 4 0.000000 0.000000 0.000000 0.035704 0.000000 0.002027
# 5 0.002991 -0.001402 -0.002152 0.000000 0.018726 0.000000
# 6 0.000000 0.000000 0.000000 0.002027 0.000000 0.056589
#
#
# Mechanical properties :
#
#
# Convention : Reuss Voigt Hill
#
# Bulk Modulus (GPa) = 60.61090 62.35820 61.48455
# Shear Modulus (GPa) = 28.41173 33.66597 31.03885
#
# Velocity S-wave (km/s) = 3.64134 3.96377 3.80597
# Velocity P-wave (km/s) = 6.77979 7.07463 6.92878
#
# Compressibility (1/GPa) = 0.01649868
#
# Stress axis : x y z
#
# Youngs Moduli (GPa) = 78.89655 92.60596 68.92345
#
# Poissons Ratio (x) = 0.20020 0.24670
# Poissons Ratio (y) = 0.17056 0.34466
# Poissons Ratio (z) = 0.28240 0.46308
#
# Static dielectric constant tensor:
#      x y z
#    x 1.861540 0.000000 0.050960 
#    y 0.000000 1.773410 0.000000 
#    z 0.050960 0.000000 1.854340 
# 
# From -- ./inp_files/77905.got.cif
#   From: 2010.05.17/outbox.cif.g08.bks.cpg/sg15_39_cif.got.tgz:77905.got - 2010.06.03 18:47:42.
