data_PCOD9273033
_publ_section_title
;
Structure prediction by ZEFSAII (Michael W. Deem and Ramdas Pophale) SiO2 
 PCOD9273033
Probable space group: C 2/C
;
_chemical_formula_sum "Si O2"
_cell_formula_units_Z 48
_cell_length_a 10.814625
_cell_length_b 26.576651
_cell_length_c 17.058714
_cell_angle_alpha 90.000000
_cell_angle_beta 149.096708
_cell_angle_gamma 90.000000
_cell_volume 2518.111940
_symmetry_space_group_name_H-M "C 2/C"
_symmetry_group_IT_number 15
_symmetry_cell_setting 'monoclinic'
loop_
_space_group_symop_operation_xyz
x,y,z
-x,y,1/2-z
-x,-y,-z
x,-y,1/2+z
1/2+x,1/2+y,z
1/2-x,1/2+y,1/2-z
1/2-x,1/2-y,-z
1/2+x,1/2-y,1/2+z
loop_
_atom_site_type_symbol
_atom_site_label
_atom_site_fract_x
_atom_site_fract_y
_atom_site_fract_z
Si Si1 0.653165 0.598692 0.141664
Si Si2 0.000000 0.475755 0.750000
Si Si3 0.762997 0.959813 0.516234
Si Si4 0.775710 0.807390 0.923549
Si Si5 0.000000 0.036908 0.750000
Si Si6 0.995817 0.402952 0.982158
Si Si7 0.774410 0.306023 0.426074
O O1 0.775546 0.560269 0.147181
O O2 0.400719 0.578282 0.034758
O O3 0.622877 0.652110 0.081822
O O4 0.836183 0.598377 0.315823
O O5 0.936590 0.510011 0.641039
O O6 0.651350 0.930949 0.529818
O O7 0.960533 0.999790 0.654981
O O8 0.500000 0.801337 0.750000
O O9 0.879931 0.750671 0.982645
O O10 0.755887 0.826113 0.001735
O O11 0.245681 0.068918 0.882581
O O12 0.065873 0.344927 0.035511
O O13 0.500000 0.304514 0.250000
#
# Coordination Sequence:
#
# PCOD9273033 Si02
#       7
#     8   4   8   8   4   8   8
#     4  12  22  41  64  90 121 166 204 247 305 360
#     4  12  24  40  61  92 123 164 208 252 290 356
#     4  12  26  40  60  91 130 162 201 250 302 363
#     4  10  20  37  62  89 118 149 204 256 298 355
#     4  12  22  40  61  88 119 170 208 244 286 354
#     4  12  22  40  64  90 122 163 207 247 303 359
#     4  10  21  37  61  93 116 150 201 258 302 351
#
# _framework density 19.061902
#
# number of rings (size 3 to 8) (size 9 to 14) (size 15 to 20)
#    0.000    0.667    6.667    2.000    0.000    1.333 
#    0.000    0.833    0.000    0.000    0.000    0.000 
#    0.000    0.000    0.000    0.000    0.000    0.000 
#
# Total GULP energy -133944.353172 kJ/mol
# GULP energy per Si atom -5581.014716 kJ/mol
# Density = 1.901852 g / cm^3
# Si number density = 19.061902 Si / 1000 Ang^3
#
#
#
# Elastic Constant Matrix: (Units=GPa)
#
#
# Indices 1 2 3 4 5 6 
#
# 1 85.6517 51.2626 8.8560 -0.0005 -1.6857 -0.0004
# 2 51.2626 116.7953 5.4591 -0.0003 1.7103 -0.0002
# 3 8.8560 5.4591 46.7286 -0.0002 -13.5018 -0.0006
# 4 -0.0005 -0.0003 -0.0002 18.6486 -0.0002 -15.0401
# 5 -1.6857 1.7103 -13.5018 -0.0002 32.8688 -0.0004
# 6 -0.0004 -0.0002 -0.0006 -15.0401 -0.0004 18.2615
#
#
#
# Elastic Compliance Matrix: (Units=1/GPa)
#
#
# Indices 1 2 3 4 5 6 
#
# 1 0.016066 -0.006956 -0.002144 0.000001 0.000305 0.000001
# 2 -0.006956 0.011648 -0.000364 0.000000 -0.001112 0.000000
# 3 -0.002144 -0.000364 0.024762 0.000003 0.010081 0.000004
# 4 0.000001 0.000000 0.000003 0.159702 0.000004 0.131530
# 5 0.000305 -0.001112 0.010081 0.000004 0.034638 0.000004
# 6 0.000001 0.000000 0.000004 0.131530 0.000004 0.163088
#
#
# Mechanical properties :
#
#
# Convention : Reuss Voigt Hill
#
# Bulk Modulus (GPa) = 29.80769 42.25900 36.03334
# Shear Modulus (GPa) = 11.36328 26.19565 18.77947
#
# Velocity S-wave (km/s) = 2.44422 3.71110 3.14217
# Velocity P-wave (km/s) = 4.86177 6.37028 5.66645
#
# Compressibility (1/GPa) = 0.03354839
#
# Stress axis : x y z
#
# Youngs Moduli (GPa) = 62.24372 85.84999 40.38496
#
# Poissons Ratio (x) = 0.59715 0.08659
# Poissons Ratio (y) = 0.43295 0.01470
# Poissons Ratio (z) = 0.13345 0.03125
#
# Static dielectric constant tensor:
#      x y z
#    x 1.627190 0.000000 -0.002400 
#    y 0.000000 1.732020 0.000000 
#    z -0.002400 0.000000 1.610640 
# 
# From -- ./inp_files/139114.got.cif
#   From: 2010.05.17/outbox.cif.g08.bks.cpg/sg15_70_cif.got.tgz:139114.got - 2010.06.03 18:47:42.
