data_PCOD9273295
_publ_section_title
;
Structure prediction by ZEFSAII (Michael W. Deem and Ramdas Pophale) SiO2 
 PCOD9273295
Probable space group: C 2/C
;
_chemical_formula_sum "Si O2"
_cell_formula_units_Z 60
_cell_length_a 7.623871
_cell_length_b 26.520296
_cell_length_c 18.277611
_cell_angle_alpha 90.000000
_cell_angle_beta 42.687968
_cell_angle_gamma 90.000000
_cell_volume 2505.569424
_symmetry_space_group_name_H-M "C 2/C"
_symmetry_group_IT_number 15
_symmetry_cell_setting 'monoclinic'
loop_
_space_group_symop_operation_xyz
x,y,z
-x,y,1/2-z
-x,-y,-z
x,-y,1/2+z
1/2+x,1/2+y,z
1/2-x,1/2+y,1/2-z
1/2-x,1/2-y,-z
1/2+x,1/2-y,1/2+z
loop_
_atom_site_type_symbol
_atom_site_label
_atom_site_fract_x
_atom_site_fract_y
_atom_site_fract_z
Si Si1 0.297401 0.926800 0.185936
Si Si2 0.650585 0.488277 0.839551
Si Si3 0.719455 0.847094 0.525356
Si Si4 0.225668 0.454836 0.536277
Si Si5 0.000000 0.500000 0.000000
Si Si6 0.805911 0.211390 0.133877
Si Si7 0.694521 0.177997 0.861548
Si Si8 0.822017 0.877335 0.735279
O O1 0.397842 0.869308 0.159128
O O2 0.000000 0.923446 0.250000
O O3 0.286066 0.965096 0.257689
O O4 0.449505 0.952946 0.074520
O O5 0.737283 0.478878 0.896595
O O6 0.675056 0.433132 0.799124
O O7 0.349533 0.507047 0.936024
O O8 0.863718 0.901370 0.485959
O O9 0.836226 0.802586 0.538737
O O10 0.673207 0.834288 0.455045
O O11 0.464933 0.862382 0.649933
O O12 0.946839 0.457869 0.585993
O O13 0.500000 0.214170 0.250000
O O14 0.919288 0.266412 0.116831
O O15 0.907791 0.163868 0.148574
O O16 0.000000 0.182040 0.750000
O O17 0.000000 0.872796 0.750000
#
# Coordination Sequence:
#
# PCOD9273295 Si02
#       8
#     8   8   8   8   4   8   8   8
#     4  11  21  36  58  90 120 154 199 249 297 358
#     4  11  23  39  57  87 125 158 196 246 304 362
#     4  11  20  39  64  93 117 161 210 255 301 365
#     4  11  23  37  59  88 121 156 198 246 301 366
#     4  12  22  36  60  84 118 156 192 236 304 358
#     4   9  20  39  63  92 117 155 208 262 305 360
#     4  10  20  37  64  90 120 153 209 264 308 350
#     4  11  24  38  63  91 128 163 203 248 310 366
#
# _framework density 23.946653999999999
#
# number of rings (size 3 to 8) (size 9 to 14) (size 15 to 20)
#    0.000    1.333    4.000    2.400    1.867    1.600 
#    0.000    0.667    2.933    0.000    0.000    0.000 
#    0.000    0.000    0.000    0.000    0.000    0.000 
#
# Total GULP energy -167209.224061 kJ/mol
# GULP energy per Si atom -5573.640802 kJ/mol
# Density = 2.389215 g / cm^3
# Si number density = 23.946654 Si / 1000 Ang^3
#
#
#
# Elastic Constant Matrix: (Units=GPa)
#
#
# Indices 1 2 3 4 5 6 
#
# 1 58.4215 32.3875 18.5933 0.0002 28.2627 -0.0001
# 2 32.3875 226.3169 65.9178 -0.0001 29.6538 0.0000
# 3 18.5933 65.9178 96.5728 0.0006 25.4976 -0.0003
# 4 0.0002 -0.0001 0.0006 13.9056 -0.0003 9.1404
# 5 28.2627 29.6538 25.4976 -0.0003 47.3866 0.0002
# 6 -0.0001 0.0000 -0.0003 9.1404 0.0002 25.4893
#
#
#
# Elastic Compliance Matrix: (Units=1/GPa)
#
#
# Indices 1 2 3 4 5 6 
#
# 1 0.024677 -0.001759 0.000052 -0.000001 -0.013645 0.000001
# 2 -0.001759 0.005755 -0.003398 0.000000 -0.000724 0.000000
# 3 0.000052 -0.003398 0.014117 -0.000001 -0.005500 0.000001
# 4 -0.000001 0.000000 -0.000001 0.094092 0.000002 -0.033741
# 5 -0.013645 -0.000724 -0.005500 0.000002 0.032654 -0.000001
# 6 0.000001 0.000000 0.000001 -0.033741 -0.000001 0.051332
#
#
# Mechanical properties :
#
#
# Convention : Reuss Voigt Hill
#
# Bulk Modulus (GPa) = 29.12208 68.34538 48.73373
# Shear Modulus (GPa) = 20.46812 34.98382 27.72597
#
# Velocity S-wave (km/s) = 2.92676 3.82633 3.40637
# Velocity P-wave (km/s) = 4.85890 6.93712 5.98885
#
# Compressibility (1/GPa) = 0.03433821
#
# Stress axis : x y z
#
# Youngs Moduli (GPa) = 40.52427 173.76366 70.83788
#
# Poissons Ratio (x) = 0.30559 -0.00369
# Poissons Ratio (y) = 0.07127 0.24074
# Poissons Ratio (z) = -0.00211 0.59053
#
# Static dielectric constant tensor:
#      x y z
#    x 2.306260 0.000000 -0.128860 
#    y 0.000000 2.076010 0.000000 
#    z -0.128860 0.000000 2.071630 
# 
# From -- ./inp_files/193716.got.cif
#   From: 2010.05.17/outbox.cif.g08.bks.cpg/sg15_97_cif.got.tgz:193716.got - 2010.06.03 18:47:42.
