data_PCOD9273572
_publ_section_title
;
Structure prediction by ZEFSAII (Michael W. Deem and Ramdas Pophale) SiO2 
 PCOD9273572
Probable space group: C 2/C
;
_chemical_formula_sum "Si O2"
_cell_formula_units_Z 44
_cell_length_a 8.829774
_cell_length_b 27.081278
_cell_length_c 9.212685
_cell_angle_alpha 90.000000
_cell_angle_beta 59.410987
_cell_angle_gamma 90.000000
_cell_volume 1896.388071
_symmetry_space_group_name_H-M "C 2/C"
_symmetry_group_IT_number 15
_symmetry_cell_setting 'monoclinic'
loop_
_space_group_symop_operation_xyz
x,y,z
-x,y,1/2-z
-x,-y,-z
x,-y,1/2+z
1/2+x,1/2+y,z
1/2-x,1/2+y,1/2-z
1/2-x,1/2-y,-z
1/2+x,1/2-y,1/2+z
loop_
_atom_site_type_symbol
_atom_site_label
_atom_site_fract_x
_atom_site_fract_y
_atom_site_fract_z
Si Si1 0.000000 0.688035 0.750000
Si Si2 0.646160 0.359981 0.476728
Si Si3 0.500000 0.554693 0.250000
Si Si4 0.000000 0.730607 0.250000
Si Si5 0.000000 0.479887 0.250000
Si Si6 0.729027 0.030262 0.891916
Si Si7 0.000000 0.891039 0.250000
Si Si8 0.118934 0.775965 0.892512
O O1 0.151243 0.655115 0.602716
O O2 0.098486 0.725343 0.812449
O O3 0.583503 0.409624 0.587791
O O4 0.598498 0.363515 0.329720
O O5 0.523469 0.315273 0.589007
O O6 0.655945 0.516856 0.217207
O O7 0.933973 0.762650 0.417298
O O8 0.819258 0.704003 0.289342
O O9 0.127421 0.450972 0.297774
O O10 0.893292 0.512635 0.417677
O O11 0.855987 0.072391 0.888695
#
# Coordination Sequence:
#
# PCOD9273572 Si02
#       8
#     4   8   4   4   4   8   4   8
#     4  12  27  43  67  92 137 175 223 278 339 389
#     4  12  26  43  66 101 132 173 229 277 324 393
#     4  11  25  42  65  96 135 172 217 271 327 399
#     4  10  23  40  76  88 131 173 228 257 342 404
#     4  10  20  37  73  96 118 170 226 254 316 418
#     4  10  22  44  68  94 132 176 209 264 342 390
#     4  11  25  44  65  94 135 172 216 272 328 398
#     4  11  23  46  66 100 127 184 213 281 332 402
#
# _framework density 23.202003000000001
#
# number of rings (size 3 to 8) (size 9 to 14) (size 15 to 20)
#    0.000    1.091    1.818    3.818    5.091    7.273 
#    0.000    5.455    0.000    0.000    0.000    0.000 
#    0.000    0.000    0.000    0.000    0.000    0.000 
#
# Total GULP energy -122972.076304 kJ/mol
# GULP energy per Si atom -5589.639832 kJ/mol
# Density = 2.314919 g / cm^3
# Si number density = 23.202003 Si / 1000 Ang^3
#
#
#
# Elastic Constant Matrix: (Units=GPa)
#
#
# Indices 1 2 3 4 5 6 
#
# 1 122.2765 23.3853 41.0704 0.0000 -25.1676 0.0000
# 2 23.3853 73.1707 17.5493 0.0000 -12.9299 0.0000
# 3 41.0704 17.5493 102.6617 0.0000 -11.3691 0.0000
# 4 0.0000 0.0000 0.0000 5.0785 0.0000 -16.7902
# 5 -25.1676 -12.9299 -11.3691 0.0000 52.1778 0.0000
# 6 0.0000 0.0000 0.0000 -16.7902 0.0000 56.5499
#
#
#
# Elastic Compliance Matrix: (Units=1/GPa)
#
#
# Indices 1 2 3 4 5 6 
#
# 1 0.010482 -0.001842 -0.003452 0.000000 0.003847 0.000000
# 2 -0.001842 0.015073 -0.001562 0.000000 0.002506 0.000000
# 3 -0.003452 -0.001562 0.011438 0.000000 0.000440 0.000000
# 4 0.000000 0.000000 0.000000 10.717396 0.000000 3.182097
# 5 0.003847 0.002506 0.000440 0.000000 0.021738 0.000000
# 6 0.000000 0.000000 0.000000 3.182097 0.000000 0.962478
#
#
# Mechanical properties :
#
#
# Convention : Reuss Voigt Hill
#
# Bulk Modulus (GPa) = 42.95690 51.34656 47.15173
# Shear Modulus (GPa) = 0.42517 37.16817 18.79667
#
# Velocity S-wave (km/s) = 0.42854 4.00676 2.84937
# Velocity P-wave (km/s) = 4.33582 6.60180 5.58494
#
# Compressibility (1/GPa) = 0.02327915
#
# Stress axis : x y z
#
# Youngs Moduli (GPa) = 95.40218 66.34402 87.43078
#
# Poissons Ratio (x) = 0.12222 0.30185
# Poissons Ratio (y) = 0.17575 0.13658
# Poissons Ratio (z) = 0.32937 0.10364
#
# Static dielectric constant tensor:
#      x y z
#    x 1.946730 0.000000 0.000360 
#    y 0.000000 1.857840 0.000000 
#    z 0.000360 0.000000 1.878250 
# 
# From -- ./inp_files/26046.got.cif
#   From: 2010.05.17/outbox.cif.g08.bks.cpg/sg15_14_cif.got.tgz:26046.got - 2010.06.03 18:47:42.
