data_PCOD9273679
_publ_section_title
;
Structure prediction by ZEFSAII (Michael W. Deem and Ramdas Pophale) SiO2 
 PCOD9273679
Probable space group: C 2/C
;
_chemical_formula_sum "Si O2"
_cell_formula_units_Z 64
_cell_length_a 16.855257
_cell_length_b 29.845905
_cell_length_c 17.967917
_cell_angle_alpha 90.000000
_cell_angle_beta 158.131444
_cell_angle_gamma 90.000000
_cell_volume 3366.813865
_symmetry_space_group_name_H-M "C 2/C"
_symmetry_group_IT_number 15
_symmetry_cell_setting 'monoclinic'
loop_
_space_group_symop_operation_xyz
x,y,z
-x,y,1/2-z
-x,-y,-z
x,-y,1/2+z
1/2+x,1/2+y,z
1/2-x,1/2+y,1/2-z
1/2-x,1/2-y,-z
1/2+x,1/2-y,1/2+z
loop_
_atom_site_type_symbol
_atom_site_label
_atom_site_fract_x
_atom_site_fract_y
_atom_site_fract_z
Si Si1 0.025530 0.293749 0.599956
Si Si2 0.297941 0.852056 0.625784
Si Si3 0.609875 0.420232 0.057195
Si Si4 0.992251 0.479703 0.153032
Si Si5 0.839400 0.095198 0.175878
Si Si6 0.666955 0.068360 0.240496
Si Si7 0.025468 0.366160 0.056543
Si Si8 0.061829 0.790769 0.227773
O O1 0.005552 0.315888 0.501772
O O2 0.800609 0.306394 0.439985
O O3 0.195339 0.321737 0.793890
O O4 0.052792 0.242357 0.648600
O O5 0.500000 0.844230 0.750000
O O6 0.305402 0.902094 0.661476
O O7 0.088467 0.833319 0.405778
O O8 0.800877 0.452073 0.195688
O O9 0.736375 0.381434 0.213034
O O10 0.486809 0.403660 0.877007
O O11 0.411245 0.442167 0.928872
O O12 0.020635 0.526454 0.134484
O O13 0.000000 0.483911 0.250000
O O14 0.778878 0.452426 0.944028
O O15 0.000000 0.106696 0.250000
O O16 0.636849 0.126670 0.016456
O O17 0.555185 0.098790 0.078476
O O18 0.000000 0.764611 0.250000
#
# Coordination Sequence:
#
# PCOD9273679 Si02
#       8
#     8   8   8   8   8   8   8   8
#     4  11  21  35  53  82 109 144 191 234 273 331
#     4  11  21  36  52  74 115 153 195 235 271 321
#     4  10  20  38  58  79 109 145 184 236 285 337
#     4  11  21  35  57  83 109 146 196 235 275 332
#     4  10  20  38  61  85 107 141 186 237 283 341
#     4  10  22  36  53  78 116 154 186 233 285 324
#     4   9  22  37  55  82 115 144 186 231 287 334
#     4  12  21  33  56  81 110 155 200 232 272 320
#
# _framework density 19.009069
#
# number of rings (size 3 to 8) (size 9 to 14) (size 15 to 20)
#    0.000    1.500    3.750    2.250    0.000    5.500 
#    0.000    0.000    0.000    0.000    0.000    0.875 
#    0.000    0.000    0.000    0.000    0.000    0.000 
#
# Total GULP energy -178169.384907 kJ/mol
# GULP energy per Si atom -5567.793278 kJ/mol
# Density = 1.896580 g / cm^3
# Si number density = 19.009069 Si / 1000 Ang^3
#
#
#
# Elastic Constant Matrix: (Units=GPa)
#
#
# Indices 1 2 3 4 5 6 
#
# 1 80.2082 28.6924 25.0230 -0.0007 2.5364 -0.0007
# 2 28.6924 36.0476 7.1284 -0.0011 -1.4182 -0.0010
# 3 25.0230 7.1284 91.3799 -0.0023 -9.9184 -0.0026
# 4 -0.0007 -0.0011 -0.0023 20.7463 -0.0006 2.3037
# 5 2.5364 -1.4182 -9.9184 -0.0006 26.3790 -0.0008
# 6 -0.0007 -0.0010 -0.0026 2.3037 -0.0008 37.1358
#
#
#
# Elastic Compliance Matrix: (Units=1/GPa)
#
#
# Indices 1 2 3 4 5 6 
#
# 1 0.019265 -0.014594 -0.004611 -0.000001 -0.004371 0.000000
# 2 -0.014594 0.039245 0.001372 0.000002 0.004029 0.000001
# 3 -0.004611 0.001372 0.012672 0.000001 0.005282 0.000001
# 4 -0.000001 0.000002 0.000001 0.048536 0.000002 -0.003011
# 5 -0.004371 0.004029 0.005282 0.000002 0.040532 0.000001
# 6 0.000000 0.000001 0.000001 -0.003011 0.000001 0.027115
#
#
# Mechanical properties :
#
#
# Convention : Reuss Voigt Hill
#
# Bulk Modulus (GPa) = 28.15681 36.59148 32.37415
# Shear Modulus (GPa) = 21.28838 26.63835 23.96336
#
# Velocity S-wave (km/s) = 3.35013 3.74752 3.55438
# Velocity P-wave (km/s) = 5.45976 6.16575 5.82346
#
# Compressibility (1/GPa) = 0.03551539
#
# Stress axis : x y z
#
# Youngs Moduli (GPa) = 51.90714 25.48115 78.91211
#
# Poissons Ratio (x) = 0.37188 0.36390
# Poissons Ratio (y) = 0.75755 -0.10829
# Poissons Ratio (z) = 0.23936 -0.03497
#
# Static dielectric constant tensor:
#      x y z
#    x 1.721340 0.000000 -0.021210 
#    y 0.000000 1.697700 0.000000 
#    z -0.021210 0.000000 1.674330 
# 
# From -- ./inp_files/250502.got.cif
#   From: 2010.05.17/outbox.cif.g08.bks.cpg/sg15_126_cif.got.tgz:250502.got - 2010.06.03 18:47:42.
