data_PCOD9273469
_publ_section_title
;
Structure prediction by ZEFSAII (Michael W. Deem and Ramdas Pophale) SiO2 
 PCOD9273469
Probable space group: C 2/C
;
_chemical_formula_sum "Si O2"
_cell_formula_units_Z 52
_cell_length_a 12.520574
_cell_length_b 12.367319
_cell_length_c 22.555224
_cell_angle_alpha 90.000000
_cell_angle_beta 54.164477
_cell_angle_gamma 90.000000
_cell_volume 2831.441884
_symmetry_space_group_name_H-M "C 2/C"
_symmetry_group_IT_number 15
_symmetry_cell_setting 'monoclinic'
loop_
_space_group_symop_operation_xyz
x,y,z
-x,y,1/2-z
-x,-y,-z
x,-y,1/2+z
1/2+x,1/2+y,z
1/2-x,1/2+y,1/2-z
1/2-x,1/2-y,-z
1/2+x,1/2-y,1/2+z
loop_
_atom_site_type_symbol
_atom_site_label
_atom_site_fract_x
_atom_site_fract_y
_atom_site_fract_z
Si Si1 0.398514 0.716636 0.214819
Si Si2 0.640718 0.050688 0.971848
Si Si3 0.141646 0.221137 0.407033
Si Si4 0.333549 0.306068 0.026026
Si Si5 0.187654 0.470723 0.594212
Si Si6 0.000000 0.418563 0.250000
Si Si7 0.693539 0.364609 0.640230
O O1 0.337350 0.727909 0.170367
O O2 0.407168 0.833646 0.244230
O O3 0.325717 0.633801 0.282766
O O4 0.550458 0.674430 0.162613
O O5 0.660801 0.165582 0.934135
O O6 0.753182 0.970013 0.910102
O O7 0.641122 0.057520 0.042914
O O8 0.500000 0.000000 0.000000
O O9 0.232178 0.128811 0.405146
O O10 0.987430 0.193390 0.464326
O O11 0.280002 0.424724 0.055175
O O12 0.298666 0.228800 0.092094
O O13 0.250000 0.250000 0.000000
O O14 0.076157 0.510420 0.676627
#
# Coordination Sequence:
#
# PCOD9273469 Si02
#       7
#     8   8   8   8   8   4   8
#     4  10  20  40  65  89 119 154 217 258 297 368
#     4  12  23  40  65  86 121 168 210 250 310 390
#     4  12  25  37  59  97 127 162 194 257 334 375
#     4  12  18  40  66  90 112 157 220 255 293 361
#     4  12  24  40  61  91 131 156 207 268 312 371
#     4  10  20  40  64  84 116 168 208 256 298 368
#     4  10  20  37  66  89 110 152 214 258 289 347
#
# _framework density 18.365200999999999
#
# number of rings (size 3 to 8) (size 9 to 14) (size 15 to 20)
#    0.000    0.923    7.692    1.846    0.000    2.462 
#    0.000    1.538    0.000    0.000    0.000    0.000 
#    0.000    0.000    0.000    0.000    0.000    0.000 
#
# Total GULP energy -145135.900621 kJ/mol
# GULP energy per Si atom -5582.150024 kJ/mol
# Density = 1.832340 g / cm^3
# Si number density = 18.365201 Si / 1000 Ang^3
#
#
#
# Elastic Constant Matrix: (Units=GPa)
#
#
# Indices 1 2 3 4 5 6 
#
# 1 89.8953 50.7493 64.3274 0.0000 31.8110 0.0000
# 2 50.7493 128.1311 56.2816 0.0000 24.3627 0.0000
# 3 64.3274 56.2816 147.5678 0.0000 27.6596 0.0000
# 4 0.0000 0.0000 0.0000 12.4881 0.0000 4.5551
# 5 31.8110 24.3627 27.6596 0.0000 34.5049 0.0000
# 6 0.0000 0.0000 0.0000 4.5551 0.0000 13.8326
#
#
#
# Elastic Compliance Matrix: (Units=1/GPa)
#
#
# Indices 1 2 3 4 5 6 
#
# 1 0.021886 -0.003695 -0.005694 0.000000 -0.013004 0.000000
# 2 -0.003695 0.010608 -0.001965 0.000000 -0.002508 0.000000
# 3 -0.005694 -0.001965 0.010314 0.000000 -0.001631 0.000000
# 4 0.000000 0.000000 0.000000 0.091008 0.000000 -0.029969
# 5 -0.013004 -0.002508 -0.001631 0.000000 0.044049 0.000000
# 6 0.000000 0.000000 0.000000 -0.029969 0.000000 0.082162
#
#
# Mechanical properties :
#
#
# Convention : Reuss Voigt Hill
#
# Bulk Modulus (GPa) = 49.75022 78.70119 64.22571
# Shear Modulus (GPa) = 17.27509 25.11418 21.19464
#
# Velocity S-wave (km/s) = 3.07032 3.70197 3.40084
# Velocity P-wave (km/s) = 6.30217 7.82427 7.10410
#
# Compressibility (1/GPa) = 0.02010041
#
# Stress axis : x y z
#
# Youngs Moduli (GPa) = 45.69087 94.26830 96.95800
#
# Poissons Ratio (x) = 0.34831 0.55207
# Poissons Ratio (y) = 0.16882 0.19053
# Poissons Ratio (z) = 0.26016 0.18524
#
# Static dielectric constant tensor:
#      x y z
#    x 1.629040 0.000000 0.018080 
#    y 0.000000 1.612830 0.000000 
#    z 0.018080 0.000000 1.677080 
# 
# From -- ./inp_files/273597.got.cif
#   From: 2010.05.17/outbox.cif.g08.bks.cpg/sg15_137_cif.got.tgz:273597.got - 2010.06.03 18:47:42.
