data_PCOD9273634
_publ_section_title
;
Structure prediction by ZEFSAII (Michael W. Deem and Ramdas Pophale) SiO2 
 PCOD9273634
Probable space group: C 2/C
;
_chemical_formula_sum "Si O2"
_cell_formula_units_Z 64
_cell_length_a 11.264984
_cell_length_b 18.607172
_cell_length_c 29.402879
_cell_angle_alpha 90.000000
_cell_angle_beta 144.948034
_cell_angle_gamma 90.000000
_cell_volume 3539.599360
_symmetry_space_group_name_H-M "C 2/C"
_symmetry_group_IT_number 15
_symmetry_cell_setting 'monoclinic'
loop_
_space_group_symop_operation_xyz
x,y,z
-x,y,1/2-z
-x,-y,-z
x,-y,1/2+z
1/2+x,1/2+y,z
1/2-x,1/2+y,1/2-z
1/2-x,1/2-y,-z
1/2+x,1/2-y,1/2+z
loop_
_atom_site_type_symbol
_atom_site_label
_atom_site_fract_x
_atom_site_fract_y
_atom_site_fract_z
Si Si1 0.721237 0.933928 0.050830
Si Si2 0.987367 0.839231 0.646979
Si Si3 0.566651 0.487571 0.718946
Si Si4 0.404814 0.104186 0.821985
Si Si5 0.344217 0.207541 0.660306
Si Si6 0.425139 0.712255 0.584374
Si Si7 0.119823 0.757774 0.240098
Si Si8 0.868326 0.420169 0.012941
O O1 0.831838 0.864341 0.067608
O O2 0.519840 0.912650 0.016861
O O3 0.884118 0.973964 0.134122
O O4 0.667928 0.993905 0.996622
O O5 0.056442 0.904244 0.701609
O O6 0.197209 0.800193 0.697804
O O7 0.858908 0.775249 0.630888
O O8 0.840212 0.876066 0.563084
O O9 0.500000 0.495475 0.750000
O O10 0.782558 0.529071 0.776753
O O11 0.568585 0.135309 0.836644
O O12 0.227255 0.164708 0.767415
O O13 0.518144 0.103785 0.906026
O O14 0.500000 0.224708 0.750000
O O15 0.123830 0.201937 0.614721
O O16 0.250000 0.750000 0.500000
O O17 0.490151 0.751146 0.652433
O O18 0.000000 0.758324 0.250000
#
# Coordination Sequence:
#
# PCOD9273634 Si02
#       8
#     8   8   8   8   8   8   8   8
#     4  10  20  38  56  89 124 150 206 257 308 362
#     4  10  23  37  60  90 127 152 207 256 313 363
#     4  11  19  34  62  88 118 165 207 257 302 367
#     4  11  21  37  65  87 118 161 212 244 314 367
#     4  11  21  41  59  88 123 163 203 250 307 380
#     4  12  24  39  64  92 125 166 210 255 318 370
#     4  11  23  41  64  87 123 166 208 251 307 377
#     4  10  21  36  58  93 117 154 197 269 303 357
#
# _framework density 18.081140999999999
#
# number of rings (size 3 to 8) (size 9 to 14) (size 15 to 20)
#    0.000    1.250    5.000    2.250    0.000    4.000 
#    0.000    3.750    0.000    0.000    0.000    0.000 
#    0.000    0.000    0.000    0.000    0.000    0.000 
#
# Total GULP energy -178520.959676 kJ/mol
# GULP energy per Si atom -5578.779990 kJ/mol
# Density = 1.803999 g / cm^3
# Si number density = 18.081141 Si / 1000 Ang^3
#
#
#
# Elastic Constant Matrix: (Units=GPa)
#
#
# Indices 1 2 3 4 5 6 
#
# 1 88.0604 18.9270 21.2722 0.0000 20.3481 0.0000
# 2 18.9270 57.2876 11.8372 0.0000 14.8782 0.0001
# 3 21.2722 11.8372 94.7227 0.0002 1.2152 0.0002
# 4 0.0000 0.0000 0.0002 26.4823 0.0001 3.3559
# 5 20.3481 14.8782 1.2152 0.0001 32.3012 0.0001
# 6 0.0000 0.0001 0.0002 3.3559 0.0001 2.8835
#
#
#
# Elastic Compliance Matrix: (Units=1/GPa)
#
#
# Indices 1 2 3 4 5 6 
#
# 1 0.014333 -0.002076 -0.002857 0.000000 -0.007965 0.000000
# 2 -0.002076 0.020671 -0.002013 0.000000 -0.008138 0.000000
# 3 -0.002857 -0.002013 0.011421 0.000000 0.002297 -0.000001
# 4 0.000000 0.000000 0.000000 0.044294 0.000000 -0.051551
# 5 -0.007965 -0.008138 0.002297 0.000000 0.039638 -0.000001
# 6 0.000000 0.000000 -0.000001 -0.051551 -0.000001 0.406798
#
#
# Mechanical properties :
#
#
# Convention : Reuss Voigt Hill
#
# Bulk Modulus (GPa) = 30.73837 38.23817 34.48827
# Shear Modulus (GPa) = 8.89852 24.86900 16.88376
#
# Velocity S-wave (km/s) = 2.22084 3.71268 3.05909
# Velocity P-wave (km/s) = 4.85935 6.29068 5.62076
#
# Compressibility (1/GPa) = 0.03253263
#
# Stress axis : x y z
#
# Youngs Moduli (GPa) = 69.77022 48.37680 87.55963
#
# Poissons Ratio (x) = 0.10045 0.25017
# Poissons Ratio (y) = 0.14487 0.17621
# Poissons Ratio (z) = 0.19934 0.09736
#
# Static dielectric constant tensor:
#      x y z
#    x 1.586350 0.000000 0.001250 
#    y 0.000000 1.692210 0.000000 
#    z 0.001250 0.000000 1.626740 
# 
# From -- ./inp_files/311650.got.cif
#   From: 2010.05.17/outbox.cif.g08.bks.cpg/sg15_156_cif.got.tgz:311650.got - 2010.06.03 18:47:42.
