data_PCOD9273625
_publ_section_title
;
Structure prediction by ZEFSAII (Michael W. Deem and Ramdas Pophale) SiO2 
 PCOD9273625
Probable space group: C 2/C
;
_chemical_formula_sum "Si O2"
_cell_formula_units_Z 40
_cell_length_a 8.485385
_cell_length_b 32.279958
_cell_length_c 13.925222
_cell_angle_alpha 90.000000
_cell_angle_beta 143.802390
_cell_angle_gamma 90.000000
_cell_volume 2252.576233
_symmetry_space_group_name_H-M "C 2/C"
_symmetry_group_IT_number 15
_symmetry_cell_setting 'monoclinic'
loop_
_space_group_symop_operation_xyz
x,y,z
-x,y,1/2-z
-x,-y,-z
x,-y,1/2+z
1/2+x,1/2+y,z
1/2-x,1/2+y,1/2-z
1/2-x,1/2-y,-z
1/2+x,1/2-y,1/2+z
loop_
_atom_site_type_symbol
_atom_site_label
_atom_site_fract_x
_atom_site_fract_y
_atom_site_fract_z
Si Si1 0.000000 0.374840 0.750000
Si Si2 0.989727 0.915620 0.900194
Si Si3 0.500000 0.954811 0.250000
Si Si4 0.500000 0.655265 0.250000
Si Si5 0.742332 0.498980 0.805055
Si Si6 0.003457 0.695289 0.092973
Si Si7 0.500000 0.736255 0.750000
O O1 0.261020 0.402589 0.862811
O O2 0.957356 0.344647 0.638103
O O3 0.035656 0.875525 0.857049
O O4 0.268051 0.929287 0.082944
O O5 0.865179 0.953610 0.778151
O O6 0.660500 0.980235 0.246735
O O7 0.244139 0.683356 0.142340
O O8 0.500000 0.518128 0.750000
O O9 0.000000 0.500000 0.000000
O O10 0.077093 0.733122 0.200384
O O11 0.743777 0.708830 0.906998
#
# Coordination Sequence:
#
# PCOD9273625 Si02
#       7
#     4   8   4   4   8   8   4
#     4   9  21  36  58  78 110 158 182 226 296 338
#     4  11  22  40  57  82 117 151 191 245 292 349
#     4  12  25  40  59  89 116 152 206 252 294 353
#     4  10  20  38  56  81 117 148 188 226 289 345
#     4  12  24  41  61  85 115 153 202 253 298 349
#     4   9  19  35  57  83 111 146 184 227 274 342
#     4   9  18  36  57  82 113 140 186 226 273 330
#
# _framework density 17.757446000000002
#
# number of rings (size 3 to 8) (size 9 to 14) (size 15 to 20)
#    0.000    1.600    3.000    1.200    2.800    2.400 
#    0.000    0.000    0.000    0.000    0.000    0.000 
#    0.000    0.000    0.000    0.000    0.000    0.000 
#
# Total GULP energy -111555.287758 kJ/mol
# GULP energy per Si atom -5577.764388 kJ/mol
# Density = 1.771703 g / cm^3
# Si number density = 17.757446 Si / 1000 Ang^3
#
#
#
# Elastic Constant Matrix: (Units=GPa)
#
#
# Indices 1 2 3 4 5 6 
#
# 1 136.9506 42.7755 46.4107 0.0000 29.1044 0.0000
# 2 42.7755 73.5322 57.1748 0.0000 17.0920 0.0000
# 3 46.4107 57.1748 139.5759 0.0000 13.7976 0.0000
# 4 0.0000 0.0000 0.0000 13.5485 0.0000 21.1672
# 5 29.1044 17.0920 13.7976 0.0000 27.9438 0.0000
# 6 0.0000 0.0000 0.0000 21.1672 0.0000 11.6471
#
#
#
# Elastic Compliance Matrix: (Units=1/GPa)
#
#
# Indices 1 2 3 4 5 6 
#
# 1 0.010522 -0.003076 -0.001410 0.000000 -0.008381 0.000000
# 2 -0.003076 0.023029 -0.007711 0.000000 -0.007074 0.000000
# 3 -0.001410 -0.007711 0.010703 0.000000 0.000900 0.000000
# 4 0.000000 0.000000 0.000000 -0.040128 0.000000 0.072927
# 5 -0.008381 -0.007074 0.000900 0.000000 0.048397 0.000000
# 6 0.000000 0.000000 0.000000 0.072927 0.000000 -0.046679
#
#
# Mechanical properties :
#
#
# Convention : Reuss Voigt Hill
#
# Bulk Modulus (GPa) = 50.35503 71.42009 60.88756
# Shear Modulus (GPa) = 135.64758 24.20773 79.92765
#
# Velocity S-wave (km/s) = 8.74957 3.69622 6.71629
# Velocity P-wave (km/s) = 11.42331 7.65004 9.72150
#
# Compressibility (1/GPa) = 0.01985899
#
# Stress axis : x y z
#
# Youngs Moduli (GPa) = 95.04215 43.42281 93.43019
#
# Poissons Ratio (x) = 0.13358 0.13173
# Poissons Ratio (y) = 0.29238 0.72047
# Poissons Ratio (z) = 0.13400 0.33485
#
# Static dielectric constant tensor:
#      x y z
#    x 1.638760 0.000000 -0.009420 
#    y 0.000000 1.594490 0.000000 
#    z -0.009420 0.000000 1.572380 
# 
# From -- ./inp_files/23828.got.cif
#   From: 2010.05.17/outbox.cif.g08.bks.cpg/sg15_12_cif.got.tgz:23828.got - 2010.06.03 18:47:42.
