data_PCOD9273391
_publ_section_title
;
Structure prediction by ZEFSAII (Michael W. Deem and Ramdas Pophale) SiO2 
 PCOD9273391
Probable space group: C 2/C
;
_chemical_formula_sum "Si O2"
_cell_formula_units_Z 56
_cell_length_a 6.429308
_cell_length_b 28.300287
_cell_length_c 17.151789
_cell_angle_alpha 90.000000
_cell_angle_beta 111.867141
_cell_angle_gamma 90.000000
_cell_volume 2896.248860
_symmetry_space_group_name_H-M "C 2/C"
_symmetry_group_IT_number 15
_symmetry_cell_setting 'monoclinic'
loop_
_space_group_symop_operation_xyz
x,y,z
-x,y,1/2-z
-x,-y,-z
x,-y,1/2+z
1/2+x,1/2+y,z
1/2-x,1/2+y,1/2-z
1/2-x,1/2-y,-z
1/2+x,1/2-y,1/2+z
loop_
_atom_site_type_symbol
_atom_site_label
_atom_site_fract_x
_atom_site_fract_y
_atom_site_fract_z
Si Si1 0.886135 0.992023 0.068448
Si Si2 0.144566 0.335010 0.986826
Si Si3 0.578777 0.773128 0.415524
Si Si4 0.636359 0.767723 0.838176
Si Si5 0.580708 0.671380 0.634556
Si Si6 0.219916 0.572903 0.832584
Si Si7 0.434531 0.928611 0.005719
O O1 0.671138 0.957059 0.039676
O O2 0.089259 0.967948 0.144709
O O3 0.761082 0.041970 0.065093
O O4 0.000000 0.000000 0.000000
O O5 0.113810 0.298443 0.912719
O O6 0.407876 0.342916 0.040891
O O7 0.059627 0.308964 0.051631
O O8 0.998185 0.381964 0.966539
O O9 0.750000 0.750000 0.500000
O O10 0.399007 0.736811 0.357046
O O11 0.703720 0.802569 0.368729
O O12 0.500000 0.790820 0.750000
O O13 0.534679 0.714880 0.835887
O O14 0.664530 0.621852 0.680732
O O15 0.143418 0.578767 0.914023
O O16 0.000000 0.563109 0.750000
#
# Coordination Sequence:
#
# PCOD9273391 Si02
#       7
#     8   8   8   8   8   8   8
#     4   9  20  40  60  89 115 151 194 248 305 369
#     4  11  20  37  61  87 112 161 215 245 287 369
#     4  11  19  37  58  80 112 164 203 237 296 360
#     4  11  25  36  53  87 130 162 204 263 300 343
#     4  11  21  36  56  85 122 164 200 242 300 375
#     4  11  23  35  59  98 127 151 189 257 321 364
#     4  10  20  37  65  88 113 162 207 240 301 372
#
# _framework density 19.335353000000001
#
# number of rings (size 3 to 8) (size 9 to 14) (size 15 to 20)
#    0.000    1.429    5.714    0.857    2.000    0.571 
#    0.000    0.000    0.000    9.429    3.714    0.000 
#    0.000    0.000    0.000    0.000    0.000    0.000 
#
# Total GULP energy -155907.047408 kJ/mol
# GULP energy per Si atom -5568.108836 kJ/mol
# Density = 1.929135 g / cm^3
# Si number density = 19.335353 Si / 1000 Ang^3
#
#
#
# Elastic Constant Matrix: (Units=GPa)
#
#
# Indices 1 2 3 4 5 6 
#
# 1 93.8327 34.1673 33.0830 0.0000 21.9488 0.0000
# 2 34.1673 90.5133 39.4586 0.0000 16.9121 0.0000
# 3 33.0830 39.4586 73.6718 0.0000 32.0106 0.0000
# 4 0.0000 0.0000 0.0000 7.4794 0.0000 22.1691
# 5 21.9488 16.9121 32.0106 0.0000 27.1721 0.0000
# 6 0.0000 0.0000 0.0000 22.1691 0.0000 21.9800
#
#
#
# Elastic Compliance Matrix: (Units=1/GPa)
#
#
# Indices 1 2 3 4 5 6 
#
# 1 0.014147 -0.003381 -0.001006 0.000000 -0.008138 0.000000
# 2 -0.003381 0.015222 -0.007590 0.000000 0.002198 0.000000
# 3 -0.001006 -0.007590 0.032133 0.000000 -0.032318 0.000000
# 4 0.000000 0.000000 0.000000 -0.067202 0.000000 0.067781
# 5 -0.008138 0.002198 -0.032318 0.000000 0.080081 0.000000
# 6 0.000000 0.000000 0.000000 0.067781 0.000000 -0.022868
#
#
# Mechanical properties :
#
#
# Convention : Reuss Voigt Hill
#
# Bulk Modulus (GPa) = 26.63226 52.38175 39.50700
# Shear Modulus (GPa) = 56.82926 21.41356 39.12141
#
# Velocity S-wave (km/s) = 5.42726 3.33150 4.50300
# Velocity P-wave (km/s) = 7.28542 6.47676 6.89296
#
# Compressibility (1/GPa) = 0.03754845
#
# Stress axis : x y z
#
# Youngs Moduli (GPa) = 70.68830 65.69227 31.12069
#
# Poissons Ratio (x) = 0.22211 0.03130
# Poissons Ratio (y) = 0.23900 0.23620
# Poissons Ratio (z) = 0.07110 0.49860
#
# Static dielectric constant tensor:
#      x y z
#    x 1.727110 0.000000 0.027820 
#    y 0.000000 1.765550 0.000000 
#    z 0.027820 0.000000 1.752620 
# 
# From -- ./inp_files/186789.got.cif
#   From: 2010.05.17/outbox.cif.g08.bks.cpg/sg15_94_cif.got.tgz:186789.got - 2010.06.03 18:47:42.
