data_PCOD9273397
_publ_section_title
;
Structure prediction by ZEFSAII (Michael W. Deem and Ramdas Pophale) SiO2 
 PCOD9273397
Probable space group: C 2/C
;
_chemical_formula_sum "Si O2"
_cell_formula_units_Z 52
_cell_length_a 10.634639
_cell_length_b 15.118907
_cell_length_c 23.523627
_cell_angle_alpha 90.000000
_cell_angle_beta 44.640361
_cell_angle_gamma 90.000000
_cell_volume 2657.597674
_symmetry_space_group_name_H-M "C 2/C"
_symmetry_group_IT_number 15
_symmetry_cell_setting 'monoclinic'
loop_
_space_group_symop_operation_xyz
x,y,z
-x,y,1/2-z
-x,-y,-z
x,-y,1/2+z
1/2+x,1/2+y,z
1/2-x,1/2+y,1/2-z
1/2-x,1/2-y,-z
1/2+x,1/2-y,1/2+z
loop_
_atom_site_type_symbol
_atom_site_label
_atom_site_fract_x
_atom_site_fract_y
_atom_site_fract_z
Si Si1 0.266189 0.397474 0.475899
Si Si2 0.654310 0.767920 0.091196
Si Si3 0.803868 0.077477 0.831153
Si Si4 0.048722 0.472105 0.119829
Si Si5 0.491140 0.262319 0.464796
Si Si6 0.811507 0.222223 0.147415
Si Si7 0.500000 0.919224 0.750000
O O1 0.287359 0.426595 0.404359
O O2 0.441420 0.346349 0.442166
O O3 0.109288 0.323045 0.527971
O O4 0.202425 0.477122 0.535581
O O5 0.608280 0.871317 0.109787
O O6 0.466181 0.718073 0.145294
O O7 0.750000 0.750000 0.000000
O O8 0.799922 0.745329 0.092014
O O9 0.635557 0.028948 0.856761
O O10 0.780245 0.181001 0.820926
O O11 0.000000 0.046394 0.750000
O O12 0.017767 0.520988 0.188803
O O13 0.401715 0.280661 0.555518
O O14 0.670568 0.144905 0.199054
#
# Coordination Sequence:
#
# PCOD9273397 Si02
#       7
#     8   8   8   8   8   8   4
#     4  10  20  37  65  89 122 160 209 257 307 383
#     4   9  20  40  62  89 122 159 209 258 316 372
#     4  10  21  39  60  86 120 165 206 254 321 380
#     4  11  24  40  60  94 125 161 212 265 311 372
#     4   9  18  36  62  94 116 160 211 250 311 381
#     4   9  18  37  63  84 122 170 199 249 323 381
#     4  12  22  40  62  88 132 162 214 264 316 388
#
# _framework density 19.566542999999999
#
# number of rings (size 3 to 8) (size 9 to 14) (size 15 to 20)
#    0.000    2.154    2.308    1.385    0.000    1.846 
#    8.308    1.538    0.000    0.000    0.000    0.000 
#    0.000    0.000    0.000    0.000    0.000    0.000 
#
# Total GULP energy -145167.320567 kJ/mol
# GULP energy per Si atom -5583.358483 kJ/mol
# Density = 1.952201 g / cm^3
# Si number density = 19.566543 Si / 1000 Ang^3
#
#
#
# Elastic Constant Matrix: (Units=GPa)
#
#
# Indices 1 2 3 4 5 6 
#
# 1 113.0742 17.3920 11.6665 -0.0001 -9.0815 0.0000
# 2 17.3920 57.0541 17.4540 0.0000 6.1786 0.0000
# 3 11.6665 17.4540 38.0675 -0.0001 -1.1006 0.0000
# 4 -0.0001 0.0000 -0.0001 1.0569 0.0000 1.1963
# 5 -9.0815 6.1786 -1.1006 0.0000 21.8169 0.0000
# 6 0.0000 0.0000 0.0000 1.1963 0.0000 22.7593
#
#
#
# Elastic Compliance Matrix: (Units=1/GPa)
#
#
# Indices 1 2 3 4 5 6 
#
# 1 0.009864 -0.003090 -0.001464 0.000000 0.004908 0.000000
# 2 -0.003090 0.022244 -0.009485 0.000000 -0.008065 0.000000
# 3 -0.001464 -0.009485 0.031172 0.000004 0.003649 0.000000
# 4 0.000000 0.000000 0.000004 1.006019 -0.000002 -0.052880
# 5 0.004908 -0.008065 0.003649 -0.000002 0.050347 0.000000
# 6 0.000000 0.000000 0.000000 -0.052880 0.000000 0.046718
#
#
# Mechanical properties :
#
#
# Convention : Reuss Voigt Hill
#
# Bulk Modulus (GPa) = 28.40800 33.46898 30.93849
# Shear Modulus (GPa) = 4.14533 19.90549 12.02541
#
# Velocity S-wave (km/s) = 1.45711 3.19301 2.48178
# Velocity P-wave (km/s) = 4.16906 5.54401 4.90496
#
# Compressibility (1/GPa) = 0.03520135
#
# Stress axis : x y z
#
# Youngs Moduli (GPa) = 101.37543 44.95523 32.07976
#
# Poissons Ratio (x) = 0.13893 0.04697
# Poissons Ratio (y) = 0.31330 0.30428
# Poissons Ratio (z) = 0.14844 0.42640
#
# Static dielectric constant tensor:
#      x y z
#    x 1.701230 0.000000 -0.017160 
#    y 0.000000 1.667950 0.000000 
#    z -0.017160 0.000000 1.655160 
# 
# From -- ./inp_files/292666.got.cif
#   From: 2010.05.17/outbox.cif.g08.bks.cpg/sg15_147_cif.got.tgz:292666.got - 2010.06.03 18:47:42.
