data_PCOD9273513
_publ_section_title
;
Structure prediction by ZEFSAII (Michael W. Deem and Ramdas Pophale) SiO2 
 PCOD9273513
Probable space group: C 2/C
;
_chemical_formula_sum "Si O2"
_cell_formula_units_Z 52
_cell_length_a 30.008953
_cell_length_b 9.804443
_cell_length_c 12.250666
_cell_angle_alpha 90.000000
_cell_angle_beta 36.743226
_cell_angle_gamma 90.000000
_cell_volume 2156.262148
_symmetry_space_group_name_H-M "C 2/C"
_symmetry_group_IT_number 15
_symmetry_cell_setting 'monoclinic'
loop_
_space_group_symop_operation_xyz
x,y,z
-x,y,1/2-z
-x,-y,-z
x,-y,1/2+z
1/2+x,1/2+y,z
1/2-x,1/2+y,1/2-z
1/2-x,1/2-y,-z
1/2+x,1/2-y,1/2+z
loop_
_atom_site_type_symbol
_atom_site_label
_atom_site_fract_x
_atom_site_fract_y
_atom_site_fract_z
Si Si1 0.141669 0.588488 0.956501
Si Si2 0.000000 0.912434 0.750000
Si Si3 0.116343 0.614921 0.243761
Si Si4 0.421576 0.460311 0.709302
Si Si5 0.554047 0.821696 0.444444
Si Si6 0.373699 0.213151 0.048649
Si Si7 0.220016 0.852770 0.463518
O O1 0.086418 0.691121 0.002791
O O2 0.103536 0.439131 0.033058
O O3 0.212580 0.583006 0.737950
O O4 0.159988 0.621416 0.045027
O O5 0.056135 0.997203 0.711910
O O6 0.055242 0.811469 0.577941
O O7 0.091171 0.460983 0.326253
O O8 0.153173 0.690075 0.274450
O O9 0.034650 0.677351 0.381014
O O10 0.500000 0.500000 0.500000
O O11 0.420572 0.299222 0.682847
O O12 0.331931 0.473030 0.881204
O O13 0.322313 0.272727 0.053270
O O14 0.250000 0.750000 0.500000
#
# Coordination Sequence:
#
# PCOD9273513 Si02
#       7
#     8   4   8   8   8   8   8
#     4  11  23  38  66 100 132 174 220 280 348 410
#     4  10  20  44  68  92 126 170 220 276 344 390
#     4  10  20  37  67 105 128 160 224 293 335 394
#     4  11  23  45  67  91 128 180 230 272 338 414
#     4  10  20  39  66  99 130 167 217 282 342 401
#     4  10  23  39  68  94 126 175 220 280 337 399
#     4  11  24  47  64  92 139 186 222 274 354 428
#
# _framework density 24.115805999999999
#
# number of rings (size 3 to 8) (size 9 to 14) (size 15 to 20)
#    0.000    1.538    3.077    2.308    6.462    0.615 
#   11.077    0.000    0.000    0.000    0.000    0.000 
#    0.000    0.000    0.000    0.000    0.000    0.000 
#
# Total GULP energy -144752.230463 kJ/mol
# GULP energy per Si atom -5567.393479 kJ/mol
# Density = 2.406092 g / cm^3
# Si number density = 24.115806 Si / 1000 Ang^3
#
#
#
# Elastic Constant Matrix: (Units=GPa)
#
#
# Indices 1 2 3 4 5 6 
#
# 1 137.0499 11.1597 37.4201 0.0000 10.9693 0.0000
# 2 11.1597 23.6374 6.8132 0.0000 -0.3085 0.0000
# 3 37.4201 6.8132 135.2881 0.0000 11.3275 0.0000
# 4 0.0000 0.0000 0.0000 29.4845 0.0000 -0.7392
# 5 10.9693 -0.3085 11.3275 0.0000 40.6235 0.0000
# 6 0.0000 0.0000 0.0000 -0.7392 0.0000 13.8566
#
#
#
# Elastic Compliance Matrix: (Units=1/GPa)
#
#
# Indices 1 2 3 4 5 6 
#
# 1 0.008243 -0.003346 -0.001969 0.000000 -0.001702 0.000000
# 2 -0.003346 0.044324 -0.001444 0.000000 0.001643 0.000000
# 3 -0.001969 -0.001444 0.008156 0.000000 -0.001753 0.000000
# 4 0.000000 0.000000 0.000000 0.033962 0.000000 0.001812
# 5 -0.001702 0.001643 -0.001753 0.000000 0.025577 0.000000
# 6 0.000000 0.000000 0.000000 0.001812 0.000000 0.072264
#
#
# Mechanical properties :
#
#
# Convention : Reuss Voigt Hill
#
# Bulk Modulus (GPa) = 21.18493 45.19573 33.19033
# Shear Modulus (GPa) = 22.54500 32.83174 27.68837
#
# Velocity S-wave (km/s) = 3.06087 3.69375 3.39210
# Velocity P-wave (km/s) = 4.61472 6.08058 5.39764
#
# Compressibility (1/GPa) = 0.04720336
#
# Stress axis : x y z
#
# Youngs Moduli (GPa) = 121.31606 22.56139 122.61257
#
# Poissons Ratio (x) = 0.07550 0.24141
# Poissons Ratio (y) = 0.40597 0.17707
# Poissons Ratio (z) = 0.23886 0.03258
#
# Static dielectric constant tensor:
#      x y z
#    x 2.005660 0.000000 0.027670 
#    y 0.000000 2.133210 0.000000 
#    z 0.027670 0.000000 2.094810 
# 
# From -- ./inp_files/126412.got.cif
#   From: 2010.05.17/outbox.cif.g08.bks.cpg/sg15_64_cif.got.tgz:126412.got - 2010.06.03 18:47:42.
