data_PCOD9273404
_publ_section_title
;
Structure prediction by ZEFSAII (Michael W. Deem and Ramdas Pophale) SiO2 
 PCOD9273404
Probable space group: C 2/C
;
_chemical_formula_sum "Si O2"
_cell_formula_units_Z 56
_cell_length_a 30.725787
_cell_length_b 13.030678
_cell_length_c 14.860300
_cell_angle_alpha 90.000000
_cell_angle_beta 28.302804
_cell_angle_gamma 90.000000
_cell_volume 2820.955469
_symmetry_space_group_name_H-M "C 2/C"
_symmetry_group_IT_number 15
_symmetry_cell_setting 'monoclinic'
loop_
_space_group_symop_operation_xyz
x,y,z
-x,y,1/2-z
-x,-y,-z
x,-y,1/2+z
1/2+x,1/2+y,z
1/2-x,1/2+y,1/2-z
1/2-x,1/2-y,-z
1/2+x,1/2-y,1/2+z
loop_
_atom_site_type_symbol
_atom_site_label
_atom_site_fract_x
_atom_site_fract_y
_atom_site_fract_z
Si Si1 0.000000 0.980793 0.250000
Si Si2 0.000000 0.529874 0.750000
Si Si3 0.574522 0.037573 0.434772
Si Si4 0.141982 0.113012 0.350412
Si Si5 0.701976 0.953224 0.413667
Si Si6 0.631340 0.451013 0.663980
Si Si7 0.792575 0.654923 0.770955
Si Si8 0.738625 0.867633 0.542033
O O1 0.946647 0.047356 0.270826
O O2 0.931003 0.913495 0.438205
O O3 0.024981 0.584233 0.612065
O O4 0.093047 0.468070 0.601150
O O5 0.649711 0.116498 0.264451
O O6 0.500000 0.000000 0.500000
O O7 0.632246 0.933826 0.348733
O O8 0.110612 0.072133 0.307506
O O9 0.164712 0.233017 0.300045
O O10 0.236312 0.055226 0.208187
O O11 0.737174 0.870586 0.277268
O O12 0.717429 0.920176 0.486281
O O13 0.709672 0.370404 0.489696
O O14 0.676655 0.565451 0.574885
O O15 0.750000 0.750000 0.500000
#
# Coordination Sequence:
#
# PCOD9273404 Si02
#       8
#     4   4   8   8   8   8   8   8
#     4  12  24  43  69  96 136 176 228 279 329 398
#     4  10  20  37  65  90 126 168 210 259 341 374
#     4  10  20  38  62  94 129 162 212 277 323 389
#     4  11  24  42  70  94 133 178 227 270 336 397
#     4  10  21  39  63  93 131 169 215 280 324 395
#     4  10  23  45  64  94 133 179 219 278 329 397
#     4  10  22  40  69  94 129 173 222 268 337 398
#     4  10  22  38  64  92 131 170 216 271 337 385
#
# _framework density 19.851429
#
# number of rings (size 3 to 8) (size 9 to 14) (size 15 to 20)
#    0.000    1.714    2.857    0.857    2.000    3.429 
#    0.000    0.714    3.143    0.000    0.000    0.000 
#    0.000    0.000    0.000    0.000    0.000    0.000 
#
# Total GULP energy -156041.721153 kJ/mol
# GULP energy per Si atom -5572.918613 kJ/mol
# Density = 1.980625 g / cm^3
# Si number density = 19.851429 Si / 1000 Ang^3
#
#
#
# Elastic Constant Matrix: (Units=GPa)
#
#
# Indices 1 2 3 4 5 6 
#
# 1 107.7392 8.7825 41.6188 0.0000 6.3057 0.0000
# 2 8.7825 101.1215 56.0552 0.0000 1.7265 0.0000
# 3 41.6188 56.0552 122.9971 0.0000 27.2385 0.0000
# 4 0.0000 0.0000 0.0000 14.7926 0.0000 8.2850
# 5 6.3057 1.7265 27.2385 0.0000 44.0569 0.0000
# 6 0.0000 0.0000 0.0000 8.2850 0.0000 12.5206
#
#
#
# Elastic Compliance Matrix: (Units=1/GPa)
#
#
# Indices 1 2 3 4 5 6 
#
# 1 0.010897 0.001652 -0.004728 0.000000 0.001299 0.000000
# 2 0.001652 0.014030 -0.007855 0.000000 0.004070 0.000000
# 3 -0.004728 -0.007855 0.015169 0.000000 -0.008394 0.000000
# 4 0.000000 0.000000 0.000000 0.107408 0.000000 -0.071073
# 5 0.001299 0.004070 -0.008394 0.000000 0.027542 0.000000
# 6 0.000000 0.000000 0.000000 -0.071073 0.000000 0.126898
#
#
# Mechanical properties :
#
#
# Convention : Reuss Voigt Hill
#
# Bulk Modulus (GPa) = 54.83784 60.53009 57.68396
# Shear Modulus (GPa) = 15.15687 29.30077 22.22882
#
# Velocity S-wave (km/s) = 2.76618 3.84605 3.34991
# Velocity P-wave (km/s) = 6.15519 7.09087 6.63954
#
# Compressibility (1/GPa) = 0.01823558
#
# Stress axis : x y z
#
# Youngs Moduli (GPa) = 91.76537 71.27513 65.92592
#
# Poissons Ratio (x) = -0.11776 0.31170
# Poissons Ratio (y) = -0.15162 0.51782
# Poissons Ratio (z) = 0.43386 0.55983
#
# Static dielectric constant tensor:
#      x y z
#    x 1.793220 0.000000 -0.019760 
#    y 0.000000 1.686110 0.000000 
#    z -0.019760 0.000000 1.784000 
# 
# From -- ./inp_files/181965.got.cif
#   From: 2010.05.17/outbox.cif.g08.bks.cpg/sg15_91_cif.got.tgz:181965.got - 2010.06.03 18:47:42.
