data_PCOD9273138
_publ_section_title
;
Structure prediction by ZEFSAII (Michael W. Deem and Ramdas Pophale) SiO2 
 PCOD9273138
Probable space group: C 2/C
;
_chemical_formula_sum "Si O2"
_cell_formula_units_Z 40
_cell_length_a 19.682323
_cell_length_b 6.585786
_cell_length_c 13.488523
_cell_angle_alpha 90.000000
_cell_angle_beta 65.964082
_cell_angle_gamma 90.000000
_cell_volume 1596.824587
_symmetry_space_group_name_H-M "C 2/C"
_symmetry_group_IT_number 15
_symmetry_cell_setting 'monoclinic'
loop_
_space_group_symop_operation_xyz
x,y,z
-x,y,1/2-z
-x,-y,-z
x,-y,1/2+z
1/2+x,1/2+y,z
1/2-x,1/2+y,1/2-z
1/2-x,1/2-y,-z
1/2+x,1/2-y,1/2+z
loop_
_atom_site_type_symbol
_atom_site_label
_atom_site_fract_x
_atom_site_fract_y
_atom_site_fract_z
Si Si1 0.168548 0.204067 0.716941
Si Si2 0.412271 0.365975 0.603762
Si Si3 0.776395 0.635472 0.116533
Si Si4 0.861472 0.618691 0.804057
Si Si5 0.082357 0.172318 0.051322
O O1 0.215993 0.330178 0.769925
O O2 0.125711 0.381890 0.685757
O O3 0.113743 0.057561 0.811965
O O4 0.227532 0.063459 0.625494
O O5 0.373295 0.179357 0.681957
O O6 0.393569 0.450403 0.505203
O O7 0.499242 0.312976 0.559666
O O8 0.722239 0.819876 0.116048
O O9 0.858199 0.666132 0.025980
O O10 0.913712 0.770825 0.835902
#
# Coordination Sequence:
#
# PCOD9273138 Si02
#       5
#     8   8   8   8   8
#     4  10  20  38  65  93 129 183 214 262 333 387
#     4   9  22  43  63  92 137 175 214 274 330 388
#     4  10  20  37  62  96 130 170 220 270 325 384
#     4  11  21  39  66  95 133 176 219 270 328 389
#     4  10  21  41  66  97 133 170 222 275 322 394
#
# _framework density 25.049714000000002
#
# number of rings (size 3 to 8) (size 9 to 14) (size 15 to 20)
#    0.000    2.000    2.000    1.200    0.000    0.800 
#    0.000   27.000    0.000    0.000    0.000    0.000 
#    0.000    0.000    0.000    0.000    0.000    0.000 
#
# Total GULP energy -111600.253700 kJ/mol
# GULP energy per Si atom -5580.012685 kJ/mol
# Density = 2.499270 g / cm^3
# Si number density = 25.049714 Si / 1000 Ang^3
#
#
#
# Elastic Constant Matrix: (Units=GPa)
#
#
# Indices 1 2 3 4 5 6 
#
# 1 95.9292 38.3170 30.1722 0.0000 -16.8973 0.0000
# 2 38.3170 147.1999 41.9611 0.0001 -6.3766 0.0003
# 3 30.1722 41.9611 67.7772 0.0000 -24.8983 0.0000
# 4 0.0000 0.0001 0.0000 32.1969 0.0000 2.0860
# 5 -16.8973 -6.3766 -24.8983 0.0000 45.4520 0.0000
# 6 0.0000 0.0003 0.0000 2.0860 0.0000 22.6963
#
#
#
# Elastic Compliance Matrix: (Units=1/GPa)
#
#
# Indices 1 2 3 4 5 6 
#
# 1 0.012849 -0.002277 -0.003346 0.000000 0.002624 0.000000
# 2 -0.002277 0.008809 -0.005379 0.000000 -0.002558 0.000000
# 3 -0.003346 -0.005379 0.023586 0.000000 0.010922 0.000000
# 4 0.000000 0.000000 0.000000 0.031245 0.000000 -0.002872
# 5 0.002624 -0.002558 0.010922 0.000000 0.028601 0.000000
# 6 0.000000 0.000000 0.000000 -0.002872 0.000000 0.044324
#
#
# Mechanical properties :
#
#
# Convention : Reuss Voigt Hill
#
# Bulk Modulus (GPa) = 43.03153 59.08966 51.06060
# Shear Modulus (GPa) = 27.90725 33.43278 30.67001
#
# Velocity S-wave (km/s) = 3.34140 3.65726 3.50289
# Velocity P-wave (km/s) = 5.66589 6.44005 6.06533
#
# Compressibility (1/GPa) = 0.02323877
#
# Stress axis : x y z
#
# Youngs Moduli (GPa) = 77.83000 113.52143 42.39735
#
# Poissons Ratio (x) = 0.25849 0.14186
# Poissons Ratio (y) = 0.17722 0.22808
# Poissons Ratio (z) = 0.26042 0.61069
#
# Static dielectric constant tensor:
#      x y z
#    x 2.042680 0.000000 0.099720 
#    y 0.000000 1.987640 0.000000 
#    z 0.099720 0.000000 2.105700 
# 
# From -- ./inp_files/217416.got.cif
#   From: 2010.05.17/outbox.cif.g08.bks.cpg/sg15_109_cif.got.tgz:217416.got - 2010.06.03 18:47:42.
