data_PCOD9273908
_publ_section_title
;
Structure prediction by ZEFSAII (Michael W. Deem and Ramdas Pophale) SiO2 
 PCOD9273908
Probable space group: C 2/C
;
_chemical_formula_sum "Si O2"
_cell_formula_units_Z 40
_cell_length_a 13.964093
_cell_length_b 11.467752
_cell_length_c 24.382515
_cell_angle_alpha 90.000000
_cell_angle_beta 155.032693
_cell_angle_gamma 90.000000
_cell_volume 1648.109113
_symmetry_space_group_name_H-M "C 2/C"
_symmetry_group_IT_number 15
_symmetry_cell_setting 'monoclinic'
loop_
_space_group_symop_operation_xyz
x,y,z
-x,y,1/2-z
-x,-y,-z
x,-y,1/2+z
1/2+x,1/2+y,z
1/2-x,1/2+y,1/2-z
1/2-x,1/2-y,-z
1/2+x,1/2-y,1/2+z
loop_
_atom_site_type_symbol
_atom_site_label
_atom_site_fract_x
_atom_site_fract_y
_atom_site_fract_z
Si Si1 0.884947 0.439577 0.011431
Si Si2 0.599712 0.822119 0.586098
Si Si3 0.877839 0.009550 0.525107
Si Si4 0.665292 0.297054 0.227065
Si Si5 0.727821 0.624624 0.133164
O O1 0.776607 0.378306 0.902023
O O2 0.745072 0.430059 0.994412
O O3 0.937311 0.573840 0.023413
O O4 0.127842 0.378198 0.146923
O O5 0.609450 0.790510 0.747749
O O6 0.458200 0.713164 0.489249
O O7 0.097988 0.952925 0.611068
O O8 0.959187 0.121976 0.601534
O O9 0.718381 0.043022 0.390843
O O10 0.732577 0.223760 0.207883
#
# Coordination Sequence:
#
# PCOD9273908 Si02
#       5
#     8   8   8   8   8
#     4  10  21  40  62  87 120 157 200 246 293 354
#     4   9  20  39  58  84 120 154 197 248 292 349
#     4  10  21  40  62  87 120 157 200 246 293 354
#     4  10  20  38  60  86 124 160 194 244 300 350
#     4   9  20  39  58  84 120 154 197 248 292 349
#
# _framework density 24.270239
#
# number of rings (size 3 to 8) (size 9 to 14) (size 15 to 20)
#    0.000    2.400    0.000    1.200    0.000    6.400 
#    0.000   48.000    0.000    0.000    0.000    0.000 
#    0.000    0.000    0.000    0.000    0.000    0.000 
#
# Total GULP energy -111781.051697 kJ/mol
# GULP energy per Si atom -5589.052585 kJ/mol
# Density = 2.421500 g / cm^3
# Si number density = 24.270239 Si / 1000 Ang^3
#
#
#
# Elastic Constant Matrix: (Units=GPa)
#
#
# Indices 1 2 3 4 5 6 
#
# 1 156.5543 22.6947 27.1892 -0.0001 -15.8665 0.0000
# 2 22.6947 70.1751 10.0082 -0.0001 -12.8571 -0.0001
# 3 27.1892 10.0082 52.0303 0.0002 -21.1700 -0.0001
# 4 -0.0001 -0.0001 0.0002 37.4956 -0.0002 -24.8999
# 5 -15.8665 -12.8571 -21.1700 -0.0002 38.1388 -0.0002
# 6 0.0000 -0.0001 -0.0001 -24.8999 -0.0002 51.1169
#
#
#
# Elastic Compliance Matrix: (Units=1/GPa)
#
#
# Indices 1 2 3 4 5 6 
#
# 1 0.007265 -0.001775 -0.003189 0.000000 0.000654 0.000000
# 2 -0.001775 0.015669 -0.000307 0.000000 0.004373 0.000000
# 3 -0.003189 -0.000307 0.026304 0.000000 0.013171 0.000000
# 4 0.000000 0.000000 0.000000 0.039422 0.000000 0.019203
# 5 0.000654 0.004373 0.013171 0.000000 0.035277 0.000000
# 6 0.000000 0.000000 0.000000 0.019203 0.000000 0.028917
#
#
# Mechanical properties :
#
#
# Convention : Reuss Voigt Hill
#
# Bulk Modulus (GPa) = 25.84230 44.28265 35.06248
# Shear Modulus (GPa) = 28.36157 39.94143 34.15150
#
# Velocity S-wave (km/s) = 3.42215 4.06112 3.75525
# Velocity P-wave (km/s) = 5.12695 6.34630 5.76893
#
# Compressibility (1/GPa) = 0.03869624
#
# Stress axis : x y z
#
# Youngs Moduli (GPa) = 137.64695 63.81971 38.01717
#
# Poissons Ratio (x) = 0.11327 0.12123
# Poissons Ratio (y) = 0.24431 0.01167
# Poissons Ratio (z) = 0.43895 0.01960
#
# Static dielectric constant tensor:
#      x y z
#    x 1.967520 0.000000 0.020360 
#    y 0.000000 1.939850 0.000000 
#    z 0.020360 0.000000 1.972030 
# 
# From -- ./inp_files/296640.got.cif
#   From: 2010.05.17/outbox.cif.g08.bks.cpg/sg15_149_cif.got.tgz:296640.got - 2010.06.03 18:47:42.
