data_PCOD9273417
_publ_section_title
;
Structure prediction by ZEFSAII (Michael W. Deem and Ramdas Pophale) SiO2 
 PCOD9273417
Probable space group: C 2/C
;
_chemical_formula_sum "Si O2"
_cell_formula_units_Z 60
_cell_length_a 17.498222
_cell_length_b 10.008191
_cell_length_c 14.484508
_cell_angle_alpha 90.000000
_cell_angle_beta 71.358614
_cell_angle_gamma 90.000000
_cell_volume 2403.531323
_symmetry_space_group_name_H-M "C 2/C"
_symmetry_group_IT_number 15
_symmetry_cell_setting 'monoclinic'
loop_
_space_group_symop_operation_xyz
x,y,z
-x,y,1/2-z
-x,-y,-z
x,-y,1/2+z
1/2+x,1/2+y,z
1/2-x,1/2+y,1/2-z
1/2-x,1/2-y,-z
1/2+x,1/2-y,1/2+z
loop_
_atom_site_type_symbol
_atom_site_label
_atom_site_fract_x
_atom_site_fract_y
_atom_site_fract_z
Si Si1 0.332546 0.437881 0.877361
Si Si2 0.767568 0.766380 0.385189
Si Si3 0.547366 0.032455 0.886282
Si Si4 0.472147 0.752527 0.626593
Si Si5 0.781175 0.439827 0.735900
Si Si6 0.000000 0.016584 0.750000
Si Si7 0.845444 0.911553 0.089258
Si Si8 0.913151 0.198402 0.079362
O O1 0.308765 0.591334 0.866689
O O2 0.276197 0.371362 0.820576
O O3 0.427312 0.429058 0.818269
O O4 0.319880 0.410537 0.990952
O O5 0.750000 0.750000 0.500000
O O6 0.814142 0.659851 0.303440
O O7 0.679094 0.740803 0.378623
O O8 0.519436 0.902607 0.839893
O O9 0.643276 0.003965 0.846115
O O10 0.539679 0.192733 0.874963
O O11 0.500000 0.000000 0.000000
O O12 0.464499 0.626679 0.694917
O O13 0.393851 0.724140 0.591860
O O14 0.551368 0.728030 0.534921
O O15 0.728381 0.548662 0.814787
O O16 0.907069 0.038001 0.083011
#
# Coordination Sequence:
#
# PCOD9273417 Si02
#       8
#     8   8   8   8   8   4   8   8
#     4  12  23  39  64  99 133 176 230 286 348 410
#     4  11  20  39  66  96 129 182 230 285 343 420
#     4  10  23  40  64  93 137 183 228 282 355 419
#     4  11  22  40  63 101 133 178 226 287 346 409
#     4  11  23  39  65  96 136 176 232 288 352 405
#     4  12  22  36  66  98 136 170 236 280 338 416
#     4  11  23  39  69  98 135 178 233 292 345 417
#     4  10  20  37  65  92 130 176 220 277 340 406
#
# _framework density 24.963269
#
# number of rings (size 3 to 8) (size 9 to 14) (size 15 to 20)
#    0.000    1.067    6.667    1.200    0.000    0.000 
#    0.000    0.667    2.933    8.800    0.000    0.000 
#    0.000    0.000    0.000    0.000    0.000    0.000 
#
# Total GULP energy -167087.258707 kJ/mol
# GULP energy per Si atom -5569.575290 kJ/mol
# Density = 2.490645 g / cm^3
# Si number density = 24.963269 Si / 1000 Ang^3
#
#
#
# Elastic Constant Matrix: (Units=GPa)
#
#
# Indices 1 2 3 4 5 6 
#
# 1 54.6717 1.0523 61.5344 0.0000 -8.5978 0.0000
# 2 1.0523 89.4155 24.1247 0.0000 20.7546 0.0000
# 3 61.5344 24.1247 159.8887 0.0000 4.6173 0.0000
# 4 0.0000 0.0000 0.0000 13.5632 0.0000 -1.3809
# 5 -8.5978 20.7546 4.6173 0.0000 52.7276 0.0000
# 6 0.0000 0.0000 0.0000 -1.3809 0.0000 22.7326
#
#
#
# Elastic Compliance Matrix: (Units=1/GPa)
#
#
# Indices 1 2 3 4 5 6 
#
# 1 0.034832 0.001906 -0.013870 0.000000 0.006144 0.000000
# 2 0.001906 0.012904 -0.002549 0.000000 -0.004545 0.000000
# 3 -0.013870 -0.002549 0.012044 0.000000 -0.002313 0.000000
# 4 0.000000 0.000000 0.000000 0.074188 0.000000 0.004506
# 5 0.006144 -0.004545 -0.002313 0.000000 0.021959 0.000000
# 6 0.000000 0.000000 0.000000 0.004506 0.000000 0.044263
#
#
# Mechanical properties :
#
#
# Convention : Reuss Voigt Hill
#
# Bulk Modulus (GPa) = 32.51716 53.04429 42.78072
# Shear Modulus (GPa) = 20.87955 32.28896 26.58426
#
# Velocity S-wave (km/s) = 2.89521 3.60037 3.26687
# Velocity P-wave (km/s) = 4.92246 6.21117 5.60398
#
# Compressibility (1/GPa) = 0.03075300
#
# Stress axis : x y z
#
# Youngs Moduli (GPa) = 28.70919 77.49434 83.02918
#
# Poissons Ratio (x) = -0.14772 1.15165
# Poissons Ratio (y) = -0.05473 0.21168
# Poissons Ratio (z) = 0.39821 0.19757
#
# Static dielectric constant tensor:
#      x y z
#    x 2.237600 0.000000 0.174130 
#    y 0.000000 2.077720 0.000000 
#    z 0.174130 0.000000 2.197310 
# 
# From -- ./inp_files/161293.got.cif
#   From: 2010.05.17/outbox.cif.g08.bks.cpg/sg15_81_cif.got.tgz:161293.got - 2010.06.03 18:47:42.
