data_PCOD9273229
_publ_section_title
;
Structure prediction by ZEFSAII (Michael W. Deem and Ramdas Pophale) SiO2 
 PCOD9273229
Probable space group: C 2/C
;
_chemical_formula_sum "Si O2"
_cell_formula_units_Z 60
_cell_length_a 16.708708
_cell_length_b 20.005345
_cell_length_c 12.545572
_cell_angle_alpha 90.000000
_cell_angle_beta 37.052293
_cell_angle_gamma 90.000000
_cell_volume 2526.782812
_symmetry_space_group_name_H-M "C 2/C"
_symmetry_group_IT_number 15
_symmetry_cell_setting 'monoclinic'
loop_
_space_group_symop_operation_xyz
x,y,z
-x,y,1/2-z
-x,-y,-z
x,-y,1/2+z
1/2+x,1/2+y,z
1/2-x,1/2+y,1/2-z
1/2-x,1/2-y,-z
1/2+x,1/2-y,1/2+z
loop_
_atom_site_type_symbol
_atom_site_label
_atom_site_fract_x
_atom_site_fract_y
_atom_site_fract_z
Si Si1 0.245942 0.091469 0.396289
Si Si2 0.002867 0.316085 0.632353
Si Si3 0.365578 0.469433 0.686775
Si Si4 0.762716 0.057809 0.509885
Si Si5 0.634037 0.675499 0.953115
Si Si6 0.402772 0.761100 0.187237
Si Si7 0.500000 0.870219 0.250000
Si Si8 0.725942 0.391274 0.149203
O O1 0.368588 0.142464 0.254512
O O2 0.177770 0.085072 0.353700
O O3 0.172289 0.111794 0.585041
O O4 0.272343 0.013021 0.397934
O O5 0.049071 0.271870 0.484753
O O6 0.121749 0.369202 0.518834
O O7 0.000000 0.280060 0.750000
O O8 0.500000 0.500000 0.500000
O O9 0.372362 0.446347 0.800951
O O10 0.273784 0.534709 0.801434
O O11 0.813407 0.111168 0.540827
O O12 0.629580 0.084952 0.594513
O O13 0.743374 0.733785 0.862746
O O14 0.650817 0.656725 0.811028
O O15 0.485805 0.697764 0.137873
O O16 0.460987 0.823058 0.192922
#
# Coordination Sequence:
#
# PCOD9273229 Si02
#       8
#     8   8   8   8   8   8   4   8
#     4  10  20  37  63  93 124 168 200 262 322 383
#     4   9  19  38  65  93 123 158 211 269 320 372
#     4  11  23  39  57  92 133 171 205 245 318 395
#     4  10  22  37  65  91 130 163 209 264 322 381
#     4  10  21  46  64  95 122 172 215 273 315 373
#     4  10  22  41  66  86 132 162 223 265 317 376
#     4  10  22  40  58 102 120 158 224 262 312 386
#     4   9  20  38  60  91 128 159 207 261 314 385
#
# _framework density 23.745611
#
# number of rings (size 3 to 8) (size 9 to 14) (size 15 to 20)
#    0.000    2.133    1.333    0.800    4.667    4.800 
#    7.200    6.000    0.000    0.000    0.000    0.000 
#    0.000    0.000    0.000    0.000    0.000    0.000 
#
# Total GULP energy -167598.022297 kJ/mol
# GULP energy per Si atom -5586.600743 kJ/mol
# Density = 2.369156 g / cm^3
# Si number density = 23.745611 Si / 1000 Ang^3
#
#
#
# Elastic Constant Matrix: (Units=GPa)
#
#
# Indices 1 2 3 4 5 6 
#
# 1 56.1801 -1.5639 10.4488 0.0004 11.6542 -0.0002
# 2 -1.5639 24.6067 -8.3887 0.0004 -18.4389 -0.0004
# 3 10.4488 -8.3887 58.5633 0.0005 17.3412 -0.0003
# 4 0.0004 0.0004 0.0005 19.5719 -0.0004 -16.2257
# 5 11.6542 -18.4389 17.3412 -0.0004 33.3491 0.0003
# 6 -0.0002 -0.0004 -0.0003 -16.2257 0.0003 3.4097
#
#
#
# Elastic Compliance Matrix: (Units=1/GPa)
#
#
# Indices 1 2 3 4 5 6 
#
# 1 0.019946 -0.006620 -0.001607 0.000000 -0.009795 0.000000
# 2 -0.006620 0.071725 -0.001150 -0.000001 0.042568 -0.000001
# 3 -0.001607 -0.001150 0.020353 0.000000 -0.010658 0.000000
# 4 0.000000 -0.000001 0.000000 -0.017349 0.000000 -0.082557
# 5 -0.009795 0.042568 -0.010658 0.000000 0.062487 -0.000001
# 6 0.000000 -0.000001 0.000000 -0.082557 -0.000001 -0.099583
#
#
# Mechanical properties :
#
#
# Convention : Reuss Voigt Hill
#
# Bulk Modulus (GPa) = 10.72136 15.59360 13.15748
# Shear Modulus (GPa) = 46.54512 20.52308 33.53410
#
# Velocity S-wave (km/s) = 4.43217 2.94307 3.76203
# Velocity P-wave (km/s) = 5.54230 4.25794 4.94202
#
# Compressibility (1/GPa) = 0.09327177
#
# Stress axis : x y z
#
# Youngs Moduli (GPa) = 50.13441 13.94219 49.13184
#
# Poissons Ratio (x) = 0.09230 0.07893
# Poissons Ratio (y) = 0.33189 0.05649
# Poissons Ratio (z) = 0.08054 0.01603
#
# Static dielectric constant tensor:
#      x y z
#    x 1.953590 0.000000 0.059270 
#    y 0.000000 1.921930 0.000000 
#    z 0.059270 0.000000 1.950460 
# 
# From -- ./inp_files/107610.got.cif
#   From: 2010.05.17/outbox.cif.g08.bks.cpg/sg15_54_cif.got.tgz:107610.got - 2010.06.03 18:47:42.
