data_PCOD9273876
_publ_section_title
;
Structure prediction by ZEFSAII (Michael W. Deem and Ramdas Pophale) SiO2 
 PCOD9273876
Probable space group: C 2/C
;
_chemical_formula_sum "Si O2"
_cell_formula_units_Z 48
_cell_length_a 10.611072
_cell_length_b 9.059216
_cell_length_c 24.054220
_cell_angle_alpha 90.000000
_cell_angle_beta 89.799210
_cell_angle_gamma 90.000000
_cell_volume 2312.269699
_symmetry_space_group_name_H-M "C 2/C"
_symmetry_group_IT_number 15
_symmetry_cell_setting 'monoclinic'
loop_
_space_group_symop_operation_xyz
x,y,z
-x,y,1/2-z
-x,-y,-z
x,-y,1/2+z
1/2+x,1/2+y,z
1/2-x,1/2+y,1/2-z
1/2-x,1/2-y,-z
1/2+x,1/2-y,1/2+z
loop_
_atom_site_type_symbol
_atom_site_label
_atom_site_fract_x
_atom_site_fract_y
_atom_site_fract_z
Si Si1 0.405467 0.542265 0.096563
Si Si2 0.373644 0.383744 0.215312
Si Si3 0.861826 0.427827 0.757405
Si Si4 0.134648 0.404706 0.616152
Si Si5 0.374465 0.231448 0.921845
Si Si6 0.905383 0.265505 0.549367
O O1 0.393020 0.456116 0.155165
O O2 0.271868 0.625208 0.089362
O O3 0.522367 0.651195 0.096587
O O4 0.418025 0.412484 0.051484
O O5 0.500000 0.408983 0.250000
O O6 0.253753 0.461167 0.243994
O O7 0.350515 0.208103 0.214974
O O8 0.862205 0.358093 0.819581
O O9 0.000000 0.498215 0.750000
O O10 0.121460 0.582964 0.614360
O O11 0.019673 0.334125 0.583403
O O12 0.232650 0.295390 0.924413
O O13 0.404179 0.185078 0.985513
#
# Coordination Sequence:
#
# PCOD9273876 Si02
#       6
#     8   8   8   8   8   8
#     4  10  22  38  56  85 116 146 191 235 280 343
#     4  10  22  38  57  82 111 145 188 233 283 339
#     4  10  22  39  58  83 113 147 189 236 285 339
#     4  10  22  38  57  85 116 146 191 237 279 341
#     4  10  22  37  58  87 116 152 192 233 283 337
#     4  10  20  38  60  84 118 153 188 233 283 338
#
# _framework density 20.758825000000002
#
# number of rings (size 3 to 8) (size 9 to 14) (size 15 to 20)
#    0.000    2.000    0.000    3.000    0.000   10.667 
#    0.000    0.000    0.000    0.000    0.000    0.000 
#    0.000    0.000    0.000    0.000    0.000    0.000 
#
# Total GULP energy -134097.178466 kJ/mol
# GULP energy per Si atom -5587.382436 kJ/mol
# Density = 2.071158 g / cm^3
# Si number density = 20.758825 Si / 1000 Ang^3
#
#
#
# Elastic Constant Matrix: (Units=GPa)
#
#
# Indices 1 2 3 4 5 6 
#
# 1 126.3172 52.2445 14.5745 0.0000 -12.2600 0.0000
# 2 52.2445 45.3974 12.7763 0.0000 -21.5227 0.0000
# 3 14.5745 12.7763 45.9548 0.0000 2.3120 0.0000
# 4 0.0000 0.0000 0.0000 25.8333 0.0000 -1.6738
# 5 -12.2600 -21.5227 2.3120 0.0000 31.3879 0.0000
# 6 0.0000 0.0000 0.0000 -1.6738 0.0000 34.4906
#
#
#
# Elastic Compliance Matrix: (Units=1/GPa)
#
#
# Indices 1 2 3 4 5 6 
#
# 1 0.017198 -0.025652 0.002233 0.000000 -0.011037 0.000000
# 2 -0.025652 0.076528 -0.015333 0.000000 0.043585 0.000000
# 3 0.002233 -0.015333 0.025896 0.000000 -0.011549 0.000000
# 4 0.000000 0.000000 0.000000 0.038832 0.000000 0.001884
# 5 -0.011037 0.043585 -0.011549 0.000000 0.058285 0.000000
# 6 0.000000 0.000000 0.000000 0.001884 0.000000 0.029085
#
#
# Mechanical properties :
#
#
# Convention : Reuss Voigt Hill
#
# Bulk Modulus (GPa) = 23.74383 41.87335 32.80859
# Shear Modulus (GPa) = 14.82058 27.54729 21.18393
#
# Velocity S-wave (km/s) = 2.67487 3.64677 3.19796
# Velocity P-wave (km/s) = 4.58287 6.16012 5.42908
#
# Compressibility (1/GPa) = 0.04211620
#
# Stress axis : x y z
#
# Youngs Moduli (GPa) = 58.14797 13.06709 38.61541
#
# Poissons Ratio (x) = 0.33520 -0.08623
# Poissons Ratio (y) = 1.49164 0.59211
# Poissons Ratio (z) = -0.12984 0.20036
#
# Static dielectric constant tensor:
#      x y z
#    x 1.750300 0.000000 0.002110 
#    y 0.000000 1.716940 0.000000 
#    z 0.002110 0.000000 1.777140 
# 
# From -- ./inp_files/267620.got.cif
#   From: 2010.05.17/outbox.cif.g08.bks.cpg/sg15_134_cif.got.tgz:267620.got - 2010.06.03 18:47:42.
