data_PCOD9273845
_publ_section_title
;
Structure prediction by ZEFSAII (Michael W. Deem and Ramdas Pophale) SiO2 
 PCOD9273845
Probable space group: C 2/C
;
_chemical_formula_sum "Si O2"
_cell_formula_units_Z 52
_cell_length_a 6.491038
_cell_length_b 26.404317
_cell_length_c 19.498387
_cell_angle_alpha 90.000000
_cell_angle_beta 54.866257
_cell_angle_gamma 90.000000
_cell_volume 2733.006669
_symmetry_space_group_name_H-M "C 2/C"
_symmetry_group_IT_number 15
_symmetry_cell_setting 'monoclinic'
loop_
_space_group_symop_operation_xyz
x,y,z
-x,y,1/2-z
-x,-y,-z
x,-y,1/2+z
1/2+x,1/2+y,z
1/2-x,1/2+y,1/2-z
1/2-x,1/2-y,-z
1/2+x,1/2-y,1/2+z
loop_
_atom_site_type_symbol
_atom_site_label
_atom_site_fract_x
_atom_site_fract_y
_atom_site_fract_z
Si Si1 0.628124 0.218121 0.959691
Si Si2 0.500000 0.024985 0.250000
Si Si3 0.206880 0.962946 0.421036
Si Si4 0.548092 0.316223 0.562473
Si Si5 0.921962 0.558309 0.019826
Si Si6 0.947060 0.099354 0.185992
Si Si7 0.390880 0.626979 0.952116
O O1 0.583484 0.261447 0.912387
O O2 0.815604 0.171013 0.913410
O O3 0.750000 0.250000 0.000000
O O4 0.344688 0.194200 0.022836
O O5 0.716227 0.061751 0.235267
O O6 0.385504 0.994085 0.336108
O O7 0.350498 0.932764 0.454063
O O8 0.075631 0.919286 0.401001
O O9 0.000000 0.000000 0.500000
O O10 0.421721 0.354489 0.639136
O O11 0.497224 0.343316 0.498496
O O12 0.676024 0.566343 0.112117
O O13 0.000000 0.500000 0.000000
O O14 0.131455 0.595226 0.011388
O O15 0.000000 0.120896 0.250000
#
# Coordination Sequence:
#
# PCOD9273845 Si02
#       7
#     8   4   8   8   8   8   8
#     4   9  19  34  65  95 118 156 221 268 326 407
#     4  12  26  42  60  98 134 176 224 270 326 412
#     4  12  22  39  62  91 132 180 218 270 328 398
#     4  10  20  38  59  99 123 163 218 272 337 398
#     4  12  22  37  60  89 130 177 220 264 329 396
#     4  12  25  36  58  93 135 168 213 278 337 396
#     4  11  19  36  63  92 123 171 218 270 319 392
#
# _framework density 19.026664
#
# number of rings (size 3 to 8) (size 9 to 14) (size 15 to 20)
#    0.000    0.923    6.154    0.923    2.154    0.000 
#    0.000    0.000    0.000    0.000   64.000    0.000 
#    0.000    0.000    0.000    0.000    0.000    0.000 
#
# Total GULP energy -144770.084626 kJ/mol
# GULP energy per Si atom -5568.080178 kJ/mol
# Density = 1.898336 g / cm^3
# Si number density = 19.026664 Si / 1000 Ang^3
#
#
#
# Elastic Constant Matrix: (Units=GPa)
#
#
# Indices 1 2 3 4 5 6 
#
# 1 90.5396 32.2407 22.0955 0.0000 -12.6126 0.0000
# 2 32.2407 136.7699 36.8203 0.0000 -15.6400 0.0000
# 3 22.0955 36.8203 77.8708 0.0000 -2.9457 0.0000
# 4 0.0000 0.0000 0.0000 13.3301 0.0000 -5.7745
# 5 -12.6126 -15.6400 -2.9457 0.0000 22.4273 0.0000
# 6 0.0000 0.0000 0.0000 -5.7745 0.0000 -25.1844
#
#
#
# Elastic Compliance Matrix: (Units=1/GPa)
#
#
# Indices 1 2 3 4 5 6 
#
# 1 0.013122 -0.001699 -0.002699 0.000000 0.005840 0.000000
# 2 -0.001699 0.009289 -0.003720 0.000000 0.005034 0.000000
# 3 -0.002699 -0.003720 0.015287 0.000000 -0.002104 0.000000
# 4 0.000000 0.000000 0.000000 0.068240 0.000000 -0.015647
# 5 0.005840 0.005034 -0.002104 0.000000 0.051107 0.000000
# 6 0.000000 0.000000 0.000000 -0.015647 0.000000 -0.036120
#
#
# Mechanical properties :
#
#
# Convention : Reuss Voigt Hill
#
# Bulk Modulus (GPa) = 46.59253 54.16593 50.37923
# Shear Modulus (GPa) = 34.64638 16.38287 25.51463
#
# Velocity S-wave (km/s) = 4.27187 2.93755 3.66593
# Velocity P-wave (km/s) = 6.99093 6.32738 6.66742
#
# Compressibility (1/GPa) = 0.02146267
#
# Stress axis : x y z
#
# Youngs Moduli (GPa) = 76.20723 107.65352 65.41533
#
# Poissons Ratio (x) = 0.18288 0.17657
# Poissons Ratio (y) = 0.12946 0.24333
# Poissons Ratio (z) = 0.20570 0.40045
#
# Static dielectric constant tensor:
#      x y z
#    x 1.794000 0.000000 -0.013560 
#    y 0.000000 1.702750 0.000000 
#    z -0.013560 0.000000 1.658300 
# 
# From -- ./inp_files/228579.got.cif
#   From: 2010.05.17/outbox.cif.g08.bks.cpg/sg15_115_cif.got.tgz:228579.got - 2010.06.03 18:47:42.
