data_PCOD9273192
_publ_section_title
;
Structure prediction by ZEFSAII (Michael W. Deem and Ramdas Pophale) SiO2 
 PCOD9273192
Probable space group: C 2/C
;
_chemical_formula_sum "Si O2"
_cell_formula_units_Z 48
_cell_length_a 18.543219
_cell_length_b 13.800627
_cell_length_c 18.698796
_cell_angle_alpha 90.000000
_cell_angle_beta 153.066558
_cell_angle_gamma 90.000000
_cell_volume 2167.468484
_symmetry_space_group_name_H-M "C 2/C"
_symmetry_group_IT_number 15
_symmetry_cell_setting 'monoclinic'
loop_
_space_group_symop_operation_xyz
x,y,z
-x,y,1/2-z
-x,-y,-z
x,-y,1/2+z
1/2+x,1/2+y,z
1/2-x,1/2+y,1/2-z
1/2-x,1/2-y,-z
1/2+x,1/2-y,1/2+z
loop_
_atom_site_type_symbol
_atom_site_label
_atom_site_fract_x
_atom_site_fract_y
_atom_site_fract_z
Si Si1 0.500000 0.282210 0.250000
Si Si2 0.732957 0.363034 0.571025
Si Si3 0.914085 0.440744 0.245392
Si Si4 0.212774 0.569531 0.090309
Si Si5 0.644695 0.703408 0.514945
Si Si6 0.500000 0.601699 0.250000
Si Si7 0.105626 0.093843 0.111560
O O1 0.591451 0.343256 0.390694
O O2 0.629548 0.213658 0.325809
O O3 0.803340 0.470381 0.624916
O O4 0.673742 0.359568 0.600096
O O5 0.802307 0.356404 0.175974
O O6 0.000000 0.403740 0.250000
O O7 0.050774 0.478275 0.419608
O O8 0.179866 0.683787 0.048660
O O9 0.366488 0.544758 0.177529
O O10 0.259190 0.558366 0.213625
O O11 0.592323 0.666832 0.390095
O O12 0.504193 0.669815 0.443125
O O13 0.000000 0.000000 0.000000
#
# Coordination Sequence:
#
# PCOD9273192 Si02
#       7
#     4   8   8   8   8   4   8
#     4  10  26  51  79  98 124 180 246 304 347 399
#     4  11  25  49  72 101 130 175 238 294 351 403
#     4  12  23  40  69 101 138 177 232 280 328 412
#     4  11  25  39  65 101 137 187 218 265 337 410
#     4  11  23  41  64 101 140 181 221 263 336 409
#     4  10  20  37  63  90 140 178 216 256 309 401
#     4  11  25  46  63  98 140 178 217 281 348 412
#
# _framework density 22.145651000000001
#
# number of rings (size 3 to 8) (size 9 to 14) (size 15 to 20)
#    0.000    1.000    4.167    2.500    4.667    2.667 
#    0.000    0.000    0.000    0.000    0.000    0.000 
#    0.000    0.000    0.000    0.000    0.000    0.000 
#
# Total GULP energy -134427.613730 kJ/mol
# GULP energy per Si atom -5601.150572 kJ/mol
# Density = 2.209525 g / cm^3
# Si number density = 22.145651 Si / 1000 Ang^3
#
#
#
# Elastic Constant Matrix: (Units=GPa)
#
#
# Indices 1 2 3 4 5 6 
#
# 1 151.7283 17.8170 57.6429 -0.0010 -14.4378 -0.0004
# 2 17.8170 63.6284 21.5824 0.0025 -0.3764 0.0010
# 3 57.6429 21.5824 151.9630 0.0021 -20.4033 0.0012
# 4 -0.0010 0.0025 0.0021 27.2930 0.0005 -1.6128
# 5 -14.4378 -0.3764 -20.4033 0.0005 35.7595 0.0002
# 6 -0.0004 0.0010 0.0012 -1.6128 0.0002 14.6134
#
#
#
# Elastic Compliance Matrix: (Units=1/GPa)
#
#
# Indices 1 2 3 4 5 6 
#
# 1 0.007886 -0.001325 -0.002575 0.000001 0.001701 0.000001
# 2 -0.001325 0.016787 -0.002090 -0.000001 -0.001551 -0.000001
# 3 -0.002575 -0.002090 0.008351 -0.000001 0.003703 -0.000001
# 4 0.000001 -0.000001 -0.000001 0.036880 -0.000001 0.004070
# 5 0.001701 -0.001551 0.003703 -0.000001 0.030748 -0.000001
# 6 0.000001 -0.000001 -0.000001 0.004070 -0.000001 0.068880
#
#
# Mechanical properties :
#
#
# Convention : Reuss Voigt Hill
#
# Bulk Modulus (GPa) = 47.51616 62.37824 54.94720
# Shear Modulus (GPa) = 26.52145 33.55166 30.03656
#
# Velocity S-wave (km/s) = 3.46438 3.89658 3.68682
# Velocity P-wave (km/s) = 6.12416 6.96225 6.55661
#
# Compressibility (1/GPa) = 0.02104547
#
# Stress axis : x y z
#
# Youngs Moduli (GPa) = 126.80051 59.57024 119.74155
#
# Poissons Ratio (x) = 0.07892 0.30833
# Poissons Ratio (y) = 0.16799 0.25023
# Poissons Ratio (z) = 0.32650 0.12449
#
# Static dielectric constant tensor:
#      x y z
#    x 1.806440 0.000000 0.018520 
#    y 0.000000 1.791740 0.000000 
#    z 0.018520 0.000000 1.874120 
# 
# From -- ./inp_files/211465.got.cif
#   From: 2010.05.17/outbox.cif.g08.bks.cpg/sg15_106_cif.got.tgz:211465.got - 2010.06.03 18:47:42.
