data_PCOD9273468
_publ_section_title
;
Structure prediction by ZEFSAII (Michael W. Deem and Ramdas Pophale) SiO2 
 PCOD9273468
Probable space group: C 2/C
;
_chemical_formula_sum "Si O2"
_cell_formula_units_Z 52
_cell_length_a 13.852460
_cell_length_b 12.064749
_cell_length_c 18.083990
_cell_angle_alpha 90.000000
_cell_angle_beta 54.487950
_cell_angle_gamma 90.000000
_cell_volume 2460.142833
_symmetry_space_group_name_H-M "C 2/C"
_symmetry_group_IT_number 15
_symmetry_cell_setting 'monoclinic'
loop_
_space_group_symop_operation_xyz
x,y,z
-x,y,1/2-z
-x,-y,-z
x,-y,1/2+z
1/2+x,1/2+y,z
1/2-x,1/2+y,1/2-z
1/2-x,1/2-y,-z
1/2+x,1/2-y,1/2+z
loop_
_atom_site_type_symbol
_atom_site_label
_atom_site_fract_x
_atom_site_fract_y
_atom_site_fract_z
Si Si1 0.399983 0.754248 0.096708
Si Si2 0.467223 0.530915 0.100942
Si Si3 0.500000 0.261167 0.250000
Si Si4 0.785843 0.933803 0.978865
Si Si5 0.340170 0.768233 0.569870
Si Si6 0.699445 0.355926 0.265016
Si Si7 0.294576 0.157192 0.423636
O O1 0.450806 0.659948 0.127656
O O2 0.326756 0.850538 0.168919
O O3 0.303097 0.679227 0.096612
O O4 0.516939 0.786482 0.998655
O O5 0.349968 0.465725 0.174767
O O6 0.500000 0.500000 0.000000
O O7 0.588491 0.504063 0.090306
O O8 0.599356 0.329092 0.249152
O O9 0.425151 0.187029 0.339384
O O10 0.807442 0.838438 0.031890
O O11 0.707446 0.033377 0.044984
O O12 0.728454 0.871804 0.935043
O O13 0.304290 0.736387 0.668650
O O14 0.250000 0.250000 0.500000
#
# Coordination Sequence:
#
# PCOD9273468 Si02
#       7
#     8   8   4   8   8   8   8
#     4  10  21  38  62  92 119 166 216 251 327 379
#     4  11  18  40  70  82 120 177 210 252 325 386
#     4  10  24  36  58  92 118 160 216 250 318 378
#     4  10  20  37  66  88 116 170 212 247 325 388
#     4  10  20  41  62  93 125 159 208 267 318 375
#     4  11  21  41  64  91 128 164 212 270 310 387
#     4  11  20  38  60  84 122 164 206 255 308 379
#
# _framework density 21.136984000000002
#
# number of rings (size 3 to 8) (size 9 to 14) (size 15 to 20)
#    0.000    1.538    4.615    1.846    0.000    0.000 
#   16.615    6.923    0.000    0.000    0.000    0.000 
#    0.000    0.000    0.000    0.000    0.000    0.000 
#
# Total GULP energy -144933.919642 kJ/mol
# GULP energy per Si atom -5574.381525 kJ/mol
# Density = 2.108887 g / cm^3
# Si number density = 21.136984 Si / 1000 Ang^3
#
#
#
# Elastic Constant Matrix: (Units=GPa)
#
#
# Indices 1 2 3 4 5 6 
#
# 1 46.6735 -2.1080 2.4193 0.0000 3.1150 0.0000
# 2 -2.1080 60.2928 21.5648 0.0000 -2.0392 0.0000
# 3 2.4193 21.5648 61.6558 0.0000 -13.0075 0.0000
# 4 0.0000 0.0000 0.0000 30.4989 0.0000 -3.6339
# 5 3.1150 -2.0392 -13.0075 0.0000 30.1130 0.0000
# 6 0.0000 0.0000 0.0000 -3.6339 0.0000 34.7958
#
#
#
# Elastic Compliance Matrix: (Units=1/GPa)
#
#
# Indices 1 2 3 4 5 6 
#
# 1 0.021790 0.001364 -0.001967 0.000000 -0.003011 0.000000
# 2 0.001364 0.019126 -0.007151 0.000000 -0.001935 0.000000
# 3 -0.001967 -0.007151 0.020617 0.000000 0.008625 0.000000
# 4 0.000000 0.000000 0.000000 0.033201 0.000000 0.003467
# 5 -0.003011 -0.001935 0.008625 0.000000 0.037114 0.000000
# 6 0.000000 0.000000 0.000000 0.003467 0.000000 0.029101
#
#
# Mechanical properties :
#
#
# Convention : Reuss Voigt Hill
#
# Bulk Modulus (GPa) = 21.72820 23.59714 22.66267
# Shear Modulus (GPa) = 26.06882 28.86463 27.46672
#
# Velocity S-wave (km/s) = 3.51569 3.69941 3.60872
# Velocity P-wave (km/s) = 5.17514 5.42546 5.30178
#
# Compressibility (1/GPa) = 0.04602315
#
# Stress axis : x y z
#
# Youngs Moduli (GPa) = 45.89264 52.28568 48.50355
#
# Poissons Ratio (x) = -0.07130 0.09542
# Poissons Ratio (y) = -0.06258 0.34686
# Poissons Ratio (z) = 0.09028 0.37390
#
# Static dielectric constant tensor:
#      x y z
#    x 2.038470 0.000000 -0.040740 
#    y 0.000000 1.884450 0.000000 
#    z -0.040740 0.000000 1.822460 
# 
# From -- ./inp_files/243634.got.cif
#   From: 2010.05.17/outbox.cif.g08.bks.cpg/sg15_122_cif.got.tgz:243634.got - 2010.06.03 18:47:42.
