data_PCOD9273239
_publ_section_title
;
Structure prediction by ZEFSAII (Michael W. Deem and Ramdas Pophale) SiO2 
 PCOD9273239
Probable space group: C 2/C
;
_chemical_formula_sum "Si O2"
_cell_formula_units_Z 48
_cell_length_a 12.009843
_cell_length_b 6.880437
_cell_length_c 22.536273
_cell_angle_alpha 90.000000
_cell_angle_beta 91.904711
_cell_angle_gamma 90.000000
_cell_volume 1861.210217
_symmetry_space_group_name_H-M "C 2/C"
_symmetry_group_IT_number 15
_symmetry_cell_setting 'monoclinic'
loop_
_space_group_symop_operation_xyz
x,y,z
-x,y,1/2-z
-x,-y,-z
x,-y,1/2+z
1/2+x,1/2+y,z
1/2-x,1/2+y,1/2-z
1/2-x,1/2-y,-z
1/2+x,1/2-y,1/2+z
loop_
_atom_site_type_symbol
_atom_site_label
_atom_site_fract_x
_atom_site_fract_y
_atom_site_fract_z
Si Si1 0.660719 0.680876 0.614357
Si Si2 0.161692 0.447885 0.945551
Si Si3 0.813569 0.045046 0.758941
Si Si4 0.558020 0.792642 0.832145
Si Si5 0.099478 0.345964 0.193024
Si Si6 0.913200 0.395330 0.432727
O O1 0.723696 0.623984 0.676948
O O2 0.535879 0.658416 0.638856
O O3 0.704644 0.027125 0.716019
O O4 0.643585 0.899486 0.588109
O O5 0.145054 0.318880 0.886830
O O6 0.272839 0.570497 0.936250
O O7 0.046722 0.579071 0.943532
O O8 0.143795 0.337780 0.007196
O O9 0.888190 0.194117 0.723328
O O10 0.618198 0.345621 0.732422
O O11 0.003601 0.502267 0.813351
O O12 0.106159 0.268288 0.125622
#
# Coordination Sequence:
#
# PCOD9273239 Si02
#       6
#     8   8   8   8   8   8
#     4  10  20  37  63  94 132 177 222 277 343 410
#     4   9  18  39  70  97 133 177 228 288 345 410
#     4  12  23  44  70 102 144 186 236 289 348 421
#     4  10  24  45  68 100 139 182 233 287 346 414
#     4  10  23  44  72 101 138 189 233 287 353 414
#     4   9  20  39  67 101 132 175 230 286 347 414
#
# _framework density 25.789670000000001
#
# number of rings (size 3 to 8) (size 9 to 14) (size 15 to 20)
#    0.000    2.333    0.000    4.000    0.000    2.667 
#    0.000   45.833    0.000   17.000    0.000    0.000 
#    0.000    0.000    0.000    0.000    0.000    0.000 
#
# Total GULP energy -133979.412175 kJ/mol
# GULP energy per Si atom -5582.475507 kJ/mol
# Density = 2.573097 g / cm^3
# Si number density = 25.789670 Si / 1000 Ang^3
#
#
#
# Elastic Constant Matrix: (Units=GPa)
#
#
# Indices 1 2 3 4 5 6 
#
# 1 106.2566 40.1283 33.8079 0.0000 -22.8927 0.0000
# 2 40.1283 127.4365 45.2483 0.0000 -13.4263 0.0000
# 3 33.8079 45.2483 140.0933 0.0000 -14.3150 0.0000
# 4 0.0000 0.0000 0.0000 24.9701 0.0000 -6.8666
# 5 -22.8927 -13.4263 -14.3150 0.0000 40.5902 0.0000
# 6 0.0000 0.0000 0.0000 -6.8666 0.0000 46.7101
#
#
#
# Elastic Compliance Matrix: (Units=1/GPa)
#
#
# Indices 1 2 3 4 5 6 
#
# 1 0.012066 -0.002704 -0.001488 0.000000 0.005386 0.000000
# 2 -0.002704 0.009628 -0.002373 0.000000 0.000823 0.000000
# 3 -0.001488 -0.002373 0.008400 0.000000 0.001338 0.000000
# 4 0.000000 0.000000 0.000000 0.041735 0.000000 0.006135
# 5 0.005386 0.000823 0.001338 0.000000 0.028418 0.000000
# 6 0.000000 0.000000 0.000000 0.006135 0.000000 0.022311
#
#
# Mechanical properties :
#
#
# Convention : Reuss Voigt Hill
#
# Bulk Modulus (GPa) = 58.94697 68.01726 63.48212
# Shear Modulus (GPa) = 35.37497 39.42755 37.40126
#
# Velocity S-wave (km/s) = 3.70763 3.91424 3.81234
# Velocity P-wave (km/s) = 6.42146 6.84540 6.63681
#
# Compressibility (1/GPa) = 0.01696440
#
# Stress axis : x y z
#
# Youngs Moduli (GPa) = 82.87646 103.86729 119.04089
#
# Poissons Ratio (x) = 0.28082 0.17716
# Poissons Ratio (y) = 0.22406 0.28249
# Poissons Ratio (z) = 0.12334 0.24649
#
# Static dielectric constant tensor:
#      x y z
#    x 2.082240 0.000000 0.005200 
#    y 0.000000 2.112180 0.000000 
#    z 0.005200 0.000000 2.103610 
# 
# From -- ./inp_files/272095.got.cif
#   From: 2010.05.17/outbox.cif.g08.bks.cpg/sg15_137_cif.got.tgz:272095.got - 2010.06.03 18:47:42.
