data_PCOD9273818
_publ_section_title
;
Structure prediction by ZEFSAII (Michael W. Deem and Ramdas Pophale) SiO2 
 PCOD9273818
Probable space group: C 2/C
;
_chemical_formula_sum "Si O2"
_cell_formula_units_Z 48
_cell_length_a 21.534117
_cell_length_b 9.418588
_cell_length_c 16.725044
_cell_angle_alpha 90.000000
_cell_angle_beta 37.243822
_cell_angle_gamma 90.000000
_cell_volume 2052.980896
_symmetry_space_group_name_H-M "C 2/C"
_symmetry_group_IT_number 15
_symmetry_cell_setting 'monoclinic'
loop_
_space_group_symop_operation_xyz
x,y,z
-x,y,1/2-z
-x,-y,-z
x,-y,1/2+z
1/2+x,1/2+y,z
1/2-x,1/2+y,1/2-z
1/2-x,1/2-y,-z
1/2+x,1/2-y,1/2+z
loop_
_atom_site_type_symbol
_atom_site_label
_atom_site_fract_x
_atom_site_fract_y
_atom_site_fract_z
Si Si1 0.361102 0.860591 0.119409
Si Si2 0.289678 0.898231 0.925146
Si Si3 0.172026 0.870732 0.608444
Si Si4 0.487635 0.984914 0.141529
Si Si5 0.029887 0.832500 0.607054
Si Si6 0.176637 0.032713 0.370552
O O1 0.422098 0.926828 0.132590
O O2 0.348623 0.691010 0.133532
O O3 0.254163 0.944894 0.234696
O O4 0.430631 0.901346 0.972480
O O5 0.234543 0.934164 0.896385
O O6 0.407389 0.943256 0.785403
O O7 0.250000 0.750000 0.000000
O O8 0.245926 0.998482 0.039082
O O9 0.250000 0.750000 0.500000
O O10 0.092445 0.893748 0.617844
O O11 0.092641 0.848925 0.760896
O O12 0.544521 0.837154 0.103880
O O13 0.082270 0.922627 0.482761
#
# Coordination Sequence:
#
# PCOD9273818 Si02
#       6
#     8   8   8   8   8   8
#     4  10  22  40  60  86 122 156 207 253 310 358
#     4  10  22  39  59  89 127 159 198 255 312 366
#     4  10  20  38  59  88 123 157 201 245 304 373
#     4  10  21  40  61  86 121 160 201 258 303 369
#     4  10  21  37  62  88 119 160 201 248 310 358
#     4  10  22  41  61  89 121 162 204 261 302 370
#
# _framework density 23.380637
#
# number of rings (size 3 to 8) (size 9 to 14) (size 15 to 20)
#    0.000    2.000    1.667    1.000    2.333    2.000 
#    3.000    0.000    0.000    0.000    0.000    0.000 
#    0.000    0.000    0.000    0.000    0.000    0.000 
#
# Total GULP energy -133766.414732 kJ/mol
# GULP energy per Si atom -5573.600614 kJ/mol
# Density = 2.332742 g / cm^3
# Si number density = 23.380637 Si / 1000 Ang^3
#
#
#
# Elastic Constant Matrix: (Units=GPa)
#
#
# Indices 1 2 3 4 5 6 
#
# 1 55.2756 -2.4494 32.8070 0.0000 -3.0758 0.0000
# 2 -2.4494 195.1934 121.6027 0.0000 -12.2565 0.0000
# 3 32.8070 121.6027 234.0100 0.0000 -20.3644 0.0000
# 4 0.0000 0.0000 0.0000 46.3083 0.0000 2.5601
# 5 -3.0758 -12.2565 -20.3644 0.0000 18.2005 0.0000
# 6 0.0000 0.0000 0.0000 2.5601 0.0000 22.7432
#
#
#
# Elastic Compliance Matrix: (Units=1/GPa)
#
#
# Indices 1 2 3 4 5 6 
#
# 1 0.020928 0.003099 -0.004492 0.000000 0.000597 0.000000
# 2 0.003099 0.008044 -0.004540 0.000000 0.000861 0.000000
# 3 -0.004492 -0.004540 0.007678 0.000000 0.004774 0.000000
# 4 0.000000 0.000000 0.000000 0.021730 0.000000 -0.002446
# 5 0.000597 0.000861 0.004774 0.000000 0.060966 0.000000
# 6 0.000000 0.000000 0.000000 -0.002446 0.000000 0.044245
#
#
# Mechanical properties :
#
#
# Convention : Reuss Voigt Hill
#
# Bulk Modulus (GPa) = 40.34956 87.59996 63.97476
# Shear Modulus (GPa) = 27.21567 39.61832 33.41699
#
# Velocity S-wave (km/s) = 3.41548 4.12089 3.78466
# Velocity P-wave (km/s) = 5.73142 7.75825 6.82055
#
# Compressibility (1/GPa) = 0.02478342
#
# Stress axis : x y z
#
# Youngs Moduli (GPa) = 47.78300 124.31295 130.24946
#
# Poissons Ratio (x) = -0.38521 0.58512
# Poissons Ratio (y) = -0.14807 0.59128
# Poissons Ratio (z) = 0.21465 0.56433
#
# Static dielectric constant tensor:
#      x y z
#    x 2.077900 0.000000 -0.050500 
#    y 0.000000 1.444660 0.000000 
#    z -0.050500 0.000000 2.006670 
# 
# From -- ./inp_files/257120.got.cif
#   From: 2010.05.17/outbox.cif.g08.bks.cpg/sg15_129_cif.got.tgz:257120.got - 2010.06.03 18:47:42.
