data_PCOD9273477
_publ_section_title
;
Structure prediction by ZEFSAII (Michael W. Deem and Ramdas Pophale) SiO2 
 PCOD9273477
Probable space group: C 2/C
;
_chemical_formula_sum "Si O2"
_cell_formula_units_Z 40
_cell_length_a 12.079822
_cell_length_b 13.315921
_cell_length_c 11.754875
_cell_angle_alpha 90.000000
_cell_angle_beta 123.158978
_cell_angle_gamma 90.000000
_cell_volume 1582.910010
_symmetry_space_group_name_H-M "C 2/C"
_symmetry_group_IT_number 15
_symmetry_cell_setting 'monoclinic'
loop_
_space_group_symop_operation_xyz
x,y,z
-x,y,1/2-z
-x,-y,-z
x,-y,1/2+z
1/2+x,1/2+y,z
1/2-x,1/2+y,1/2-z
1/2-x,1/2-y,-z
1/2+x,1/2-y,1/2+z
loop_
_atom_site_type_symbol
_atom_site_label
_atom_site_fract_x
_atom_site_fract_y
_atom_site_fract_z
Si Si1 0.431707 0.209269 0.985062
Si Si2 0.629303 0.520698 0.878231
Si Si3 0.797907 0.347146 0.640984
Si Si4 0.657296 0.964574 0.198650
Si Si5 0.825764 0.169690 0.965198
O O1 0.296831 0.262000 0.858707
O O2 0.449671 0.105937 0.923800
O O3 0.561166 0.275405 0.043263
O O4 0.390446 0.194525 0.093021
O O5 0.500000 0.566524 0.750000
O O6 0.736993 0.514055 0.840320
O O7 0.601172 0.411640 0.913706
O O8 0.688617 0.587290 0.011433
O O9 0.870552 0.427039 0.762366
O O10 0.723232 0.895829 0.333660
O O11 0.750000 0.250000 0.000000
#
# Coordination Sequence:
#
# PCOD9273477 Si02
#       5
#     8   8   8   8   8
#     4  10  21  41  69  89 129 168 203 267 317 363
#     4  10  20  37  66  91 123 164 213 266 310 358
#     4   9  20  40  65  98 123 159 218 260 312 379
#     4  10  22  40  65  95 127 163 214 260 316 371
#     4  11  25  39  60  97 127 164 215 251 306 388
#
# _framework density 25.269915999999998
#
# number of rings (size 3 to 8) (size 9 to 14) (size 15 to 20)
#    0.000    2.000    0.000    2.400    5.600    3.200 
#    0.000   11.000    0.000    0.000    0.000    0.000 
#    0.000    0.000    0.000    0.000    0.000    0.000 
#
# Total GULP energy -112062.843867 kJ/mol
# GULP energy per Si atom -5603.142193 kJ/mol
# Density = 2.521240 g / cm^3
# Si number density = 25.269916 Si / 1000 Ang^3
#
#
#
# Elastic Constant Matrix: (Units=GPa)
#
#
# Indices 1 2 3 4 5 6 
#
# 1 77.9980 28.9907 -3.3996 0.0000 7.8357 0.0000
# 2 28.9907 131.0510 27.1159 0.0000 -6.9337 0.0000
# 3 -3.3996 27.1159 87.4173 0.0000 13.0706 0.0000
# 4 0.0000 0.0000 0.0000 36.3197 0.0000 -8.3146
# 5 7.8357 -6.9337 13.0706 0.0000 24.3508 0.0000
# 6 0.0000 0.0000 0.0000 -8.3146 0.0000 41.0150
#
#
#
# Elastic Compliance Matrix: (Units=1/GPa)
#
#
# Indices 1 2 3 4 5 6 
#
# 1 0.015428 -0.004492 0.003182 0.000000 -0.007952 0.000000
# 2 -0.004492 0.009837 -0.004198 0.000000 0.006500 0.000000
# 3 0.003182 -0.004198 0.014349 0.000000 -0.009921 0.000000
# 4 0.000000 0.000000 0.000000 0.028873 0.000000 0.005853
# 5 -0.007952 0.006500 -0.009921 0.000000 0.050801 0.000000
# 6 0.000000 0.000000 0.000000 0.005853 0.000000 0.025568
#
#
# Mechanical properties :
#
#
# Convention : Reuss Voigt Hill
#
# Bulk Modulus (GPa) = 34.96706 44.65338 39.81022
# Shear Modulus (GPa) = 30.22908 36.58772 33.40840
#
# Velocity S-wave (km/s) = 3.46243 3.80923 3.63996
# Velocity P-wave (km/s) = 5.46370 6.08735 5.78394
#
# Compressibility (1/GPa) = 0.02859834
#
# Stress axis : x y z
#
# Youngs Moduli (GPa) = 64.81700 101.65897 69.69295
#
# Poissons Ratio (x) = 0.45667 -0.22179
# Poissons Ratio (y) = 0.29117 0.29256
# Poissons Ratio (z) = -0.20627 0.42674
#
# Static dielectric constant tensor:
#      x y z
#    x 1.933160 0.000000 0.037000 
#    y 0.000000 2.061450 0.000000 
#    z 0.037000 0.000000 2.027260 
# 
# From -- ./inp_files/85981.got.cif
#   From: 2010.05.17/outbox.cif.g08.bks.cpg/sg15_43_cif.got.tgz:85981.got - 2010.06.03 18:47:42.
