data_PCOD9273324
_publ_section_title
;
Structure prediction by ZEFSAII (Michael W. Deem and Ramdas Pophale) SiO2 
 PCOD9273324
Probable space group: C 2/C
;
_chemical_formula_sum "Si O2"
_cell_formula_units_Z 60
_cell_length_a 8.026610
_cell_length_b 18.913057
_cell_length_c 18.245924
_cell_angle_alpha 90.000000
_cell_angle_beta 99.154258
_cell_angle_gamma 90.000000
_cell_volume 2734.594123
_symmetry_space_group_name_H-M "C 2/C"
_symmetry_group_IT_number 15
_symmetry_cell_setting 'monoclinic'
loop_
_space_group_symop_operation_xyz
x,y,z
-x,y,1/2-z
-x,-y,-z
x,-y,1/2+z
1/2+x,1/2+y,z
1/2-x,1/2+y,1/2-z
1/2-x,1/2-y,-z
1/2+x,1/2-y,1/2+z
loop_
_atom_site_type_symbol
_atom_site_label
_atom_site_fract_x
_atom_site_fract_y
_atom_site_fract_z
Si Si1 0.325869 0.068000 0.695341
Si Si2 0.286983 0.453623 0.703674
Si Si3 0.993661 0.070648 0.406458
Si Si4 0.705727 0.814907 0.896132
Si Si5 0.536595 0.024326 0.583853
Si Si6 0.500000 0.144861 0.250000
Si Si7 0.808508 0.330884 0.438912
Si Si8 0.058386 0.902650 0.070308
O O1 0.500000 0.090691 0.750000
O O2 0.395823 0.016089 0.636194
O O3 0.203769 0.118375 0.638901
O O4 0.213098 0.023890 0.745556
O O5 0.446379 0.420397 0.673549
O O6 0.192319 0.480069 0.623513
O O7 0.158830 0.401554 0.734793
O O8 0.096919 0.099561 0.485419
O O9 0.822690 0.116182 0.399387
O O10 0.972508 0.986450 0.417020
O O11 0.564355 0.813508 0.824824
O O12 0.813040 0.743103 0.897802
O O13 0.634740 0.816616 0.973690
O O14 0.581624 0.106809 0.586393
O O15 0.500000 0.000000 0.500000
O O16 0.615047 0.360001 0.428422
#
# Coordination Sequence:
#
# PCOD9273324 Si02
#       8
#     8   8   8   8   8   4   8   8
#     4  10  22  35  52  97 135 158 202 279 336 382
#     4  11  21  37  59  97 125 164 211 277 328 388
#     4  10  21  37  64  91 122 167 226 261 319 394
#     4  10  24  42  63  93 130 177 219 269 325 416
#     4  11  20  36  65  96 123 170 211 278 334 383
#     4  12  22  40  62  88 132 174 210 258 338 398
#     4  10  22  44  66  92 130 171 227 270 330 399
#     4  10  20  37  64  93 121 166 216 274 320 385
#
# _framework density 21.941099000000001
#
# number of rings (size 3 to 8) (size 9 to 14) (size 15 to 20)
#    0.000    1.600    3.333    2.400    3.733    2.133 
#    4.800    1.333    2.933    5.600    0.000    0.000 
#    0.000    0.000    0.000    0.000    0.000    0.000 
#
# Total GULP energy -167339.451523 kJ/mol
# GULP energy per Si atom -5577.981717 kJ/mol
# Density = 2.189116 g / cm^3
# Si number density = 21.941099 Si / 1000 Ang^3
#
#
#
# Elastic Constant Matrix: (Units=GPa)
#
#
# Indices 1 2 3 4 5 6 
#
# 1 45.0899 -4.4448 26.4692 0.0000 1.0442 0.0000
# 2 -4.4448 68.7334 2.1478 0.0000 4.5127 0.0000
# 3 26.4692 2.1478 168.2946 0.0000 28.9910 0.0000
# 4 0.0000 0.0000 0.0000 19.0029 0.0000 -1.8210
# 5 1.0442 4.5127 28.9910 0.0000 42.2823 0.0000
# 6 0.0000 0.0000 0.0000 -1.8210 0.0000 11.7305
#
#
#
# Elastic Compliance Matrix: (Units=1/GPa)
#
#
# Indices 1 2 3 4 5 6 
#
# 1 0.024806 0.001596 -0.004294 0.000000 0.002161 0.000000
# 2 0.001596 0.014756 -0.000183 0.000000 -0.001489 0.000000
# 3 -0.004294 -0.000183 0.007482 0.000000 -0.005004 0.000000
# 4 0.000000 0.000000 0.000000 0.053418 0.000000 0.008292
# 5 0.002161 -0.001489 -0.005004 0.000000 0.027187 0.000000
# 6 0.000000 0.000000 0.000000 0.008292 0.000000 0.086535
#
#
# Mechanical properties :
#
#
# Convention : Reuss Voigt Hill
#
# Bulk Modulus (GPa) = 24.22355 36.71803 30.47079
# Shear Modulus (GPa) = 21.39440 31.79952 26.59696
#
# Velocity S-wave (km/s) = 3.12602 3.81111 3.48544
# Velocity P-wave (km/s) = 4.90852 6.01143 5.48775
#
# Compressibility (1/GPa) = 0.04128214
#
# Stress axis : x y z
#
# Youngs Moduli (GPa) = 40.31276 67.77061 133.65878
#
# Poissons Ratio (x) = -0.10819 0.57395
# Poissons Ratio (y) = -0.06436 0.02445
# Poissons Ratio (z) = 0.17311 0.01240
#
# Static dielectric constant tensor:
#      x y z
#    x 1.955920 0.000000 0.049490 
#    y 0.000000 1.795600 0.000000 
#    z 0.049490 0.000000 1.867310 
# 
# From -- ./inp_files/192191.got.cif
#   From: 2010.05.17/outbox.cif.g08.bks.cpg/sg15_97_cif.got.tgz:192191.got - 2010.06.03 18:47:42.
