data_PCOD9273095
_publ_section_title
;
Structure prediction by ZEFSAII (Michael W. Deem and Ramdas Pophale) SiO2 
 PCOD9273095
Probable space group: C 2/C
;
_chemical_formula_sum "Si O2"
_cell_formula_units_Z 28
_cell_length_a 14.559315
_cell_length_b 12.037504
_cell_length_c 7.352262
_cell_angle_alpha 90.000000
_cell_angle_beta 122.169473
_cell_angle_gamma 90.000000
_cell_volume 1090.720570
_symmetry_space_group_name_H-M "C 2/C"
_symmetry_group_IT_number 15
_symmetry_cell_setting 'monoclinic'
loop_
_space_group_symop_operation_xyz
x,y,z
-x,y,1/2-z
-x,-y,-z
x,-y,1/2+z
1/2+x,1/2+y,z
1/2-x,1/2+y,1/2-z
1/2-x,1/2-y,-z
1/2+x,1/2-y,1/2+z
loop_
_atom_site_type_symbol
_atom_site_label
_atom_site_fract_x
_atom_site_fract_y
_atom_site_fract_z
Si Si1 0.000000 0.169445 0.750000
Si Si2 0.679178 0.099318 0.955380
Si Si3 0.900130 0.820924 0.507927
Si Si4 0.599303 0.121484 0.484824
O O1 0.059668 0.122031 0.636411
O O2 0.096125 0.247948 0.937398
O O3 0.637805 0.190697 0.058894
O O4 0.596858 0.112823 0.698694
O O5 0.684958 0.973111 0.026400
O O6 0.795296 0.130243 0.995488
O O7 0.000000 0.826925 0.750000
O O8 0.500000 0.086704 0.250000
#
# Coordination Sequence:
#
# PCOD9273095 Si02
#       4
#     4   8   8   8
#     4  10  22  38  70  84 126 152 212 246 306 340
#     4  11  22  37  65  90 126 156 209 244 315 347
#     4  11  22  42  59  94 125 162 194 262 296 370
#     4  10  20  37  62  92 116 159 201 258 287 362
#
# _framework density 25.671102999999999
#
# number of rings (size 3 to 8) (size 9 to 14) (size 15 to 20)
#    0.857    0.571    2.857    3.429    0.000    1.143 
#    5.143    1.429    0.000    0.000    0.000    0.000 
#    0.000    0.000    0.000    0.000    0.000    0.000 
#
# Total GULP energy -78046.268214 kJ/mol
# GULP energy per Si atom -5574.733444 kJ/mol
# Density = 2.561267 g / cm^3
# Si number density = 25.671103 Si / 1000 Ang^3
#
#
#
# Elastic Constant Matrix: (Units=GPa)
#
#
# Indices 1 2 3 4 5 6 
#
# 1 159.8756 23.6080 32.4935 0.0000 -0.4186 0.0000
# 2 23.6080 34.9279 -8.1003 0.0000 13.1355 0.0000
# 3 32.4935 -8.1003 69.9957 0.0000 -8.3854 0.0000
# 4 0.0000 0.0000 0.0000 5.8611 0.0000 -6.8651
# 5 -0.4186 13.1355 -8.3854 0.0000 37.9709 0.0000
# 6 0.0000 0.0000 0.0000 -6.8651 0.0000 30.2165
#
#
#
# Elastic Compliance Matrix: (Units=1/GPa)
#
#
# Indices 1 2 3 4 5 6 
#
# 1 0.008228 -0.007196 -0.004462 0.000000 0.001595 0.000000
# 2 -0.007196 0.039641 0.006446 0.000000 -0.012369 0.000000
# 3 -0.004462 0.006446 0.017288 0.000000 0.001539 0.000000
# 4 0.000000 0.000000 0.000000 0.232481 0.000000 0.052819
# 5 0.001595 -0.012369 0.001539 0.000000 0.030972 0.000000
# 6 0.000000 0.000000 0.000000 0.052819 0.000000 0.045095
#
#
# Mechanical properties :
#
#
# Convention : Reuss Voigt Hill
#
# Bulk Modulus (GPa) = 18.26993 40.08907 29.17950
# Shear Modulus (GPa) = 12.42626 29.26290 20.84458
#
# Velocity S-wave (km/s) = 2.20251 3.37993 2.85263
# Velocity P-wave (km/s) = 3.68788 5.55718 4.71607
#
# Compressibility (1/GPa) = 0.05473475
#
# Stress axis : x y z
#
# Youngs Moduli (GPa) = 121.52995 25.22639 57.84341
#
# Poissons Ratio (x) = 0.18153 0.25807
# Poissons Ratio (y) = 0.87455 -0.37287
# Poissons Ratio (z) = 0.54221 -0.16262
#
# Static dielectric constant tensor:
#      x y z
#    x 2.034920 0.000000 0.014180 
#    y 0.000000 2.177280 0.000000 
#    z 0.014180 0.000000 2.001780 
# 
# From -- ./inp_files/37283.got.cif
#   From: 2010.05.17/outbox.cif.g08.bks.cpg/sg15_19_cif.got.tgz:37283.got - 2010.06.03 18:47:42.
