data_PCOD9273408
_publ_section_title
;
Structure prediction by ZEFSAII (Michael W. Deem and Ramdas Pophale) SiO2 
 PCOD9273408
Probable space group: C 2/C
;
_chemical_formula_sum "Si O2"
_cell_formula_units_Z 56
_cell_length_a 8.874942
_cell_length_b 24.491644
_cell_length_c 19.113558
_cell_angle_alpha 90.000000
_cell_angle_beta 141.016099
_cell_angle_gamma 90.000000
_cell_volume 2613.641808
_symmetry_space_group_name_H-M "C 2/C"
_symmetry_group_IT_number 15
_symmetry_cell_setting 'monoclinic'
loop_
_space_group_symop_operation_xyz
x,y,z
-x,y,1/2-z
-x,-y,-z
x,-y,1/2+z
1/2+x,1/2+y,z
1/2-x,1/2+y,1/2-z
1/2-x,1/2-y,-z
1/2+x,1/2-y,1/2+z
loop_
_atom_site_type_symbol
_atom_site_label
_atom_site_fract_x
_atom_site_fract_y
_atom_site_fract_z
Si Si1 0.877229 0.966485 0.317679
Si Si2 0.555917 0.667070 0.193016
Si Si3 0.715219 0.781989 0.270132
Si Si4 0.639237 0.046771 0.589766
Si Si5 0.402836 0.157082 0.552360
Si Si6 0.908720 0.127924 0.924574
Si Si7 0.279139 0.574793 0.354246
O O1 0.913755 0.019827 0.378323
O O2 0.699750 0.975619 0.189060
O O3 0.786548 0.917064 0.331872
O O4 0.118454 0.945990 0.367048
O O5 0.500000 0.645402 0.250000
O O6 0.737680 0.717769 0.264763
O O7 0.657477 0.620824 0.179773
O O8 0.298510 0.686512 0.067972
O O9 0.500000 0.784969 0.250000
O O10 0.620866 0.808502 0.163740
O O11 0.922205 0.817600 0.381883
O O12 0.500334 0.103666 0.548295
O O13 0.500000 0.000000 0.500000
O O14 0.253701 0.138883 0.566681
O O15 0.141997 0.099330 0.042417
O O16 0.000000 0.562098 0.250000
#
# Coordination Sequence:
#
# PCOD9273408 Si02
#       7
#     8   8   8   8   8   8   8
#     4  11  25  40  60  91 129 166 214 253 321 383
#     4  10  22  39  61  92 123 160 208 256 316 374
#     4   9  18  37  65  90 118 156 207 265 310 368
#     4  11  24  38  59  91 129 163 203 257 316 376
#     4  10  20  37  65  91 122 156 207 259 313 374
#     4  10  21  41  63  92 119 162 215 259 311 377
#     4  11  26  40  62  88 128 170 215 261 316 378
#
# _framework density 21.426043
#
# number of rings (size 3 to 8) (size 9 to 14) (size 15 to 20)
#    0.000    1.714    1.429    2.571    8.000    1.143 
#    0.000    2.143    0.000    0.000    0.000    0.000 
#    0.000    0.000    0.000    0.000    0.000    0.000 
#
# Total GULP energy -156312.587057 kJ/mol
# GULP energy per Si atom -5582.592395 kJ/mol
# Density = 2.137728 g / cm^3
# Si number density = 21.426043 Si / 1000 Ang^3
#
#
#
# Elastic Constant Matrix: (Units=GPa)
#
#
# Indices 1 2 3 4 5 6 
#
# 1 28.1108 9.0595 26.9585 -0.0001 -9.6444 -0.0002
# 2 9.0595 96.6586 11.2020 0.0000 -12.9164 0.0000
# 3 26.9585 11.2020 88.0379 0.0001 -23.5537 -0.0002
# 4 -0.0001 0.0000 0.0001 33.7031 0.0000 -3.1927
# 5 -9.6444 -12.9164 -23.5537 0.0000 27.7988 -0.0001
# 6 -0.0002 0.0000 -0.0002 -3.1927 -0.0001 23.4064
#
#
#
# Elastic Compliance Matrix: (Units=1/GPa)
#
#
# Indices 1 2 3 4 5 6 
#
# 1 0.051662 -0.002569 -0.014246 0.000000 0.004659 0.000000
# 2 -0.002569 0.011158 0.000666 0.000000 0.004858 0.000000
# 3 -0.014246 0.000666 0.018617 0.000000 0.011141 0.000000
# 4 0.000000 0.000000 0.000000 0.030059 0.000000 0.004100
# 5 0.004659 0.004858 0.011141 0.000000 0.049287 0.000000
# 6 0.000000 0.000000 0.000000 0.004100 0.000000 0.043283
#
#
# Mechanical properties :
#
#
# Convention : Reuss Voigt Hill
#
# Bulk Modulus (GPa) = 20.34962 34.13859 27.24410
# Shear Modulus (GPa) = 19.78289 28.02079 23.90184
#
# Velocity S-wave (km/s) = 3.04190 3.62026 3.34361
# Velocity P-wave (km/s) = 4.67501 5.78298 5.25826
#
# Compressibility (1/GPa) = 0.04914097
#
# Stress axis : x y z
#
# Youngs Moduli (GPa) = 19.35644 89.61859 53.71391
#
# Poissons Ratio (x) = 0.23019 0.76523
# Poissons Ratio (y) = 0.04972 -0.03580
# Poissons Ratio (z) = 0.27576 -0.05973
#
# Static dielectric constant tensor:
#      x y z
#    x 1.771410 0.000000 0.022530 
#    y 0.000000 1.782500 0.000000 
#    z 0.022530 0.000000 1.848260 
# 
# From -- ./inp_files/193321.got.cif
#   From: 2010.05.17/outbox.cif.g08.bks.cpg/sg15_97_cif.got.tgz:193321.got - 2010.06.03 18:47:42.
