data_PCOD9273768
_publ_section_title
;
Structure prediction by ZEFSAII (Michael W. Deem and Ramdas Pophale) SiO2 
 PCOD9273768
Probable space group: C 2/C
;
_chemical_formula_sum "Si O2"
_cell_formula_units_Z 60
_cell_length_a 24.459738
_cell_length_b 22.991047
_cell_length_c 14.079617
_cell_angle_alpha 90.000000
_cell_angle_beta 22.498692
_cell_angle_gamma 90.000000
_cell_volume 3029.822004
_symmetry_space_group_name_H-M "C 2/C"
_symmetry_group_IT_number 15
_symmetry_cell_setting 'monoclinic'
loop_
_space_group_symop_operation_xyz
x,y,z
-x,y,1/2-z
-x,-y,-z
x,-y,1/2+z
1/2+x,1/2+y,z
1/2-x,1/2+y,1/2-z
1/2-x,1/2-y,-z
1/2+x,1/2-y,1/2+z
loop_
_atom_site_type_symbol
_atom_site_label
_atom_site_fract_x
_atom_site_fract_y
_atom_site_fract_z
Si Si1 0.364714 0.027138 0.159946
Si Si2 0.710443 0.229220 0.432253
Si Si3 0.014244 0.242102 0.424379
Si Si4 0.866443 0.151923 0.529851
Si Si5 0.399898 0.532042 0.781432
Si Si6 0.804270 0.965126 0.220664
Si Si7 0.180707 0.336606 0.789692
Si Si8 0.000000 0.134227 0.750000
O O1 0.221151 0.012676 0.450232
O O2 0.369854 0.097404 0.144674
O O3 0.321466 0.004014 0.124038
O O4 0.500000 0.000000 0.000000
O O5 0.873155 0.213363 0.187319
O O6 0.613694 0.228773 0.681658
O O7 0.714101 0.297743 0.398847
O O8 0.655355 0.188621 0.436521
O O9 0.927036 0.189852 0.518940
O O10 0.909576 0.291851 0.629332
O O11 0.786238 0.097029 0.699263
O O12 0.000000 0.133288 0.250000
O O13 0.535808 0.489350 0.559050
O O14 0.317427 0.538380 0.813600
O O15 0.469220 0.591561 0.709863
O O16 0.350756 0.332837 0.501022
#
# Coordination Sequence:
#
# PCOD9273768 Si02
#       8
#     8   8   8   8   8   8   8   4
#     4  11  24  41  59  87 125 160 200 255 310 360
#     4   9  19  36  58  85 119 146 192 252 298 351
#     4   9  19  36  56  90 115 148 193 251 300 347
#     4   9  18  31  54  83 117 146 185 240 291 342
#     4  10  21  40  59  86 119 154 206 250 293 363
#     4  11  21  37  63  88 114 159 201 244 303 369
#     4  10  20  38  59  80 117 161 194 240 303 360
#     4  10  20  40  60  80 122 160 196 254 282 360
#
# _framework density 19.803144
#
# number of rings (size 3 to 8) (size 9 to 14) (size 15 to 20)
#    0.000    2.133    2.667    2.000    3.733    0.533 
#    7.200    0.667    2.933    0.000    0.000    0.000 
#    0.000    0.000    0.000    0.000    0.000    0.000 
#
# Total GULP energy -167053.259458 kJ/mol
# GULP energy per Si atom -5568.441982 kJ/mol
# Density = 1.975807 g / cm^3
# Si number density = 19.803144 Si / 1000 Ang^3
#
#
#
# Elastic Constant Matrix: (Units=GPa)
#
#
# Indices 1 2 3 4 5 6 
#
# 1 80.1410 17.5350 10.8105 0.0023 -12.5485 -0.0026
# 2 17.5350 62.7370 12.6674 0.0019 -7.9413 -0.0005
# 3 10.8105 12.6674 49.9558 0.0000 -18.2516 -0.0018
# 4 0.0023 0.0019 0.0000 23.1822 -0.0012 13.3731
# 5 -12.5485 -7.9413 -18.2516 -0.0012 33.7980 0.0005
# 6 -0.0026 -0.0005 -0.0018 13.3731 0.0005 -72.0020
#
#
#
# Elastic Compliance Matrix: (Units=1/GPa)
#
#
# Indices 1 2 3 4 5 6 
#
# 1 0.013912 -0.003234 -0.000724 -0.000001 0.004014 -0.000001
# 2 -0.003234 0.017666 -0.003366 -0.000001 0.001132 0.000000
# 3 -0.000724 -0.003366 0.025714 0.000001 0.012826 0.000000
# 4 -0.000001 -0.000001 0.000001 0.038962 0.000001 0.007236
# 5 0.004014 0.001132 0.012826 0.000001 0.038271 0.000000
# 6 -0.000001 0.000000 0.000000 0.007236 0.000000 -0.012544
#
#
# Mechanical properties :
#
#
# Convention : Reuss Voigt Hill
#
# Bulk Modulus (GPa) = 23.44969 30.53996 26.99482
# Shear Modulus (GPa) = 33.14697 7.11705 20.13201
#
# Velocity S-wave (km/s) = 4.09568 1.89781 3.19189
# Velocity P-wave (km/s) = 5.85091 4.50084 5.21971
#
# Compressibility (1/GPa) = 0.04264449
#
# Stress axis : x y z
#
# Youngs Moduli (GPa) = 71.88125 56.60435 38.88921
#
# Poissons Ratio (x) = 0.18306 0.02815
# Poissons Ratio (y) = 0.23247 0.13091
# Poissons Ratio (z) = 0.05203 0.19054
#
# Static dielectric constant tensor:
#      x y z
#    x 1.783830 0.000000 -0.008400 
#    y 0.000000 1.699390 0.000000 
#    z -0.008400 0.000000 1.712850 
# 
# From -- ./inp_files/179274.got.cif
#   From: 2010.05.17/outbox.cif.g08.bks.cpg/sg15_90_cif.got.tgz:179274.got - 2010.06.03 18:47:42.
