data_PCOD9273480
_publ_section_title
;
Structure prediction by ZEFSAII (Michael W. Deem and Ramdas Pophale) SiO2 
 PCOD9273480
Probable space group: C 2/C
;
_chemical_formula_sum "Si O2"
_cell_formula_units_Z 48
_cell_length_a 7.045608
_cell_length_b 16.228496
_cell_length_c 20.050289
_cell_angle_alpha 90.000000
_cell_angle_beta 65.271508
_cell_angle_gamma 90.000000
_cell_volume 2082.316923
_symmetry_space_group_name_H-M "C 2/C"
_symmetry_group_IT_number 15
_symmetry_cell_setting 'monoclinic'
loop_
_space_group_symop_operation_xyz
x,y,z
-x,y,1/2-z
-x,-y,-z
x,-y,1/2+z
1/2+x,1/2+y,z
1/2-x,1/2+y,1/2-z
1/2-x,1/2-y,-z
1/2+x,1/2-y,1/2+z
loop_
_atom_site_type_symbol
_atom_site_label
_atom_site_fract_x
_atom_site_fract_y
_atom_site_fract_z
Si Si1 0.398475 0.600067 0.691610
Si Si2 0.677905 0.573227 0.279718
Si Si3 0.296814 0.311875 0.551804
Si Si4 0.835238 0.860804 0.927714
Si Si5 0.617664 0.216638 0.332393
Si Si6 0.172116 0.968986 0.027633
O O1 0.500000 0.608583 0.750000
O O2 0.247793 0.519578 0.716264
O O3 0.306172 0.690189 0.690621
O O4 0.565813 0.574802 0.608287
O O5 0.500000 0.561098 0.250000
O O6 0.549147 0.604974 0.361748
O O7 0.815666 0.645204 0.228528
O O8 0.250000 0.250000 0.500000
O O9 0.544557 0.311521 0.531817
O O10 0.221640 0.399377 0.532739
O O11 0.133600 0.282493 0.631309
O O12 0.710550 0.811897 0.890214
O O13 0.720503 0.944819 0.967425
O O14 0.000000 0.000000 0.000000
#
# Coordination Sequence:
#
# PCOD9273480 Si02
#       6
#     8   8   8   8   8   8
#     4  10  20  37  66  92 126 172 212 267 335 382
#     4   8  18  38  61  86 120 163 205 258 322 370
#     4  11  22  37  62  94 124 159 217 258 318 390
#     4   9  21  40  62  83 128 164 202 269 319 374
#     4  11  22  37  68  94 122 170 218 262 322 387
#     4   9  19  41  64  89 129 174 208 265 331 386
#
# _framework density 23.051245000000002
#
# number of rings (size 3 to 8) (size 9 to 14) (size 15 to 20)
#    0.000    2.333    1.667    1.000    2.333    1.333 
#    0.000    0.000   36.667    0.000    0.000    0.000 
#    0.000    0.000    0.000    0.000    0.000    0.000 
#
# Total GULP energy -133690.744616 kJ/mol
# GULP energy per Si atom -5570.447692 kJ/mol
# Density = 2.299878 g / cm^3
# Si number density = 23.051245 Si / 1000 Ang^3
#
#
#
# Elastic Constant Matrix: (Units=GPa)
#
#
# Indices 1 2 3 4 5 6 
#
# 1 73.4910 28.2104 4.6961 0.0000 18.8850 0.0000
# 2 28.2104 165.5581 12.2763 0.0000 5.7358 0.0000
# 3 4.6961 12.2763 67.9432 0.0000 15.4154 0.0000
# 4 0.0000 0.0000 0.0000 44.6552 0.0000 6.7327
# 5 18.8850 5.7358 15.4154 0.0000 38.9026 0.0000
# 6 0.0000 0.0000 0.0000 6.7327 0.0000 30.2637
#
#
#
# Elastic Compliance Matrix: (Units=1/GPa)
#
#
# Indices 1 2 3 4 5 6 
#
# 1 0.016641 -0.002640 0.001177 0.000000 -0.008156 0.000000
# 2 -0.002640 0.006550 -0.001179 0.000000 0.000783 0.000000
# 3 0.001177 -0.001179 0.016416 0.000000 -0.006903 0.000000
# 4 0.000000 0.000000 0.000000 0.023171 0.000000 -0.005155
# 5 -0.008156 0.000783 -0.006903 0.000000 0.032284 0.000000
# 6 0.000000 0.000000 0.000000 -0.005155 0.000000 0.034190
#
#
# Mechanical properties :
#
#
# Convention : Reuss Voigt Hill
#
# Bulk Modulus (GPa) = 29.13432 44.15086 36.64259
# Shear Modulus (GPa) = 34.25198 40.21826 37.23512
#
# Velocity S-wave (km/s) = 3.85893 4.18153 4.02346
# Velocity P-wave (km/s) = 5.70276 6.51986 6.12495
#
# Compressibility (1/GPa) = 0.03432378
#
# Stress axis : x y z
#
# Youngs Moduli (GPa) = 60.09208 152.66360 60.91664
#
# Poissons Ratio (x) = 0.40308 -0.07171
# Poissons Ratio (y) = 0.15866 0.07180
# Poissons Ratio (z) = -0.07074 0.17995
#
# Static dielectric constant tensor:
#      x y z
#    x 2.212260 0.000000 0.320330 
#    y 0.000000 1.991330 0.000000 
#    z 0.320330 0.000000 2.252420 
# 
# From -- ./inp_files/263877.got.cif
#   From: 2010.05.17/outbox.cif.g08.bks.cpg/sg15_132_cif.got.tgz:263877.got - 2010.06.03 18:47:42.
