data_PCOD9273568
_publ_section_title
;
Structure prediction by ZEFSAII (Michael W. Deem and Ramdas Pophale) SiO2 
 PCOD9273568
Probable space group: C 2/C
;
_chemical_formula_sum "Si O2"
_cell_formula_units_Z 56
_cell_length_a 7.601021
_cell_length_b 27.568021
_cell_length_c 11.712282
_cell_angle_alpha 90.000000
_cell_angle_beta 101.424895
_cell_angle_gamma 90.000000
_cell_volume 2405.620879
_symmetry_space_group_name_H-M "C 2/C"
_symmetry_group_IT_number 15
_symmetry_cell_setting 'monoclinic'
loop_
_space_group_symop_operation_xyz
x,y,z
-x,y,1/2-z
-x,-y,-z
x,-y,1/2+z
1/2+x,1/2+y,z
1/2-x,1/2+y,1/2-z
1/2-x,1/2-y,-z
1/2+x,1/2-y,1/2+z
loop_
_atom_site_type_symbol
_atom_site_label
_atom_site_fract_x
_atom_site_fract_y
_atom_site_fract_z
Si Si1 0.476092 0.677426 0.866063
Si Si2 0.623109 0.960872 0.408358
Si Si3 0.874959 0.663849 0.973496
Si Si4 0.000000 0.157036 0.250000
Si Si5 0.500000 0.880593 0.250000
Si Si6 0.809480 0.726560 0.387113
Si Si7 0.793021 0.441584 0.516247
Si Si8 0.071510 0.903691 0.976002
O O1 0.500000 0.649935 0.750000
O O2 0.675403 0.685972 0.941070
O O3 0.366282 0.725742 0.825001
O O4 0.377722 0.644234 0.945334
O O5 0.642811 0.920532 0.313448
O O6 0.419514 0.959575 0.428612
O O7 0.759760 0.938689 0.520519
O O8 0.676437 0.015749 0.388643
O O9 0.937359 0.650553 0.851287
O O10 0.863189 0.612973 0.039509
O O11 0.015124 0.696472 0.057158
O O12 0.835487 0.192835 0.194741
O O13 0.982146 0.120112 0.353435
O O14 0.750000 0.750000 0.500000
O O15 0.580953 0.433520 0.475592
#
# Coordination Sequence:
#
# PCOD9273568 Si02
#       8
#     8   8   8   4   4   8   8   8
#     4  11  25  42  71 102 131 178 231 284 337 411
#     4  10  20  42  66 100 136 176 226 278 344 403
#     4  10  23  43  66  97 137 175 224 284 344 404
#     4  12  26  45  68 102 132 188 230 267 358 414
#     4  10  20  37  72  98 126 178 216 273 342 406
#     4  12  27  44  68  94 137 180 225 282 341 414
#     4   9  21  40  67  94 136 176 223 284 332 406
#     4  11  23  46  66  99 141 180 225 282 340 405
#
# _framework density 23.278813
#
# number of rings (size 3 to 8) (size 9 to 14) (size 15 to 20)
#    0.000    1.429    1.429    3.429    4.000    2.286 
#   10.286    1.429    3.143    0.000    0.000    0.000 
#    0.000    0.000    0.000    0.000    0.000    0.000 
#
# Total GULP energy -156177.947824 kJ/mol
# GULP energy per Si atom -5577.783851 kJ/mol
# Density = 2.322583 g / cm^3
# Si number density = 23.278813 Si / 1000 Ang^3
#
#
#
# Elastic Constant Matrix: (Units=GPa)
#
#
# Indices 1 2 3 4 5 6 
#
# 1 100.9548 41.7138 15.6545 0.0000 20.3796 0.0000
# 2 41.7138 96.2560 26.5074 0.0000 14.5320 0.0000
# 3 15.6545 26.5074 72.2339 0.0000 6.4040 0.0000
# 4 0.0000 0.0000 0.0000 26.5701 0.0000 4.0708
# 5 20.3796 14.5320 6.4040 0.0000 37.8546 0.0000
# 6 0.0000 0.0000 0.0000 4.0708 0.0000 38.1698
#
#
#
# Elastic Compliance Matrix: (Units=1/GPa)
#
#
# Indices 1 2 3 4 5 6 
#
# 1 0.012961 -0.004673 -0.000644 0.000000 -0.005075 0.000000
# 2 -0.004673 0.013799 -0.003862 0.000000 -0.002128 0.000000
# 3 -0.000644 -0.003862 0.015471 0.000000 -0.000788 0.000000
# 4 0.000000 0.000000 0.000000 0.038262 0.000000 -0.004081
# 5 -0.005075 -0.002128 -0.000788 0.000000 0.030099 0.000000
# 6 0.000000 0.000000 0.000000 -0.004081 0.000000 0.026634
#
#
# Mechanical properties :
#
#
# Convention : Reuss Voigt Hill
#
# Bulk Modulus (GPa) = 41.89142 48.57735 45.23438
# Shear Modulus (GPa) = 30.57336 32.89015 31.73176
#
# Velocity S-wave (km/s) = 3.62796 3.76291 3.69605
# Velocity P-wave (km/s) = 5.96523 6.30811 6.13906
#
# Compressibility (1/GPa) = 0.02387124
#
# Stress axis : x y z
#
# Youngs Moduli (GPa) = 77.15680 72.46874 64.63840
#
# Poissons Ratio (x) = 0.33866 0.04163
# Poissons Ratio (y) = 0.36057 0.24966
# Poissons Ratio (z) = 0.04969 0.27990
#
# Static dielectric constant tensor:
#      x y z
#    x 1.961800 0.000000 -0.004340 
#    y 0.000000 1.892090 0.000000 
#    z -0.004340 0.000000 1.973480 
# 
# From -- ./inp_files/81457.got.cif
#   From: 2010.05.17/outbox.cif.g08.bks.cpg/sg15_41_cif.got.tgz:81457.got - 2010.06.03 18:47:42.
