data_PCOD9273961
_publ_section_title
;
Structure prediction by ZEFSAII (Michael W. Deem and Ramdas Pophale) SiO2 
 PCOD9273961
Probable space group: C 2/C
;
_chemical_formula_sum "Si O2"
_cell_formula_units_Z 52
_cell_length_a 7.589987
_cell_length_b 14.261701
_cell_length_c 27.190511
_cell_angle_alpha 90.000000
_cell_angle_beta 39.450197
_cell_angle_gamma 90.000000
_cell_volume 1870.173521
_symmetry_space_group_name_H-M "C 2/C"
_symmetry_group_IT_number 15
_symmetry_cell_setting 'monoclinic'
loop_
_space_group_symop_operation_xyz
x,y,z
-x,y,1/2-z
-x,-y,-z
x,-y,1/2+z
1/2+x,1/2+y,z
1/2-x,1/2+y,1/2-z
1/2-x,1/2-y,-z
1/2+x,1/2-y,1/2+z
loop_
_atom_site_type_symbol
_atom_site_label
_atom_site_fract_x
_atom_site_fract_y
_atom_site_fract_z
Si Si1 0.000000 0.114274 0.750000
Si Si2 0.926982 0.132509 0.947712
Si Si3 0.934178 0.622004 0.913640
Si Si4 0.763245 0.162500 0.231043
Si Si5 0.219393 0.859862 0.290628
Si Si6 0.072406 0.090026 0.074796
Si Si7 0.440005 0.901224 0.889753
O O1 0.262814 0.161546 0.664148
O O2 0.120072 0.065598 0.771918
O O3 0.191501 0.146607 0.927093
O O4 0.014678 0.174512 0.876753
O O5 0.905834 0.022600 0.934814
O O6 0.656342 0.150716 0.039123
O O7 0.959767 0.509836 0.901058
O O8 0.834478 0.637017 0.990946
O O9 0.500000 0.153321 0.250000
O O10 0.798141 0.269601 0.241564
O O11 0.009577 0.124819 0.143170
O O12 0.693641 0.120289 0.299565
O O13 0.500000 0.902230 0.250000
O O14 0.819721 0.111316 0.091722
#
# Coordination Sequence:
#
# PCOD9273961 Si02
#       7
#     4   8   8   8   8   8   8
#     4  12  24  40  64  94 126 164 210 264 304 376
#     4   9  18  37  65  95 123 162 206 258 313 371
#     4   9  18  38  63  97 123 158 210 261 312 373
#     4  10  20  38  60  90 127 170 208 256 310 375
#     4  12  25  41  60  90 129 167 213 254 313 367
#     4   8  17  35  66  93 125 165 204 255 321 369
#     4   8  17  35  64  95 125 158 207 256 314 375
#
# _framework density 27.804907
#
# number of rings (size 3 to 8) (size 9 to 14) (size 15 to 20)
#    0.000    2.462    2.308    1.846    2.154    1.231 
#    1.385    6.923    0.000    0.000    0.000    0.000 
#    0.000    0.000    0.000    0.000    0.000    0.000 
#
# Total GULP energy -145168.655960 kJ/mol
# GULP energy per Si atom -5583.409845 kJ/mol
# Density = 2.774162 g / cm^3
# Si number density = 27.804907 Si / 1000 Ang^3
#
#
#
# Elastic Constant Matrix: (Units=GPa)
#
#
# Indices 1 2 3 4 5 6 
#
# 1 108.1597 0.6062 78.4832 0.0005 14.6441 0.0030
# 2 0.6062 52.5216 59.1537 -0.0016 8.2011 0.0001
# 3 78.4832 59.1537 311.6871 0.0007 42.2702 -0.0012
# 4 0.0005 -0.0016 0.0007 45.3372 -0.0006 8.7720
# 5 14.6441 8.2011 42.2702 -0.0006 55.9719 -0.0028
# 6 0.0030 0.0001 -0.0012 8.7720 -0.0028 12.2114
#
#
#
# Elastic Compliance Matrix: (Units=1/GPa)
#
#
# Indices 1 2 3 4 5 6 
#
# 1 0.012030 0.004167 -0.003688 0.000001 -0.000973 -0.000004
# 2 0.004167 0.025660 -0.005862 0.000002 -0.000423 -0.000003
# 3 -0.003688 -0.005862 0.005573 -0.000001 -0.002385 0.000001
# 4 0.000001 0.000002 -0.000001 0.025617 -0.000001 -0.018402
# 5 -0.000973 -0.000423 -0.002385 -0.000001 0.019984 0.000005
# 6 -0.000004 -0.000003 0.000001 -0.018402 0.000005 0.095110
#
#
# Mechanical properties :
#
#
# Convention : Reuss Voigt Hill
#
# Bulk Modulus (GPa) = 30.77224 83.20605 56.98915
# Shear Modulus (GPa) = 24.32244 44.97911 34.65078
#
# Velocity S-wave (km/s) = 2.96083 4.02639 3.53400
# Velocity P-wave (km/s) = 4.77283 7.18371 6.09859
#
# Compressibility (1/GPa) = 0.03249682
#
# Stress axis : x y z
#
# Youngs Moduli (GPa) = 83.12485 38.97175 179.43981
#
# Poissons Ratio (x) = -0.16239 0.66179
# Poissons Ratio (y) = -0.34637 1.05181
# Poissons Ratio (z) = 0.30657 0.22844
#
# Static dielectric constant tensor:
#      x y z
#    x 2.335290 -0.000010 -0.059250 
#    y -0.000010 2.282910 0.000010 
#    z -0.059250 0.000010 2.191180 
# 
# From -- ./inp_files/289529.got.cif
#   From: 2010.05.17/outbox.cif.g08.bks.cpg/sg15_145_cif.got.tgz:289529.got - 2010.06.03 18:47:42.
