data_PCOD9273694
_publ_section_title
;
Structure prediction by ZEFSAII (Michael W. Deem and Ramdas Pophale) SiO2 
 PCOD9273694
Probable space group: C 2/C
;
_chemical_formula_sum "Si O2"
_cell_formula_units_Z 64
_cell_length_a 20.780666
_cell_length_b 15.232407
_cell_length_c 12.110179
_cell_angle_alpha 90.000000
_cell_angle_beta 70.058059
_cell_angle_gamma 90.000000
_cell_volume 3603.498120
_symmetry_space_group_name_H-M "C 2/C"
_symmetry_group_IT_number 15
_symmetry_cell_setting 'monoclinic'
loop_
_space_group_symop_operation_xyz
x,y,z
-x,y,1/2-z
-x,-y,-z
x,-y,1/2+z
1/2+x,1/2+y,z
1/2-x,1/2+y,1/2-z
1/2-x,1/2-y,-z
1/2+x,1/2-y,1/2+z
loop_
_atom_site_type_symbol
_atom_site_label
_atom_site_fract_x
_atom_site_fract_y
_atom_site_fract_z
Si Si1 0.893666 0.435025 0.772161
Si Si2 0.782999 0.260650 0.360179
Si Si3 0.740667 0.591387 0.279451
Si Si4 0.188093 0.179433 0.524754
Si Si5 0.260839 0.394741 0.291879
Si Si6 0.421247 0.135247 0.822897
Si Si7 0.883222 0.659237 0.511539
Si Si8 0.977274 0.399108 0.518972
O O1 0.821203 0.413585 0.759074
O O2 0.906718 0.539453 0.776794
O O3 0.947862 0.390052 0.659061
O O4 0.893050 0.396859 0.894990
O O5 0.750000 0.250000 0.500000
O O6 0.778105 0.170454 0.292763
O O7 0.740951 0.333209 0.314381
O O8 0.860589 0.298256 0.326118
O O9 0.706118 0.611881 0.417727
O O10 0.724648 0.495303 0.243228
O O11 0.250000 0.250000 0.500000
O O12 0.186233 0.137155 0.645812
O O13 0.127735 0.240917 0.518844
O O14 0.184169 0.379122 0.388319
O O15 0.500000 0.160094 0.750000
O O16 0.423053 0.121152 0.954991
O O17 0.952478 0.652872 0.539504
O O18 0.000000 0.500000 0.500000
#
# Coordination Sequence:
#
# PCOD9273694 Si02
#       8
#     8   8   8   8   8   8   8   8
#     4  12  21  35  58  88 121 158 203 243 314 387
#     4  12  26  39  58  95 130 162 210 262 313 376
#     4  12  23  37  62  86 123 163 200 255 315 364
#     4  10  20  38  58  83 113 161 208 248 300 365
#     4  11  22  39  60  86 122 159 205 262 310 368
#     4  12  24  39  57  88 130 169 196 244 320 391
#     4  11  20  38  58  82 122 161 207 245 300 381
#     4  12  22  33  53  87 123 164 195 238 310 389
#
# _framework density 17.760518999999999
#
# number of rings (size 3 to 8) (size 9 to 14) (size 15 to 20)
#    0.000    0.500    8.750    2.625    3.500    0.000 
#    0.000    0.000    0.000    0.000    0.000    7.000 
#    0.000    0.000    0.000    0.000    0.000    0.000 
#
# Total GULP energy -178647.111342 kJ/mol
# GULP energy per Si atom -5582.722229 kJ/mol
# Density = 1.772010 g / cm^3
# Si number density = 17.760519 Si / 1000 Ang^3
#
#
#
# Elastic Constant Matrix: (Units=GPa)
#
#
# Indices 1 2 3 4 5 6 
#
# 1 91.9913 53.5166 24.6862 0.0000 13.1700 0.0000
# 2 53.5166 117.1040 33.8030 0.0000 15.3397 0.0000
# 3 24.6862 33.8030 104.5691 0.0000 14.3036 0.0000
# 4 0.0000 0.0000 0.0000 33.1269 0.0000 12.7693
# 5 13.1700 15.3397 14.3036 0.0000 29.7387 0.0000
# 6 0.0000 0.0000 0.0000 12.7693 0.0000 37.2656
#
#
#
# Elastic Compliance Matrix: (Units=1/GPa)
#
#
# Indices 1 2 3 4 5 6 
#
# 1 0.015239 -0.006236 -0.001176 0.000000 -0.002966 0.000000
# 2 -0.006236 0.012352 -0.002170 0.000000 -0.002566 0.000000
# 3 -0.001176 -0.002170 0.011044 0.000000 -0.003672 0.000000
# 4 0.000000 0.000000 0.000000 0.034781 0.000000 -0.011918
# 5 -0.002966 -0.002566 -0.003672 0.000000 0.038030 0.000000
# 6 0.000000 0.000000 0.000000 -0.011918 0.000000 0.030918
#
#
# Mechanical properties :
#
#
# Convention : Reuss Voigt Hill
#
# Bulk Modulus (GPa) = 51.35703 59.74179 55.54941
# Shear Modulus (GPa) = 29.75885 33.47013 31.61449
#
# Velocity S-wave (km/s) = 4.09780 4.34582 4.22363
# Velocity P-wave (km/s) = 7.16718 7.67411 7.42497
#
# Compressibility (1/GPa) = 0.01947153
#
# Stress axis : x y z
#
# Youngs Moduli (GPa) = 65.62231 80.96029 90.54446
#
# Poissons Ratio (x) = 0.50488 0.10647
# Poissons Ratio (y) = 0.40923 0.19645
# Poissons Ratio (z) = 0.07716 0.17565
#
# Static dielectric constant tensor:
#      x y z
#    x 1.638820 0.000000 -0.010920 
#    y 0.000000 1.601220 0.000000 
#    z -0.010920 0.000000 1.576570 
# 
# From -- ./inp_files/112724.got.cif
#   From: 2010.05.17/outbox.cif.g08.bks.cpg/sg15_57_cif.got.tgz:112724.got - 2010.06.03 18:47:42.
