data_PCOD9273314
_publ_section_title
;
Structure prediction by ZEFSAII (Michael W. Deem and Ramdas Pophale) SiO2 
 PCOD9273314
Probable space group: C 2/C
;
_chemical_formula_sum "Si O2"
_cell_formula_units_Z 36
_cell_length_a 10.478693
_cell_length_b 10.480854
_cell_length_c 18.768793
_cell_angle_alpha 90.000000
_cell_angle_beta 107.465897
_cell_angle_gamma 90.000000
_cell_volume 1966.260492
_symmetry_space_group_name_H-M "C 2/C"
_symmetry_group_IT_number 15
_symmetry_cell_setting 'monoclinic'
loop_
_space_group_symop_operation_xyz
x,y,z
-x,y,1/2-z
-x,-y,-z
x,-y,1/2+z
1/2+x,1/2+y,z
1/2-x,1/2+y,1/2-z
1/2-x,1/2-y,-z
1/2+x,1/2-y,1/2+z
loop_
_atom_site_type_symbol
_atom_site_label
_atom_site_fract_x
_atom_site_fract_y
_atom_site_fract_z
Si Si1 0.659461 0.125000 0.997948
Si Si2 0.202156 0.224889 0.876444
Si Si3 0.000000 0.615276 0.250000
Si Si4 0.908130 0.518800 0.876275
Si Si5 0.126086 0.910642 0.502083
O O1 0.528595 0.106582 0.927305
O O2 0.752719 0.005895 0.994130
O O3 0.750000 0.250000 0.000000
O O4 0.612268 0.097916 0.071092
O O5 0.113575 0.298331 0.804929
O O6 0.275083 0.103079 0.855477
O O7 0.317658 0.317718 0.927334
O O8 0.113811 0.176043 0.929049
O O9 0.942433 0.530894 0.304402
O O10 0.000000 0.000000 0.500000
#
# Coordination Sequence:
#
# PCOD9273314 Si02
#       5
#     8   8   4   8   8
#     4  10  20  37  64  92 120 156 206 261 300 366
#     4  10  23  40  58  88 123 157 206 255 301 376
#     4  12  24  40  60  88 132 172 192 260 328 360
#     4  10  23  40  58  90 121 159 210 247 312 372
#     4  10  20  37  64  92 118 157 207 255 305 363
#
# _framework density 18.308865999999998
#
# number of rings (size 3 to 8) (size 9 to 14) (size 15 to 20)
#    0.000    1.778    2.222    1.333    6.222    3.556 
#    0.000    0.000    0.000    0.000    0.000    0.000 
#    0.000    0.000    0.000    0.000    0.000    0.000 
#
# Total GULP energy -100446.817727 kJ/mol
# GULP energy per Si atom -5580.378763 kJ/mol
# Density = 1.826719 g / cm^3
# Si number density = 18.308866 Si / 1000 Ang^3
#
#
#
# Elastic Constant Matrix: (Units=GPa)
#
#
# Indices 1 2 3 4 5 6 
#
# 1 107.3547 49.4169 66.7760 0.0000 -8.1827 0.0000
# 2 49.4169 106.7670 66.1979 0.0000 -8.8573 0.0000
# 3 66.7760 66.1979 152.7498 0.0000 -13.6454 0.0000
# 4 0.0000 0.0000 0.0000 17.1736 0.0000 2.1941
# 5 -8.1827 -8.8573 -13.6454 0.0000 22.2869 0.0000
# 6 0.0000 0.0000 0.0000 2.1941 0.0000 58.8654
#
#
#
# Elastic Compliance Matrix: (Units=1/GPa)
#
#
# Indices 1 2 3 4 5 6 
#
# 1 0.013757 -0.003572 -0.004381 0.000000 0.000949 0.000000
# 2 -0.003572 0.013803 -0.004282 0.000000 0.001553 0.000000
# 3 -0.004381 -0.004282 0.010601 0.000000 0.003181 0.000000
# 4 0.000000 0.000000 0.000000 0.058508 0.000000 -0.002181
# 5 0.000949 0.001553 0.003181 0.000000 0.047782 0.000000
# 6 0.000000 0.000000 0.000000 -0.002181 0.000000 0.017069
#
#
# Mechanical properties :
#
#
# Convention : Reuss Voigt Hill
#
# Bulk Modulus (GPa) = 73.03710 81.29480 77.16595
# Shear Modulus (GPa) = 26.23932 31.96388 29.10160
#
# Velocity S-wave (km/s) = 3.78980 4.18283 3.99116
# Velocity P-wave (km/s) = 7.68950 8.23567 7.96727
#
# Compressibility (1/GPa) = 0.01369167
#
# Stress axis : x y z
#
# Youngs Moduli (GPa) = 72.69248 72.44767 94.32631
#
# Poissons Ratio (x) = 0.25880 0.41324
# Poissons Ratio (y) = 0.25967 0.40386
# Poissons Ratio (z) = 0.31846 0.31019
#
# Static dielectric constant tensor:
#      x y z
#    x 1.646560 0.000000 -0.009740 
#    y 0.000000 1.645020 0.000000 
#    z -0.009740 0.000000 1.602040 
# 
# From -- ./inp_files/141399.got.cif
#   From: 2010.05.17/outbox.cif.g08.bks.cpg/sg15_71_cif.got.tgz:141399.got - 2010.06.03 18:47:42.
