data_PCOD9273894
_publ_section_title
;
Structure prediction by ZEFSAII (Michael W. Deem and Ramdas Pophale) SiO2 
 PCOD9273894
Probable space group: C 2/C
;
_chemical_formula_sum "Si O2"
_cell_formula_units_Z 48
_cell_length_a 12.061535
_cell_length_b 27.634048
_cell_length_c 14.397857
_cell_angle_alpha 90.000000
_cell_angle_beta 28.574362
_cell_angle_gamma 90.000000
_cell_volume 2295.325938
_symmetry_space_group_name_H-M "C 2/C"
_symmetry_group_IT_number 15
_symmetry_cell_setting 'monoclinic'
loop_
_space_group_symop_operation_xyz
x,y,z
-x,y,1/2-z
-x,-y,-z
x,-y,1/2+z
1/2+x,1/2+y,z
1/2-x,1/2+y,1/2-z
1/2-x,1/2-y,-z
1/2+x,1/2-y,1/2+z
loop_
_atom_site_type_symbol
_atom_site_label
_atom_site_fract_x
_atom_site_fract_y
_atom_site_fract_z
Si Si1 0.597254 0.689240 0.554672
Si Si2 0.998379 0.702127 0.110914
Si Si3 0.137917 0.391519 0.865122
Si Si4 0.012891 0.441582 0.134661
Si Si5 0.019876 0.912925 0.424868
Si Si6 0.329907 0.051331 0.457905
O O1 0.736234 0.692363 0.550716
O O2 0.477628 0.740160 0.618785
O O3 0.456463 0.641461 0.633302
O O4 0.817370 0.687320 0.323492
O O5 0.917916 0.665649 0.090610
O O6 0.346821 0.406945 0.641759
O O7 0.911070 0.415989 0.983549
O O8 0.162301 0.412053 0.950206
O O9 0.749927 0.438434 0.291531
O O10 0.000000 0.423446 0.250000
O O11 0.108272 0.496141 0.066497
O O12 0.912085 0.942290 0.416921
O O13 0.500000 0.068704 0.250000
#
# Coordination Sequence:
#
# PCOD9273894 Si02
#       6
#     8   8   8   8   8   8
#     4   9  17  31  54  88 123 146 180 238 304 363
#     4   9  17  30  54  89 121 147 179 237 302 365
#     4  10  20  38  60  85 124 154 192 245 297 355
#     4  11  25  39  58  87 116 160 212 245 281 356
#     4  10  21  40  62  85 121 159 190 247 311 345
#     4   9  19  38  59  84 120 147 194 249 298 354
#
# _framework density 20.912063
#
# number of rings (size 3 to 8) (size 9 to 14) (size 15 to 20)
#    0.000    2.333    1.667    0.500    2.333    7.333 
#    0.000    5.000    0.000    1.000    0.000    0.000 
#    0.000    0.000    0.000    0.000    0.000    0.000 
#
# Total GULP energy -133923.124340 kJ/mol
# GULP energy per Si atom -5580.130181 kJ/mol
# Density = 2.086447 g / cm^3
# Si number density = 20.912063 Si / 1000 Ang^3
#
#
#
# Elastic Constant Matrix: (Units=GPa)
#
#
# Indices 1 2 3 4 5 6 
#
# 1 93.2635 62.5337 14.7876 0.0002 13.5858 -0.0002
# 2 62.5337 140.9237 32.0233 -0.0001 5.8595 0.0001
# 3 14.7876 32.0233 61.0746 0.0004 3.7205 -0.0001
# 4 0.0002 -0.0001 0.0004 24.1239 -0.0003 8.7364
# 5 13.5858 5.8595 3.7205 -0.0003 37.8880 0.0001
# 6 -0.0002 0.0001 -0.0001 8.7364 0.0001 21.6816
#
#
#
# Elastic Compliance Matrix: (Units=1/GPa)
#
#
# Indices 1 2 3 4 5 6 
#
# 1 0.016049 -0.006935 0.000036 0.000000 -0.004686 0.000000
# 2 -0.006935 0.011079 -0.004202 0.000000 0.001186 0.000000
# 3 0.000036 -0.004202 0.018641 0.000000 -0.001193 0.000000
# 4 0.000000 0.000000 0.000000 0.048535 0.000001 -0.019557
# 5 -0.004686 0.001186 -0.001193 0.000001 0.028008 0.000000
# 6 0.000000 0.000000 0.000000 -0.019557 0.000000 0.054002
#
#
# Mechanical properties :
#
#
# Convention : Reuss Voigt Hill
#
# Bulk Modulus (GPa) = 42.43365 57.10568 49.76967
# Shear Modulus (GPa) = 24.22809 29.13319 26.68064
#
# Velocity S-wave (km/s) = 3.40747 3.73651 3.57578
# Velocity P-wave (km/s) = 5.98470 6.78102 6.39527
#
# Compressibility (1/GPa) = 0.02356620
#
# Stress axis : x y z
#
# Youngs Moduli (GPa) = 62.30847 90.26118 53.64583
#
# Poissons Ratio (x) = 0.62596 -0.00192
# Poissons Ratio (y) = 0.43211 0.22543
# Poissons Ratio (z) = -0.00223 0.37929
#
# Static dielectric constant tensor:
#      x y z
#    x 1.740530 0.000000 0.034040 
#    y 0.000000 1.749520 0.000000 
#    z 0.034040 0.000000 1.893280 
# 
# From -- ./inp_files/148698.got.cif
#   From: 2010.05.17/outbox.cif.g08.bks.cpg/sg15_75_cif.got.tgz:148698.got - 2010.06.03 18:47:42.
