data_PCOD9273115
_publ_section_title
;
Structure prediction by ZEFSAII (Michael W. Deem and Ramdas Pophale) SiO2 
 PCOD9273115
Probable space group: C 2/C
;
_chemical_formula_sum "Si O2"
_cell_formula_units_Z 56
_cell_length_a 11.522951
_cell_length_b 32.491907
_cell_length_c 8.770363
_cell_angle_alpha 90.000000
_cell_angle_beta 63.274666
_cell_angle_gamma 90.000000
_cell_volume 2932.863775
_symmetry_space_group_name_H-M "C 2/C"
_symmetry_group_IT_number 15
_symmetry_cell_setting 'monoclinic'
loop_
_space_group_symop_operation_xyz
x,y,z
-x,y,1/2-z
-x,-y,-z
x,-y,1/2+z
1/2+x,1/2+y,z
1/2-x,1/2+y,1/2-z
1/2-x,1/2-y,-z
1/2+x,1/2-y,1/2+z
loop_
_atom_site_type_symbol
_atom_site_label
_atom_site_fract_x
_atom_site_fract_y
_atom_site_fract_z
Si Si1 0.500000 0.406274 0.250000
Si Si2 0.824636 0.891342 0.617198
Si Si3 0.116605 0.366436 0.296952
Si Si4 0.425476 0.838236 0.656768
Si Si5 0.500000 0.658556 0.250000
Si Si6 0.154552 0.971805 0.697135
Si Si7 0.294943 0.446047 0.173036
Si Si8 0.756762 0.700982 0.990616
O O1 0.382860 0.385157 0.412757
O O2 0.435568 0.431945 0.151611
O O3 0.683830 0.870402 0.720987
O O4 0.822578 0.937764 0.684661
O O5 0.925001 0.868891 0.671678
O O6 0.206276 0.406329 0.248734
O O7 0.187262 0.325399 0.186389
O O8 0.000000 0.375568 0.250000
O O9 0.043796 0.359202 0.497406
O O10 0.500000 0.815600 0.750000
O O11 0.348763 0.811407 0.578304
O O12 0.388592 0.684822 0.396069
O O13 0.208292 0.956612 0.503212
O O14 0.000000 0.977884 0.750000
O O15 0.224333 0.013221 0.714168
O O16 0.750000 0.750000 0.000000
#
# Coordination Sequence:
#
# PCOD9273115 Si02
#       8
#     4   8   8   8   4   8   8   8
#     4  12  20  33  58  86 124 148 206 262 314 367
#     4  11  21  37  62  90 122 164 205 261 318 363
#     4  10  22  43  64  85 124 171 209 249 311 388
#     4  10  22  41  63  91 128 169 202 253 316 385
#     4  10  20  37  62  94 122 150 210 262 306 377
#     4  12  21  37  55  88 126 156 215 266 316 366
#     4  12  23  36  58  90 120 166 209 262 319 360
#     4  10  22  39  70  94 119 163 208 257 309 387
#
# _framework density 19.093966000000002
#
# number of rings (size 3 to 8) (size 9 to 14) (size 15 to 20)
#    0.000    1.143    2.857    5.571    3.000    0.000 
#    0.000    4.286    6.286    0.000    0.000    0.000 
#    0.000    0.000    0.000    0.000    0.000    0.000 
#
# Total GULP energy -156082.156500 kJ/mol
# GULP energy per Si atom -5574.362732 kJ/mol
# Density = 1.905051 g / cm^3
# Si number density = 19.093966 Si / 1000 Ang^3
#
#
#
# Elastic Constant Matrix: (Units=GPa)
#
#
# Indices 1 2 3 4 5 6 
#
# 1 79.1308 42.7184 40.2453 0.0000 -6.5633 0.0000
# 2 42.7184 133.6536 52.0843 0.0000 -17.5761 0.0000
# 3 40.2453 52.0843 143.9607 0.0000 -10.7810 0.0000
# 4 0.0000 0.0000 0.0000 6.1094 0.0000 0.7768
# 5 -6.5633 -17.5761 -10.7810 0.0000 25.3742 0.0000
# 6 0.0000 0.0000 0.0000 0.7768 0.0000 2.7991
#
#
#
# Elastic Compliance Matrix: (Units=1/GPa)
#
#
# Indices 1 2 3 4 5 6 
#
# 1 0.016401 -0.004006 -0.003125 0.000000 0.000140 0.000000
# 2 -0.004006 0.010307 -0.002223 0.000000 0.005159 0.000000
# 3 -0.003125 -0.002223 0.008726 0.000000 0.001359 0.000000
# 4 0.000000 0.000000 0.000000 0.169670 0.000000 -0.047085
# 5 0.000140 0.005159 0.001359 0.000000 0.043597 0.000000
# 6 0.000000 0.000000 0.000000 -0.047085 0.000000 0.370328
#
#
# Mechanical properties :
#
#
# Convention : Reuss Voigt Hill
#
# Bulk Modulus (GPa) = 59.78658 69.64903 64.71780
# Shear Modulus (GPa) = 7.77227 21.63632 14.70429
#
# Velocity S-wave (km/s) = 2.01975 3.36988 2.77808
# Velocity P-wave (km/s) = 6.06786 7.19011 6.65269
#
# Compressibility (1/GPa) = 0.01672616
#
# Stress axis : x y z
#
# Youngs Moduli (GPa) = 60.97237 97.02133 114.59936
#
# Poissons Ratio (x) = 0.38865 0.35815
# Poissons Ratio (y) = 0.24424 0.25474
# Poissons Ratio (z) = 0.19055 0.21566
#
# Static dielectric constant tensor:
#      x y z
#    x 1.669310 0.000000 -0.007340 
#    y 0.000000 1.682680 0.000000 
#    z -0.007340 0.000000 2.259810 
# 
# From -- ./inp_files/35616.got.cif
#   From: 2010.05.17/outbox.cif.g08.bks.cpg/sg15_18_cif.got.tgz:35616.got - 2010.06.03 18:47:42.
