data_PCOD9273655
_publ_section_title
;
Structure prediction by ZEFSAII (Michael W. Deem and Ramdas Pophale) SiO2 
 PCOD9273655
Probable space group: C 2/C
;
_chemical_formula_sum "Si O2"
_cell_formula_units_Z 40
_cell_length_a 11.571342
_cell_length_b 22.534829
_cell_length_c 13.503070
_cell_angle_alpha 90.000000
_cell_angle_beta 154.663443
_cell_angle_gamma 90.000000
_cell_volume 1506.773367
_symmetry_space_group_name_H-M "C 2/C"
_symmetry_group_IT_number 15
_symmetry_cell_setting 'monoclinic'
loop_
_space_group_symop_operation_xyz
x,y,z
-x,y,1/2-z
-x,-y,-z
x,-y,1/2+z
1/2+x,1/2+y,z
1/2-x,1/2+y,1/2-z
1/2-x,1/2-y,-z
1/2+x,1/2-y,1/2+z
loop_
_atom_site_type_symbol
_atom_site_label
_atom_site_fract_x
_atom_site_fract_y
_atom_site_fract_z
Si Si1 0.716187 0.950560 0.691839
Si Si2 0.711852 0.517162 0.030189
Si Si3 0.179452 0.326533 0.583042
Si Si4 0.312078 0.650398 0.514311
Si Si5 0.643114 0.688698 0.575372
O O1 0.808637 0.957958 0.874880
O O2 0.604305 0.885820 0.584682
O O3 0.500000 0.000000 0.500000
O O4 0.975353 0.971119 0.830486
O O5 0.000000 0.485786 0.250000
O O6 0.723198 0.580223 0.983450
O O7 0.121037 0.259602 0.573828
O O8 0.956157 0.329279 0.323551
O O9 0.503020 0.326841 0.860712
O O10 0.500000 0.675834 0.750000
O O11 0.481589 0.661237 0.544024
O O12 0.000000 0.670971 0.250000
#
# Coordination Sequence:
#
# PCOD9273655 Si02
#       5
#     8   8   8   8   8
#     4  11  23  39  65  90 121 171 215 263 314 380
#     4  10  24  39  60  89 129 166 210 264 318 371
#     4  10  21  37  58  83 120 155 208 251 306 364
#     4  11  22  36  59  84 125 168 204 247 307 379
#     4  10  20  38  57  82 119 160 202 252 306 374
#
# _framework density 26.546792
#
# number of rings (size 3 to 8) (size 9 to 14) (size 15 to 20)
#    0.000    1.600    2.000    2.400   11.200    0.000 
#    0.000   13.000    4.400    0.000    0.000    5.600 
#    0.000    0.000    0.000    0.000    0.000    0.000 
#
# Total GULP energy -111475.593204 kJ/mol
# GULP energy per Si atom -5573.779660 kJ/mol
# Density = 2.648637 g / cm^3
# Si number density = 26.546792 Si / 1000 Ang^3
#
#
#
# Elastic Constant Matrix: (Units=GPa)
#
#
# Indices 1 2 3 4 5 6 
#
# 1 87.4675 7.1100 88.1147 0.0049 -11.0450 0.0009
# 2 7.1100 108.3436 31.4515 0.0009 -13.7846 0.0002
# 3 88.1147 31.4515 288.1789 0.0094 -8.4709 0.0003
# 4 0.0049 0.0009 0.0094 1.3486 0.0034 -13.8084
# 5 -11.0450 -13.7846 -8.4709 0.0034 54.7293 0.0003
# 6 0.0009 0.0002 0.0003 -13.8084 0.0003 -23.4541
#
#
#
# Elastic Compliance Matrix: (Units=1/GPa)
#
#
# Indices 1 2 3 4 5 6 
#
# 1 0.016945 0.000749 -0.005180 -0.000004 0.002807 0.000003
# 2 0.000749 0.009849 -0.001232 -0.000001 0.002441 0.000001
# 3 -0.005180 -0.001232 0.005172 -0.000002 -0.000555 0.000001
# 4 -0.000004 -0.000001 -0.000002 0.105506 -0.000008 -0.062115
# 5 0.002807 0.002441 -0.000555 -0.000008 0.019367 0.000005
# 6 0.000003 0.000001 0.000001 -0.062115 0.000005 -0.006067
#
#
# Mechanical properties :
#
#
# Convention : Reuss Voigt Hill
#
# Bulk Modulus (GPa) = 48.45197 81.92694 65.18946
# Shear Modulus (GPa) = 29.58942 30.34568 29.96755
#
# Velocity S-wave (km/s) = 3.34220 3.38465 3.36349
# Velocity P-wave (km/s) = 5.76064 6.79726 6.30031
#
# Compressibility (1/GPa) = 0.02063899
#
# Stress axis : x y z
#
# Youngs Moduli (GPa) = 59.01405 101.53300 193.34082
#
# Poissons Ratio (x) = -0.07604 1.00159
# Poissons Ratio (y) = -0.04420 0.23822
# Poissons Ratio (z) = 0.30572 0.12510
#
# Static dielectric constant tensor:
#      x y z
#    x 2.189990 0.000000 -0.013600 
#    y 0.000000 2.007210 0.000000 
#    z -0.013600 0.000000 2.157770 
# 
# From -- ./inp_files/207045.got.cif
#   From: 2010.05.17/outbox.cif.g08.bks.cpg/sg15_104_cif.got.tgz:207045.got - 2010.06.03 18:47:42.
