data_PCOD9273952
_publ_section_title
;
Structure prediction by ZEFSAII (Michael W. Deem and Ramdas Pophale) SiO2 
 PCOD9273952
Probable space group: C 2/C
;
_chemical_formula_sum "Si O2"
_cell_formula_units_Z 44
_cell_length_a 13.005000
_cell_length_b 7.905566
_cell_length_c 17.614979
_cell_angle_alpha 90.000000
_cell_angle_beta 78.839597
_cell_angle_gamma 90.000000
_cell_volume 1776.781119
_symmetry_space_group_name_H-M "C 2/C"
_symmetry_group_IT_number 15
_symmetry_cell_setting 'monoclinic'
loop_
_space_group_symop_operation_xyz
x,y,z
-x,y,1/2-z
-x,-y,-z
x,-y,1/2+z
1/2+x,1/2+y,z
1/2-x,1/2+y,1/2-z
1/2-x,1/2-y,-z
1/2+x,1/2-y,1/2+z
loop_
_atom_site_type_symbol
_atom_site_label
_atom_site_fract_x
_atom_site_fract_y
_atom_site_fract_z
Si Si1 0.226611 0.262554 0.213814
Si Si2 0.920224 0.036635 0.333068
Si Si3 0.500000 0.052224 0.750000
Si Si4 0.947703 0.664766 0.397833
Si Si5 0.262712 0.593509 0.132073
Si Si6 0.481666 0.317590 0.540129
O O1 0.196560 0.090340 0.174414
O O2 0.291078 0.405464 0.159885
O O3 0.268896 0.201366 0.288609
O O4 0.109649 0.345634 0.236633
O O5 0.000000 0.032999 0.250000
O O6 0.955195 0.176196 0.390671
O O7 0.928877 0.855406 0.370859
O O8 0.493722 0.936990 0.675822
O O9 0.832013 0.582587 0.413271
O O10 0.001197 0.681900 0.471814
O O11 0.360732 0.683717 0.080981
O O12 0.500000 0.500000 0.500000
#
# Coordination Sequence:
#
# PCOD9273952 Si02
#       6
#     8   8   4   8   8   8
#     4  11  22  37  63  90 118 159 201 249 287 357
#     4  11  19  39  63  84 119 156 197 234 299 354
#     4  10  20  38  60  90 114 160 208 234 298 366
#     4  10  22  37  61  90 118 157 193 251 298 349
#     4  11  22  38  59  90 123 151 205 244 299 346
#     4  10  22  38  60  85 121 158 197 245 294 355
#
# _framework density 24.763883
#
# number of rings (size 3 to 8) (size 9 to 14) (size 15 to 20)
#    0.000    1.455    3.636    1.636    0.000    1.455 
#    0.000   13.636    0.000    0.000    0.000    0.000 
#    0.000    0.000    0.000    0.000    0.000    0.000 
#
# Total GULP energy -123046.935753 kJ/mol
# GULP energy per Si atom -5593.042534 kJ/mol
# Density = 2.470752 g / cm^3
# Si number density = 24.763883 Si / 1000 Ang^3
#
#
#
# Elastic Constant Matrix: (Units=GPa)
#
#
# Indices 1 2 3 4 5 6 
#
# 1 40.1752 -17.4634 10.7860 0.0000 14.2486 0.0000
# 2 -17.4634 103.3504 10.6775 0.0000 6.0173 0.0000
# 3 10.7860 10.6775 85.1093 0.0000 21.7983 0.0000
# 4 0.0000 0.0000 0.0000 2.7059 0.0000 2.0026
# 5 14.2486 6.0173 21.7983 0.0000 35.3274 0.0000
# 6 0.0000 0.0000 0.0000 2.0026 0.0000 22.8170
#
#
#
# Elastic Compliance Matrix: (Units=1/GPa)
#
#
# Indices 1 2 3 4 5 6 
#
# 1 0.032890 0.006499 -0.001547 0.000000 -0.013418 0.000000
# 2 0.006499 0.011122 -0.001262 0.000000 -0.003737 0.000000
# 3 -0.001547 -0.001262 0.014121 0.000000 -0.007874 0.000000
# 4 0.000000 0.000000 0.000000 0.395235 0.000000 -0.034689
# 5 -0.013418 -0.003737 -0.007874 0.000000 0.039214 0.000000
# 6 0.000000 0.000000 0.000000 -0.034689 0.000000 0.046871
#
#
# Mechanical properties :
#
#
# Convention : Reuss Voigt Hill
#
# Bulk Modulus (GPa) = 15.26433 26.29277 20.77855
# Shear Modulus (GPa) = 9.02674 27.14572 18.08623
#
# Velocity S-wave (km/s) = 1.91129 3.31446 2.70543
# Velocity P-wave (km/s) = 3.32386 5.02871 4.26239
#
# Compressibility (1/GPa) = 0.06551220
#
# Stress axis : x y z
#
# Youngs Moduli (GPa) = 30.40448 89.91339 70.81814
#
# Poissons Ratio (x) = -0.58430 0.10954
# Poissons Ratio (y) = -0.19758 0.08936
# Poissons Ratio (z) = 0.04703 0.11345
#
# Static dielectric constant tensor:
#      x y z
#    x 2.032100 0.000000 -0.114330 
#    y 0.000000 2.030710 0.000000 
#    z -0.114330 0.000000 2.204690 
# 
# From -- ./inp_files/202534.got.cif
#   From: 2010.05.17/outbox.cif.g08.bks.cpg/sg15_102_cif.got.tgz:202534.got - 2010.06.03 18:47:42.
