data_PCOD9273060
_publ_section_title
;
Structure prediction by ZEFSAII (Michael W. Deem and Ramdas Pophale) SiO2 
 PCOD9273060
Probable space group: C 2/C
;
_chemical_formula_sum "Si O2"
_cell_formula_units_Z 56
_cell_length_a 20.259862
_cell_length_b 13.919983
_cell_length_c 24.368553
_cell_angle_alpha 90.000000
_cell_angle_beta 23.166328
_cell_angle_gamma 90.000000
_cell_volume 2703.591901
_symmetry_space_group_name_H-M "C 2/C"
_symmetry_group_IT_number 15
_symmetry_cell_setting 'monoclinic'
loop_
_space_group_symop_operation_xyz
x,y,z
-x,y,1/2-z
-x,-y,-z
x,-y,1/2+z
1/2+x,1/2+y,z
1/2-x,1/2+y,1/2-z
1/2-x,1/2-y,-z
1/2+x,1/2-y,1/2+z
loop_
_atom_site_type_symbol
_atom_site_label
_atom_site_fract_x
_atom_site_fract_y
_atom_site_fract_z
Si Si1 0.119088 0.184085 0.945955
Si Si2 0.812924 0.022140 0.532909
Si Si3 0.500000 0.636156 0.750000
Si Si4 0.168445 0.183947 0.423769
Si Si5 0.986337 0.674839 0.877634
Si Si6 0.000000 0.341461 0.250000
Si Si7 0.784758 0.481744 0.009111
Si Si8 0.460924 0.211365 0.374300
O O1 0.309223 0.177725 0.775895
O O2 0.072340 0.089415 0.017365
O O3 0.096425 0.267673 0.008904
O O4 0.986427 0.191514 0.998797
O O5 0.811010 0.920166 0.563771
O O6 0.832849 0.009822 0.452704
O O7 0.643198 0.086079 0.661349
O O8 0.346272 0.567796 0.849753
O O9 0.559033 0.707638 0.656785
O O10 0.343033 0.207211 0.261296
O O11 0.139549 0.256590 0.495736
O O12 0.950144 0.715231 0.843103
O O13 0.897596 0.569742 0.943406
O O14 0.904121 0.394155 0.898515
#
# Coordination Sequence:
#
# PCOD9273060 Si02
#       8
#     8   8   4   8   8   4   8   8
#     4  11  24  43  63  94 128 186 222 261 317 392
#     4  10  20  37  62  90 121 164 219 262 319 374
#     4  12  22  41  65 104 136 160 214 281 349 394
#     4  12  23  40  64  93 136 172 221 266 315 404
#     4  10  23  43  66  92 133 171 226 270 324 382
#     4   8  18  37  63  92 118 164 212 271 331 372
#     4  11  23  42  66 101 129 165 213 284 334 388
#     4  12  23  40  66  99 131 169 210 271 343 392
#
# _framework density 20.713184999999999
#
# number of rings (size 3 to 8) (size 9 to 14) (size 15 to 20)
#    0.000    1.143    2.857    5.143    0.000    6.857 
#    0.000    1.429    0.000    0.000    0.000    0.000 
#    0.000    0.000    0.000    0.000    0.000    0.000 
#
# Total GULP energy -156121.375362 kJ/mol
# GULP energy per Si atom -5575.763406 kJ/mol
# Density = 2.066604 g / cm^3
# Si number density = 20.713185 Si / 1000 Ang^3
#
#
#
# Elastic Constant Matrix: (Units=GPa)
#
#
# Indices 1 2 3 4 5 6 
#
# 1 98.9054 29.3216 21.2034 -0.0016 -5.5096 0.0001
# 2 29.3216 81.9620 37.1779 -0.0028 -0.4408 0.0009
# 3 21.2034 37.1779 99.5938 0.0074 -13.7221 0.0015
# 4 -0.0016 -0.0028 0.0074 23.4919 0.0001 0.7384
# 5 -5.5096 -0.4408 -13.7221 0.0001 25.9376 0.0010
# 6 0.0001 0.0009 0.0015 0.7384 0.0010 17.9143
#
#
#
# Elastic Compliance Matrix: (Units=1/GPa)
#
#
# Indices 1 2 3 4 5 6 
#
# 1 0.011499 -0.003751 -0.000777 0.000001 0.001968 0.000000
# 2 -0.003751 0.016111 -0.005703 0.000003 -0.003540 0.000000
# 3 -0.000777 -0.005703 0.013266 -0.000005 0.006756 -0.000001
# 4 0.000001 0.000003 -0.000005 0.042623 -0.000002 -0.001757
# 5 0.001968 -0.003540 0.006756 -0.000002 0.042486 -0.000003
# 6 0.000000 0.000000 -0.000001 -0.001757 -0.000003 0.055894
#
#
# Mechanical properties :
#
#
# Convention : Reuss Voigt Hill
#
# Bulk Modulus (GPa) = 48.98640 50.65190 49.81915
# Shear Modulus (GPa) = 23.90688 26.31928 25.11308
#
# Velocity S-wave (km/s) = 3.40102 3.56849 3.48576
# Velocity P-wave (km/s) = 6.25490 6.44095 6.34861
#
# Compressibility (1/GPa) = 0.02041383
#
# Stress axis : x y z
#
# Youngs Moduli (GPa) = 86.96585 62.07122 75.38030
#
# Poissons Ratio (x) = 0.23281 0.05856
# Poissons Ratio (y) = 0.32618 0.42991
# Poissons Ratio (z) = 0.06756 0.35401
#
# Static dielectric constant tensor:
#      x y z
#    x 1.775900 0.000000 0.008890 
#    y 0.000000 1.775430 0.000000 
#    z 0.008890 0.000000 1.818860 
# 
# From -- ./inp_files/111151.got.cif
#   From: 2010.05.17/outbox.cif.g08.bks.cpg/sg15_56_cif.got.tgz:111151.got - 2010.06.03 18:47:42.
