data_PCOD9273372
_publ_section_title
;
Structure prediction by ZEFSAII (Michael W. Deem and Ramdas Pophale) SiO2 
 PCOD9273372
Probable space group: C 2/C
;
_chemical_formula_sum "Si O2"
_cell_formula_units_Z 48
_cell_length_a 7.583642
_cell_length_b 16.159350
_cell_length_c 26.765532
_cell_angle_alpha 90.000000
_cell_angle_beta 45.174445
_cell_angle_gamma 90.000000
_cell_volume 2326.381017
_symmetry_space_group_name_H-M "C 2/C"
_symmetry_group_IT_number 15
_symmetry_cell_setting 'monoclinic'
loop_
_space_group_symop_operation_xyz
x,y,z
-x,y,1/2-z
-x,-y,-z
x,-y,1/2+z
1/2+x,1/2+y,z
1/2-x,1/2+y,1/2-z
1/2-x,1/2-y,-z
1/2+x,1/2-y,1/2+z
loop_
_atom_site_type_symbol
_atom_site_label
_atom_site_fract_x
_atom_site_fract_y
_atom_site_fract_z
Si Si1 0.861179 0.099197 0.826029
Si Si2 0.270099 0.317177 0.170408
Si Si3 0.051936 0.714118 0.610478
Si Si4 0.654103 0.811048 0.563162
Si Si5 0.411541 0.004518 0.461471
Si Si6 0.389298 0.642801 0.460790
O O1 0.730928 0.184218 0.832180
O O2 0.631650 0.039959 0.886414
O O3 0.000000 0.063806 0.750000
O O4 0.047925 0.121092 0.834776
O O5 0.202020 0.330093 0.125293
O O6 0.420922 0.231448 0.136691
O O7 0.000000 0.312649 0.250000
O O8 0.154765 0.679471 0.537579
O O9 0.101940 0.812939 0.595333
O O10 0.750000 0.750000 0.500000
O O11 0.867774 0.823855 0.560926
O O12 0.610632 0.901354 0.549910
O O13 0.152124 0.953567 0.518734
O O14 0.500000 0.000000 0.500000
#
# Coordination Sequence:
#
# PCOD9273372 Si02
#       6
#     8   8   8   8   8   8
#     4  11  23  43  67  95 137 181 224 275 348 409
#     4  12  23  38  68  99 129 178 228 271 335 411
#     4  10  20  37  65 100 130 173 223 273 329 405
#     4  12  23  41  68  97 134 177 230 278 341 404
#     4  11  25  41  64 100 137 178 226 291 341 398
#     4  10  21  39  66  98 137 171 226 278 337 399
#
# _framework density 20.632905000000001
#
# number of rings (size 3 to 8) (size 9 to 14) (size 15 to 20)
#    0.000    1.000    5.000    2.500    2.333    0.667 
#    0.000    0.000    0.000    0.000    0.000    0.000 
#    0.000    0.000    0.000    0.000    0.000    0.000 
#
# Total GULP energy -133677.027420 kJ/mol
# GULP energy per Si atom -5569.876142 kJ/mol
# Density = 2.058594 g / cm^3
# Si number density = 20.632905 Si / 1000 Ang^3
#
#
#
# Elastic Constant Matrix: (Units=GPa)
#
#
# Indices 1 2 3 4 5 6 
#
# 1 107.9813 25.8555 8.3789 0.0021 -1.7212 -0.0004
# 2 25.8555 112.5800 26.9904 0.0022 -3.0013 -0.0019
# 3 8.3789 26.9904 66.3717 -0.0031 -4.1073 0.0025
# 4 0.0021 0.0022 -0.0031 21.4078 -0.0003 -0.4578
# 5 -1.7212 -3.0013 -4.1073 -0.0003 36.7060 -0.0002
# 6 -0.0004 -0.0019 0.0025 -0.4578 -0.0002 31.4125
#
#
#
# Elastic Compliance Matrix: (Units=1/GPa)
#
#
# Indices 1 2 3 4 5 6 
#
# 1 0.009810 -0.002164 -0.000343 -0.000001 0.000245 0.000000
# 2 -0.002164 0.010324 -0.003906 -0.000001 0.000306 0.000001
# 3 -0.000343 -0.003906 0.016794 0.000003 0.001544 -0.000002
# 4 -0.000001 -0.000001 0.000003 0.046727 0.000001 0.000681
# 5 0.000245 0.000306 0.001544 0.000001 0.027453 0.000000
# 6 0.000000 0.000001 -0.000002 0.000681 0.000000 0.031844
#
#
# Mechanical properties :
#
#
# Convention : Reuss Voigt Hill
#
# Bulk Modulus (GPa) = 41.49262 45.48695 43.48979
# Shear Modulus (GPa) = 30.52274 32.95246 31.73760
#
# Velocity S-wave (km/s) = 3.85037 4.00069 3.92625
# Velocity P-wave (km/s) = 6.31828 6.59047 6.45581
#
# Compressibility (1/GPa) = 0.02410067
#
# Stress axis : x y z
#
# Youngs Moduli (GPa) = 101.94120 96.85935 59.54494
#
# Poissons Ratio (x) = 0.20961 0.02044
# Poissons Ratio (y) = 0.22061 0.23260
# Poissons Ratio (z) = 0.03499 0.37836
#
# Static dielectric constant tensor:
#      x y z
#    x 1.821320 0.000010 -0.009990 
#    y 0.000010 1.843010 -0.000010 
#    z -0.009990 -0.000010 1.765890 
# 
# From -- ./inp_files/307908.got.cif
#   From: 2010.05.17/outbox.cif.g08.bks.cpg/sg15_154_cif.got.tgz:307908.got - 2010.06.03 18:47:42.
