data_PCOD9273793
_publ_section_title
;
Structure prediction by ZEFSAII (Michael W. Deem and Ramdas Pophale) SiO2 
 PCOD9273793
Probable space group: C 2/C
;
_chemical_formula_sum "Si O2"
_cell_formula_units_Z 52
_cell_length_a 11.401540
_cell_length_b 29.629560
_cell_length_c 10.741873
_cell_angle_alpha 90.000000
_cell_angle_beta 44.108331
_cell_angle_gamma 90.000000
_cell_volume 2525.740380
_symmetry_space_group_name_H-M "C 2/C"
_symmetry_group_IT_number 15
_symmetry_cell_setting 'monoclinic'
loop_
_space_group_symop_operation_xyz
x,y,z
-x,y,1/2-z
-x,-y,-z
x,-y,1/2+z
1/2+x,1/2+y,z
1/2-x,1/2+y,1/2-z
1/2-x,1/2-y,-z
1/2+x,1/2-y,1/2+z
loop_
_atom_site_type_symbol
_atom_site_label
_atom_site_fract_x
_atom_site_fract_y
_atom_site_fract_z
Si Si1 0.891706 0.050214 0.460418
Si Si2 0.000000 0.791670 0.250000
Si Si3 0.210735 0.855124 0.926983
Si Si4 0.154185 0.724966 0.724551
Si Si5 0.620476 0.547613 0.536159
Si Si6 0.415371 0.787458 0.624599
Si Si7 0.589774 0.351754 0.548555
O O1 0.811815 0.099963 0.527567
O O2 0.000000 0.050788 0.250000
O O3 0.008990 0.048323 0.494420
O O4 0.795782 0.002238 0.527501
O O5 0.851298 0.823831 0.411849
O O6 0.950465 0.757049 0.179594
O O7 0.232130 0.907236 0.947511
O O8 0.366451 0.830556 0.742589
O O9 0.053613 0.853425 0.949175
O O10 0.249335 0.771742 0.676668
O O11 0.286427 0.689041 0.573189
O O12 0.000000 0.731626 0.750000
O O13 0.070221 0.706767 0.914948
O O14 0.500000 0.550943 0.750000
O O15 0.500000 0.347919 0.750000
#
# Coordination Sequence:
#
# PCOD9273793 Si02
#       7
#     8   4   8   8   8   8   8
#     4   8  16  30  52  82 113 139 176 231 286 330
#     4  12  22  40  56  78 114 148 190 228 280 330
#     4  11  21  36  59  83 113 145 187 233 282 333
#     4  12  24  39  58  81 110 149 195 232 281 335
#     4   9  16  29  53  84 110 140 181 233 280 330
#     4  12  25  39  56  80 113 153 186 236 281 333
#     4  10  20  38  59  85 113 143 184 233 285 334
#
# _framework density 20.588021999999999
#
# number of rings (size 3 to 8) (size 9 to 14) (size 15 to 20)
#    0.000    1.538    3.846    1.846    0.000    1.231 
#    0.000    0.000    0.000    0.923    2.000    0.000 
#    0.000    0.000    0.000    0.000    0.000    0.000 
#
# Total GULP energy -145166.994716 kJ/mol
# GULP energy per Si atom -5583.345951 kJ/mol
# Density = 2.054116 g / cm^3
# Si number density = 20.588022 Si / 1000 Ang^3
#
#
#
# Elastic Constant Matrix: (Units=GPa)
#
#
# Indices 1 2 3 4 5 6 
#
# 1 67.8676 5.1859 11.7298 0.0000 16.2623 0.0000
# 2 5.1859 177.4775 44.4762 0.0000 6.0463 0.0000
# 3 11.7298 44.4762 109.0042 0.0000 22.6348 0.0000
# 4 0.0000 0.0000 0.0000 26.8758 0.0000 11.0318
# 5 16.2623 6.0463 22.6348 0.0000 28.5647 0.0000
# 6 0.0000 0.0000 0.0000 11.0318 0.0000 14.7505
#
#
#
# Elastic Compliance Matrix: (Units=1/GPa)
#
#
# Indices 1 2 3 4 5 6 
#
# 1 0.017076 -0.000242 0.000322 0.000000 -0.009926 0.000000
# 2 -0.000242 0.006297 -0.002747 0.000000 0.000981 0.000000
# 3 0.000322 -0.002747 0.012182 0.000000 -0.009255 0.000000
# 4 0.000000 0.000000 0.000000 0.053691 0.000000 -0.040155
# 5 -0.009926 0.000981 -0.009255 0.000000 0.047785 0.000000
# 6 0.000000 0.000000 0.000000 -0.040155 0.000000 0.097826
#
#
# Mechanical properties :
#
#
# Convention : Reuss Voigt Hill
#
# Bulk Modulus (GPa) = 33.08908 53.01480 43.05194
# Shear Modulus (GPa) = 19.97900 33.56868 26.77384
#
# Velocity S-wave (km/s) = 3.11853 4.04232 3.61010
# Velocity P-wave (km/s) = 5.39202 6.89879 6.19142
#
# Compressibility (1/GPa) = 0.03022145
#
# Stress axis : x y z
#
# Youngs Moduli (GPa) = 58.56280 158.81779 82.08893
#
# Poissons Ratio (x) = 0.03836 -0.02644
# Poissons Ratio (y) = 0.01414 0.22549
# Poissons Ratio (z) = -0.01886 0.43626
#
# Static dielectric constant tensor:
#      x y z
#    x 2.069970 0.000000 0.293240 
#    y 0.000000 1.771260 0.000000 
#    z 0.293240 0.000000 1.973430 
# 
# From -- ./inp_files/92545.got.cif
#   From: 2010.05.17/outbox.cif.g08.bks.cpg/sg15_47_cif.got.tgz:92545.got - 2010.06.03 18:47:42.
