data_PCOD9273913
_publ_section_title
;
Structure prediction by ZEFSAII (Michael W. Deem and Ramdas Pophale) SiO2 
 PCOD9273913
Probable space group: C 2/C
;
_chemical_formula_sum "Si O2"
_cell_formula_units_Z 64
_cell_length_a 27.555493
_cell_length_b 13.940780
_cell_length_c 8.950783
_cell_angle_alpha 90.000000
_cell_angle_beta 44.408350
_cell_angle_gamma 90.000000
_cell_volume 2406.079810
_symmetry_space_group_name_H-M "C 2/C"
_symmetry_group_IT_number 15
_symmetry_cell_setting 'monoclinic'
loop_
_space_group_symop_operation_xyz
x,y,z
-x,y,1/2-z
-x,-y,-z
x,-y,1/2+z
1/2+x,1/2+y,z
1/2-x,1/2+y,1/2-z
1/2-x,1/2-y,-z
1/2+x,1/2-y,1/2+z
loop_
_atom_site_type_symbol
_atom_site_label
_atom_site_fract_x
_atom_site_fract_y
_atom_site_fract_z
Si Si1 0.717132 0.866655 0.464082
Si Si2 0.618205 0.734517 0.516251
Si Si3 0.928532 0.678425 0.990236
Si Si4 0.382834 0.623644 0.597387
Si Si5 0.011434 0.606942 0.370548
Si Si6 0.722565 0.950120 0.786860
Si Si7 0.862256 0.333654 0.323791
Si Si8 0.613690 0.526518 0.617873
O O1 0.680791 0.768015 0.490741
O O2 0.800214 0.857405 0.270633
O O3 0.703000 0.902845 0.667203
O O4 0.691622 0.944506 0.395023
O O5 0.556642 0.808142 0.691256
O O6 0.646551 0.755577 0.285996
O O7 0.590945 0.626795 0.593618
O O8 0.877233 0.691886 0.963217
O O9 0.000000 0.674801 0.750000
O O10 0.921812 0.784230 0.073929
O O11 0.936958 0.598236 0.100591
O O12 0.394921 0.538743 0.688286
O O13 0.410853 0.576377 0.384774
O O14 0.000000 0.540572 0.250000
O O15 0.935414 0.618836 0.611084
O O16 0.803972 0.966923 0.595590
O O17 0.704383 0.897638 0.985805
#
# Coordination Sequence:
#
# PCOD9273913 Si02
#       8
#     8   8   8   8   8   8   8   8
#     4  10  22  38  62  86 129 160 205 253 306 367
#     4  11  21  38  61  91 117 165 205 252 305 367
#     4  10  20  38  60  87 118 158 206 254 301 363
#     4  10  22  40  57  87 123 163 203 255 311 356
#     4   9  19  38  60  86 119 155 204 255 300 356
#     4  10  21  39  57  90 121 163 196 254 310 359
#     4  10  22  35  61  89 122 157 204 248 305 362
#     4  10  23  37  61  83 126 160 203 253 305 364
#
# _framework density 26.599283
#
# number of rings (size 3 to 8) (size 9 to 14) (size 15 to 20)
#    0.000    2.000    1.250    1.500    3.500    2.500 
#    0.000    3.125    0.000    5.250    0.000    0.000 
#    0.000    0.000    0.000    0.000    0.000    0.000 
#
# Total GULP energy -178152.063956 kJ/mol
# GULP energy per Si atom -5567.251999 kJ/mol
# Density = 2.653874 g / cm^3
# Si number density = 26.599283 Si / 1000 Ang^3
#
#
#
# Elastic Constant Matrix: (Units=GPa)
#
#
# Indices 1 2 3 4 5 6 
#
# 1 88.0745 33.8533 20.5192 0.0000 32.7652 0.0000
# 2 33.8533 69.4759 26.9293 0.0000 18.7564 0.0000
# 3 20.5192 26.9293 91.0905 0.0000 35.5797 0.0000
# 4 0.0000 0.0000 0.0000 -22.5521 0.0000 143.6656
# 5 32.7652 18.7564 35.5797 0.0000 29.4256 0.0000
# 6 0.0000 0.0000 0.0000 143.6656 0.0000 -237.7635
#
#
#
# Elastic Compliance Matrix: (Units=1/GPa)
#
#
# Indices 1 2 3 4 5 6 
#
# 1 0.024849 -0.006373 0.010436 0.000000 -0.036225 0.000000
# 2 -0.006373 0.019134 -0.004224 0.000000 0.000008 0.000000
# 3 0.010436 -0.004224 0.025323 0.000000 -0.039547 0.000000
# 4 0.000000 0.000000 0.000000 0.015563 0.000000 0.009404
# 5 -0.036225 0.000008 -0.039547 0.000000 0.122134 0.000000
# 6 0.000000 0.000000 0.000000 0.009404 0.000000 0.001476
#
#
# Mechanical properties :
#
#
# Convention : Reuss Voigt Hill
#
# Bulk Modulus (GPa) = 14.49621 45.69382 30.09502
# Shear Modulus (GPa) = 21.57076 -35.02204 -6.72564
#
# Velocity S-wave (km/s) = 2.85081 -3.63251 -1.59185
# Velocity P-wave (km/s) = 4.03706 0.61450 2.82137
#
# Compressibility (1/GPa) = 0.06898353
#
# Stress axis : x y z
#
# Youngs Moduli (GPa) = 40.24340 52.26244 39.48987
#
# Poissons Ratio (x) = 0.33309 -0.41212
# Poissons Ratio (y) = 0.25649 0.16680
# Poissons Ratio (z) = -0.41999 0.22076
#
# Static dielectric constant tensor:
#      x y z
#    x 2.361170 0.000000 0.034310 
#    y 0.000000 2.399630 0.000000 
#    z 0.034310 0.000000 2.076050 
# 
# From -- ./inp_files/70128.got.cif
#   From: 2010.05.17/outbox.cif.g08.bks.cpg/sg15_36_cif.got.tgz:70128.got - 2010.06.03 18:47:42.
