data_PCOD9273170
_publ_section_title
;
Structure prediction by ZEFSAII (Michael W. Deem and Ramdas Pophale) SiO2 
 PCOD9273170
Probable space group: C 2/C
;
_chemical_formula_sum "Si O2"
_cell_formula_units_Z 60
_cell_length_a 11.802595
_cell_length_b 17.433210
_cell_length_c 17.038123
_cell_angle_alpha 90.000000
_cell_angle_beta 63.484930
_cell_angle_gamma 90.000000
_cell_volume 3136.973341
_symmetry_space_group_name_H-M "C 2/C"
_symmetry_group_IT_number 15
_symmetry_cell_setting 'monoclinic'
loop_
_space_group_symop_operation_xyz
x,y,z
-x,y,1/2-z
-x,-y,-z
x,-y,1/2+z
1/2+x,1/2+y,z
1/2-x,1/2+y,1/2-z
1/2-x,1/2-y,-z
1/2+x,1/2-y,1/2+z
loop_
_atom_site_type_symbol
_atom_site_label
_atom_site_fract_x
_atom_site_fract_y
_atom_site_fract_z
Si Si1 0.662191 0.593036 0.571294
Si Si2 0.483999 0.952869 0.086981
Si Si3 0.153324 0.068724 0.327951
Si Si4 0.421071 0.826163 0.993792
Si Si5 0.581841 0.093878 0.304304
Si Si6 0.516919 0.343431 0.500271
Si Si7 0.261035 0.455162 0.057901
Si Si8 0.000000 0.968042 0.250000
O O1 0.772564 0.655806 0.521179
O O2 0.542447 0.611889 0.554938
O O3 0.708620 0.510041 0.526329
O O4 0.607139 0.583437 0.674803
O O5 0.432846 0.873747 0.070864
O O6 0.613718 0.940338 0.093095
O O7 0.403575 0.007041 0.167894
O O8 0.500000 0.000000 0.000000
O O9 0.273651 0.115571 0.257434
O O10 0.060578 0.126755 0.400996
O O11 0.073123 0.021739 0.289338
O O12 0.205892 0.008812 0.377674
O O13 0.480698 0.743763 0.993067
O O14 0.503768 0.861528 0.896149
O O15 0.500000 0.096913 0.250000
O O16 0.657689 0.377385 0.466059
#
# Coordination Sequence:
#
# PCOD9273170 Si02
#       8
#     8   8   8   8   8   8   8   4
#     4  11  20  40  63  88 121 163 217 257 301 374
#     4  10  20  37  63  89 116 159 213 253 297 381
#     4  11  22  37  64  90 122 158 211 266 310 365
#     4  11  24  40  62  91 128 173 202 250 330 395
#     4  11  20  38  64  94 115 158 221 269 299 360
#     4  11  23  42  59  90 133 171 193 252 342 389
#     4  11  19  41  64  86 122 165 207 255 310 378
#     4  12  22  36  66  98 112 156 226 274 296 356
#
# _framework density 19.126715999999998
#
# number of rings (size 3 to 8) (size 9 to 14) (size 15 to 20)
#    0.000    1.067    6.667    2.800    1.867    0.533 
#    3.600    0.000    1.467    0.000    0.000    0.000 
#    0.000    0.000    0.000    0.000    0.000    0.000 
#
# Total GULP energy -167210.694313 kJ/mol
# GULP energy per Si atom -5573.689810 kJ/mol
# Density = 1.908318 g / cm^3
# Si number density = 19.126716 Si / 1000 Ang^3
#
#
#
# Elastic Constant Matrix: (Units=GPa)
#
#
# Indices 1 2 3 4 5 6 
#
# 1 75.2102 -3.5339 12.4241 0.0000 -2.6122 0.0000
# 2 -3.5339 45.9971 16.1066 0.0000 -3.4024 0.0000
# 3 12.4241 16.1066 97.8605 0.0000 -5.5727 0.0000
# 4 0.0000 0.0000 0.0000 11.5003 0.0000 1.1120
# 5 -2.6122 -3.4024 -5.5727 0.0000 16.7827 0.0000
# 6 0.0000 0.0000 0.0000 1.1120 0.0000 24.9437
#
#
#
# Elastic Compliance Matrix: (Units=1/GPa)
#
#
# Indices 1 2 3 4 5 6 
#
# 1 0.013772 0.001880 -0.001951 0.000000 0.001877 0.000000
# 2 0.001880 0.023528 -0.003897 0.000000 0.003769 0.000000
# 3 -0.001951 -0.003897 0.011258 0.000000 0.002645 0.000000
# 4 0.000000 0.000000 0.000000 0.087331 0.000000 -0.003893
# 5 0.001877 0.003769 0.002645 0.000000 0.061519 0.000000
# 6 0.000000 0.000000 0.000000 -0.003893 0.000000 0.040264
#
#
# Mechanical properties :
#
#
# Convention : Reuss Voigt Hill
#
# Bulk Modulus (GPa) = 24.61633 29.89570 27.25601
# Shear Modulus (GPa) = 19.29396 23.58342 21.43869
#
# Velocity S-wave (km/s) = 3.17952 3.51523 3.35158
# Velocity P-wave (km/s) = 5.13587 5.66922 5.40912
#
# Compressibility (1/GPa) = 0.04062344
#
# Stress axis : x y z
#
# Youngs Moduli (GPa) = 72.61174 42.50228 88.82381
#
# Poissons Ratio (x) = -0.07991 0.17330
# Poissons Ratio (y) = -0.13652 0.34610
# Poissons Ratio (z) = 0.14167 0.16561
#
# Static dielectric constant tensor:
#      x y z
#    x 1.677420 0.000000 -0.013180 
#    y 0.000000 1.695880 0.000000 
#    z -0.013180 0.000000 1.698680 
# 
# From -- ./inp_files/199521.got.cif
#   From: 2010.05.17/outbox.cif.g08.bks.cpg/sg15_100_cif.got.tgz:199521.got - 2010.06.03 18:47:42.
