data_PCOD9273912
_publ_section_title
;
Structure prediction by ZEFSAII (Michael W. Deem and Ramdas Pophale) SiO2 
 PCOD9273912
Probable space group: C 2/C
;
_chemical_formula_sum "Si O2"
_cell_formula_units_Z 44
_cell_length_a 7.893657
_cell_length_b 27.114328
_cell_length_c 9.381866
_cell_angle_alpha 90.000000
_cell_angle_beta 115.267525
_cell_angle_gamma 90.000000
_cell_volume 1815.894784
_symmetry_space_group_name_H-M "C 2/C"
_symmetry_group_IT_number 15
_symmetry_cell_setting 'monoclinic'
loop_
_space_group_symop_operation_xyz
x,y,z
-x,y,1/2-z
-x,-y,-z
x,-y,1/2+z
1/2+x,1/2+y,z
1/2-x,1/2+y,1/2-z
1/2-x,1/2-y,-z
1/2+x,1/2-y,1/2+z
loop_
_atom_site_type_symbol
_atom_site_label
_atom_site_fract_x
_atom_site_fract_y
_atom_site_fract_z
Si Si1 0.000000 0.252966 0.250000
Si Si2 0.767993 0.529469 0.806718
Si Si3 0.794007 0.130803 0.632318
Si Si4 0.707785 0.057329 0.995100
Si Si5 0.166479 0.205694 0.067333
Si Si6 0.739591 0.834960 0.420484
O O1 0.166859 0.223820 0.230549
O O2 0.099213 0.290085 0.396723
O O3 0.691651 0.572577 0.881023
O O4 0.704001 0.539573 0.622826
O O5 0.990042 0.541804 0.898015
O O6 0.725672 0.475475 0.849203
O O7 0.732823 0.158624 0.468157
O O8 0.690767 0.143357 0.743560
O O9 0.000000 0.149229 0.750000
O O10 0.732001 0.116193 0.014967
O O11 0.250000 0.250000 0.000000
O O12 0.946718 0.188806 0.990047
#
# Coordination Sequence:
#
# PCOD9273912 Si02
#       6
#     4   8   8   8   8   8
#     4  12  22  38  62  86 116 158 200 254 304 358
#     4   9  17  34  57  88 113 157 194 240 303 357
#     4   9  18  36  59  80 111 153 195 234 292 362
#     4   9  18  33  61  84 119 151 198 246 291 369
#     4  11  23  38  59  86 117 154 206 255 297 365
#     4  10  20  38  60  87 116 158 203 244 301 361
#
# _framework density 24.230478999999999
#
# number of rings (size 3 to 8) (size 9 to 14) (size 15 to 20)
#    0.000    2.182    1.818    2.727    0.000    0.000 
#    3.273    8.182    0.000    0.000    0.000    0.000 
#    0.000    0.000    0.000    0.000    0.000    0.000 
#
# Total GULP energy -122497.136316 kJ/mol
# GULP energy per Si atom -5568.051651 kJ/mol
# Density = 2.417533 g / cm^3
# Si number density = 24.230479 Si / 1000 Ang^3
#
#
#
# Elastic Constant Matrix: (Units=GPa)
#
#
# Indices 1 2 3 4 5 6 
#
# 1 69.0008 26.3620 8.6903 0.0000 -13.9047 0.0000
# 2 26.3620 148.6673 31.7037 0.0000 -18.1455 0.0000
# 3 8.6903 31.7037 36.4170 0.0000 -12.5278 0.0000
# 4 0.0000 0.0000 0.0000 31.7336 0.0000 -13.1203
# 5 -13.9047 -18.1455 -12.5278 0.0000 31.4000 0.0000
# 6 0.0000 0.0000 0.0000 -13.1203 0.0000 29.5180
#
#
#
# Elastic Compliance Matrix: (Units=1/GPa)
#
#
# Indices 1 2 3 4 5 6 
#
# 1 0.016553 -0.002206 0.000062 0.000000 0.006080 0.000000
# 2 -0.002206 0.008688 -0.006544 0.000000 0.001433 0.000000
# 3 0.000062 -0.006544 0.036918 0.000000 0.010975 0.000000
# 4 0.000000 0.000000 0.000000 0.038607 0.000000 0.017160
# 5 0.006080 0.001433 0.010975 0.000000 0.039746 0.000000
# 6 0.000000 0.000000 0.000000 0.017160 0.000000 0.041505
#
#
# Mechanical properties :
#
#
# Convention : Reuss Voigt Hill
#
# Bulk Modulus (GPa) = 22.33049 43.06635 32.69842
# Shear Modulus (GPa) = 23.32944 31.01891 27.17418
#
# Velocity S-wave (km/s) = 3.10629 3.58182 3.35249
# Velocity P-wave (km/s) = 4.70120 5.90915 5.33944
#
# Compressibility (1/GPa) = 0.04478182
#
# Stress axis : x y z
#
# Youngs Moduli (GPa) = 60.41242 115.09963 27.08734
#
# Poissons Ratio (x) = 0.25396 -0.00169
# Poissons Ratio (y) = 0.13329 0.17727
# Poissons Ratio (z) = -0.00376 0.75325
#
# Static dielectric constant tensor:
#      x y z
#    x 2.094500 0.000000 -0.007930 
#    y 0.000000 1.979280 0.000000 
#    z -0.007930 0.000000 1.985450 
# 
# From -- ./inp_files/78358.got.cif
#   From: 2010.05.17/outbox.cif.g08.bks.cpg/sg15_40_cif.got.tgz:78358.got - 2010.06.03 18:47:42.
