data_PCOD9273946
_publ_section_title
;
Structure prediction by ZEFSAII (Michael W. Deem and Ramdas Pophale) SiO2 
 PCOD9273946
Probable space group: C 2/C
;
_chemical_formula_sum "Si O2"
_cell_formula_units_Z 52
_cell_length_a 9.527709
_cell_length_b 23.311682
_cell_length_c 12.204489
_cell_angle_alpha 90.000000
_cell_angle_beta 115.611356
_cell_angle_gamma 90.000000
_cell_volume 2444.366584
_symmetry_space_group_name_H-M "C 2/C"
_symmetry_group_IT_number 15
_symmetry_cell_setting 'monoclinic'
loop_
_space_group_symop_operation_xyz
x,y,z
-x,y,1/2-z
-x,-y,-z
x,-y,1/2+z
1/2+x,1/2+y,z
1/2-x,1/2+y,1/2-z
1/2-x,1/2-y,-z
1/2+x,1/2-y,1/2+z
loop_
_atom_site_type_symbol
_atom_site_label
_atom_site_fract_x
_atom_site_fract_y
_atom_site_fract_z
Si Si1 0.502069 0.342582 0.953843
Si Si2 0.500000 0.428583 0.750000
Si Si3 0.693751 0.096596 0.437617
Si Si4 0.151017 0.143575 0.723959
Si Si5 0.500000 0.182536 0.250000
Si Si6 0.288874 0.243839 0.882174
Si Si7 0.500000 0.988794 0.750000
Si Si8 0.239823 0.527311 0.675445
O O1 0.528887 0.385694 0.862414
O O2 0.351535 0.370854 0.963016
O O3 0.442770 0.279010 0.904769
O O4 0.628457 0.336631 0.091941
O O5 0.350203 0.471461 0.705539
O O6 0.554156 0.142456 0.369933
O O7 0.647211 0.049410 0.332687
O O8 0.717546 0.060452 0.554088
O O9 0.281778 0.179535 0.833632
O O10 0.175272 0.075607 0.723531
O O11 0.000000 0.153407 0.750000
O O12 0.353547 0.222581 0.225020
O O13 0.250000 0.250000 0.000000
O O14 0.567934 0.020114 0.667988
#
# Coordination Sequence:
#
# PCOD9273946 Si02
#       8
#     8   4   8   8   4   8   4   8
#     4  11  23  41  66  98 128 172 227 272 335 389
#     4  12  26  43  67  93 137 180 222 274 328 402
#     4  10  20  38  60  89 126 163 216 262 321 392
#     4  12  21  38  65 102 127 167 221 276 332 388
#     4   9  18  31  58  90 121 156 209 266 312 382
#     4  11  19  37  65  95 127 163 216 277 324 391
#     4  11  24  40  57  91 130 176 215 258 330 392
#     4  12  24  40  64  96 133 175 217 277 331 400
#
# _framework density 21.273405
#
# number of rings (size 3 to 8) (size 9 to 14) (size 15 to 20)
#    0.000    0.923    6.154    1.385    2.154    1.231 
#    0.000    1.538    0.000    0.000    0.000    0.000 
#    0.000    0.000    0.000    0.000    0.000    0.000 
#
# Total GULP energy -144937.196116 kJ/mol
# GULP energy per Si atom -5574.507543 kJ/mol
# Density = 2.122499 g / cm^3
# Si number density = 21.273405 Si / 1000 Ang^3
#
#
#
# Elastic Constant Matrix: (Units=GPa)
#
#
# Indices 1 2 3 4 5 6 
#
# 1 42.2398 24.3407 14.4538 0.0000 -10.2867 0.0000
# 2 24.3407 109.3182 30.0062 0.0000 -11.9099 0.0000
# 3 14.4538 30.0062 92.3094 0.0000 0.3839 0.0000
# 4 0.0000 0.0000 0.0000 38.6358 0.0000 -1.5124
# 5 -10.2867 -11.9099 0.3839 0.0000 18.1201 0.0000
# 6 0.0000 0.0000 0.0000 -1.5124 0.0000 -0.5802
#
#
#
# Elastic Compliance Matrix: (Units=1/GPa)
#
#
# Indices 1 2 3 4 5 6 
#
# 1 0.030972 -0.004319 -0.003507 0.000000 0.014818 0.000000
# 2 -0.004319 0.011523 -0.003091 0.000000 0.005187 0.000000
# 3 -0.003507 -0.003091 0.012405 0.000000 -0.004285 0.000000
# 4 0.000000 0.000000 0.000000 0.023486 0.000000 -0.061221
# 5 0.014818 0.005187 -0.004285 0.000000 0.067100 0.000000
# 6 0.000000 0.000000 0.000000 -0.061221 0.000000 -1.563931
#
#
# Mechanical properties :
#
#
# Convention : Reuss Voigt Hill
#
# Bulk Modulus (GPa) = 30.24328 42.38542 36.31435
# Shear Modulus (GPa) = -3.60857 22.90625 9.64884
#
# Velocity S-wave (km/s) = -1.30383 3.28495 2.13201
# Velocity P-wave (km/s) = 3.46132 5.86134 4.81332
#
# Compressibility (1/GPa) = 0.03306520
#
# Stress axis : x y z
#
# Youngs Moduli (GPa) = 32.28708 86.78417 80.61360
#
# Poissons Ratio (x) = 0.37483 0.28273
# Poissons Ratio (y) = 0.13945 0.24917
# Poissons Ratio (z) = 0.11324 0.26824
#
# Static dielectric constant tensor:
#      x y z
#    x 1.831540 0.000000 0.028450 
#    y 0.000000 1.858200 0.000000 
#    z 0.028450 0.000000 1.842370 
# 
# From -- ./inp_files/80885.got.cif
#   From: 2010.05.17/outbox.cif.g08.bks.cpg/sg15_41_cif.got.tgz:80885.got - 2010.06.03 18:47:42.
