data_PCOD9273421
_publ_section_title
;
Structure prediction by ZEFSAII (Michael W. Deem and Ramdas Pophale) SiO2 
 PCOD9273421
Probable space group: C 2/C
;
_chemical_formula_sum "Si O2"
_cell_formula_units_Z 56
_cell_length_a 10.183748
_cell_length_b 19.735111
_cell_length_c 13.108100
_cell_angle_alpha 90.000000
_cell_angle_beta 90.215899
_cell_angle_gamma 90.000000
_cell_volume 2634.413117
_symmetry_space_group_name_H-M "C 2/C"
_symmetry_group_IT_number 15
_symmetry_cell_setting 'monoclinic'
loop_
_space_group_symop_operation_xyz
x,y,z
-x,y,1/2-z
-x,-y,-z
x,-y,1/2+z
1/2+x,1/2+y,z
1/2-x,1/2+y,1/2-z
1/2-x,1/2-y,-z
1/2+x,1/2-y,1/2+z
loop_
_atom_site_type_symbol
_atom_site_label
_atom_site_fract_x
_atom_site_fract_y
_atom_site_fract_z
Si Si1 0.754571 0.885782 0.789496
Si Si2 0.100676 0.119826 0.832382
Si Si3 0.484131 0.363396 0.953795
Si Si4 0.156324 0.018473 0.395466
Si Si5 0.631849 0.264223 0.821244
Si Si6 0.145157 0.385755 0.297529
Si Si7 0.865773 0.515216 0.060256
O O1 0.778644 0.938175 0.696245
O O2 0.759024 0.810517 0.737256
O O3 0.644557 0.919365 0.863916
O O4 0.881545 0.880850 0.863686
O O5 0.247155 0.117787 0.790601
O O6 0.000000 0.149072 0.750000
O O7 0.068269 0.040580 0.848796
O O8 0.086113 0.154231 0.941582
O O9 0.573342 0.429562 0.961645
O O10 0.581540 0.305061 0.918056
O O11 0.258031 0.981847 0.470885
O O12 0.500000 0.260235 0.750000
O O13 0.664243 0.187470 0.849347
O O14 0.165299 0.449662 0.370336
O O15 0.000000 0.391938 0.250000
O O16 0.000000 0.500000 0.000000
#
# Coordination Sequence:
#
# PCOD9273421 Si02
#       7
#     8   8   8   8   8   8   8
#     4  10  20  39  64  88 120 161 212 261 304 377
#     4  12  22  36  62  97 127 156 212 270 317 365
#     4  10  20  37  65  93 118 158 216 258 315 370
#     4  11  21  37  60  91 122 159 199 265 322 365
#     4   8  19  42  65  89 121 169 214 257 310 380
#     4  11  24  44  64  91 133 173 208 260 322 383
#     4  12  25  38  59  93 128 169 213 255 323 390
#
# _framework density 21.257104999999999
#
# number of rings (size 3 to 8) (size 9 to 14) (size 15 to 20)
#    0.000    1.429    2.857    4.286    0.000    0.000 
#    2.571    8.571    0.000    0.000    0.000    0.000 
#    0.000    0.000    0.000    0.000    0.000    0.000 
#
# Total GULP energy -156190.648775 kJ/mol
# GULP energy per Si atom -5578.237456 kJ/mol
# Density = 2.120872 g / cm^3
# Si number density = 21.257105 Si / 1000 Ang^3
#
#
#
# Elastic Constant Matrix: (Units=GPa)
#
#
# Indices 1 2 3 4 5 6 
#
# 1 66.6860 0.6739 45.5720 0.0000 -25.7768 0.0000
# 2 0.6739 80.0699 5.0340 0.0000 -7.0613 0.0000
# 3 45.5720 5.0340 94.9469 0.0000 -15.8285 0.0000
# 4 0.0000 0.0000 0.0000 10.2017 0.0000 1.5520
# 5 -25.7768 -7.0613 -15.8285 0.0000 38.3636 0.0000
# 6 0.0000 0.0000 0.0000 1.5520 0.0000 -52.6576
#
#
#
# Elastic Compliance Matrix: (Units=1/GPa)
#
#
# Indices 1 2 3 4 5 6 
#
# 1 0.028364 0.001769 -0.011250 0.000000 0.014742 0.000000
# 2 0.001769 0.012814 -0.001006 0.000000 0.003132 0.000000
# 3 -0.011250 -0.001006 0.015780 0.000000 -0.001234 0.000000
# 4 0.000000 0.000000 0.000000 0.097586 0.000000 0.002876
# 5 0.014742 0.003132 -0.001234 0.000000 0.036039 0.000000
# 6 0.000000 0.000000 0.000000 0.002876 0.000000 -0.018906
#
#
# Mechanical properties :
#
#
# Convention : Reuss Voigt Hill
#
# Bulk Modulus (GPa) = 27.79158 38.25139 33.02149
# Shear Modulus (GPa) = 24.43241 11.87641 18.15441
#
# Velocity S-wave (km/s) = 3.39392 2.36625 2.92557
# Velocity P-wave (km/s) = 5.33486 5.04968 5.19422
#
# Compressibility (1/GPa) = 0.03598212
#
# Stress axis : x y z
#
# Youngs Moduli (GPa) = 35.25544 78.04175 63.37250
#
# Poissons Ratio (x) = -0.13803 0.71296
# Poissons Ratio (y) = -0.06236 0.06376
# Poissons Ratio (z) = 0.39663 0.07852
#
# Static dielectric constant tensor:
#      x y z
#    x 2.018410 0.000000 0.132820 
#    y 0.000000 1.813810 0.000000 
#    z 0.132820 0.000000 1.906840 
# 
# From -- ./inp_files/88985.got.cif
#   From: 2010.05.17/outbox.cif.g08.bks.cpg/sg15_45_cif.got.tgz:88985.got - 2010.06.03 18:47:42.
