data_PCOD9273164
_publ_section_title
;
Structure prediction by ZEFSAII (Michael W. Deem and Ramdas Pophale) SiO2 
 PCOD9273164
Probable space group: C 2/C
;
_chemical_formula_sum "Si O2"
_cell_formula_units_Z 40
_cell_length_a 7.288634
_cell_length_b 17.016300
_cell_length_c 17.095021
_cell_angle_alpha 90.000000
_cell_angle_beta 121.643191
_cell_angle_gamma 90.000000
_cell_volume 1805.010444
_symmetry_space_group_name_H-M "C 2/C"
_symmetry_group_IT_number 15
_symmetry_cell_setting 'monoclinic'
loop_
_space_group_symop_operation_xyz
x,y,z
-x,y,1/2-z
-x,-y,-z
x,-y,1/2+z
1/2+x,1/2+y,z
1/2-x,1/2+y,1/2-z
1/2-x,1/2-y,-z
1/2+x,1/2-y,1/2+z
loop_
_atom_site_type_symbol
_atom_site_label
_atom_site_fract_x
_atom_site_fract_y
_atom_site_fract_z
Si Si1 0.574318 0.831249 0.876273
Si Si2 0.097705 0.281080 0.056433
Si Si3 0.393500 0.000556 0.645262
Si Si4 0.215904 0.072909 0.341522
Si Si5 0.702229 0.630070 0.515584
O O1 0.320553 0.850944 0.820075
O O2 0.675505 0.752918 0.863704
O O3 0.679251 0.909624 0.863404
O O4 0.625893 0.825905 0.980629
O O5 0.942984 0.332131 0.075550
O O6 0.960055 0.201606 0.007694
O O7 0.500000 0.025509 0.750000
O O8 0.207671 0.057975 0.576064
O O9 0.589736 0.989732 0.626415
O O10 0.180946 0.096913 0.422915
O O11 0.000000 0.047973 0.250000
#
# Coordination Sequence:
#
# PCOD9273164 Si02
#       5
#     8   8   8   8   8
#     4   8  19  36  57  84 115 152 191 240 283 354
#     4   9  18  36  60  90 113 149 198 235 301 352
#     4  10  22  39  56  87 117 155 199 244 288 348
#     4   9  20  36  58  84 114 151 200 238 290 344
#     4  10  20  37  63  88 116 157 193 248 291 350
#
# _framework density 22.160537000000001
#
# number of rings (size 3 to 8) (size 9 to 14) (size 15 to 20)
#    1.200    1.600    0.000    0.600    2.800    0.800 
#    0.000   11.000    0.000    0.000    0.000    0.000 
#    0.000    0.000    0.000    0.000    0.000    0.000 
#
# Total GULP energy -111359.296116 kJ/mol
# GULP energy per Si atom -5567.964806 kJ/mol
# Density = 2.211010 g / cm^3
# Si number density = 22.160537 Si / 1000 Ang^3
#
#
#
# Elastic Constant Matrix: (Units=GPa)
#
#
# Indices 1 2 3 4 5 6 
#
# 1 49.2080 -0.8109 -0.4109 0.0000 -2.4866 0.0000
# 2 -0.8109 43.8011 35.4480 0.0000 -1.0554 0.0000
# 3 -0.4109 35.4480 64.6295 0.0000 -9.9627 0.0000
# 4 0.0000 0.0000 0.0000 15.4211 0.0000 9.5584
# 5 -2.4866 -1.0554 -9.9627 0.0000 22.8035 0.0000
# 6 0.0000 0.0000 0.0000 9.5584 0.0000 28.4471
#
#
#
# Elastic Compliance Matrix: (Units=1/GPa)
#
#
# Indices 1 2 3 4 5 6 
#
# 1 0.020450 0.000050 0.000479 0.000000 0.002442 0.000000
# 2 0.000050 0.042654 -0.024757 0.000000 -0.008837 0.000000
# 3 0.000479 -0.024757 0.030972 0.000000 0.012438 0.000000
# 4 0.000000 0.000000 0.000000 0.081904 0.000000 -0.027520
# 5 0.002442 -0.008837 0.012438 0.000000 0.049144 0.000000
# 6 0.000000 0.000000 0.000000 -0.027520 0.000000 0.044400
#
#
# Mechanical properties :
#
#
# Convention : Reuss Voigt Hill
#
# Bulk Modulus (GPa) = 21.92024 25.12123 23.52074
# Shear Modulus (GPa) = 15.00661 21.56184 18.28422
#
# Velocity S-wave (km/s) = 2.60509 3.12265 2.87554
# Velocity P-wave (km/s) = 4.35450 4.93578 4.65422
#
# Compressibility (1/GPa) = 0.04561994
#
# Stress axis : x y z
#
# Youngs Moduli (GPa) = 48.89957 23.44442 32.28739
#
# Poissons Ratio (x) = -0.00116 -0.01547
# Poissons Ratio (y) = -0.00243 0.79933
# Poissons Ratio (z) = -0.02343 0.58041
#
# Static dielectric constant tensor:
#      x y z
#    x 1.892670 0.000000 0.047190 
#    y 0.000000 1.838460 0.000000 
#    z 0.047190 0.000000 1.798560 
# 
# From -- ./inp_files/190067.got.cif
#   From: 2010.05.17/outbox.cif.g08.bks.cpg/sg15_96_cif.got.tgz:190067.got - 2010.06.03 18:47:42.
