data_PCOD9273246
_publ_section_title
;
Structure prediction by ZEFSAII (Michael W. Deem and Ramdas Pophale) SiO2 
 PCOD9273246
Probable space group: C 2/C
;
_chemical_formula_sum "Si O2"
_cell_formula_units_Z 56
_cell_length_a 5.165424
_cell_length_b 28.608294
_cell_length_c 19.102481
_cell_angle_alpha 90.000000
_cell_angle_beta 107.223817
_cell_angle_gamma 90.000000
_cell_volume 2696.259753
_symmetry_space_group_name_H-M "C 2/C"
_symmetry_group_IT_number 15
_symmetry_cell_setting 'monoclinic'
loop_
_space_group_symop_operation_xyz
x,y,z
-x,y,1/2-z
-x,-y,-z
x,-y,1/2+z
1/2+x,1/2+y,z
1/2-x,1/2+y,1/2-z
1/2-x,1/2-y,-z
1/2+x,1/2-y,1/2+z
loop_
_atom_site_type_symbol
_atom_site_label
_atom_site_fract_x
_atom_site_fract_y
_atom_site_fract_z
Si Si1 0.895335 0.420879 0.169328
Si Si2 0.396810 0.355931 0.169285
Si Si3 0.188684 0.868991 0.941821
Si Si4 0.316919 0.158582 0.296781
Si Si5 0.934831 0.298144 0.457207
Si Si6 0.767299 0.530549 0.517060
Si Si7 0.249280 0.792315 0.598952
O O1 0.616937 0.393659 0.162473
O O2 0.859027 0.455154 0.102091
O O3 0.000000 0.443414 0.250000
O O4 0.121880 0.382847 0.167185
O O5 0.500000 0.333343 0.250000
O O6 0.323228 0.321279 0.101168
O O7 0.310183 0.866329 0.872617
O O8 0.906095 0.841598 0.910931
O O9 0.338413 0.837665 0.013771
O O10 0.200518 0.921573 0.970129
O O11 0.500000 0.135040 0.250000
O O12 0.500641 0.204654 0.327839
O O13 0.000000 0.165761 0.250000
O O14 0.967876 0.250195 0.415894
O O15 0.878381 0.287002 0.533217
O O16 0.500000 0.500000 0.500000
O O17 0.000000 0.500000 0.500000
#
# Coordination Sequence:
#
# PCOD9273246 Si02
#       7
#     8   8   8   8   8   8   8
#     4  10  21  42  68  91 133 168 206 269 343 391
#     4  10  20  37  63  96 128 174 207 261 333 391
#     4  11  23  43  72  91 142 175 222 286 337 395
#     4  11  23  43  67  95 134 187 229 273 329 387
#     4  10  21  37  64 102 133 175 228 268 328 403
#     4  12  27  43  71 104 126 169 229 275 335 401
#     4  10  22  39  67  99 131 187 223 273 329 392
#
# _framework density 20.769513
#
# number of rings (size 3 to 8) (size 9 to 14) (size 15 to 20)
#    0.000    1.429    2.857    2.143    4.000    0.571 
#    0.000    2.857    0.000    0.000    0.000    0.000 
#    0.000    0.000    0.000    0.000    0.000    0.000 
#
# Total GULP energy -156073.901010 kJ/mol
# GULP energy per Si atom -5574.067893 kJ/mol
# Density = 2.072224 g / cm^3
# Si number density = 20.769513 Si / 1000 Ang^3
#
#
#
# Elastic Constant Matrix: (Units=GPa)
#
#
# Indices 1 2 3 4 5 6 
#
# 1 201.9723 85.3407 38.6424 0.0000 16.4847 0.0000
# 2 85.3407 134.9359 50.7740 0.0000 13.8012 0.0000
# 3 38.6424 50.7740 171.2736 0.0000 15.0563 0.0000
# 4 0.0000 0.0000 0.0000 -8.9489 0.0000 -6.0436
# 5 16.4847 13.8012 15.0563 0.0000 31.4809 0.0000
# 6 0.0000 0.0000 0.0000 -6.0436 0.0000 17.2821
#
#
#
# Elastic Compliance Matrix: (Units=1/GPa)
#
#
# Indices 1 2 3 4 5 6 
#
# 1 0.006854 -0.004091 -0.000183 0.000000 -0.001708 0.000000
# 2 -0.004091 0.010990 -0.002192 0.000000 -0.001627 0.000000
# 3 -0.000183 -0.002192 0.006719 0.000000 -0.002157 0.000000
# 4 0.000000 0.000000 0.000000 -0.090397 0.000000 -0.031612
# 5 -0.001708 -0.001627 -0.002157 0.000000 0.034404 0.000000
# 6 0.000000 0.000000 0.000000 -0.031612 0.000000 0.046808
#
#
# Mechanical properties :
#
#
# Convention : Reuss Voigt Hill
#
# Bulk Modulus (GPa) = 85.98267 95.29953 90.64110
# Shear Modulus (GPa) = 155.33013 30.19115 92.76064
#
# Velocity S-wave (km/s) = 8.65736 3.81678 6.69021
# Velocity P-wave (km/s) = 11.89208 8.08750 10.16930
#
# Compressibility (1/GPa) = 0.01163025
#
# Stress axis : x y z
#
# Youngs Moduli (GPa) = 145.89098 90.99433 148.82413
#
# Poissons Ratio (x) = 0.37229 0.02730
# Poissons Ratio (y) = 0.59690 0.32619
# Poissons Ratio (z) = 0.02676 0.19944
#
# Static dielectric constant tensor:
#      x y z
#    x 1.811090 0.000000 0.019520 
#    y 0.000000 1.762410 0.000000 
#    z 0.019520 0.000000 1.794790 
# 
# From -- ./inp_files/186228.got.cif
#   From: 2010.05.17/outbox.cif.g08.bks.cpg/sg15_94_cif.got.tgz:186228.got - 2010.06.03 18:47:42.
