data_PCOD9273970
_publ_section_title
;
Structure prediction by ZEFSAII (Michael W. Deem and Ramdas Pophale) SiO2 
 PCOD9273970
Probable space group: C 2/C
;
_chemical_formula_sum "Si O2"
_cell_formula_units_Z 64
_cell_length_a 27.936867
_cell_length_b 13.149401
_cell_length_c 8.530623
_cell_angle_alpha 90.000000
_cell_angle_beta 60.601769
_cell_angle_gamma 90.000000
_cell_volume 2730.214230
_symmetry_space_group_name_H-M "C 2/C"
_symmetry_group_IT_number 15
_symmetry_cell_setting 'monoclinic'
loop_
_space_group_symop_operation_xyz
x,y,z
-x,y,1/2-z
-x,-y,-z
x,-y,1/2+z
1/2+x,1/2+y,z
1/2-x,1/2+y,1/2-z
1/2-x,1/2-y,-z
1/2+x,1/2-y,1/2+z
loop_
_atom_site_type_symbol
_atom_site_label
_atom_site_fract_x
_atom_site_fract_y
_atom_site_fract_z
Si Si1 0.822613 0.472280 0.258308
Si Si2 0.358549 0.642476 0.164507
Si Si3 0.730463 0.141275 0.366296
Si Si4 0.382340 0.125358 0.370880
Si Si5 0.036859 0.257894 0.568347
Si Si6 0.979581 0.891617 0.958867
Si Si7 0.304950 0.719239 0.820063
Si Si8 0.629102 0.553818 0.698775
O O1 0.782328 0.556639 0.247227
O O2 0.793098 0.403386 0.435247
O O3 0.872882 0.533966 0.261414
O O4 0.845109 0.409340 0.076361
O O5 0.294618 0.666013 0.270055
O O6 0.372175 0.565851 0.281214
O O7 0.402497 0.730949 0.090626
O O8 0.373015 0.584692 0.978319
O O9 0.699476 0.240149 0.348824
O O10 0.442859 0.152694 0.341318
O O11 0.354119 0.222664 0.333098
O O12 0.000000 0.191261 0.750000
O O13 0.001835 0.220880 0.475356
O O14 0.000000 0.901349 0.750000
O O15 0.916819 0.896672 0.116172
O O16 0.000000 0.000000 0.000000
O O17 0.314572 0.599918 0.822040
O O18 0.250000 0.750000 0.000000
#
# Coordination Sequence:
#
# PCOD9273970 Si02
#       8
#     8   8   8   8   8   8   8   8
#     4   9  21  39  66  93 129 166 207 264 320 382
#     4  12  23  38  61  92 123 170 216 247 314 382
#     4  10  20  38  60  92 128 164 205 259 316 380
#     4  10  21  42  68  95 127 169 214 263 331 381
#     4  12  23  43  67  89 129 170 211 271 320 376
#     4  12  24  41  60  89 126 171 216 265 317 375
#     4  11  21  39  60  88 131 169 213 261 317 385
#     4  12  24  39  61  88 124 171 214 256 316 376
#
# _framework density 23.441386000000001
#
# number of rings (size 3 to 8) (size 9 to 14) (size 15 to 20)
#    0.000    1.000    5.000    1.875    3.500    1.000 
#    0.000    3.125    0.000    0.000    0.000    0.000 
#    0.000    0.000    0.000    0.000    0.000    0.000 
#
# Total GULP energy -178412.940556 kJ/mol
# GULP energy per Si atom -5575.404392 kJ/mol
# Density = 2.338803 g / cm^3
# Si number density = 23.441386 Si / 1000 Ang^3
#
#
#
# Elastic Constant Matrix: (Units=GPa)
#
#
# Indices 1 2 3 4 5 6 
#
# 1 82.4506 3.6075 10.8959 0.0000 -17.1808 0.0000
# 2 3.6075 38.1350 -1.8302 0.0000 -1.4312 0.0000
# 3 10.8959 -1.8302 71.7585 0.0000 15.6627 0.0000
# 4 0.0000 0.0000 0.0000 26.2135 0.0000 1.5377
# 5 -17.1808 -1.4312 15.6627 0.0000 36.0822 0.0000
# 6 0.0000 0.0000 0.0000 1.5377 0.0000 35.2150
#
#
#
# Elastic Compliance Matrix: (Units=1/GPa)
#
#
# Indices 1 2 3 4 5 6 
#
# 1 0.014534 -0.001248 -0.004130 0.000000 0.008664 0.000000
# 2 -0.001248 0.026384 0.000844 0.000000 0.000086 0.000000
# 3 -0.004130 0.000844 0.016577 0.000000 -0.009129 0.000000
# 4 0.000000 0.000000 0.000000 0.038246 0.000000 -0.001670
# 5 0.008664 0.000086 -0.009129 0.000000 0.035806 0.000000
# 6 0.000000 0.000000 0.000000 -0.001670 0.000000 0.028470
#
#
# Mechanical properties :
#
#
# Convention : Reuss Voigt Hill
#
# Bulk Modulus (GPa) = 20.64956 24.18781 22.41869
# Shear Modulus (GPa) = 26.99381 31.48021 29.23701
#
# Velocity S-wave (km/s) = 3.39712 3.66858 3.53546
# Velocity P-wave (km/s) = 4.92092 5.31841 5.12352
#
# Compressibility (1/GPa) = 0.04842719
#
# Stress axis : x y z
#
# Youngs Moduli (GPa) = 68.80352 37.90118 60.32562
#
# Poissons Ratio (x) = 0.04730 0.24913
# Poissons Ratio (y) = 0.08586 -0.05089
# Poissons Ratio (z) = 0.28414 -0.03197
#
# Static dielectric constant tensor:
#      x y z
#    x 2.013410 0.000000 0.016140 
#    y 0.000000 1.992720 0.000000 
#    z 0.016140 0.000000 1.889640 
# 
# From -- ./inp_files/69922.got.cif
#   From: 2010.05.17/outbox.cif.g08.bks.cpg/sg15_35_cif.got.tgz:69922.got - 2010.06.03 18:47:42.
