data_PCOD9273443
_publ_section_title
;
Structure prediction by ZEFSAII (Michael W. Deem and Ramdas Pophale) SiO2 
 PCOD9273443
Probable space group: C 2/C
;
_chemical_formula_sum "Si O2"
_cell_formula_units_Z 52
_cell_length_a 16.890248
_cell_length_b 17.468941
_cell_length_c 9.397161
_cell_angle_alpha 90.000000
_cell_angle_beta 62.022694
_cell_angle_gamma 90.000000
_cell_volume 2448.643828
_symmetry_space_group_name_H-M "C 2/C"
_symmetry_group_IT_number 15
_symmetry_cell_setting 'monoclinic'
loop_
_space_group_symop_operation_xyz
x,y,z
-x,y,1/2-z
-x,-y,-z
x,-y,1/2+z
1/2+x,1/2+y,z
1/2-x,1/2+y,1/2-z
1/2-x,1/2-y,-z
1/2+x,1/2-y,1/2+z
loop_
_atom_site_type_symbol
_atom_site_label
_atom_site_fract_x
_atom_site_fract_y
_atom_site_fract_z
Si Si1 0.351234 0.593115 0.908825
Si Si2 0.508239 0.410742 0.465696
Si Si3 0.259084 0.940079 0.483965
Si Si4 0.202460 0.651729 0.844915
Si Si5 0.500000 0.317909 0.750000
Si Si6 0.064572 0.536247 0.063767
Si Si7 0.307506 0.289755 0.828359
O O1 0.418699 0.597668 0.718300
O O2 0.411767 0.618109 0.990119
O O3 0.313993 0.507571 0.966211
O O4 0.266045 0.638619 0.926196
O O5 0.500000 0.500000 0.500000
O O6 0.531257 0.368833 0.590975
O O7 0.270146 0.898588 0.320304
O O8 0.222137 0.878060 0.629634
O O9 0.352292 0.979781 0.459315
O O10 0.209267 0.739965 0.796708
O O11 0.108310 0.614290 0.968087
O O12 0.411614 0.274882 0.776302
O O13 0.000000 0.551215 0.250000
O O14 0.000000 0.500000 0.000000
O O15 0.250000 0.250000 0.000000
#
# Coordination Sequence:
#
# PCOD9273443 Si02
#       7
#     8   8   8   8   4   8   8
#     4  10  21  36  61  92 130 160 206 272 331 389
#     4  11  20  34  59  93 126 160 206 258 324 398
#     4  10  20  37  65  96 128 169 220 276 333 403
#     4  10  21  39  64  92 129 170 222 274 332 396
#     4  12  24  40  66  90 128 174 220 268 332 406
#     4  11  22  40  66  99 131 173 229 287 343 393
#     4  10  22  40  63  95 125 170 222 273 328 397
#
# _framework density 21.236245
#
# number of rings (size 3 to 8) (size 9 to 14) (size 15 to 20)
#    0.000    1.538    1.538    5.538    0.000    3.692 
#    0.000    0.769    3.385    0.000    2.000    0.000 
#    0.000    0.000    0.000    0.000    0.000    0.000 
#
# Total GULP energy -145214.030906 kJ/mol
# GULP energy per Si atom -5585.155035 kJ/mol
# Density = 2.118791 g / cm^3
# Si number density = 21.236245 Si / 1000 Ang^3
#
#
#
# Elastic Constant Matrix: (Units=GPa)
#
#
# Indices 1 2 3 4 5 6 
#
# 1 94.4223 12.8087 11.6567 0.0000 -3.4685 0.0000
# 2 12.8087 55.6620 18.8714 0.0000 -1.7642 0.0000
# 3 11.6567 18.8714 104.8692 0.0000 -7.3906 0.0000
# 4 0.0000 0.0000 0.0000 35.9405 0.0000 -3.2669
# 5 -3.4685 -1.7642 -7.3906 0.0000 40.8077 0.0000
# 6 0.0000 0.0000 0.0000 -3.2669 0.0000 22.0411
#
#
#
# Elastic Compliance Matrix: (Units=1/GPa)
#
#
# Indices 1 2 3 4 5 6 
#
# 1 0.011017 -0.002252 -0.000770 0.000000 0.000700 0.000000
# 2 -0.002252 0.019595 -0.003271 0.000000 0.000063 0.000000
# 3 -0.000770 -0.003271 0.010327 0.000000 0.001663 0.000000
# 4 0.000000 0.000000 0.000000 0.028204 0.000000 0.004180
# 5 0.000700 0.000063 0.001663 0.000000 0.024869 0.000000
# 6 0.000000 0.000000 0.000000 0.004180 0.000000 0.045989
#
#
# Mechanical properties :
#
#
# Convention : Reuss Voigt Hill
#
# Bulk Modulus (GPa) = 35.27043 37.95858 36.61451
# Shear Modulus (GPa) = 30.85689 33.86563 32.36126
#
# Velocity S-wave (km/s) = 3.81600 3.99771 3.90791
# Velocity P-wave (km/s) = 6.00503 6.26276 6.13525
#
# Compressibility (1/GPa) = 0.02835236
#
# Stress axis : x y z
#
# Youngs Moduli (GPa) = 90.76909 51.03372 96.83163
#
# Poissons Ratio (x) = 0.11492 0.07456
# Poissons Ratio (y) = 0.20441 0.31677
# Poissons Ratio (z) = 0.06990 0.16695
#
# Static dielectric constant tensor:
#      x y z
#    x 1.746930 0.000000 -0.004460 
#    y 0.000000 1.774910 0.000000 
#    z -0.004460 0.000000 1.764200 
# 
# From -- ./inp_files/48958.got.cif
#   From: 2010.05.17/outbox.cif.g08.bks.cpg/sg15_25_cif.got.tgz:48958.got - 2010.06.03 18:47:42.
