data_PCOD9273656
_publ_section_title
;
Structure prediction by ZEFSAII (Michael W. Deem and Ramdas Pophale) SiO2 
 PCOD9273656
Probable space group: C 2/C
;
_chemical_formula_sum "Si O2"
_cell_formula_units_Z 64
_cell_length_a 22.531039
_cell_length_b 22.076082
_cell_length_c 9.953354
_cell_angle_alpha 90.000000
_cell_angle_beta 133.547375
_cell_angle_gamma 90.000000
_cell_volume 3588.341958
_symmetry_space_group_name_H-M "C 2/C"
_symmetry_group_IT_number 15
_symmetry_cell_setting 'monoclinic'
loop_
_space_group_symop_operation_xyz
x,y,z
-x,y,1/2-z
-x,-y,-z
x,-y,1/2+z
1/2+x,1/2+y,z
1/2-x,1/2+y,1/2-z
1/2-x,1/2-y,-z
1/2+x,1/2-y,1/2+z
loop_
_atom_site_type_symbol
_atom_site_label
_atom_site_fract_x
_atom_site_fract_y
_atom_site_fract_z
Si Si1 0.882131 0.122864 0.291959
Si Si2 0.671401 0.551176 0.548932
Si Si3 0.013164 0.346966 0.925283
Si Si4 0.066800 0.878255 0.106377
Si Si5 0.640675 0.046327 0.577621
Si Si6 0.479851 0.265249 0.870991
Si Si7 0.180092 0.909077 0.529480
Si Si8 0.635041 0.066187 0.258860
O O1 0.842988 0.079853 0.119674
O O2 0.902994 0.188373 0.260833
O O3 0.829839 0.125167 0.345222
O O4 0.973092 0.098971 0.474467
O O5 0.611272 0.583968 0.559340
O O6 0.764768 0.559963 0.741561
O O7 0.657486 0.479359 0.520714
O O8 0.000000 0.326795 0.750000
O O9 0.931189 0.380698 0.847094
O O10 0.083660 0.397865 0.031331
O O11 0.032216 0.291319 0.051461
O O12 0.119010 0.883672 0.322199
O O13 0.053145 0.808719 0.039534
O O14 0.631666 0.038369 0.403631
O O15 0.617694 0.985992 0.623291
O O16 0.500000 0.248298 0.750000
O O17 0.273338 0.909631 0.623760
#
# Coordination Sequence:
#
# PCOD9273656 Si02
#       8
#     8   8   8   8   8   8   8   8
#     4  10  22  36  57  84 121 160 197 238 283 338
#     4  11  20  37  57  87 126 152 189 243 292 346
#     4  10  23  43  66  86 111 155 199 239 302 350
#     4  10  20  38  57  82 122 157 195 241 283 339
#     4  10  22  39  64  92 121 149 185 243 297 354
#     4  10  22  42  59  84 117 159 201 248 280 338
#     4  11  22  33  59  91 120 154 193 237 293 349
#     4  10  22  40  62  93 122 147 187 243 296 354
#
# _framework density 17.835535
#
# number of rings (size 3 to 8) (size 9 to 14) (size 15 to 20)
#    0.750    1.000    2.500    1.875    7.000    4.000 
#    0.000    2.500    0.000    0.000    0.000    0.000 
#    0.000    0.000    0.000    0.000    0.000    0.000 
#
# Total GULP energy -178516.109251 kJ/mol
# GULP energy per Si atom -5578.628414 kJ/mol
# Density = 1.779494 g / cm^3
# Si number density = 17.835535 Si / 1000 Ang^3
#
#
#
# Elastic Constant Matrix: (Units=GPa)
#
#
# Indices 1 2 3 4 5 6 
#
# 1 71.2875 16.5429 -3.6932 0.0000 -17.8574 0.0000
# 2 16.5429 25.0029 -2.2599 0.0000 -6.7413 0.0000
# 3 -3.6932 -2.2599 30.2865 0.0000 -14.8004 0.0000
# 4 0.0000 0.0000 0.0000 29.9463 0.0000 -25.5938
# 5 -17.8574 -6.7413 -14.8004 0.0000 23.1326 0.0000
# 6 0.0000 0.0000 0.0000 -25.5938 0.0000 8.5753
#
#
#
# Elastic Compliance Matrix: (Units=1/GPa)
#
#
# Indices 1 2 3 4 5 6 
#
# 1 0.022489 -0.007043 0.014109 0.000000 0.024335 0.000000
# 2 -0.007043 0.049909 0.010644 0.000000 0.015917 0.000000
# 3 0.014109 0.010644 0.061645 0.000000 0.053434 0.000000
# 4 0.000000 0.000000 0.000000 -0.021533 0.000000 -0.064267
# 5 0.024335 0.015917 0.053434 0.000000 0.100840 0.000000
# 6 0.000000 0.000000 0.000000 -0.064267 0.000000 -0.075196
#
#
# Mechanical properties :
#
#
# Convention : Reuss Voigt Hill
#
# Bulk Modulus (GPa) = 5.90106 16.41738 11.15922
# Shear Modulus (GPa) = 31.40260 20.06332 25.73296
#
# Velocity S-wave (km/s) = 4.20059 3.35760 3.80253
# Velocity P-wave (km/s) = 5.18097 4.92506 5.05463
#
# Compressibility (1/GPa) = 0.16946096
#
# Stress axis : x y z
#
# Youngs Moduli (GPa) = 44.46629 20.03650 16.22204
#
# Poissons Ratio (x) = 0.14112 -0.22887
# Poissons Ratio (y) = 0.31318 -0.17266
# Poissons Ratio (z) = -0.62737 -0.21326
#
# Static dielectric constant tensor:
#      x y z
#    x 1.608550 0.000000 -0.000290 
#    y 0.000000 1.583030 0.000000 
#    z -0.000290 0.000000 1.597940 
# 
# From -- ./inp_files/59043.got.cif
#   From: 2010.05.17/outbox.cif.g08.bks.cpg/sg15_30_cif.got.tgz:59043.got - 2010.06.03 18:47:42.
