data_PCOD9273420
_publ_section_title
;
Structure prediction by ZEFSAII (Michael W. Deem and Ramdas Pophale) SiO2 
 PCOD9273420
Probable space group: C 2/C
;
_chemical_formula_sum "Si O2"
_cell_formula_units_Z 32
_cell_length_a 19.796007
_cell_length_b 16.260128
_cell_length_c 12.931017
_cell_angle_alpha 90.000000
_cell_angle_beta 23.635215
_cell_angle_gamma 90.000000
_cell_volume 1668.720037
_symmetry_space_group_name_H-M "C 2/C"
_symmetry_group_IT_number 15
_symmetry_cell_setting 'monoclinic'
loop_
_space_group_symop_operation_xyz
x,y,z
-x,y,1/2-z
-x,-y,-z
x,-y,1/2+z
1/2+x,1/2+y,z
1/2-x,1/2+y,1/2-z
1/2-x,1/2-y,-z
1/2+x,1/2-y,1/2+z
loop_
_atom_site_type_symbol
_atom_site_label
_atom_site_fract_x
_atom_site_fract_y
_atom_site_fract_z
Si Si1 0.655973 0.348667 0.577394
Si Si2 0.021816 0.409671 0.016426
Si Si3 0.718391 0.311377 0.715876
Si Si4 0.938870 0.716176 0.225728
O O1 0.500000 0.398479 0.750000
O O2 0.622224 0.333195 0.745009
O O3 0.674443 0.267818 0.476650
O O4 0.839216 0.387844 0.317708
O O5 0.162027 0.382069 0.904319
O O6 0.056807 0.350447 0.870511
O O7 0.000000 0.500000 0.000000
O O8 0.079459 0.216949 0.493778
O O9 0.750000 0.750000 0.500000
O O10 0.000000 0.682145 0.250000
#
# Coordination Sequence:
#
# PCOD9273420 Si02
#       4
#     8   8   8   8
#     4  10  20  37  65  93 116 159 217 263 317 380
#     4  11  24  41  60  93 132 168 208 271 328 375
#     4  10  20  38  66  89 123 162 214 263 312 385
#     4  11  22  39  64  92 124 173 220 258 317 396
#
# _framework density 19.176373999999999
#
# number of rings (size 3 to 8) (size 9 to 14) (size 15 to 20)
#    0.000    1.500    2.500    5.250    3.500    2.000 
#    4.500    1.250    0.000    0.000    0.000    0.000 
#    0.000    0.000    0.000    0.000    0.000    0.000 
#
# Total GULP energy -89164.566067 kJ/mol
# GULP energy per Si atom -5572.785379 kJ/mol
# Density = 1.913273 g / cm^3
# Si number density = 19.176374 Si / 1000 Ang^3
#
#
#
# Elastic Constant Matrix: (Units=GPa)
#
#
# Indices 1 2 3 4 5 6 
#
# 1 133.3685 12.0006 24.8400 -0.0001 -10.9734 0.0001
# 2 12.0006 57.1998 2.4580 -0.0001 -14.1668 0.0001
# 3 24.8400 2.4580 78.7724 -0.0003 -11.1150 0.0000
# 4 -0.0001 -0.0001 -0.0003 2.7594 0.0000 -4.8694
# 5 -10.9734 -14.1668 -11.1150 0.0000 37.9751 -0.0001
# 6 0.0001 0.0001 0.0000 -4.8694 -0.0001 17.7505
#
#
#
# Elastic Compliance Matrix: (Units=1/GPa)
#
#
# Indices 1 2 3 4 5 6 
#
# 1 0.008154 -0.001319 -0.002365 0.000000 0.001172 0.000000
# 2 -0.001319 0.019490 0.000813 0.000001 0.007128 0.000000
# 3 -0.002365 0.000813 0.013937 0.000002 0.003699 0.000001
# 4 0.000000 0.000001 0.000002 0.702436 0.000001 0.192696
# 5 0.001172 0.007128 0.003699 0.000001 0.030414 0.000000
# 6 0.000000 0.000000 0.000001 0.192696 0.000000 0.109198
#
#
# Mechanical properties :
#
#
# Convention : Reuss Voigt Hill
#
# Bulk Modulus (GPa) = 27.90142 38.65974 33.28058
# Shear Modulus (GPa) = 5.54746 27.03315 16.29030
#
# Velocity S-wave (km/s) = 1.70269 3.75869 2.91778
# Velocity P-wave (km/s) = 4.29500 6.24826 5.36133
#
# Compressibility (1/GPa) = 0.03584048
#
# Stress axis : x y z
#
# Youngs Moduli (GPa) = 122.64636 51.30929 71.75109
#
# Poissons Ratio (x) = 0.06766 0.16966
# Poissons Ratio (y) = 0.16174 -0.05837
# Poissons Ratio (z) = 0.29001 -0.04174
#
# Static dielectric constant tensor:
#      x y z
#    x 1.784830 0.000000 -0.028940 
#    y 0.000000 1.711750 0.000000 
#    z -0.028940 0.000000 1.682240 
# 
# From -- ./inp_files/105098.got.cif
#   From: 2010.05.17/outbox.cif.g08.bks.cpg/sg15_53_cif.got.tgz:105098.got - 2010.06.03 18:47:42.
