data_PCOD9273343
_publ_section_title
;
Structure prediction by ZEFSAII (Michael W. Deem and Ramdas Pophale) SiO2 
 PCOD9273343
Probable space group: C 2/C
;
_chemical_formula_sum "Si O2"
_cell_formula_units_Z 40
_cell_length_a 22.967653
_cell_length_b 4.793782
_cell_length_c 13.322569
_cell_angle_alpha 90.000000
_cell_angle_beta 79.036204
_cell_angle_gamma 90.000000
_cell_volume 1440.067023
_symmetry_space_group_name_H-M "C 2/C"
_symmetry_group_IT_number 15
_symmetry_cell_setting 'monoclinic'
loop_
_space_group_symop_operation_xyz
x,y,z
-x,y,1/2-z
-x,-y,-z
x,-y,1/2+z
1/2+x,1/2+y,z
1/2-x,1/2+y,1/2-z
1/2-x,1/2-y,-z
1/2+x,1/2-y,1/2+z
loop_
_atom_site_type_symbol
_atom_site_label
_atom_site_fract_x
_atom_site_fract_y
_atom_site_fract_z
Si Si1 0.489802 0.746506 0.540535
Si Si2 0.229416 0.763702 0.205595
Si Si3 0.105964 0.483366 0.290654
Si Si4 0.337698 0.638610 0.046188
Si Si5 0.398653 0.881743 0.429301
O O1 0.445906 0.821852 0.646712
O O2 0.528830 0.463241 0.551210
O O3 0.359042 0.664257 0.505433
O O4 0.542561 0.991276 0.529779
O O5 0.125592 0.259625 0.369216
O O6 0.263469 0.594496 0.284797
O O7 0.269387 0.337434 0.600054
O O8 0.336767 0.170281 0.251010
O O9 0.088933 0.340363 0.191579
O O10 0.356011 0.844829 0.951524
#
# Coordination Sequence:
#
# PCOD9273343 Si02
#       5
#     8   8   8   8   8
#     4  11  24  45  66  89 125 166 216 279 331 380
#     4  10  20  37  64  94 134 179 212 258 323 387
#     4  10  24  43  68  98 133 173 221 270 324 390
#     4  10  22  41  63  97 137 169 210 264 320 390
#     4  11  24  42  67  97 129 171 219 267 328 392
#
# _framework density 27.776484
#
# number of rings (size 3 to 8) (size 9 to 14) (size 15 to 20)
#    0.000    1.600    0.000    6.000    0.000   12.000 
#    0.000    4.000    0.000    0.000    0.000    0.000 
#    0.000    0.000    0.000    0.000    0.000    0.000 
#
# Total GULP energy -111734.766441 kJ/mol
# GULP energy per Si atom -5586.738322 kJ/mol
# Density = 2.771326 g / cm^3
# Si number density = 27.776484 Si / 1000 Ang^3
#
#
#
# Elastic Constant Matrix: (Units=GPa)
#
#
# Indices 1 2 3 4 5 6 
#
# 1 132.9008 24.9871 63.5960 0.0000 -54.4258 0.0000
# 2 24.9871 204.8845 57.2920 0.0000 -30.3855 0.0000
# 3 63.5960 57.2920 205.9688 0.0000 -14.9064 0.0000
# 4 0.0000 0.0000 0.0000 37.7045 0.0000 -18.4835
# 5 -54.4258 -30.3855 -14.9064 0.0000 57.1929 0.0000
# 6 0.0000 0.0000 0.0000 -18.4835 0.0000 6.0216
#
#
#
# Elastic Compliance Matrix: (Units=1/GPa)
#
#
# Indices 1 2 3 4 5 6 
#
# 1 0.014798 0.001340 -0.003946 0.000000 0.013765 0.000000
# 2 0.001340 0.005781 -0.001740 0.000000 0.003893 0.000000
# 3 -0.003946 -0.001740 0.006338 0.000000 -0.003027 0.000000
# 4 0.000000 0.000000 0.000000 -0.052545 0.000000 -0.161289
# 5 0.013765 0.003893 -0.003027 0.000000 0.031864 0.000000
# 6 0.000000 0.000000 0.000000 -0.161289 0.000000 -0.329012
#
#
# Mechanical properties :
#
#
# Convention : Reuss Voigt Hill
#
# Bulk Modulus (GPa) = 54.86611 92.83379 73.84995
# Shear Modulus (GPa) = -16.23324 46.70907 15.23791
#
# Velocity S-wave (km/s) = -2.42011 4.10519 2.34474
# Velocity P-wave (km/s) = 3.46213 7.48093 5.82884
#
# Compressibility (1/GPa) = 0.01822619
#
# Stress axis : x y z
#
# Youngs Moduli (GPa) = 67.57796 172.96994 157.77090
#
# Poissons Ratio (x) = -0.23180 0.62249
# Poissons Ratio (y) = -0.09056 0.27454
# Poissons Ratio (z) = 0.26663 0.30099
#
# Static dielectric constant tensor:
#      x y z
#    x 2.369280 0.000000 0.162450 
#    y 0.000000 2.281330 0.000000 
#    z 0.162450 0.000000 2.096380 
# 
# From -- ./inp_files/208059.got.cif
#   From: 2010.05.17/outbox.cif.g08.bks.cpg/sg15_105_cif.got.tgz:208059.got - 2010.06.03 18:47:42.
