data_PCOD9273101
_publ_section_title
;
Structure prediction by ZEFSAII (Michael W. Deem and Ramdas Pophale) SiO2 
 PCOD9273101
Probable space group: C 2/C
;
_chemical_formula_sum "Si O2"
_cell_formula_units_Z 48
_cell_length_a 7.223356
_cell_length_b 15.807597
_cell_length_c 25.624067
_cell_angle_alpha 90.000000
_cell_angle_beta 134.213991
_cell_angle_gamma 90.000000
_cell_volume 2097.078985
_symmetry_space_group_name_H-M "C 2/C"
_symmetry_group_IT_number 15
_symmetry_cell_setting 'monoclinic'
loop_
_space_group_symop_operation_xyz
x,y,z
-x,y,1/2-z
-x,-y,-z
x,-y,1/2+z
1/2+x,1/2+y,z
1/2-x,1/2+y,1/2-z
1/2-x,1/2-y,-z
1/2+x,1/2-y,1/2+z
loop_
_atom_site_type_symbol
_atom_site_label
_atom_site_fract_x
_atom_site_fract_y
_atom_site_fract_z
Si Si1 0.566657 0.044444 0.584121
Si Si2 0.309795 0.102005 0.164559
Si Si3 0.097080 0.963102 0.448852
Si Si4 0.249983 0.877289 0.834294
Si Si5 0.493719 0.280977 0.081721
Si Si6 0.199410 0.790526 0.336677
O O1 0.274738 0.009399 0.526717
O O2 0.608808 0.130207 0.624221
O O3 0.674392 0.063250 0.547219
O O4 0.753478 0.968242 0.639004
O O5 0.500000 0.081929 0.250000
O O6 0.499693 0.112417 0.153072
O O7 0.191713 0.195745 0.148936
O O8 0.100432 0.030837 0.112999
O O9 0.953902 0.874522 0.430016
O O10 0.302314 0.795616 0.880237
O O11 0.000000 0.863804 0.750000
O O12 0.439429 0.291092 0.133546
O O13 0.250000 0.250000 0.000000
O O14 0.000000 0.802583 0.250000
#
# Coordination Sequence:
#
# PCOD9273101 Si02
#       6
#     8   8   8   8   8   8
#     4  10  20  37  62  92 121 163 207 249 308 378
#     4  10  22  40  58  86 126 160 203 260 307 367
#     4  10  21  38  63  90 127 159 203 258 312 365
#     4  11  22  38  63  88 119 164 209 255 311 370
#     4  10  20  40  62  90 125 161 207 256 307 372
#     4   9  20  38  60  85 128 164 203 256 308 370
#
# _framework density 22.888981999999999
#
# number of rings (size 3 to 8) (size 9 to 14) (size 15 to 20)
#    0.000    2.000    1.667    1.500    0.000    3.333 
#    0.000    6.667    0.000    0.000    0.000    0.000 
#    0.000    0.000    0.000    0.000    0.000    0.000 
#
# Total GULP energy -133972.526723 kJ/mol
# GULP energy per Si atom -5582.188613 kJ/mol
# Density = 2.283689 g / cm^3
# Si number density = 22.888982 Si / 1000 Ang^3
#
#
#
# Elastic Constant Matrix: (Units=GPa)
#
#
# Indices 1 2 3 4 5 6 
#
# 1 78.3949 7.3236 14.2912 0.0000 2.0200 0.0000
# 2 7.3236 217.2529 102.2293 0.0000 27.5993 0.0000
# 3 14.2912 102.2293 135.4222 0.0001 9.2515 0.0000
# 4 0.0000 0.0000 0.0001 51.0441 0.0000 1.9841
# 5 2.0200 27.5993 9.2515 0.0000 32.2195 0.0000
# 6 0.0000 0.0000 0.0000 1.9841 0.0000 15.5263
#
#
#
# Elastic Compliance Matrix: (Units=1/GPa)
#
#
# Indices 1 2 3 4 5 6 
#
# 1 0.013035 0.000427 -0.001649 0.000000 -0.000709 0.000000
# 2 0.000427 0.007911 -0.005663 0.000000 -0.005177 0.000000
# 3 -0.001649 -0.005663 0.011725 0.000000 0.001588 0.000000
# 4 0.000000 0.000000 0.000000 0.019689 0.000000 -0.002516
# 5 -0.000709 -0.005177 0.001588 0.000000 0.035060 0.000000
# 6 0.000000 0.000000 0.000000 -0.002516 0.000000 0.064728
#
#
# Mechanical properties :
#
#
# Convention : Reuss Voigt Hill
#
# Bulk Modulus (GPa) = 52.91170 75.41758 64.16464
# Shear Modulus (GPa) = 29.03247 40.23971 34.63609
#
# Velocity S-wave (km/s) = 3.56533 4.19745 3.89423
# Velocity P-wave (km/s) = 6.33369 7.51746 6.95082
#
# Compressibility (1/GPa) = 0.01889941
#
# Stress axis : x y z
#
# Youngs Moduli (GPa) = 76.71654 126.40252 85.28636
#
# Poissons Ratio (x) = -0.05395 0.14066
# Poissons Ratio (y) = -0.03274 0.48302
# Poissons Ratio (z) = 0.12653 0.71588
#
# Static dielectric constant tensor:
#      x y z
#    x 2.200560 0.000000 -0.187510 
#    y 0.000000 1.890820 0.000000 
#    z -0.187510 0.000000 1.907800 
# 
# From -- ./inp_files/289086.got.cif
#   From: 2010.05.17/outbox.cif.g08.bks.cpg/sg15_145_cif.got.tgz:289086.got - 2010.06.03 18:47:42.
