data_PCOD9273763
_publ_section_title
;
Structure prediction by ZEFSAII (Michael W. Deem and Ramdas Pophale) SiO2 
 PCOD9273763
Probable space group: C 2/C
;
_chemical_formula_sum "Si O2"
_cell_formula_units_Z 40
_cell_length_a 17.295428
_cell_length_b 8.919216
_cell_length_c 18.344224
_cell_angle_alpha 90.000000
_cell_angle_beta 48.570145
_cell_angle_gamma 90.000000
_cell_volume 2121.696707
_symmetry_space_group_name_H-M "C 2/C"
_symmetry_group_IT_number 15
_symmetry_cell_setting 'monoclinic'
loop_
_space_group_symop_operation_xyz
x,y,z
-x,y,1/2-z
-x,-y,-z
x,-y,1/2+z
1/2+x,1/2+y,z
1/2-x,1/2+y,1/2-z
1/2-x,1/2-y,-z
1/2+x,1/2-y,1/2+z
loop_
_atom_site_type_symbol
_atom_site_label
_atom_site_fract_x
_atom_site_fract_y
_atom_site_fract_z
Si Si1 0.109934 0.322177 0.653742
Si Si2 0.983739 0.351084 0.059206
Si Si3 0.211982 0.691722 0.443923
Si Si4 0.903719 0.648881 0.769841
Si Si5 0.816803 0.333820 0.054113
O O1 0.113454 0.497753 0.672731
O O2 0.126690 0.298248 0.557493
O O3 0.207504 0.245363 0.629331
O O4 0.000000 0.264970 0.750000
O O5 0.942111 0.390458 0.165217
O O6 0.891041 0.278070 0.072112
O O7 0.000000 0.500000 0.000000
O O8 0.092707 0.266240 0.001232
O O9 0.250000 0.750000 0.500000
O O10 0.298424 0.758785 0.336707
O O11 0.207181 0.511800 0.437823
O O12 0.000000 0.730118 0.750000
#
# Coordination Sequence:
#
# PCOD9273763 Si02
#       5
#     8   8   8   8   8
#     4  10  20  38  59  77 111 157 192 222 293 360
#     4  10  21  37  57  85 118 149 191 241 291 347
#     4  11  19  37  60  84 112 148 192 244 286 344
#     4  11  20  34  61  84 109 155 194 229 294 351
#     4  10  22  37  57  83 115 149 190 242 286 342
#
# _framework density 18.852836
#
# number of rings (size 3 to 8) (size 9 to 14) (size 15 to 20)
#    0.000    1.600    4.000    3.600    0.000    5.600 
#    0.000    1.000    0.000    0.000    0.000    0.000 
#    0.000    0.000    0.000    0.000    0.000    0.000 
#
# Total GULP energy -111443.632787 kJ/mol
# GULP energy per Si atom -5572.181639 kJ/mol
# Density = 1.880993 g / cm^3
# Si number density = 18.852836 Si / 1000 Ang^3
#
#
#
# Elastic Constant Matrix: (Units=GPa)
#
#
# Indices 1 2 3 4 5 6 
#
# 1 178.3710 32.9737 63.1246 0.0000 -20.4583 0.0000
# 2 32.9737 20.8266 9.6365 0.0000 -20.7315 0.0000
# 3 63.1246 9.6365 117.2965 0.0000 -25.9782 0.0000
# 4 0.0000 0.0000 0.0000 21.1518 0.0000 -5.0581
# 5 -20.4583 -20.7315 -25.9782 0.0000 36.3297 0.0000
# 6 0.0000 0.0000 0.0000 -5.0581 0.0000 26.0061
#
#
#
# Elastic Compliance Matrix: (Units=1/GPa)
#
#
# Indices 1 2 3 4 5 6 
#
# 1 0.012848 -0.035122 -0.008157 0.000000 -0.018640 0.000000
# 2 -0.035122 0.210645 0.028323 0.000000 0.120679 0.000000
# 3 -0.008157 0.028323 0.015625 0.000000 0.022742 0.000000
# 4 0.000000 0.000000 0.000000 0.049583 0.000000 0.009644
# 5 -0.018640 0.120679 0.022742 0.000000 0.102156 0.000000
# 6 0.000000 0.000000 0.000000 0.009644 0.000000 0.040328
#
#
# Mechanical properties :
#
#
# Convention : Reuss Voigt Hill
#
# Bulk Modulus (GPa) = 4.77998 58.66264 31.72131
# Shear Modulus (GPa) = 9.41917 30.74814 20.08366
#
# Velocity S-wave (km/s) = 2.23763 4.04289 3.26741
# Velocity P-wave (km/s) = 3.03594 7.27852 5.57646
#
# Compressibility (1/GPa) = 0.20920579
#
# Stress axis : x y z
#
# Youngs Moduli (GPa) = 77.83472 4.74733 63.99948
#
# Poissons Ratio (x) = 0.16674 0.52205
# Poissons Ratio (y) = 2.73371 -1.81266
# Poissons Ratio (z) = 0.63490 -0.13446
#
# Static dielectric constant tensor:
#      x y z
#    x 1.744320 0.000000 -0.012000 
#    y 0.000000 1.664840 0.000000 
#    z -0.012000 0.000000 1.665410 
# 
# From -- ./inp_files/126367.got.cif
#   From: 2010.05.17/outbox.cif.g08.bks.cpg/sg15_64_cif.got.tgz:126367.got - 2010.06.03 18:47:42.
