data_PCOD9273163
_publ_section_title
;
Structure prediction by ZEFSAII (Michael W. Deem and Ramdas Pophale) SiO2 
 PCOD9273163
Probable space group: C 2/C
;
_chemical_formula_sum "Si O2"
_cell_formula_units_Z 56
_cell_length_a 17.107225
_cell_length_b 8.881106
_cell_length_c 25.271891
_cell_angle_alpha 90.000000
_cell_angle_beta 43.755615
_cell_angle_gamma 90.000000
_cell_volume 2655.395410
_symmetry_space_group_name_H-M "C 2/C"
_symmetry_group_IT_number 15
_symmetry_cell_setting 'monoclinic'
loop_
_space_group_symop_operation_xyz
x,y,z
-x,y,1/2-z
-x,-y,-z
x,-y,1/2+z
1/2+x,1/2+y,z
1/2-x,1/2+y,1/2-z
1/2-x,1/2-y,-z
1/2+x,1/2-y,1/2+z
loop_
_atom_site_type_symbol
_atom_site_label
_atom_site_fract_x
_atom_site_fract_y
_atom_site_fract_z
Si Si1 0.151825 0.369646 0.322523
Si Si2 0.952791 0.589391 0.455828
Si Si3 0.283354 0.433581 0.152592
Si Si4 0.616021 0.202448 0.463306
Si Si5 0.827889 0.737797 0.315126
Si Si6 0.053560 0.195179 0.637711
Si Si7 0.007607 0.083843 0.400398
O O1 0.061145 0.496509 0.380675
O O2 0.231088 0.416695 0.236025
O O3 0.228443 0.328479 0.335157
O O4 0.085425 0.217659 0.339682
O O5 0.004265 0.677482 0.481092
O O6 0.915397 0.697909 0.427016
O O7 0.868088 0.458880 0.516810
O O8 0.288769 0.274719 0.120125
O O9 0.212736 0.565245 0.159458
O O10 0.411171 0.491072 0.099483
O O11 0.588189 0.329240 0.520219
O O12 0.936196 0.749905 0.222977
O O13 0.858658 0.798852 0.357471
O O14 0.035331 0.030530 0.622443
#
# Coordination Sequence:
#
# PCOD9273163 Si02
#       7
#     8   8   8   8   8   8   8
#     4  10  20  37  63  91 112 149 204 249 284 338
#     4  10  20  37  63  88 115 156 200 242 289 353
#     4  11  19  35  60  90 115 154 198 251 279 349
#     4  10  21  35  61  86 119 155 202 239 289 345
#     4  10  22  35  61  90 117 151 194 250 298 343
#     4  11  20  38  61  85 121 153 193 241 305 350
#     4  10  21  35  62  86 121 152 197 240 291 352
#
# _framework density 21.089137999999998
#
# number of rings (size 3 to 8) (size 9 to 14) (size 15 to 20)
#    0.000    1.714    4.286    0.429    2.000    0.000 
#    0.000    1.429   18.857    0.000    0.000    0.000 
#    0.000    0.000    0.000    0.000    0.000    0.000 
#
# Total GULP energy -156492.295159 kJ/mol
# GULP energy per Si atom -5589.010541 kJ/mol
# Density = 2.104114 g / cm^3
# Si number density = 21.089138 Si / 1000 Ang^3
#
#
#
# Elastic Constant Matrix: (Units=GPa)
#
#
# Indices 1 2 3 4 5 6 
#
# 1 97.8017 58.1098 21.5395 0.0000 26.9308 0.0000
# 2 58.1098 88.1456 23.2468 0.0001 12.1750 0.0001
# 3 21.5395 23.2468 58.3266 0.0000 10.0177 0.0000
# 4 0.0000 0.0001 0.0000 35.3477 0.0000 12.0523
# 5 26.9308 12.1750 10.0177 0.0000 23.1788 0.0000
# 6 0.0000 0.0001 0.0000 12.0523 0.0000 22.0005
#
#
#
# Elastic Compliance Matrix: (Units=1/GPa)
#
#
# Indices 1 2 3 4 5 6 
#
# 1 0.023328 -0.012522 -0.000106 0.000000 -0.020481 0.000000
# 2 -0.012522 0.019921 -0.004339 0.000000 0.005960 0.000000
# 3 -0.000106 -0.004339 0.019984 0.000000 -0.006234 0.000000
# 4 0.000000 0.000000 0.000000 0.034788 0.000000 -0.019058
# 5 -0.020481 0.005960 -0.006234 0.000000 0.066502 0.000000
# 6 0.000000 0.000000 0.000000 -0.019058 0.000000 0.055894
#
#
# Mechanical properties :
#
#
# Convention : Reuss Voigt Hill
#
# Bulk Modulus (GPa) = 34.13200 50.00734 42.06967
# Shear Modulus (GPa) = 18.93090 25.53057 22.23074
#
# Velocity S-wave (km/s) = 2.99935 3.48315 3.25026
# Velocity P-wave (km/s) = 5.31174 6.31983 5.83759
#
# Compressibility (1/GPa) = 0.02929802
#
# Stress axis : x y z
#
# Youngs Moduli (GPa) = 42.86748 50.19835 50.03920
#
# Poissons Ratio (x) = 0.62857 0.00532
# Poissons Ratio (y) = 0.53678 0.21713
# Poissons Ratio (z) = 0.00456 0.21782
#
# Static dielectric constant tensor:
#      x y z
#    x 1.723520 0.000000 -0.012240 
#    y 0.000000 1.763900 0.000000 
#    z -0.012240 0.000000 1.786640 
# 
# From -- ./inp_files/298119.got.cif
#   From: 2010.05.17/outbox.cif.g08.bks.cpg/sg15_150_cif.got.tgz:298119.got - 2010.06.03 18:47:42.
