data_PCOD9273269
_publ_section_title
;
Structure prediction by ZEFSAII (Michael W. Deem and Ramdas Pophale) SiO2 
 PCOD9273269
Probable space group: C 2/C
;
_chemical_formula_sum "Si O2"
_cell_formula_units_Z 52
_cell_length_a 13.367163
_cell_length_b 5.487189
_cell_length_c 28.605190
_cell_angle_alpha 90.000000
_cell_angle_beta 100.527906
_cell_angle_gamma 90.000000
_cell_volume 2062.817778
_symmetry_space_group_name_H-M "C 2/C"
_symmetry_group_IT_number 15
_symmetry_cell_setting 'monoclinic'
loop_
_space_group_symop_operation_xyz
x,y,z
-x,y,1/2-z
-x,-y,-z
x,-y,1/2+z
1/2+x,1/2+y,z
1/2-x,1/2+y,1/2-z
1/2-x,1/2-y,-z
1/2+x,1/2-y,1/2+z
loop_
_atom_site_type_symbol
_atom_site_label
_atom_site_fract_x
_atom_site_fract_y
_atom_site_fract_z
Si Si1 0.447443 0.822935 0.056649
Si Si2 0.656449 0.912558 0.541027
Si Si3 0.543978 0.082074 0.350204
Si Si4 0.500000 0.758103 0.750000
Si Si5 0.579556 0.457513 0.098636
Si Si6 0.213048 0.021522 0.270271
Si Si7 0.257367 0.839061 0.369468
O O1 0.485507 0.547261 0.058454
O O2 0.546706 0.973073 0.047505
O O3 0.437995 0.870194 0.110872
O O4 0.353934 0.885301 0.015186
O O5 0.656926 0.658825 0.568359
O O6 0.737979 0.067729 0.576556
O O7 0.501040 0.064401 0.294856
O O8 0.468438 0.272392 0.369080
O O9 0.655755 0.190360 0.353980
O O10 0.402454 0.579348 0.741192
O O11 0.642594 0.672904 0.128411
O O12 0.271210 0.786741 0.251793
O O13 0.251622 0.037126 0.327583
#
# Coordination Sequence:
#
# PCOD9273269 Si02
#       7
#     8   8   8   4   8   8   8
#     4   9  19  36  60  92 118 167 207 260 321 391
#     4   9  19  36  61  88 127 157 212 260 319 391
#     4  10  22  41  59  87 125 158 216 260 327 387
#     4  10  24  46  64 100 134 180 224 294 334 414
#     4  10  20  37  64  84 125 165 204 261 326 388
#     4  11  26  45  72 100 137 182 232 282 349 408
#     4  10  23  39  60  94 121 164 213 266 319 398
#
# _framework density 25.208238000000001
#
# number of rings (size 3 to 8) (size 9 to 14) (size 15 to 20)
#    0.000    2.154    0.000    1.385    8.615    3.692 
#    8.308    1.538    0.000    0.000    0.000    0.000 
#    0.000    0.000    0.000    0.000    0.000    0.000 
#
# Total GULP energy -145233.148062 kJ/mol
# GULP energy per Si atom -5585.890310 kJ/mol
# Density = 2.515086 g / cm^3
# Si number density = 25.208238 Si / 1000 Ang^3
#
#
#
# Elastic Constant Matrix: (Units=GPa)
#
#
# Indices 1 2 3 4 5 6 
#
# 1 79.4155 -2.4097 22.1291 0.0000 12.4049 0.0000
# 2 -2.4097 33.7591 15.8873 0.0000 -0.9104 0.0000
# 3 22.1291 15.8873 159.8002 0.0000 7.0748 0.0000
# 4 0.0000 0.0000 0.0000 13.1173 0.0000 14.0289
# 5 12.4049 -0.9104 7.0748 0.0000 34.4087 0.0000
# 6 0.0000 0.0000 0.0000 14.0289 0.0000 -1.1875
#
#
#
# Elastic Compliance Matrix: (Units=1/GPa)
#
#
# Indices 1 2 3 4 5 6 
#
# 1 0.013888 0.001760 -0.001896 0.000000 -0.004570 0.000000
# 2 0.001760 0.031373 -0.003402 0.000000 0.000895 0.000000
# 3 -0.001896 -0.003402 0.006895 0.000000 -0.000824 0.000000
# 4 0.000000 0.000000 0.000000 0.005591 0.000000 0.066054
# 5 -0.004570 0.000895 -0.000824 0.000000 0.030903 0.000000
# 6 0.000000 0.000000 0.000000 0.066054 0.000000 -0.061761
#
#
# Mechanical properties :
#
#
# Convention : Reuss Voigt Hill
#
# Bulk Modulus (GPa) = 22.18316 38.24314 30.21315
# Shear Modulus (GPa) = 102.06006 25.09225 63.57615
#
# Velocity S-wave (km/s) = 6.36983 3.15842 5.02744
# Velocity P-wave (km/s) = 7.93213 5.33897 6.76104
#
# Compressibility (1/GPa) = 0.04507924
#
# Stress axis : x y z
#
# Youngs Moduli (GPa) = 72.00683 31.87491 145.03036
#
# Poissons Ratio (x) = -0.05611 0.27495
# Poissons Ratio (y) = -0.12675 0.49346
# Poissons Ratio (z) = 0.13651 0.10845
#
# Static dielectric constant tensor:
#      x y z
#    x 2.029400 0.000000 -0.035460 
#    y 0.000000 2.055820 0.000000 
#    z -0.035460 0.000000 2.021390 
# 
# From -- ./inp_files/312396.got.cif
#   From: 2010.05.17/outbox.cif.g08.bks.cpg/sg15_157_cif.got.tgz:312396.got - 2010.06.03 18:47:42.
