data_PCOD9273487
_publ_section_title
;
Structure prediction by ZEFSAII (Michael W. Deem and Ramdas Pophale) SiO2 
 PCOD9273487
Probable space group: C 2/C
;
_chemical_formula_sum "Si O2"
_cell_formula_units_Z 40
_cell_length_a 13.039385
_cell_length_b 15.763053
_cell_length_c 11.069867
_cell_angle_alpha 90.000000
_cell_angle_beta 121.082567
_cell_angle_gamma 90.000000
_cell_volume 1948.627295
_symmetry_space_group_name_H-M "C 2/C"
_symmetry_group_IT_number 15
_symmetry_cell_setting 'monoclinic'
loop_
_space_group_symop_operation_xyz
x,y,z
-x,y,1/2-z
-x,-y,-z
x,-y,1/2+z
1/2+x,1/2+y,z
1/2-x,1/2+y,1/2-z
1/2-x,1/2-y,-z
1/2+x,1/2-y,1/2+z
loop_
_atom_site_type_symbol
_atom_site_label
_atom_site_fract_x
_atom_site_fract_y
_atom_site_fract_z
Si Si1 0.359184 0.202609 0.998013
Si Si2 0.978553 0.850823 0.408777
Si Si3 0.314763 0.431917 0.099623
Si Si4 0.824469 0.123010 0.045643
Si Si5 0.633295 0.789370 0.283652
O O1 0.319288 0.105255 0.996949
O O2 0.353477 0.211513 0.850700
O O3 0.250000 0.250000 0.000000
O O4 0.482565 0.253608 0.099667
O O5 0.880586 0.888127 0.255418
O O6 0.933669 0.861895 0.518028
O O7 0.099917 0.903311 0.459294
O O8 0.323610 0.532634 0.108435
O O9 0.821604 0.199205 0.138691
O O10 0.710672 0.136461 0.890501
O O11 0.500000 0.799242 0.250000
#
# Coordination Sequence:
#
# PCOD9273487 Si02
#       5
#     8   8   8   8   8
#     4  10  21  40  62  91 133 168 203 268 329 391
#     4  10  20  37  66  94 126 164 213 268 326 374
#     4  10  22  37  63  97 131 159 220 268 322 385
#     4  11  23  39  66  96 124 172 216 274 316 388
#     4  11  23  41  65  91 132 171 217 261 336 386
#
# _framework density 20.527269
#
# number of rings (size 3 to 8) (size 9 to 14) (size 15 to 20)
#    0.000    1.600    4.000    0.600    2.800    3.200 
#    0.000    1.000   13.200    0.000    0.000    0.000 
#    0.000    0.000    0.000    0.000    0.000    0.000 
#
# Total GULP energy -111508.547379 kJ/mol
# GULP energy per Si atom -5575.427369 kJ/mol
# Density = 2.048055 g / cm^3
# Si number density = 20.527269 Si / 1000 Ang^3
#
#
#
# Elastic Constant Matrix: (Units=GPa)
#
#
# Indices 1 2 3 4 5 6 
#
# 1 65.4220 39.4217 29.1471 0.0000 -9.7961 0.0000
# 2 39.4217 90.9656 11.4404 0.0000 14.6420 0.0000
# 3 29.1471 11.4404 66.6979 0.0000 -7.5909 0.0000
# 4 0.0000 0.0000 0.0000 9.1980 0.0000 1.4277
# 5 -9.7961 14.6420 -7.5909 0.0000 32.4201 0.0000
# 6 0.0000 0.0000 0.0000 1.4277 0.0000 20.0509
#
#
#
# Elastic Compliance Matrix: (Units=1/GPa)
#
#
# Indices 1 2 3 4 5 6 
#
# 1 0.029586 -0.013777 -0.009082 0.000000 0.013035 0.000000
# 2 -0.013777 0.018770 0.001400 0.000000 -0.012312 0.000000
# 3 -0.009082 0.001400 0.018840 0.000000 0.001034 0.000000
# 4 0.000000 0.000000 0.000000 0.109934 0.000000 -0.007828
# 5 0.013035 -0.012312 0.001034 0.000000 0.040587 0.000000
# 6 0.000000 0.000000 0.000000 -0.007828 0.000000 0.050430
#
#
# Mechanical properties :
#
#
# Convention : Reuss Voigt Hill
#
# Bulk Modulus (GPa) = 41.19382 42.56710 41.88046
# Shear Modulus (GPa) = 15.66629 21.87224 18.76927
#
# Velocity S-wave (km/s) = 2.76559 3.26777 3.02712
# Velocity P-wave (km/s) = 5.50540 5.91774 5.71529
#
# Compressibility (1/GPa) = 0.02427549
#
# Stress axis : x y z
#
# Youngs Moduli (GPa) = 33.80026 53.27762 53.07993
#
# Poissons Ratio (x) = 0.73403 0.48208
# Poissons Ratio (y) = 0.46568 -0.07431
# Poissons Ratio (z) = 0.30698 -0.07459
#
# Static dielectric constant tensor:
#      x y z
#    x 1.716990 0.000000 0.016850 
#    y 0.000000 1.760500 0.000000 
#    z 0.016850 0.000000 1.750230 
# 
# From -- ./inp_files/95773.got.cif
#   From: 2010.05.17/outbox.cif.g08.bks.cpg/sg15_48_cif.got.tgz:95773.got - 2010.06.03 18:47:42.
