data_PCOD9273491
_publ_section_title
;
Structure prediction by ZEFSAII (Michael W. Deem and Ramdas Pophale) SiO2 
 PCOD9273491
Probable space group: C 2/C
;
_chemical_formula_sum "Si O2"
_cell_formula_units_Z 60
_cell_length_a 20.594789
_cell_length_b 8.984711
_cell_length_c 16.598704
_cell_angle_alpha 90.000000
_cell_angle_beta 106.802730
_cell_angle_gamma 90.000000
_cell_volume 2940.263790
_symmetry_space_group_name_H-M "C 2/C"
_symmetry_group_IT_number 15
_symmetry_cell_setting 'monoclinic'
loop_
_space_group_symop_operation_xyz
x,y,z
-x,y,1/2-z
-x,-y,-z
x,-y,1/2+z
1/2+x,1/2+y,z
1/2-x,1/2+y,1/2-z
1/2-x,1/2-y,-z
1/2+x,1/2-y,1/2+z
loop_
_atom_site_type_symbol
_atom_site_label
_atom_site_fract_x
_atom_site_fract_y
_atom_site_fract_z
Si Si1 0.173306 0.808906 0.490195
Si Si2 0.500000 0.501492 0.250000
Si Si3 0.894957 0.761798 0.668069
Si Si4 0.022884 0.756009 0.386751
Si Si5 0.462615 0.824097 0.035712
Si Si6 0.357562 0.048739 0.920189
Si Si7 0.225442 0.109789 0.441241
Si Si8 0.437457 0.026424 0.806726
O O1 0.250000 0.750000 0.500000
O O2 0.152960 0.724616 0.566187
O O3 0.105820 0.755306 0.415582
O O4 0.182971 0.984482 0.476352
O O5 0.563110 0.610637 0.273962
O O6 0.501826 0.400401 0.329507
O O7 0.911964 0.758165 0.578654
O O8 0.818391 0.814854 0.645062
O O9 0.918551 0.606871 0.716956
O O10 0.992092 0.754523 0.466660
O O11 0.984649 0.618471 0.329290
O O12 0.523336 0.860870 0.118987
O O13 0.421565 0.971592 0.990750
O O14 0.368707 0.003087 0.832039
O O15 0.291218 0.972032 0.931259
O O16 0.250000 0.250000 0.500000
#
# Coordination Sequence:
#
# PCOD9273491 Si02
#       8
#     8   4   8   8   8   8   8   8
#     4  10  20  37  66  95 126 169 223 273 317 398
#     4  12  26  40  58  98 142 164 212 282 346 388
#     4  12  25  43  64  98 133 179 214 279 342 400
#     4  11  23  41  66 100 131 170 222 279 333 403
#     4  11  20  40  72  94 129 170 229 270 336 408
#     4  10  20  41  67  98 124 173 227 272 330 400
#     4  11  23  43  66  91 135 177 227 267 334 416
#     4  11  22  41  68  98 133 168 221 284 339 397
#
# _framework density 20.406333
#
# number of rings (size 3 to 8) (size 9 to 14) (size 15 to 20)
#    0.000    1.067    6.667    0.800    1.867    0.533 
#    2.400    4.000    0.000    0.000    0.000    0.000 
#    0.000    0.000    0.000    0.000    0.000    0.000 
#
# Total GULP energy -167005.697206 kJ/mol
# GULP energy per Si atom -5566.856574 kJ/mol
# Density = 2.035989 g / cm^3
# Si number density = 20.406333 Si / 1000 Ang^3
#
#
#
# Elastic Constant Matrix: (Units=GPa)
#
#
# Indices 1 2 3 4 5 6 
#
# 1 107.4905 44.9117 41.2107 0.0000 1.7176 0.0000
# 2 44.9117 117.2096 34.7137 0.0000 5.1066 0.0000
# 3 41.2107 34.7137 78.7444 0.0000 0.7645 0.0000
# 4 0.0000 0.0000 0.0000 30.6939 0.0000 5.6067
# 5 1.7176 5.1066 0.7645 0.0000 35.6309 0.0000
# 6 0.0000 0.0000 0.0000 5.6067 0.0000 30.2379
#
#
#
# Elastic Compliance Matrix: (Units=1/GPa)
#
#
# Indices 1 2 3 4 5 6 
#
# 1 0.012674 -0.003325 -0.005167 0.000000 -0.000024 0.000000
# 2 -0.003325 0.010747 -0.002985 0.000000 -0.001316 0.000000
# 3 -0.005167 -0.002985 0.016716 0.000000 0.000318 0.000000
# 4 0.000000 0.000000 0.000000 0.033722 0.000000 -0.006253
# 5 -0.000024 -0.001316 0.000318 0.000000 0.028248 0.000000
# 6 0.000000 0.000000 0.000000 -0.006253 0.000000 0.034230
#
#
# Mechanical properties :
#
#
# Convention : Reuss Voigt Hill
#
# Bulk Modulus (GPa) = 58.19463 60.56853 59.38158
# Shear Modulus (GPa) = 30.29962 31.48644 30.89303
#
# Velocity S-wave (km/s) = 3.85751 3.93233 3.89510
# Velocity P-wave (km/s) = 6.95847 7.09671 7.02793
#
# Compressibility (1/GPa) = 0.01718372
#
# Stress axis : x y z
#
# Youngs Moduli (GPa) = 78.90400 93.04819 59.82270
#
# Poissons Ratio (x) = 0.30938 0.30909
# Poissons Ratio (y) = 0.26235 0.17856
# Poissons Ratio (z) = 0.40767 0.27774
#
# Static dielectric constant tensor:
#      x y z
#    x 1.831960 0.000000 -0.055180 
#    y 0.000000 1.749500 0.000000 
#    z -0.055180 0.000000 1.661410 
# 
# From -- ./inp_files/213959.got.cif
#   From: 2010.05.17/outbox.cif.g08.bks.cpg/sg15_107_cif.got.tgz:213959.got - 2010.06.03 18:47:42.
