data_PCOD9273601
_publ_section_title
;
Structure prediction by ZEFSAII (Michael W. Deem and Ramdas Pophale) SiO2 
 PCOD9273601
Probable space group: C 2/C
;
_chemical_formula_sum "Si O2"
_cell_formula_units_Z 64
_cell_length_a 15.041820
_cell_length_b 25.468953
_cell_length_c 9.126682
_cell_angle_alpha 90.000000
_cell_angle_beta 86.561109
_cell_angle_gamma 90.000000
_cell_volume 3490.130591
_symmetry_space_group_name_H-M "C 2/C"
_symmetry_group_IT_number 15
_symmetry_cell_setting 'monoclinic'
loop_
_space_group_symop_operation_xyz
x,y,z
-x,y,1/2-z
-x,-y,-z
x,-y,1/2+z
1/2+x,1/2+y,z
1/2-x,1/2+y,1/2-z
1/2-x,1/2-y,-z
1/2+x,1/2-y,1/2+z
loop_
_atom_site_type_symbol
_atom_site_label
_atom_site_fract_x
_atom_site_fract_y
_atom_site_fract_z
Si Si1 0.662434 0.674915 0.267766
Si Si2 0.557183 0.387557 0.988076
Si Si3 0.685270 0.201048 0.045262
Si Si4 0.642861 0.425357 0.454954
Si Si5 0.903891 0.989040 0.323748
Si Si6 0.399851 0.707144 0.805621
Si Si7 0.897023 0.707324 0.738660
Si Si8 0.763504 0.174854 0.566638
O O1 0.594660 0.628910 0.324730
O O2 0.752749 0.667566 0.354461
O O3 0.612369 0.730566 0.298868
O O4 0.697807 0.682773 0.099339
O O5 0.449405 0.390638 0.020123
O O6 0.583747 0.443948 0.052897
O O7 0.605244 0.341543 0.079490
O O8 0.609446 0.233738 0.134506
O O9 0.750000 0.250000 0.000000
O O10 0.647741 0.178688 0.897740
O O11 0.637481 0.460785 0.311436
O O12 0.644702 0.462808 0.595167
O O13 0.725374 0.387454 0.423148
O O14 0.000000 0.006413 0.250000
O O15 0.500000 0.700959 0.750000
O O16 0.328275 0.699768 0.683701
O O17 0.834664 0.694768 0.884150
O O18 0.000000 0.694711 0.750000
#
# Coordination Sequence:
#
# PCOD9273601 Si02
#       8
#     8   8   8   8   8   8   8   8
#     4  11  24  35  58  84 119 156 202 239 280 346
#     4  11  19  36  53  80 115 164 190 224 293 349
#     4  10  20  38  55  73 114 153 197 235 280 335
#     4  11  24  36  57  82 119 157 196 246 286 357
#     4  10  21  37  52  80 120 153 194 236 291 344
#     4  12  20  35  55  80 114 158 198 232 287 344
#     4  11  24  40  58  83 117 155 196 244 294 339
#     4  12  24  37  56  83 116 150 204 246 284 344
#
# _framework density 18.337423999999999
#
# number of rings (size 3 to 8) (size 9 to 14) (size 15 to 20)
#    0.000    1.000    7.500    2.250    7.000    0.000 
#    0.000    0.000    0.000    0.000    0.000    0.875 
#    0.000    0.000    0.000    0.000    0.000    0.000 
#
# Total GULP energy -178334.711878 kJ/mol
# GULP energy per Si atom -5572.959746 kJ/mol
# Density = 1.829569 g / cm^3
# Si number density = 18.337424 Si / 1000 Ang^3
#
#
#
# Elastic Constant Matrix: (Units=GPa)
#
#
# Indices 1 2 3 4 5 6 
#
# 1 78.3380 5.7146 36.9053 0.0000 0.0579 0.0000
# 2 5.7146 34.8604 21.8836 0.0000 -8.9065 0.0000
# 3 36.9053 21.8836 101.2847 0.0000 -6.5316 0.0000
# 4 0.0000 0.0000 0.0000 36.9875 0.0000 -9.2560
# 5 0.0579 -8.9065 -6.5316 0.0000 23.5690 0.0000
# 6 0.0000 0.0000 0.0000 -9.2560 0.0000 17.4394
#
#
#
# Elastic Compliance Matrix: (Units=1/GPa)
#
#
# Indices 1 2 3 4 5 6 
#
# 1 0.015490 0.000822 -0.005910 0.000000 -0.001365 0.000000
# 2 0.000822 0.036138 -0.007358 0.000000 0.011615 0.000000
# 3 -0.005910 -0.007358 0.013683 0.000000 0.001026 0.000000
# 4 0.000000 0.000000 0.000000 0.031177 0.000000 0.016547
# 5 -0.001365 0.011615 0.001026 0.000000 0.047105 0.000000
# 6 0.000000 0.000000 0.000000 0.016547 0.000000 0.066124
#
#
# Mechanical properties :
#
#
# Convention : Reuss Voigt Hill
#
# Bulk Modulus (GPa) = 24.74152 38.16555 31.45354
# Shear Modulus (GPa) = 20.15456 25.59783 22.87619
#
# Velocity S-wave (km/s) = 3.31886 3.74027 3.53585
# Velocity P-wave (km/s) = 5.31113 6.28578 5.81889
#
# Compressibility (1/GPa) = 0.04041789
#
# Stress axis : x y z
#
# Youngs Moduli (GPa) = 64.55605 27.67183 73.08591
#
# Poissons Ratio (x) = -0.02274 0.43193
# Poissons Ratio (y) = -0.05305 0.53779
# Poissons Ratio (z) = 0.38152 0.20362
#
# Static dielectric constant tensor:
#      x y z
#    x 1.753730 0.000000 -0.124850 
#    y 0.000000 1.734280 0.000000 
#    z -0.124850 0.000000 1.937300 
# 
# From -- ./inp_files/43543.got.cif
#   From: 2010.05.17/outbox.cif.g08.bks.cpg/sg15_22_cif.got.tgz:43543.got - 2010.06.03 18:47:42.
