data_PCOD9273134
_publ_section_title
;
Structure prediction by ZEFSAII (Michael W. Deem and Ramdas Pophale) SiO2 
 PCOD9273134
Probable space group: C 2/C
;
_chemical_formula_sum "Si O2"
_cell_formula_units_Z 44
_cell_length_a 20.374169
_cell_length_b 17.207764
_cell_length_c 5.284632
_cell_angle_alpha 90.000000
_cell_angle_beta 89.784835
_cell_angle_gamma 90.000000
_cell_volume 1852.746636
_symmetry_space_group_name_H-M "C 2/C"
_symmetry_group_IT_number 15
_symmetry_cell_setting 'monoclinic'
loop_
_space_group_symop_operation_xyz
x,y,z
-x,y,1/2-z
-x,-y,-z
x,-y,1/2+z
1/2+x,1/2+y,z
1/2-x,1/2+y,1/2-z
1/2-x,1/2-y,-z
1/2+x,1/2-y,1/2+z
loop_
_atom_site_type_symbol
_atom_site_label
_atom_site_fract_x
_atom_site_fract_y
_atom_site_fract_z
Si Si1 0.741287 0.606894 0.326850
Si Si2 0.160471 0.805696 0.455243
Si Si3 0.626353 0.048297 0.365222
Si Si4 0.458248 0.801322 0.503209
Si Si5 0.250000 0.250000 0.500000
Si Si6 0.377060 0.482272 0.124291
O O1 0.796606 0.572178 0.147463
O O2 0.772412 0.654497 0.556660
O O3 0.685291 0.543120 0.376531
O O4 0.707408 0.686776 0.206781
O O5 0.094676 0.765569 0.545849
O O6 0.148315 0.895156 0.387624
O O7 0.188212 0.762599 0.210677
O O8 0.581704 0.121812 0.421646
O O9 0.614098 0.987659 0.589750
O O10 0.500000 0.779165 0.750000
O O11 0.500000 0.814041 0.250000
O O12 0.415717 0.498647 0.374227
#
# Coordination Sequence:
#
# PCOD9273134 Si02
#       6
#     8   8   8   8   4   8
#     4  11  24  39  69 110 145 175 223 293 385 445
#     4  11  25  42  69 102 144 180 235 296 362 432
#     4  12  27  45  74 107 147 186 237 298 371 447
#     4  12  30  50  73  99 141 203 259 299 342 416
#     4  12  22  38  70 108 142 184 224 296 380 446
#     4  10  20  37  62  95 135 171 204 267 355 424
#
# _framework density 23.748522000000001
#
# number of rings (size 3 to 8) (size 9 to 14) (size 15 to 20)
#    0.000    0.727    3.636    3.818    5.091    2.182 
#    0.000    0.000    0.000   13.091    0.000    0.000 
#    0.000    0.000    0.000    0.000    0.000    0.000 
#
# Total GULP energy -122660.064498 kJ/mol
# GULP energy per Si atom -5575.457477 kJ/mol
# Density = 2.369447 g / cm^3
# Si number density = 23.748522 Si / 1000 Ang^3
#
#
#
# Elastic Constant Matrix: (Units=GPa)
#
#
# Indices 1 2 3 4 5 6 
#
# 1 44.4663 10.2246 4.0369 0.0000 -10.9047 0.0000
# 2 10.2246 113.0134 -0.7464 0.0000 -20.4761 0.0000
# 3 4.0369 -0.7464 115.3850 0.0000 -16.9965 0.0000
# 4 0.0000 0.0000 0.0000 29.6076 0.0000 10.5561
# 5 -10.9047 -20.4761 -16.9965 0.0000 29.2533 0.0000
# 6 0.0000 0.0000 0.0000 10.5561 0.0000 8.0378
#
#
#
# Elastic Compliance Matrix: (Units=1/GPa)
#
#
# Indices 1 2 3 4 5 6 
#
# 1 0.024816 -0.000592 0.000470 0.000000 0.009110 0.000000
# 2 -0.000592 0.010306 0.001222 0.000000 0.007703 0.000000
# 3 0.000470 0.001222 0.009634 0.000000 0.006628 0.000000
# 4 0.000000 0.000000 0.000000 0.063516 0.000000 -0.083416
# 5 0.009110 0.007703 0.006628 0.000000 0.046823 0.000000
# 6 0.000000 0.000000 0.000000 -0.083416 0.000000 0.233963
#
#
# Mechanical properties :
#
#
# Convention : Reuss Voigt Hill
#
# Bulk Modulus (GPa) = 21.29607 33.32166 27.30887
# Shear Modulus (GPa) = 12.42207 30.66971 21.54589
#
# Velocity S-wave (km/s) = 2.28955 3.59755 3.01533
# Velocity P-wave (km/s) = 3.99702 5.59625 4.86283
#
# Compressibility (1/GPa) = 0.04695703
#
# Stress axis : x y z
#
# Youngs Moduli (GPa) = 40.29608 97.03306 103.79410
#
# Poissons Ratio (x) = 0.05740 -0.04876
# Poissons Ratio (y) = 0.02384 -0.12684
# Poissons Ratio (z) = -0.01893 -0.11858
#
# Static dielectric constant tensor:
#      x y z
#    x 1.480490 0.000000 -0.481530 
#    y 0.000000 1.608750 0.000000 
#    z -0.481530 0.000000 1.372930 
# 
# From -- ./inp_files/12887.got.cif
#   From: 2010.05.17/outbox.cif.g08.bks.cpg/sg15_7_cif.got.tgz:12887.got - 2010.06.03 18:47:42.
