data_PCOD9273401
_publ_section_title
;
Structure prediction by ZEFSAII (Michael W. Deem and Ramdas Pophale) SiO2 
 PCOD9273401
Probable space group: C 2/C
;
_chemical_formula_sum "Si O2"
_cell_formula_units_Z 60
_cell_length_a 10.186527
_cell_length_b 21.822649
_cell_length_c 18.037403
_cell_angle_alpha 90.000000
_cell_angle_beta 136.638900
_cell_angle_gamma 90.000000
_cell_volume 2753.009161
_symmetry_space_group_name_H-M "C 2/C"
_symmetry_group_IT_number 15
_symmetry_cell_setting 'monoclinic'
loop_
_space_group_symop_operation_xyz
x,y,z
-x,y,1/2-z
-x,-y,-z
x,-y,1/2+z
1/2+x,1/2+y,z
1/2-x,1/2+y,1/2-z
1/2-x,1/2-y,-z
1/2+x,1/2-y,1/2+z
loop_
_atom_site_type_symbol
_atom_site_label
_atom_site_fract_x
_atom_site_fract_y
_atom_site_fract_z
Si Si1 0.794053 0.233425 0.635626
Si Si2 0.702452 0.470653 0.327420
Si Si3 0.864648 0.316588 0.281320
Si Si4 0.000000 0.794204 0.750000
Si Si5 0.678033 0.059581 0.457928
Si Si6 0.187397 0.603053 0.118878
Si Si7 0.059634 0.168512 0.952697
Si Si8 0.442790 0.928505 0.102544
O O1 0.703400 0.190424 0.661318
O O2 0.844761 0.193456 0.584261
O O3 0.645915 0.286332 0.550680
O O4 0.000000 0.257662 0.750000
O O5 0.500000 0.439662 0.250000
O O6 0.790479 0.460959 0.444087
O O7 0.693690 0.542874 0.309071
O O8 0.835121 0.444875 0.319005
O O9 0.959112 0.251819 0.300112
O O10 0.668159 0.327485 0.154178
O O11 0.032763 0.366711 0.342104
O O12 0.185508 0.836981 0.829356
O O13 0.488058 0.101253 0.393911
O O14 0.851190 0.100701 0.499759
O O15 0.648287 0.992748 0.407628
O O16 0.131717 0.590088 0.010082
#
# Coordination Sequence:
#
# PCOD9273401 Si02
#       8
#     8   8   8   4   8   8   8   8
#     4   9  20  36  59  92 124 153 192 247 295 344
#     4   9  14  28  54  86 116 141 187 250 298 339
#     4  11  24  39  59  88 123 159 198 238 297 351
#     4  12  26  38  56  82 118 174 196 234 286 360
#     4   9  18  31  60  87 112 147 191 254 300 340
#     4   9  19  33  52  85 117 149 198 240 290 348
#     4  10  20  37  65  90 119 151 196 250 297 351
#     4   9  19  34  54  83 115 152 193 248 299 340
#
# _framework density 21.794333000000002
#
# number of rings (size 3 to 8) (size 9 to 14) (size 15 to 20)
#    0.000    2.400    0.667    4.000    7.467    1.600 
#    0.000    0.000    1.467    0.800    0.000    0.000 
#    0.000    0.000    0.000    0.000    0.000    0.000 
#
# Total GULP energy -167177.186670 kJ/mol
# GULP energy per Si atom -5572.572889 kJ/mol
# Density = 2.174473 g / cm^3
# Si number density = 21.794333 Si / 1000 Ang^3
#
#
#
# Elastic Constant Matrix: (Units=GPa)
#
#
# Indices 1 2 3 4 5 6 
#
# 1 38.8777 21.8684 3.6269 0.0000 -0.3389 -0.0001
# 2 21.8684 157.9372 42.8648 0.0000 14.3248 0.0000
# 3 3.6269 42.8648 55.6287 0.0000 0.7285 -0.0001
# 4 0.0000 0.0000 0.0000 51.8618 0.0000 8.7488
# 5 -0.3389 14.3248 0.7285 0.0000 14.4823 -0.0001
# 6 -0.0001 0.0000 -0.0001 8.7488 -0.0001 -16.3681
#
#
#
# Elastic Compliance Matrix: (Units=1/GPa)
#
#
# Indices 1 2 3 4 5 6 
#
# 1 0.028368 -0.004932 0.001880 0.000000 0.005448 0.000000
# 2 -0.004932 0.009801 -0.007107 0.000000 -0.009452 0.000000
# 3 0.001880 -0.007107 0.023252 0.000000 0.005904 0.000000
# 4 0.000000 0.000000 0.000000 0.017687 0.000000 0.009454
# 5 0.005448 -0.009452 0.005904 0.000000 0.078230 0.000000
# 6 0.000000 0.000000 0.000000 0.009454 0.000000 -0.056041
#
#
# Mechanical properties :
#
#
# Convention : Reuss Voigt Hill
#
# Bulk Modulus (GPa) = 24.32914 43.24044 33.78479
# Shear Modulus (GPa) = 36.95064 22.26742 29.60903
#
# Velocity S-wave (km/s) = 4.12202 3.19988 3.68987
# Velocity P-wave (km/s) = 5.81739 5.79100 5.80421
#
# Compressibility (1/GPa) = 0.04110297
#
# Stress axis : x y z
#
# Youngs Moduli (GPa) = 35.25081 102.03485 43.00633
#
# Poissons Ratio (x) = 0.50325 -0.08084
# Poissons Ratio (y) = 0.17386 0.30562
# Poissons Ratio (z) = -0.06626 0.72511
#
# Static dielectric constant tensor:
#      x y z
#    x 1.871000 0.000000 0.048550 
#    y 0.000000 1.857290 0.000000 
#    z 0.048550 0.000000 1.892520 
# 
# From -- ./inp_files/200541.got.cif
#   From: 2010.05.17/outbox.cif.g08.bks.cpg/sg15_101_cif.got.tgz:200541.got - 2010.06.03 18:47:42.
