data_PCOD9273764
_publ_section_title
;
Structure prediction by ZEFSAII (Michael W. Deem and Ramdas Pophale) SiO2 
 PCOD9273764
Probable space group: C 2/C
;
_chemical_formula_sum "Si O2"
_cell_formula_units_Z 28
_cell_length_a 9.569780
_cell_length_b 10.405898
_cell_length_c 20.216321
_cell_angle_alpha 90.000000
_cell_angle_beta 51.426886
_cell_angle_gamma 90.000000
_cell_volume 1573.934335
_symmetry_space_group_name_H-M "C 2/C"
_symmetry_group_IT_number 15
_symmetry_cell_setting 'monoclinic'
loop_
_space_group_symop_operation_xyz
x,y,z
-x,y,1/2-z
-x,-y,-z
x,-y,1/2+z
1/2+x,1/2+y,z
1/2-x,1/2+y,1/2-z
1/2-x,1/2-y,-z
1/2+x,1/2-y,1/2+z
loop_
_atom_site_type_symbol
_atom_site_label
_atom_site_fract_x
_atom_site_fract_y
_atom_site_fract_z
Si Si1 0.000000 0.240807 0.250000
Si Si2 0.505046 0.155932 0.888972
Si Si3 0.157020 0.011231 0.657858
Si Si4 0.395450 0.565916 0.471524
O O1 0.054346 0.322106 0.297499
O O2 0.847440 0.140353 0.319760
O O3 0.655760 0.075123 0.881392
O O4 0.482503 0.295983 0.928743
O O5 0.311378 0.090148 0.949587
O O6 0.000000 0.069409 0.750000
O O7 0.104105 0.014289 0.596843
O O8 0.500000 0.500000 0.500000
#
# Coordination Sequence:
#
# PCOD9273764 Si02
#       4
#     4   8   8   8
#     4   8  20  34  56  82 112 142 188 222 278 326
#     4  10  20  38  59  77 116 151 175 236 278 315
#     4   9  20  39  54  84 116 140 188 231 269 331
#     4  10  22  38  57  85 110 147 191 222 277 333
#
# _framework density 17.789814
#
# number of rings (size 3 to 8) (size 9 to 14) (size 15 to 20)
#    0.857    1.714    0.000    0.857    4.000    1.143 
#    5.143    0.000    0.000    0.000    0.000    0.000 
#    0.000    0.000    0.000    0.000    0.000    0.000 
#
# Total GULP energy -78003.591666 kJ/mol
# GULP energy per Si atom -5571.685119 kJ/mol
# Density = 1.774932 g / cm^3
# Si number density = 17.789814 Si / 1000 Ang^3
#
#
#
# Elastic Constant Matrix: (Units=GPa)
#
#
# Indices 1 2 3 4 5 6 
#
# 1 175.6739 75.3245 81.8564 0.0000 25.4536 0.0000
# 2 75.3245 49.5384 30.7630 0.0000 6.2025 0.0000
# 3 81.8564 30.7630 85.4290 0.0000 27.7220 0.0000
# 4 0.0000 0.0000 0.0000 4.3376 0.0000 -3.1520
# 5 25.4536 6.2025 27.7220 0.0000 31.0788 0.0000
# 6 0.0000 0.0000 0.0000 -3.1520 0.0000 30.0294
#
#
#
# Elastic Compliance Matrix: (Units=1/GPa)
#
#
# Indices 1 2 3 4 5 6 
#
# 1 0.023778 -0.028711 -0.011238 0.000000 -0.003721 0.000000
# 2 -0.028711 0.061113 0.002577 0.000000 0.009020 0.000000
# 3 -0.011238 0.002577 0.026354 0.000000 -0.014818 0.000000
# 4 0.000000 0.000000 0.000000 0.249577 0.000000 0.026197
# 5 -0.003721 0.009020 -0.014818 0.000000 0.046641 0.000000
# 6 0.000000 0.000000 0.000000 0.026197 0.000000 0.036050
#
#
# Mechanical properties :
#
#
# Convention : Reuss Voigt Hill
#
# Bulk Modulus (GPa) = 27.39638 76.28101 51.83869
# Shear Modulus (GPa) = 9.42640 21.26900 15.34770
#
# Velocity S-wave (km/s) = 2.30440 3.46146 2.94040
# Velocity P-wave (km/s) = 4.74487 7.67774 6.38207
#
# Compressibility (1/GPa) = 0.03650117
#
# Stress axis : x y z
#
# Youngs Moduli (GPa) = 42.05508 16.36313 37.94510
#
# Poissons Ratio (x) = 0.46981 0.42641
# Poissons Ratio (y) = 1.20745 -0.09778
# Poissons Ratio (z) = 0.47260 -0.04217
#
# Static dielectric constant tensor:
#      x y z
#    x 1.551050 0.000000 0.011870 
#    y 0.000000 1.607140 0.000000 
#    z 0.011870 0.000000 1.642980 
# 
# From -- ./inp_files/131465.got.cif
#   From: 2010.05.17/outbox.cif.g08.bks.cpg/sg15_66_cif.got.tgz:131465.got - 2010.06.03 18:47:42.
