data_PCOD9273025
_publ_section_title
;
Structure prediction by ZEFSAII (Michael W. Deem and Ramdas Pophale) SiO2 
 PCOD9273025
Probable space group: C 2/C
;
_chemical_formula_sum "Si O2"
_cell_formula_units_Z 56
_cell_length_a 12.034759
_cell_length_b 12.473135
_cell_length_c 18.713854
_cell_angle_alpha 90.000000
_cell_angle_beta 129.465973
_cell_angle_gamma 90.000000
_cell_volume 2168.676620
_symmetry_space_group_name_H-M "C 2/C"
_symmetry_group_IT_number 15
_symmetry_cell_setting 'monoclinic'
loop_
_space_group_symop_operation_xyz
x,y,z
-x,y,1/2-z
-x,-y,-z
x,-y,1/2+z
1/2+x,1/2+y,z
1/2-x,1/2+y,1/2-z
1/2-x,1/2-y,-z
1/2+x,1/2-y,1/2+z
loop_
_atom_site_type_symbol
_atom_site_label
_atom_site_fract_x
_atom_site_fract_y
_atom_site_fract_z
Si Si1 0.060332 0.148401 0.661675
Si Si2 0.086238 0.102978 0.140281
Si Si3 0.965380 0.588964 0.046868
Si Si4 0.327326 0.690569 0.943113
Si Si5 0.221534 0.891050 0.838342
Si Si6 0.654817 0.026675 0.352464
Si Si7 0.211781 0.859011 0.362594
O O1 0.090987 0.198499 0.599103
O O2 0.916271 0.186754 0.641722
O O3 0.051709 0.022266 0.641313
O O4 0.187373 0.169460 0.770317
O O5 0.115764 0.146591 0.232379
O O6 0.223476 0.093218 0.142047
O O7 0.950122 0.158871 0.048729
O O8 0.867881 0.563341 0.075223
O O9 0.126726 0.598277 0.141816
O O10 0.864753 0.666271 0.958265
O O11 0.000000 0.500000 0.000000
O O12 0.252230 0.807046 0.914493
O O13 0.214384 0.594768 0.885279
O O14 0.187781 0.010647 0.852045
O O15 0.000000 0.530018 0.250000
#
# Coordination Sequence:
#
# PCOD9273025 Si02
#       7
#     8   8   8   8   8   8   8
#     4   9  18  36  61  85 116 165 206 246 296 382
#     4  10  20  40  63  82 127 171 203 245 316 380
#     4  10  20  37  62  88 122 166 206 247 305 375
#     4  11  23  38  63  94 122 157 211 263 312 356
#     4  10  22  39  57  92 128 158 200 265 318 351
#     4  11  21  41  68  92 120 169 216 250 297 386
#     4   9  18  36  61  84 119 164 210 240 304 379
#
# _framework density 25.822198
#
# number of rings (size 3 to 8) (size 9 to 14) (size 15 to 20)
#    0.000    2.000    1.429    3.429    2.000    1.143 
#    7.714    9.286    0.000    0.000    0.000    0.000 
#    0.000    0.000    0.000    0.000    0.000    0.000 
#
# Total GULP energy -156545.072095 kJ/mol
# GULP energy per Si atom -5590.895432 kJ/mol
# Density = 2.576343 g / cm^3
# Si number density = 25.822198 Si / 1000 Ang^3
#
#
#
# Elastic Constant Matrix: (Units=GPa)
#
#
# Indices 1 2 3 4 5 6 
#
# 1 145.1088 12.7727 48.6183 0.0000 -10.5973 0.0000
# 2 12.7727 82.2181 24.1805 0.0000 -5.0926 0.0000
# 3 48.6183 24.1805 180.6892 0.0000 -4.5301 0.0000
# 4 0.0000 0.0000 0.0000 35.8839 0.0000 4.9659
# 5 -10.5973 -5.0926 -4.5301 0.0000 24.8970 0.0000
# 6 0.0000 0.0000 0.0000 4.9659 0.0000 -1.1582
#
#
#
# Elastic Compliance Matrix: (Units=1/GPa)
#
#
# Indices 1 2 3 4 5 6 
#
# 1 0.007800 -0.000456 -0.001966 0.000000 0.002869 0.000000
# 2 -0.000456 0.012819 -0.001539 0.000000 0.002148 0.000000
# 3 -0.001966 -0.001539 0.006269 0.000000 -0.000011 0.000000
# 4 0.000000 0.000000 0.000000 0.017490 0.000000 0.074991
# 5 0.002869 0.002148 -0.000011 0.000000 0.041824 0.000000
# 6 0.000000 0.000000 0.000000 0.074991 0.000000 -0.541893
#
#
# Mechanical properties :
#
#
# Convention : Reuss Voigt Hill
#
# Bulk Modulus (GPa) = 52.72402 64.35101 58.53751
# Shear Modulus (GPa) = -11.32637 33.42086 11.04725
#
# Velocity S-wave (km/s) = -2.09662 3.60150 2.07062
# Velocity P-wave (km/s) = 3.82117 6.50148 5.33248
#
# Compressibility (1/GPa) = 0.01896669
#
# Stress axis : x y z
#
# Youngs Moduli (GPa) = 128.21113 78.00758 159.51584
#
# Poissons Ratio (x) = 0.03556 0.31356
# Poissons Ratio (y) = 0.05845 0.24550
# Poissons Ratio (z) = 0.25203 0.12005
#
# Static dielectric constant tensor:
#      x y z
#    x 2.018710 0.000000 0.033900 
#    y 0.000000 2.188900 0.000000 
#    z 0.033900 0.000000 2.020690 
# 
# From -- ./inp_files/244568.got.cif
#   From: 2010.05.17/outbox.cif.g08.bks.cpg/sg15_123_cif.got.tgz:244568.got - 2010.06.03 18:47:42.
