data_PCOD9273674
_publ_section_title
;
Structure prediction by ZEFSAII (Michael W. Deem and Ramdas Pophale) SiO2 
 PCOD9273674
Probable space group: C 2/C
;
_chemical_formula_sum "Si O2"
_cell_formula_units_Z 36
_cell_length_a 16.739296
_cell_length_b 17.333826
_cell_length_c 5.221161
_cell_angle_alpha 90.000000
_cell_angle_beta 74.856234
_cell_angle_gamma 90.000000
_cell_volume 1462.342249
_symmetry_space_group_name_H-M "C 2/C"
_symmetry_group_IT_number 15
_symmetry_cell_setting 'monoclinic'
loop_
_space_group_symop_operation_xyz
x,y,z
-x,y,1/2-z
-x,-y,-z
x,-y,1/2+z
1/2+x,1/2+y,z
1/2-x,1/2+y,1/2-z
1/2-x,1/2-y,-z
1/2+x,1/2-y,1/2+z
loop_
_atom_site_type_symbol
_atom_site_label
_atom_site_fract_x
_atom_site_fract_y
_atom_site_fract_z
Si Si1 0.500000 0.621974 0.250000
Si Si2 0.293481 0.044606 0.605075
Si Si3 0.348920 0.394536 0.560867
Si Si4 0.584453 0.255758 0.307042
Si Si5 0.207138 0.332253 0.022235
O O1 0.563843 0.580241 0.389149
O O2 0.442208 0.678990 0.463846
O O3 0.194316 0.054994 0.625415
O O4 0.323632 0.007440 0.316989
O O5 0.316035 0.130006 0.687711
O O6 0.363950 0.308081 0.436176
O O7 0.276775 0.385990 0.833180
O O8 0.500000 0.229014 0.250000
O O9 0.630452 0.186206 0.405640
O O10 0.250000 0.250000 0.000000
#
# Coordination Sequence:
#
# PCOD9273674 Si02
#       5
#     4   8   8   8   8
#     4  10  20  38  58 100 140 166 212 284 322 394
#     4  12  26  43  64  98 138 179 222 273 331 399
#     4  11  21  39  66  95 139 169 223 265 338 388
#     4  10  22  36  64 103 135 165 215 285 335 385
#     4  12  22  40  72 101 126 176 229 277 328 392
#
# _framework density 24.618041000000002
#
# number of rings (size 3 to 8) (size 9 to 14) (size 15 to 20)
#    0.000    0.889    6.667    0.667    0.000    0.000 
#    0.000    1.111    0.000    1.333    0.000    0.000 
#    0.000    0.000    0.000    0.000    0.000    0.000 
#
# Total GULP energy -100576.586495 kJ/mol
# GULP energy per Si atom -5587.588139 kJ/mol
# Density = 2.456201 g / cm^3
# Si number density = 24.618041 Si / 1000 Ang^3
#
#
#
# Elastic Constant Matrix: (Units=GPa)
#
#
# Indices 1 2 3 4 5 6 
#
# 1 110.7623 14.5257 23.6834 0.0000 40.1289 0.0000
# 2 14.5257 83.7161 12.2430 0.0000 22.2311 0.0000
# 3 23.6834 12.2430 111.6776 0.0000 27.4827 0.0000
# 4 0.0000 0.0000 0.0000 43.4962 0.0000 22.8308
# 5 40.1289 22.2311 27.4827 0.0000 47.0546 0.0000
# 6 0.0000 0.0000 0.0000 22.8308 0.0000 40.3961
#
#
#
# Elastic Compliance Matrix: (Units=1/GPa)
#
#
# Indices 1 2 3 4 5 6 
#
# 1 0.013111 0.000794 -0.000028 0.000000 -0.011540 0.000000
# 2 0.000794 0.013708 0.000104 0.000000 -0.007214 0.000000
# 3 -0.000028 0.000104 0.010458 0.000000 -0.006134 0.000000
# 4 0.000000 0.000000 0.000000 0.032687 0.000000 -0.018474
# 5 -0.011540 -0.007214 -0.006134 0.000000 0.038084 0.000000
# 6 0.000000 0.000000 0.000000 -0.018474 0.000000 0.035196
#
#
# Mechanical properties :
#
#
# Convention : Reuss Voigt Hill
#
# Bulk Modulus (GPa) = 25.62925 45.22891 35.42908
# Shear Modulus (GPa) = 32.36028 43.23633 37.79830
#
# Velocity S-wave (km/s) = 3.62953 4.19535 3.92266
# Velocity P-wave (km/s) = 5.29131 6.47149 5.91093
#
# Compressibility (1/GPa) = 0.03901792
#
# Stress axis : x y z
#
# Youngs Moduli (GPa) = 76.27097 72.95068 95.61813
#
# Poissons Ratio (x) = -0.05790 0.00263
# Poissons Ratio (y) = -0.06053 -0.00997
# Poissons Ratio (z) = 0.00210 -0.00760
#
# Static dielectric constant tensor:
#      x y z
#    x 1.991440 0.000000 0.013560 
#    y 0.000000 2.040900 0.000000 
#    z 0.013560 0.000000 2.118680 
# 
# From -- ./inp_files/9711.got.cif
#   From: 2010.05.17/outbox.cif.g08.bks.cpg/sg15_5_cif.got.tgz:9711.got - 2010.06.03 18:47:42.
