data_PCOD9273786
_publ_section_title
;
Structure prediction by ZEFSAII (Michael W. Deem and Ramdas Pophale) SiO2 
 PCOD9273786
Probable space group: C 2/C
;
_chemical_formula_sum "Si O2"
_cell_formula_units_Z 48
_cell_length_a 7.733241
_cell_length_b 16.842875
_cell_length_c 25.389515
_cell_angle_alpha 90.000000
_cell_angle_beta 134.039991
_cell_angle_gamma 90.000000
_cell_volume 2377.241673
_symmetry_space_group_name_H-M "C 2/C"
_symmetry_group_IT_number 15
_symmetry_cell_setting 'monoclinic'
loop_
_space_group_symop_operation_xyz
x,y,z
-x,y,1/2-z
-x,-y,-z
x,-y,1/2+z
1/2+x,1/2+y,z
1/2-x,1/2+y,1/2-z
1/2-x,1/2-y,-z
1/2+x,1/2-y,1/2+z
loop_
_atom_site_type_symbol
_atom_site_label
_atom_site_fract_x
_atom_site_fract_y
_atom_site_fract_z
Si Si1 0.169629 0.380050 0.834465
Si Si2 0.359750 0.581019 0.482580
Si Si3 0.748144 0.276742 0.061055
Si Si4 0.295925 0.305254 0.168122
Si Si5 0.686924 0.931976 0.065823
Si Si6 0.722592 0.397287 0.919196
O O1 0.165323 0.410325 0.893871
O O2 0.140561 0.285358 0.831347
O O3 0.445168 0.394297 0.875878
O O4 0.000000 0.408834 0.750000
O O5 0.500000 0.500000 0.500000
O O6 0.541833 0.657018 0.522395
O O7 0.254105 0.574035 0.518654
O O8 0.710014 0.192531 0.084127
O O9 0.020001 0.306213 0.130756
O O10 0.750000 0.250000 0.000000
O O11 0.500000 0.335319 0.250000
O O12 0.309592 0.360310 0.120723
O O13 0.745809 0.017789 0.103036
O O14 0.402274 0.914341 0.006086
#
# Coordination Sequence:
#
# PCOD9273786 Si02
#       6
#     8   8   8   8   8   8
#     4  10  20  40  62  84 121 164 198 238 310 370
#     4  12  22  37  62  92 116 159 209 250 295 353
#     4  11  18  39  62  82 118 165 200 235 305 370
#     4  10  21  39  63  88 118 162 200 245 306 362
#     4  11  21  36  62  91 119 146 211 253 285 359
#     4  10  20  38  59  84 118 161 192 243 300 360
#
# _framework density 20.191468
#
# number of rings (size 3 to 8) (size 9 to 14) (size 15 to 20)
#    0.000    1.333    6.667    0.000    2.333    2.667 
#    3.000    1.667    0.000    6.000    0.000    0.000 
#    0.000    0.000    0.000    0.000    0.000    0.000 
#
# Total GULP energy -133633.534552 kJ/mol
# GULP energy per Si atom -5568.063940 kJ/mol
# Density = 2.014551 g / cm^3
# Si number density = 20.191468 Si / 1000 Ang^3
#
#
#
# Elastic Constant Matrix: (Units=GPa)
#
#
# Indices 1 2 3 4 5 6 
#
# 1 59.3543 44.4675 48.6801 0.0000 0.3306 0.0000
# 2 44.4675 120.1540 38.1621 0.0000 -2.8677 0.0000
# 3 48.6801 38.1621 151.7419 0.0000 -0.0880 0.0000
# 4 0.0000 0.0000 0.0000 21.0980 0.0000 1.8509
# 5 0.3306 -2.8677 -0.0880 0.0000 20.6340 0.0000
# 6 0.0000 0.0000 0.0000 1.8509 0.0000 33.8579
#
#
#
# Elastic Compliance Matrix: (Units=1/GPa)
#
#
# Indices 1 2 3 4 5 6 
#
# 1 0.029175 -0.008547 -0.007211 0.000000 -0.001686 0.000000
# 2 -0.008547 0.011581 -0.000170 0.000000 0.001746 0.000000
# 3 -0.007211 -0.000170 0.008946 0.000000 0.000130 0.000000
# 4 0.000000 0.000000 0.000000 0.047626 0.000000 -0.002604
# 5 -0.001686 0.001746 0.000130 0.000000 0.048734 0.000000
# 6 0.000000 0.000000 0.000000 -0.002604 0.000000 0.029678
#
#
# Mechanical properties :
#
#
# Convention : Reuss Voigt Hill
#
# Bulk Modulus (GPa) = 56.03201 65.98551 61.00876
# Shear Modulus (GPa) = 23.41425 28.44735 25.93080
#
# Velocity S-wave (km/s) = 3.40900 3.75758 3.58752
# Velocity P-wave (km/s) = 6.58070 7.18169 6.88775
#
# Compressibility (1/GPa) = 0.01784694
#
# Stress axis : x y z
#
# Youngs Moduli (GPa) = 34.27581 86.34508 111.77908
#
# Poissons Ratio (x) = 0.73802 0.80604
# Poissons Ratio (y) = 0.29297 0.01896
# Poissons Ratio (z) = 0.24716 0.01464
#
# Static dielectric constant tensor:
#      x y z
#    x 1.768730 0.000000 0.006750 
#    y 0.000000 1.794440 0.000000 
#    z 0.006750 0.000000 1.753320 
# 
# From -- ./inp_files/289113.got.cif
#   From: 2010.05.17/outbox.cif.g08.bks.cpg/sg15_145_cif.got.tgz:289113.got - 2010.06.03 18:47:42.
