data_PCOD9273520
_publ_section_title
;
Structure prediction by ZEFSAII (Michael W. Deem and Ramdas Pophale) SiO2 
 PCOD9273520
Probable space group: C 2/C
;
_chemical_formula_sum "Si O2"
_cell_formula_units_Z 56
_cell_length_a 7.614015
_cell_length_b 17.488032
_cell_length_c 19.165580
_cell_angle_alpha 90.000000
_cell_angle_beta 71.017654
_cell_angle_gamma 90.000000
_cell_volume 2413.196866
_symmetry_space_group_name_H-M "C 2/C"
_symmetry_group_IT_number 15
_symmetry_cell_setting 'monoclinic'
loop_
_space_group_symop_operation_xyz
x,y,z
-x,y,1/2-z
-x,-y,-z
x,-y,1/2+z
1/2+x,1/2+y,z
1/2-x,1/2+y,1/2-z
1/2-x,1/2-y,-z
1/2+x,1/2-y,1/2+z
loop_
_atom_site_type_symbol
_atom_site_label
_atom_site_fract_x
_atom_site_fract_y
_atom_site_fract_z
Si Si1 0.498056 0.884165 0.020883
Si Si2 0.180461 0.099196 0.802857
Si Si3 0.879154 0.075952 0.528333
Si Si4 0.493838 0.287452 0.922165
Si Si5 0.677184 0.137193 0.370852
Si Si6 0.295418 0.732345 0.240345
Si Si7 0.271227 0.532281 0.839050
O O1 0.692463 0.927489 0.007349
O O2 0.513149 0.798169 0.048046
O O3 0.352613 0.928893 0.085902
O O4 0.489048 0.877751 0.938360
O O5 0.200773 0.090105 0.883282
O O6 0.220433 0.183847 0.769050
O O7 0.293598 0.048396 0.732087
O O8 0.968561 0.072492 0.822313
O O9 0.991969 0.149433 0.483807
O O10 0.000000 0.000000 0.500000
O O11 0.307688 0.307143 0.901218
O O12 0.663414 0.287196 0.845179
O O13 0.661274 0.174843 0.297893
O O14 0.784336 0.057770 0.347261
O O15 0.500000 0.726743 0.250000
#
# Coordination Sequence:
#
# PCOD9273520 Si02
#       7
#     8   8   8   8   8   8   8
#     4  11  21  43  64  92 125 160 207 253 310 367
#     4  11  23  40  60  90 123 161 207 244 315 359
#     4  11  23  37  64  94 128 157 206 263 310 359
#     4  10  20  38  64  93 120 161 211 252 302 373
#     4  10  21  36  65  92 119 160 209 247 298 374
#     4  10  20  37  67  90 117 160 214 253 298 365
#     4  11  25  39  64  89 127 164 204 252 304 378
#
# _framework density 23.205732999999999
#
# number of rings (size 3 to 8) (size 9 to 14) (size 15 to 20)
#    0.000    1.429    1.429    6.429    8.000    0.000 
#    0.000    4.286    0.000    0.000    0.000    0.000 
#    0.000    0.000    0.000    0.000    0.000    0.000 
#
# Total GULP energy -156385.410920 kJ/mol
# GULP energy per Si atom -5585.193247 kJ/mol
# Density = 2.315292 g / cm^3
# Si number density = 23.205733 Si / 1000 Ang^3
#
#
#
# Elastic Constant Matrix: (Units=GPa)
#
#
# Indices 1 2 3 4 5 6 
#
# 1 15.8879 5.7129 10.2718 0.0000 -6.7226 0.0000
# 2 5.7129 78.3230 28.7594 0.0000 -1.2981 0.0000
# 3 10.2718 28.7594 199.3054 0.0000 -3.0145 0.0000
# 4 0.0000 0.0000 0.0000 53.1987 0.0000 -0.2104
# 5 -6.7226 -1.2981 -3.0145 0.0000 28.7600 0.0000
# 6 0.0000 0.0000 0.0000 -0.2104 0.0000 17.3356
#
#
#
# Elastic Compliance Matrix: (Units=1/GPa)
#
#
# Indices 1 2 3 4 5 6 
#
# 1 0.073329 -0.003989 -0.002952 0.000000 0.016651 0.000000
# 2 -0.003989 0.013704 -0.001779 0.000000 -0.000500 0.000000
# 3 -0.002952 -0.001779 0.005423 0.000000 -0.000202 0.000000
# 4 0.000000 0.000000 0.000000 0.018798 0.000000 0.000228
# 5 0.016651 -0.000500 -0.000202 0.000000 0.038619 0.000000
# 6 0.000000 0.000000 0.000000 0.000228 0.000000 0.057688
#
#
# Mechanical properties :
#
#
# Convention : Reuss Voigt Hill
#
# Bulk Modulus (GPa) = 13.33043 42.55605 27.94324
# Shear Modulus (GPa) = 19.99945 36.44366 28.22155
#
# Velocity S-wave (km/s) = 2.93888 3.96720 3.49111
# Velocity P-wave (km/s) = 4.15608 6.27402 5.32148
#
# Compressibility (1/GPa) = 0.07501636
#
# Stress axis : x y z
#
# Youngs Moduli (GPa) = 13.63708 72.97316 184.39060
#
# Poissons Ratio (x) = 0.29107 0.54429
# Poissons Ratio (y) = 0.05440 0.32811
# Poissons Ratio (z) = 0.04025 0.12985
#
# Static dielectric constant tensor:
#      x y z
#    x 1.965190 0.000000 0.113240 
#    y 0.000000 1.837970 0.000000 
#    z 0.113240 0.000000 2.091910 
# 
# From -- ./inp_files/232577.got.cif
#   From: 2010.05.17/outbox.cif.g08.bks.cpg/sg15_117_cif.got.tgz:232577.got - 2010.06.03 18:47:42.
