data_PCOD9273718
_publ_section_title
;
Structure prediction by ZEFSAII (Michael W. Deem and Ramdas Pophale) SiO2 
 PCOD9273718
Probable space group: C 2/C
;
_chemical_formula_sum "Si O2"
_cell_formula_units_Z 48
_cell_length_a 12.232328
_cell_length_b 16.075529
_cell_length_c 12.200899
_cell_angle_alpha 90.000000
_cell_angle_beta 79.307833
_cell_angle_gamma 90.000000
_cell_volume 2357.544251
_symmetry_space_group_name_H-M "C 2/C"
_symmetry_group_IT_number 15
_symmetry_cell_setting 'monoclinic'
loop_
_space_group_symop_operation_xyz
x,y,z
-x,y,1/2-z
-x,-y,-z
x,-y,1/2+z
1/2+x,1/2+y,z
1/2-x,1/2+y,1/2-z
1/2-x,1/2-y,-z
1/2+x,1/2-y,1/2+z
loop_
_atom_site_type_symbol
_atom_site_label
_atom_site_fract_x
_atom_site_fract_y
_atom_site_fract_z
Si Si1 0.223678 0.861176 0.659974
Si Si2 0.169033 0.675205 0.672748
Si Si3 0.946627 0.399917 0.107904
Si Si4 0.070131 0.925638 0.851282
Si Si5 0.380910 0.593980 0.530551
Si Si6 0.965793 0.597058 0.133767
O O1 0.163173 0.773324 0.652913
O O2 0.186442 0.890455 0.786883
O O3 0.186063 0.924033 0.570549
O O4 0.354590 0.852457 0.628364
O O5 0.141391 0.650664 0.803134
O O6 0.292092 0.648695 0.612528
O O7 0.069931 0.628367 0.626150
O O8 0.936220 0.498406 0.133149
O O9 0.944860 0.387289 0.978086
O O10 0.000000 0.928252 0.750000
O O11 0.090965 0.015339 0.899865
O O12 0.998823 0.876382 0.956506
O O13 0.000000 0.616323 0.250000
#
# Coordination Sequence:
#
# PCOD9273718 Si02
#       6
#     8   8   8   8   8   8
#     4  11  23  36  66  91 122 163 210 256 312 365
#     4  11  21  38  62  94 120 161 207 262 303 367
#     4  10  23  37  64  92 123 163 210 258 305 370
#     4   9  21  36  58  90 118 161 203 255 303 371
#     4  10  20  38  58  87 124 159 208 252 303 373
#     4  11  22  41  61  95 123 166 209 259 309 372
#
# _framework density 20.360168999999999
#
# number of rings (size 3 to 8) (size 9 to 14) (size 15 to 20)
#    0.000    1.667    3.333    1.500    7.000    0.000 
#    0.000    1.667    0.000    0.000    0.000    0.000 
#    0.000    0.000    0.000    0.000    0.000    0.000 
#
# Total GULP energy -133714.880874 kJ/mol
# GULP energy per Si atom -5571.453370 kJ/mol
# Density = 2.031383 g / cm^3
# Si number density = 20.360169 Si / 1000 Ang^3
#
#
#
# Elastic Constant Matrix: (Units=GPa)
#
#
# Indices 1 2 3 4 5 6 
#
# 1 18.8116 4.0666 27.1940 0.0000 -12.3790 0.0000
# 2 4.0666 61.7440 17.8007 0.0000 -9.8036 0.0000
# 3 27.1940 17.8007 157.4940 0.0000 -31.7485 0.0000
# 4 0.0000 0.0000 0.0000 1.9439 0.0000 -7.4641
# 5 -12.3790 -9.8036 -31.7485 0.0000 32.0469 0.0000
# 6 0.0000 0.0000 0.0000 -7.4641 0.0000 27.3432
#
#
#
# Elastic Compliance Matrix: (Units=1/GPa)
#
#
# Indices 1 2 3 4 5 6 
#
# 1 0.081610 0.000951 -0.009728 0.000000 0.022177 0.000000
# 2 0.000951 0.017186 -0.001215 0.000000 0.004420 0.000000
# 3 -0.009728 -0.001215 0.009164 0.000000 0.004949 0.000000
# 4 0.000000 0.000000 0.000000-10.678676 0.000000 -2.915044
# 5 0.022177 0.004420 0.004949 0.000000 0.046026 0.000000
# 6 0.000000 0.000000 0.000000 -2.915044 0.000000 -0.759171
#
#
# Mechanical properties :
#
#
# Convention : Reuss Voigt Hill
#
# Bulk Modulus (GPa) = 11.36696 37.35248 24.35972
# Shear Modulus (GPa) = -0.44506 24.86602 12.21048
#
# Velocity S-wave (km/s) = -0.46804 3.49851 2.45158
# Velocity P-wave (km/s) = 2.30282 5.89111 4.47259
#
# Compressibility (1/GPa) = 0.08797424
#
# Stress axis : x y z
#
# Youngs Moduli (GPa) = 12.25343 58.18829 109.11941
#
# Poissons Ratio (x) = -0.05533 1.06153
# Poissons Ratio (y) = -0.01165 0.13263
# Poissons Ratio (z) = 0.11920 0.07073
#
# Static dielectric constant tensor:
#      x y z
#    x 1.741320 0.000000 -0.032340 
#    y 0.000000 1.701560 0.000000 
#    z -0.032340 0.000000 1.776870 
# 
# From -- ./inp_files/87764.got.cif
#   From: 2010.05.17/outbox.cif.g08.bks.cpg/sg15_44_cif.got.tgz:87764.got - 2010.06.03 18:47:42.
