data_PCOD9273770
_publ_section_title
;
Structure prediction by ZEFSAII (Michael W. Deem and Ramdas Pophale) SiO2 
 PCOD9273770
Probable space group: C 2/C
;
_chemical_formula_sum "Si O2"
_cell_formula_units_Z 56
_cell_length_a 15.193245
_cell_length_b 15.065779
_cell_length_c 23.134480
_cell_angle_alpha 90.000000
_cell_angle_beta 33.163177
_cell_angle_gamma 90.000000
_cell_volume 2896.738676
_symmetry_space_group_name_H-M "C 2/C"
_symmetry_group_IT_number 15
_symmetry_cell_setting 'monoclinic'
loop_
_space_group_symop_operation_xyz
x,y,z
-x,y,1/2-z
-x,-y,-z
x,-y,1/2+z
1/2+x,1/2+y,z
1/2-x,1/2+y,1/2-z
1/2-x,1/2-y,-z
1/2+x,1/2-y,1/2+z
loop_
_atom_site_type_symbol
_atom_site_label
_atom_site_fract_x
_atom_site_fract_y
_atom_site_fract_z
Si Si1 0.389852 0.580196 0.440927
Si Si2 0.262301 0.822742 0.318792
Si Si3 0.426406 0.651788 0.047900
Si Si4 0.378987 0.478926 0.268075
Si Si5 0.750219 0.846497 0.904275
Si Si6 0.176949 0.497580 0.648327
Si Si7 0.630297 0.171138 0.869411
O O1 0.477179 0.628355 0.446095
O O2 0.513636 0.510528 0.344965
O O3 0.335051 0.645147 0.419834
O O4 0.235103 0.531426 0.553571
O O5 0.295471 0.742054 0.344486
O O6 0.334623 0.806453 0.216471
O O7 0.067961 0.832829 0.423711
O O8 0.325067 0.915202 0.310171
O O9 0.311659 0.571105 0.095162
O O10 0.333972 0.742667 0.111182
O O11 0.500000 0.440670 0.250000
O O12 0.305238 0.567911 0.337372
O O13 0.241079 0.411158 0.326211
O O14 0.558427 0.848205 0.018105
O O15 0.000000 0.457437 0.750000
#
# Coordination Sequence:
#
# PCOD9273770 Si02
#       7
#     8   8   8   8   8   8   8
#     4  10  20  38  59  81 115 148 179 234 294 329
#     4  10  21  36  58  85 112 145 184 230 290 338
#     4  10  22  37  55  81 115 150 186 231 279 334
#     4  10  21  37  58  81 112 151 187 227 278 334
#     4  10  22  37  59  88 112 141 189 237 279 331
#     4  11  22  36  57  84 113 148 191 231 273 336
#     4  11  21  37  59  82 113 150 187 231 276 327
#
# _framework density 19.332086
#
# number of rings (size 3 to 8) (size 9 to 14) (size 15 to 20)
#    0.000    1.714    0.000    5.571    0.000    8.571 
#    0.000    5.714    0.000    8.571    0.000    0.000 
#    0.000    0.000    0.000    0.000    0.000    0.000 
#
# Total GULP energy -156504.697582 kJ/mol
# GULP energy per Si atom -5589.453485 kJ/mol
# Density = 1.928809 g / cm^3
# Si number density = 19.332086 Si / 1000 Ang^3
#
#
#
# Elastic Constant Matrix: (Units=GPa)
#
#
# Indices 1 2 3 4 5 6 
#
# 1 51.9870 30.6926 32.1632 0.0000 -3.6803 0.0000
# 2 30.6926 69.1313 23.4213 -0.0002 -9.6070 0.0000
# 3 32.1632 23.4213 117.9569 -0.0015 8.1249 0.0000
# 4 0.0000 -0.0002 -0.0015 12.8110 0.0003 10.0622
# 5 -3.6803 -9.6070 8.1249 0.0003 28.6994 0.0000
# 6 0.0000 0.0000 0.0000 10.0622 0.0000 13.8970
#
#
#
# Elastic Compliance Matrix: (Units=1/GPa)
#
#
# Indices 1 2 3 4 5 6 
#
# 1 0.029456 -0.010778 -0.006021 -0.000002 0.001874 0.000002
# 2 -0.010778 0.020608 -0.001564 0.000000 0.005959 0.000000
# 3 -0.006021 -0.001564 0.010728 0.000003 -0.004333 -0.000002
# 4 -0.000002 0.000000 0.000003 0.180982 -0.000003 -0.131042
# 5 0.001874 0.005959 -0.004333 -0.000003 0.038306 0.000002
# 6 0.000002 0.000000 -0.000002 -0.131042 0.000002 0.166840
#
#
# Mechanical properties :
#
#
# Convention : Reuss Voigt Hill
#
# Bulk Modulus (GPa) = 41.54834 45.73660 43.64247
# Shear Modulus (GPa) = 10.16948 21.26802 15.71875
#
# Velocity S-wave (km/s) = 2.29605 3.32044 2.85457
# Velocity P-wave (km/s) = 5.34487 6.19759 5.78696
#
# Compressibility (1/GPa) = 0.02406835
#
# Stress axis : x y z
#
# Youngs Moduli (GPa) = 33.94869 48.52472 93.21135
#
# Poissons Ratio (x) = 0.52298 0.56122
# Poissons Ratio (y) = 0.36588 0.14575
# Poissons Ratio (z) = 0.20440 0.07588
#
# Static dielectric constant tensor:
#      x y z
#    x 1.668040 0.000000 -0.005590 
#    y 0.000000 1.674630 0.000000 
#    z -0.005590 0.000000 1.684020 
# 
# From -- ./inp_files/153498.got.cif
#   From: 2010.05.17/outbox.cif.g08.bks.cpg/sg15_77_cif.got.tgz:153498.got - 2010.06.03 18:47:42.
