data_PCOD9273104
_publ_section_title
;
Structure prediction by ZEFSAII (Michael W. Deem and Ramdas Pophale) SiO2 
 PCOD9273104
Probable space group: C 2/C
;
_chemical_formula_sum "Si O2"
_cell_formula_units_Z 44
_cell_length_a 24.095142
_cell_length_b 14.224638
_cell_length_c 17.110685
_cell_angle_alpha 90.000000
_cell_angle_beta 160.675632
_cell_angle_gamma 90.000000
_cell_volume 1940.687302
_symmetry_space_group_name_H-M "C 2/C"
_symmetry_group_IT_number 15
_symmetry_cell_setting 'monoclinic'
loop_
_space_group_symop_operation_xyz
x,y,z
-x,y,1/2-z
-x,-y,-z
x,-y,1/2+z
1/2+x,1/2+y,z
1/2-x,1/2+y,1/2-z
1/2-x,1/2-y,-z
1/2+x,1/2-y,1/2+z
loop_
_atom_site_type_symbol
_atom_site_label
_atom_site_fract_x
_atom_site_fract_y
_atom_site_fract_z
Si Si1 0.500000 0.718629 0.750000
Si Si2 0.503274 0.421121 0.906509
Si Si3 0.000000 0.804751 0.750000
Si Si4 0.659756 0.609744 0.837212
Si Si5 0.761180 0.211338 0.704662
Si Si6 0.000000 0.498276 0.250000
Si Si7 0.697614 0.151086 0.100283
O O1 0.639390 0.653404 0.895266
O O2 0.422614 0.776472 0.575644
O O3 0.450816 0.368824 0.757483
O O4 0.482361 0.530847 0.863878
O O5 0.369720 0.390637 0.795001
O O6 0.683725 0.380126 0.171929
O O7 0.853098 0.737090 0.524416
O O8 0.642462 0.689915 0.748292
O O9 0.837098 0.557730 0.058657
O O10 0.799981 0.301155 0.810876
O O11 0.060465 0.429777 0.400927
#
# Coordination Sequence:
#
# PCOD9273104 Si02
#       7
#     4   8   4   8   8   4   8
#     4  12  26  44  62  92 132 174 218 262 316 386
#     4  10  20  37  62  92 125 165 212 264 318 376
#     4   9  17  32  59  93 126 162 202 257 323 382
#     4  11  23  42  65  94 129 169 212 267 321 377
#     4  11  23  39  61  88 124 170 213 258 313 377
#     4   9  21  42  67  95 130 166 206 263 325 380
#     4   9  19  37  62  92 125 165 212 260 315 385
#
# _framework density 22.67238
#
# number of rings (size 3 to 8) (size 9 to 14) (size 15 to 20)
#    0.000    1.818    0.000    3.818    0.000    4.364 
#    0.000    2.727    0.000    0.000    0.000    0.000 
#    0.000    0.000    0.000    0.000    0.000    0.000 
#
# Total GULP energy -122721.933443 kJ/mol
# GULP energy per Si atom -5578.269702 kJ/mol
# Density = 2.262078 g / cm^3
# Si number density = 22.672380 Si / 1000 Ang^3
#
#
#
# Elastic Constant Matrix: (Units=GPa)
#
#
# Indices 1 2 3 4 5 6 
#
# 1 86.1041 44.9004 33.3922 -0.0001 -20.3267 0.0000
# 2 44.9004 96.7150 45.9368 0.0000 -12.9955 0.0000
# 3 33.3922 45.9368 97.9496 0.0000 -29.6265 0.0000
# 4 -0.0001 0.0000 0.0000 5.4927 0.0000 8.3702
# 5 -20.3267 -12.9955 -29.6265 0.0000 29.4380 0.0000
# 6 0.0000 0.0000 0.0000 8.3702 0.0000 38.9242
#
#
#
# Elastic Compliance Matrix: (Units=1/GPa)
#
#
# Indices 1 2 3 4 5 6 
#
# 1 0.017277 -0.006827 0.000012 0.000000 0.008928 0.000000
# 2 -0.006827 0.016008 -0.006424 0.000000 -0.004112 0.000000
# 3 0.000012 -0.006424 0.017773 0.000000 0.015059 0.000000
# 4 0.000000 0.000000 0.000000 0.270796 0.000000 -0.058232
# 5 0.008928 -0.004112 0.015059 0.000000 0.053475 0.000000
# 6 0.000000 0.000000 0.000000 -0.058232 0.000000 0.038213
#
#
# Mechanical properties :
#
#
# Convention : Reuss Voigt Hill
#
# Bulk Modulus (GPa) = 40.68304 58.80306 49.74305
# Shear Modulus (GPa) = 11.15546 25.20695 18.18120
#
# Velocity S-wave (km/s) = 2.22058 3.33797 2.83487
# Velocity P-wave (km/s) = 4.95555 6.39127 5.71865
#
# Compressibility (1/GPa) = 0.02458027
#
# Stress axis : x y z
#
# Youngs Moduli (GPa) = 57.88108 62.47006 56.26625
#
# Poissons Ratio (x) = 0.42649 -0.00069
# Poissons Ratio (y) = 0.39516 0.36144
# Poissons Ratio (z) = -0.00071 0.40129
#
# Static dielectric constant tensor:
#      x y z
#    x 1.799180 0.000000 -0.027840 
#    y 0.000000 1.880010 0.000000 
#    z -0.027840 0.000000 1.925730 
# 
# From -- ./inp_files/123277.got.cif
#   From: 2010.05.17/outbox.cif.g08.bks.cpg/sg15_62_cif.got.tgz:123277.got - 2010.06.03 18:47:42.
