data_PCOD9273449
_publ_section_title
;
Structure prediction by ZEFSAII (Michael W. Deem and Ramdas Pophale) SiO2 
 PCOD9273449
Probable space group: C 2/C
;
_chemical_formula_sum "Si O2"
_cell_formula_units_Z 64
_cell_length_a 8.289119
_cell_length_b 20.524544
_cell_length_c 16.980415
_cell_angle_alpha 90.000000
_cell_angle_beta 91.838738
_cell_angle_gamma 90.000000
_cell_volume 2887.397085
_symmetry_space_group_name_H-M "C 2/C"
_symmetry_group_IT_number 15
_symmetry_cell_setting 'monoclinic'
loop_
_space_group_symop_operation_xyz
x,y,z
-x,y,1/2-z
-x,-y,-z
x,-y,1/2+z
1/2+x,1/2+y,z
1/2-x,1/2+y,1/2-z
1/2-x,1/2-y,-z
1/2+x,1/2-y,1/2+z
loop_
_atom_site_type_symbol
_atom_site_label
_atom_site_fract_x
_atom_site_fract_y
_atom_site_fract_z
Si Si1 0.693360 0.891894 0.242957
Si Si2 0.505700 0.543843 0.077505
Si Si3 0.183314 0.319494 0.398949
Si Si4 0.413096 0.145881 0.320652
Si Si5 0.922234 0.426003 0.414038
Si Si6 0.634763 0.685581 0.438245
Si Si7 0.367719 0.049804 0.091890
Si Si8 0.323225 0.531504 0.223040
O O1 0.500000 0.897199 0.250000
O O2 0.740489 0.839686 0.311390
O O3 0.696022 0.887265 0.147550
O O4 0.778971 0.961031 0.256731
O O5 0.471806 0.620779 0.067508
O O6 0.685361 0.538004 0.115759
O O7 0.361864 0.519110 0.131000
O O8 0.500000 0.500000 0.000000
O O9 0.077611 0.379780 0.427217
O O10 0.316623 0.308984 0.468858
O O11 0.073045 0.254624 0.403850
O O12 0.500000 0.183822 0.250000
O O13 0.287498 0.175999 0.380808
O O14 0.554412 0.115195 0.374833
O O15 0.312775 0.086721 0.277219
O O16 0.006562 0.492559 0.383863
O O17 0.855178 0.443881 0.497741
O O18 0.500000 0.557346 0.250000
#
# Coordination Sequence:
#
# PCOD9273449 Si02
#       8
#     8   8   8   8   8   8   8   8
#     4  10  21  36  61  92 122 164 217 266 318 389
#     4  11  24  37  62  97 134 168 208 277 343 387
#     4  10  21  41  69  87 125 179 219 273 324 400
#     4  11  22  40  64  91 124 172 215 264 324 397
#     4  10  20  37  65  98 123 167 223 261 321 395
#     4  10  23  44  64  92 128 172 226 264 338 400
#     4  11  21  37  66  96 132 165 215 274 323 389
#     4  11  23  36  55  95 135 159 204 271 333 378
#
# _framework density 22.165292999999998
#
# number of rings (size 3 to 8) (size 9 to 14) (size 15 to 20)
#    0.000    1.500    2.500    2.625   10.500    0.000 
#    0.000   12.500    2.750    0.000    0.000    0.000 
#    0.000    0.000    0.000    0.000    0.000    0.000 
#
# Total GULP energy -178301.391859 kJ/mol
# GULP energy per Si atom -5571.918496 kJ/mol
# Density = 2.211484 g / cm^3
# Si number density = 22.165293 Si / 1000 Ang^3
#
#
#
# Elastic Constant Matrix: (Units=GPa)
#
#
# Indices 1 2 3 4 5 6 
#
# 1 60.5377 -8.0646 4.7715 0.0000 -1.0579 0.0000
# 2 -8.0646 75.0002 22.6271 0.0000 1.5301 0.0000
# 3 4.7715 22.6271 105.7295 0.0000 2.9028 0.0000
# 4 0.0000 0.0000 0.0000 36.5281 0.0000 0.1615
# 5 -1.0579 1.5301 2.9028 0.0000 36.2877 0.0000
# 6 0.0000 0.0000 0.0000 0.1615 0.0000 19.8064
#
#
#
# Elastic Compliance Matrix: (Units=1/GPa)
#
#
# Indices 1 2 3 4 5 6 
#
# 1 0.016916 0.002184 -0.001245 0.000000 0.000501 0.000000
# 2 0.002184 0.014540 -0.003202 0.000000 -0.000293 0.000000
# 3 -0.001245 -0.003202 0.010219 0.000000 -0.000719 0.000000
# 4 0.000000 0.000000 0.000000 0.027377 0.000000 -0.000223
# 5 0.000501 -0.000293 -0.000719 0.000000 0.027642 0.000000
# 6 0.000000 0.000000 0.000000 -0.000223 0.000000 0.050490
#
#
# Mechanical properties :
#
#
# Convention : Reuss Voigt Hill
#
# Bulk Modulus (GPa) = 26.91735 31.10394 29.01064
# Shear Modulus (GPa) = 30.47024 33.32000 31.89512
#
# Velocity S-wave (km/s) = 3.71169 3.88138 3.79749
# Velocity P-wave (km/s) = 5.52623 5.84380 5.68723
#
# Compressibility (1/GPa) = 0.03715076
#
# Stress axis : x y z
#
# Youngs Moduli (GPa) = 59.11403 68.77460 97.85389
#
# Poissons Ratio (x) = -0.15022 0.12179
# Poissons Ratio (y) = -0.12912 0.31335
# Poissons Ratio (z) = 0.07357 0.22023
#
# Static dielectric constant tensor:
#      x y z
#    x 1.798910 0.000000 -0.003060 
#    y 0.000000 1.814990 0.000000 
#    z -0.003060 0.000000 2.049010 
# 
# From -- ./inp_files/192153.got.cif
#   From: 2010.05.17/outbox.cif.g08.bks.cpg/sg15_97_cif.got.tgz:192153.got - 2010.06.03 18:47:42.
