data_PCOD9273885
_publ_section_title
;
Structure prediction by ZEFSAII (Michael W. Deem and Ramdas Pophale) SiO2 
 PCOD9273885
Probable space group: C 2/C
;
_chemical_formula_sum "Si O2"
_cell_formula_units_Z 40
_cell_length_a 21.951514
_cell_length_b 9.740507
_cell_length_c 14.705722
_cell_angle_alpha 90.000000
_cell_angle_beta 31.176333
_cell_angle_gamma 90.000000
_cell_volume 1627.752784
_symmetry_space_group_name_H-M "C 2/C"
_symmetry_group_IT_number 15
_symmetry_cell_setting 'monoclinic'
loop_
_space_group_symop_operation_xyz
x,y,z
-x,y,1/2-z
-x,-y,-z
x,-y,1/2+z
1/2+x,1/2+y,z
1/2-x,1/2+y,1/2-z
1/2-x,1/2-y,-z
1/2+x,1/2-y,1/2+z
loop_
_atom_site_type_symbol
_atom_site_label
_atom_site_fract_x
_atom_site_fract_y
_atom_site_fract_z
Si Si1 0.590066 0.682762 0.949649
Si Si2 0.009226 0.900967 0.121113
Si Si3 0.525665 0.052058 0.826334
Si Si4 0.837009 0.649866 0.580334
Si Si5 0.241905 0.084645 0.516995
O O1 0.541465 0.660455 0.909630
O O2 0.729147 0.717680 0.772073
O O3 0.583321 0.534328 0.004179
O O4 0.506950 0.794659 0.102936
O O5 0.893872 0.951413 0.322354
O O6 0.085350 0.773749 0.058703
O O7 0.500000 0.038040 0.750000
O O8 0.658700 0.994685 0.666815
O O9 0.433270 0.953559 0.997103
O O10 0.773998 0.561717 0.581903
O O11 0.250000 0.250000 0.500000
#
# Coordination Sequence:
#
# PCOD9273885 Si02
#       5
#     8   8   8   8   8
#     4  10  22  39  59  89 122 152 195 247 302 347
#     4  10  21  39  61  85 119 157 195 245 295 357
#     4  10  21  39  61  88 123 157 196 249 295 351
#     4  10  20  38  63  84 117 157 198 240 293 356
#     4  10  20  38  60  85 118 155 198 241 293 350
#
# _framework density 24.573754999999998
#
# number of rings (size 3 to 8) (size 9 to 14) (size 15 to 20)
#    0.000    2.000    2.000    1.200    0.000    3.200 
#    7.200    0.000    0.000    0.000    0.000    0.000 
#    0.000    0.000    0.000    0.000    0.000    0.000 
#
# Total GULP energy -111727.543521 kJ/mol
# GULP energy per Si atom -5586.377176 kJ/mol
# Density = 2.451782 g / cm^3
# Si number density = 24.573755 Si / 1000 Ang^3
#
#
#
# Elastic Constant Matrix: (Units=GPa)
#
#
# Indices 1 2 3 4 5 6 
#
# 1 57.3845 5.4165 19.4819 0.0000 -5.1141 0.0000
# 2 5.4165 101.3854 46.2569 0.0002 -8.4590 0.0000
# 3 19.4819 46.2569 185.1601 0.0001 -27.7162 0.0000
# 4 0.0000 0.0002 0.0001 48.2930 0.0000 12.9622
# 5 -5.1141 -8.4590 -27.7162 0.0000 28.7056 0.0000
# 6 0.0000 0.0000 0.0000 12.9622 0.0000 23.5159
#
#
#
# Elastic Compliance Matrix: (Units=1/GPa)
#
#
# Indices 1 2 3 4 5 6 
#
# 1 0.018137 -0.000083 -0.001645 0.000000 0.001618 0.000000
# 2 -0.000083 0.011144 -0.002672 0.000000 0.000689 0.000000
# 3 -0.001645 -0.002672 0.007107 0.000000 0.005781 0.000000
# 4 0.000000 0.000000 0.000000 0.024303 0.000000 -0.013396
# 5 0.001618 0.000689 0.005781 0.000000 0.040910 0.000000
# 6 0.000000 0.000000 0.000000 -0.013396 0.000000 0.049908
#
#
# Mechanical properties :
#
#
# Convention : Reuss Voigt Hill
#
# Bulk Modulus (GPa) = 36.24945 54.02675 45.13810
# Shear Modulus (GPa) = 29.49747 38.28787 33.89267
#
# Velocity S-wave (km/s) = 3.46839 3.95153 3.71782
# Velocity P-wave (km/s) = 5.55184 6.54620 6.06942
#
# Compressibility (1/GPa) = 0.02758663
#
# Stress axis : x y z
#
# Youngs Moduli (GPa) = 55.13610 89.73042 140.71012
#
# Poissons Ratio (x) = 0.00747 0.23151
# Poissons Ratio (y) = 0.00459 0.37601
# Poissons Ratio (z) = 0.09072 0.23978
#
# Static dielectric constant tensor:
#      x y z
#    x 2.136450 0.000000 0.011670 
#    y 0.000000 1.858130 0.000000 
#    z 0.011670 0.000000 1.988800 
# 
# From -- ./inp_files/102770.got.cif
#   From: 2010.05.17/outbox.cif.g08.bks.cpg/sg15_52_cif.got.tgz:102770.got - 2010.06.03 18:47:42.
