data_PCOD9273622
_publ_section_title
;
Structure prediction by ZEFSAII (Michael W. Deem and Ramdas Pophale) SiO2 
 PCOD9273622
Probable space group: C 2/C
;
_chemical_formula_sum "Si O2"
_cell_formula_units_Z 64
_cell_length_a 14.600029
_cell_length_b 26.511095
_cell_length_c 8.370136
_cell_angle_alpha 90.000000
_cell_angle_beta 105.528035
_cell_angle_gamma 90.000000
_cell_volume 3121.515009
_symmetry_space_group_name_H-M "C 2/C"
_symmetry_group_IT_number 15
_symmetry_cell_setting 'monoclinic'
loop_
_space_group_symop_operation_xyz
x,y,z
-x,y,1/2-z
-x,-y,-z
x,-y,1/2+z
1/2+x,1/2+y,z
1/2-x,1/2+y,1/2-z
1/2-x,1/2-y,-z
1/2+x,1/2-y,1/2+z
loop_
_atom_site_type_symbol
_atom_site_label
_atom_site_fract_x
_atom_site_fract_y
_atom_site_fract_z
Si Si1 0.605522 0.433525 0.117189
Si Si2 0.897833 0.791466 0.993317
Si Si3 0.901192 0.304129 0.303201
Si Si4 0.284485 0.662012 0.955054
Si Si5 0.887153 0.240480 0.825515
Si Si6 0.293286 0.382499 0.811125
Si Si7 0.117235 0.964802 0.470043
Si Si8 0.401688 0.152615 0.160227
O O1 0.642386 0.377826 0.093368
O O2 0.648620 0.446946 0.310164
O O3 0.492290 0.445075 0.072712
O O4 0.632294 0.475693 0.999034
O O5 0.847729 0.783236 0.141278
O O6 0.006861 0.778598 0.083805
O O7 0.869770 0.752527 0.840854
O O8 0.873781 0.846863 0.926889
O O9 0.820095 0.333739 0.169571
O O10 0.000000 0.302294 0.250000
O O11 0.911343 0.329028 0.482873
O O12 0.327287 0.717830 0.942490
O O13 0.278747 0.640340 0.129790
O O14 0.893559 0.298876 0.777675
O O15 0.194949 0.376676 0.859345
O O16 0.330232 0.438207 0.858243
O O17 0.500000 0.125740 0.250000
#
# Coordination Sequence:
#
# PCOD9273622 Si02
#       8
#     8   8   8   8   8   8   8   8
#     4  10  21  40  64  89 120 149 187 234 293 345
#     4  10  21  37  56  79 115 154 193 239 289 340
#     4  11  23  39  58  79 115 155 197 242 291 337
#     4  12  25  35  56  88 117 153 198 238 281 348
#     4  10  20  38  56  79 114 154 194 239 289 339
#     4  12  25  35  57  87 116 154 198 236 285 343
#     4  10  21  40  64  89 119 152 185 236 292 346
#     4  11  21  41  58  79 113 157 197 242 291 339
#
# _framework density 20.502863999999999
#
# number of rings (size 3 to 8) (size 9 to 14) (size 15 to 20)
#    0.000    1.250    2.500    5.250    1.750    7.500 
#    0.000    0.000    0.000    0.750    0.000    5.250 
#    0.000    0.000    0.000    0.000    0.000    0.000 
#
# Total GULP energy -178582.829846 kJ/mol
# GULP energy per Si atom -5580.713433 kJ/mol
# Density = 2.045620 g / cm^3
# Si number density = 20.502864 Si / 1000 Ang^3
#
#
#
# Elastic Constant Matrix: (Units=GPa)
#
#
# Indices 1 2 3 4 5 6 
#
# 1 61.8598 17.9711 26.2101 0.0000 -4.5855 0.0000
# 2 17.9711 48.8180 21.6564 0.0000 6.7324 0.0000
# 3 26.2101 21.6564 98.4676 0.0000 -7.2529 0.0000
# 4 0.0000 0.0000 0.0000 22.4403 0.0000 -4.9003
# 5 -4.5855 6.7324 -7.2529 0.0000 37.3019 0.0000
# 6 0.0000 0.0000 0.0000 -4.9003 0.0000 12.9004
#
#
#
# Elastic Compliance Matrix: (Units=1/GPa)
#
#
# Indices 1 2 3 4 5 6 
#
# 1 0.019685 -0.005979 -0.003720 0.000000 0.002776 0.000000
# 2 -0.005979 0.025530 -0.004481 0.000000 -0.006214 0.000000
# 3 -0.003720 -0.004481 0.012334 0.000000 0.002750 0.000000
# 4 0.000000 0.000000 0.000000 0.048594 0.000000 0.018459
# 5 0.002776 -0.006214 0.002750 0.000000 0.028806 0.000000
# 6 0.000000 0.000000 0.000000 0.018459 0.000000 0.084529
#
#
# Mechanical properties :
#
#
# Convention : Reuss Voigt Hill
#
# Bulk Modulus (GPa) = 34.26052 37.86896 36.06474
# Shear Modulus (GPa) = 19.41248 24.08238 21.74743
#
# Velocity S-wave (km/s) = 3.08038 3.43094 3.26038
# Velocity P-wave (km/s) = 5.42200 5.84853 5.63930
#
# Compressibility (1/GPa) = 0.02918811
#
# Stress axis : x y z
#
# Youngs Moduli (GPa) = 50.80136 39.16945 81.07682
#
# Poissons Ratio (x) = 0.23419 0.30163
# Poissons Ratio (y) = 0.30373 0.36332
# Poissons Ratio (z) = 0.18899 0.17553
#
# Static dielectric constant tensor:
#      x y z
#    x 1.768440 0.000000 -0.020560 
#    y 0.000000 1.709310 0.000000 
#    z -0.020560 0.000000 1.764980 
# 
# From -- ./inp_files/43567.got.cif
#   From: 2010.05.17/outbox.cif.g08.bks.cpg/sg15_22_cif.got.tgz:43567.got - 2010.06.03 18:47:42.
