data_PCOD9273034
_publ_section_title
;
Structure prediction by ZEFSAII (Michael W. Deem and Ramdas Pophale) SiO2 
 PCOD9273034
Probable space group: C 2/C
;
_chemical_formula_sum "Si O2"
_cell_formula_units_Z 56
_cell_length_a 24.971640
_cell_length_b 19.429312
_cell_length_c 4.993559
_cell_angle_alpha 90.000000
_cell_angle_beta 73.189647
_cell_angle_gamma 90.000000
_cell_volume 2319.251664
_symmetry_space_group_name_H-M "C 2/C"
_symmetry_group_IT_number 15
_symmetry_cell_setting 'monoclinic'
loop_
_space_group_symop_operation_xyz
x,y,z
-x,y,1/2-z
-x,-y,-z
x,-y,1/2+z
1/2+x,1/2+y,z
1/2-x,1/2+y,1/2-z
1/2-x,1/2-y,-z
1/2+x,1/2-y,1/2+z
loop_
_atom_site_type_symbol
_atom_site_label
_atom_site_fract_x
_atom_site_fract_y
_atom_site_fract_z
Si Si1 0.298477 0.546842 0.289499
Si Si2 0.617098 0.950978 0.495949
Si Si3 0.770404 0.817462 0.131698
Si Si4 0.500000 0.662718 0.250000
Si Si5 0.931463 0.047020 0.053040
Si Si6 0.000000 0.551115 0.250000
Si Si7 0.385222 0.741320 0.456527
Si Si8 0.159763 0.313332 0.502594
O O1 0.286050 0.484330 0.515471
O O2 0.269190 0.615016 0.445427
O O3 0.365417 0.563087 0.185820
O O4 0.656814 0.889158 0.385802
O O5 0.622121 0.006824 0.259303
O O6 0.557345 0.911397 0.616781
O O7 0.835231 0.809923 0.121849
O O8 0.726678 0.812496 0.437646
O O9 0.750000 0.750000 0.000000
O O10 0.469564 0.611453 0.082086
O O11 0.446910 0.710369 0.408055
O O12 0.940858 0.983771 0.245809
O O13 0.000000 0.500000 0.500000
O O14 0.368925 0.762584 0.175480
O O15 0.372657 0.804879 0.672521
#
# Coordination Sequence:
#
# PCOD9273034 Si02
#       8
#     8   8   8   4   8   4   8   8
#     4  10  22  40  66 102 136 172 228 285 333 396
#     4  10  20  37  62  89 118 157 203 257 331 397
#     4  10  23  47  69  94 133 184 228 270 339 414
#     4  12  24  44  69  96 139 174 230 274 332 402
#     4  10  22  40  64  97 135 176 216 270 336 399
#     4   8  16  30  51  78 109 146 184 230 294 378
#     4  11  26  43  63  96 126 178 220 272 329 396
#     4  11  25  43  65  92 132 167 221 279 330 396
#
# _framework density 24.145719
#
# number of rings (size 3 to 8) (size 9 to 14) (size 15 to 20)
#    0.000    1.714    1.429    1.714    0.000    9.714 
#    0.000    1.429    0.000    0.000    0.000    0.000 
#    0.000    0.000    0.000    0.000    0.000    0.000 
#
# Total GULP energy -156252.483066 kJ/mol
# GULP energy per Si atom -5580.445824 kJ/mol
# Density = 2.409076 g / cm^3
# Si number density = 24.145719 Si / 1000 Ang^3
#
#
#
# Elastic Constant Matrix: (Units=GPa)
#
#
# Indices 1 2 3 4 5 6 
#
# 1 95.8875 32.0414 37.8469 0.0000 -38.0438 0.0000
# 2 32.0414 75.6166 8.2858 0.0000 -19.8611 0.0000
# 3 37.8469 8.2858 97.5953 0.0000 4.1610 0.0000
# 4 0.0000 0.0000 0.0000 16.5402 0.0000 2.0137
# 5 -38.0438 -19.8611 4.1610 0.0000 42.3052 0.0000
# 6 0.0000 0.0000 0.0000 2.0137 0.0000 36.4497
#
#
#
# Elastic Compliance Matrix: (Units=1/GPa)
#
#
# Indices 1 2 3 4 5 6 
#
# 1 0.023581 -0.003543 -0.009718 0.000000 0.020498 0.000000
# 2 -0.003543 0.015867 -0.000155 0.000000 0.004278 0.000000
# 3 -0.009718 -0.000155 0.014464 0.000000 -0.010235 0.000000
# 4 0.000000 0.000000 0.000000 0.060868 0.000000 -0.003363
# 5 0.020498 0.004278 -0.010235 0.000000 0.045086 0.000000
# 6 0.000000 0.000000 0.000000 -0.003363 0.000000 0.027621
#
#
# Mechanical properties :
#
#
# Convention : Reuss Voigt Hill
#
# Bulk Modulus (GPa) = 36.92859 47.27197 42.10028
# Shear Modulus (GPa) = 22.38667 31.78737 27.08702
#
# Velocity S-wave (km/s) = 3.04822 3.63227 3.35298
# Velocity P-wave (km/s) = 5.26461 6.10012 5.69770
#
# Compressibility (1/GPa) = 0.02707929
#
# Stress axis : x y z
#
# Youngs Moduli (GPa) = 42.40636 63.02517 69.13501
#
# Poissons Ratio (x) = 0.22333 0.67184
# Poissons Ratio (y) = 0.15027 0.01074
# Poissons Ratio (z) = 0.41210 0.00979
#
# Static dielectric constant tensor:
#      x y z
#    x 2.122340 0.000000 -0.042210 
#    y 0.000000 1.914400 0.000000 
#    z -0.042210 0.000000 1.918380 
# 
# From -- ./inp_files/17180.got.cif
#   From: 2010.05.17/outbox.cif.g08.bks.cpg/sg15_9_cif.got.tgz:17180.got - 2010.06.03 18:47:42.
