data_PCOD9273579
_publ_section_title
;
Structure prediction by ZEFSAII (Michael W. Deem and Ramdas Pophale) SiO2 
 PCOD9273579
Probable space group: C 2/C
;
_chemical_formula_sum "Si O2"
_cell_formula_units_Z 32
_cell_length_a 12.610873
_cell_length_b 12.380867
_cell_length_c 8.195646
_cell_angle_alpha 90.000000
_cell_angle_beta 72.436433
_cell_angle_gamma 90.000000
_cell_volume 1219.963084
_symmetry_space_group_name_H-M "C 2/C"
_symmetry_group_IT_number 15
_symmetry_cell_setting 'monoclinic'
loop_
_space_group_symop_operation_xyz
x,y,z
-x,y,1/2-z
-x,-y,-z
x,-y,1/2+z
1/2+x,1/2+y,z
1/2-x,1/2+y,1/2-z
1/2-x,1/2-y,-z
1/2+x,1/2-y,1/2+z
loop_
_atom_site_type_symbol
_atom_site_label
_atom_site_fract_x
_atom_site_fract_y
_atom_site_fract_z
Si Si1 0.439706 0.900358 0.106172
Si Si2 0.782793 0.130577 0.670010
Si Si3 0.631730 0.649373 0.213100
Si Si4 0.371749 0.695462 0.947052
O O1 0.500000 0.879387 0.250000
O O2 0.313710 0.939127 0.201819
O O3 0.444547 0.796588 0.982186
O O4 0.500000 0.000000 0.000000
O O5 0.708155 0.241418 0.684427
O O6 0.823361 0.097954 0.473491
O O7 0.620249 0.350256 0.240544
O O8 0.500000 0.660712 0.250000
O O9 0.634827 0.611122 0.399835
O O10 0.250000 0.750000 0.000000
#
# Coordination Sequence:
#
# PCOD9273579 Si02
#       4
#     8   8   8   8
#     4  10  20  38  49  82 120 161 193 229 300 375
#     4   9  18  34  54  76 116 152 192 252 297 339
#     4   9  16  29  50  80 105 143 187 244 300 340
#     4   8  16  33  52  76 110 151 194 241 295 342
#
# _framework density 26.230302999999999
#
# number of rings (size 3 to 8) (size 9 to 14) (size 15 to 20)
#    0.000    3.500    0.000    3.000    0.000    1.000 
#   31.500    0.000    0.000    0.000    0.000    1.750 
#    0.000    1.000    0.000    0.000    0.000    0.000 
#
# Total GULP energy -89181.639455 kJ/mol
# GULP energy per Si atom -5573.852466 kJ/mol
# Density = 2.617060 g / cm^3
# Si number density = 26.230303 Si / 1000 Ang^3
#
#
#
# Elastic Constant Matrix: (Units=GPa)
#
#
# Indices 1 2 3 4 5 6 
#
# 1 135.6797 41.0748 80.8731 0.0000 35.5481 0.0000
# 2 41.0748 81.6332 76.2633 0.0000 3.8709 0.0000
# 3 80.8731 76.2633 228.7832 0.0000 26.3947 0.0000
# 4 0.0000 0.0000 0.0000 26.6290 0.0000 4.6288
# 5 35.5481 3.8709 26.3947 0.0000 60.5774 0.0000
# 6 0.0000 0.0000 0.0000 4.6288 0.0000 33.3175
#
#
#
# Elastic Compliance Matrix: (Units=1/GPa)
#
#
# Indices 1 2 3 4 5 6 
#
# 1 0.011069 -0.003246 -0.002217 0.000000 -0.005322 0.000000
# 2 -0.003246 0.018877 -0.005502 0.000000 0.003096 0.000000
# 3 -0.002217 -0.005502 0.007158 0.000000 -0.001466 0.000000
# 4 0.000000 0.000000 0.000000 0.038482 0.000000 -0.005346
# 5 -0.005322 0.003096 -0.001466 0.000000 0.020072 0.000000
# 6 0.000000 0.000000 0.000000 -0.005346 0.000000 0.030757
#
#
# Mechanical properties :
#
#
# Convention : Reuss Voigt Hill
#
# Bulk Modulus (GPa) = 65.90522 93.61316 79.75919
# Shear Modulus (GPa) = 32.59416 40.63046 36.61231
#
# Velocity S-wave (km/s) = 3.52890 3.93999 3.74010
# Velocity P-wave (km/s) = 6.46408 7.51428 7.00888
#
# Compressibility (1/GPa) = 0.01517331
#
# Stress axis : x y z
#
# Youngs Moduli (GPa) = 90.34554 52.97564 139.70868
#
# Poissons Ratio (x) = 0.17197 0.30967
# Poissons Ratio (y) = 0.29328 0.76869
# Poissons Ratio (z) = 0.20026 0.29148
#
# Static dielectric constant tensor:
#      x y z
#    x 2.013640 0.000000 -0.274970 
#    y 0.000000 2.224930 0.000000 
#    z -0.274970 0.000000 1.754560 
# 
# From -- ./inp_files/28377.got.cif
#   From: 2010.05.17/outbox.cif.g08.bks.cpg/sg15_15_cif.got.tgz:28377.got - 2010.06.03 18:47:42.
