data_PCOD9273463
_publ_section_title
;
Structure prediction by ZEFSAII (Michael W. Deem and Ramdas Pophale) SiO2 
 PCOD9273463
Probable space group: C 2/C
;
_chemical_formula_sum "Si O2"
_cell_formula_units_Z 48
_cell_length_a 17.824530
_cell_length_b 11.885682
_cell_length_c 11.698150
_cell_angle_alpha 90.000000
_cell_angle_beta 122.342133
_cell_angle_gamma 90.000000
_cell_volume 2093.864539
_symmetry_space_group_name_H-M "C 2/C"
_symmetry_group_IT_number 15
_symmetry_cell_setting 'monoclinic'
loop_
_space_group_symop_operation_xyz
x,y,z
-x,y,1/2-z
-x,-y,-z
x,-y,1/2+z
1/2+x,1/2+y,z
1/2-x,1/2+y,1/2-z
1/2-x,1/2-y,-z
1/2+x,1/2-y,1/2+z
loop_
_atom_site_type_symbol
_atom_site_label
_atom_site_fract_x
_atom_site_fract_y
_atom_site_fract_z
Si Si1 0.334912 0.250208 0.987342
Si Si2 0.124803 0.677639 0.950672
Si Si3 0.272484 0.169959 0.689957
Si Si4 0.508687 0.360997 0.627520
Si Si5 0.138334 0.022833 0.085612
Si Si6 0.545703 0.037398 0.413654
O O1 0.297619 0.211726 0.834411
O O2 0.365011 0.380088 0.012141
O O3 0.250000 0.250000 0.000000
O O4 0.417228 0.164133 0.068924
O O5 0.147870 0.681613 0.835481
O O6 0.029993 0.733730 0.905231
O O7 0.128542 0.547624 0.984348
O O8 0.197235 0.749390 0.076208
O O9 0.230787 0.044092 0.662594
O O10 0.500000 0.397266 0.750000
O O11 0.435807 0.428534 0.495129
O O12 0.604558 0.403597 0.665438
O O13 0.500000 0.013560 0.250000
O O14 0.500000 0.000000 0.500000
#
# Coordination Sequence:
#
# PCOD9273463 Si02
#       6
#     8   8   8   8   8   8
#     4  12  27  41  66 100 144 178 225 292 359 419
#     4  10  21  42  69  96 125 176 238 275 334 415
#     4  10  23  41  69  94 132 180 228 287 339 417
#     4  10  20  37  66  87 122 165 217 277 317 395
#     4  10  23  40  58  97 127 170 222 266 346 400
#     4  12  27  45  73 103 145 190 236 293 358 429
#
# _framework density 22.924119000000001
#
# number of rings (size 3 to 8) (size 9 to 14) (size 15 to 20)
#    0.000    1.333    0.000    4.500    7.000    0.667 
#    0.000    0.000    0.000    0.000    0.000    0.000 
#    0.000    0.000    0.000    0.000    0.000    0.000 
#
# Total GULP energy -133719.326778 kJ/mol
# GULP energy per Si atom -5571.638616 kJ/mol
# Density = 2.287194 g / cm^3
# Si number density = 22.924119 Si / 1000 Ang^3
#
#
#
# Elastic Constant Matrix: (Units=GPa)
#
#
# Indices 1 2 3 4 5 6 
#
# 1 52.3400 31.6857 28.4947 0.0000 -4.2088 0.0000
# 2 31.6857 126.0322 11.2978 0.0000 9.8847 0.0000
# 3 28.4947 11.2978 76.1614 0.0000 -14.6132 0.0000
# 4 0.0000 0.0000 0.0000 22.5103 0.0000 -8.3528
# 5 -4.2088 9.8847 -14.6132 0.0000 32.2069 0.0000
# 6 0.0000 0.0000 0.0000 -8.3528 0.0000 14.7555
#
#
#
# Elastic Compliance Matrix: (Units=1/GPa)
#
#
# Indices 1 2 3 4 5 6 
#
# 1 0.028132 -0.006347 -0.009316 0.000000 0.001398 0.000000
# 2 -0.006347 0.009806 0.000201 0.000000 -0.003748 0.000000
# 3 -0.009316 0.000201 0.017898 0.000000 0.006842 0.000000
# 4 0.000000 0.000000 0.000000 0.056237 0.000000 0.031835
# 5 0.001398 -0.003748 0.006842 0.000000 0.035486 0.000000
# 6 0.000000 0.000000 0.000000 0.031835 0.000000 0.085792
#
#
# Mechanical properties :
#
#
# Convention : Reuss Voigt Hill
#
# Bulk Modulus (GPa) = 40.13974 44.16558 42.15266
# Shear Modulus (GPa) = 18.34320 26.09823 22.22071
#
# Velocity S-wave (km/s) = 2.83180 3.37777 3.11676
# Velocity P-wave (km/s) = 5.31413 5.87539 5.60179
#
# Compressibility (1/GPa) = 0.02491296
#
# Stress axis : x y z
#
# Youngs Moduli (GPa) = 35.54629 101.97652 55.87138
#
# Poissons Ratio (x) = 0.64727 0.52047
# Poissons Ratio (y) = 0.22562 -0.01123
# Poissons Ratio (z) = 0.33113 -0.02049
#
# Static dielectric constant tensor:
#      x y z
#    x 1.881470 0.000000 0.065680 
#    y 0.000000 1.952150 0.000000 
#    z 0.065680 0.000000 1.770570 
# 
# From -- ./inp_files/104261.got.cif
#   From: 2010.05.17/outbox.cif.g08.bks.cpg/sg15_53_cif.got.tgz:104261.got - 2010.06.03 18:47:42.
