data_PCOD9273766
_publ_section_title
;
Structure prediction by ZEFSAII (Michael W. Deem and Ramdas Pophale) SiO2 
 PCOD9273766
Probable space group: C 2/C
;
_chemical_formula_sum "Si O2"
_cell_formula_units_Z 48
_cell_length_a 15.518133
_cell_length_b 8.603456
_cell_length_c 15.556296
_cell_angle_alpha 90.000000
_cell_angle_beta 78.241171
_cell_angle_gamma 90.000000
_cell_volume 2033.328500
_symmetry_space_group_name_H-M "C 2/C"
_symmetry_group_IT_number 15
_symmetry_cell_setting 'monoclinic'
loop_
_space_group_symop_operation_xyz
x,y,z
-x,y,1/2-z
-x,-y,-z
x,-y,1/2+z
1/2+x,1/2+y,z
1/2-x,1/2+y,1/2-z
1/2-x,1/2-y,-z
1/2+x,1/2-y,1/2+z
loop_
_atom_site_type_symbol
_atom_site_label
_atom_site_fract_x
_atom_site_fract_y
_atom_site_fract_z
Si Si1 0.841966 0.178182 0.595166
Si Si2 0.455632 0.458778 0.672462
Si Si3 0.873133 0.527596 0.576549
Si Si4 0.534006 0.851356 0.145180
Si Si5 0.778227 0.749229 0.714587
Si Si6 0.701686 0.952495 0.579768
O O1 0.862028 0.347586 0.555836
O O2 0.779747 0.213757 0.690768
O O3 0.789110 0.056324 0.547177
O O4 0.927971 0.092356 0.613503
O O5 0.500000 0.521592 0.750000
O O6 0.523544 0.329793 0.624023
O O7 0.364974 0.359501 0.709866
O O8 0.969887 0.560570 0.592448
O O9 0.812560 0.587767 0.666983
O O10 0.838840 0.618133 0.499201
O O11 0.500000 0.864774 0.250000
O O12 0.628300 0.927012 0.126376
O O13 0.722295 0.832969 0.651306
#
# Coordination Sequence:
#
# PCOD9273766 Si02
#       6
#     8   8   8   8   8   8
#     4  11  21  36  58  85 113 150 195 241 291 355
#     4   9  19  35  55  81 110 144 189 240 288 339
#     4  11  22  37  57  87 119 149 192 249 297 343
#     4  10  20  38  59  79 111 155 196 238 289 353
#     4  10  21  38  61  83 112 155 199 240 290 355
#     4  11  22  38  58  85 117 153 193 244 300 347
#
# _framework density 23.606612999999999
#
# number of rings (size 3 to 8) (size 9 to 14) (size 15 to 20)
#    0.000    1.667    0.000    7.500    0.000    2.000 
#    0.000    0.833    0.000    0.000    0.000    0.000 
#    0.000    0.000    0.000    0.000    0.000    0.000 
#
# Total GULP energy -134264.775619 kJ/mol
# GULP energy per Si atom -5594.365651 kJ/mol
# Density = 2.355288 g / cm^3
# Si number density = 23.606613 Si / 1000 Ang^3
#
#
#
# Elastic Constant Matrix: (Units=GPa)
#
#
# Indices 1 2 3 4 5 6 
#
# 1 92.0449 17.2930 26.2563 0.0000 38.3564 0.0000
# 2 17.2930 64.0566 5.4035 0.0000 8.8232 0.0000
# 3 26.2563 5.4035 77.7047 0.0000 27.1538 0.0000
# 4 0.0000 0.0000 0.0000 27.3887 0.0000 6.3187
# 5 38.3564 8.8232 27.1538 0.0000 49.7474 0.0000
# 6 0.0000 0.0000 0.0000 6.3187 0.0000 36.4647
#
#
#
# Elastic Compliance Matrix: (Units=1/GPa)
#
#
# Indices 1 2 3 4 5 6 
#
# 1 0.016590 -0.002772 -0.001378 0.000000 -0.011548 0.000000
# 2 -0.002772 0.016467 0.000081 0.000000 -0.000827 0.000000
# 3 -0.001378 0.000081 0.016018 0.000000 -0.007695 0.000000
# 4 0.000000 0.000000 0.000000 0.038032 0.000000 -0.006590
# 5 -0.011548 -0.000827 -0.007695 0.000000 0.033352 0.000000
# 6 0.000000 0.000000 0.000000 -0.006590 0.000000 0.028566
#
#
# Mechanical properties :
#
#
# Convention : Reuss Voigt Hill
#
# Bulk Modulus (GPa) = 24.42763 36.85685 30.64224
# Shear Modulus (GPa) = 29.27252 35.04372 32.15812
#
# Velocity S-wave (km/s) = 3.52520 3.85708 3.69487
# Velocity P-wave (km/s) = 5.19034 5.95676 5.58671
#
# Compressibility (1/GPa) = 0.04093724
#
# Stress axis : x y z
#
# Youngs Moduli (GPa) = 60.27668 60.72874 62.42866
#
# Poissons Ratio (x) = 0.16834 0.08601
# Poissons Ratio (y) = 0.16708 -0.00504
# Poissons Ratio (z) = 0.08304 -0.00490
#
# Static dielectric constant tensor:
#      x y z
#    x 1.880390 0.000000 -0.024750 
#    y 0.000000 1.887510 0.000000 
#    z -0.024750 0.000000 1.916590 
# 
# From -- ./inp_files/203001.got.cif
#   From: 2010.05.17/outbox.cif.g08.bks.cpg/sg15_102_cif.got.tgz:203001.got - 2010.06.03 18:47:42.
