data_PCOD9273364
_publ_section_title
;
Structure prediction by ZEFSAII (Michael W. Deem and Ramdas Pophale) SiO2 
 PCOD9273364
Probable space group: C 2/C
;
_chemical_formula_sum "Si O2"
_cell_formula_units_Z 64
_cell_length_a 14.218741
_cell_length_b 13.575645
_cell_length_c 16.768013
_cell_angle_alpha 90.000000
_cell_angle_beta 55.546491
_cell_angle_gamma 90.000000
_cell_volume 2668.940658
_symmetry_space_group_name_H-M "C 2/C"
_symmetry_group_IT_number 15
_symmetry_cell_setting 'monoclinic'
loop_
_space_group_symop_operation_xyz
x,y,z
-x,y,1/2-z
-x,-y,-z
x,-y,1/2+z
1/2+x,1/2+y,z
1/2-x,1/2+y,1/2-z
1/2-x,1/2-y,-z
1/2+x,1/2-y,1/2+z
loop_
_atom_site_type_symbol
_atom_site_label
_atom_site_fract_x
_atom_site_fract_y
_atom_site_fract_z
Si Si1 0.727956 0.021530 0.123236
Si Si2 0.368409 0.344360 0.842176
Si Si3 0.745986 0.359173 0.155003
Si Si4 0.107160 0.048991 0.585333
Si Si5 0.324649 0.925829 0.678405
Si Si6 0.920504 0.637010 0.865945
Si Si7 0.989589 0.314194 0.003926
Si Si8 0.117936 0.137208 0.864960
O O1 0.678644 0.076055 0.224060
O O2 0.639098 0.969057 0.106832
O O3 0.796065 0.928934 0.127164
O O4 0.818795 0.078457 0.026785
O O5 0.500000 0.345028 0.750000
O O6 0.363939 0.435941 0.905427
O O7 0.277693 0.365649 0.815861
O O8 0.346197 0.236146 0.888200
O O9 0.648802 0.384760 0.138305
O O10 0.796645 0.462942 0.163596
O O11 0.687354 0.310845 0.260192
O O12 0.853869 0.308636 0.062591
O O13 0.974822 0.064570 0.630894
O O14 0.444648 0.890992 0.584665
O O15 0.000000 0.633085 0.750000
O O16 0.984094 0.656300 0.917741
O O17 0.049770 0.212146 0.952452
#
# Coordination Sequence:
#
# PCOD9273364 Si02
#       8
#     8   8   8   8   8   8   8   8
#     4  11  23  39  62  97 133 167 214 268 324 385
#     4  10  20  37  64  96 131 173 216 264 325 390
#     4  10  23  44  65  90 125 169 216 268 323 388
#     4  11  22  40  66  90 126 174 219 266 327 393
#     4  10  22  40  64  93 131 173 216 262 321 393
#     4  11  23  39  64  99 136 168 210 270 323 380
#     4  12  25  43  68  94 129 174 215 265 332 390
#     4  11  24  41  65  96 131 166 214 275 327 389
#
# _framework density 23.979551000000001
#
# number of rings (size 3 to 8) (size 9 to 14) (size 15 to 20)
#    0.000    1.250    0.000    7.875    0.000    7.000 
#    0.000    1.250    0.000    0.000    0.000    0.000 
#    0.000    0.000    0.000    0.000    0.000    0.000 
#
# Total GULP energy -179140.300500 kJ/mol
# GULP energy per Si atom -5598.134391 kJ/mol
# Density = 2.392497 g / cm^3
# Si number density = 23.979551 Si / 1000 Ang^3
#
#
#
# Elastic Constant Matrix: (Units=GPa)
#
#
# Indices 1 2 3 4 5 6 
#
# 1 78.4596 23.8934 27.8023 0.0000 19.3003 0.0000
# 2 23.8934 49.0941 4.3644 0.0000 8.0573 0.0000
# 3 27.8023 4.3644 152.8863 0.0000 11.2472 0.0000
# 4 0.0000 0.0000 0.0000 27.3107 0.0000 5.4739
# 5 19.3003 8.0573 11.2472 0.0000 41.9226 0.0000
# 6 0.0000 0.0000 0.0000 5.4739 0.0000 29.9968
#
#
#
# Elastic Compliance Matrix: (Units=1/GPa)
#
#
# Indices 1 2 3 4 5 6 
#
# 1 0.017282 -0.007220 -0.002503 0.000000 -0.005897 0.000000
# 2 -0.007220 0.024064 0.000736 0.000000 -0.001498 0.000000
# 3 -0.002503 0.000736 0.007039 0.000000 -0.000878 0.000000
# 4 0.000000 0.000000 0.000000 0.038006 0.000000 -0.006935
# 5 -0.005897 -0.001498 -0.000878 0.000000 0.027092 0.000000
# 6 0.000000 0.000000 0.000000 -0.006935 0.000000 0.034603
#
#
# Mechanical properties :
#
#
# Convention : Reuss Voigt Hill
#
# Bulk Modulus (GPa) = 32.88282 43.61780 38.25031
# Shear Modulus (GPa) = 28.37753 34.80467 31.59110
#
# Velocity S-wave (km/s) = 3.44380 3.81390 3.63356
# Velocity P-wave (km/s) = 5.43651 6.13380 5.79565
#
# Compressibility (1/GPa) = 0.03041102
#
# Stress axis : x y z
#
# Youngs Moduli (GPa) = 57.86463 41.55652 142.05564
#
# Poissons Ratio (x) = 0.30006 0.35553
# Poissons Ratio (y) = 0.41781 -0.10460
# Poissons Ratio (z) = 0.14482 -0.03060
#
# Static dielectric constant tensor:
#      x y z
#    x 1.888490 0.000000 -0.052980 
#    y 0.000000 1.932050 0.000000 
#    z -0.052980 0.000000 1.985700 
# 
# From -- ./inp_files/205423.got.cif
#   From: 2010.05.17/outbox.cif.g08.bks.cpg/sg15_103_cif.got.tgz:205423.got - 2010.06.03 18:47:42.
