data_PCOD9273011
_publ_section_title
;
Structure prediction by ZEFSAII (Michael W. Deem and Ramdas Pophale) SiO2 
 PCOD9273011
Probable space group: C 2/C
;
_chemical_formula_sum "Si O2"
_cell_formula_units_Z 48
_cell_length_a 14.642090
_cell_length_b 8.884192
_cell_length_c 15.635397
_cell_angle_alpha 90.000000
_cell_angle_beta 87.240439
_cell_angle_gamma 90.000000
_cell_volume 2031.542938
_symmetry_space_group_name_H-M "C 2/C"
_symmetry_group_IT_number 15
_symmetry_cell_setting 'monoclinic'
loop_
_space_group_symop_operation_xyz
x,y,z
-x,y,1/2-z
-x,-y,-z
x,-y,1/2+z
1/2+x,1/2+y,z
1/2-x,1/2+y,1/2-z
1/2-x,1/2-y,-z
1/2+x,1/2-y,1/2+z
loop_
_atom_site_type_symbol
_atom_site_label
_atom_site_fract_x
_atom_site_fract_y
_atom_site_fract_z
Si Si1 0.410760 0.709681 0.123307
Si Si2 0.679245 0.641747 0.658941
Si Si3 0.826960 0.404021 0.977969
Si Si4 0.262077 0.332863 0.779374
Si Si5 0.625785 0.470933 0.512941
Si Si6 0.102033 0.313204 0.099931
O O1 0.338506 0.672557 0.200343
O O2 0.508733 0.766044 0.150034
O O3 0.373781 0.838402 0.060218
O O4 0.418768 0.564744 0.060781
O O5 0.697675 0.766174 0.583871
O O6 0.745273 0.505555 0.689659
O O7 0.674443 0.749072 0.742490
O O8 0.605893 0.542061 0.608914
O O9 0.894528 0.514803 0.925713
O O10 0.734999 0.499575 0.998651
O O11 0.308201 0.233785 0.851298
O O12 0.604797 0.295587 0.516767
#
# Coordination Sequence:
#
# PCOD9273011 Si02
#       6
#     8   8   8   8   8   8
#     4  11  21  40  61  85 122 160 192 247 299 350
#     4  10  20  37  62  87 113 158 199 255 286 349
#     4  11  20  41  63  88 117 159 205 242 288 353
#     4  11  21  37  60  87 121 153 201 246 307 344
#     4  10  20  39  62  84 119 159 202 236 290 354
#     4  11  24  35  60  94 124 154 193 244 305 356
#
# _framework density 23.627359999999999
#
# number of rings (size 3 to 8) (size 9 to 14) (size 15 to 20)
#    0.000    1.333    3.333    4.000    0.000    0.000 
#    0.000    0.000    0.000   10.000    0.000    0.000 
#    0.000    0.000    0.000    0.000    0.000    0.000 
#
# Total GULP energy -133803.948860 kJ/mol
# GULP energy per Si atom -5575.164536 kJ/mol
# Density = 2.357358 g / cm^3
# Si number density = 23.627360 Si / 1000 Ang^3
#
#
#
# Elastic Constant Matrix: (Units=GPa)
#
#
# Indices 1 2 3 4 5 6 
#
# 1 57.5951 4.6444 8.0149 0.0000 5.6020 0.0000
# 2 4.6444 118.4690 45.1096 0.0000 -3.2380 0.0000
# 3 8.0149 45.1096 90.7032 0.0000 8.2378 0.0000
# 4 0.0000 0.0000 0.0000 42.3164 0.0000 1.8795
# 5 5.6020 -3.2380 8.2378 0.0000 18.8255 0.0000
# 6 0.0000 0.0000 0.0000 1.8795 0.0000 25.0063
#
#
#
# Elastic Compliance Matrix: (Units=1/GPa)
#
#
# Indices 1 2 3 4 5 6 
#
# 1 0.018019 -0.000510 -0.000878 0.000000 -0.005065 0.000000
# 2 -0.000510 0.010760 -0.005715 0.000000 0.004504 0.000000
# 3 -0.000878 -0.005715 0.014590 0.000000 -0.007106 0.000000
# 4 0.000000 0.000000 0.000000 0.023711 0.000000 -0.001782
# 5 -0.005065 0.004504 -0.007106 0.000000 0.058511 0.000000
# 6 0.000000 0.000000 0.000000 -0.001782 0.000000 0.040124
#
#
# Mechanical properties :
#
#
# Convention : Reuss Voigt Hill
#
# Bulk Modulus (GPa) = 34.29214 42.47836 38.38525
# Shear Modulus (GPa) = 26.36526 31.16288 28.76407
#
# Velocity S-wave (km/s) = 3.34410 3.63565 3.49292
# Velocity P-wave (km/s) = 5.42733 5.97004 5.70514
#
# Compressibility (1/GPa) = 0.02916120
#
# Stress axis : x y z
#
# Youngs Moduli (GPa) = 55.49805 92.93333 68.53796
#
# Poissons Ratio (x) = 0.04743 0.06020
# Poissons Ratio (y) = 0.02833 0.39172
# Poissons Ratio (z) = 0.04875 0.53115
#
# Static dielectric constant tensor:
#      x y z
#    x 2.026640 0.000000 -0.040510 
#    y 0.000000 1.913760 0.000000 
#    z -0.040510 0.000000 1.944730 
# 
# From -- ./inp_files/159724.got.cif
#   From: 2010.05.17/outbox.cif.g08.bks.cpg/sg15_80_cif.got.tgz:159724.got - 2010.06.03 18:47:42.
